
 OpenBabel04232216493D

 59 60  0  0  1  0  0  0  0  0999 V2000
    0.9812   -0.0894   -0.0017 C   0  0  0  0  0  0  0  0  0  0  0  0
    2.5280   -0.0864    0.0999 C   0  0  3  0  0  0  0  0  0  0  0  0
    3.0283    1.2595   -0.5547 C   0  0  0  0  0  0  0  0  0  0  0  0
    3.6001    2.3615    0.3537 C   0  0  0  0  0  0  0  0  0  0  0  0
    2.6213    2.8797    1.4207 C   0  0  0  0  0  0  0  0  0  0  0  0
    3.2766    2.9663    2.8111 C   0  0  0  0  0  0  0  0  0  0  0  0
    2.2726    2.8685    3.9772 C   0  0  0  0  0  0  0  0  0  0  0  0
    2.6153    1.7498    5.0088 C   0  0  0  0  0  0  0  0  0  0  0  0
    2.0183    0.3682    4.6480 C   0  0  0  0  0  0  0  0  0  0  0  0
    2.9191   -0.9361    4.8525 C   0  0  3  0  0  0  0  0  0  0  0  0
    2.6307   -1.9904    3.6312 C   0  0  3  0  0  0  0  0  0  0  0  0
    1.1838   -2.6109    3.6851 C   0  0  0  0  0  0  0  0  0  0  0  0
    0.6938   -2.6317    5.1019 C   0  0  3  0  0  0  0  0  0  0  0  0
   -0.6413   -2.3020    5.4255 O   0  0  0  0  0  0  0  0  0  0  0  0
    1.3215   -3.7142    5.9383 C   0  0  0  0  0  0  0  0  0  0  0  0
    2.1576   -2.9751    7.0143 C   0  0  3  0  0  0  0  0  0  0  0  0
    1.1778   -3.0338    8.2584 C   0  0  0  0  0  0  0  0  0  0  0  0
    1.4867   -2.5772    9.6540 C   0  0  0  0  0  0  0  0  0  0  0  0
    2.4481   -1.8728    9.9276 O   0  0  0  0  0  0  0  0  0  0  0  0
    0.4542   -2.9570   10.7287 C   0  0  0  0  0  0  0  0  0  0  0  0
    2.8543   -1.5522    6.4875 C   0  0  0  0  0  0  0  0  0  0  0  0
    2.7115   -1.5777    2.1334 C   0  0  0  0  0  0  0  0  0  0  0  0
    2.9732   -0.4010    1.5158 C   0  0  0  0  0  0  0  0  0  0  0  0
    0.6405    0.1206   -1.0193 H   0  0  0  0  0  0  0  0  0  0  0  0
    0.5195    0.6365    0.6680 H   0  0  0  0  0  0  0  0  0  0  0  0
    0.5820   -1.0805    0.2648 H   0  0  0  0  0  0  0  0  0  0  0  0
    2.8862   -0.8832   -0.5640 H   0  0  0  0  0  0  0  0  0  0  0  0
    2.2464    1.7038   -1.1745 H   0  0  0  0  0  0  0  0  0  0  0  0
    3.8288    0.9952   -1.2691 H   0  0  0  0  0  0  0  0  0  0  0  0
    3.8931    3.2056   -0.2866 H   0  0  0  0  0  0  0  0  0  0  0  0
    4.5331    1.9992    0.7983 H   0  0  0  0  0  0  0  0  0  0  0  0
    1.7298    2.2526    1.4638 H   0  0  0  0  0  0  0  0  0  0  0  0
    2.2678    3.8772    1.1263 H   0  0  0  0  0  0  0  0  0  0  0  0
    3.8118    3.9232    2.8705 H   0  0  0  0  0  0  0  0  0  0  0  0
    4.0465    2.1989    2.9285 H   0  0  0  0  0  0  0  0  0  0  0  0
    1.2440    2.7505    3.6143 H   0  0  0  0  0  0  0  0  0  0  0  0
    2.2930    3.8344    4.4995 H   0  0  0  0  0  0  0  0  0  0  0  0
    2.1753    2.0574    5.9669 H   0  0  0  0  0  0  0  0  0  0  0  0
    3.6971    1.7025    5.1621 H   0  0  0  0  0  0  0  0  0  0  0  0
    1.6956    0.4205    3.6066 H   0  0  0  0  0  0  0  0  0  0  0  0
    1.0815    0.2661    5.2077 H   0  0  0  0  0  0  0  0  0  0  0  0
    3.9612   -0.6073    4.7302 H   0  0  0  0  0  0  0  0  0  0  0  0
    3.3654   -2.7931    3.7664 H   0  0  0  0  0  0  0  0  0  0  0  0
    1.2136   -3.6187    3.2455 H   0  0  0  0  0  0  0  0  0  0  0  0
    0.4779   -2.0415    3.0717 H   0  0  0  0  0  0  0  0  0  0  0  0
    1.0814   -1.7156    5.4552 H   0  0  0  0  0  0  0  0  0  0  0  0
   -0.5472   -1.5106    6.0161 H   0  0  0  0  0  0  0  0  0  0  0  0
    1.9639   -4.4151    5.3872 H   0  0  0  0  0  0  0  0  0  0  0  0
    0.5277   -4.3421    6.3748 H   0  0  0  0  0  0  0  0  0  0  0  0
    3.0011   -3.6226    7.2902 H   0  0  0  0  0  0  0  0  0  0  0  0
    1.0024   -4.1148    8.4272 H   0  0  0  0  0  0  0  0  0  0  0  0
    0.1963   -2.6136    7.9941 H   0  0  0  0  0  0  0  0  0  0  0  0
   -0.3398   -3.5854   10.2994 H   0  0  0  0  0  0  0  0  0  0  0  0
   -0.0294   -2.0677   11.1461 H   0  0  0  0  0  0  0  0  0  0  0  0
    0.9309   -3.5338   11.5227 H   0  0  0  0  0  0  0  0  0  0  0  0
    3.9126   -1.6620    6.7613 H   0  0  0  0  0  0  0  0  0  0  0  0
    2.4763   -0.7401    7.1242 H   0  0  0  0  0  0  0  0  0  0  0  0
    2.3344   -2.3579    1.4676 H   0  0  0  0  0  0  0  0  0  0  0  0
    3.3832    0.3930    2.1244 H   0  0  0  0  0  0  0  0  0  0  0  0
  1  2  1  0  0  0  0
  1 24  1  0  0  0  0
  1 25  1  0  0  0  0
  1 26  1  0  0  0  0
  2  3  1  0  0  0  0
  2 23  1  0  0  0  0
  2 27  1  0  0  0  0
  3  4  1  0  0  0  0
  3 28  1  0  0  0  0
  3 29  1  0  0  0  0
  4  5  1  0  0  0  0
  4 30  1  0  0  0  0
  4 31  1  0  0  0  0
  5  6  1  0  0  0  0
  5 32  1  0  0  0  0
  5 33  1  0  0  0  0
  6  7  1  0  0  0  0
  6 34  1  0  0  0  0
  6 35  1  0  0  0  0
  7  8  1  0  0  0  0
  7 36  1  0  0  0  0
  7 37  1  0  0  0  0
  8  9  1  0  0  0  0
  8 38  1  0  0  0  0
  8 39  1  0  0  0  0
  9 10  1  0  0  0  0
  9 40  1  0  0  0  0
  9 41  1  0  0  0  0
 10 11  1  0  0  0  0
 10 21  1  0  0  0  0
 10 42  1  0  0  0  0
 11 12  1  0  0  0  0
 11 22  1  0  0  0  0
 11 43  1  0  0  0  0
 12 13  1  0  0  0  0
 12 44  1  0  0  0  0
 12 45  1  0  0  0  0
 13 14  1  0  0  0  0
 13 15  1  0  0  0  0
 13 46  1  0  0  0  0
 14 47  1  0  0  0  0
 15 16  1  0  0  0  0
 15 48  1  0  0  0  0
 15 49  1  0  0  0  0
 16 17  1  0  0  0  0
 16 21  1  0  0  0  0
 16 50  1  0  0  0  0
 17 18  1  0  0  0  0
 17 51  1  0  0  0  0
 17 52  1  0  0  0  0
 18 19  2  0  0  0  0
 18 20  1  0  0  0  0
 20 53  1  0  0  0  0
 20 54  1  0  0  0  0
 20 55  1  0  0  0  0
 21 56  1  0  0  0  0
 21 57  1  0  0  0  0
 22 23  2  3  0  0  0
 22 58  1  0  0  0  0
 23 59  1  0  0  0  0
M  END
$$$$
