
 OpenBabel04232216523D

 29 29  0  0  1  0  0  0  0  0999 V2000
    3.7153    2.9639   -1.0784 C   0  0  0  0  0  0  0  0  0  0  0  0
    3.7643    1.5448   -0.5359 C   0  0  0  0  0  0  0  0  0  0  0  0
    4.4257    0.5921   -1.5326 C   0  0  0  0  0  0  0  0  0  0  0  0
    4.4974   -0.8333   -0.9779 C   0  0  0  0  0  0  0  0  0  0  0  0
    5.1748   -1.8360   -1.9412 C   0  0  3  0  0  0  0  0  0  0  0  0
    6.6347   -1.4847   -2.2827 C   0  0  0  0  0  0  0  0  0  0  0  0
    7.5194   -1.5741   -1.1186 N   0  0  0  0  0  0  0  0  0  0  0  0
    7.5229   -2.9330   -0.5722 C   0  0  0  0  0  0  0  0  0  0  0  0
    6.1242   -3.4296   -0.2043 C   0  0  0  0  0  0  0  0  0  0  0  0
    5.1387   -3.2621   -1.3613 C   0  0  0  0  0  0  0  0  0  0  0  0
    3.2470    3.6325   -0.3495 H   0  0  0  0  0  0  0  0  0  0  0  0
    3.1331    3.0084   -2.0040 H   0  0  0  0  0  0  0  0  0  0  0  0
    4.7221    3.3407   -1.2860 H   0  0  0  0  0  0  0  0  0  0  0  0
    2.7474    1.2052   -0.3107 H   0  0  0  0  0  0  0  0  0  0  0  0
    4.3242    1.5418    0.4076 H   0  0  0  0  0  0  0  0  0  0  0  0
    5.4308    0.9672   -1.7506 H   0  0  0  0  0  0  0  0  0  0  0  0
    3.8649    0.5918   -2.4749 H   0  0  0  0  0  0  0  0  0  0  0  0
    3.4765   -1.1803   -0.7726 H   0  0  0  0  0  0  0  0  0  0  0  0
    5.0133   -0.8132   -0.0111 H   0  0  0  0  0  0  0  0  0  0  0  0
    4.5972   -1.8392   -2.8753 H   0  0  0  0  0  0  0  0  0  0  0  0
    6.7067   -0.4802   -2.7102 H   0  0  0  0  0  0  0  0  0  0  0  0
    7.0018   -2.1597   -3.0667 H   0  0  0  0  0  0  0  0  0  0  0  0
    7.1994   -0.9245   -0.4010 H   0  0  0  0  0  0  0  0  0  0  0  0
    8.1591   -2.9513    0.3192 H   0  0  0  0  0  0  0  0  0  0  0  0
    7.9842   -3.6140   -1.2969 H   0  0  0  0  0  0  0  0  0  0  0  0
    5.7589   -2.8877    0.6760 H   0  0  0  0  0  0  0  0  0  0  0  0
    6.1764   -4.4869    0.0801 H   0  0  0  0  0  0  0  0  0  0  0  0
    4.1263   -3.5245   -1.0338 H   0  0  0  0  0  0  0  0  0  0  0  0
    5.4043   -3.9730   -2.1549 H   0  0  0  0  0  0  0  0  0  0  0  0
  1  2  1  0  0  0  0
  1 11  1  0  0  0  0
  1 12  1  0  0  0  0
  1 13  1  0  0  0  0
  2  3  1  0  0  0  0
  2 14  1  0  0  0  0
  2 15  1  0  0  0  0
  3  4  1  0  0  0  0
  3 16  1  0  0  0  0
  3 17  1  0  0  0  0
  4  5  1  0  0  0  0
  4 18  1  0  0  0  0
  4 19  1  0  0  0  0
  5  6  1  0  0  0  0
  5 10  1  0  0  0  0
  5 20  1  0  0  0  0
  6  7  1  0  0  0  0
  6 21  1  0  0  0  0
  6 22  1  0  0  0  0
  7  8  1  0  0  0  0
  7 23  1  0  0  0  0
  8  9  1  0  0  0  0
  8 24  1  0  0  0  0
  8 25  1  0  0  0  0
  9 10  1  0  0  0  0
  9 26  1  0  0  0  0
  9 27  1  0  0  0  0
 10 28  1  0  0  0  0
 10 29  1  0  0  0  0
M  END
$$$$
