
 OpenBabel04232216473D

 91 91  0  0  1  0  0  0  0  0999 V2000
    4.1003    4.1629    1.6038 C   0  0  0  0  0  0  0  0  0  0  0  0
    4.0679    2.7984    1.0690 C   0  0  3  0  0  0  0  0  0  0  0  0
    3.0740    2.4125    0.2319 C   0  0  0  0  0  0  0  0  0  0  0  0
    2.8836    1.9114    1.4638 C   0  0  0  0  0  0  0  0  0  0  0  0
    3.2250    1.6039    3.0095 C   0  0  0  0  0  0  0  0  0  0  0  0
    2.7855    0.2300    3.6108 C   0  0  0  0  0  0  0  0  0  0  0  0
    3.1681   -0.0081    5.0734 C   0  0  0  0  0  0  0  0  0  0  0  0
    2.5333    0.9947    5.8157 O   0  0  0  0  0  0  0  0  0  0  0  0
    2.9116    0.6919    7.1431 O   0  0  0  0  0  0  0  0  0  0  0  0
    2.3369    1.6660    7.9601 O   0  0  0  0  0  0  0  0  0  0  0  0
    2.6950    1.3869    9.2720 O   0  0  0  0  0  0  0  0  0  0  0  0
    2.1025    2.3764   10.0406 O   0  0  0  0  0  0  0  0  0  0  0  0
    2.4524    2.1086   11.3459 O   0  0  0  0  0  0  0  0  0  0  0  0
    1.8625    3.0924   12.1027 O   0  0  0  0  0  0  0  0  0  0  0  0
    2.2221    2.8083   13.3950 O   0  0  0  0  0  0  0  0  0  0  0  0
    1.6363    3.7861   14.1511 O   0  0  0  0  0  0  0  0  0  0  0  0
    1.9978    3.4980   15.4367 O   0  0  0  0  0  0  0  0  0  0  0  0
    1.4124    4.4743   16.1868 O   0  0  0  0  0  0  0  0  0  0  0  0
    1.7714    4.1895   17.4714 O   0  0  0  0  0  0  0  0  0  0  0  0
    1.1805    5.1717   18.2110 O   0  0  0  0  0  0  0  0  0  0  0  0
    1.5359    4.8923   19.4963 O   0  0  0  0  0  0  0  0  0  0  0  0
    0.9452    5.8745   20.2377 O   0  0  0  0  0  0  0  0  0  0  0  0
    1.3078    5.5845   21.5214 O   0  0  0  0  0  0  0  0  0  0  0  0
    0.7223    6.5609   22.2722 O   0  0  0  0  0  0  0  0  0  0  0  0
    1.0836    6.2729   23.5563 O   0  0  0  0  0  0  0  0  0  0  0  0
    0.4935    7.2547   24.3005 O   0  0  0  0  0  0  0  0  0  0  0  0
    0.8541    6.9674   25.5833 O   0  0  0  0  0  0  0  0  0  0  0  0
    0.2630    7.9518   26.3337 O   0  0  0  0  0  0  0  0  0  0  0  0
    0.6308    7.6539   27.6145 O   0  0  0  0  0  0  0  0  0  0  0  0
    0.0372    8.6396   28.3528 O   0  0  0  0  0  0  0  0  0  0  0  0
    0.3999    8.3504   29.6417 O   0  0  0  0  0  0  0  0  0  0  0  0
   -0.1907    9.3323   30.3820 O   0  0  0  0  0  0  0  0  0  0  0  0
    0.1731    9.0409   31.6678 O   0  0  0  0  0  0  0  0  0  0  0  0
   -0.4134   10.0185   32.4165 O   0  0  0  0  0  0  0  0  0  0  0  0
   -0.0536    9.7320   33.6979 O   0  0  0  0  0  0  0  0  0  0  0  0
   -0.6342   10.7032   34.4590 O   0  0  0  0  0  0  0  0  0  0  0  0
   -0.2809   10.4239   35.7279 O   0  0  0  0  0  0  0  0  0  0  0  0
   -0.8660   11.3988   36.4728 O   0  0  0  0  0  0  0  0  0  0  0  0
   -0.5095   11.1176   37.7574 O   0  0  0  0  0  0  0  0  0  0  0  0
   -1.0928   12.0874   38.4892 O   0  0  0  0  0  0  0  0  0  0  0  0
   -0.7366   11.8089   39.7849 O   0  0  0  0  0  0  0  0  0  0  0  0
   -1.3310   12.7969   40.5292 O   0  0  0  0  0  0  0  0  0  0  0  0
   -0.9645   12.5012   41.8127 O   0  0  0  0  0  0  0  0  0  0  0  0
   -1.5412   13.4653   42.5652 O   0  0  0  0  0  0  0  0  0  0  0  0
   -1.1914   13.1924   43.8420 O   0  0  0  0  0  0  0  0  0  0  0  0
   -1.7788   14.1707   44.5877 O   0  0  0  0  0  0  0  0  0  0  0  0
   -1.4188   13.8842   45.8708 O   0  0  0  0  0  0  0  0  0  0  0  0
   -2.0062   14.8625   46.6165 O   0  0  0  0  0  0  0  0  0  0  0  0
   -1.6462   14.5761   47.8996 O   0  0  0  0  0  0  0  0  0  0  0  0
   -2.2336   15.5544   48.6453 O   0  0  0  0  0  0  0  0  0  0  0  0
   -1.8736   15.2680   49.9284 O   0  0  0  0  0  0  0  0  0  0  0  0
   -2.4610   16.2463   50.6740 O   0  0  0  0  0  0  0  0  0  0  0  0
   -2.1010   15.9598   51.9572 O   0  0  0  0  0  0  0  0  0  0  0  0
   -2.6884   16.9381   52.7028 O   0  0  0  0  0  0  0  0  0  0  0  0
   -2.3283   16.6517   53.9860 O   0  0  0  0  0  0  0  0  0  0  0  0
   -2.9158   17.6299   54.7315 O   0  0  0  0  0  0  0  0  0  0  0  0
   -2.5565   17.3446   56.0153 O   0  0  0  0  0  0  0  0  0  0  0  0
   -3.1448   18.3240   56.7595 O   0  0  0  0  0  0  0  0  0  0  0  0
   -2.7803   18.0314   58.0439 O   0  0  0  0  0  0  0  0  0  0  0  0
   -3.3673   19.0105   58.7976 O   0  0  0  0  0  0  0  0  0  0  0  0
   -3.0062   18.7216   60.0759 O   0  0  0  0  0  0  0  0  0  0  0  0
   -3.6002   19.7094   60.8217 O   0  0  0  0  0  0  0  0  0  0  0  0
   -3.2377   19.4183   62.0991 O   0  0  0  0  0  0  0  0  0  0  0  0
   -3.8230   20.3942   62.8477 O   0  0  0  0  0  0  0  0  0  0  0  0
   -3.4599   20.1036   64.1326 O   0  0  0  0  0  0  0  0  0  0  0  0
   -4.0492   21.0839   64.8743 O   0  0  0  0  0  0  0  0  0  0  0  0
   -3.6931   20.8036   66.1600 O   0  0  0  0  0  0  0  0  0  0  0  0
   -4.2828   21.7845   66.9028 O   0  0  0  0  0  0  0  0  0  0  0  0
   -3.9232   21.4990   68.1871 O   0  0  0  0  0  0  0  0  0  0  0  0
   -4.5089   22.4757   68.9381 O   0  0  0  0  0  0  0  0  0  0  0  0
   -4.1462   22.1859   70.2242 O   0  0  0  0  0  0  0  0  0  0  0  0
   -4.7320   23.1638   70.9801 O   0  0  0  0  0  0  0  0  0  0  0  0
   -4.3768   22.8868   72.2770 O   0  0  0  0  0  0  0  0  0  0  0  0
   -4.9727   23.8777   73.0256 O   0  0  0  0  0  0  0  0  0  0  0  0
   -4.6298   23.6210   74.3368 O   0  0  0  0  0  0  0  0  0  0  0  0
   -5.2240   24.6137   75.1091 O   0  0  0  0  0  0  0  0  0  0  0  0
   -4.8641   24.3341   76.4290 O   0  0  0  0  0  0  0  0  0  0  0  0
   -5.4351   25.3058   77.2688 O   0  0  0  0  0  0  0  0  0  0  0  0
   -5.0556   25.0012   78.6063 O   0  0  0  0  0  0  0  0  0  0  0  0
    4.7566    4.7760    0.9886 H   0  0  0  0  0  0  0  0  0  0  0  0
    4.4975    4.0752    2.6146 H   0  0  0  0  0  0  0  0  0  0  0  0
    3.0977    4.6109    1.6713 H   0  0  0  0  0  0  0  0  0  0  0  0
    4.9910    2.2790    0.9467 H   0  0  0  0  0  0  0  0  0  0  0  0
    2.8278    2.6293   -0.8046 H   0  0  0  0  0  0  0  0  0  0  0  0
    2.8084    2.3916    3.6693 H   0  0  0  0  0  0  0  0  0  0  0  0
    4.3078    1.6628    3.1920 H   0  0  0  0  0  0  0  0  0  0  0  0
    3.2305   -0.5864    3.0447 H   0  0  0  0  0  0  0  0  0  0  0  0
    1.6928    0.1731    3.5714 H   0  0  0  0  0  0  0  0  0  0  0  0
    4.2478    0.0292    5.2732 H   0  0  0  0  0  0  0  0  0  0  0  0
    2.7950   -0.9773    5.4461 H   0  0  0  0  0  0  0  0  0  0  0  0
   -5.5312   25.7512   78.9763 H   0  0  0  0  0  0  0  0  0  0  0  0
  1  2  1  0  0  0  0
  1 80  1  0  0  0  0
  1 81  1  0  0  0  0
  1 82  1  0  0  0  0
  2  3  1  0  0  0  0
  2  4  1  0  0  0  0
  2 83  1  0  0  0  0
  3  4  2  0  0  0  0
  3 84  1  0  0  0  0
  4  5  1  0  0  0  0
  5  6  1  0  0  0  0
  5 85  1  0  0  0  0
  5 86  1  0  0  0  0
  6  7  1  0  0  0  0
  6 87  1  0  0  0  0
  6 88  1  0  0  0  0
  7  8  1  0  0  0  0
  7 89  1  0  0  0  0
  7 90  1  0  0  0  0
  8  9  1  0  0  0  0
  9 10  1  0  0  0  0
 10 11  1  0  0  0  0
 11 12  1  0  0  0  0
 12 13  1  0  0  0  0
 13 14  1  0  0  0  0
 14 15  1  0  0  0  0
 15 16  1  0  0  0  0
 16 17  1  0  0  0  0
 17 18  1  0  0  0  0
 18 19  1  0  0  0  0
 19 20  1  0  0  0  0
 20 21  1  0  0  0  0
 21 22  1  0  0  0  0
 22 23  1  0  0  0  0
 23 24  1  0  0  0  0
 24 25  1  0  0  0  0
 25 26  1  0  0  0  0
 26 27  1  0  0  0  0
 27 28  1  0  0  0  0
 28 29  1  0  0  0  0
 29 30  1  0  0  0  0
 30 31  1  0  0  0  0
 31 32  1  0  0  0  0
 32 33  1  0  0  0  0
 33 34  1  0  0  0  0
 34 35  1  0  0  0  0
 35 36  1  0  0  0  0
 36 37  1  0  0  0  0
 37 38  1  0  0  0  0
 38 39  1  0  0  0  0
 39 40  1  0  0  0  0
 40 41  1  0  0  0  0
 41 42  1  0  0  0  0
 42 43  1  0  0  0  0
 43 44  1  0  0  0  0
 44 45  1  0  0  0  0
 45 46  1  0  0  0  0
 46 47  1  0  0  0  0
 47 48  1  0  0  0  0
 48 49  1  0  0  0  0
 49 50  1  0  0  0  0
 50 51  1  0  0  0  0
 51 52  1  0  0  0  0
 52 53  1  0  0  0  0
 53 54  1  0  0  0  0
 54 55  1  0  0  0  0
 55 56  1  0  0  0  0
 56 57  1  0  0  0  0
 57 58  1  0  0  0  0
 58 59  1  0  0  0  0
 59 60  1  0  0  0  0
 60 61  1  0  0  0  0
 61 62  1  0  0  0  0
 62 63  1  0  0  0  0
 63 64  1  0  0  0  0
 64 65  1  0  0  0  0
 65 66  1  0  0  0  0
 66 67  1  0  0  0  0
 67 68  1  0  0  0  0
 68 69  1  0  0  0  0
 69 70  1  0  0  0  0
 70 71  1  0  0  0  0
 71 72  1  0  0  0  0
 72 73  1  0  0  0  0
 73 74  1  0  0  0  0
 74 75  1  0  0  0  0
 75 76  1  0  0  0  0
 76 77  1  0  0  0  0
 77 78  1  0  0  0  0
 78 79  1  0  0  0  0
 79 91  1  0  0  0  0
M  END
$$$$
