
 OpenBabel04232216573D

 35 35  0  0  0  0  0  0  0  0999 V2000
    0.9536   -2.5201    0.0556 C   0  0  0  0  0  0  0  0  0  0  0  0
    2.3678   -2.4889   -0.0666 O   0  0  0  0  0  0  0  0  0  0  0  0
    2.9178   -1.2948    0.4811 C   0  0  0  0  0  0  0  0  0  0  0  0
    4.4266   -1.3408    0.3631 C   0  0  0  0  0  0  0  0  0  0  0  0
    5.1283   -1.3232   -0.8729 C   0  0  0  0  0  0  0  0  0  0  0  0
    4.3808   -1.1848   -2.1929 C   0  0  0  0  0  0  0  0  0  0  0  0
    3.7627    0.1866   -2.4541 C   0  0  0  0  0  0  0  0  0  0  0  0
    6.5426   -1.4810   -0.8455 C   0  0  0  0  0  0  0  0  0  0  0  0
    7.5695   -1.5176   -2.3256 S   0  0  0  0  0  0  0  0  0  0  0  0
    8.2000   -3.2391   -2.2564 C   0  0  0  0  0  0  0  0  0  0  0  0
    8.9864   -3.5414   -3.5339 C   0  0  0  0  0  0  0  0  0  0  0  0
    9.6166   -4.9296   -3.5070 C   0  0  0  0  0  0  0  0  0  0  0  0
    7.2202   -1.5818    0.3811 C   0  0  0  0  0  0  0  0  0  0  0  0
    6.5283   -1.5601    1.5861 C   0  0  0  0  0  0  0  0  0  0  0  0
    5.1450   -1.4512    1.5778 C   0  0  0  0  0  0  0  0  0  0  0  0
    0.5991   -3.4878   -0.3087 H   0  0  0  0  0  0  0  0  0  0  0  0
    0.5011   -1.7297   -0.5507 H   0  0  0  0  0  0  0  0  0  0  0  0
    0.6526   -2.4117    1.1023 H   0  0  0  0  0  0  0  0  0  0  0  0
    2.6236   -1.2243    1.5359 H   0  0  0  0  0  0  0  0  0  0  0  0
    2.5103   -0.4094   -0.0107 H   0  0  0  0  0  0  0  0  0  0  0  0
    3.6127   -1.9629   -2.2597 H   0  0  0  0  0  0  0  0  0  0  0  0
    5.0401   -1.3911   -3.0405 H   0  0  0  0  0  0  0  0  0  0  0  0
    2.8665    0.3608   -1.8555 H   0  0  0  0  0  0  0  0  0  0  0  0
    3.4478    0.2571   -3.5017 H   0  0  0  0  0  0  0  0  0  0  0  0
    4.4676    0.9989   -2.2545 H   0  0  0  0  0  0  0  0  0  0  0  0
    7.3582   -3.9331   -2.1585 H   0  0  0  0  0  0  0  0  0  0  0  0
    8.8470   -3.3548   -1.3806 H   0  0  0  0  0  0  0  0  0  0  0  0
    9.7858   -2.8032   -3.6708 H   0  0  0  0  0  0  0  0  0  0  0  0
    8.3256   -3.4747   -4.4074 H   0  0  0  0  0  0  0  0  0  0  0  0
   10.3148   -5.0280   -2.6698 H   0  0  0  0  0  0  0  0  0  0  0  0
   10.1739   -5.1051   -4.4331 H   0  0  0  0  0  0  0  0  0  0  0  0
    8.8545   -5.7087   -3.4182 H   0  0  0  0  0  0  0  0  0  0  0  0
    8.3024   -1.6761    0.4100 H   0  0  0  0  0  0  0  0  0  0  0  0
    7.0631   -1.6406    2.5284 H   0  0  0  0  0  0  0  0  0  0  0  0
    4.6175   -1.4625    2.5271 H   0  0  0  0  0  0  0  0  0  0  0  0
  1  2  1  0  0  0  0
  1 16  1  0  0  0  0
  1 17  1  0  0  0  0
  1 18  1  0  0  0  0
  2  3  1  0  0  0  0
  3  4  1  0  0  0  0
  3 19  1  0  0  0  0
  3 20  1  0  0  0  0
  4  5  1  0  0  0  0
  4 15  2  0  0  0  0
  5  6  1  0  0  0  0
  5  8  2  0  0  0  0
  6  7  1  0  0  0  0
  6 21  1  0  0  0  0
  6 22  1  0  0  0  0
  7 23  1  0  0  0  0
  7 24  1  0  0  0  0
  7 25  1  0  0  0  0
  8  9  1  0  0  0  0
  8 13  1  0  0  0  0
  9 10  1  0  0  0  0
 10 11  1  0  0  0  0
 10 26  1  0  0  0  0
 10 27  1  0  0  0  0
 11 12  1  0  0  0  0
 11 28  1  0  0  0  0
 11 29  1  0  0  0  0
 12 30  1  0  0  0  0
 12 31  1  0  0  0  0
 12 32  1  0  0  0  0
 13 14  2  0  0  0  0
 13 33  1  0  0  0  0
 14 15  1  0  0  0  0
 14 34  1  0  0  0  0
 15 35  1  0  0  0  0
M  END
$$$$
