
 OpenBabel04232216523D

 51 52  0  0  0  0  0  0  0  0999 V2000
    0.6700   -0.6357    0.7828 C   0  0  0  0  0  0  0  0  0  0  0  0
    2.1462   -0.8794    0.4989 C   0  0  0  0  0  0  0  0  0  0  0  0
    2.9933    0.2776    1.0169 C   0  0  0  0  0  0  0  0  0  0  0  0
    4.4538    0.1868    0.6406 C   0  0  0  0  0  0  0  0  0  0  0  0
    4.7999    0.9340   -0.5284 C   0  0  0  0  0  0  0  0  0  0  0  0
    5.8043    1.8267   -0.4583 C   0  0  0  0  0  0  0  0  0  0  0  0
    6.7788    1.6604   -1.6575 C   0  0  0  0  0  0  0  0  0  0  0  0
    6.3246    2.0355   -3.0628 C   0  0  0  0  0  0  0  0  0  0  0  0
    6.2815    3.5430   -3.2132 C   0  0  0  0  0  0  0  0  0  0  0  0
    6.0237    3.9448   -4.6553 C   0  0  0  0  0  0  0  0  0  0  0  0
    5.9763    5.4430   -4.8091 C   0  0  0  0  0  0  0  0  0  0  0  0
    6.1442    6.2492   -3.8909 O   0  0  0  0  0  0  0  0  0  0  0  0
    6.3432    2.3499    0.8685 C   0  0  0  0  0  0  0  0  0  0  0  0
    7.6358    2.0603    1.0434 C   0  0  0  0  0  0  0  0  0  0  0  0
    7.8766    0.6140    1.0664 C   0  0  0  0  0  0  0  0  0  0  0  0
    6.9318   -0.3626    1.2803 C   0  0  0  0  0  0  0  0  0  0  0  0
    7.6168   -1.2231    2.2729 C   0  0  0  0  0  0  0  0  0  0  0  0
    8.6136   -1.8915    2.0110 O   0  0  0  0  0  0  0  0  0  0  0  0
    7.0508   -1.0547    3.6622 C   0  0  0  0  0  0  0  0  0  0  0  0
    7.0085    0.4306    4.1273 C   0  0  0  0  0  0  0  0  0  0  0  0
    6.1019    1.6721    3.6662 C   0  0  0  0  0  0  0  0  0  0  0  0
    5.6190    2.4038    2.2687 C   0  0  0  0  0  0  0  0  0  0  0  0
    5.4298   -0.3843    1.3796 C   0  0  0  0  0  0  0  0  0  0  0  0
    0.0768   -1.4980    0.4657 H   0  0  0  0  0  0  0  0  0  0  0  0
    0.3088    0.2444    0.2387 H   0  0  0  0  0  0  0  0  0  0  0  0
    0.4933   -0.4707    1.8510 H   0  0  0  0  0  0  0  0  0  0  0  0
    2.2879   -1.0077   -0.5783 H   0  0  0  0  0  0  0  0  0  0  0  0
    2.4613   -1.8084    0.9870 H   0  0  0  0  0  0  0  0  0  0  0  0
    2.9017    0.3432    2.1083 H   0  0  0  0  0  0  0  0  0  0  0  0
    2.5792    1.2274    0.6415 H   0  0  0  0  0  0  0  0  0  0  0  0
    4.5168    0.4553   -1.4804 H   0  0  0  0  0  0  0  0  0  0  0  0
    7.0221    0.5841   -1.7051 H   0  0  0  0  0  0  0  0  0  0  0  0
    7.7404    2.1454   -1.4640 H   0  0  0  0  0  0  0  0  0  0  0  0
    5.3598    1.5831   -3.3187 H   0  0  0  0  0  0  0  0  0  0  0  0
    7.0534    1.6181   -3.7731 H   0  0  0  0  0  0  0  0  0  0  0  0
    7.2398    3.9664   -2.8851 H   0  0  0  0  0  0  0  0  0  0  0  0
    5.5074    3.9544   -2.5573 H   0  0  0  0  0  0  0  0  0  0  0  0
    5.0696    3.5415   -5.0059 H   0  0  0  0  0  0  0  0  0  0  0  0
    6.8173    3.5682   -5.3104 H   0  0  0  0  0  0  0  0  0  0  0  0
    5.7917    5.8048   -5.8309 H   0  0  0  0  0  0  0  0  0  0  0  0
    8.1917    2.5708    1.8288 H   0  0  0  0  0  0  0  0  0  0  0  0
    8.9362    0.4348    1.2425 H   0  0  0  0  0  0  0  0  0  0  0  0
    7.7215   -1.6206    4.3249 H   0  0  0  0  0  0  0  0  0  0  0  0
    6.0920   -1.5744    3.7464 H   0  0  0  0  0  0  0  0  0  0  0  0
    6.7460    0.3170    5.1940 H   0  0  0  0  0  0  0  0  0  0  0  0
    8.0497    0.7762    4.1462 H   0  0  0  0  0  0  0  0  0  0  0  0
    6.6109    2.4977    4.1900 H   0  0  0  0  0  0  0  0  0  0  0  0
    5.1667    1.5467    4.2316 H   0  0  0  0  0  0  0  0  0  0  0  0
    5.5913    3.4748    2.5265 H   0  0  0  0  0  0  0  0  0  0  0  0
    4.5546    2.1748    2.1548 H   0  0  0  0  0  0  0  0  0  0  0  0
    5.0247   -0.8572    2.2654 H   0  0  0  0  0  0  0  0  0  0  0  0
  1  2  1  0  0  0  0
  1 24  1  0  0  0  0
  1 25  1  0  0  0  0
  1 26  1  0  0  0  0
  2  3  1  0  0  0  0
  2 27  1  0  0  0  0
  2 28  1  0  0  0  0
  3  4  1  0  0  0  0
  3 29  1  0  0  0  0
  3 30  1  0  0  0  0
  4  5  1  0  0  0  0
  4 23  2  0  0  0  0
  5  6  2  0  0  0  0
  5 31  1  0  0  0  0
  6  7  1  0  0  0  0
  6 13  1  0  0  0  0
  7  8  1  0  0  0  0
  7 32  1  0  0  0  0
  7 33  1  0  0  0  0
  8  9  1  0  0  0  0
  8 34  1  0  0  0  0
  8 35  1  0  0  0  0
  9 10  1  0  0  0  0
  9 36  1  0  0  0  0
  9 37  1  0  0  0  0
 10 11  1  0  0  0  0
 10 38  1  0  0  0  0
 10 39  1  0  0  0  0
 11 12  2  0  0  0  0
 11 40  1  0  0  0  0
 13 14  2  0  0  0  0
 13 22  1  0  0  0  0
 14 15  1  0  0  0  0
 14 41  1  0  0  0  0
 15 16  2  0  0  0  0
 15 42  1  0  0  0  0
 16 17  1  0  0  0  0
 16 23  1  0  0  0  0
 17 18  2  0  0  0  0
 17 19  1  0  0  0  0
 19 20  1  0  0  0  0
 19 43  1  0  0  0  0
 19 44  1  0  0  0  0
 20 21  1  0  0  0  0
 20 45  1  0  0  0  0
 20 46  1  0  0  0  0
 21 22  1  0  0  0  0
 21 47  1  0  0  0  0
 21 48  1  0  0  0  0
 22 49  1  0  0  0  0
 22 50  1  0  0  0  0
 23 51  1  0  0  0  0
M  END
$$$$
