
 OpenBabel04232217013D

163162  0  0  0  0  0  0  0  0999 V2000
    0.8353    0.0624    0.0699 O   0  0  0  0  0  0  0  0  0  0  0  0
    2.2441    0.0772    0.0754 C   0  0  0  0  0  0  0  0  0  0  0  0
    2.7435   -1.2392   -0.4316 C   0  0  0  0  0  0  0  0  0  0  0  0
    4.2417   -1.2395   -0.4329 C   0  0  0  0  0  0  0  0  0  0  0  0
    4.7372   -2.5506   -0.9420 C   0  0  0  0  0  0  0  0  0  0  0  0
    6.1317   -2.4172   -0.9115 O   0  0  0  0  0  0  0  0  0  0  0  0
    6.5826   -3.6475   -1.4430 O   0  0  0  0  0  0  0  0  0  0  0  0
    7.9834   -3.6955   -1.3021 O   0  0  0  0  0  0  0  0  0  0  0  0
    8.4293   -4.9401   -1.7844 O   0  0  0  0  0  0  0  0  0  0  0  0
    9.8250   -4.8675   -1.9421 O   0  0  0  0  0  0  0  0  0  0  0  0
   10.2761   -6.1189   -2.3978 O   0  0  0  0  0  0  0  0  0  0  0  0
   11.6731   -6.1454   -2.2561 O   0  0  0  0  0  0  0  0  0  0  0  0
   12.1352   -7.4033   -2.6805 O   0  0  0  0  0  0  0  0  0  0  0  0
   13.5255   -7.2987   -2.8486 O   0  0  0  0  0  0  0  0  0  0  0  0
   13.9954   -8.4778   -3.4500 O   0  0  0  0  0  0  0  0  0  0  0  0
   15.3694   -8.5645   -3.1645 O   0  0  0  0  0  0  0  0  0  0  0  0
   15.8294   -9.8244   -3.5755 O   0  0  0  0  0  0  0  0  0  0  0  0
   17.2093   -9.7107   -3.8184 O   0  0  0  0  0  0  0  0  0  0  0  0
   17.6692  -10.9592   -4.2626 O   0  0  0  0  0  0  0  0  0  0  0  0
   19.0737  -10.9656   -4.1591 O   0  0  0  0  0  0  0  0  0  0  0  0
   19.4023  -12.2193   -4.6730 C   0  0  0  0  0  0  0  0  0  0  0  0
   20.8861  -12.1867   -4.6735 C   0  0  0  0  0  0  0  0  0  0  0  0
   21.3481  -13.5103   -5.1884 C   0  0  0  0  0  0  0  0  0  0  0  0
   22.8525  -13.4750   -5.1856 C   0  0  0  0  0  0  0  0  0  0  0  0
   23.3046  -14.7776   -5.7035 C   0  0  0  0  0  0  0  0  0  0  0  0
   24.8165  -14.7453   -5.6849 C   0  0  0  0  0  0  0  0  0  0  0  0
   25.2775  -16.0652   -6.1978 C   0  0  0  0  0  0  0  0  0  0  0  0
   26.7752  -16.0386   -6.1940 C   0  0  0  0  0  0  0  0  0  0  0  0
   27.2339  -17.3564   -6.6925 C   0  0  0  0  0  0  0  0  0  0  0  0
   28.7240  -17.3140   -6.6763 C   0  0  0  0  0  0  0  0  0  0  0  0
   29.1800  -18.6287   -7.1961 C   0  0  0  0  0  0  0  0  0  0  0  0
   30.6577  -18.5879   -7.1919 C   0  0  0  0  0  0  0  0  0  0  0  0
   30.9811  -19.8315   -7.7197 O   0  0  0  0  0  0  0  0  0  0  0  0
   32.3690  -19.8583   -7.5327 O   0  0  0  0  0  0  0  0  0  0  0  0
   32.8340  -21.0990   -7.9683 O   0  0  0  0  0  0  0  0  0  0  0  0
   34.1901  -20.9359   -8.2615 O   0  0  0  0  0  0  0  0  0  0  0  0
   34.6608  -22.1523   -8.7526 O   0  0  0  0  0  0  0  0  0  0  0  0
   36.0195  -22.2211   -8.4382 O   0  0  0  0  0  0  0  0  0  0  0  0
   36.4801  -23.4569   -8.8875 O   0  0  0  0  0  0  0  0  0  0  0  0
   37.8398  -23.3132   -9.1610 O   0  0  0  0  0  0  0  0  0  0  0  0
   38.2838  -24.5360   -9.6584 O   0  0  0  0  0  0  0  0  0  0  0  0
   39.6487  -24.6100   -9.3915 O   0  0  0  0  0  0  0  0  0  0  0  0
   40.0879  -25.8484   -9.8513 O   0  0  0  0  0  0  0  0  0  0  0  0
   41.4547  -25.7226  -10.0878 O   0  0  0  0  0  0  0  0  0  0  0  0
   41.9022  -26.9462  -10.5746 O   0  0  0  0  0  0  0  0  0  0  0  0
   43.2668  -27.0165  -10.2921 O   0  0  0  0  0  0  0  0  0  0  0  0
   43.7233  -28.2133  -10.8313 O   0  0  0  0  0  0  0  0  0  0  0  0
   45.0843  -28.0672  -11.1174 O   0  0  0  0  0  0  0  0  0  0  0  0
   45.5351  -29.3511  -11.4086 O   0  0  0  0  0  0  0  0  0  0  0  0
   46.8975  -29.4563  -11.1072 O   0  0  0  0  0  0  0  0  0  0  0  0
   47.3263  -30.5441  -11.8714 O   0  0  0  0  0  0  0  0  0  0  0  0
   48.6894  -30.4421  -12.1649 O   0  0  0  0  0  0  0  0  0  0  0  0
   49.1159  -31.7757  -12.2381 O   0  0  0  0  0  0  0  0  0  0  0  0
   50.4931  -31.8618  -12.0253 O   0  0  0  0  0  0  0  0  0  0  0  0
   50.9247  -32.9143  -12.8485 O   0  0  0  0  0  0  0  0  0  0  0  0
   52.3171  -32.8789  -12.9334 O   0  0  0  0  0  0  0  0  0  0  0  0
   52.7435  -34.1885  -13.2251 O   0  0  0  0  0  0  0  0  0  0  0  0
   54.1266  -34.0591  -13.1904 C   0  0  0  0  0  0  0  0  0  0  0  0
   54.5887  -35.3714  -13.7072 C   0  0  0  0  0  0  0  0  0  0  0  0
   56.0755  -35.3345  -13.7004 C   0  0  0  0  0  0  0  0  0  0  0  0
   56.5392  -36.6599  -14.2180 C   0  0  0  0  0  0  0  0  0  0  0  0
   58.0370  -36.6399  -14.2113 C   0  0  0  0  0  0  0  0  0  0  0  0
   58.5199  -37.9660  -14.7279 C   0  0  0  0  0  0  0  0  0  0  0  0
   60.0254  -37.9488  -14.7196 C   0  0  0  0  0  0  0  0  0  0  0  0
   60.5278  -39.2783  -15.2367 C   0  0  0  0  0  0  0  0  0  0  0  0
   62.0349  -39.2711  -15.2324 C   0  0  0  0  0  0  0  0  0  0  0  0
   62.5292  -40.5898  -15.7437 C   0  0  0  0  0  0  0  0  0  0  0  0
   64.0166  -40.5983  -15.7960 C   0  0  0  0  0  0  0  0  0  0  0  0
   64.5472  -41.9510  -16.2807 C   0  0  0  0  0  0  0  0  0  0  0  0
   66.0610  -41.9356  -16.2793 C   0  0  0  0  0  0  0  0  0  0  0  0
   66.5723  -43.2678  -16.7886 C   0  0  0  0  0  0  0  0  0  0  0  0
   68.0873  -43.2738  -16.7983 C   0  0  0  0  0  0  0  0  0  0  0  0
   68.5947  -44.6066  -17.3170 C   0  0  0  0  0  0  0  0  0  0  0  0
   70.1113  -44.6109  -17.3180 C   0  0  0  0  0  0  0  0  0  0  0  0
   70.6259  -45.9423  -17.8347 C   0  0  0  0  0  0  0  0  0  0  0  0
   72.1440  -45.9474  -17.8391 C   0  0  0  0  0  0  0  0  0  0  0  0
   72.6607  -47.2808  -18.3578 C   0  0  0  0  0  0  0  0  0  0  0  0
   74.1824  -47.2902  -18.3659 C   0  0  0  0  0  0  0  0  0  0  0  0
   74.7061  -48.6237  -18.8824 C   0  0  0  0  0  0  0  0  0  0  0  0
   76.2302  -48.6375  -18.8939 C   0  0  0  0  0  0  0  0  0  0  0  0
   76.7570  -49.9648  -19.4078 C   0  0  0  0  0  0  0  0  0  0  0  0
    0.5383    0.9243    0.4038 H   0  0  0  0  0  0  0  0  0  0  0  0
    2.6045    0.2638    1.1029 H   0  0  0  0  0  0  0  0  0  0  0  0
    2.6040    0.9049   -0.5622 H   0  0  0  0  0  0  0  0  0  0  0  0
    2.3621   -1.4264   -1.4421 H   0  0  0  0  0  0  0  0  0  0  0  0
    2.3640   -2.0562    0.1934 H   0  0  0  0  0  0  0  0  0  0  0  0
    4.6511   -1.0619    0.5736 H   0  0  0  0  0  0  0  0  0  0  0  0
    4.6477   -0.4301   -1.0609 H   0  0  0  0  0  0  0  0  0  0  0  0
    4.4093   -2.7434   -1.9708 H   0  0  0  0  0  0  0  0  0  0  0  0
    4.4304   -3.3867   -0.3018 H   0  0  0  0  0  0  0  0  0  0  0  0
   18.9993  -12.3398   -5.6872 H   0  0  0  0  0  0  0  0  0  0  0  0
   19.0004  -13.0057   -4.0257 H   0  0  0  0  0  0  0  0  0  0  0  0
   21.2583  -12.0031   -3.6556 H   0  0  0  0  0  0  0  0  0  0  0  0
   21.2562  -11.3656   -5.2903 H   0  0  0  0  0  0  0  0  0  0  0  0
   20.9712  -13.6824   -6.2051 H   0  0  0  0  0  0  0  0  0  0  0  0
   20.9780  -14.3281   -4.5608 H   0  0  0  0  0  0  0  0  0  0  0  0
   23.2171  -13.3099   -4.1560 H   0  0  0  0  0  0  0  0  0  0  0  0
   23.2096  -12.6491   -5.8058 H   0  0  0  0  0  0  0  0  0  0  0  0
   22.9431  -14.9523   -6.7227 H   0  0  0  0  0  0  0  0  0  0  0  0
   22.9106  -15.5956   -5.0839 H   0  0  0  0  0  0  0  0  0  0  0  0
   25.1661  -14.5814   -4.6610 H   0  0  0  0  0  0  0  0  0  0  0  0
   25.1811  -13.9205   -6.3038 H   0  0  0  0  0  0  0  0  0  0  0  0
   24.9056  -16.2427   -7.2142 H   0  0  0  0  0  0  0  0  0  0  0  0
   24.8995  -16.8758   -5.5636 H   0  0  0  0  0  0  0  0  0  0  0  0
   27.1452  -15.8657   -5.1602 H   0  0  0  0  0  0  0  0  0  0  0  0
   27.1507  -15.2211   -6.8073 H   0  0  0  0  0  0  0  0  0  0  0  0
   26.8655  -17.5327   -7.7119 H   0  0  0  0  0  0  0  0  0  0  0  0
   26.8646  -18.1780   -6.0627 H   0  0  0  0  0  0  0  0  0  0  0  0
   29.1053  -17.1470   -5.6606 H   0  0  0  0  0  0  0  0  0  0  0  0
   29.1037  -16.4995   -7.3078 H   0  0  0  0  0  0  0  0  0  0  0  0
   28.8105  -18.8210   -8.2118 H   0  0  0  0  0  0  0  0  0  0  0  0
   28.8216  -19.4618   -6.5764 H   0  0  0  0  0  0  0  0  0  0  0  0
   31.0609  -18.4730   -6.1763 H   0  0  0  0  0  0  0  0  0  0  0  0
   31.0625  -17.7978   -7.8346 H   0  0  0  0  0  0  0  0  0  0  0  0
   54.4544  -33.8723  -12.1618 H   0  0  0  0  0  0  0  0  0  0  0  0
   54.4526  -33.2317  -13.8339 H   0  0  0  0  0  0  0  0  0  0  0  0
   54.1864  -35.5412  -14.7168 H   0  0  0  0  0  0  0  0  0  0  0  0
   54.1912  -36.1822  -13.0827 H   0  0  0  0  0  0  0  0  0  0  0  0
   56.4469  -35.1564  -12.6831 H   0  0  0  0  0  0  0  0  0  0  0  0
   56.4417  -34.5149  -14.3319 H   0  0  0  0  0  0  0  0  0  0  0  0
   56.1537  -36.8266  -15.2320 H   0  0  0  0  0  0  0  0  0  0  0  0
   56.1549  -37.4692  -13.5841 H   0  0  0  0  0  0  0  0  0  0  0  0
   58.4071  -36.4626  -13.1934 H   0  0  0  0  0  0  0  0  0  0  0  0
   58.4065  -35.8211  -14.8412 H   0  0  0  0  0  0  0  0  0  0  0  0
   58.1381  -38.1368  -15.7420 H   0  0  0  0  0  0  0  0  0  0  0  0
   58.1379  -38.7771  -14.0949 H   0  0  0  0  0  0  0  0  0  0  0  0
   60.3945  -37.7708  -13.7021 H   0  0  0  0  0  0  0  0  0  0  0  0
   60.3944  -37.1303  -15.3487 H   0  0  0  0  0  0  0  0  0  0  0  0
   60.1415  -39.4489  -16.2503 H   0  0  0  0  0  0  0  0  0  0  0  0
   60.1413  -40.0896  -14.6042 H   0  0  0  0  0  0  0  0  0  0  0  0
   62.4081  -39.0921  -14.2164 H   0  0  0  0  0  0  0  0  0  0  0  0
   62.4072  -38.4530  -15.8619 H   0  0  0  0  0  0  0  0  0  0  0  0
   62.1466  -40.7729  -16.7633 H   0  0  0  0  0  0  0  0  0  0  0  0
   62.1486  -41.4143  -15.1170 H   0  0  0  0  0  0  0  0  0  0  0  0
   64.4112  -40.4476  -14.7555 H   0  0  0  0  0  0  0  0  0  0  0  0
   64.4619  -39.7805  -16.3727 H   0  0  0  0  0  0  0  0  0  0  0  0
   64.1610  -42.1173  -17.2882 H   0  0  0  0  0  0  0  0  0  0  0  0
   64.1632  -42.7565  -15.6426 H   0  0  0  0  0  0  0  0  0  0  0  0
   66.4376  -41.7646  -15.2644 H   0  0  0  0  0  0  0  0  0  0  0  0
   66.4287  -41.1247  -16.9078 H   0  0  0  0  0  0  0  0  0  0  0  0
   66.1955  -43.4395  -17.8053 H   0  0  0  0  0  0  0  0  0  0  0  0
   66.2002  -44.0811  -16.1544 H   0  0  0  0  0  0  0  0  0  0  0  0
   68.4672  -43.0973  -15.7838 H   0  0  0  0  0  0  0  0  0  0  0  0
   68.4597  -42.4580  -17.4290 H   0  0  0  0  0  0  0  0  0  0  0  0
   68.2150  -44.7820  -18.3307 H   0  0  0  0  0  0  0  0  0  0  0  0
   68.2233  -45.4225  -16.6856 H   0  0  0  0  0  0  0  0  0  0  0  0
   70.4801  -44.4300  -16.3023 H   0  0  0  0  0  0  0  0  0  0  0  0
   70.4795  -43.7951  -17.9486 H   0  0  0  0  0  0  0  0  0  0  0  0
   70.2451  -46.1183  -18.8491 H   0  0  0  0  0  0  0  0  0  0  0  0
   70.2492  -46.7549  -17.2014 H   0  0  0  0  0  0  0  0  0  0  0  0
   72.5194  -45.7700  -16.8238 H   0  0  0  0  0  0  0  0  0  0  0  0
   72.5152  -45.1326  -18.4719 H   0  0  0  0  0  0  0  0  0  0  0  0
   72.2805  -47.4576  -19.3719 H   0  0  0  0  0  0  0  0  0  0  0  0
   72.2853  -48.0954  -17.7253 H   0  0  0  0  0  0  0  0  0  0  0  0
   74.5577  -47.1099  -17.3510 H   0  0  0  0  0  0  0  0  0  0  0  0
   74.5527  -46.4738  -18.9980 H   0  0  0  0  0  0  0  0  0  0  0  0
   74.3244  -48.8015  -19.8953 H   0  0  0  0  0  0  0  0  0  0  0  0
   74.3311  -49.4367  -18.2484 H   0  0  0  0  0  0  0  0  0  0  0  0
   76.6117  -48.4611  -17.8815 H   0  0  0  0  0  0  0  0  0  0  0  0
   76.6049  -47.8260  -19.5287 H   0  0  0  0  0  0  0  0  0  0  0  0
   76.4181  -50.7902  -18.7737 H   0  0  0  0  0  0  0  0  0  0  0  0
   77.8506  -49.9616  -19.4112 H   0  0  0  0  0  0  0  0  0  0  0  0
   76.4111  -50.1518  -20.4294 H   0  0  0  0  0  0  0  0  0  0  0  0
  1  2  1  0  0  0  0
  1 82  1  0  0  0  0
  2  3  1  0  0  0  0
  2 83  1  0  0  0  0
  2 84  1  0  0  0  0
  3  4  1  0  0  0  0
  3 85  1  0  0  0  0
  3 86  1  0  0  0  0
  4  5  1  0  0  0  0
  4 87  1  0  0  0  0
  4 88  1  0  0  0  0
  5  6  1  0  0  0  0
  5 89  1  0  0  0  0
  5 90  1  0  0  0  0
  6  7  1  0  0  0  0
  7  8  1  0  0  0  0
  8  9  1  0  0  0  0
  9 10  1  0  0  0  0
 10 11  1  0  0  0  0
 11 12  1  0  0  0  0
 12 13  1  0  0  0  0
 13 14  1  0  0  0  0
 14 15  1  0  0  0  0
 15 16  1  0  0  0  0
 16 17  1  0  0  0  0
 17 18  1  0  0  0  0
 18 19  1  0  0  0  0
 19 20  1  0  0  0  0
 20 21  1  0  0  0  0
 21 22  1  0  0  0  0
 21 91  1  0  0  0  0
 21 92  1  0  0  0  0
 22 23  1  0  0  0  0
 22 93  1  0  0  0  0
 22 94  1  0  0  0  0
 23 24  1  0  0  0  0
 23 95  1  0  0  0  0
 23 96  1  0  0  0  0
 24 25  1  0  0  0  0
 24 97  1  0  0  0  0
 24 98  1  0  0  0  0
 25 26  1  0  0  0  0
 25 99  1  0  0  0  0
 25100  1  0  0  0  0
 26 27  1  0  0  0  0
 26101  1  0  0  0  0
 26102  1  0  0  0  0
 27 28  1  0  0  0  0
 27103  1  0  0  0  0
 27104  1  0  0  0  0
 28 29  1  0  0  0  0
 28105  1  0  0  0  0
 28106  1  0  0  0  0
 29 30  1  0  0  0  0
 29107  1  0  0  0  0
 29108  1  0  0  0  0
 30 31  1  0  0  0  0
 30109  1  0  0  0  0
 30110  1  0  0  0  0
 31 32  1  0  0  0  0
 31111  1  0  0  0  0
 31112  1  0  0  0  0
 32 33  1  0  0  0  0
 32113  1  0  0  0  0
 32114  1  0  0  0  0
 33 34  1  0  0  0  0
 34 35  1  0  0  0  0
 35 36  1  0  0  0  0
 36 37  1  0  0  0  0
 37 38  1  0  0  0  0
 38 39  1  0  0  0  0
 39 40  1  0  0  0  0
 40 41  1  0  0  0  0
 41 42  1  0  0  0  0
 42 43  1  0  0  0  0
 43 44  1  0  0  0  0
 44 45  1  0  0  0  0
 45 46  1  0  0  0  0
 46 47  1  0  0  0  0
 47 48  1  0  0  0  0
 48 49  1  0  0  0  0
 49 50  1  0  0  0  0
 50 51  1  0  0  0  0
 51 52  1  0  0  0  0
 52 53  1  0  0  0  0
 53 54  1  0  0  0  0
 54 55  1  0  0  0  0
 55 56  1  0  0  0  0
 56 57  1  0  0  0  0
 57 58  1  0  0  0  0
 58 59  1  0  0  0  0
 58115  1  0  0  0  0
 58116  1  0  0  0  0
 59 60  1  0  0  0  0
 59117  1  0  0  0  0
 59118  1  0  0  0  0
 60 61  1  0  0  0  0
 60119  1  0  0  0  0
 60120  1  0  0  0  0
 61 62  1  0  0  0  0
 61121  1  0  0  0  0
 61122  1  0  0  0  0
 62 63  1  0  0  0  0
 62123  1  0  0  0  0
 62124  1  0  0  0  0
 63 64  1  0  0  0  0
 63125  1  0  0  0  0
 63126  1  0  0  0  0
 64 65  1  0  0  0  0
 64127  1  0  0  0  0
 64128  1  0  0  0  0
 65 66  1  0  0  0  0
 65129  1  0  0  0  0
 65130  1  0  0  0  0
 66 67  1  0  0  0  0
 66131  1  0  0  0  0
 66132  1  0  0  0  0
 67 68  1  0  0  0  0
 67133  1  0  0  0  0
 67134  1  0  0  0  0
 68 69  1  0  0  0  0
 68135  1  0  0  0  0
 68136  1  0  0  0  0
 69 70  1  0  0  0  0
 69137  1  0  0  0  0
 69138  1  0  0  0  0
 70 71  1  0  0  0  0
 70139  1  0  0  0  0
 70140  1  0  0  0  0
 71 72  1  0  0  0  0
 71141  1  0  0  0  0
 71142  1  0  0  0  0
 72 73  1  0  0  0  0
 72143  1  0  0  0  0
 72144  1  0  0  0  0
 73 74  1  0  0  0  0
 73145  1  0  0  0  0
 73146  1  0  0  0  0
 74 75  1  0  0  0  0
 74147  1  0  0  0  0
 74148  1  0  0  0  0
 75 76  1  0  0  0  0
 75149  1  0  0  0  0
 75150  1  0  0  0  0
 76 77  1  0  0  0  0
 76151  1  0  0  0  0
 76152  1  0  0  0  0
 77 78  1  0  0  0  0
 77153  1  0  0  0  0
 77154  1  0  0  0  0
 78 79  1  0  0  0  0
 78155  1  0  0  0  0
 78156  1  0  0  0  0
 79 80  1  0  0  0  0
 79157  1  0  0  0  0
 79158  1  0  0  0  0
 80 81  1  0  0  0  0
 80159  1  0  0  0  0
 80160  1  0  0  0  0
 81161  1  0  0  0  0
 81162  1  0  0  0  0
 81163  1  0  0  0  0
M  END
$$$$
