
 OpenBabel04232216573D

 71 71  0  0  0  0  0  0  0  0999 V2000
    3.7919  -10.0826    0.8103 C   0  0  0  0  0  0  0  0  0  0  0  0
    2.9508   -9.1557    0.1302 O   0  0  0  0  0  0  0  0  0  0  0  0
    3.0587   -7.8008    0.4089 C   0  0  0  0  0  0  0  0  0  0  0  0
    2.6810   -7.0633   -0.8048 C   0  0  0  0  0  0  0  0  0  0  0  0
    3.2104   -5.9432   -1.3388 C   0  0  0  0  0  0  0  0  0  0  0  0
    4.2687   -5.2148   -0.6720 C   0  0  0  0  0  0  0  0  0  0  0  0
    5.5956   -5.9210   -0.6093 C   0  0  0  0  0  0  0  0  0  0  0  0
    6.1447   -6.4055   -1.9523 C   0  0  0  0  0  0  0  0  0  0  0  0
    7.3824   -7.2205   -1.6310 C   0  0  0  0  0  0  0  0  0  0  0  0
    8.0774   -7.7601   -2.8555 C   0  0  0  0  0  0  0  0  0  0  0  0
    9.2741   -8.5646   -2.3839 C   0  0  0  0  0  0  0  0  0  0  0  0
   10.0314   -9.1151   -3.5679 C   0  0  0  0  0  0  0  0  0  0  0  0
   11.2381   -9.9032   -3.0946 C   0  0  0  0  0  0  0  0  0  0  0  0
   11.9779  -10.4274   -4.3087 C   0  0  0  0  0  0  0  0  0  0  0  0
   13.1905  -11.2291   -3.8828 C   0  0  0  0  0  0  0  0  0  0  0  0
   13.9009  -11.7386   -5.1203 C   0  0  0  0  0  0  0  0  0  0  0  0
   15.1243  -12.5473   -4.7323 C   0  0  0  0  0  0  0  0  0  0  0  0
   15.8197  -13.0392   -5.9883 C   0  0  0  0  0  0  0  0  0  0  0  0
   17.0435  -13.8576   -5.6233 C   0  0  0  0  0  0  0  0  0  0  0  0
   17.7333  -14.3500   -6.8861 C   0  0  0  0  0  0  0  0  0  0  0  0
   18.9662  -15.1675   -6.5196 C   0  0  0  0  0  0  0  0  0  0  0  0
   19.6699  -15.6701   -7.7728 C   0  0  0  0  0  0  0  0  0  0  0  0
   20.8974  -16.4834   -7.4076 C   0  0  0  0  0  0  0  0  0  0  0  0
    3.8313   -4.4075    0.3105 C   0  0  0  0  0  0  0  0  0  0  0  0
    3.9781   -4.8047    1.6973 C   0  0  0  0  0  0  0  0  0  0  0  0
    3.7348   -6.0278    2.2019 C   0  0  0  0  0  0  0  0  0  0  0  0
    3.4487   -7.3249    1.6058 C   0  0  0  0  0  0  0  0  0  0  0  0
    4.1445  -10.8160    0.0794 H   0  0  0  0  0  0  0  0  0  0  0  0
    3.2038  -10.6138    1.5688 H   0  0  0  0  0  0  0  0  0  0  0  0
    4.6779   -9.6313    1.2641 H   0  0  0  0  0  0  0  0  0  0  0  0
    1.9224   -7.5737   -1.3970 H   0  0  0  0  0  0  0  0  0  0  0  0
    2.8559   -5.5622   -2.2866 H   0  0  0  0  0  0  0  0  0  0  0  0
    5.5391   -6.7860    0.0586 H   0  0  0  0  0  0  0  0  0  0  0  0
    6.3376   -5.2442   -0.1616 H   0  0  0  0  0  0  0  0  0  0  0  0
    6.3846   -5.5561   -2.6053 H   0  0  0  0  0  0  0  0  0  0  0  0
    5.4207   -7.0354   -2.4858 H   0  0  0  0  0  0  0  0  0  0  0  0
    7.0992   -8.0594   -0.9831 H   0  0  0  0  0  0  0  0  0  0  0  0
    8.0756   -6.5949   -1.0435 H   0  0  0  0  0  0  0  0  0  0  0  0
    8.4014   -6.9368   -3.5033 H   0  0  0  0  0  0  0  0  0  0  0  0
    7.3981   -8.3932   -3.4387 H   0  0  0  0  0  0  0  0  0  0  0  0
    8.9445   -9.3895   -1.7363 H   0  0  0  0  0  0  0  0  0  0  0  0
    9.9391   -7.9314   -1.7815 H   0  0  0  0  0  0  0  0  0  0  0  0
   10.3545   -8.2910   -4.2181 H   0  0  0  0  0  0  0  0  0  0  0  0
    9.3724   -9.7579   -4.1672 H   0  0  0  0  0  0  0  0  0  0  0  0
   10.9187  -10.7377   -2.4580 H   0  0  0  0  0  0  0  0  0  0  0  0
   11.8977   -9.2674   -2.4944 H   0  0  0  0  0  0  0  0  0  0  0  0
   12.2877   -9.5884   -4.9444 H   0  0  0  0  0  0  0  0  0  0  0  0
   11.3075  -11.0557   -4.9088 H   0  0  0  0  0  0  0  0  0  0  0  0
   12.8820  -12.0702   -3.2506 H   0  0  0  0  0  0  0  0  0  0  0  0
   13.8671  -10.6031   -3.2890 H   0  0  0  0  0  0  0  0  0  0  0  0
   14.1982  -10.8945   -5.7537 H   0  0  0  0  0  0  0  0  0  0  0  0
   13.2179  -12.3605   -5.7117 H   0  0  0  0  0  0  0  0  0  0  0  0
   14.8289  -13.3985   -4.1066 H   0  0  0  0  0  0  0  0  0  0  0  0
   15.8119  -11.9288   -4.1406 H   0  0  0  0  0  0  0  0  0  0  0  0
   16.1136  -12.1851   -6.6109 H   0  0  0  0  0  0  0  0  0  0  0  0
   15.1278  -13.6487   -6.5833 H   0  0  0  0  0  0  0  0  0  0  0  0
   16.7479  -14.7110   -5.0005 H   0  0  0  0  0  0  0  0  0  0  0  0
   17.7359  -13.2466   -5.0308 H   0  0  0  0  0  0  0  0  0  0  0  0
   18.0237  -13.4974   -7.5090 H   0  0  0  0  0  0  0  0  0  0  0  0
   17.0422  -14.9644   -7.4724 H   0  0  0  0  0  0  0  0  0  0  0  0
   18.6733  -16.0180   -5.8931 H   0  0  0  0  0  0  0  0  0  0  0  0
   19.6552  -14.5527   -5.9283 H   0  0  0  0  0  0  0  0  0  0  0  0
   19.9672  -14.8213   -8.4010 H   0  0  0  0  0  0  0  0  0  0  0  0
   18.9853  -16.2882   -8.3652 H   0  0  0  0  0  0  0  0  0  0  0  0
   21.6070  -15.8814   -6.8320 H   0  0  0  0  0  0  0  0  0  0  0  0
   21.4032  -16.8355   -8.3099 H   0  0  0  0  0  0  0  0  0  0  0  0
   20.6226  -17.3564   -6.8082 H   0  0  0  0  0  0  0  0  0  0  0  0
    2.9285   -3.8120    0.1729 H   0  0  0  0  0  0  0  0  0  0  0  0
    4.1999   -3.9923    2.3860 H   0  0  0  0  0  0  0  0  0  0  0  0
    3.8346   -6.0994    3.2889 H   0  0  0  0  0  0  0  0  0  0  0  0
    3.6060   -8.0902    2.3748 H   0  0  0  0  0  0  0  0  0  0  0  0
  1  2  1  0  0  0  0
  1 28  1  0  0  0  0
  1 29  1  0  0  0  0
  1 30  1  0  0  0  0
  2  3  1  0  0  0  0
  3  4  1  0  0  0  0
  3 27  2  0  0  0  0
  4  5  2  0  0  0  0
  4 31  1  0  0  0  0
  5  6  1  0  0  0  0
  5 32  1  0  0  0  0
  6  7  1  0  0  0  0
  6 24  2  0  0  0  0
  7  8  1  0  0  0  0
  7 33  1  0  0  0  0
  7 34  1  0  0  0  0
  8  9  1  0  0  0  0
  8 35  1  0  0  0  0
  8 36  1  0  0  0  0
  9 10  1  0  0  0  0
  9 37  1  0  0  0  0
  9 38  1  0  0  0  0
 10 11  1  0  0  0  0
 10 39  1  0  0  0  0
 10 40  1  0  0  0  0
 11 12  1  0  0  0  0
 11 41  1  0  0  0  0
 11 42  1  0  0  0  0
 12 13  1  0  0  0  0
 12 43  1  0  0  0  0
 12 44  1  0  0  0  0
 13 14  1  0  0  0  0
 13 45  1  0  0  0  0
 13 46  1  0  0  0  0
 14 15  1  0  0  0  0
 14 47  1  0  0  0  0
 14 48  1  0  0  0  0
 15 16  1  0  0  0  0
 15 49  1  0  0  0  0
 15 50  1  0  0  0  0
 16 17  1  0  0  0  0
 16 51  1  0  0  0  0
 16 52  1  0  0  0  0
 17 18  1  0  0  0  0
 17 53  1  0  0  0  0
 17 54  1  0  0  0  0
 18 19  1  0  0  0  0
 18 55  1  0  0  0  0
 18 56  1  0  0  0  0
 19 20  1  0  0  0  0
 19 57  1  0  0  0  0
 19 58  1  0  0  0  0
 20 21  1  0  0  0  0
 20 59  1  0  0  0  0
 20 60  1  0  0  0  0
 21 22  1  0  0  0  0
 21 61  1  0  0  0  0
 21 62  1  0  0  0  0
 22 23  1  0  0  0  0
 22 63  1  0  0  0  0
 22 64  1  0  0  0  0
 23 65  1  0  0  0  0
 23 66  1  0  0  0  0
 23 67  1  0  0  0  0
 24 25  1  0  0  0  0
 24 68  1  0  0  0  0
 25 26  2  0  0  0  0
 25 69  1  0  0  0  0
 26 27  1  0  0  0  0
 26 70  1  0  0  0  0
 27 71  1  0  0  0  0
M  END
$$$$
