
 OpenBabel04232216593D

178177  0  0  0  0  0  0  0  0999 V2000
    4.4961   -2.6447   -2.7099 O   0  0  0  0  0  0  0  0  0  0  0  0
    3.9181   -3.5311   -3.3356 C   0  0  0  0  0  0  0  0  0  0  0  0
    4.6365   -4.5896   -4.1118 C   0  0  0  0  0  0  0  0  0  0  0  0
    6.1304   -4.3874   -3.9997 C   0  0  0  0  0  0  0  0  0  0  0  0
    6.8390   -5.4530   -4.7808 C   0  0  0  0  0  0  0  0  0  0  0  0
    8.3084   -5.2353   -4.6570 C   0  0  0  0  0  0  0  0  0  0  0  0
    8.8415   -6.2728   -5.4163 O   0  0  0  0  0  0  0  0  0  0  0  0
   10.2169   -6.0451   -5.2858 O   0  0  0  0  0  0  0  0  0  0  0  0
   10.8545   -7.0377   -6.0159 O   0  0  0  0  0  0  0  0  0  0  0  0
   12.2127   -6.8219   -5.8905 O   0  0  0  0  0  0  0  0  0  0  0  0
   12.8481   -7.8262   -6.6243 O   0  0  0  0  0  0  0  0  0  0  0  0
   14.1861   -7.5974   -6.4940 O   0  0  0  0  0  0  0  0  0  0  0  0
   14.7842   -8.5933   -7.2249 O   0  0  0  0  0  0  0  0  0  0  0  0
   16.1288   -8.3714   -7.0950 O   0  0  0  0  0  0  0  0  0  0  0  0
   16.7231   -9.3639   -7.8262 O   0  0  0  0  0  0  0  0  0  0  0  0
   18.0649   -9.1353   -7.6942 O   0  0  0  0  0  0  0  0  0  0  0  0
   18.6586  -10.1296   -8.4235 O   0  0  0  0  0  0  0  0  0  0  0  0
   19.9986   -9.8965   -8.2907 O   0  0  0  0  0  0  0  0  0  0  0  0
   20.5904  -10.8867   -9.0211 O   0  0  0  0  0  0  0  0  0  0  0  0
   21.9313  -10.6609   -8.8898 O   0  0  0  0  0  0  0  0  0  0  0  0
   22.5194  -11.6561   -9.6199 O   0  0  0  0  0  0  0  0  0  0  0  0
   23.8610  -11.4275   -9.4906 O   0  0  0  0  0  0  0  0  0  0  0  0
   24.4537  -12.4206  -10.2218 O   0  0  0  0  0  0  0  0  0  0  0  0
   25.7968  -12.1945  -10.0912 O   0  0  0  0  0  0  0  0  0  0  0  0
   26.3946  -13.1847  -10.8233 O   0  0  0  0  0  0  0  0  0  0  0  0
   27.7466  -12.9550  -10.6936 O   0  0  0  0  0  0  0  0  0  0  0  0
   28.3325  -13.9421  -11.4196 O   0  0  0  0  0  0  0  0  0  0  0  0
   29.7078  -13.7323  -11.3021 O   0  0  0  0  0  0  0  0  0  0  0  0
   30.3188  -14.7311  -12.0406 O   0  0  0  0  0  0  0  0  0  0  0  0
   31.6880  -14.5396  -11.9336 O   0  0  0  0  0  0  0  0  0  0  0  0
   32.2847  -15.5597  -12.6872 O   0  0  0  0  0  0  0  0  0  0  0  0
   33.6342  -15.2884  -12.5219 C   0  0  0  0  0  0  0  0  0  0  0  0
   34.3010  -16.2744  -13.2665 O   0  0  0  0  0  0  0  0  0  0  0  0
   35.6793  -16.0640  -13.1351 C   0  0  0  0  0  0  0  0  0  0  0  0
   36.0224  -16.1507  -11.7692 O   0  0  0  0  0  0  0  0  0  0  0  0
   37.4089  -15.9479  -11.6165 C   0  0  0  0  0  0  0  0  0  0  0  0
   37.7465  -16.0260  -10.2434 O   0  0  0  0  0  0  0  0  0  0  0  0
   39.1444  -15.8165  -10.0992 C   0  0  0  0  0  0  0  0  0  0  0  0
   39.5102  -14.5283  -10.5878 O   0  0  0  0  0  0  0  0  0  0  0  0
   40.9064  -14.3379  -10.4495 C   0  0  0  0  0  0  0  0  0  0  0  0
   41.6304  -15.3175  -11.1809 O   0  0  0  0  0  0  0  0  0  0  0  0
   43.0188  -15.1084  -11.0107 C   0  0  0  0  0  0  0  0  0  0  0  0
   43.7632  -16.1721  -11.7826 C   0  0  0  0  0  0  0  0  0  0  0  0
   45.2561  -15.9584  -11.6241 C   0  0  0  0  0  0  0  0  0  0  0  0
   46.0194  -17.0178  -12.3940 C   0  0  0  0  0  0  0  0  0  0  0  0
   47.5116  -16.7990  -12.2321 C   0  0  0  0  0  0  0  0  0  0  0  0
   48.2749  -17.8590  -13.0024 C   0  0  0  0  0  0  0  0  0  0  0  0
   49.7668  -17.6392  -12.8421 C   0  0  0  0  0  0  0  0  0  0  0  0
   50.5296  -18.6981  -13.6142 C   0  0  0  0  0  0  0  0  0  0  0  0
   52.0214  -18.4799  -13.4526 C   0  0  0  0  0  0  0  0  0  0  0  0
   52.7844  -19.5387  -14.2247 C   0  0  0  0  0  0  0  0  0  0  0  0
   54.2761  -19.3191  -14.0646 C   0  0  0  0  0  0  0  0  0  0  0  0
   55.0389  -20.3769  -14.8383 C   0  0  0  0  0  0  0  0  0  0  0  0
   56.5307  -20.1584  -14.6765 C   0  0  0  0  0  0  0  0  0  0  0  0
   57.2934  -21.2173  -15.4486 C   0  0  0  0  0  0  0  0  0  0  0  0
   58.7851  -21.0000  -15.2851 C   0  0  0  0  0  0  0  0  0  0  0  0
   59.5478  -22.0577  -16.0588 C   0  0  0  0  0  0  0  0  0  0  0  0
   61.0395  -21.8404  -15.8954 C   0  0  0  0  0  0  0  0  0  0  0  0
   61.8022  -22.8969  -16.6707 C   0  0  0  0  0  0  0  0  0  0  0  0
   63.2939  -22.6796  -16.5073 C   0  0  0  0  0  0  0  0  0  0  0  0
   64.0566  -23.7361  -17.2826 C   0  0  0  0  0  0  0  0  0  0  0  0
   65.5483  -23.5188  -17.1192 C   0  0  0  0  0  0  0  0  0  0  0  0
   66.3110  -24.5753  -17.8945 C   0  0  0  0  0  0  0  0  0  0  0  0
   67.8027  -24.3580  -17.7311 C   0  0  0  0  0  0  0  0  0  0  0  0
   68.5654  -25.4146  -18.5064 C   0  0  0  0  0  0  0  0  0  0  0  0
   70.0571  -25.1972  -18.3430 C   0  0  0  0  0  0  0  0  0  0  0  0
   70.8198  -26.2538  -19.1183 C   0  0  0  0  0  0  0  0  0  0  0  0
   72.3115  -26.0364  -18.9549 C   0  0  0  0  0  0  0  0  0  0  0  0
   73.0742  -27.0918  -19.7318 C   0  0  0  0  0  0  0  0  0  0  0  0
   74.5659  -26.8744  -19.5684 C   0  0  0  0  0  0  0  0  0  0  0  0
   75.3285  -27.9297  -20.3453 C   0  0  0  0  0  0  0  0  0  0  0  0
   76.8201  -27.7123  -20.1818 C   0  0  0  0  0  0  0  0  0  0  0  0
   77.5827  -28.7676  -20.9587 C   0  0  0  0  0  0  0  0  0  0  0  0
   79.0741  -28.5500  -20.7951 C   0  0  0  0  0  0  0  0  0  0  0  0
   79.8366  -29.6066  -21.5704 C   0  0  0  0  0  0  0  0  0  0  0  0
   81.3285  -29.3885  -21.4064 C   0  0  0  0  0  0  0  0  0  0  0  0
   82.0929  -30.4452  -22.1819 C   0  0  0  0  0  0  0  0  0  0  0  0
   83.5863  -30.2287  -22.0215 C   0  0  0  0  0  0  0  0  0  0  0  0
   84.3558  -31.2844  -22.7988 C   0  0  0  0  0  0  0  0  0  0  0  0
   85.8456  -31.0673  -22.6380 C   0  0  0  0  0  0  0  0  0  0  0  0
    2.8218   -3.5796   -3.3476 H   0  0  0  0  0  0  0  0  0  0  0  0
    4.3245   -4.5296   -5.1601 H   0  0  0  0  0  0  0  0  0  0  0  0
    4.3566   -5.5702   -3.7114 H   0  0  0  0  0  0  0  0  0  0  0  0
    6.4497   -4.4280   -2.9495 H   0  0  0  0  0  0  0  0  0  0  0  0
    6.4179   -3.3987   -4.3824 H   0  0  0  0  0  0  0  0  0  0  0  0
    6.5576   -5.4344   -5.8416 H   0  0  0  0  0  0  0  0  0  0  0  0
    6.5893   -6.4579   -4.4167 H   0  0  0  0  0  0  0  0  0  0  0  0
    8.6646   -5.3223   -3.6236 H   0  0  0  0  0  0  0  0  0  0  0  0
    8.6318   -4.2753   -5.0770 H   0  0  0  0  0  0  0  0  0  0  0  0
   33.8729  -15.3272  -11.4483 H   0  0  0  0  0  0  0  0  0  0  0  0
   33.8486  -14.2790  -12.9037 H   0  0  0  0  0  0  0  0  0  0  0  0
   35.9262  -15.0716  -13.5323 H   0  0  0  0  0  0  0  0  0  0  0  0
   36.1916  -16.8409  -13.7036 H   0  0  0  0  0  0  0  0  0  0  0  0
   37.6578  -14.9541  -12.0097 H   0  0  0  0  0  0  0  0  0  0  0  0
   37.9405  -16.7215  -12.1788 H   0  0  0  0  0  0  0  0  0  0  0  0
   39.6779  -16.6012  -10.6539 H   0  0  0  0  0  0  0  0  0  0  0  0
   39.3995  -15.8883   -9.0384 H   0  0  0  0  0  0  0  0  0  0  0  0
   41.1625  -14.3903   -9.3865 H   0  0  0  0  0  0  0  0  0  0  0  0
   41.1536  -13.3442  -10.8354 H   0  0  0  0  0  0  0  0  0  0  0  0
   43.2724  -15.1662   -9.9463 H   0  0  0  0  0  0  0  0  0  0  0  0
   43.2770  -14.1147  -11.3897 H   0  0  0  0  0  0  0  0  0  0  0  0
   43.4787  -16.1336  -12.8414 H   0  0  0  0  0  0  0  0  0  0  0  0
   43.4760  -17.1675  -11.4213 H   0  0  0  0  0  0  0  0  0  0  0  0
   45.5281  -16.0016  -10.5620 H   0  0  0  0  0  0  0  0  0  0  0  0
   45.5307  -14.9613  -11.9907 H   0  0  0  0  0  0  0  0  0  0  0  0
   45.7493  -16.9736  -13.4561 H   0  0  0  0  0  0  0  0  0  0  0  0
   45.7467  -18.0144  -12.0265 H   0  0  0  0  0  0  0  0  0  0  0  0
   47.7824  -16.8428  -11.1700 H   0  0  0  0  0  0  0  0  0  0  0  0
   47.7849  -15.8021  -12.5993 H   0  0  0  0  0  0  0  0  0  0  0  0
   48.0038  -17.8162  -14.0644 H   0  0  0  0  0  0  0  0  0  0  0  0
   48.0034  -18.8559  -12.6343 H   0  0  0  0  0  0  0  0  0  0  0  0
   50.0385  -17.6835  -11.7804 H   0  0  0  0  0  0  0  0  0  0  0  0
   50.0386  -16.6419  -13.2091 H   0  0  0  0  0  0  0  0  0  0  0  0
   50.2591  -18.6529  -14.6762 H   0  0  0  0  0  0  0  0  0  0  0  0
   50.2570  -19.6955  -13.2484 H   0  0  0  0  0  0  0  0  0  0  0  0
   52.2922  -18.5252  -12.3908 H   0  0  0  0  0  0  0  0  0  0  0  0
   52.2942  -17.4826  -13.8186 H   0  0  0  0  0  0  0  0  0  0  0  0
   52.5128  -19.4944  -15.2864 H   0  0  0  0  0  0  0  0  0  0  0  0
   52.5128  -20.5360  -13.8578 H   0  0  0  0  0  0  0  0  0  0  0  0
   54.5480  -19.3650  -13.0030 H   0  0  0  0  0  0  0  0  0  0  0  0
   54.5477  -18.3214  -14.4302 H   0  0  0  0  0  0  0  0  0  0  0  0
   54.7682  -20.3301  -15.9001 H   0  0  0  0  0  0  0  0  0  0  0  0
   54.7665  -21.3747  -14.4737 H   0  0  0  0  0  0  0  0  0  0  0  0
   56.8013  -20.2037  -13.6146 H   0  0  0  0  0  0  0  0  0  0  0  0
   56.8034  -19.1611  -15.0424 H   0  0  0  0  0  0  0  0  0  0  0  0
   57.0239  -21.1710  -16.5107 H   0  0  0  0  0  0  0  0  0  0  0  0
   57.0197  -22.2147  -15.0836 H   0  0  0  0  0  0  0  0  0  0  0  0
   59.0548  -21.0477  -14.2231 H   0  0  0  0  0  0  0  0  0  0  0  0
   59.0587  -20.0021  -15.6488 H   0  0  0  0  0  0  0  0  0  0  0  0
   59.2781  -22.0100  -17.1209 H   0  0  0  0  0  0  0  0  0  0  0  0
   59.2743  -23.0556  -15.6952 H   0  0  0  0  0  0  0  0  0  0  0  0
   61.3094  -21.8895  -14.8335 H   0  0  0  0  0  0  0  0  0  0  0  0
   61.3129  -20.8419  -16.2577 H   0  0  0  0  0  0  0  0  0  0  0  0
   61.5323  -22.8478  -17.7326 H   0  0  0  0  0  0  0  0  0  0  0  0
   61.5289  -23.8954  -16.3084 H   0  0  0  0  0  0  0  0  0  0  0  0
   63.5638  -22.7288  -15.4454 H   0  0  0  0  0  0  0  0  0  0  0  0
   63.5673  -21.6811  -16.8696 H   0  0  0  0  0  0  0  0  0  0  0  0
   63.7867  -23.6870  -18.3445 H   0  0  0  0  0  0  0  0  0  0  0  0
   63.7833  -24.7346  -16.9203 H   0  0  0  0  0  0  0  0  0  0  0  0
   65.8182  -23.5680  -16.0573 H   0  0  0  0  0  0  0  0  0  0  0  0
   65.8217  -22.5204  -17.4815 H   0  0  0  0  0  0  0  0  0  0  0  0
   66.0411  -24.5262  -18.9564 H   0  0  0  0  0  0  0  0  0  0  0  0
   66.0377  -25.5738  -17.5322 H   0  0  0  0  0  0  0  0  0  0  0  0
   68.0727  -24.4072  -16.6692 H   0  0  0  0  0  0  0  0  0  0  0  0
   68.0761  -23.3596  -18.0934 H   0  0  0  0  0  0  0  0  0  0  0  0
   68.2955  -25.3654  -19.5683 H   0  0  0  0  0  0  0  0  0  0  0  0
   68.2921  -26.4130  -18.1441 H   0  0  0  0  0  0  0  0  0  0  0  0
   70.3271  -25.2464  -17.2811 H   0  0  0  0  0  0  0  0  0  0  0  0
   70.3305  -24.1988  -18.7053 H   0  0  0  0  0  0  0  0  0  0  0  0
   70.5499  -26.2046  -20.1802 H   0  0  0  0  0  0  0  0  0  0  0  0
   70.5465  -27.2522  -18.7560 H   0  0  0  0  0  0  0  0  0  0  0  0
   72.5817  -26.0870  -17.8931 H   0  0  0  0  0  0  0  0  0  0  0  0
   72.5847  -25.0375  -19.3158 H   0  0  0  0  0  0  0  0  0  0  0  0
   72.8041  -27.0412  -20.7936 H   0  0  0  0  0  0  0  0  0  0  0  0
   72.8011  -28.0908  -19.3709 H   0  0  0  0  0  0  0  0  0  0  0  0
   74.8361  -26.9250  -18.5066 H   0  0  0  0  0  0  0  0  0  0  0  0
   74.8391  -25.8755  -19.9293 H   0  0  0  0  0  0  0  0  0  0  0  0
   75.0585  -27.8792  -21.4071 H   0  0  0  0  0  0  0  0  0  0  0  0
   75.0555  -28.9288  -19.9844 H   0  0  0  0  0  0  0  0  0  0  0  0
   77.0904  -27.7630  -19.1201 H   0  0  0  0  0  0  0  0  0  0  0  0
   77.0934  -26.7134  -20.5428 H   0  0  0  0  0  0  0  0  0  0  0  0
   77.3128  -28.7171  -22.0206 H   0  0  0  0  0  0  0  0  0  0  0  0
   77.3098  -29.7667  -20.5978 H   0  0  0  0  0  0  0  0  0  0  0  0
   79.3443  -28.5993  -19.7332 H   0  0  0  0  0  0  0  0  0  0  0  0
   79.3477  -27.5516  -21.1575 H   0  0  0  0  0  0  0  0  0  0  0  0
   79.5668  -29.5577  -22.6325 H   0  0  0  0  0  0  0  0  0  0  0  0
   79.5634  -30.6053  -21.2083 H   0  0  0  0  0  0  0  0  0  0  0  0
   81.5976  -29.4372  -20.3442 H   0  0  0  0  0  0  0  0  0  0  0  0
   81.6010  -28.3896  -21.7684 H   0  0  0  0  0  0  0  0  0  0  0  0
   81.8202  -30.3976  -23.2433 H   0  0  0  0  0  0  0  0  0  0  0  0
   81.8189  -31.4435  -21.8192 H   0  0  0  0  0  0  0  0  0  0  0  0
   83.8552  -30.2761  -20.9589 H   0  0  0  0  0  0  0  0  0  0  0  0
   83.8561  -29.2281  -22.3817 H   0  0  0  0  0  0  0  0  0  0  0  0
   84.0878  -31.2356  -23.8606 H   0  0  0  0  0  0  0  0  0  0  0  0
   84.0870  -32.2839  -22.4375 H   0  0  0  0  0  0  0  0  0  0  0  0
   86.1318  -30.0793  -23.0124 H   0  0  0  0  0  0  0  0  0  0  0  0
   86.4004  -31.8253  -23.1960 H   0  0  0  0  0  0  0  0  0  0  0  0
   86.1310  -31.1322  -21.5832 H   0  0  0  0  0  0  0  0  0  0  0  0
  1  2  2  0  0  0  0
  2  3  1  0  0  0  0
  2 81  1  0  0  0  0
  3  4  1  0  0  0  0
  3 82  1  0  0  0  0
  3 83  1  0  0  0  0
  4  5  1  0  0  0  0
  4 84  1  0  0  0  0
  4 85  1  0  0  0  0
  5  6  1  0  0  0  0
  5 86  1  0  0  0  0
  5 87  1  0  0  0  0
  6  7  1  0  0  0  0
  6 88  1  0  0  0  0
  6 89  1  0  0  0  0
  7  8  1  0  0  0  0
  8  9  1  0  0  0  0
  9 10  1  0  0  0  0
 10 11  1  0  0  0  0
 11 12  1  0  0  0  0
 12 13  1  0  0  0  0
 13 14  1  0  0  0  0
 14 15  1  0  0  0  0
 15 16  1  0  0  0  0
 16 17  1  0  0  0  0
 17 18  1  0  0  0  0
 18 19  1  0  0  0  0
 19 20  1  0  0  0  0
 20 21  1  0  0  0  0
 21 22  1  0  0  0  0
 22 23  1  0  0  0  0
 23 24  1  0  0  0  0
 24 25  1  0  0  0  0
 25 26  1  0  0  0  0
 26 27  1  0  0  0  0
 27 28  1  0  0  0  0
 28 29  1  0  0  0  0
 29 30  1  0  0  0  0
 30 31  1  0  0  0  0
 31 32  1  0  0  0  0
 32 33  1  0  0  0  0
 32 90  1  0  0  0  0
 32 91  1  0  0  0  0
 33 34  1  0  0  0  0
 34 35  1  0  0  0  0
 34 92  1  0  0  0  0
 34 93  1  0  0  0  0
 35 36  1  0  0  0  0
 36 37  1  0  0  0  0
 36 94  1  0  0  0  0
 36 95  1  0  0  0  0
 37 38  1  0  0  0  0
 38 39  1  0  0  0  0
 38 96  1  0  0  0  0
 38 97  1  0  0  0  0
 39 40  1  0  0  0  0
 40 41  1  0  0  0  0
 40 98  1  0  0  0  0
 40 99  1  0  0  0  0
 41 42  1  0  0  0  0
 42 43  1  0  0  0  0
 42100  1  0  0  0  0
 42101  1  0  0  0  0
 43 44  1  0  0  0  0
 43102  1  0  0  0  0
 43103  1  0  0  0  0
 44 45  1  0  0  0  0
 44104  1  0  0  0  0
 44105  1  0  0  0  0
 45 46  1  0  0  0  0
 45106  1  0  0  0  0
 45107  1  0  0  0  0
 46 47  1  0  0  0  0
 46108  1  0  0  0  0
 46109  1  0  0  0  0
 47 48  1  0  0  0  0
 47110  1  0  0  0  0
 47111  1  0  0  0  0
 48 49  1  0  0  0  0
 48112  1  0  0  0  0
 48113  1  0  0  0  0
 49 50  1  0  0  0  0
 49114  1  0  0  0  0
 49115  1  0  0  0  0
 50 51  1  0  0  0  0
 50116  1  0  0  0  0
 50117  1  0  0  0  0
 51 52  1  0  0  0  0
 51118  1  0  0  0  0
 51119  1  0  0  0  0
 52 53  1  0  0  0  0
 52120  1  0  0  0  0
 52121  1  0  0  0  0
 53 54  1  0  0  0  0
 53122  1  0  0  0  0
 53123  1  0  0  0  0
 54 55  1  0  0  0  0
 54124  1  0  0  0  0
 54125  1  0  0  0  0
 55 56  1  0  0  0  0
 55126  1  0  0  0  0
 55127  1  0  0  0  0
 56 57  1  0  0  0  0
 56128  1  0  0  0  0
 56129  1  0  0  0  0
 57 58  1  0  0  0  0
 57130  1  0  0  0  0
 57131  1  0  0  0  0
 58 59  1  0  0  0  0
 58132  1  0  0  0  0
 58133  1  0  0  0  0
 59 60  1  0  0  0  0
 59134  1  0  0  0  0
 59135  1  0  0  0  0
 60 61  1  0  0  0  0
 60136  1  0  0  0  0
 60137  1  0  0  0  0
 61 62  1  0  0  0  0
 61138  1  0  0  0  0
 61139  1  0  0  0  0
 62 63  1  0  0  0  0
 62140  1  0  0  0  0
 62141  1  0  0  0  0
 63 64  1  0  0  0  0
 63142  1  0  0  0  0
 63143  1  0  0  0  0
 64 65  1  0  0  0  0
 64144  1  0  0  0  0
 64145  1  0  0  0  0
 65 66  1  0  0  0  0
 65146  1  0  0  0  0
 65147  1  0  0  0  0
 66 67  1  0  0  0  0
 66148  1  0  0  0  0
 66149  1  0  0  0  0
 67 68  1  0  0  0  0
 67150  1  0  0  0  0
 67151  1  0  0  0  0
 68 69  1  0  0  0  0
 68152  1  0  0  0  0
 68153  1  0  0  0  0
 69 70  1  0  0  0  0
 69154  1  0  0  0  0
 69155  1  0  0  0  0
 70 71  1  0  0  0  0
 70156  1  0  0  0  0
 70157  1  0  0  0  0
 71 72  1  0  0  0  0
 71158  1  0  0  0  0
 71159  1  0  0  0  0
 72 73  1  0  0  0  0
 72160  1  0  0  0  0
 72161  1  0  0  0  0
 73 74  1  0  0  0  0
 73162  1  0  0  0  0
 73163  1  0  0  0  0
 74 75  1  0  0  0  0
 74164  1  0  0  0  0
 74165  1  0  0  0  0
 75 76  1  0  0  0  0
 75166  1  0  0  0  0
 75167  1  0  0  0  0
 76 77  1  0  0  0  0
 76168  1  0  0  0  0
 76169  1  0  0  0  0
 77 78  1  0  0  0  0
 77170  1  0  0  0  0
 77171  1  0  0  0  0
 78 79  1  0  0  0  0
 78172  1  0  0  0  0
 78173  1  0  0  0  0
 79 80  1  0  0  0  0
 79174  1  0  0  0  0
 79175  1  0  0  0  0
 80176  1  0  0  0  0
 80177  1  0  0  0  0
 80178  1  0  0  0  0
M  END
$$$$
