
 OpenBabel04232217023D

110109  0  0  0  0  0  0  0  0999 V2000
   16.6186   -5.1779    8.6326 O   0  0  0  0  0  0  0  0  0  0  0  0
   18.0732   -5.1819    8.5047 O   0  0  0  0  0  0  0  0  0  0  0  0
   18.5767   -5.1341    9.8520 C   0  0  0  0  0  0  0  0  0  0  0  0
   20.0948   -5.1877    9.8155 C   0  0  0  0  0  0  0  0  0  0  0  0
   20.6657   -5.1523   11.2319 C   0  0  0  0  0  0  0  0  0  0  0  0
   22.1963   -5.2081   11.2369 C   0  0  0  0  0  0  0  0  0  0  0  0
   22.6980   -4.0638   10.4865 N   0  0  0  0  0  0  0  0  0  0  0  0
   24.1436   -4.1127   10.4394 N   0  0  0  0  0  0  0  0  0  0  0  0
   24.6574   -3.0036    9.6759 N   0  0  0  0  0  0  0  0  0  0  0  0
   26.0903   -2.9876    9.6783 N   0  0  0  0  0  0  0  0  0  0  0  0
   26.6325   -1.8910    8.9041 N   0  0  0  0  0  0  0  0  0  0  0  0
   26.3382   -0.5995    9.4653 N   0  0  0  0  0  0  0  0  0  0  0  0
   27.1280    0.5802    8.6229 S   0  0  0  0  0  0  0  0  0  0  0  0
   26.4816    2.2258    9.6768 S   0  0  0  0  0  0  0  0  0  0  0  0
   27.2628    2.0491   11.5777 S   0  0  0  0  0  0  0  0  0  0  0  0
   29.3097    2.3012   11.4617 S   0  0  0  0  0  0  0  0  0  0  0  0
   30.0124    2.1260   13.4125 S   0  0  0  0  0  0  0  0  0  0  0  0
   32.0893    1.9964   13.3258 S   0  0  0  0  0  0  0  0  0  0  0  0
   32.8104    1.9797   15.2906 S   0  0  0  0  0  0  0  0  0  0  0  0
   34.9027    1.8693   15.2047 S   0  0  0  0  0  0  0  0  0  0  0  0
   35.6454    1.8179   17.1678 S   0  0  0  0  0  0  0  0  0  0  0  0
   37.7435    1.7154   17.0778 S   0  0  0  0  0  0  0  0  0  0  0  0
   38.4874    1.6665   19.0416 S   0  0  0  0  0  0  0  0  0  0  0  0
   40.5830    1.5715   18.9600 S   0  0  0  0  0  0  0  0  0  0  0  0
   41.3006    1.4878   20.9281 S   0  0  0  0  0  0  0  0  0  0  0  0
   43.3839    1.4178   20.8530 S   0  0  0  0  0  0  0  0  0  0  0  0
   44.1029    1.4816   22.8113 S   0  0  0  0  0  0  0  0  0  0  0  0
   46.1000    0.9576   22.6911 S   0  0  0  0  0  0  0  0  0  0  0  0
   46.9303    1.0045   24.5787 S   0  0  0  0  0  0  0  0  0  0  0  0
   46.1492   -0.5787   25.6354 S   0  0  0  0  0  0  0  0  0  0  0  0
   46.7753   -1.8661   24.7955 N   0  0  0  0  0  0  0  0  0  0  0  0
   46.3808   -3.3224   25.5303 S   0  0  0  0  0  0  0  0  0  0  0  0
   44.7379   -3.3837   25.7278 N   0  0  0  0  0  0  0  0  0  0  0  0
   44.2229   -4.8423   26.3872 S   0  0  0  0  0  0  0  0  0  0  0  0
   44.7274   -4.9481   27.9754 N   0  0  0  0  0  0  0  0  0  0  0  0
   44.2003   -3.7425   28.9272 S   0  0  0  0  0  0  0  0  0  0  0  0
   44.7857   -4.0615   30.4327 N   0  0  0  0  0  0  0  0  0  0  0  0
   46.4359   -4.0246   30.6208 S   0  0  0  0  0  0  0  0  0  0  0  0
   47.0020   -2.5551   30.0954 N   0  0  0  0  0  0  0  0  0  0  0  0
   46.6456   -1.2964   31.1143 S   0  0  0  0  0  0  0  0  0  0  0  0
   45.0289   -0.9755   30.8503 N   0  0  0  0  0  0  0  0  0  0  0  0
   44.4286    0.3007   31.6731 S   0  0  0  0  0  0  0  0  0  0  0  0
   45.1065    1.7091   31.1706 N   0  0  0  0  0  0  0  0  0  0  0  0
   44.8185    2.1914   29.6195 S   0  0  0  0  0  0  0  0  0  0  0  0
   43.2055    2.4245   29.3375 N   0  0  0  0  0  0  0  0  0  0  0  0
   42.4991    3.8289   29.8044 S   0  0  0  0  0  0  0  0  0  0  0  0
   43.3833    5.2497   29.7376 N   0  0  0  0  0  0  0  0  0  0  0  0
   42.7091    6.6113   30.5358 S   0  0  0  0  0  0  0  0  0  0  0  0
   42.6667    6.4934   32.2031 N   0  0  0  0  0  0  0  0  0  0  0  0
   41.9928    7.8362   32.9855 S   0  0  0  0  0  0  0  0  0  0  0  0
   40.3417    7.7311   33.1121 N   0  0  0  0  0  0  0  0  0  0  0  0
   39.7202    9.0545   33.9161 S   0  0  0  0  0  0  0  0  0  0  0  0
   38.0401    9.0137   33.7414 N   0  0  0  0  0  0  0  0  0  0  0  0
   37.5610    9.3770   32.1827 S   0  0  0  0  0  0  0  0  0  0  0  0
   37.8923    8.0567   31.2188 N   0  0  0  0  0  0  0  0  0  0  0  0
   37.1352    6.6975   31.8149 S   0  0  0  0  0  0  0  0  0  0  0  0
   37.8947    5.2470   30.5885 S   0  0  0  0  0  0  0  0  0  0  0  0
   39.8639    5.0818   31.0776 S   0  0  0  0  0  0  0  0  0  0  0  0
   40.2676    4.1553   32.9075 S   0  0  0  0  0  0  0  0  0  0  0  0
   42.2883    3.4202   33.0570 S   0  0  0  0  0  0  0  0  0  0  0  0
   43.2752    4.1875   34.7490 S   0  0  0  0  0  0  0  0  0  0  0  0
   45.3755    3.9109   34.6027 S   0  0  0  0  0  0  0  0  0  0  0  0
   46.0726    3.1852   36.4589 S   0  0  0  0  0  0  0  0  0  0  0  0
   48.1776    3.3026   36.5559 S   0  0  0  0  0  0  0  0  0  0  0  0
   48.7555    2.7093   38.4974 S   0  0  0  0  0  0  0  0  0  0  0  0
   50.8544    2.6393   38.6078 S   0  0  0  0  0  0  0  0  0  0  0  0
   51.3972    2.0566   40.5586 S   0  0  0  0  0  0  0  0  0  0  0  0
   53.4980    2.0127   40.6802 S   0  0  0  0  0  0  0  0  0  0  0  0
   54.0489    1.4263   42.6258 S   0  0  0  0  0  0  0  0  0  0  0  0
   56.1514    1.3775   42.7394 S   0  0  0  0  0  0  0  0  0  0  0  0
   56.7052    0.7933   44.6847 S   0  0  0  0  0  0  0  0  0  0  0  0
   58.8061    0.7446   44.7975 S   0  0  0  0  0  0  0  0  0  0  0  0
   59.3552    0.1615   46.7415 S   0  0  0  0  0  0  0  0  0  0  0  0
   61.4509    0.1127   46.8504 S   0  0  0  0  0  0  0  0  0  0  0  0
   61.9914   -0.4755   48.7877 S   0  0  0  0  0  0  0  0  0  0  0  0
   64.0777   -0.4940   48.8917 S   0  0  0  0  0  0  0  0  0  0  0  0
   64.6119   -1.1006   50.8123 S   0  0  0  0  0  0  0  0  0  0  0  0
   66.6835   -1.2142   50.8504 S   0  0  0  0  0  0  0  0  0  0  0  0
   67.2363   -1.5352   52.8165 S   0  0  0  0  0  0  0  0  0  0  0  0
   69.2889   -1.7511   52.8028 S   0  0  0  0  0  0  0  0  0  0  0  0
   70.0317    0.1608   52.6790 S   0  0  0  0  0  0  0  0  0  0  0  0
   16.4282   -5.2109    7.6760 H   0  0  0  0  0  0  0  0  0  0  0  0
   18.1656   -5.9733   10.4045 H   0  0  0  0  0  0  0  0  0  0  0  0
   18.2318   -4.1978   10.3097 H   0  0  0  0  0  0  0  0  0  0  0  0
   20.4703   -4.3701    9.2258 H   0  0  0  0  0  0  0  0  0  0  0  0
   20.4063   -6.1151    9.3183 H   0  0  0  0  0  0  0  0  0  0  0  0
   20.2831   -5.9977   11.8205 H   0  0  0  0  0  0  0  0  0  0  0  0
   20.3321   -4.2364   11.7468 H   0  0  0  0  0  0  0  0  0  0  0  0
   22.5235   -6.1498   10.7723 H   0  0  0  0  0  0  0  0  0  0  0  0
   22.5671   -5.1909   12.2686 H   0  0  0  0  0  0  0  0  0  0  0  0
   22.4046   -3.2067   10.9504 H   0  0  0  0  0  0  0  0  0  0  0  0
   24.4385   -4.9682    9.9909 H   0  0  0  0  0  0  0  0  0  0  0  0
   24.3341   -2.1428   10.1203 H   0  0  0  0  0  0  0  0  0  0  0  0
   26.4183   -3.8584    9.2619 H   0  0  0  0  0  0  0  0  0  0  0  0
   26.2945   -1.9503    7.9440 H   0  0  0  0  0  0  0  0  0  0  0  0
   26.6405   -0.5787   10.4428 H   0  0  0  0  0  0  0  0  0  0  0  0
   47.7926   -1.7857   24.7215 H   0  0  0  0  0  0  0  0  0  0  0  0
   44.2447   -3.2232   24.8818 H   0  0  0  0  0  0  0  0  0  0  0  0
   45.7272   -5.0620   28.0514 H   0  0  0  0  0  0  0  0  0  0  0  0
   44.4043   -4.9343   30.7859 H   0  0  0  0  0  0  0  0  0  0  0  0
   46.6170   -2.3931   29.1753 H   0  0  0  0  0  0  0  0  0  0  0  0
   44.5224   -1.8109   31.1061 H   0  0  0  0  0  0  0  0  0  0  0  0
   46.1296    1.6595   31.3350 H   0  0  0  0  0  0  0  0  0  0  0  0
   42.6799    1.5817   29.6389 H   0  0  0  0  0  0  0  0  0  0  0  0
   43.3022    5.5355   28.7614 H   0  0  0  0  0  0  0  0  0  0  0  0
   43.6119    6.3815   32.5703 H   0  0  0  0  0  0  0  0  0  0  0  0
   39.9858    6.8777   33.5488 H   0  0  0  0  0  0  0  0  0  0  0  0
   37.6048    9.6776   34.3756 H   0  0  0  0  0  0  0  0  0  0  0  0
   38.9065    7.9277   31.1790 H   0  0  0  0  0  0  0  0  0  0  0  0
   71.3515   -0.0854   52.7244 H   0  0  0  0  0  0  0  0  0  0  0  0
  1  2  1  0  0  0  0
  1 82  1  0  0  0  0
  2  3  1  0  0  0  0
  3  4  1  0  0  0  0
  3 83  1  0  0  0  0
  3 84  1  0  0  0  0
  4  5  1  0  0  0  0
  4 85  1  0  0  0  0
  4 86  1  0  0  0  0
  5  6  1  0  0  0  0
  5 87  1  0  0  0  0
  5 88  1  0  0  0  0
  6  7  1  0  0  0  0
  6 89  1  0  0  0  0
  6 90  1  0  0  0  0
  7  8  1  0  0  0  0
  7 91  1  0  0  0  0
  8  9  1  0  0  0  0
  8 92  1  0  0  0  0
  9 10  1  0  0  0  0
  9 93  1  0  0  0  0
 10 11  1  0  0  0  0
 10 94  1  0  0  0  0
 11 12  1  0  0  0  0
 11 95  1  0  0  0  0
 12 13  1  0  0  0  0
 12 96  1  0  0  0  0
 13 14  1  0  0  0  0
 14 15  1  0  0  0  0
 15 16  1  0  0  0  0
 16 17  1  0  0  0  0
 17 18  1  0  0  0  0
 18 19  1  0  0  0  0
 19 20  1  0  0  0  0
 20 21  1  0  0  0  0
 21 22  1  0  0  0  0
 22 23  1  0  0  0  0
 23 24  1  0  0  0  0
 24 25  1  0  0  0  0
 25 26  1  0  0  0  0
 26 27  1  0  0  0  0
 27 28  1  0  0  0  0
 28 29  1  0  0  0  0
 29 30  1  0  0  0  0
 30 31  1  0  0  0  0
 31 32  1  0  0  0  0
 31 97  1  0  0  0  0
 32 33  1  0  0  0  0
 33 34  1  0  0  0  0
 33 98  1  0  0  0  0
 34 35  1  0  0  0  0
 35 36  1  0  0  0  0
 35 99  1  0  0  0  0
 36 37  1  0  0  0  0
 37 38  1  0  0  0  0
 37100  1  0  0  0  0
 38 39  1  0  0  0  0
 39 40  1  0  0  0  0
 39101  1  0  0  0  0
 40 41  1  0  0  0  0
 41 42  1  0  0  0  0
 41102  1  0  0  0  0
 42 43  1  0  0  0  0
 43 44  1  0  0  0  0
 43103  1  0  0  0  0
 44 45  1  0  0  0  0
 45 46  1  0  0  0  0
 45104  1  0  0  0  0
 46 47  1  0  0  0  0
 47 48  1  0  0  0  0
 47105  1  0  0  0  0
 48 49  1  0  0  0  0
 49 50  1  0  0  0  0
 49106  1  0  0  0  0
 50 51  1  0  0  0  0
 51 52  1  0  0  0  0
 51107  1  0  0  0  0
 52 53  1  0  0  0  0
 53 54  1  0  0  0  0
 53108  1  0  0  0  0
 54 55  1  0  0  0  0
 55 56  1  0  0  0  0
 55109  1  0  0  0  0
 56 57  1  0  0  0  0
 57 58  1  0  0  0  0
 58 59  1  0  0  0  0
 59 60  1  0  0  0  0
 60 61  1  0  0  0  0
 61 62  1  0  0  0  0
 62 63  1  0  0  0  0
 63 64  1  0  0  0  0
 64 65  1  0  0  0  0
 65 66  1  0  0  0  0
 66 67  1  0  0  0  0
 67 68  1  0  0  0  0
 68 69  1  0  0  0  0
 69 70  1  0  0  0  0
 70 71  1  0  0  0  0
 71 72  1  0  0  0  0
 72 73  1  0  0  0  0
 73 74  1  0  0  0  0
 74 75  1  0  0  0  0
 75 76  1  0  0  0  0
 76 77  1  0  0  0  0
 77 78  1  0  0  0  0
 78 79  1  0  0  0  0
 79 80  1  0  0  0  0
 80 81  1  0  0  0  0
 81110  1  0  0  0  0
M  END
$$$$
