
 OpenBabel04232217023D

137136  0  0  0  0  0  0  0  0999 V2000
   30.0730    2.9997   26.2296 O   0  0  0  0  0  0  0  0  0  0  0  0
   29.7595    4.3652   25.8535 N   0  0  0  0  0  0  0  0  0  0  0  0
   30.5400    5.1954   26.7647 C   0  0  0  0  0  0  0  0  0  0  0  0
   30.1884    6.6655   26.5245 C   0  0  0  0  0  0  0  0  0  0  0  0
   30.9622    7.5673   27.4833 C   0  0  0  0  0  0  0  0  0  0  0  0
   30.7004    8.9693   27.1752 N   0  0  0  0  0  0  0  0  0  0  0  0
   31.3322    9.7593   28.1712 N   0  0  0  0  0  0  0  0  0  0  0  0
   30.7561   11.0562   28.1463 N   0  0  0  0  0  0  0  0  0  0  0  0
   31.5622   12.0564   28.7823 N   0  0  0  0  0  0  0  0  0  0  0  0
   32.9411   11.9786   28.4179 N   0  0  0  0  0  0  0  0  0  0  0  0
   33.4501   12.5592   27.2511 N   0  0  0  0  0  0  0  0  0  0  0  0
   33.1798   13.9032   26.9767 N   0  0  0  0  0  0  0  0  0  0  0  0
   34.0816   14.7986   27.6257 N   0  0  0  0  0  0  0  0  0  0  0  0
   35.4534   14.6206   27.2160 N   0  0  0  0  0  0  0  0  0  0  0  0
   35.7654   15.1633   25.9074 N   0  0  0  0  0  0  0  0  0  0  0  0
   35.0877   16.4281   25.7830 N   0  0  0  0  0  0  0  0  0  0  0  0
   35.4602   17.1992   26.9735 N   0  0  0  0  0  0  0  0  0  0  0  0
   36.8718   16.9757   27.3001 N   0  0  0  0  0  0  0  0  0  0  0  0
   37.6960   17.2253   26.1434 N   0  0  0  0  0  0  0  0  0  0  0  0
   37.3916   18.4969   25.5962 N   0  0  0  0  0  0  0  0  0  0  0  0
   38.1308   19.5783   26.1252 N   0  0  0  0  0  0  0  0  0  0  0  0
   39.5391   19.3456   26.0612 N   0  0  0  0  0  0  0  0  0  0  0  0
   40.0211   19.3560   24.7274 N   0  0  0  0  0  0  0  0  0  0  0  0
   40.2884   20.6820   24.2731 N   0  0  0  0  0  0  0  0  0  0  0  0
   40.9018   20.6505   22.7285 S   0  0  0  0  0  0  0  0  0  0  0  0
   39.7195   19.9450   21.8128 N   0  0  0  0  0  0  0  0  0  0  0  0
   39.4015   20.8572   20.4713 S   0  0  0  0  0  0  0  0  0  0  0  0
   37.7907   21.1815   20.5805 N   0  0  0  0  0  0  0  0  0  0  0  0
   37.2518   22.0998   19.3238 S   0  0  0  0  0  0  0  0  0  0  0  0
   36.8421   20.9685   18.1963 N   0  0  0  0  0  0  0  0  0  0  0  0
   35.2367   20.5984   18.2698 S   0  0  0  0  0  0  0  0  0  0  0  0
   35.0045   19.4605   17.0958 N   0  0  0  0  0  0  0  0  0  0  0  0
   35.7759   18.0258   17.3423 S   0  0  0  0  0  0  0  0  0  0  0  0
   35.2643   17.4756   18.8103 N   0  0  0  0  0  0  0  0  0  0  0  0
   35.5950   15.8718   19.0119 S   0  0  0  0  0  0  0  0  0  0  0  0
   37.2478   15.7201   18.9872 N   0  0  0  0  0  0  0  0  0  0  0  0
   38.0319   16.4545   20.2521 S   0  0  0  0  0  0  0  0  0  0  0  0
   37.1728   16.2213   21.6555 N   0  0  0  0  0  0  0  0  0  0  0  0
   37.5939   17.4267   22.7130 S   0  0  0  0  0  0  0  0  0  0  0  0
   37.0170   18.8845   22.1644 N   0  0  0  0  0  0  0  0  0  0  0  0
   35.6312   19.3178   22.9535 S   0  0  0  0  0  0  0  0  0  0  0  0
   35.3777   20.8599   22.4427 N   0  0  0  0  0  0  0  0  0  0  0  0
   35.7353   22.0094   23.5695 S   0  0  0  0  0  0  0  0  0  0  0  0
   37.3485   21.9033   23.7485 N   0  0  0  0  0  0  0  0  0  0  0  0
   38.2611   23.2178   23.5483 S   0  0  0  0  0  0  0  0  0  0  0  0
   37.7730   24.1148   22.2464 N   0  0  0  0  0  0  0  0  0  0  0  0
   38.1245   25.7150   22.5048 S   0  0  0  0  0  0  0  0  0  0  0  0
   39.6719   25.7384   23.1136 N   0  0  0  0  0  0  0  0  0  0  0  0
   40.8208   26.1777   22.0043 S   0  0  0  0  0  0  0  0  0  0  0  0
   40.5089   27.6836   21.3859 N   0  0  0  0  0  0  0  0  0  0  0  0
   40.6649   28.9379   22.4387 S   0  0  0  0  0  0  0  0  0  0  0  0
   42.2645   29.0842   22.8110 N   0  0  0  0  0  0  0  0  0  0  0  0
   43.2691   29.4810   21.5570 S   0  0  0  0  0  0  0  0  0  0  0  0
   42.7323   30.8567   20.8193 N   0  0  0  0  0  0  0  0  0  0  0  0
   42.8120   32.2329   21.7269 S   0  0  0  0  0  0  0  0  0  0  0  0
   44.3598   32.4910   22.1924 N   0  0  0  0  0  0  0  0  0  0  0  0
   45.3454   33.0929   21.0243 S   0  0  0  0  0  0  0  0  0  0  0  0
   46.8551   32.8819   21.6799 N   0  0  0  0  0  0  0  0  0  0  0  0
   47.3099   34.1194   22.6837 S   0  0  0  0  0  0  0  0  0  0  0  0
   46.2510   34.1013   23.9601 N   0  0  0  0  0  0  0  0  0  0  0  0
   46.5828   32.9737   25.1301 S   0  0  0  0  0  0  0  0  0  0  0  0
   48.1451   33.0986   25.6547 N   0  0  0  0  0  0  0  0  0  0  0  0
   48.4866   34.3871   26.6291 S   0  0  0  0  0  0  0  0  0  0  0  0
   47.5182   34.3714   27.9683 N   0  0  0  0  0  0  0  0  0  0  0  0
   47.7051   33.0945   28.9942 S   0  0  0  0  0  0  0  0  0  0  0  0
   49.2439   33.1114   29.5914 N   0  0  0  0  0  0  0  0  0  0  0  0
   49.6260   34.4279   30.5153 S   0  0  0  0  0  0  0  0  0  0  0  0
   48.5897   34.5089   31.8066 N   0  0  0  0  0  0  0  0  0  0  0  0
   48.7809   33.3149   32.9385 S   0  0  0  0  0  0  0  0  0  0  0  0
   50.3593   33.1901   33.4044 N   0  0  0  0  0  0  0  0  0  0  0  0
   50.9293   34.5215   34.1786 S   0  0  0  0  0  0  0  0  0  0  0  0
   52.3821   34.1001   34.8334 N   0  0  0  0  0  0  0  0  0  0  0  0
   53.5863   33.8043   33.7325 S   0  0  0  0  0  0  0  0  0  0  0  0
   53.8050   35.0937   32.7219 N   0  0  0  0  0  0  0  0  0  0  0  0
   54.3022   36.4724   33.4836 S   0  0  0  0  0  0  0  0  0  0  0  0
   54.4693   37.6262   32.3090 N   0  0  0  0  0  0  0  0  0  0  0  0
   53.0498   38.0074   31.5491 S   0  0  0  0  0  0  0  0  0  0  0  0
   53.3810   39.3169   30.5919 N   0  0  0  0  0  0  0  0  0  0  0  0
   54.3955   38.9291   29.3429 S   0  0  0  0  0  0  0  0  0  0  0  0
   54.3957   40.2375   28.3434 N   0  0  0  0  0  0  0  0  0  0  0  0
   55.1160   41.5677   29.0076 S   0  0  0  0  0  0  0  0  0  0  0  0
   30.1671    2.6089   25.3442 H   0  0  0  0  0  0  0  0  0  0  0  0
   28.7768    4.4248   26.1149 H   0  0  0  0  0  0  0  0  0  0  0  0
   31.6109    5.0387   26.5888 H   0  0  0  0  0  0  0  0  0  0  0  0
   30.3246    4.9274   27.8063 H   0  0  0  0  0  0  0  0  0  0  0  0
   29.1104    6.8199   26.6661 H   0  0  0  0  0  0  0  0  0  0  0  0
   30.4210    6.9366   25.4865 H   0  0  0  0  0  0  0  0  0  0  0  0
   32.0362    7.3710   27.3773 H   0  0  0  0  0  0  0  0  0  0  0  0
   30.6765    7.3277   28.5159 H   0  0  0  0  0  0  0  0  0  0  0  0
   29.7084    9.1893   27.2105 H   0  0  0  0  0  0  0  0  0  0  0  0
   32.3226    9.8556   27.9100 H   0  0  0  0  0  0  0  0  0  0  0  0
   29.7719   11.0672   28.4204 H   0  0  0  0  0  0  0  0  0  0  0  0
   31.5000   12.0508   29.7990 H   0  0  0  0  0  0  0  0  0  0  0  0
   33.6482   11.8728   29.1385 H   0  0  0  0  0  0  0  0  0  0  0  0
   33.3167   12.0233   26.4075 H   0  0  0  0  0  0  0  0  0  0  0  0
   32.1916   14.1134   27.1441 H   0  0  0  0  0  0  0  0  0  0  0  0
   34.0497   14.5860   28.6200 H   0  0  0  0  0  0  0  0  0  0  0  0
   35.6367   13.6284   27.2314 H   0  0  0  0  0  0  0  0  0  0  0  0
   35.4019   14.5123   25.2232 H   0  0  0  0  0  0  0  0  0  0  0  0
   34.1230   16.1679   26.0047 H   0  0  0  0  0  0  0  0  0  0  0  0
   35.0057   16.6521   27.7007 H   0  0  0  0  0  0  0  0  0  0  0  0
   36.8706   15.9464   27.4830 H   0  0  0  0  0  0  0  0  0  0  0  0
   37.3648   16.5658   25.4260 H   0  0  0  0  0  0  0  0  0  0  0  0
   36.3777   18.5965   25.7383 H   0  0  0  0  0  0  0  0  0  0  0  0
   37.9000   19.6117   27.1165 H   0  0  0  0  0  0  0  0  0  0  0  0
   39.6094   18.3938   26.4224 H   0  0  0  0  0  0  0  0  0  0  0  0
   39.2874   18.8920   24.1807 H   0  0  0  0  0  0  0  0  0  0  0  0
   39.3932   21.1889   24.2502 H   0  0  0  0  0  0  0  0  0  0  0  0
   40.0161   19.0027   21.5443 H   0  0  0  0  0  0  0  0  0  0  0  0
   37.5105   21.5575   21.5009 H   0  0  0  0  0  0  0  0  0  0  0  0
   37.3686   20.1272   18.4343 H   0  0  0  0  0  0  0  0  0  0  0  0
   35.3387   19.8435   16.2183 H   0  0  0  0  0  0  0  0  0  0  0  0
   34.2640   17.6542   18.8908 H   0  0  0  0  0  0  0  0  0  0  0  0
   37.5719   16.1857   18.1426 H   0  0  0  0  0  0  0  0  0  0  0  0
   37.4075   15.3180   22.0594 H   0  0  0  0  0  0  0  0  0  0  0  0
   37.7072   19.6471   22.2782 H   0  0  0  0  0  0  0  0  0  0  0  0
   34.4440   20.9580   22.0805 H   0  0  0  0  0  0  0  0  0  0  0  0
   37.7710   20.9864   23.6224 H   0  0  0  0  0  0  0  0  0  0  0  0
   36.7804   23.9410   22.0885 H   0  0  0  0  0  0  0  0  0  0  0  0
   39.8763   24.7909   23.4632 H   0  0  0  0  0  0  0  0  0  0  0  0
   39.5939   27.7152   20.9494 H   0  0  0  0  0  0  0  0  0  0  0  0
   42.5663   28.1971   23.2085 H   0  0  0  0  0  0  0  0  0  0  0  0
   41.7763   30.7058   20.4974 H   0  0  0  0  0  0  0  0  0  0  0  0
   44.7944   31.6868   22.6372 H   0  0  0  0  0  0  0  0  0  0  0  0
   47.5207   32.7952   20.9124 H   0  0  0  0  0  0  0  0  0  0  0  0
   45.3228   33.8928   23.5567 H   0  0  0  0  0  0  0  0  0  0  0  0
   48.7754   33.0953   24.8605 H   0  0  0  0  0  0  0  0  0  0  0  0
   46.5472   34.4115   27.6648 H   0  0  0  0  0  0  0  0  0  0  0  0
   49.8804   33.0300   28.7978 H   0  0  0  0  0  0  0  0  0  0  0  0
   47.6292   34.5291   31.4603 H   0  0  0  0  0  0  0  0  0  0  0  0
   50.9556   32.8650   32.6463 H   0  0  0  0  0  0  0  0  0  0  0  0
   52.2845   33.3321   35.5018 H   0  0  0  0  0  0  0  0  0  0  0  0
   52.9862   35.3080   32.1550 H   0  0  0  0  0  0  0  0  0  0  0  0
   55.1843   37.3786   31.6246 H   0  0  0  0  0  0  0  0  0  0  0  0
   53.8062   40.0576   31.1412 H   0  0  0  0  0  0  0  0  0  0  0  0
   53.4506   40.4492   28.0304 H   0  0  0  0  0  0  0  0  0  0  0  0
   56.2821   41.0036   29.3486 H   0  0  0  0  0  0  0  0  0  0  0  0
  1  2  1  0  0  0  0
  1 82  1  0  0  0  0
  2  3  1  0  0  0  0
  2 83  1  0  0  0  0
  3  4  1  0  0  0  0
  3 84  1  0  0  0  0
  3 85  1  0  0  0  0
  4  5  1  0  0  0  0
  4 86  1  0  0  0  0
  4 87  1  0  0  0  0
  5  6  1  0  0  0  0
  5 88  1  0  0  0  0
  5 89  1  0  0  0  0
  6  7  1  0  0  0  0
  6 90  1  0  0  0  0
  7  8  1  0  0  0  0
  7 91  1  0  0  0  0
  8  9  1  0  0  0  0
  8 92  1  0  0  0  0
  9 10  1  0  0  0  0
  9 93  1  0  0  0  0
 10 11  1  0  0  0  0
 10 94  1  0  0  0  0
 11 12  1  0  0  0  0
 11 95  1  0  0  0  0
 12 13  1  0  0  0  0
 12 96  1  0  0  0  0
 13 14  1  0  0  0  0
 13 97  1  0  0  0  0
 14 15  1  0  0  0  0
 14 98  1  0  0  0  0
 15 16  1  0  0  0  0
 15 99  1  0  0  0  0
 16 17  1  0  0  0  0
 16100  1  0  0  0  0
 17 18  1  0  0  0  0
 17101  1  0  0  0  0
 18 19  1  0  0  0  0
 18102  1  0  0  0  0
 19 20  1  0  0  0  0
 19103  1  0  0  0  0
 20 21  1  0  0  0  0
 20104  1  0  0  0  0
 21 22  1  0  0  0  0
 21105  1  0  0  0  0
 22 23  1  0  0  0  0
 22106  1  0  0  0  0
 23 24  1  0  0  0  0
 23107  1  0  0  0  0
 24 25  1  0  0  0  0
 24108  1  0  0  0  0
 25 26  1  0  0  0  0
 26 27  1  0  0  0  0
 26109  1  0  0  0  0
 27 28  1  0  0  0  0
 28 29  1  0  0  0  0
 28110  1  0  0  0  0
 29 30  1  0  0  0  0
 30 31  1  0  0  0  0
 30111  1  0  0  0  0
 31 32  1  0  0  0  0
 32 33  1  0  0  0  0
 32112  1  0  0  0  0
 33 34  1  0  0  0  0
 34 35  1  0  0  0  0
 34113  1  0  0  0  0
 35 36  1  0  0  0  0
 36 37  1  0  0  0  0
 36114  1  0  0  0  0
 37 38  1  0  0  0  0
 38 39  1  0  0  0  0
 38115  1  0  0  0  0
 39 40  1  0  0  0  0
 40 41  1  0  0  0  0
 40116  1  0  0  0  0
 41 42  1  0  0  0  0
 42 43  1  0  0  0  0
 42117  1  0  0  0  0
 43 44  1  0  0  0  0
 44 45  1  0  0  0  0
 44118  1  0  0  0  0
 45 46  1  0  0  0  0
 46 47  1  0  0  0  0
 46119  1  0  0  0  0
 47 48  1  0  0  0  0
 48 49  1  0  0  0  0
 48120  1  0  0  0  0
 49 50  1  0  0  0  0
 50 51  1  0  0  0  0
 50121  1  0  0  0  0
 51 52  1  0  0  0  0
 52 53  1  0  0  0  0
 52122  1  0  0  0  0
 53 54  1  0  0  0  0
 54 55  1  0  0  0  0
 54123  1  0  0  0  0
 55 56  1  0  0  0  0
 56 57  1  0  0  0  0
 56124  1  0  0  0  0
 57 58  1  0  0  0  0
 58 59  1  0  0  0  0
 58125  1  0  0  0  0
 59 60  1  0  0  0  0
 60 61  1  0  0  0  0
 60126  1  0  0  0  0
 61 62  1  0  0  0  0
 62 63  1  0  0  0  0
 62127  1  0  0  0  0
 63 64  1  0  0  0  0
 64 65  1  0  0  0  0
 64128  1  0  0  0  0
 65 66  1  0  0  0  0
 66 67  1  0  0  0  0
 66129  1  0  0  0  0
 67 68  1  0  0  0  0
 68 69  1  0  0  0  0
 68130  1  0  0  0  0
 69 70  1  0  0  0  0
 70 71  1  0  0  0  0
 70131  1  0  0  0  0
 71 72  1  0  0  0  0
 72 73  1  0  0  0  0
 72132  1  0  0  0  0
 73 74  1  0  0  0  0
 74 75  1  0  0  0  0
 74133  1  0  0  0  0
 75 76  1  0  0  0  0
 76 77  1  0  0  0  0
 76134  1  0  0  0  0
 77 78  1  0  0  0  0
 78 79  1  0  0  0  0
 78135  1  0  0  0  0
 79 80  1  0  0  0  0
 80 81  1  0  0  0  0
 80136  1  0  0  0  0
 81137  1  0  0  0  0
M  END
$$$$
