
 OpenBabel04232216473D

 61 61  0  0  0  0  0  0  0  0999 V2000
    7.3201    1.0921    1.5009 C   0  0  0  0  0  0  0  0  0  0  0  0
    7.7672    2.6936    1.3348 C   0  0  0  0  0  0  0  0  0  0  0  0
    6.5882    3.2761    0.9498 C   0  0  0  0  0  0  0  0  0  0  0  0
    5.6749    2.5994   -0.1607 C   0  0  0  0  0  0  0  0  0  0  0  0
    5.2434    3.4537   -1.1165 C   0  0  0  0  0  0  0  0  0  0  0  0
    4.0819    4.3577   -0.8203 C   0  0  0  0  0  0  0  0  0  0  0  0
    6.4575    4.1065   -1.7247 C   0  0  0  0  0  0  0  0  0  0  0  0
    6.6850    5.3994   -1.0040 C   0  0  0  0  0  3  0  0  0  0  0  0
    8.0528    5.5585   -0.5278 C   0  0  0  0  0  0  0  0  0  0  0  0
    8.6267    6.7829   -1.1581 C   0  0  0  0  0  0  0  0  0  0  0  0
   10.0573    6.4739   -1.1952 C   0  0  0  0  0  0  0  0  0  0  0  0
   11.0752    7.1286   -2.0444 C   0  0  0  0  0  0  0  0  0  0  0  0
   11.0434    8.2913   -2.3606 O   0  0  0  0  0  0  0  0  0  0  0  0
   12.2151    6.2974   -2.0812 N   0  0  0  0  0  0  0  0  0  0  0  0
   13.1182    6.4974   -0.9703 C   0  0  0  0  0  0  0  0  0  0  0  0
   12.9576    5.5416    0.2938 C   0  0  0  0  0  0  0  0  0  0  0  0
   11.5654    5.5972    1.0192 N   0  0  0  0  0  0  0  0  0  0  0  0
   11.5748    7.1958    1.6684 C   0  0  0  0  0  0  0  0  0  0  0  0
   12.9693    8.2668    1.4183 C   0  0  0  0  0  0  0  0  0  0  0  0
   14.0771    7.9281    1.8805 O   0  0  0  0  0  0  0  0  0  0  0  0
   13.0151    9.6914    0.5469 C   0  0  0  0  0  0  0  0  0  0  0  0
   11.8576   10.6695    0.7029 C   0  0  0  0  0  0  0  0  0  0  0  0
   11.8373   12.1008    0.0752 C   0  0  0  0  0  0  0  0  0  0  0  0
   10.4158   12.6359    0.3241 C   0  0  0  0  0  0  0  0  0  0  0  0
   10.5993    4.2468    1.0451 C   0  0  0  0  0  0  0  0  0  0  0  0
    9.4122    3.2908    1.1284 C   0  0  0  0  0  0  0  0  0  0  0  0
    6.2035    0.9718    1.3981 H   0  0  0  0  0  0  0  0  0  0  0  0
    7.4090    0.6490    2.4967 H   0  0  0  0  0  0  0  0  0  0  0  0
    7.6520    0.4213    0.6938 H   0  0  0  0  0  0  0  0  0  0  0  0
    5.7891    3.1660    1.7165 H   0  0  0  0  0  0  0  0  0  0  0  0
    6.1876    1.7365   -0.6196 H   0  0  0  0  0  0  0  0  0  0  0  0
    3.1454    3.7974   -0.8706 H   0  0  0  0  0  0  0  0  0  0  0  0
    4.0058    5.1870   -1.5352 H   0  0  0  0  0  0  0  0  0  0  0  0
    4.1626    4.7749    0.1904 H   0  0  0  0  0  0  0  0  0  0  0  0
    6.5230    4.1655   -2.8111 H   0  0  0  0  0  0  0  0  0  0  0  0
    7.3119    3.4343   -1.5093 H   0  0  0  0  0  0  0  0  0  0  0  0
    5.9724    5.8036   -0.2874 H   0  0  0  0  0  0  0  0  0  0  0  0
    8.6070    4.6661   -0.8372 H   0  0  0  0  0  0  0  0  0  0  0  0
    8.0982    5.5840    0.5673 H   0  0  0  0  0  0  0  0  0  0  0  0
    8.4106    7.6446   -0.5012 H   0  0  0  0  0  0  0  0  0  0  0  0
    8.2472    6.9940   -2.1541 H   0  0  0  0  0  0  0  0  0  0  0  0
   10.2414    5.3565   -1.3427 H   0  0  0  0  0  0  0  0  0  0  0  0
   10.3705    6.7713   -0.2272 H   0  0  0  0  0  0  0  0  0  0  0  0
   11.9687    5.3193   -2.1435 H   0  0  0  0  0  0  0  0  0  0  0  0
   12.9656    7.5280   -0.6855 H   0  0  0  0  0  0  0  0  0  0  0  0
   14.1308    6.4596   -1.3804 H   0  0  0  0  0  0  0  0  0  0  0  0
   13.2823    4.5255    0.0544 H   0  0  0  0  0  0  0  0  0  0  0  0
   13.7088    5.8791    1.0220 H   0  0  0  0  0  0  0  0  0  0  0  0
   11.6278    7.0394    2.7488 H   0  0  0  0  0  0  0  0  0  0  0  0
   10.6710    7.7445    1.4098 H   0  0  0  0  0  0  0  0  0  0  0  0
   13.2348    9.5184   -0.5167 H   0  0  0  0  0  0  0  0  0  0  0  0
   13.9229   10.2320    0.8852 H   0  0  0  0  0  0  0  0  0  0  0  0
   11.7298   10.8226    1.7758 H   0  0  0  0  0  0  0  0  0  0  0  0
   10.9886   10.1485    0.3051 H   0  0  0  0  0  0  0  0  0  0  0  0
   12.0399   12.1220   -1.0042 H   0  0  0  0  0  0  0  0  0  0  0  0
   12.5538   12.7914    0.5447 H   0  0  0  0  0  0  0  0  0  0  0  0
    9.6844   11.9799   -0.1620 H   0  0  0  0  0  0  0  0  0  0  0  0
   10.2533   13.6518   -0.0482 H   0  0  0  0  0  0  0  0  0  0  0  0
   10.1992   12.6318    1.3989 H   0  0  0  0  0  0  0  0  0  0  0  0
   11.3919    3.6018    0.6901 H   0  0  0  0  0  0  0  0  0  0  0  0
    9.7891    2.2981    0.8414 H   0  0  0  0  0  0  0  0  0  0  0  0
  1  2  1  0  0  0  0
  1 27  1  0  0  0  0
  1 28  1  0  0  0  0
  1 29  1  0  0  0  0
  2  3  2  3  0  0  0
  2 26  1  0  0  0  0
  3  4  1  0  0  0  0
  3 30  1  0  0  0  0
  4  5  2  3  0  0  0
  4 31  1  0  0  0  0
  5  6  1  0  0  0  0
  5  7  1  0  0  0  0
  6 32  1  0  0  0  0
  6 33  1  0  0  0  0
  6 34  1  0  0  0  0
  7  8  1  0  0  0  0
  7 35  1  0  0  0  0
  7 36  1  0  0  0  0
  8  9  1  0  0  0  0
  8 37  1  0  0  0  0
  9 10  1  0  0  0  0
  9 38  1  0  0  0  0
  9 39  1  0  0  0  0
 10 11  1  0  0  0  0
 10 40  1  0  0  0  0
 10 41  1  0  0  0  0
 11 12  1  0  0  0  0
 11 42  1  0  0  0  0
 11 43  1  0  0  0  0
 12 13  2  0  0  0  0
 12 14  1  0  0  0  0
 14 15  1  0  0  0  0
 14 44  1  0  0  0  0
 15 16  1  0  0  0  0
 15 45  1  0  0  0  0
 15 46  1  0  0  0  0
 16 17  1  0  0  0  0
 16 47  1  0  0  0  0
 16 48  1  0  0  0  0
 17 18  1  0  0  0  0
 17 25  1  0  0  0  0
 18 19  1  0  0  0  0
 18 49  1  0  0  0  0
 18 50  1  0  0  0  0
 19 20  2  0  0  0  0
 19 21  1  0  0  0  0
 21 22  1  0  0  0  0
 21 51  1  0  0  0  0
 21 52  1  0  0  0  0
 22 23  1  0  0  0  0
 22 53  1  0  0  0  0
 22 54  1  0  0  0  0
 23 24  1  0  0  0  0
 23 55  1  0  0  0  0
 23 56  1  0  0  0  0
 24 57  1  0  0  0  0
 24 58  1  0  0  0  0
 24 59  1  0  0  0  0
 25 26  2  3  0  0  0
 25 60  1  0  0  0  0
 26 61  1  0  0  0  0
M  END
$$$$
