
 OpenBabel04232216523D

 65 66  0  0  0  0  0  0  0  0999 V2000
    3.5484    1.8022   -1.1850 C   0  0  0  0  0  0  0  0  0  0  0  0
    4.9208    1.1911   -1.7507 C   0  0  0  0  0  0  0  0  0  0  0  0
    5.9809    1.6474   -3.1362 C   0  0  0  0  0  0  0  0  0  0  0  0
    7.5492    2.5680   -3.2799 C   0  0  0  0  0  0  0  0  0  0  0  0
    7.5646    3.3232   -2.1959 C   0  0  0  0  0  0  0  0  0  0  0  0
    8.6610    3.4440   -1.3182 C   0  0  0  0  0  0  0  0  0  0  0  0
    8.5226    2.2510   -0.3567 C   0  0  0  0  0  0  0  0  0  0  0  0
    8.9206    0.8113   -0.7905 C   0  0  0  0  0  0  0  0  0  0  0  0
   10.4307    0.6410   -0.9202 C   0  0  0  0  0  0  0  0  0  0  0  0
   11.1036    1.1094    0.3749 C   0  0  0  0  0  0  0  0  0  0  0  0
    9.4921    4.4839   -1.5061 C   0  0  0  0  0  0  0  0  0  0  0  0
   10.9067    4.5792   -1.2933 N   0  0  0  0  0  0  0  0  0  0  0  0
   11.6883    5.4605   -2.1718 C   0  0  0  0  0  0  0  0  0  0  0  0
   11.5303    6.6922   -2.2268 O   0  0  0  0  0  0  0  0  0  0  0  0
   12.3164    4.7402   -3.3817 C   0  0  0  0  0  0  0  0  0  0  0  0
   11.1470    4.1108   -3.8255 C   0  0  0  0  0  0  0  0  0  0  0  0
   10.3629    3.1564   -4.6551 C   0  0  0  0  0  0  0  0  0  0  0  0
   11.0635    3.2218   -6.0329 N   0  0  0  0  0  0  0  0  0  0  0  0
   12.5208    3.9043   -6.2474 C   0  0  0  0  0  0  0  0  0  0  0  0
   13.1716    4.8917   -7.3595 C   0  0  0  0  0  0  0  0  0  0  0  0
   14.6795    5.2472   -6.9218 C   0  0  0  0  0  0  0  0  0  0  0  0
   15.8065    6.0566   -7.6295 C   0  0  0  0  0  0  0  0  0  0  0  0
   16.9735    6.2649   -6.6115 C   0  0  0  0  0  0  0  0  0  0  0  0
   16.4699    6.6211   -5.1467 C   0  0  0  0  0  0  0  0  0  0  0  0
   15.6484    5.5945   -4.0692 C   0  0  0  0  0  0  0  0  0  0  0  0
   14.0797    4.7260   -3.6493 C   0  0  0  0  0  0  0  0  0  0  0  0
    8.9816    2.5235   -4.3167 C   0  0  0  0  0  0  0  0  0  0  0  0
    3.0018    1.0173   -0.6068 H   0  0  0  0  0  0  0  0  0  0  0  0
    2.8060    2.1115   -1.9311 H   0  0  0  0  0  0  0  0  0  0  0  0
    3.6634    2.5957   -0.4326 H   0  0  0  0  0  0  0  0  0  0  0  0
    4.5245    0.2047   -2.0739 H   0  0  0  0  0  0  0  0  0  0  0  0
    5.5234    0.9535   -0.8672 H   0  0  0  0  0  0  0  0  0  0  0  0
    5.2719    2.1035   -3.8409 H   0  0  0  0  0  0  0  0  0  0  0  0
    6.2337    0.6355   -3.5066 H   0  0  0  0  0  0  0  0  0  0  0  0
    6.5615    3.5221   -1.7021 H   0  0  0  0  0  0  0  0  0  0  0  0
    7.3992    2.0945   -0.2018 H   0  0  0  0  0  0  0  0  0  0  0  0
    8.8159    2.4944    0.6813 H   0  0  0  0  0  0  0  0  0  0  0  0
    8.4537    0.4779   -1.7275 H   0  0  0  0  0  0  0  0  0  0  0  0
    8.5390    0.0924   -0.0397 H   0  0  0  0  0  0  0  0  0  0  0  0
   10.8081    1.2191   -1.7646 H   0  0  0  0  0  0  0  0  0  0  0  0
   10.6664   -0.4156   -1.0605 H   0  0  0  0  0  0  0  0  0  0  0  0
   10.8216    2.1336    0.6540 H   0  0  0  0  0  0  0  0  0  0  0  0
   12.1907    1.1087    0.2644 H   0  0  0  0  0  0  0  0  0  0  0  0
   10.8412    0.4622    1.2281 H   0  0  0  0  0  0  0  0  0  0  0  0
    9.1028    5.2832   -2.2173 H   0  0  0  0  0  0  0  0  0  0  0  0
   11.3467    3.6971   -1.1623 H   0  0  0  0  0  0  0  0  0  0  0  0
   10.2843    4.8297   -3.7068 H   0  0  0  0  0  0  0  0  0  0  0  0
   10.3865    3.6786   -6.6578 H   0  0  0  0  0  0  0  0  0  0  0  0
   13.2508    3.1189   -6.0156 H   0  0  0  0  0  0  0  0  0  0  0  0
   12.5303    4.6649   -5.5003 H   0  0  0  0  0  0  0  0  0  0  0  0
   12.6446    5.8586   -7.3120 H   0  0  0  0  0  0  0  0  0  0  0  0
   13.1392    4.5293   -8.3840 H   0  0  0  0  0  0  0  0  0  0  0  0
   15.1733    4.3315   -6.5765 H   0  0  0  0  0  0  0  0  0  0  0  0
   14.4794    5.8920   -6.0674 H   0  0  0  0  0  0  0  0  0  0  0  0
   15.4845    7.0650   -7.9197 H   0  0  0  0  0  0  0  0  0  0  0  0
   16.2071    5.5849   -8.5389 H   0  0  0  0  0  0  0  0  0  0  0  0
   17.6001    7.1060   -6.9965 H   0  0  0  0  0  0  0  0  0  0  0  0
   17.7090    5.4404   -6.6115 H   0  0  0  0  0  0  0  0  0  0  0  0
   17.4427    6.8209   -4.6417 H   0  0  0  0  0  0  0  0  0  0  0  0
   16.0086    7.6139   -5.1972 H   0  0  0  0  0  0  0  0  0  0  0  0
   15.9562    6.0280   -3.1059 H   0  0  0  0  0  0  0  0  0  0  0  0
   16.3032    4.7127   -4.1962 H   0  0  0  0  0  0  0  0  0  0  0  0
   14.3845    4.4799   -2.6214 H   0  0  0  0  0  0  0  0  0  0  0  0
   14.2414    3.7977   -4.2109 H   0  0  0  0  0  0  0  0  0  0  0  0
    8.7700    1.6609   -4.9646 H   0  0  0  0  0  0  0  0  0  0  0  0
  1  2  1  0  0  0  0
  1 28  1  0  0  0  0
  1 29  1  0  0  0  0
  1 30  1  0  0  0  0
  2  3  1  0  0  0  0
  2 31  1  0  0  0  0
  2 32  1  0  0  0  0
  3  4  1  0  0  0  0
  3 33  1  0  0  0  0
  3 34  1  0  0  0  0
  4  5  2  0  0  0  0
  4 27  1  0  0  0  0
  5  6  1  0  0  0  0
  5 35  1  0  0  0  0
  6  7  1  0  0  0  0
  6 11  2  0  0  0  0
  7  8  1  0  0  0  0
  7 36  1  0  0  0  0
  7 37  1  0  0  0  0
  8  9  1  0  0  0  0
  8 38  1  0  0  0  0
  8 39  1  0  0  0  0
  9 10  1  0  0  0  0
  9 40  1  0  0  0  0
  9 41  1  0  0  0  0
 10 42  1  0  0  0  0
 10 43  1  0  0  0  0
 10 44  1  0  0  0  0
 11 12  1  0  0  0  0
 11 45  1  0  0  0  0
 12 13  1  0  0  0  0
 12 46  1  0  0  0  0
 13 14  2  0  0  0  0
 13 15  1  0  0  0  0
 15 16  2  0  0  0  0
 15 26  1  0  0  0  0
 16 17  1  0  0  0  0
 16 47  1  0  0  0  0
 17 18  1  0  0  0  0
 17 27  2  0  0  0  0
 18 19  1  0  0  0  0
 18 48  1  0  0  0  0
 19 20  1  0  0  0  0
 19 49  1  0  0  0  0
 19 50  1  0  0  0  0
 20 21  1  0  0  0  0
 20 51  1  0  0  0  0
 20 52  1  0  0  0  0
 21 22  1  0  0  0  0
 21 53  1  0  0  0  0
 21 54  1  0  0  0  0
 22 23  1  0  0  0  0
 22 55  1  0  0  0  0
 22 56  1  0  0  0  0
 23 24  1  0  0  0  0
 23 57  1  0  0  0  0
 23 58  1  0  0  0  0
 24 25  1  0  0  0  0
 24 59  1  0  0  0  0
 24 60  1  0  0  0  0
 25 26  1  0  0  0  0
 25 61  1  0  0  0  0
 25 62  1  0  0  0  0
 26 63  1  0  0  0  0
 26 64  1  0  0  0  0
 27 65  1  0  0  0  0
M  END
$$$$
