
 OpenBabel04232216463D

 61 63  0  0  1  0  0  0  0  0999 V2000
    3.7642   -3.3779   -0.9010 C   0  0  0  0  0  0  0  0  0  0  0  0
    4.7989   -3.2643    0.2395 C   0  0  0  0  0  0  0  0  0  0  0  0
    4.4729   -1.9787    0.9254 C   0  0  0  0  0  0  0  0  0  0  0  0
    5.4117   -1.0752    1.2987 C   0  0  0  0  0  0  0  0  0  0  0  0
    5.8362    0.0641    0.2378 C   0  0  3  0  0  0  0  0  0  0  0  0
    6.4786    1.3319    0.8527 C   0  0  0  0  0  0  0  0  0  0  0  0
    7.0418    2.4160   -0.0752 C   0  0  0  0  0  0  0  0  0  0  0  0
    6.0384    3.1720   -0.9374 C   0  0  0  0  0  0  0  0  0  0  0  0
    5.3328    2.3840   -2.0330 C   0  0  0  0  0  0  0  0  0  0  0  0
    6.2604    1.5090   -2.8515 C   0  0  0  0  0  0  0  0  0  0  0  0
    6.7571    0.2263   -2.2587 C   0  0  0  0  0  0  0  0  0  0  0  0
    6.5950   -0.4255   -1.0781 C   0  0  0  0  0  0  0  0  0  0  0  0
    7.1060   -1.8053   -1.0894 C   0  0  0  0  0  0  0  0  0  0  0  0
    6.8052   -2.6779   -2.0789 C   0  0  0  0  0  0  0  0  0  0  0  0
    6.7308   -4.1309   -1.9779 C   0  0  0  0  0  0  0  0  0  0  0  0
    6.2155   -4.8034   -0.9262 C   0  0  0  0  0  0  0  0  0  0  0  0
    5.7543   -1.2592    2.7509 C   0  0  0  0  0  0  0  0  0  0  0  0
    4.8005   -2.2183    3.5466 C   0  0  0  0  0  0  0  0  0  0  0  0
    4.6072   -2.1865    5.0781 C   0  0  0  0  0  0  0  0  0  0  0  0
    3.8229   -1.0043    5.6333 C   0  0  0  0  0  0  0  0  0  0  0  0
    2.3968   -0.9107    5.1017 C   0  0  0  0  0  0  0  0  0  0  0  0
    7.0204   -0.9923    3.1804 C   0  0  0  0  0  0  0  0  0  0  0  0
    7.7445   -2.1091    3.8191 C   0  0  0  0  0  0  0  0  0  0  0  0
    8.2232   -2.9760    2.9018 C   0  0  0  0  0  0  0  0  0  0  0  0
    7.2877   -4.1038    2.5729 C   0  0  0  0  0  0  0  0  0  0  0  0
    7.0332   -4.2405    1.2653 C   0  0  0  0  0  0  0  0  0  0  0  0
    5.8698   -4.1251    0.3509 C   0  0  0  0  0  0  0  0  0  0  0  0
    3.7069   -2.4365   -1.4680 H   0  0  0  0  0  0  0  0  0  0  0  0
    2.7717   -3.5845   -0.4847 H   0  0  0  0  0  0  0  0  0  0  0  0
    3.9681   -4.1555   -1.6373 H   0  0  0  0  0  0  0  0  0  0  0  0
    3.6304   -1.5042    0.4132 H   0  0  0  0  0  0  0  0  0  0  0  0
    4.8590    0.4000   -0.1377 H   0  0  0  0  0  0  0  0  0  0  0  0
    7.3394    1.0568    1.4577 H   0  0  0  0  0  0  0  0  0  0  0  0
    5.7561    1.7969    1.5379 H   0  0  0  0  0  0  0  0  0  0  0  0
    7.8592    2.0119   -0.6831 H   0  0  0  0  0  0  0  0  0  0  0  0
    7.5341    3.1618    0.5641 H   0  0  0  0  0  0  0  0  0  0  0  0
    6.5860    3.9915   -1.4232 H   0  0  0  0  0  0  0  0  0  0  0  0
    5.2859    3.6462   -0.3011 H   0  0  0  0  0  0  0  0  0  0  0  0
    4.8718    3.1115   -2.7155 H   0  0  0  0  0  0  0  0  0  0  0  0
    4.4988    1.8011   -1.6340 H   0  0  0  0  0  0  0  0  0  0  0  0
    7.1256    2.0965   -3.1875 H   0  0  0  0  0  0  0  0  0  0  0  0
    5.7252    1.2297   -3.7717 H   0  0  0  0  0  0  0  0  0  0  0  0
    7.3742   -0.2741   -3.0122 H   0  0  0  0  0  0  0  0  0  0  0  0
    7.5089   -2.1269   -0.1392 H   0  0  0  0  0  0  0  0  0  0  0  0
    6.4054   -2.3147   -3.0241 H   0  0  0  0  0  0  0  0  0  0  0  0
    6.9265   -4.6828   -2.8941 H   0  0  0  0  0  0  0  0  0  0  0  0
    6.1322   -5.8857   -0.9312 H   0  0  0  0  0  0  0  0  0  0  0  0
    5.0621   -3.2547    3.3038 H   0  0  0  0  0  0  0  0  0  0  0  0
    3.7751   -2.1206    3.1496 H   0  0  0  0  0  0  0  0  0  0  0  0
    5.5473   -2.2729    5.6139 H   0  0  0  0  0  0  0  0  0  0  0  0
    4.0498   -3.1132    5.3503 H   0  0  0  0  0  0  0  0  0  0  0  0
    4.3627   -0.0771    5.4127 H   0  0  0  0  0  0  0  0  0  0  0  0
    3.7747   -1.1077    6.7218 H   0  0  0  0  0  0  0  0  0  0  0  0
    2.3745   -0.7485    4.0190 H   0  0  0  0  0  0  0  0  0  0  0  0
    1.8828   -0.0679    5.5684 H   0  0  0  0  0  0  0  0  0  0  0  0
    1.8303   -1.8223    5.3227 H   0  0  0  0  0  0  0  0  0  0  0  0
    7.7102   -0.3906    2.6052 H   0  0  0  0  0  0  0  0  0  0  0  0
    7.2606   -2.5413    4.6846 H   0  0  0  0  0  0  0  0  0  0  0  0
    8.6832   -2.5374    2.0059 H   0  0  0  0  0  0  0  0  0  0  0  0
    7.8686   -4.9309    3.0231 H   0  0  0  0  0  0  0  0  0  0  0  0
    7.9493   -4.2471    0.6647 H   0  0  0  0  0  0  0  0  0  0  0  0
  1  2  1  0  0  0  0
  1 28  1  0  0  0  0
  1 29  1  0  0  0  0
  1 30  1  0  0  0  0
  2  3  1  0  0  0  0
  2 27  2  0  0  0  0
  3  4  2  0  0  0  0
  3 31  1  0  0  0  0
  4  5  1  0  0  0  0
  4 17  1  0  0  0  0
  5  6  1  0  0  0  0
  5 12  1  0  0  0  0
  5 32  1  0  0  0  0
  6  7  1  0  0  0  0
  6 33  1  0  0  0  0
  6 34  1  0  0  0  0
  7  8  1  0  0  0  0
  7 35  1  0  0  0  0
  7 36  1  0  0  0  0
  8  9  1  0  0  0  0
  8 37  1  0  0  0  0
  8 38  1  0  0  0  0
  9 10  1  0  0  0  0
  9 39  1  0  0  0  0
  9 40  1  0  0  0  0
 10 11  1  0  0  0  0
 10 41  1  0  0  0  0
 10 42  1  0  0  0  0
 11 12  2  0  0  0  0
 11 43  1  0  0  0  0
 12 13  1  0  0  0  0
 13 14  2  3  0  0  0
 13 44  1  0  0  0  0
 14 15  1  0  0  0  0
 14 45  1  0  0  0  0
 15 16  2  3  0  0  0
 15 46  1  0  0  0  0
 16 27  1  0  0  0  0
 16 47  1  0  0  0  0
 17 18  1  0  0  0  0
 17 22  2  0  0  0  0
 18 19  1  0  0  0  0
 18 48  1  0  0  0  0
 18 49  1  0  0  0  0
 19 20  1  0  0  0  0
 19 50  1  0  0  0  0
 19 51  1  0  0  0  0
 20 21  1  0  0  0  0
 20 52  1  0  0  0  0
 20 53  1  0  0  0  0
 21 54  1  0  0  0  0
 21 55  1  0  0  0  0
 21 56  1  0  0  0  0
 22 23  1  0  0  0  0
 22 57  1  0  0  0  0
 23 24  2  0  0  0  0
 23 58  1  0  0  0  0
 24 25  1  0  0  0  0
 24 59  1  0  0  0  0
 25 26  2  0  0  0  0
 25 60  1  0  0  0  0
 26 27  1  0  0  0  0
 26 61  1  0  0  0  0
M  END
$$$$
