
 OpenBabel04232217013D

 44 45  0  0  0  0  0  0  0  0999 V2000
    5.5460   -1.4957   -1.5640 O   0  0  0  0  0  0  0  0  0  0  0  0
    5.9444   -2.2660   -0.4404 N   0  0  0  0  0  0  0  0  0  0  0  0
    4.8897   -2.2925    0.5275 C   0  0  0  0  0  0  0  0  0  0  0  0
    3.3820   -2.5073    0.1214 C   0  0  0  0  0  0  0  0  0  0  0  0
    2.7773   -3.5851   -0.7926 C   0  0  0  0  0  0  0  0  0  0  0  0
    3.3405   -4.9786   -0.6571 C   0  0  0  0  0  0  0  0  0  0  0  0
    4.9806   -1.6284    1.7095 C   0  0  0  0  0  0  0  0  0  0  0  0
    4.6600   -2.4075    2.9219 C   0  0  0  0  0  0  0  0  0  0  0  0
    5.7847   -2.8332    3.5515 C   0  0  0  0  0  0  0  0  0  0  0  0
    6.7191   -1.8527    3.7354 F   0  0  0  0  0  0  0  0  0  0  0  0
    6.3279   -4.1331    3.0876 C   0  0  0  0  0  0  0  0  0  0  0  0
    5.4741   -5.3028    2.7203 C   0  0  0  0  0  0  0  0  0  0  0  0
    7.5894   -4.0565    2.6080 C   0  0  0  0  0  0  0  0  0  0  0  0
    8.4393   -3.0942    2.9953 F   0  0  0  0  0  0  0  0  0  0  0  0
    7.9974   -4.8672    1.4975 C   0  0  0  0  0  0  0  0  0  0  0  0
    8.8376   -4.2461    0.6467 C   0  0  0  0  0  0  0  0  0  0  0  0
   10.2651   -4.7389    0.8315 C   0  0  0  0  0  0  0  0  0  0  0  0
   10.6640   -5.9868    1.6146 C   0  0  0  0  0  0  0  0  0  0  0  0
   11.2770   -3.8636    0.6052 C   0  0  0  0  0  0  0  0  0  0  0  0
   11.0289   -2.5067    0.1914 C   0  0  0  0  0  0  0  0  0  0  0  0
    9.7965   -1.9995    0.0083 C   0  0  0  0  0  0  0  0  0  0  0  0
    9.7091   -0.6991   -0.3395 F   0  0  0  0  0  0  0  0  0  0  0  0
    8.5433   -2.7995    0.1721 C   0  0  0  0  0  0  0  0  0  0  0  0
    7.3769   -2.1487   -0.1985 C   0  0  0  0  0  0  0  0  0  0  0  0
    5.1756   -0.6897   -1.1581 H   0  0  0  0  0  0  0  0  0  0  0  0
    3.0282   -1.5464   -0.2872 H   0  0  0  0  0  0  0  0  0  0  0  0
    2.7930   -2.6080    1.0456 H   0  0  0  0  0  0  0  0  0  0  0  0
    2.8086   -3.2600   -1.8380 H   0  0  0  0  0  0  0  0  0  0  0  0
    1.7006   -3.6484   -0.5530 H   0  0  0  0  0  0  0  0  0  0  0  0
    4.4165   -4.9832   -0.8338 H   0  0  0  0  0  0  0  0  0  0  0  0
    2.8683   -5.6360   -1.3977 H   0  0  0  0  0  0  0  0  0  0  0  0
    3.1299   -5.3967    0.3317 H   0  0  0  0  0  0  0  0  0  0  0  0
    5.7940   -0.9196    1.8561 H   0  0  0  0  0  0  0  0  0  0  0  0
    3.8714   -3.1376    2.7646 H   0  0  0  0  0  0  0  0  0  0  0  0
    4.4008   -5.1327    2.8265 H   0  0  0  0  0  0  0  0  0  0  0  0
    5.7414   -6.1388    3.3727 H   0  0  0  0  0  0  0  0  0  0  0  0
    5.6305   -5.6298    1.6869 H   0  0  0  0  0  0  0  0  0  0  0  0
    8.0959   -5.9090    1.7663 H   0  0  0  0  0  0  0  0  0  0  0  0
    9.8507   -6.5999    2.0032 H   0  0  0  0  0  0  0  0  0  0  0  0
   11.2398   -5.6967    2.5092 H   0  0  0  0  0  0  0  0  0  0  0  0
   11.2926   -6.6512    1.0188 H   0  0  0  0  0  0  0  0  0  0  0  0
   12.2915   -4.1242    0.8747 H   0  0  0  0  0  0  0  0  0  0  0  0
   11.9029   -1.8729    0.0808 H   0  0  0  0  0  0  0  0  0  0  0  0
    7.5629   -1.1242   -0.5277 H   0  0  0  0  0  0  0  0  0  0  0  0
  1  2  1  0  0  0  0
  1 25  1  0  0  0  0
  2  3  1  0  0  0  0
  2 24  1  0  0  0  0
  3  4  1  0  0  0  0
  3  7  2  3  0  0  0
  4  5  1  0  0  0  0
  4 26  1  0  0  0  0
  4 27  1  0  0  0  0
  5  6  1  0  0  0  0
  5 28  1  0  0  0  0
  5 29  1  0  0  0  0
  6 30  1  0  0  0  0
  6 31  1  0  0  0  0
  6 32  1  0  0  0  0
  7  8  1  0  0  0  0
  7 33  1  0  0  0  0
  8  9  2  3  0  0  0
  8 34  1  0  0  0  0
  9 10  1  0  0  0  0
  9 11  1  0  0  0  0
 11 12  1  0  0  0  0
 11 13  2  3  0  0  0
 12 35  1  0  0  0  0
 12 36  1  0  0  0  0
 12 37  1  0  0  0  0
 13 14  1  0  0  0  0
 13 15  1  0  0  0  0
 15 16  2  3  0  0  0
 15 38  1  0  0  0  0
 16 17  1  0  0  0  0
 16 23  1  0  0  0  0
 17 18  1  0  0  0  0
 17 19  2  0  0  0  0
 18 39  1  0  0  0  0
 18 40  1  0  0  0  0
 18 41  1  0  0  0  0
 19 20  1  0  0  0  0
 19 42  1  0  0  0  0
 20 21  2  0  0  0  0
 20 43  1  0  0  0  0
 21 22  1  0  0  0  0
 21 23  1  0  0  0  0
 23 24  2  3  0  0  0
 24 44  1  0  0  0  0
M  END
$$$$
