
 OpenBabel04232216593D

114113  0  0  0  0  0  0  0  0999 V2000
    6.1045   -5.6981    0.7553 O   0  0  0  0  0  0  0  0  0  0  0  0
    6.5907   -5.2607   -0.2513 C   0  0  0  0  0  0  0  0  0  0  0  0
    6.8914   -6.1648   -1.4484 C   0  0  0  0  0  0  0  0  0  0  0  0
    6.9436   -3.7909   -0.4238 C   0  0  0  0  0  0  0  0  0  0  0  0
    6.5943   -2.9987    0.8210 C   0  0  0  0  0  0  0  0  0  0  0  0
    6.9243   -1.6179    0.6014 O   0  0  0  0  0  0  0  0  0  0  0  0
    6.6312   -0.8736    1.7904 C   0  0  0  0  0  0  0  0  0  0  0  0
    7.3528   -1.3428    2.9273 O   0  0  0  0  0  0  0  0  0  0  0  0
    8.7490   -1.2636    2.6699 C   0  0  0  0  0  0  0  0  0  0  0  0
    9.4999   -1.8076    3.8585 C   0  0  0  0  0  0  0  0  0  0  0  0
   10.9918   -1.7062    3.6094 C   0  0  0  0  0  0  0  0  0  0  0  0
   11.7558   -2.2424    4.8027 C   0  0  0  0  0  0  0  0  0  0  0  0
   13.2471   -2.1369    4.5532 C   0  0  0  0  0  0  0  0  0  0  0  0
   14.0106   -2.6753    5.7469 C   0  0  0  0  0  0  0  0  0  0  0  0
   15.5018   -2.5680    5.4981 C   0  0  0  0  0  0  0  0  0  0  0  0
   16.2644   -3.1064    6.6916 C   0  0  0  0  0  0  0  0  0  0  0  0
   17.7543   -2.9970    6.4431 C   0  0  0  0  0  0  0  0  0  0  0  0
   18.5146   -3.5329    7.6361 C   0  0  0  0  0  0  0  0  0  0  0  0
   19.9980   -3.4188    7.3820 C   0  0  0  0  0  0  0  0  0  0  0  0
   20.7496   -3.9494    8.5680 C   0  0  0  0  0  0  0  0  0  0  0  0
   22.2086   -3.8316    8.3008 C   0  0  0  0  0  0  0  0  0  0  0  0
   22.7974   -4.3484    9.4520 O   0  0  0  0  0  0  0  0  0  0  0  0
   24.1631   -4.2207    9.1671 O   0  0  0  0  0  0  0  0  0  0  0  0
   24.8436   -4.7186   10.2711 O   0  0  0  0  0  0  0  0  0  0  0  0
   26.1948   -4.5953   10.0013 O   0  0  0  0  0  0  0  0  0  0  0  0
   26.8449   -5.0962   11.1122 O   0  0  0  0  0  0  0  0  0  0  0  0
   28.1782   -4.9735   10.8434 O   0  0  0  0  0  0  0  0  0  0  0  0
   28.8236   -5.4717   11.9482 O   0  0  0  0  0  0  0  0  0  0  0  0
   30.1576   -5.3461   11.6731 O   0  0  0  0  0  0  0  0  0  0  0  0
   30.7904   -5.8427   12.7744 O   0  0  0  0  0  0  0  0  0  0  0  0
   32.1196   -5.7166   12.4979 O   0  0  0  0  0  0  0  0  0  0  0  0
   32.7499   -6.2138   13.6005 O   0  0  0  0  0  0  0  0  0  0  0  0
   34.0782   -6.0861   13.3208 O   0  0  0  0  0  0  0  0  0  0  0  0
   34.7082   -6.5833   14.4232 O   0  0  0  0  0  0  0  0  0  0  0  0
   36.0364   -6.4558   14.1439 O   0  0  0  0  0  0  0  0  0  0  0  0
   36.6661   -6.9528   15.2461 O   0  0  0  0  0  0  0  0  0  0  0  0
   37.9942   -6.8254   14.9667 O   0  0  0  0  0  0  0  0  0  0  0  0
   38.6238   -7.3224   16.0688 O   0  0  0  0  0  0  0  0  0  0  0  0
   39.9519   -7.1949   15.7895 O   0  0  0  0  0  0  0  0  0  0  0  0
   40.5816   -7.6919   16.8916 O   0  0  0  0  0  0  0  0  0  0  0  0
   41.9097   -7.5644   16.6123 O   0  0  0  0  0  0  0  0  0  0  0  0
   42.5394   -8.0614   17.7144 O   0  0  0  0  0  0  0  0  0  0  0  0
   43.8675   -7.9339   17.4351 O   0  0  0  0  0  0  0  0  0  0  0  0
   44.4972   -8.4309   18.5372 O   0  0  0  0  0  0  0  0  0  0  0  0
   45.8253   -8.3035   18.2578 O   0  0  0  0  0  0  0  0  0  0  0  0
   46.4549   -8.8005   19.3600 O   0  0  0  0  0  0  0  0  0  0  0  0
   47.7830   -8.6730   19.0806 O   0  0  0  0  0  0  0  0  0  0  0  0
   48.4127   -9.1700   20.1827 O   0  0  0  0  0  0  0  0  0  0  0  0
   49.7408   -9.0425   19.9034 O   0  0  0  0  0  0  0  0  0  0  0  0
   50.3705   -9.5395   21.0055 O   0  0  0  0  0  0  0  0  0  0  0  0
   51.6986   -9.4120   20.7262 O   0  0  0  0  0  0  0  0  0  0  0  0
   52.3282   -9.9090   21.8283 O   0  0  0  0  0  0  0  0  0  0  0  0
   53.6564   -9.7816   21.5489 O   0  0  0  0  0  0  0  0  0  0  0  0
   54.2860  -10.2786   22.6511 O   0  0  0  0  0  0  0  0  0  0  0  0
   55.6141  -10.1511   22.3717 O   0  0  0  0  0  0  0  0  0  0  0  0
   56.2438  -10.6481   23.4738 O   0  0  0  0  0  0  0  0  0  0  0  0
   57.5719  -10.5206   23.1945 O   0  0  0  0  0  0  0  0  0  0  0  0
   58.2016  -11.0176   24.2966 O   0  0  0  0  0  0  0  0  0  0  0  0
   59.5297  -10.8901   24.0173 O   0  0  0  0  0  0  0  0  0  0  0  0
   60.1593  -11.3871   25.1194 O   0  0  0  0  0  0  0  0  0  0  0  0
   61.4875  -11.2596   24.8400 O   0  0  0  0  0  0  0  0  0  0  0  0
   62.1171  -11.7566   25.9422 O   0  0  0  0  0  0  0  0  0  0  0  0
   63.4452  -11.6292   25.6628 O   0  0  0  0  0  0  0  0  0  0  0  0
   64.0749  -12.1262   26.7649 O   0  0  0  0  0  0  0  0  0  0  0  0
   65.4030  -11.9987   26.4856 O   0  0  0  0  0  0  0  0  0  0  0  0
   66.0328  -12.4957   27.5877 O   0  0  0  0  0  0  0  0  0  0  0  0
   67.3616  -12.3682   27.3083 O   0  0  0  0  0  0  0  0  0  0  0  0
   67.9911  -12.8655   28.4111 O   0  0  0  0  0  0  0  0  0  0  0  0
   69.3203  -12.7381   28.1320 O   0  0  0  0  0  0  0  0  0  0  0  0
   69.9536  -13.2349   29.2337 O   0  0  0  0  0  0  0  0  0  0  0  0
   71.2839  -13.1089   28.9576 O   0  0  0  0  0  0  0  0  0  0  0  0
   71.9226  -13.6066   30.0612 O   0  0  0  0  0  0  0  0  0  0  0  0
   73.2656  -13.4858   29.7967 O   0  0  0  0  0  0  0  0  0  0  0  0
   73.9151  -13.9775   30.8872 O   0  0  0  0  0  0  0  0  0  0  0  0
   75.2746  -13.8559   30.6208 O   0  0  0  0  0  0  0  0  0  0  0  0
   75.9292  -14.3595   31.7376 O   0  0  0  0  0  0  0  0  0  0  0  0
   77.3099  -14.2568   31.5132 O   0  0  0  0  0  0  0  0  0  0  0  0
   77.9710  -14.7784   32.6699 O   0  0  0  0  0  0  0  0  0  0  0  0
    6.5987   -7.1886   -1.2131 H   0  0  0  0  0  0  0  0  0  0  0  0
    7.9588   -6.1506   -1.6753 H   0  0  0  0  0  0  0  0  0  0  0  0
    6.3292   -5.8340   -2.3237 H   0  0  0  0  0  0  0  0  0  0  0  0
    6.3939   -3.3857   -1.2796 H   0  0  0  0  0  0  0  0  0  0  0  0
    8.0149   -3.7003   -0.6325 H   0  0  0  0  0  0  0  0  0  0  0  0
    7.1573   -3.3828    1.6776 H   0  0  0  0  0  0  0  0  0  0  0  0
    5.5258   -3.0567    1.0367 H   0  0  0  0  0  0  0  0  0  0  0  0
    5.5573   -0.9408    1.9938 H   0  0  0  0  0  0  0  0  0  0  0  0
    6.8802    0.1783    1.6261 H   0  0  0  0  0  0  0  0  0  0  0  0
    9.0117   -0.2149    2.4973 H   0  0  0  0  0  0  0  0  0  0  0  0
    9.0141   -1.8441    1.7756 H   0  0  0  0  0  0  0  0  0  0  0  0
    9.2119   -2.8517    4.0367 H   0  0  0  0  0  0  0  0  0  0  0  0
    9.2216   -1.2450    4.7569 H   0  0  0  0  0  0  0  0  0  0  0  0
   11.2681   -0.6596    3.4312 H   0  0  0  0  0  0  0  0  0  0  0  0
   11.2593   -2.2759    2.7107 H   0  0  0  0  0  0  0  0  0  0  0  0
   11.4815   -3.2898    4.9796 H   0  0  0  0  0  0  0  0  0  0  0  0
   11.4882   -1.6731    5.7017 H   0  0  0  0  0  0  0  0  0  0  0  0
   13.5219   -1.0894    4.3779 H   0  0  0  0  0  0  0  0  0  0  0  0
   13.5150   -2.7050    3.6537 H   0  0  0  0  0  0  0  0  0  0  0  0
   13.7372   -3.7233    5.9214 H   0  0  0  0  0  0  0  0  0  0  0  0
   13.7420   -2.1082    6.6468 H   0  0  0  0  0  0  0  0  0  0  0  0
   15.7755   -1.5201    5.3237 H   0  0  0  0  0  0  0  0  0  0  0  0
   15.7707   -3.1352    4.5983 H   0  0  0  0  0  0  0  0  0  0  0  0
   15.9926   -4.1549    6.8654 H   0  0  0  0  0  0  0  0  0  0  0  0
   15.9953   -2.5403    7.5919 H   0  0  0  0  0  0  0  0  0  0  0  0
   18.0282   -1.9491    6.2687 H   0  0  0  0  0  0  0  0  0  0  0  0
   18.0260   -3.5646    5.5444 H   0  0  0  0  0  0  0  0  0  0  0  0
   18.2476   -4.5825    7.8122 H   0  0  0  0  0  0  0  0  0  0  0  0
   18.2477   -2.9673    8.5376 H   0  0  0  0  0  0  0  0  0  0  0  0
   20.2772   -2.3717    7.2110 H   0  0  0  0  0  0  0  0  0  0  0  0
   20.2775   -3.9889    6.4872 H   0  0  0  0  0  0  0  0  0  0  0  0
   20.4996   -5.0000    8.7665 H   0  0  0  0  0  0  0  0  0  0  0  0
   20.5014   -3.3957    9.4831 H   0  0  0  0  0  0  0  0  0  0  0  0
   22.5314   -2.7905    8.1678 H   0  0  0  0  0  0  0  0  0  0  0  0
   22.5293   -4.4259    7.4348 H   0  0  0  0  0  0  0  0  0  0  0  0
   78.8379  -14.6109   32.3011 H   0  0  0  0  0  0  0  0  0  0  0  0
  1  2  2  0  0  0  0
  2  3  1  0  0  0  0
  2  4  1  0  0  0  0
  3 79  1  0  0  0  0
  3 80  1  0  0  0  0
  3 81  1  0  0  0  0
  4  5  1  0  0  0  0
  4 82  1  0  0  0  0
  4 83  1  0  0  0  0
  5  6  1  0  0  0  0
  5 84  1  0  0  0  0
  5 85  1  0  0  0  0
  6  7  1  0  0  0  0
  7  8  1  0  0  0  0
  7 86  1  0  0  0  0
  7 87  1  0  0  0  0
  8  9  1  0  0  0  0
  9 10  1  0  0  0  0
  9 88  1  0  0  0  0
  9 89  1  0  0  0  0
 10 11  1  0  0  0  0
 10 90  1  0  0  0  0
 10 91  1  0  0  0  0
 11 12  1  0  0  0  0
 11 92  1  0  0  0  0
 11 93  1  0  0  0  0
 12 13  1  0  0  0  0
 12 94  1  0  0  0  0
 12 95  1  0  0  0  0
 13 14  1  0  0  0  0
 13 96  1  0  0  0  0
 13 97  1  0  0  0  0
 14 15  1  0  0  0  0
 14 98  1  0  0  0  0
 14 99  1  0  0  0  0
 15 16  1  0  0  0  0
 15100  1  0  0  0  0
 15101  1  0  0  0  0
 16 17  1  0  0  0  0
 16102  1  0  0  0  0
 16103  1  0  0  0  0
 17 18  1  0  0  0  0
 17104  1  0  0  0  0
 17105  1  0  0  0  0
 18 19  1  0  0  0  0
 18106  1  0  0  0  0
 18107  1  0  0  0  0
 19 20  1  0  0  0  0
 19108  1  0  0  0  0
 19109  1  0  0  0  0
 20 21  1  0  0  0  0
 20110  1  0  0  0  0
 20111  1  0  0  0  0
 21 22  1  0  0  0  0
 21112  1  0  0  0  0
 21113  1  0  0  0  0
 22 23  1  0  0  0  0
 23 24  1  0  0  0  0
 24 25  1  0  0  0  0
 25 26  1  0  0  0  0
 26 27  1  0  0  0  0
 27 28  1  0  0  0  0
 28 29  1  0  0  0  0
 29 30  1  0  0  0  0
 30 31  1  0  0  0  0
 31 32  1  0  0  0  0
 32 33  1  0  0  0  0
 33 34  1  0  0  0  0
 34 35  1  0  0  0  0
 35 36  1  0  0  0  0
 36 37  1  0  0  0  0
 37 38  1  0  0  0  0
 38 39  1  0  0  0  0
 39 40  1  0  0  0  0
 40 41  1  0  0  0  0
 41 42  1  0  0  0  0
 42 43  1  0  0  0  0
 43 44  1  0  0  0  0
 44 45  1  0  0  0  0
 45 46  1  0  0  0  0
 46 47  1  0  0  0  0
 47 48  1  0  0  0  0
 48 49  1  0  0  0  0
 49 50  1  0  0  0  0
 50 51  1  0  0  0  0
 51 52  1  0  0  0  0
 52 53  1  0  0  0  0
 53 54  1  0  0  0  0
 54 55  1  0  0  0  0
 55 56  1  0  0  0  0
 56 57  1  0  0  0  0
 57 58  1  0  0  0  0
 58 59  1  0  0  0  0
 59 60  1  0  0  0  0
 60 61  1  0  0  0  0
 61 62  1  0  0  0  0
 62 63  1  0  0  0  0
 63 64  1  0  0  0  0
 64 65  1  0  0  0  0
 65 66  1  0  0  0  0
 66 67  1  0  0  0  0
 67 68  1  0  0  0  0
 68 69  1  0  0  0  0
 69 70  1  0  0  0  0
 70 71  1  0  0  0  0
 71 72  1  0  0  0  0
 72 73  1  0  0  0  0
 73 74  1  0  0  0  0
 74 75  1  0  0  0  0
 75 76  1  0  0  0  0
 76 77  1  0  0  0  0
 77 78  1  0  0  0  0
 78114  1  0  0  0  0
M  END
$$$$
