
 OpenBabel04232216453D

 51 53  0  0  0  0  0  0  0  0999 V2000
    4.1734   -3.8189    1.7375 C   0  0  0  0  0  0  0  0  0  0  0  0
    5.3694   -2.9992    2.2572 C   0  0  0  0  0  0  0  0  0  0  0  0
    4.7602   -1.4798    2.0600 C   0  0  0  0  0  3  0  0  0  0  0  0
    5.5080   -0.1945    1.5309 C   0  0  0  0  0  0  0  0  0  0  0  0
    5.6191    0.8606    2.6251 C   0  0  0  0  0  0  0  0  0  0  0  0
    6.6684   -0.9924    1.2222 C   0  0  0  0  0  0  0  0  0  0  0  0
    6.0460   -1.9516   -0.1568 C   0  0  0  0  0  0  0  0  0  0  0  0
    6.8213   -1.8697   -1.4524 C   0  0  0  0  0  0  0  0  0  0  0  0
    5.3449    0.4855    0.1660 N   0  0  0  0  0  0  0  0  0  0  0  0
    6.5609    0.9949   -0.4417 C   0  0  0  0  0  0  0  0  0  0  0  0
    7.7353    0.3879   -0.8776 C   0  0  0  0  0  0  0  0  0  0  0  0
    8.9927    1.1593   -1.1269 C   0  0  0  0  0  0  0  0  0  0  0  0
    9.5975    0.8663   -2.4934 C   0  0  0  0  0  0  0  0  0  0  0  0
    8.6760    1.2686   -3.6422 C   0  0  0  0  0  0  0  0  0  0  0  0
    9.3597    1.0120   -4.9712 C   0  0  0  0  0  0  0  0  0  0  0  0
    8.0032   -1.1714   -0.9041 C   0  0  0  0  0  0  0  0  0  0  0  0
    8.9173   -1.8181   -0.1871 N   0  0  0  0  0  0  0  0  0  0  0  0
    8.4674   -3.0685    0.3613 C   0  0  0  0  0  0  0  0  0  0  0  0
    8.0584   -3.1494    1.6703 C   0  0  0  0  0  0  0  0  0  0  0  0
    9.0052   -2.6615    2.6652 C   0  0  0  0  0  0  0  0  0  0  0  0
    9.0030   -3.3729    3.8022 C   0  0  0  0  0  0  0  0  0  0  0  0
    7.9949   -4.4885    3.8705 C   0  0  0  0  0  0  0  0  0  0  0  0
    6.9044   -4.6477    3.1583 N   0  0  0  0  0  0  0  0  0  0  0  0
    6.6522   -3.6391    2.2239 C   0  0  0  0  0  0  0  0  0  0  0  0
    3.6938   -3.2625    0.9083 H   0  0  0  0  0  0  0  0  0  0  0  0
    3.3963   -3.9712    2.4862 H   0  0  0  0  0  0  0  0  0  0  0  0
    4.4741   -4.7615    1.2735 H   0  0  0  0  0  0  0  0  0  0  0  0
    3.8819   -1.3117    2.6864 H   0  0  0  0  0  0  0  0  0  0  0  0
    5.5221    0.4375    3.6321 H   0  0  0  0  0  0  0  0  0  0  0  0
    4.8183    1.6024    2.5133 H   0  0  0  0  0  0  0  0  0  0  0  0
    6.5719    1.3970    2.5810 H   0  0  0  0  0  0  0  0  0  0  0  0
    6.9466   -1.4105    2.1838 H   0  0  0  0  0  0  0  0  0  0  0  0
    7.5684   -0.3848    1.1332 H   0  0  0  0  0  0  0  0  0  0  0  0
    5.0022   -1.6974   -0.3945 H   0  0  0  0  0  0  0  0  0  0  0  0
    5.9737   -3.0199    0.0387 H   0  0  0  0  0  0  0  0  0  0  0  0
    6.3065   -1.2801   -2.2111 H   0  0  0  0  0  0  0  0  0  0  0  0
    7.0585   -2.8343   -1.8842 H   0  0  0  0  0  0  0  0  0  0  0  0
    6.5424    2.0829   -0.4510 H   0  0  0  0  0  0  0  0  0  0  0  0
    9.7205    0.8840   -0.3512 H   0  0  0  0  0  0  0  0  0  0  0  0
    8.8176    2.2337   -1.0114 H   0  0  0  0  0  0  0  0  0  0  0  0
    9.8450   -0.1996   -2.5801 H   0  0  0  0  0  0  0  0  0  0  0  0
   10.5458    1.4096   -2.5688 H   0  0  0  0  0  0  0  0  0  0  0  0
    8.4151    2.3294   -3.5559 H   0  0  0  0  0  0  0  0  0  0  0  0
    7.7386    0.7000   -3.6087 H   0  0  0  0  0  0  0  0  0  0  0  0
   10.3016    1.5657   -5.0331 H   0  0  0  0  0  0  0  0  0  0  0  0
    8.7178    1.3272   -5.7979 H   0  0  0  0  0  0  0  0  0  0  0  0
    9.5797   -0.0538   -5.0923 H   0  0  0  0  0  0  0  0  0  0  0  0
    7.9844   -3.7469   -0.3455 H   0  0  0  0  0  0  0  0  0  0  0  0
    9.6849   -1.8591    2.4420 H   0  0  0  0  0  0  0  0  0  0  0  0
    9.7066   -3.1950    4.6016 H   0  0  0  0  0  0  0  0  0  0  0  0
    8.2647   -5.2680    4.6066 H   0  0  0  0  0  0  0  0  0  0  0  0
  1  2  1  0  0  0  0
  1 25  1  0  0  0  0
  1 26  1  0  0  0  0
  1 27  1  0  0  0  0
  2  3  1  0  0  0  0
  2 24  2  3  0  0  0
  3  4  1  0  0  0  0
  3 28  1  0  0  0  0
  4  5  1  0  0  0  0
  4  6  1  0  0  0  0
  4  9  2  0  0  0  0
  5 29  1  0  0  0  0
  5 30  1  0  0  0  0
  5 31  1  0  0  0  0
  6  7  1  0  0  0  0
  6 32  1  0  0  0  0
  6 33  1  0  0  0  0
  7  8  1  0  0  0  0
  7 34  1  0  0  0  0
  7 35  1  0  0  0  0
  8 16  1  0  0  0  0
  8 36  1  0  0  0  0
  8 37  1  0  0  0  0
  9 10  1  0  0  0  0
 10 11  2  0  0  0  0
 10 38  1  0  0  0  0
 11 12  1  0  0  0  0
 11 16  1  0  0  0  0
 12 13  1  0  0  0  0
 12 39  1  0  0  0  0
 12 40  1  0  0  0  0
 13 14  1  0  0  0  0
 13 41  1  0  0  0  0
 13 42  1  0  0  0  0
 14 15  1  0  0  0  0
 14 43  1  0  0  0  0
 14 44  1  0  0  0  0
 15 45  1  0  0  0  0
 15 46  1  0  0  0  0
 15 47  1  0  0  0  0
 16 17  2  3  0  0  0
 17 18  1  0  0  0  0
 18 19  2  3  0  0  0
 18 48  1  0  0  0  0
 19 20  1  0  0  0  0
 19 24  1  0  0  0  0
 20 21  2  0  0  0  0
 20 49  1  0  0  0  0
 21 22  1  0  0  0  0
 21 50  1  0  0  0  0
 22 23  2  0  0  0  0
 22 51  1  0  0  0  0
 23 24  1  0  0  0  0
M  END
$$$$
