
 OpenBabel04232216503D

 30 30  0  0  1  0  0  0  0  0999 V2000
    1.0107   -0.2891    0.3945 C   0  0  0  0  0  0  0  0  0  0  0  0
    2.4621   -0.0113    0.0245 C   0  0  3  0  0  0  0  0  0  0  0  0
    2.7390    1.4188    0.0977 N   0  0  0  0  0  0  0  0  0  0  0  0
    2.7944    2.2645   -0.8628 C   0  0  0  0  0  0  0  0  0  0  0  0
    3.2818    3.6632   -0.4794 C   0  0  0  0  0  0  0  0  0  0  0  0
    2.2868    4.7890   -0.7363 C   0  0  0  0  0  0  0  0  0  0  0  0
    0.9898    4.6316    0.0386 C   0  0  0  0  0  0  0  0  0  0  0  0
    2.5630    2.0027   -2.3433 C   0  0  0  0  0  0  0  0  0  0  0  0
    1.5550    0.9197   -2.6784 C   0  0  0  0  0  0  0  0  0  0  0  0
    2.1070   -0.4858   -2.4958 C   0  0  0  0  0  0  0  0  0  0  0  0
    2.9666   -0.6773   -1.2527 C   0  0  0  0  0  0  0  0  0  0  0  0
    0.8364   -0.0309    1.4453 H   0  0  0  0  0  0  0  0  0  0  0  0
    0.7652   -1.3488    0.2656 H   0  0  0  0  0  0  0  0  0  0  0  0
    0.3010    0.3032   -0.1858 H   0  0  0  0  0  0  0  0  0  0  0  0
    3.0652   -0.4584    0.8268 H   0  0  0  0  0  0  0  0  0  0  0  0
    4.2011    3.8528   -1.0478 H   0  0  0  0  0  0  0  0  0  0  0  0
    3.5634    3.6627    0.5821 H   0  0  0  0  0  0  0  0  0  0  0  0
    2.0620    4.8727   -1.8037 H   0  0  0  0  0  0  0  0  0  0  0  0
    2.7559    5.7373   -0.4444 H   0  0  0  0  0  0  0  0  0  0  0  0
    0.4562    3.7225   -0.2558 H   0  0  0  0  0  0  0  0  0  0  0  0
    0.3320    5.4844   -0.1573 H   0  0  0  0  0  0  0  0  0  0  0  0
    1.1773    4.5904    1.1170 H   0  0  0  0  0  0  0  0  0  0  0  0
    3.5328    1.7992   -2.8118 H   0  0  0  0  0  0  0  0  0  0  0  0
    2.1931    2.9317   -2.7908 H   0  0  0  0  0  0  0  0  0  0  0  0
    1.2425    1.0256   -3.7265 H   0  0  0  0  0  0  0  0  0  0  0  0
    0.6444    1.0593   -2.0898 H   0  0  0  0  0  0  0  0  0  0  0  0
    2.7159   -0.7483   -3.3703 H   0  0  0  0  0  0  0  0  0  0  0  0
    1.2736   -1.1991   -2.4863 H   0  0  0  0  0  0  0  0  0  0  0  0
    3.9868   -0.3275   -1.4616 H   0  0  0  0  0  0  0  0  0  0  0  0
    3.0598   -1.7581   -1.0777 H   0  0  0  0  0  0  0  0  0  0  0  0
  1  2  1  0  0  0  0
  1 12  1  0  0  0  0
  1 13  1  0  0  0  0
  1 14  1  0  0  0  0
  2  3  1  0  0  0  0
  2 11  1  0  0  0  0
  2 15  1  0  0  0  0
  3  4  2  0  0  0  0
  4  5  1  0  0  0  0
  4  8  1  0  0  0  0
  5  6  1  0  0  0  0
  5 16  1  0  0  0  0
  5 17  1  0  0  0  0
  6  7  1  0  0  0  0
  6 18  1  0  0  0  0
  6 19  1  0  0  0  0
  7 20  1  0  0  0  0
  7 21  1  0  0  0  0
  7 22  1  0  0  0  0
  8  9  1  0  0  0  0
  8 23  1  0  0  0  0
  8 24  1  0  0  0  0
  9 10  1  0  0  0  0
  9 25  1  0  0  0  0
  9 26  1  0  0  0  0
 10 11  1  0  0  0  0
 10 27  1  0  0  0  0
 10 28  1  0  0  0  0
 11 29  1  0  0  0  0
 11 30  1  0  0  0  0
M  END
$$$$
