
 OpenBabel04232216503D

 64 65  0  0  0  0  0  0  0  0999 V2000
    5.6477   -2.7499    1.2209 C   0  0  0  0  0  0  0  0  0  0  0  0
    6.7932   -2.7744    0.1329 C   0  0  0  0  0  0  0  0  0  0  0  0
    6.2391   -2.3651   -1.0392 N   0  0  0  0  0  0  0  0  0  0  0  0
    5.6952   -1.1898   -1.2354 C   0  0  0  0  0  0  0  0  0  0  0  0
    5.6146    0.0661   -0.3395 C   0  0  0  0  0  0  0  0  0  0  0  0
    6.6530    1.1183   -0.6579 C   0  0  0  0  0  0  0  0  0  0  0  0
    5.3322   -0.9516   -2.6898 C   0  0  0  0  0  0  0  0  0  0  0  0
    6.7192   -0.8259   -3.2588 C   0  0  0  0  0  0  0  0  0  0  0  0
    7.2761   -2.1751   -3.5876 C   0  0  0  0  0  0  0  0  0  0  0  0
    8.7022   -1.9972   -3.3242 C   0  0  0  0  0  3  0  0  0  0  0  0
    9.6144   -2.5041   -4.3218 C   0  0  0  0  0  0  0  0  0  0  0  0
   10.8698   -2.7116   -3.5291 C   0  0  0  0  0  0  0  0  0  0  0  0
   11.6435   -1.8585   -3.1229 O   0  0  0  0  0  0  0  0  0  0  0  0
   11.1194   -4.1648   -3.4144 C   0  0  0  0  0  0  0  0  0  0  0  0
   10.3601   -4.7486   -2.4377 C   0  0  0  0  0  0  0  0  0  0  0  0
   10.3104   -4.1882   -1.0029 C   0  0  0  0  0  0  0  0  0  0  0  0
   11.8112   -4.4571   -0.3505 C   0  0  0  0  0  0  0  0  0  0  0  0
   13.0945   -5.0662   -1.1775 C   0  0  0  0  0  0  0  0  0  0  0  0
   13.3360   -6.6252   -1.4049 C   0  0  0  0  0  0  0  0  0  0  0  0
   14.2297   -7.1037   -2.6346 C   0  0  0  0  0  0  0  0  0  0  0  0
   13.6999   -8.3332   -3.4444 C   0  0  0  0  0  0  0  0  0  0  0  0
   13.0715   -8.0606   -4.8225 C   0  0  0  0  0  0  0  0  0  0  0  0
   12.0237   -6.9717   -4.7424 C   0  0  0  0  0  0  0  0  0  0  0  0
   12.6068   -5.6462   -5.1680 C   0  0  0  0  0  0  0  0  0  0  0  0
   11.7074   -4.4896   -4.8012 C   0  0  0  0  0  0  0  0  0  0  0  0
    9.3728   -3.6713   -0.1231 N   0  0  0  0  0  0  0  0  0  0  0  0
    8.0684   -3.2983    0.3370 C   0  0  0  0  0  0  0  0  0  0  0  0
    4.8430   -3.4625    0.9481 H   0  0  0  0  0  0  0  0  0  0  0  0
    5.0824   -1.8065    1.2515 H   0  0  0  0  0  0  0  0  0  0  0  0
    5.9417   -2.9142    2.2478 H   0  0  0  0  0  0  0  0  0  0  0  0
    5.7129   -0.1526    0.7204 H   0  0  0  0  0  0  0  0  0  0  0  0
    4.6176    0.5058   -0.4846 H   0  0  0  0  0  0  0  0  0  0  0  0
    7.6645    0.7083   -0.5391 H   0  0  0  0  0  0  0  0  0  0  0  0
    6.5636    1.9683    0.0256 H   0  0  0  0  0  0  0  0  0  0  0  0
    6.5533    1.5085   -1.6779 H   0  0  0  0  0  0  0  0  0  0  0  0
    4.7617   -0.0314   -2.8318 H   0  0  0  0  0  0  0  0  0  0  0  0
    4.7819   -1.7988   -3.1086 H   0  0  0  0  0  0  0  0  0  0  0  0
    7.3755   -0.3822   -2.4897 H   0  0  0  0  0  0  0  0  0  0  0  0
    6.8101   -0.1494   -4.0988 H   0  0  0  0  0  0  0  0  0  0  0  0
    7.0380   -2.4617   -4.6147 H   0  0  0  0  0  0  0  0  0  0  0  0
    6.9429   -3.0495   -2.9922 H   0  0  0  0  0  0  0  0  0  0  0  0
    9.0349   -1.7454   -2.3177 H   0  0  0  0  0  0  0  0  0  0  0  0
    9.7560   -1.8847   -5.1998 H   0  0  0  0  0  0  0  0  0  0  0  0
    9.2067   -3.4721   -4.6635 H   0  0  0  0  0  0  0  0  0  0  0  0
   10.2218   -5.8239   -2.4247 H   0  0  0  0  0  0  0  0  0  0  0  0
   11.6623   -5.0784    0.5471 H   0  0  0  0  0  0  0  0  0  0  0  0
   12.1425   -3.4698    0.0081 H   0  0  0  0  0  0  0  0  0  0  0  0
   13.9694   -4.7535   -0.5836 H   0  0  0  0  0  0  0  0  0  0  0  0
   13.2212   -4.5377   -2.1236 H   0  0  0  0  0  0  0  0  0  0  0  0
   12.3935   -7.1728   -1.3910 H   0  0  0  0  0  0  0  0  0  0  0  0
   13.9083   -6.9714   -0.5293 H   0  0  0  0  0  0  0  0  0  0  0  0
   15.1952   -7.4461   -2.2296 H   0  0  0  0  0  0  0  0  0  0  0  0
   14.5138   -6.2803   -3.2890 H   0  0  0  0  0  0  0  0  0  0  0  0
   12.9676   -8.8850   -2.8465 H   0  0  0  0  0  0  0  0  0  0  0  0
   14.5237   -9.0373   -3.6326 H   0  0  0  0  0  0  0  0  0  0  0  0
   12.5870   -8.9766   -5.1861 H   0  0  0  0  0  0  0  0  0  0  0  0
   13.8434   -7.8225   -5.5711 H   0  0  0  0  0  0  0  0  0  0  0  0
   11.6418   -6.9207   -3.7197 H   0  0  0  0  0  0  0  0  0  0  0  0
   11.1806   -7.2354   -5.4003 H   0  0  0  0  0  0  0  0  0  0  0  0
   12.7279   -5.6494   -6.2661 H   0  0  0  0  0  0  0  0  0  0  0  0
   13.6162   -5.4568   -4.7926 H   0  0  0  0  0  0  0  0  0  0  0  0
   10.8788   -4.5102   -5.5180 H   0  0  0  0  0  0  0  0  0  0  0  0
   12.3082   -3.6051   -5.1080 H   0  0  0  0  0  0  0  0  0  0  0  0
    8.1637   -3.3860    1.4298 H   0  0  0  0  0  0  0  0  0  0  0  0
  1  2  1  0  0  0  0
  1 28  1  0  0  0  0
  1 29  1  0  0  0  0
  1 30  1  0  0  0  0
  2  3  1  0  0  0  0
  2 27  2  3  0  0  0
  3  4  2  3  0  0  0
  4  5  1  0  0  0  0
  4  7  1  0  0  0  0
  5  6  1  0  0  0  0
  5 31  1  0  0  0  0
  5 32  1  0  0  0  0
  6 33  1  0  0  0  0
  6 34  1  0  0  0  0
  6 35  1  0  0  0  0
  7  8  1  0  0  0  0
  7 36  1  0  0  0  0
  7 37  1  0  0  0  0
  8  9  1  0  0  0  0
  8 38  1  0  0  0  0
  8 39  1  0  0  0  0
  9 10  1  0  0  0  0
  9 40  1  0  0  0  0
  9 41  1  0  0  0  0
 10 11  1  0  0  0  0
 10 42  1  0  0  0  0
 11 12  1  0  0  0  0
 11 43  1  0  0  0  0
 11 44  1  0  0  0  0
 12 13  2  0  0  0  0
 12 14  1  0  0  0  0
 14 15  2  3  0  0  0
 14 25  1  0  0  0  0
 15 16  1  0  0  0  0
 15 45  1  0  0  0  0
 16 17  1  0  0  0  0
 16 26  2  3  0  0  0
 17 18  1  0  0  0  0
 17 46  1  0  0  0  0
 17 47  1  0  0  0  0
 18 19  1  0  0  0  0
 18 48  1  0  0  0  0
 18 49  1  0  0  0  0
 19 20  1  0  0  0  0
 19 50  1  0  0  0  0
 19 51  1  0  0  0  0
 20 21  1  0  0  0  0
 20 52  1  0  0  0  0
 20 53  1  0  0  0  0
 21 22  1  0  0  0  0
 21 54  1  0  0  0  0
 21 55  1  0  0  0  0
 22 23  1  0  0  0  0
 22 56  1  0  0  0  0
 22 57  1  0  0  0  0
 23 24  1  0  0  0  0
 23 58  1  0  0  0  0
 23 59  1  0  0  0  0
 24 25  1  0  0  0  0
 24 60  1  0  0  0  0
 24 61  1  0  0  0  0
 25 62  1  0  0  0  0
 25 63  1  0  0  0  0
 26 27  1  0  0  0  0
 27 64  1  0  0  0  0
M  END
$$$$
