
 OpenBabel04232216513D

 31 31  0  0  1  0  0  0  0  0999 V2000
    2.9262   -1.6636   -0.5855 C   0  0  0  0  0  0  0  0  0  0  0  0
    2.5785   -0.2328   -0.2032 C   0  0  0  0  0  0  0  0  0  0  0  0
    2.9895    0.8517   -1.2101 C   0  0  3  0  0  0  0  0  0  0  0  0
    2.2126    0.7302   -2.5035 C   0  0  0  0  0  0  0  0  0  0  0  0
    1.7744    1.7754   -3.2178 C   0  0  0  0  0  0  0  0  0  0  0  0
    2.0421    3.2001   -2.8372 C   0  0  0  0  0  0  0  0  0  0  0  0
    3.1349    3.3174   -1.7680 C   0  0  0  0  0  0  0  0  0  0  0  0
    2.9377    2.3076   -0.6108 C   0  0  3  0  0  0  0  0  0  0  0  0
    1.6674    2.7114    0.1952 C   0  0  0  0  0  0  0  0  0  0  0  0
    1.5020    2.0969    1.5917 C   0  0  0  0  0  0  0  0  0  0  0  0
    0.2585    2.6193    2.2959 C   0  0  0  0  0  0  0  0  0  0  0  0
    2.6254   -2.3375    0.2258 H   0  0  0  0  0  0  0  0  0  0  0  0
    4.0032   -1.7813   -0.7381 H   0  0  0  0  0  0  0  0  0  0  0  0
    2.4024   -1.9860   -1.4866 H   0  0  0  0  0  0  0  0  0  0  0  0
    3.0726   -0.0358    0.7553 H   0  0  0  0  0  0  0  0  0  0  0  0
    1.4904   -0.2018   -0.0570 H   0  0  0  0  0  0  0  0  0  0  0  0
    4.0420    0.6580   -1.4778 H   0  0  0  0  0  0  0  0  0  0  0  0
    2.0213   -0.2681   -2.8893 H   0  0  0  0  0  0  0  0  0  0  0  0
    1.2171    1.6017   -4.1339 H   0  0  0  0  0  0  0  0  0  0  0  0
    1.1072    3.6504   -2.4843 H   0  0  0  0  0  0  0  0  0  0  0  0
    2.3462    3.7610   -3.7276 H   0  0  0  0  0  0  0  0  0  0  0  0
    3.1629    4.3484   -1.3903 H   0  0  0  0  0  0  0  0  0  0  0  0
    4.1129    3.1389   -2.2387 H   0  0  0  0  0  0  0  0  0  0  0  0
    3.7978    2.4168    0.0684 H   0  0  0  0  0  0  0  0  0  0  0  0
    0.7668    2.5143   -0.3953 H   0  0  0  0  0  0  0  0  0  0  0  0
    1.7039    3.8023    0.3445 H   0  0  0  0  0  0  0  0  0  0  0  0
    2.3883    2.2943    2.2044 H   0  0  0  0  0  0  0  0  0  0  0  0
    1.3772    1.0181    1.5470 H   0  0  0  0  0  0  0  0  0  0  0  0
    0.3646    3.6762    2.5548 H   0  0  0  0  0  0  0  0  0  0  0  0
    0.0882    2.0545    3.2187 H   0  0  0  0  0  0  0  0  0  0  0  0
   -0.6282    2.4996    1.6643 H   0  0  0  0  0  0  0  0  0  0  0  0
  1  2  1  0  0  0  0
  1 12  1  0  0  0  0
  1 13  1  0  0  0  0
  1 14  1  0  0  0  0
  2  3  1  0  0  0  0
  2 15  1  0  0  0  0
  2 16  1  0  0  0  0
  3  4  1  0  0  0  0
  3  8  1  0  0  0  0
  3 17  1  0  0  0  0
  4  5  2  0  0  0  0
  4 18  1  0  0  0  0
  5  6  1  0  0  0  0
  5 19  1  0  0  0  0
  6  7  1  0  0  0  0
  6 20  1  0  0  0  0
  6 21  1  0  0  0  0
  7  8  1  0  0  0  0
  7 22  1  0  0  0  0
  7 23  1  0  0  0  0
  8  9  1  0  0  0  0
  8 24  1  0  0  0  0
  9 10  1  0  0  0  0
  9 25  1  0  0  0  0
  9 26  1  0  0  0  0
 10 11  1  0  0  0  0
 10 27  1  0  0  0  0
 10 28  1  0  0  0  0
 11 29  1  0  0  0  0
 11 30  1  0  0  0  0
 11 31  1  0  0  0  0
M  END
$$$$
