
 OpenBabel04232216493D

 33 33  0  0  0  0  0  0  0  0999 V2000
    0.9513   -0.0044    0.6250 C   0  0  0  0  0  0  0  0  0  0  0  0
    2.3984    0.0864    0.1455 C   0  0  0  0  0  0  0  0  0  0  0  0
    2.8689   -1.0443   -0.8153 C   0  0  0  0  0  0  0  0  0  0  0  0
    1.8285   -1.9166   -1.5338 C   0  0  0  0  0  0  0  0  0  0  0  0
    1.5227   -1.5669   -2.9945 C   0  0  0  0  0  0  0  0  0  0  0  0
    0.8599   -0.2088   -3.2050 C   0  0  0  0  0  0  0  0  0  0  0  0
    1.8730    0.9000   -3.4838 C   0  0  0  0  0  0  0  0  0  0  0  0
    1.2872    2.2899   -3.2421 C   0  0  0  0  0  0  0  0  0  0  0  0
    2.0185    3.0803   -2.1534 C   0  0  0  0  0  0  0  0  0  0  0  0
    1.8199    2.5370   -0.7333 C   0  0  0  0  0  0  0  0  0  0  0  0
    2.8671    1.5058   -0.2786 C   0  0  0  0  0  0  0  0  0  0  0  0
    0.7635   -0.9744    1.1034 H   0  0  0  0  0  0  0  0  0  0  0  0
    0.2294    0.1164   -0.1853 H   0  0  0  0  0  0  0  0  0  0  0  0
    0.7465    0.7648    1.3776 H   0  0  0  0  0  0  0  0  0  0  0  0
    2.9877   -0.1038    1.0553 H   0  0  0  0  0  0  0  0  0  0  0  0
    3.4291   -1.7452   -0.1737 H   0  0  0  0  0  0  0  0  0  0  0  0
    3.6246   -0.6880   -1.5230 H   0  0  0  0  0  0  0  0  0  0  0  0
    0.8969   -1.9984   -0.9671 H   0  0  0  0  0  0  0  0  0  0  0  0
    2.2334   -2.9397   -1.5526 H   0  0  0  0  0  0  0  0  0  0  0  0
    0.8341   -2.3368   -3.3670 H   0  0  0  0  0  0  0  0  0  0  0  0
    2.4306   -1.6559   -3.6029 H   0  0  0  0  0  0  0  0  0  0  0  0
    0.2180    0.0316   -2.3547 H   0  0  0  0  0  0  0  0  0  0  0  0
    0.1952   -0.2765   -4.0764 H   0  0  0  0  0  0  0  0  0  0  0  0
    2.1781    0.8239   -4.5368 H   0  0  0  0  0  0  0  0  0  0  0  0
    2.7900    0.7606   -2.9132 H   0  0  0  0  0  0  0  0  0  0  0  0
    0.2184    2.2398   -3.0007 H   0  0  0  0  0  0  0  0  0  0  0  0
    1.3588    2.8614   -4.1755 H   0  0  0  0  0  0  0  0  0  0  0  0
    1.6143    4.1014   -2.1763 H   0  0  0  0  0  0  0  0  0  0  0  0
    3.0847    3.1725   -2.3944 H   0  0  0  0  0  0  0  0  0  0  0  0
    0.7891    2.1960   -0.6088 H   0  0  0  0  0  0  0  0  0  0  0  0
    1.9204    3.3988   -0.0591 H   0  0  0  0  0  0  0  0  0  0  0  0
    3.3274    1.9402    0.6227 H   0  0  0  0  0  0  0  0  0  0  0  0
    3.7014    1.4472   -0.9854 H   0  0  0  0  0  0  0  0  0  0  0  0
  1  2  1  0  0  0  0
  1 12  1  0  0  0  0
  1 13  1  0  0  0  0
  1 14  1  0  0  0  0
  2  3  1  0  0  0  0
  2 11  1  0  0  0  0
  2 15  1  0  0  0  0
  3  4  1  0  0  0  0
  3 16  1  0  0  0  0
  3 17  1  0  0  0  0
  4  5  1  0  0  0  0
  4 18  1  0  0  0  0
  4 19  1  0  0  0  0
  5  6  1  0  0  0  0
  5 20  1  0  0  0  0
  5 21  1  0  0  0  0
  6  7  1  0  0  0  0
  6 22  1  0  0  0  0
  6 23  1  0  0  0  0
  7  8  1  0  0  0  0
  7 24  1  0  0  0  0
  7 25  1  0  0  0  0
  8  9  1  0  0  0  0
  8 26  1  0  0  0  0
  8 27  1  0  0  0  0
  9 10  1  0  0  0  0
  9 28  1  0  0  0  0
  9 29  1  0  0  0  0
 10 11  1  0  0  0  0
 10 30  1  0  0  0  0
 10 31  1  0  0  0  0
 11 32  1  0  0  0  0
 11 33  1  0  0  0  0
M  END
$$$$
