
 OpenBabel04232216423D

 62 62  0  0  0  0  0  0  0  0999 V2000
    5.9782    3.1335    1.5273 C   0  0  0  0  0  0  0  0  0  0  0  0
    4.8154    2.5099    1.2598 C   0  0  0  0  0  0  0  0  0  0  0  0
    4.4275    1.4947    0.2937 C   0  0  0  0  0  0  0  0  0  0  0  0
    5.1104    1.1393   -0.8140 C   0  0  0  0  0  0  0  0  0  0  0  0
    5.3000   -0.3510   -0.9604 C   0  0  0  0  0  0  0  0  0  0  0  0
    5.5662    2.0382   -1.8013 N   0  0  0  0  0  0  0  0  0  0  0  0
    4.7452    3.2907   -1.9386 C   0  0  0  0  0  0  0  0  0  0  0  0
    6.9309    2.0483   -2.2796 C   0  0  0  0  0  0  0  0  0  0  0  0
    7.9864    1.1111   -1.5685 C   0  0  0  0  0  0  0  0  0  0  0  0
    8.5575   -0.1480   -2.2467 C   0  0  0  0  0  0  0  0  0  0  0  0
    9.6406   -0.0376   -3.3170 C   0  0  0  0  0  0  0  0  0  0  0  0
   11.0352    0.4924   -2.9268 C   0  0  0  0  0  0  0  0  0  0  0  0
   12.1267    0.2801   -4.0024 C   0  0  0  0  0  0  0  0  0  0  0  0
   11.8026    0.7928   -5.4142 C   0  0  0  0  0  0  0  0  0  0  0  0
   12.9677    0.4985   -6.3716 C   0  0  0  0  0  0  0  0  0  0  0  0
   12.6943    0.9441   -7.8009 C   0  0  0  0  0  0  0  0  0  0  0  0
    7.3475    3.0679   -3.0773 C   0  0  0  0  0  0  0  0  0  0  0  0
    8.7759    3.3403   -3.2158 C   0  0  0  0  0  0  0  0  0  0  0  0
    9.2830    4.5115   -3.4229 N   0  0  0  0  0  0  0  0  0  0  0  0
   10.4601    4.6239   -2.6881 C   0  0  0  0  0  0  0  0  0  0  0  0
   10.3618    5.4219   -1.6278 C   0  0  0  0  0  0  0  0  0  0  0  0
   10.5689    6.8919   -1.9193 C   0  0  0  0  0  0  0  0  0  0  0  0
   10.4149    4.9578   -0.2382 C   0  0  0  0  0  0  0  0  0  0  0  0
    9.4828    4.3634    0.5601 C   0  0  0  0  0  0  0  0  0  0  0  0
    8.0662    4.0084    0.3441 C   0  0  0  0  0  0  0  0  0  0  0  0
    7.3444    3.0200    0.9781 C   0  0  0  0  0  0  0  0  0  0  0  0
    5.9430    3.7273    2.4472 H   0  0  0  0  0  0  0  0  0  0  0  0
    3.9832    2.7027    1.9509 H   0  0  0  0  0  0  0  0  0  0  0  0
    3.3619    1.6663    0.0661 H   0  0  0  0  0  0  0  0  0  0  0  0
    4.3551   -0.8954   -0.8601 H   0  0  0  0  0  0  0  0  0  0  0  0
    5.9635   -0.7058   -0.1593 H   0  0  0  0  0  0  0  0  0  0  0  0
    5.7334   -0.6326   -1.9194 H   0  0  0  0  0  0  0  0  0  0  0  0
    3.6814    3.1078   -1.7432 H   0  0  0  0  0  0  0  0  0  0  0  0
    4.7683    3.7062   -2.9501 H   0  0  0  0  0  0  0  0  0  0  0  0
    5.0927    4.0560   -1.2333 H   0  0  0  0  0  0  0  0  0  0  0  0
    7.5486    0.7647   -0.6289 H   0  0  0  0  0  0  0  0  0  0  0  0
    8.8201    1.7058   -1.1811 H   0  0  0  0  0  0  0  0  0  0  0  0
    7.7438   -0.7263   -2.6756 H   0  0  0  0  0  0  0  0  0  0  0  0
    8.9811   -0.7735   -1.4440 H   0  0  0  0  0  0  0  0  0  0  0  0
    9.2555    0.5375   -4.1730 H   0  0  0  0  0  0  0  0  0  0  0  0
    9.8162   -1.0596   -3.6898 H   0  0  0  0  0  0  0  0  0  0  0  0
   11.3737    0.0066   -2.0051 H   0  0  0  0  0  0  0  0  0  0  0  0
   11.0187    1.5573   -2.6929 H   0  0  0  0  0  0  0  0  0  0  0  0
   12.3486   -0.7921   -4.0565 H   0  0  0  0  0  0  0  0  0  0  0  0
   13.0477    0.7702   -3.6568 H   0  0  0  0  0  0  0  0  0  0  0  0
   11.6037    1.8720   -5.3909 H   0  0  0  0  0  0  0  0  0  0  0  0
   10.9012    0.3018   -5.7962 H   0  0  0  0  0  0  0  0  0  0  0  0
   13.1720   -0.5791   -6.3765 H   0  0  0  0  0  0  0  0  0  0  0  0
   13.8765    0.9961   -6.0142 H   0  0  0  0  0  0  0  0  0  0  0  0
   11.8146    0.4397   -8.2128 H   0  0  0  0  0  0  0  0  0  0  0  0
   13.5500    0.6986   -8.4397 H   0  0  0  0  0  0  0  0  0  0  0  0
   12.5334    2.0251   -7.8562 H   0  0  0  0  0  0  0  0  0  0  0  0
    6.7225    3.8920   -3.3905 H   0  0  0  0  0  0  0  0  0  0  0  0
    9.4099    2.5434   -2.8471 H   0  0  0  0  0  0  0  0  0  0  0  0
   11.0159    3.6851   -2.5801 H   0  0  0  0  0  0  0  0  0  0  0  0
    9.6172    7.4246   -1.9255 H   0  0  0  0  0  0  0  0  0  0  0  0
   11.0406    7.0414   -2.9070 H   0  0  0  0  0  0  0  0  0  0  0  0
   11.2502    7.3531   -1.1954 H   0  0  0  0  0  0  0  0  0  0  0  0
   11.3742    5.1774    0.2253 H   0  0  0  0  0  0  0  0  0  0  0  0
    9.7890    4.2046    1.5930 H   0  0  0  0  0  0  0  0  0  0  0  0
    7.9042    3.9912   -0.7223 H   0  0  0  0  0  0  0  0  0  0  0  0
    7.9082    2.2340    1.4665 H   0  0  0  0  0  0  0  0  0  0  0  0
  1  2  2  3  0  0  0
  1 26  1  0  0  0  0
  1 27  1  0  0  0  0
  2  3  1  0  0  0  0
  2 28  1  0  0  0  0
  3  4  2  3  0  0  0
  3 29  1  0  0  0  0
  4  5  1  0  0  0  0
  4  6  1  0  0  0  0
  5 30  1  0  0  0  0
  5 31  1  0  0  0  0
  5 32  1  0  0  0  0
  6  7  1  0  0  0  0
  6  8  1  0  0  0  0
  7 33  1  0  0  0  0
  7 34  1  0  0  0  0
  7 35  1  0  0  0  0
  8  9  1  0  0  0  0
  8 17  2  3  0  0  0
  9 10  1  0  0  0  0
  9 36  1  0  0  0  0
  9 37  1  0  0  0  0
 10 11  1  0  0  0  0
 10 38  1  0  0  0  0
 10 39  1  0  0  0  0
 11 12  1  0  0  0  0
 11 40  1  0  0  0  0
 11 41  1  0  0  0  0
 12 13  1  0  0  0  0
 12 42  1  0  0  0  0
 12 43  1  0  0  0  0
 13 14  1  0  0  0  0
 13 44  1  0  0  0  0
 13 45  1  0  0  0  0
 14 15  1  0  0  0  0
 14 46  1  0  0  0  0
 14 47  1  0  0  0  0
 15 16  1  0  0  0  0
 15 48  1  0  0  0  0
 15 49  1  0  0  0  0
 16 50  1  0  0  0  0
 16 51  1  0  0  0  0
 16 52  1  0  0  0  0
 17 18  1  0  0  0  0
 17 53  1  0  0  0  0
 18 19  2  3  0  0  0
 18 54  1  0  0  0  0
 19 20  1  0  0  0  0
 20 21  2  3  0  0  0
 20 55  1  0  0  0  0
 21 22  1  0  0  0  0
 21 23  1  0  0  0  0
 22 56  1  0  0  0  0
 22 57  1  0  0  0  0
 22 58  1  0  0  0  0
 23 24  2  3  0  0  0
 23 59  1  0  0  0  0
 24 25  1  0  0  0  0
 24 60  1  0  0  0  0
 25 26  2  3  0  0  0
 25 61  1  0  0  0  0
 26 62  1  0  0  0  0
M  END
$$$$
