
 OpenBabel04232216473D

 52 54  0  0  1  0  0  0  0  0999 V2000
    1.0404   -0.2019   -0.0044 C   0  0  0  0  0  0  0  0  0  0  0  0
    2.5025   -0.0555    0.1966 C   0  0  0  0  0  0  0  0  0  0  0  0
    3.2826   -1.1399    0.7596 C   0  0  0  0  0  0  0  0  0  0  0  0
    4.6001   -0.9150    0.6513 C   0  0  0  0  0  0  0  0  0  0  0  0
    5.6358   -1.8189    0.5843 N   0  0  0  0  0  0  0  0  0  0  0  0
    6.5384   -2.1463    1.6726 C   0  0  3  0  0  0  0  0  0  0  0  0
    6.0658   -1.5509    3.0064 C   0  0  0  0  0  0  0  0  0  0  0  0
    6.7143   -3.5980    1.7256 N   0  0  0  0  0  0  0  0  0  0  0  0
    7.5791   -4.0611    2.7952 C   0  0  0  0  0  0  0  0  0  0  0  0
    4.7004    0.4976    0.2058 C   0  0  0  0  0  0  0  0  0  0  0  0
    5.6543    1.3668    0.2104 N   0  0  0  0  0  0  0  0  0  0  0  0
    6.8822    0.8634    0.5950 N   0  0  0  0  0  0  0  0  0  0  0  0
    7.7590    1.6266    0.1423 N   0  0  0  0  0  0  0  0  0  0  0  0
    9.0158    0.9895    0.0886 C   0  0  0  0  0  0  0  0  0  0  0  0
    9.9696    1.3795    1.0395 C   0  0  0  0  0  0  0  0  0  0  0  0
   11.2495    0.8394    1.0247 C   0  0  0  0  0  0  0  0  0  0  0  0
   11.5943   -0.0854    0.0427 C   0  0  0  0  0  0  0  0  0  0  0  0
   10.6687   -0.4875   -0.9425 C   0  0  0  0  0  0  0  0  0  0  0  0
   11.1289   -1.4661   -1.9888 C   0  0  0  0  0  0  0  0  0  0  0  0
    9.3616    0.0537   -0.9357 C   0  0  0  0  0  0  0  0  0  0  0  0
    8.3234   -0.4201   -1.9017 C   0  0  0  0  0  0  0  0  0  0  0  0
    7.5067    0.4389   -2.5398 C   0  0  0  0  0  0  0  0  0  0  0  0
    6.1561    0.1044   -2.9843 C   0  0  0  0  0  0  0  0  0  0  0  0
    5.2143    1.0748   -2.9726 C   0  0  0  0  0  0  0  0  0  0  0  0
    3.8022    0.7985   -2.6641 C   0  0  0  0  0  0  0  0  0  0  0  0
    3.2677    1.5174   -1.6362 C   0  0  0  0  0  0  0  0  0  0  0  0
    3.3505    0.8230   -0.3559 C   0  0  0  0  0  0  0  0  0  0  0  0
    0.7541   -1.2461   -0.1655 H   0  0  0  0  0  0  0  0  0  0  0  0
    0.6821    0.3830   -0.8567 H   0  0  0  0  0  0  0  0  0  0  0  0
    0.5115    0.1545    0.8893 H   0  0  0  0  0  0  0  0  0  0  0  0
    2.8570   -2.1114    0.9519 H   0  0  0  0  0  0  0  0  0  0  0  0
    5.2694   -2.7148    0.2729 H   0  0  0  0  0  0  0  0  0  0  0  0
    7.5108   -1.6985    1.4337 H   0  0  0  0  0  0  0  0  0  0  0  0
    5.1324   -2.0151    3.3432 H   0  0  0  0  0  0  0  0  0  0  0  0
    5.8924   -0.4717    2.9276 H   0  0  0  0  0  0  0  0  0  0  0  0
    6.8178   -1.6782    3.7911 H   0  0  0  0  0  0  0  0  0  0  0  0
    7.1345   -3.8658    0.8358 H   0  0  0  0  0  0  0  0  0  0  0  0
    7.1287   -3.9009    3.7790 H   0  0  0  0  0  0  0  0  0  0  0  0
    8.5622   -3.5844    2.7555 H   0  0  0  0  0  0  0  0  0  0  0  0
    7.7228   -5.1411    2.6895 H   0  0  0  0  0  0  0  0  0  0  0  0
    9.6994    2.1154    1.7934 H   0  0  0  0  0  0  0  0  0  0  0  0
   11.9791    1.1470    1.7702 H   0  0  0  0  0  0  0  0  0  0  0  0
   12.6049   -0.4897    0.0452 H   0  0  0  0  0  0  0  0  0  0  0  0
   12.1828   -1.7340   -1.8455 H   0  0  0  0  0  0  0  0  0  0  0  0
   11.0412   -1.0233   -2.9854 H   0  0  0  0  0  0  0  0  0  0  0  0
   10.5476   -2.3908   -1.9371 H   0  0  0  0  0  0  0  0  0  0  0  0
    8.1182   -1.4866   -1.8735 H   0  0  0  0  0  0  0  0  0  0  0  0
    7.7186    1.5059   -2.4698 H   0  0  0  0  0  0  0  0  0  0  0  0
    5.8796   -0.9482   -3.0038 H   0  0  0  0  0  0  0  0  0  0  0  0
    5.5284    2.1032   -2.7915 H   0  0  0  0  0  0  0  0  0  0  0  0
    3.5594   -0.2664   -2.7243 H   0  0  0  0  0  0  0  0  0  0  0  0
    3.5539    2.5655   -1.5208 H   0  0  0  0  0  0  0  0  0  0  0  0
  1  2  1  0  0  0  0
  1 28  1  0  0  0  0
  1 29  1  0  0  0  0
  1 30  1  0  0  0  0
  2  3  1  0  0  0  0
  2 27  2  0  0  0  0
  3  4  2  0  0  0  0
  3 31  1  0  0  0  0
  4  5  1  0  0  0  0
  4 10  1  0  0  0  0
  5  6  1  0  0  0  0
  5 32  1  0  0  0  0
  6  7  1  0  0  0  0
  6  8  1  0  0  0  0
  6 33  1  0  0  0  0
  7 34  1  0  0  0  0
  7 35  1  0  0  0  0
  7 36  1  0  0  0  0
  8  9  1  0  0  0  0
  8 37  1  0  0  0  0
  9 38  1  0  0  0  0
  9 39  1  0  0  0  0
  9 40  1  0  0  0  0
 10 11  2  3  0  0  0
 10 27  1  0  0  0  0
 11 12  1  0  0  0  0
 12 13  2  3  0  0  0
 13 14  1  0  0  0  0
 14 15  1  0  0  0  0
 14 20  2  0  0  0  0
 15 16  2  0  0  0  0
 15 41  1  0  0  0  0
 16 17  1  0  0  0  0
 16 42  1  0  0  0  0
 17 18  2  0  0  0  0
 17 43  1  0  0  0  0
 18 19  1  0  0  0  0
 18 20  1  0  0  0  0
 19 44  1  0  0  0  0
 19 45  1  0  0  0  0
 19 46  1  0  0  0  0
 20 21  1  0  0  0  0
 21 22  2  3  0  0  0
 21 47  1  0  0  0  0
 22 23  1  0  0  0  0
 22 48  1  0  0  0  0
 23 24  2  3  0  0  0
 23 49  1  0  0  0  0
 24 25  1  0  0  0  0
 24 50  1  0  0  0  0
 25 26  2  3  0  0  0
 25 51  1  0  0  0  0
 26 27  1  0  0  0  0
 26 52  1  0  0  0  0
M  END
$$$$
