
 OpenBabel04232216513D

 82 82  0  0  1  0  0  0  0  0999 V2000
   11.6366   -4.7679   -2.8644 C   0  0  0  0  0  0  0  0  0  0  0  0
   13.8538   -6.0753   -3.2517 C   0  0  0  0  0  0  0  0  0  0  0  0
   16.0549   -7.7097   -3.3785 C   0  0  3  0  0  0  0  0  0  0  0  0
   13.4569   -7.1848   -2.9119 C   0  0  0  0  0  0  0  0  0  0  0  0
   11.4959   -6.5611   -2.3523 C   0  0  0  0  0  0  0  0  0  0  0  0
    9.5702   -5.5084   -1.5733 C   0  0  0  0  0  0  0  0  0  0  0  0
    8.3753   -4.6848   -0.3169 C   0  0  0  0  0  0  0  0  0  0  0  0
    9.3884   -3.8250    0.3136 C   0  0  0  0  0  0  0  0  0  0  0  0
   10.0966   -5.0385    0.3528 C   0  0  0  0  0  0  0  0  0  0  0  0
   11.4669   -4.9557   -0.1023 C   0  0  0  0  0  0  0  0  0  0  0  0
   12.1066   -6.1649   -0.2235 C   0  0  0  0  0  0  0  0  0  0  0  0
   13.5806   -6.1007   -0.4862 C   0  0  0  0  0  0  0  0  0  0  0  0
   14.2401   -7.2857   -0.7049 C   0  0  0  0  0  0  0  0  0  0  0  0
   15.6941   -7.2024   -0.9826 C   0  0  0  0  0  0  0  0  0  0  0  0
   16.3048   -8.3670   -1.3025 C   0  0  0  0  0  0  0  0  0  0  0  0
   17.7300   -8.3128   -1.4423 C   0  0  0  0  0  0  0  0  0  0  0  0
   18.3926   -9.4919   -1.4150 C   0  0  0  0  0  0  0  0  0  0  0  0
   19.9056   -9.4756   -1.5982 C   0  0  0  0  0  0  0  0  0  0  0  0
   20.5405  -10.5509   -2.0731 C   0  0  0  0  0  0  0  0  0  0  0  0
   21.9974  -10.5467   -1.8447 C   0  0  0  0  0  0  0  0  0  0  0  0
   22.6724  -11.7143   -1.9247 C   0  0  0  0  0  0  0  0  0  0  0  0
   24.1204  -11.5520   -1.9687 C   0  0  0  0  0  0  0  0  0  0  0  0
   24.7196  -12.7252   -2.1540 C   0  0  0  0  0  0  0  0  0  0  0  0
   26.0723  -12.3830   -2.2328 C   0  0  0  0  0  0  0  0  0  0  0  0
   26.5188  -13.6316   -2.1607 C   0  0  0  0  0  0  0  0  0  0  0  0
   27.9940  -13.1940   -2.2672 C   0  0  0  0  0  0  0  0  0  0  0  0
   28.9020  -14.2554   -2.6797 C   0  0  0  0  0  0  0  0  0  0  0  0
   30.2455  -14.0699   -2.5266 C   0  0  0  0  0  0  0  0  0  0  0  0
   29.8936  -15.4168   -2.3197 C   0  0  0  0  0  0  0  0  0  0  0  0
   31.7376  -15.6030   -2.4785 C   0  0  0  0  0  0  0  0  0  0  0  0
   32.6135  -16.8534   -2.7417 C   0  0  0  0  0  0  0  0  0  0  0  0
   34.1261  -16.6009   -3.0307 C   0  0  0  0  0  0  0  0  0  0  0  0
   32.8957  -16.2412   -4.2275 C   0  0  0  0  0  0  0  0  0  0  0  0
   31.0385  -15.0851   -4.5843 C   0  0  0  0  0  0  0  0  0  0  0  0
   28.8003  -14.1376   -4.6024 C   0  0  0  0  0  0  0  0  0  0  0  0
   26.3208  -12.8604   -4.5045 C   0  0  0  0  0  0  0  0  0  0  0  0
   24.0698  -11.7458   -4.4129 C   0  0  0  0  0  0  0  0  0  0  0  0
   21.3554  -10.4925   -4.1309 C   0  0  0  0  0  0  0  0  0  0  0  0
   18.6774   -9.1120   -3.5629 C   0  0  0  0  0  3  0  0  0  0  0  0
   10.2710   -3.7923   -2.3480 H   0  0  0  0  0  0  0  0  0  0  0  0
   10.2365   -4.0500   -2.0544 H   0  0  0  0  0  0  0  0  0  0  0  0
    9.9564   -4.2943   -2.7356 H   0  0  0  0  0  0  0  0  0  0  0  0
   12.7658   -5.1272   -2.2386 H   0  0  0  0  0  0  0  0  0  0  0  0
   12.6350   -4.9604   -2.8366 H   0  0  0  0  0  0  0  0  0  0  0  0
   14.8426   -7.1778   -2.5333 H   0  0  0  0  0  0  0  0  0  0  0  0
   12.1499   -6.4413   -2.3447 H   0  0  0  0  0  0  0  0  0  0  0  0
    9.8754   -6.0318   -2.2727 H   0  0  0  0  0  0  0  0  0  0  0  0
    8.4681   -4.1867   -1.1862 H   0  0  0  0  0  0  0  0  0  0  0  0
    6.9745   -4.3466   -0.3980 H   0  0  0  0  0  0  0  0  0  0  0  0
    9.5287   -2.8019   -0.3628 H   0  0  0  0  0  0  0  0  0  0  0  0
    9.4691   -6.2774   -0.1686 H   0  0  0  0  0  0  0  0  0  0  0  0
   11.7243   -3.9553   -0.6487 H   0  0  0  0  0  0  0  0  0  0  0  0
   11.4599   -7.1882   -0.7567 H   0  0  0  0  0  0  0  0  0  0  0  0
   13.8971   -5.0864   -0.9985 H   0  0  0  0  0  0  0  0  0  0  0  0
   13.6065   -8.1368   -1.3872 H   0  0  0  0  0  0  0  0  0  0  0  0
   16.0850   -6.1808   -1.2841 H   0  0  0  0  0  0  0  0  0  0  0  0
   15.6863   -9.1815   -1.8745 H   0  0  0  0  0  0  0  0  0  0  0  0
   18.2188   -7.3394   -1.6053 H   0  0  0  0  0  0  0  0  0  0  0  0
   17.8292  -10.3239   -2.0142 H   0  0  0  0  0  0  0  0  0  0  0  0
   20.4268   -8.5102   -1.8240 H   0  0  0  0  0  0  0  0  0  0  0  0
   20.0282  -11.4355   -2.5227 H   0  0  0  0  0  0  0  0  0  0  0  0
   22.5873   -9.6184   -2.0964 H   0  0  0  0  0  0  0  0  0  0  0  0
   22.2262  -12.5990   -2.6134 H   0  0  0  0  0  0  0  0  0  0  0  0
   24.7741  -10.6566   -2.3372 H   0  0  0  0  0  0  0  0  0  0  0  0
   24.2827  -13.6904   -2.9132 H   0  0  0  0  0  0  0  0  0  0  0  0
   26.6543  -11.5676   -2.8647 H   0  0  0  0  0  0  0  0  0  0  0  0
   26.1702  -14.4731   -2.9064 H   0  0  0  0  0  0  0  0  0  0  0  0
   28.1186  -11.7881   -2.0744 H   0  0  0  0  0  0  0  0  0  0  0  0
   28.9783  -15.5781   -3.6629 H   0  0  0  0  0  0  0  0  0  0  0  0
   31.0639  -13.6277   -3.2993 H   0  0  0  0  0  0  0  0  0  0  0  0
   28.3025  -15.7478   -2.6361 H   0  0  0  0  0  0  0  0  0  0  0  0
   32.5854  -14.4556   -2.8312 H   0  0  0  0  0  0  0  0  0  0  0  0
   32.5908  -17.9950   -3.5979 H   0  0  0  0  0  0  0  0  0  0  0  0
   35.4316  -16.2887   -3.4970 H   0  0  0  0  0  0  0  0  0  0  0  0
   34.2620  -17.4065   -4.2210 H   0  0  0  0  0  0  0  0  0  0  0  0
   32.4399  -15.9174   -4.7417 H   0  0  0  0  0  0  0  0  0  0  0  0
   30.1107  -15.2827   -4.6950 H   0  0  0  0  0  0  0  0  0  0  0  0
   27.6869  -13.9931   -4.5202 H   0  0  0  0  0  0  0  0  0  0  0  0
   25.3787  -12.9443   -4.2677 H   0  0  0  0  0  0  0  0  0  0  0  0
   22.7197  -11.3258   -3.5853 H   0  0  0  0  0  0  0  0  0  0  0  0
   22.8307  -11.1314   -4.4946 H   0  0  0  0  0  0  0  0  0  0  0  0
   17.4506   -9.2579   -3.4760 H   0  0  0  0  0  0  0  0  0  0  0  0
  1  2  1  0  0  0  0
  1 40  1  0  0  0  0
  1 41  1  0  0  0  0
  1 42  1  0  0  0  0
  2  3  1  0  0  0  0
  2 43  1  0  0  0  0
  2 44  1  0  0  0  0
  3  4  1  0  0  0  0
  3 39  1  0  0  0  0
  3 45  1  0  0  0  0
  4  5  2  3  0  0  0
  4 46  1  0  0  0  0
  5  6  1  0  0  0  0
  5 47  1  0  0  0  0
  6  7  2  3  0  0  0
  6 48  1  0  0  0  0
  7  8  1  0  0  0  0
  7 49  1  0  0  0  0
  8  9  2  3  0  0  0
  8 50  1  0  0  0  0
  9 10  1  0  0  0  0
  9 51  1  0  0  0  0
 10 11  2  3  0  0  0
 10 52  1  0  0  0  0
 11 12  1  0  0  0  0
 11 53  1  0  0  0  0
 12 13  2  3  0  0  0
 12 54  1  0  0  0  0
 13 14  1  0  0  0  0
 13 55  1  0  0  0  0
 14 15  2  3  0  0  0
 14 56  1  0  0  0  0
 15 16  1  0  0  0  0
 15 57  1  0  0  0  0
 16 17  2  3  0  0  0
 16 58  1  0  0  0  0
 17 18  1  0  0  0  0
 17 59  1  0  0  0  0
 18 19  2  3  0  0  0
 18 60  1  0  0  0  0
 19 20  1  0  0  0  0
 19 61  1  0  0  0  0
 20 21  2  3  0  0  0
 20 62  1  0  0  0  0
 21 22  1  0  0  0  0
 21 63  1  0  0  0  0
 22 23  2  3  0  0  0
 22 64  1  0  0  0  0
 23 24  1  0  0  0  0
 23 65  1  0  0  0  0
 24 25  2  3  0  0  0
 24 66  1  0  0  0  0
 25 26  1  0  0  0  0
 25 67  1  0  0  0  0
 26 27  2  3  0  0  0
 26 68  1  0  0  0  0
 27 28  1  0  0  0  0
 27 69  1  0  0  0  0
 28 29  2  3  0  0  0
 28 70  1  0  0  0  0
 29 30  1  0  0  0  0
 29 71  1  0  0  0  0
 30 31  2  3  0  0  0
 30 72  1  0  0  0  0
 31 32  1  0  0  0  0
 31 73  1  0  0  0  0
 32 33  2  3  0  0  0
 32 74  1  0  0  0  0
 33 34  1  0  0  0  0
 33 75  1  0  0  0  0
 34 35  2  3  0  0  0
 34 76  1  0  0  0  0
 35 36  1  0  0  0  0
 35 77  1  0  0  0  0
 36 37  2  3  0  0  0
 36 78  1  0  0  0  0
 37 38  1  0  0  0  0
 37 79  1  0  0  0  0
 38 39  1  0  0  0  0
 38 80  1  0  0  0  0
 38 81  1  0  0  0  0
 39 82  1  0  0  0  0
M  END
$$$$
