
 OpenBabel04232216403D

220219  0  0  0  0  0  0  0  0999 V2000
   10.2948    5.7276    4.4910 C   0  0  0  0  0  0  0  0  0  0  0  0
    9.6409    5.5658    3.3254 C   0  0  0  0  0  0  0  0  0  0  0  0
   10.3773    5.3411    2.0429 C   0  0  0  0  0  0  0  0  0  0  0  0
   10.0051    4.0021    1.4345 C   0  0  0  0  0  0  0  0  0  0  0  0
   10.7618    3.7923    0.1331 C   0  0  0  0  0  0  0  0  0  0  0  0
   10.3851    2.4542   -0.4667 C   0  0  0  0  0  0  0  0  0  0  0  0
   11.1330    2.2534   -1.7605 C   0  0  0  0  0  0  0  0  0  0  0  0
   10.7526    0.9288   -2.3586 C   0  0  0  0  0  0  0  0  0  0  0  0
   11.4633    0.8316   -3.5683 O   0  0  0  0  0  0  0  0  0  0  0  0
   11.0646   -0.4408   -4.1121 O   0  0  0  0  0  0  0  0  0  0  0  0
   11.7790   -0.6693   -5.3297 O   0  0  0  0  0  0  0  0  0  0  0  0
   13.1887   -0.6087   -5.0646 O   0  0  0  0  0  0  0  0  0  0  0  0
   13.9037   -0.7402   -6.2916 O   0  0  0  0  0  0  0  0  0  0  0  0
   15.2544   -0.6909   -5.9176 C   0  0  0  0  0  0  0  0  0  0  0  0
   16.0100   -0.8833   -7.2044 C   0  0  0  0  0  0  0  0  0  0  0  0
   17.4901   -0.8490   -6.9345 C   0  0  0  0  0  0  0  0  0  0  0  0
   18.2347   -1.0405   -8.2359 C   0  0  0  0  0  0  0  0  0  0  0  0
   19.7232   -1.0048   -7.9650 C   0  0  0  0  0  0  0  0  0  0  0  0
   20.4799   -1.1972   -9.2620 C   0  0  0  0  0  0  0  0  0  0  0  0
   21.9705   -1.1622   -8.9902 C   0  0  0  0  0  0  0  0  0  0  0  0
   22.7314   -1.3530  -10.2857 C   0  0  0  0  0  0  0  0  0  0  0  0
   24.2227   -1.3164  -10.0147 C   0  0  0  0  0  0  0  0  0  0  0  0
   24.9851   -1.5092  -11.3114 C   0  0  0  0  0  0  0  0  0  0  0  0
   26.4766   -1.4710  -11.0420 C   0  0  0  0  0  0  0  0  0  0  0  0
   27.2387   -1.6638  -12.3388 C   0  0  0  0  0  0  0  0  0  0  0  0
   28.7309   -1.6234  -12.0689 C   0  0  0  0  0  0  0  0  0  0  0  0
   29.4933   -1.8162  -13.3658 C   0  0  0  0  0  0  0  0  0  0  0  0
   30.9852   -1.7757  -13.0964 C   0  0  0  0  0  0  0  0  0  0  0  0
   31.7475   -1.9686  -14.3931 C   0  0  0  0  0  0  0  0  0  0  0  0
   33.2394   -1.9282  -14.1236 C   0  0  0  0  0  0  0  0  0  0  0  0
   34.0017   -2.1209  -15.4204 C   0  0  0  0  0  0  0  0  0  0  0  0
   35.4936   -2.0805  -15.1508 C   0  0  0  0  0  0  0  0  0  0  0  0
   36.2556   -2.2715  -16.4480 C   0  0  0  0  0  0  0  0  0  0  0  0
   37.7475   -2.2309  -16.1783 C   0  0  0  0  0  0  0  0  0  0  0  0
   38.5100   -2.4215  -17.4754 C   0  0  0  0  0  0  0  0  0  0  0  0
   40.0020   -2.3812  -17.2061 C   0  0  0  0  0  0  0  0  0  0  0  0
   40.7648   -2.5701  -18.5035 C   0  0  0  0  0  0  0  0  0  0  0  0
   42.2569   -2.5317  -18.2340 C   0  0  0  0  0  0  0  0  0  0  0  0
   43.0209   -2.7185  -19.5318 C   0  0  0  0  0  0  0  0  0  0  0  0
   44.5122   -2.6821  -19.2643 C   0  0  0  0  0  0  0  0  0  0  0  0
   45.2736   -2.8663  -20.5696 C   0  0  0  0  0  0  0  0  0  0  0  0
   46.7621   -2.8283  -20.2956 C   0  0  0  0  0  0  0  0  0  0  0  0
   47.5347   -3.0146  -21.5867 C   0  0  0  0  0  0  0  0  0  0  0  0
   49.0172   -2.9783  -21.2855 C   0  0  0  0  0  0  0  0  0  0  0  0
   49.7199   -3.1779  -22.4980 O   0  0  0  0  0  0  0  0  0  0  0  0
   51.1199   -3.1056  -22.2644 C   0  0  0  0  0  0  0  0  0  0  0  0
   51.8575   -3.2585  -23.4619 O   0  0  0  0  0  0  0  0  0  0  0  0
   51.5265   -2.2405  -24.4023 C   0  0  0  0  0  0  0  0  0  0  0  0
   52.2523   -2.4165  -25.6118 O   0  0  0  0  0  0  0  0  0  0  0  0
   51.9200   -3.6742  -26.1884 C   0  0  0  0  0  0  0  0  0  0  0  0
   52.6571   -3.8791  -27.3857 O   0  0  0  0  0  0  0  0  0  0  0  0
   52.2875   -5.1171  -27.9887 C   0  0  0  0  0  0  0  0  0  0  0  0
   50.9003   -5.1950  -28.3106 O   0  0  0  0  0  0  0  0  0  0  0  0
   50.5435   -4.1389  -29.1951 C   0  0  0  0  0  0  0  0  0  0  0  0
   49.0588   -4.2120  -29.4613 C   0  0  0  0  0  0  0  0  0  0  0  0
   48.6696   -3.1011  -30.4191 C   0  0  0  0  0  0  0  0  0  0  0  0
   47.1862   -3.1667  -30.7192 C   0  0  0  0  0  0  0  0  0  0  0  0
   46.8066   -2.0580  -31.6831 C   0  0  0  0  0  0  0  0  0  0  0  0
   45.3205   -2.1254  -31.9801 C   0  0  0  0  0  0  0  0  0  0  0  0
   44.9352   -1.0187  -32.9428 C   0  0  0  0  0  0  0  0  0  0  0  0
   43.4495   -1.0872  -33.2406 C   0  0  0  0  0  0  0  0  0  0  0  0
   43.0657    0.0203  -34.2032 C   0  0  0  0  0  0  0  0  0  0  0  0
   41.5801   -0.0481  -34.5010 C   0  0  0  0  0  0  0  0  0  0  0  0
   41.1964    1.0594  -35.4635 C   0  0  0  0  0  0  0  0  0  0  0  0
   39.7107    0.9907  -35.7609 C   0  0  0  0  0  0  0  0  0  0  0  0
   39.3275    2.0984  -36.7233 C   0  0  0  0  0  0  0  0  0  0  0  0
   37.8422    2.0300  -37.0212 C   0  0  0  0  0  0  0  0  0  0  0  0
   37.4582    3.1372  -37.9836 C   0  0  0  0  0  0  0  0  0  0  0  0
   35.9732    3.0678  -38.2828 C   0  0  0  0  0  0  0  0  0  0  0  0
   35.5896    4.1754  -39.2453 C   0  0  0  0  0  0  0  0  0  0  0  0
   34.1046    4.1049  -39.5442 C   0  0  0  0  0  0  0  0  0  0  0  0
   33.7206    5.2125  -40.5070 C   0  0  0  0  0  0  0  0  0  0  0  0
   32.2355    5.1431  -40.8066 C   0  0  0  0  0  0  0  0  0  0  0  0
   31.8513    6.2508  -41.7694 C   0  0  0  0  0  0  0  0  0  0  0  0
   30.3662    6.1802  -42.0705 C   0  0  0  0  0  0  0  0  0  0  0  0
   29.9804    7.2879  -43.0339 C   0  0  0  0  0  0  0  0  0  0  0  0
   28.4934    7.2180  -43.3360 C   0  0  0  0  0  0  0  0  0  0  0  0
   28.1046    8.3249  -44.3018 C   0  0  0  0  0  0  0  0  0  0  0  0
   26.6163    8.2636  -44.6085 C   0  0  0  0  0  0  0  0  0  0  0  0
   26.2310    9.3695  -45.5728 C   0  0  0  0  0  0  0  0  0  0  0  0
    9.7484    5.8784    5.4146 H   0  0  0  0  0  0  0  0  0  0  0  0
   11.3778    5.7166    4.5378 H   0  0  0  0  0  0  0  0  0  0  0  0
    8.5692    5.5729    3.3124 H   0  0  0  0  0  0  0  0  0  0  0  0
   11.4642    5.3756    2.1989 H   0  0  0  0  0  0  0  0  0  0  0  0
   10.1296    6.1491    1.3456 H   0  0  0  0  0  0  0  0  0  0  0  0
    8.9271    3.9497    1.2439 H   0  0  0  0  0  0  0  0  0  0  0  0
   10.2483    3.1832    2.1297 H   0  0  0  0  0  0  0  0  0  0  0  0
   11.8438    3.8269    0.3113 H   0  0  0  0  0  0  0  0  0  0  0  0
   10.5240    4.5964   -0.5742 H   0  0  0  0  0  0  0  0  0  0  0  0
    9.3047    2.4122   -0.6525 H   0  0  0  0  0  0  0  0  0  0  0  0
   10.6271    1.6429    0.2310 H   0  0  0  0  0  0  0  0  0  0  0  0
   12.2191    2.2916   -1.5998 H   0  0  0  0  0  0  0  0  0  0  0  0
   10.9085    3.0591   -2.4746 H   0  0  0  0  0  0  0  0  0  0  0  0
    9.6788    0.8828   -2.5732 H   0  0  0  0  0  0  0  0  0  0  0  0
   11.0261    0.1002   -1.6953 H   0  0  0  0  0  0  0  0  0  0  0  0
   15.4867   -1.4904   -5.2000 H   0  0  0  0  0  0  0  0  0  0  0  0
   15.4904    0.2782   -5.4596 H   0  0  0  0  0  0  0  0  0  0  0  0
   15.7189   -0.1020   -7.9186 H   0  0  0  0  0  0  0  0  0  0  0  0
   15.7130   -1.8349   -7.6642 H   0  0  0  0  0  0  0  0  0  0  0  0
   17.7575   -1.6396   -6.2232 H   0  0  0  0  0  0  0  0  0  0  0  0
   17.7628    0.1094   -6.4770 H   0  0  0  0  0  0  0  0  0  0  0  0
   17.9595   -0.2509   -8.9459 H   0  0  0  0  0  0  0  0  0  0  0  0
   17.9554   -1.9988   -8.6906 H   0  0  0  0  0  0  0  0  0  0  0  0
   19.9917   -1.7930   -7.2510 H   0  0  0  0  0  0  0  0  0  0  0  0
   19.9973   -0.0456   -7.5081 H   0  0  0  0  0  0  0  0  0  0  0  0
   20.2087   -0.4077   -9.9738 H   0  0  0  0  0  0  0  0  0  0  0  0
   20.2029   -2.1557   -9.7179 H   0  0  0  0  0  0  0  0  0  0  0  0
   22.2381   -1.9519   -8.2767 H   0  0  0  0  0  0  0  0  0  0  0  0
   22.2436   -0.2040   -8.5306 H   0  0  0  0  0  0  0  0  0  0  0  0
   22.4604   -0.5637  -10.9978 H   0  0  0  0  0  0  0  0  0  0  0  0
   22.4567   -2.3116  -10.7426 H   0  0  0  0  0  0  0  0  0  0  0  0
   24.4924   -2.1045   -9.3010 H   0  0  0  0  0  0  0  0  0  0  0  0
   24.4962   -0.3570   -9.5585 H   0  0  0  0  0  0  0  0  0  0  0  0
   24.7131   -0.7217  -12.0251 H   0  0  0  0  0  0  0  0  0  0  0  0
   24.7112   -2.4690  -11.7665 H   0  0  0  0  0  0  0  0  0  0  0  0
   26.7479   -2.2583  -10.3280 H   0  0  0  0  0  0  0  0  0  0  0  0
   26.7498   -0.5111  -10.5865 H   0  0  0  0  0  0  0  0  0  0  0  0
   26.9666   -0.8772  -13.0535 H   0  0  0  0  0  0  0  0  0  0  0  0
   26.9666   -2.6242  -12.7939 H   0  0  0  0  0  0  0  0  0  0  0  0
   29.0037   -2.4094  -11.3539 H   0  0  0  0  0  0  0  0  0  0  0  0
   29.0031   -0.6629  -11.6142 H   0  0  0  0  0  0  0  0  0  0  0  0
   29.2205   -1.0299  -14.0806 H   0  0  0  0  0  0  0  0  0  0  0  0
   29.2209   -2.7766  -13.8210 H   0  0  0  0  0  0  0  0  0  0  0  0
   31.2579   -2.5618  -12.3813 H   0  0  0  0  0  0  0  0  0  0  0  0
   31.2574   -0.8152  -12.6414 H   0  0  0  0  0  0  0  0  0  0  0  0
   31.4749   -1.1822  -15.1081 H   0  0  0  0  0  0  0  0  0  0  0  0
   31.4751   -2.9289  -14.8483 H   0  0  0  0  0  0  0  0  0  0  0  0
   33.5122   -2.7144  -13.4086 H   0  0  0  0  0  0  0  0  0  0  0  0
   33.5116   -0.9676  -13.6686 H   0  0  0  0  0  0  0  0  0  0  0  0
   33.7292   -1.3346  -16.1352 H   0  0  0  0  0  0  0  0  0  0  0  0
   33.7296   -3.0813  -15.8757 H   0  0  0  0  0  0  0  0  0  0  0  0
   35.7665   -2.8675  -14.4368 H   0  0  0  0  0  0  0  0  0  0  0  0
   35.7658   -1.1205  -14.6947 H   0  0  0  0  0  0  0  0  0  0  0  0
   35.9829   -1.4841  -17.1616 H   0  0  0  0  0  0  0  0  0  0  0  0
   35.9834   -3.2313  -16.9044 H   0  0  0  0  0  0  0  0  0  0  0  0
   38.0203   -3.0180  -15.4645 H   0  0  0  0  0  0  0  0  0  0  0  0
   38.0192   -1.2708  -15.7223 H   0  0  0  0  0  0  0  0  0  0  0  0
   38.2371   -1.6341  -18.1888 H   0  0  0  0  0  0  0  0  0  0  0  0
   38.2380   -3.3815  -17.9314 H   0  0  0  0  0  0  0  0  0  0  0  0
   40.2746   -3.1695  -16.4936 H   0  0  0  0  0  0  0  0  0  0  0  0
   40.2737   -1.4218  -16.7488 H   0  0  0  0  0  0  0  0  0  0  0  0
   40.4925   -1.7813  -19.2154 H   0  0  0  0  0  0  0  0  0  0  0  0
   40.4920   -3.5290  -18.9612 H   0  0  0  0  0  0  0  0  0  0  0  0
   42.5290   -3.3217  -17.5235 H   0  0  0  0  0  0  0  0  0  0  0  0
   42.5298   -1.5736  -17.7749 H   0  0  0  0  0  0  0  0  0  0  0  0
   42.7482   -1.9281  -20.2414 H   0  0  0  0  0  0  0  0  0  0  0  0
   42.7461   -3.6758  -19.9920 H   0  0  0  0  0  0  0  0  0  0  0  0
   44.7871   -3.4742  -18.5563 H   0  0  0  0  0  0  0  0  0  0  0  0
   44.7858   -1.7253  -18.8020 H   0  0  0  0  0  0  0  0  0  0  0  0
   44.9933   -2.0818  -21.2770 H   0  0  0  0  0  0  0  0  0  0  0  0
   44.9984   -3.8263  -21.0227 H   0  0  0  0  0  0  0  0  0  0  0  0
   47.0326   -3.6181  -19.5836 H   0  0  0  0  0  0  0  0  0  0  0  0
   47.0343   -1.8716  -19.8324 H   0  0  0  0  0  0  0  0  0  0  0  0
   47.2760   -2.2312  -22.3101 H   0  0  0  0  0  0  0  0  0  0  0  0
   47.2724   -3.9674  -22.0631 H   0  0  0  0  0  0  0  0  0  0  0  0
   49.2827   -3.7743  -20.5856 H   0  0  0  0  0  0  0  0  0  0  0  0
   49.2895   -2.0077  -20.8554 H   0  0  0  0  0  0  0  0  0  0  0  0
   51.4112   -3.9175  -21.5910 H   0  0  0  0  0  0  0  0  0  0  0  0
   51.3888   -2.1465  -21.8084 H   0  0  0  0  0  0  0  0  0  0  0  0
   51.7889   -1.2639  -23.9870 H   0  0  0  0  0  0  0  0  0  0  0  0
   50.4515   -2.2482  -24.6275 H   0  0  0  0  0  0  0  0  0  0  0  0
   50.8420   -3.6913  -26.3880 H   0  0  0  0  0  0  0  0  0  0  0  0
   52.1689   -4.4859  -25.4956 H   0  0  0  0  0  0  0  0  0  0  0  0
   52.5395   -5.9387  -27.3091 H   0  0  0  0  0  0  0  0  0  0  0  0
   52.8731   -5.2429  -28.9028 H   0  0  0  0  0  0  0  0  0  0  0  0
   51.1124   -4.2397  -30.1210 H   0  0  0  0  0  0  0  0  0  0  0  0
   50.7737   -3.1630  -28.7440 H   0  0  0  0  0  0  0  0  0  0  0  0
   48.5007   -4.1246  -28.5206 H   0  0  0  0  0  0  0  0  0  0  0  0
   48.8080   -5.1946  -29.8781 H   0  0  0  0  0  0  0  0  0  0  0  0
   49.2430   -3.1947  -31.3500 H   0  0  0  0  0  0  0  0  0  0  0  0
   48.9194   -2.1254  -29.9840 H   0  0  0  0  0  0  0  0  0  0  0  0
   46.6123   -3.0689  -29.7897 H   0  0  0  0  0  0  0  0  0  0  0  0
   46.9371   -4.1421  -31.1545 H   0  0  0  0  0  0  0  0  0  0  0  0
   47.3778   -2.1609  -32.6145 H   0  0  0  0  0  0  0  0  0  0  0  0
   47.0636   -1.0814  -31.2544 H   0  0  0  0  0  0  0  0  0  0  0  0
   44.7480   -2.0282  -31.0493 H   0  0  0  0  0  0  0  0  0  0  0  0
   45.0700   -3.1017  -32.4135 H   0  0  0  0  0  0  0  0  0  0  0  0
   45.5080   -1.1169  -33.8732 H   0  0  0  0  0  0  0  0  0  0  0  0
   45.1850   -0.0428  -32.5091 H   0  0  0  0  0  0  0  0  0  0  0  0
   42.8765   -0.9892  -32.3103 H   0  0  0  0  0  0  0  0  0  0  0  0
   43.1994   -2.0632  -33.6747 H   0  0  0  0  0  0  0  0  0  0  0  0
   43.6383   -0.0777  -35.1338 H   0  0  0  0  0  0  0  0  0  0  0  0
   43.3154    0.9964  -33.7693 H   0  0  0  0  0  0  0  0  0  0  0  0
   41.0072    0.0499  -33.5706 H   0  0  0  0  0  0  0  0  0  0  0  0
   41.3301   -1.0241  -34.9351 H   0  0  0  0  0  0  0  0  0  0  0  0
   41.7692    0.9616  -36.3940 H   0  0  0  0  0  0  0  0  0  0  0  0
   41.4464    2.0355  -35.0296 H   0  0  0  0  0  0  0  0  0  0  0  0
   39.1378    1.0883  -34.8305 H   0  0  0  0  0  0  0  0  0  0  0  0
   39.4607    0.0147  -36.1949 H   0  0  0  0  0  0  0  0  0  0  0  0
   39.9007    2.0005  -37.6536 H   0  0  0  0  0  0  0  0  0  0  0  0
   39.5779    3.0744  -36.2896 H   0  0  0  0  0  0  0  0  0  0  0  0
   37.2690    2.1273  -36.0908 H   0  0  0  0  0  0  0  0  0  0  0  0
   37.5922    1.0538  -37.4548 H   0  0  0  0  0  0  0  0  0  0  0  0
   38.0322    3.0403  -38.9136 H   0  0  0  0  0  0  0  0  0  0  0  0
   37.7073    4.1134  -37.5493 H   0  0  0  0  0  0  0  0  0  0  0  0
   35.3990    3.1645  -37.3530 H   0  0  0  0  0  0  0  0  0  0  0  0
   35.7243    2.0916  -38.7173 H   0  0  0  0  0  0  0  0  0  0  0  0
   36.1637    4.0785  -40.1753 H   0  0  0  0  0  0  0  0  0  0  0  0
   35.8386    5.1518  -38.8115 H   0  0  0  0  0  0  0  0  0  0  0  0
   33.5303    4.2014  -38.6144 H   0  0  0  0  0  0  0  0  0  0  0  0
   33.8559    3.1287  -39.9788 H   0  0  0  0  0  0  0  0  0  0  0  0
   34.2947    5.1151  -41.4367 H   0  0  0  0  0  0  0  0  0  0  0  0
   33.9694    6.1886  -40.0723 H   0  0  0  0  0  0  0  0  0  0  0  0
   31.6617    5.2403  -39.8767 H   0  0  0  0  0  0  0  0  0  0  0  0
   31.9872    4.1669  -41.2413 H   0  0  0  0  0  0  0  0  0  0  0  0
   32.4266    6.1542  -42.6984 H   0  0  0  0  0  0  0  0  0  0  0  0
   32.0991    7.2267  -41.3338 H   0  0  0  0  0  0  0  0  0  0  0  0
   29.7919    6.2762  -41.1408 H   0  0  0  0  0  0  0  0  0  0  0  0
   30.1196    5.2038  -42.5054 H   0  0  0  0  0  0  0  0  0  0  0  0
   30.5564    7.1911  -43.9625 H   0  0  0  0  0  0  0  0  0  0  0  0
   30.2287    8.2636  -42.5981 H   0  0  0  0  0  0  0  0  0  0  0  0
   27.9207    7.3148  -42.4054 H   0  0  0  0  0  0  0  0  0  0  0  0
   28.2481    6.2404  -43.7687 H   0  0  0  0  0  0  0  0  0  0  0  0
   28.6826    8.2252  -45.2291 H   0  0  0  0  0  0  0  0  0  0  0  0
   28.3576    9.2999  -43.8668 H   0  0  0  0  0  0  0  0  0  0  0  0
   26.0392    8.3651  -43.6820 H   0  0  0  0  0  0  0  0  0  0  0  0
   26.3643    7.2900  -45.0449 H   0  0  0  0  0  0  0  0  0  0  0  0
   26.4571   10.3507  -45.1434 H   0  0  0  0  0  0  0  0  0  0  0  0
   25.1624    9.3249  -45.7926 H   0  0  0  0  0  0  0  0  0  0  0  0
   26.7836    9.2707  -46.5126 H   0  0  0  0  0  0  0  0  0  0  0  0
  1  2  2  0  0  0  0
  1 81  1  0  0  0  0
  1 82  1  0  0  0  0
  2  3  1  0  0  0  0
  2 83  1  0  0  0  0
  3  4  1  0  0  0  0
  3 84  1  0  0  0  0
  3 85  1  0  0  0  0
  4  5  1  0  0  0  0
  4 86  1  0  0  0  0
  4 87  1  0  0  0  0
  5  6  1  0  0  0  0
  5 88  1  0  0  0  0
  5 89  1  0  0  0  0
  6  7  1  0  0  0  0
  6 90  1  0  0  0  0
  6 91  1  0  0  0  0
  7  8  1  0  0  0  0
  7 92  1  0  0  0  0
  7 93  1  0  0  0  0
  8  9  1  0  0  0  0
  8 94  1  0  0  0  0
  8 95  1  0  0  0  0
  9 10  1  0  0  0  0
 10 11  1  0  0  0  0
 11 12  1  0  0  0  0
 12 13  1  0  0  0  0
 13 14  1  0  0  0  0
 14 15  1  0  0  0  0
 14 96  1  0  0  0  0
 14 97  1  0  0  0  0
 15 16  1  0  0  0  0
 15 98  1  0  0  0  0
 15 99  1  0  0  0  0
 16 17  1  0  0  0  0
 16100  1  0  0  0  0
 16101  1  0  0  0  0
 17 18  1  0  0  0  0
 17102  1  0  0  0  0
 17103  1  0  0  0  0
 18 19  1  0  0  0  0
 18104  1  0  0  0  0
 18105  1  0  0  0  0
 19 20  1  0  0  0  0
 19106  1  0  0  0  0
 19107  1  0  0  0  0
 20 21  1  0  0  0  0
 20108  1  0  0  0  0
 20109  1  0  0  0  0
 21 22  1  0  0  0  0
 21110  1  0  0  0  0
 21111  1  0  0  0  0
 22 23  1  0  0  0  0
 22112  1  0  0  0  0
 22113  1  0  0  0  0
 23 24  1  0  0  0  0
 23114  1  0  0  0  0
 23115  1  0  0  0  0
 24 25  1  0  0  0  0
 24116  1  0  0  0  0
 24117  1  0  0  0  0
 25 26  1  0  0  0  0
 25118  1  0  0  0  0
 25119  1  0  0  0  0
 26 27  1  0  0  0  0
 26120  1  0  0  0  0
 26121  1  0  0  0  0
 27 28  1  0  0  0  0
 27122  1  0  0  0  0
 27123  1  0  0  0  0
 28 29  1  0  0  0  0
 28124  1  0  0  0  0
 28125  1  0  0  0  0
 29 30  1  0  0  0  0
 29126  1  0  0  0  0
 29127  1  0  0  0  0
 30 31  1  0  0  0  0
 30128  1  0  0  0  0
 30129  1  0  0  0  0
 31 32  1  0  0  0  0
 31130  1  0  0  0  0
 31131  1  0  0  0  0
 32 33  1  0  0  0  0
 32132  1  0  0  0  0
 32133  1  0  0  0  0
 33 34  1  0  0  0  0
 33134  1  0  0  0  0
 33135  1  0  0  0  0
 34 35  1  0  0  0  0
 34136  1  0  0  0  0
 34137  1  0  0  0  0
 35 36  1  0  0  0  0
 35138  1  0  0  0  0
 35139  1  0  0  0  0
 36 37  1  0  0  0  0
 36140  1  0  0  0  0
 36141  1  0  0  0  0
 37 38  1  0  0  0  0
 37142  1  0  0  0  0
 37143  1  0  0  0  0
 38 39  1  0  0  0  0
 38144  1  0  0  0  0
 38145  1  0  0  0  0
 39 40  1  0  0  0  0
 39146  1  0  0  0  0
 39147  1  0  0  0  0
 40 41  1  0  0  0  0
 40148  1  0  0  0  0
 40149  1  0  0  0  0
 41 42  1  0  0  0  0
 41150  1  0  0  0  0
 41151  1  0  0  0  0
 42 43  1  0  0  0  0
 42152  1  0  0  0  0
 42153  1  0  0  0  0
 43 44  1  0  0  0  0
 43154  1  0  0  0  0
 43155  1  0  0  0  0
 44 45  1  0  0  0  0
 44156  1  0  0  0  0
 44157  1  0  0  0  0
 45 46  1  0  0  0  0
 46 47  1  0  0  0  0
 46158  1  0  0  0  0
 46159  1  0  0  0  0
 47 48  1  0  0  0  0
 48 49  1  0  0  0  0
 48160  1  0  0  0  0
 48161  1  0  0  0  0
 49 50  1  0  0  0  0
 50 51  1  0  0  0  0
 50162  1  0  0  0  0
 50163  1  0  0  0  0
 51 52  1  0  0  0  0
 52 53  1  0  0  0  0
 52164  1  0  0  0  0
 52165  1  0  0  0  0
 53 54  1  0  0  0  0
 54 55  1  0  0  0  0
 54166  1  0  0  0  0
 54167  1  0  0  0  0
 55 56  1  0  0  0  0
 55168  1  0  0  0  0
 55169  1  0  0  0  0
 56 57  1  0  0  0  0
 56170  1  0  0  0  0
 56171  1  0  0  0  0
 57 58  1  0  0  0  0
 57172  1  0  0  0  0
 57173  1  0  0  0  0
 58 59  1  0  0  0  0
 58174  1  0  0  0  0
 58175  1  0  0  0  0
 59 60  1  0  0  0  0
 59176  1  0  0  0  0
 59177  1  0  0  0  0
 60 61  1  0  0  0  0
 60178  1  0  0  0  0
 60179  1  0  0  0  0
 61 62  1  0  0  0  0
 61180  1  0  0  0  0
 61181  1  0  0  0  0
 62 63  1  0  0  0  0
 62182  1  0  0  0  0
 62183  1  0  0  0  0
 63 64  1  0  0  0  0
 63184  1  0  0  0  0
 63185  1  0  0  0  0
 64 65  1  0  0  0  0
 64186  1  0  0  0  0
 64187  1  0  0  0  0
 65 66  1  0  0  0  0
 65188  1  0  0  0  0
 65189  1  0  0  0  0
 66 67  1  0  0  0  0
 66190  1  0  0  0  0
 66191  1  0  0  0  0
 67 68  1  0  0  0  0
 67192  1  0  0  0  0
 67193  1  0  0  0  0
 68 69  1  0  0  0  0
 68194  1  0  0  0  0
 68195  1  0  0  0  0
 69 70  1  0  0  0  0
 69196  1  0  0  0  0
 69197  1  0  0  0  0
 70 71  1  0  0  0  0
 70198  1  0  0  0  0
 70199  1  0  0  0  0
 71 72  1  0  0  0  0
 71200  1  0  0  0  0
 71201  1  0  0  0  0
 72 73  1  0  0  0  0
 72202  1  0  0  0  0
 72203  1  0  0  0  0
 73 74  1  0  0  0  0
 73204  1  0  0  0  0
 73205  1  0  0  0  0
 74 75  1  0  0  0  0
 74206  1  0  0  0  0
 74207  1  0  0  0  0
 75 76  1  0  0  0  0
 75208  1  0  0  0  0
 75209  1  0  0  0  0
 76 77  1  0  0  0  0
 76210  1  0  0  0  0
 76211  1  0  0  0  0
 77 78  1  0  0  0  0
 77212  1  0  0  0  0
 77213  1  0  0  0  0
 78 79  1  0  0  0  0
 78214  1  0  0  0  0
 78215  1  0  0  0  0
 79 80  1  0  0  0  0
 79216  1  0  0  0  0
 79217  1  0  0  0  0
 80218  1  0  0  0  0
 80219  1  0  0  0  0
 80220  1  0  0  0  0
M  END
$$$$
