
 OpenBabel04232216553D

 58 59  0  0  0  0  0  0  0  0999 V2000
    9.2088   -3.1918   -0.2873 C   0  0  0  0  0  0  0  0  0  0  0  0
    7.9043   -2.4503   -0.5138 C   0  0  0  0  0  0  0  0  0  0  0  0
    7.8920   -1.0414    0.0666 C   0  0  0  0  0  0  0  0  0  0  0  0
    6.6405   -0.3314   -0.2108 N   0  0  0  0  0  0  0  0  0  0  0  0
    6.6273    0.7891   -1.0227 C   0  0  0  0  0  0  0  0  0  0  0  0
    5.3405    1.2249   -1.1576 C   0  0  0  0  0  0  0  0  0  0  0  0
    4.8676    2.3984   -1.9477 C   0  0  0  0  0  0  0  0  0  0  0  0
    4.5358    0.3540   -0.3944 C   0  0  0  0  0  0  0  0  0  0  0  0
    5.3336   -0.6455    0.1732 C   0  0  0  0  0  0  0  0  0  0  0  0
    4.8712   -1.7350    1.0434 C   0  0  0  0  0  0  0  0  0  0  0  0
    5.5682   -2.2109    1.9360 O   0  0  0  0  0  0  0  0  0  0  0  0
    3.4455   -2.2613    0.9015 C   0  0  0  0  0  0  0  0  0  0  0  0
    2.7461   -2.7040    2.0352 C   0  0  0  0  0  0  0  0  0  0  0  0
    1.3857   -3.0423    1.9531 C   0  0  0  0  0  0  0  0  0  0  0  0
    0.6862   -2.9130    0.7470 C   0  0  0  0  0  0  0  0  0  0  0  0
   -0.8203   -3.0694    0.7162 C   0  0  0  0  0  0  0  0  0  0  0  0
   -1.5744   -2.0627    1.6070 C   0  0  0  0  0  0  0  0  0  0  0  0
   -1.3440   -0.5983    1.2204 C   0  0  0  0  0  0  0  0  0  0  0  0
   -2.1258    0.3380    2.1457 C   0  0  0  0  0  0  0  0  0  0  0  0
   -1.8984    1.8027    1.7756 C   0  0  0  0  0  0  0  0  0  0  0  0
   -2.6794    2.7342    2.7022 C   0  0  0  0  0  0  0  0  0  0  0  0
   -2.4504    4.1976    2.3297 C   0  0  0  0  0  0  0  0  0  0  0  0
   -3.2236    5.1300    3.2471 C   0  0  0  0  0  0  0  0  0  0  0  0
    1.4170   -2.6043   -0.4097 C   0  0  0  0  0  0  0  0  0  0  0  0
    2.7875   -2.2999   -0.3339 C   0  0  0  0  0  0  0  0  0  0  0  0
    9.1810   -4.1439   -0.8324 H   0  0  0  0  0  0  0  0  0  0  0  0
    9.3718   -3.4193    0.7699 H   0  0  0  0  0  0  0  0  0  0  0  0
   10.0719   -2.6223   -0.6576 H   0  0  0  0  0  0  0  0  0  0  0  0
    7.0880   -3.0360   -0.0836 H   0  0  0  0  0  0  0  0  0  0  0  0
    7.7215   -2.3940   -1.5923 H   0  0  0  0  0  0  0  0  0  0  0  0
    8.6964   -0.4626   -0.4106 H   0  0  0  0  0  0  0  0  0  0  0  0
    8.0754   -1.0075    1.1457 H   0  0  0  0  0  0  0  0  0  0  0  0
    7.5486    1.1784   -1.4385 H   0  0  0  0  0  0  0  0  0  0  0  0
    5.7057    2.9177   -2.4199 H   0  0  0  0  0  0  0  0  0  0  0  0
    4.3411    3.1105   -1.3037 H   0  0  0  0  0  0  0  0  0  0  0  0
    4.1824    2.0681   -2.7369 H   0  0  0  0  0  0  0  0  0  0  0  0
    3.4681    0.4345   -0.2535 H   0  0  0  0  0  0  0  0  0  0  0  0
    3.2422   -2.7587    3.0023 H   0  0  0  0  0  0  0  0  0  0  0  0
    0.8597   -3.3688    2.8512 H   0  0  0  0  0  0  0  0  0  0  0  0
   -1.0735   -4.0825    1.0519 H   0  0  0  0  0  0  0  0  0  0  0  0
   -1.1919   -2.9834   -0.3125 H   0  0  0  0  0  0  0  0  0  0  0  0
   -1.2923   -2.2034    2.6576 H   0  0  0  0  0  0  0  0  0  0  0  0
   -2.6493   -2.2784    1.5468 H   0  0  0  0  0  0  0  0  0  0  0  0
   -1.6513   -0.4356    0.1805 H   0  0  0  0  0  0  0  0  0  0  0  0
   -0.2774   -0.3556    1.2880 H   0  0  0  0  0  0  0  0  0  0  0  0
   -1.8138    0.1720    3.1842 H   0  0  0  0  0  0  0  0  0  0  0  0
   -3.1962    0.1059    2.0896 H   0  0  0  0  0  0  0  0  0  0  0  0
   -2.2074    1.9722    0.7370 H   0  0  0  0  0  0  0  0  0  0  0  0
   -0.8284    2.0355    1.8380 H   0  0  0  0  0  0  0  0  0  0  0  0
   -2.3701    2.5655    3.7411 H   0  0  0  0  0  0  0  0  0  0  0  0
   -3.7498    2.5016    2.6428 H   0  0  0  0  0  0  0  0  0  0  0  0
   -2.7619    4.3708    1.2931 H   0  0  0  0  0  0  0  0  0  0  0  0
   -1.3818    4.4344    2.3917 H   0  0  0  0  0  0  0  0  0  0  0  0
   -4.2993    4.9374    3.1844 H   0  0  0  0  0  0  0  0  0  0  0  0
   -3.0469    6.1721    2.9639 H   0  0  0  0  0  0  0  0  0  0  0  0
   -2.9113    5.0022    4.2885 H   0  0  0  0  0  0  0  0  0  0  0  0
    0.9233   -2.5637   -1.3787 H   0  0  0  0  0  0  0  0  0  0  0  0
    3.3240   -2.0663   -1.2503 H   0  0  0  0  0  0  0  0  0  0  0  0
  1  2  1  0  0  0  0
  1 26  1  0  0  0  0
  1 27  1  0  0  0  0
  1 28  1  0  0  0  0
  2  3  1  0  0  0  0
  2 29  1  0  0  0  0
  2 30  1  0  0  0  0
  3  4  1  0  0  0  0
  3 31  1  0  0  0  0
  3 32  1  0  0  0  0
  4  5  1  0  0  0  0
  4  9  1  0  0  0  0
  5  6  2  0  0  0  0
  5 33  1  0  0  0  0
  6  7  1  0  0  0  0
  6  8  1  0  0  0  0
  7 34  1  0  0  0  0
  7 35  1  0  0  0  0
  7 36  1  0  0  0  0
  8  9  2  0  0  0  0
  8 37  1  0  0  0  0
  9 10  1  0  0  0  0
 10 11  2  0  0  0  0
 10 12  1  0  0  0  0
 12 13  1  0  0  0  0
 12 25  2  0  0  0  0
 13 14  2  0  0  0  0
 13 38  1  0  0  0  0
 14 15  1  0  0  0  0
 14 39  1  0  0  0  0
 15 16  1  0  0  0  0
 15 24  2  0  0  0  0
 16 17  1  0  0  0  0
 16 40  1  0  0  0  0
 16 41  1  0  0  0  0
 17 18  1  0  0  0  0
 17 42  1  0  0  0  0
 17 43  1  0  0  0  0
 18 19  1  0  0  0  0
 18 44  1  0  0  0  0
 18 45  1  0  0  0  0
 19 20  1  0  0  0  0
 19 46  1  0  0  0  0
 19 47  1  0  0  0  0
 20 21  1  0  0  0  0
 20 48  1  0  0  0  0
 20 49  1  0  0  0  0
 21 22  1  0  0  0  0
 21 50  1  0  0  0  0
 21 51  1  0  0  0  0
 22 23  1  0  0  0  0
 22 52  1  0  0  0  0
 22 53  1  0  0  0  0
 23 54  1  0  0  0  0
 23 55  1  0  0  0  0
 23 56  1  0  0  0  0
 24 25  1  0  0  0  0
 24 57  1  0  0  0  0
 25 58  1  0  0  0  0
M  END
$$$$
