
 OpenBabel04232216523D

 81 81  0  0  1  0  0  0  0  0999 V2000
    3.2888   -0.9669   -0.5195 C   0  0  0  0  0  0  0  0  0  0  0  0
    5.1601   -1.5576   -1.3122 C   0  0  0  0  0  0  0  0  0  0  0  0
    7.1205   -2.6888   -1.3474 C   0  0  0  0  0  0  0  0  0  0  0  0
    9.0234   -3.6623   -2.3630 C   0  0  3  0  0  0  0  0  0  0  0  0
    7.1052   -2.9163   -2.6386 C   0  0  0  0  0  0  0  0  0  0  0  0
    7.4870   -1.5154   -3.1541 C   0  0  0  0  0  0  0  0  0  0  0  0
    7.6354   -2.5157   -4.2206 C   0  0  0  0  0  0  0  0  0  0  0  0
    9.1067   -2.3332   -4.2371 C   0  0  0  0  0  0  0  0  0  0  0  0
    9.1778   -3.5963   -4.9336 C   0  0  0  0  0  0  0  0  0  0  0  0
   10.4922   -3.5094   -5.4227 C   0  0  0  0  0  0  0  0  0  0  0  0
   10.4463   -4.7891   -6.1476 C   0  0  0  0  0  0  0  0  0  0  0  0
   11.8133   -5.0717   -6.0570 C   0  0  0  0  0  0  0  0  0  0  0  0
   12.5698   -5.4723   -7.1716 C   0  0  0  0  0  0  0  0  0  0  0  0
   13.7464   -4.4433   -7.1297 C   0  0  0  0  0  0  0  0  0  0  0  0
   14.0595   -3.3127   -6.7393 O   0  0  0  0  0  0  0  0  0  0  0  0
   14.7079   -5.3767   -6.9149 C   0  0  0  0  0  0  0  0  0  0  0  0
   14.2570   -4.9864   -5.3783 C   0  0  0  0  0  0  0  0  0  0  0  0
   12.9015   -5.2685   -4.0049 C   0  0  0  0  0  0  0  0  0  0  0  0
   14.6763   -6.2804   -5.1756 C   0  0  0  0  0  0  0  0  0  0  0  0
   16.4981   -6.7166   -6.5528 C   0  0  0  0  0  0  0  0  0  0  0  0
   18.1379   -7.1217   -8.1619 C   0  0  0  0  0  0  0  0  0  0  0  0
   20.0013   -7.7536   -9.2578 C   0  0  0  0  0  0  0  0  0  0  0  0
   21.2181   -8.0715  -10.9851 C   0  0  0  0  0  0  0  0  0  0  0  0
   22.1893   -7.1590  -12.3678 C   0  0  0  0  0  0  0  0  0  0  0  0
   23.3663   -6.2321  -11.9548 C   0  0  0  0  0  0  0  0  0  0  0  0
   23.6740   -5.0733  -12.9402 C   0  0  0  0  0  0  0  0  0  0  0  0
   24.5920   -4.0455  -12.2694 C   0  0  0  0  0  0  0  0  0  0  0  0
   24.8394   -2.8384  -13.1644 C   0  0  0  0  0  0  0  0  0  0  0  0
   25.7232   -1.8187  -12.4877 C   0  0  0  0  0  0  0  0  0  0  0  0
   26.1916   -1.9429  -11.3606 O   0  0  0  0  0  0  0  0  0  0  0  0
   11.0840   -4.5133   -3.1715 C   0  0  0  0  0  0  0  0  0  0  0  0
    2.5658    0.0446   -1.0322 H   0  0  0  0  0  0  0  0  0  0  0  0
    2.9495   -0.3133    0.5074 H   0  0  0  0  0  0  0  0  0  0  0  0
    2.0945   -1.4435   -0.6301 H   0  0  0  0  0  0  0  0  0  0  0  0
    5.1497   -0.3159   -1.2713 H   0  0  0  0  0  0  0  0  0  0  0  0
    4.3403   -1.5240   -2.2776 H   0  0  0  0  0  0  0  0  0  0  0  0
    6.1356   -3.3694   -0.9797 H   0  0  0  0  0  0  0  0  0  0  0  0
    7.2073   -1.8421   -0.5653 H   0  0  0  0  0  0  0  0  0  0  0  0
    9.3744   -3.0718   -1.4611 H   0  0  0  0  0  0  0  0  0  0  0  0
    6.0613   -2.2977   -3.1489 H   0  0  0  0  0  0  0  0  0  0  0  0
    6.0745   -3.6629   -2.6917 H   0  0  0  0  0  0  0  0  0  0  0  0
    8.3183   -1.1860   -2.5101 H   0  0  0  0  0  0  0  0  0  0  0  0
    6.7611   -0.6777   -3.0226 H   0  0  0  0  0  0  0  0  0  0  0  0
    6.8991   -2.3522   -4.9959 H   0  0  0  0  0  0  0  0  0  0  0  0
    7.3016   -3.7824   -4.1011 H   0  0  0  0  0  0  0  0  0  0  0  0
    9.8869   -2.3390   -3.3973 H   0  0  0  0  0  0  0  0  0  0  0  0
    9.3282   -1.3084   -4.4667 H   0  0  0  0  0  0  0  0  0  0  0  0
    8.4944   -3.6010   -5.7702 H   0  0  0  0  0  0  0  0  0  0  0  0
    8.9384   -4.5419   -4.3384 H   0  0  0  0  0  0  0  0  0  0  0  0
   11.2531   -3.5995   -4.6965 H   0  0  0  0  0  0  0  0  0  0  0  0
   10.9837   -2.5302   -5.4541 H   0  0  0  0  0  0  0  0  0  0  0  0
   10.1266   -4.6324   -7.1443 H   0  0  0  0  0  0  0  0  0  0  0  0
    9.9829   -5.6479   -5.5824 H   0  0  0  0  0  0  0  0  0  0  0  0
   11.7670   -5.9416   -5.3825 H   0  0  0  0  0  0  0  0  0  0  0  0
   12.3444   -4.1557   -5.7397 H   0  0  0  0  0  0  0  0  0  0  0  0
   12.2228   -5.4957   -8.1575 H   0  0  0  0  0  0  0  0  0  0  0  0
   12.7827   -6.5396   -6.7811 H   0  0  0  0  0  0  0  0  0  0  0  0
   14.4630   -6.3477   -7.5462 H   0  0  0  0  0  0  0  0  0  0  0  0
   15.3025   -4.4660   -5.1275 H   0  0  0  0  0  0  0  0  0  0  0  0
   14.4853   -7.3469   -5.3516 H   0  0  0  0  0  0  0  0  0  0  0  0
   15.6203   -6.2586   -4.3839 H   0  0  0  0  0  0  0  0  0  0  0  0
   16.5656   -7.8212   -6.6895 H   0  0  0  0  0  0  0  0  0  0  0  0
   17.5035   -6.3333   -6.1088 H   0  0  0  0  0  0  0  0  0  0  0  0
   18.6096   -6.1742   -8.7033 H   0  0  0  0  0  0  0  0  0  0  0  0
   17.8159   -7.8081   -9.0701 H   0  0  0  0  0  0  0  0  0  0  0  0
   20.4108   -8.8771   -9.0876 H   0  0  0  0  0  0  0  0  0  0  0  0
   21.0465   -7.2608   -8.9515 H   0  0  0  0  0  0  0  0  0  0  0  0
   20.9896   -8.9682  -11.7014 H   0  0  0  0  0  0  0  0  0  0  0  0
   22.3217   -8.6234  -10.7936 H   0  0  0  0  0  0  0  0  0  0  0  0
   21.4581   -6.6483  -12.9915 H   0  0  0  0  0  0  0  0  0  0  0  0
   22.7265   -7.7750  -13.2039 H   0  0  0  0  0  0  0  0  0  0  0  0
   24.3260   -6.7619  -11.7915 H   0  0  0  0  0  0  0  0  0  0  0  0
   23.0369   -5.8236  -11.0121 H   0  0  0  0  0  0  0  0  0  0  0  0
   22.7380   -4.5827  -13.2242 H   0  0  0  0  0  0  0  0  0  0  0  0
   24.1510   -5.4185  -13.8710 H   0  0  0  0  0  0  0  0  0  0  0  0
   25.5510   -4.5111  -12.0074 H   0  0  0  0  0  0  0  0  0  0  0  0
   24.1339   -3.7126  -11.3296 H   0  0  0  0  0  0  0  0  0  0  0  0
   23.8923   -2.3494  -13.4164 H   0  0  0  0  0  0  0  0  0  0  0  0
   25.3273   -3.1452  -14.0955 H   0  0  0  0  0  0  0  0  0  0  0  0
   25.9396   -0.9164  -13.0839 H   0  0  0  0  0  0  0  0  0  0  0  0
   11.1982   -4.4582   -2.0832 H   0  0  0  0  0  0  0  0  0  0  0  0
  1  2  1  0  0  0  0
  1 32  1  0  0  0  0
  1 33  1  0  0  0  0
  1 34  1  0  0  0  0
  2  3  1  0  0  0  0
  2 35  1  0  0  0  0
  2 36  1  0  0  0  0
  3  4  1  0  0  0  0
  3 37  1  0  0  0  0
  3 38  1  0  0  0  0
  4  5  1  0  0  0  0
  4 31  1  0  0  0  0
  4 39  1  0  0  0  0
  5  6  1  0  0  0  0
  5 40  1  0  0  0  0
  5 41  1  0  0  0  0
  6  7  1  0  0  0  0
  6 42  1  0  0  0  0
  6 43  1  0  0  0  0
  7  8  1  0  0  0  0
  7 44  1  0  0  0  0
  7 45  1  0  0  0  0
  8  9  1  0  0  0  0
  8 46  1  0  0  0  0
  8 47  1  0  0  0  0
  9 10  1  0  0  0  0
  9 48  1  0  0  0  0
  9 49  1  0  0  0  0
 10 11  1  0  0  0  0
 10 50  1  0  0  0  0
 10 51  1  0  0  0  0
 11 12  1  0  0  0  0
 11 52  1  0  0  0  0
 11 53  1  0  0  0  0
 12 13  1  0  0  0  0
 12 54  1  0  0  0  0
 12 55  1  0  0  0  0
 13 14  1  0  0  0  0
 13 56  1  0  0  0  0
 13 57  1  0  0  0  0
 14 15  2  0  0  0  0
 14 16  1  0  0  0  0
 16 17  2  3  0  0  0
 16 58  1  0  0  0  0
 17 18  1  0  0  0  0
 17 59  1  0  0  0  0
 18 19  1  0  0  0  0
 18 31  2  3  0  0  0
 19 20  1  0  0  0  0
 19 60  1  0  0  0  0
 19 61  1  0  0  0  0
 20 21  1  0  0  0  0
 20 62  1  0  0  0  0
 20 63  1  0  0  0  0
 21 22  1  0  0  0  0
 21 64  1  0  0  0  0
 21 65  1  0  0  0  0
 22 23  1  0  0  0  0
 22 66  1  0  0  0  0
 22 67  1  0  0  0  0
 23 24  1  0  0  0  0
 23 68  1  0  0  0  0
 23 69  1  0  0  0  0
 24 25  1  0  0  0  0
 24 70  1  0  0  0  0
 24 71  1  0  0  0  0
 25 26  1  0  0  0  0
 25 72  1  0  0  0  0
 25 73  1  0  0  0  0
 26 27  1  0  0  0  0
 26 74  1  0  0  0  0
 26 75  1  0  0  0  0
 27 28  1  0  0  0  0
 27 76  1  0  0  0  0
 27 77  1  0  0  0  0
 28 29  1  0  0  0  0
 28 78  1  0  0  0  0
 28 79  1  0  0  0  0
 29 30  2  0  0  0  0
 29 80  1  0  0  0  0
 31 81  1  0  0  0  0
M  END
$$$$
