
 OpenBabel04232216513D

 51 52  0  0  1  0  0  0  0  0999 V2000
    0.6881   -0.0885    2.5450 C   0  0  0  0  0  0  0  0  0  0  0  0
    2.1948   -0.1042    2.7471 C   0  0  0  0  0  0  0  0  0  0  0  0
    2.9503   -0.1146    1.4170 C   0  0  0  0  0  0  0  0  0  0  0  0
    4.4845   -0.1354    1.5579 C   0  0  3  0  0  0  0  0  0  0  0  0
    5.0709   -1.3768    2.1843 C   0  0  0  0  0  0  0  0  0  0  0  0
    4.8931   -1.6943    3.6355 C   0  0  0  0  0  0  0  0  0  0  0  0
    6.0439   -2.4695    4.2754 C   0  0  0  0  0  0  0  0  0  0  0  0
    5.7579   -2.7414    5.7437 C   0  0  0  0  0  0  0  0  0  0  0  0
    5.7870   -2.0605    1.2663 C   0  0  0  0  0  0  0  0  0  0  0  0
    5.7811   -1.3412    0.0078 C   0  0  0  0  0  0  0  0  0  0  0  0
    6.4736   -1.8777   -1.2154 C   0  0  0  0  0  0  0  0  0  0  0  0
    7.3640   -2.7261   -1.0565 O   0  0  0  0  0  0  0  0  0  0  0  0
    6.0027   -1.3515   -2.5438 C   0  0  0  0  0  0  0  0  0  0  0  0
    6.8890   -1.6428   -3.8084 C   0  0  0  0  0  0  0  0  0  0  0  0
    6.5170   -1.0970   -5.0592 C   0  0  0  0  0  0  0  0  0  0  0  0
    7.3873   -1.2968   -6.2269 N   0  0  0  0  0  0  0  0  0  0  0  0
    7.2096   -2.4735   -7.0661 C   0  0  0  0  0  0  0  0  0  0  0  0
    8.5488   -2.8643   -7.6804 C   0  0  0  0  0  0  0  0  0  0  0  0
    8.4087   -4.1015   -8.5652 C   0  0  0  0  0  0  0  0  0  0  0  0
    9.7408   -4.4994   -9.1791 C   0  0  0  0  0  0  0  0  0  0  0  0
    4.8116   -0.7055   -2.7711 C   0  0  0  0  0  0  0  0  0  0  0  0
    5.1005   -0.1945    0.1827 C   0  0  0  0  0  0  0  0  0  0  0  0
    0.1813   -0.1141    3.5152 H   0  0  0  0  0  0  0  0  0  0  0  0
    0.3645   -0.9657    1.9748 H   0  0  0  0  0  0  0  0  0  0  0  0
    0.3897    0.8017    2.0093 H   0  0  0  0  0  0  0  0  0  0  0  0
    2.4150   -1.0015    3.3232 H   0  0  0  0  0  0  0  0  0  0  0  0
    2.4994    0.7581    3.3484 H   0  0  0  0  0  0  0  0  0  0  0  0
    2.6601    0.7815    0.8477 H   0  0  0  0  0  0  0  0  0  0  0  0
    2.6141   -0.9744    0.8223 H   0  0  0  0  0  0  0  0  0  0  0  0
    4.8437    0.7607    2.0767 H   0  0  0  0  0  0  0  0  0  0  0  0
    3.9745   -2.2758    3.7628 H   0  0  0  0  0  0  0  0  0  0  0  0
    4.7662   -0.7520    4.1826 H   0  0  0  0  0  0  0  0  0  0  0  0
    6.9756   -1.8987    4.1840 H   0  0  0  0  0  0  0  0  0  0  0  0
    6.1905   -3.4269    3.7630 H   0  0  0  0  0  0  0  0  0  0  0  0
    5.6337   -1.8064    6.2998 H   0  0  0  0  0  0  0  0  0  0  0  0
    6.5828   -3.3011    6.1913 H   0  0  0  0  0  0  0  0  0  0  0  0
    4.8420   -3.3311    5.8583 H   0  0  0  0  0  0  0  0  0  0  0  0
    6.3387   -2.9738    1.4191 H   0  0  0  0  0  0  0  0  0  0  0  0
    7.8231   -2.2138   -3.6792 H   0  0  0  0  0  0  0  0  0  0  0  0
    7.6653   -0.4649   -6.7464 H   0  0  0  0  0  0  0  0  0  0  0  0
    6.4781   -2.2451   -7.8505 H   0  0  0  0  0  0  0  0  0  0  0  0
    6.8150   -3.3094   -6.4744 H   0  0  0  0  0  0  0  0  0  0  0  0
    9.2764   -3.0601   -6.8826 H   0  0  0  0  0  0  0  0  0  0  0  0
    8.9469   -2.0286   -8.2697 H   0  0  0  0  0  0  0  0  0  0  0  0
    7.6863   -3.9060   -9.3662 H   0  0  0  0  0  0  0  0  0  0  0  0
    8.0201   -4.9393   -7.9746 H   0  0  0  0  0  0  0  0  0  0  0  0
   10.1421   -3.6925   -9.8005 H   0  0  0  0  0  0  0  0  0  0  0  0
    9.6180   -5.3856   -9.8093 H   0  0  0  0  0  0  0  0  0  0  0  0
   10.4758   -4.7334   -8.4023 H   0  0  0  0  0  0  0  0  0  0  0  0
    4.1446   -0.2282   -3.4875 H   0  0  0  0  0  0  0  0  0  0  0  0
    4.9658    0.5958   -0.5522 H   0  0  0  0  0  0  0  0  0  0  0  0
  1  2  1  0  0  0  0
  1 23  1  0  0  0  0
  1 24  1  0  0  0  0
  1 25  1  0  0  0  0
  2  3  1  0  0  0  0
  2 26  1  0  0  0  0
  2 27  1  0  0  0  0
  3  4  1  0  0  0  0
  3 28  1  0  0  0  0
  3 29  1  0  0  0  0
  4  5  1  0  0  0  0
  4 22  1  0  0  0  0
  4 30  1  0  0  0  0
  5  6  1  0  0  0  0
  5  9  2  0  0  0  0
  6  7  1  0  0  0  0
  6 31  1  0  0  0  0
  6 32  1  0  0  0  0
  7  8  1  0  0  0  0
  7 33  1  0  0  0  0
  7 34  1  0  0  0  0
  8 35  1  0  0  0  0
  8 36  1  0  0  0  0
  8 37  1  0  0  0  0
  9 10  1  0  0  0  0
  9 38  1  0  0  0  0
 10 11  1  0  0  0  0
 10 22  2  0  0  0  0
 11 12  2  0  0  0  0
 11 13  1  0  0  0  0
 13 14  1  0  0  0  0
 13 21  2  0  0  0  0
 14 15  2  0  0  0  0
 14 39  1  0  0  0  0
 15 16  1  0  0  0  0
 15 21  1  0  0  0  0
 16 17  1  0  0  0  0
 16 40  1  0  0  0  0
 17 18  1  0  0  0  0
 17 41  1  0  0  0  0
 17 42  1  0  0  0  0
 18 19  1  0  0  0  0
 18 43  1  0  0  0  0
 18 44  1  0  0  0  0
 19 20  1  0  0  0  0
 19 45  1  0  0  0  0
 19 46  1  0  0  0  0
 20 47  1  0  0  0  0
 20 48  1  0  0  0  0
 20 49  1  0  0  0  0
 21 50  1  0  0  0  0
 22 51  1  0  0  0  0
M  END
$$$$
