
 OpenBabel04232216403D

 53 54  0  0  0  0  0  0  0  0999 V2000
    4.0027   -0.3272    1.5714 C   0  0  0  0  0  0  0  0  0  0  0  0
    3.6476   -0.9888    0.4657 C   0  0  0  0  0  0  0  0  0  0  0  0
    4.2439   -0.9250   -0.9173 C   0  0  0  0  0  0  0  0  0  0  0  0
    5.4691   -0.0593   -1.3626 C   0  0  0  0  0  0  0  0  0  0  0  0
    6.8588   -0.2124   -0.7950 N   0  0  0  0  0  0  0  0  0  0  0  0
    7.1815   -1.0203    0.3266 C   0  0  0  0  0  0  0  0  0  0  0  0
    6.6559   -2.4903    0.1018 C   0  0  0  0  0  0  0  0  0  0  0  0
    7.7583   -3.4686    0.0094 N   0  0  0  0  0  0  0  0  0  0  0  0
    7.3571   -4.7033   -0.6896 C   0  0  0  0  0  0  0  0  0  0  0  0
    7.3877   -4.5776   -2.2293 C   0  0  0  0  0  0  0  0  0  0  0  0
    7.0104   -5.8935   -2.9276 C   0  0  0  0  0  0  0  0  0  0  0  0
    7.0328   -5.7651   -4.4473 C   0  0  0  0  0  0  0  0  0  0  0  0
    7.9511   -0.8356    1.3783 N   0  0  0  0  0  0  0  0  0  0  0  0
    8.7724    0.3140    1.7085 N   0  0  0  0  0  0  0  0  0  0  0  0
    8.2359    1.6067    1.5319 N   0  0  0  0  0  0  0  0  0  0  0  0
    9.0090    2.4437    2.0870 N   0  0  0  0  0  0  0  0  0  0  0  0
    9.8855    3.0808    1.1710 N   0  0  0  0  0  0  0  0  0  0  0  0
   11.1269    2.7262    1.3363 C   0  0  0  0  0  0  0  0  0  0  0  0
   11.5785    1.6854    2.3401 C   0  0  0  0  0  0  0  0  0  0  0  0
   12.3825    2.2623    3.4766 C   0  0  0  0  0  0  0  0  0  0  0  0
   11.2375    0.4283    2.2632 N   0  0  0  0  0  0  0  0  0  0  0  0
   10.1983    0.1852    1.3661 C   0  0  0  0  0  0  0  0  0  0  0  0
   10.3090    0.1859    0.0243 C   0  0  0  0  0  0  0  0  0  0  0  0
   11.0912    0.0450   -1.0818 N   0  0  0  0  0  0  0  0  0  0  0  0
   10.3066   -0.3007   -2.0812 C   0  0  0  0  0  0  0  0  0  0  0  0
    8.8153   -0.6924   -1.8618 C   0  0  0  0  0  0  0  0  0  0  0  0
    7.8849    0.2104   -1.7022 N   0  0  0  0  0  0  0  0  0  0  0  0
    3.4554   -0.4913    2.4995 H   0  0  0  0  0  0  0  0  0  0  0  0
    4.8216    0.3794    1.5970 H   0  0  0  0  0  0  0  0  0  0  0  0
    2.7978   -1.6718    0.5578 H   0  0  0  0  0  0  0  0  0  0  0  0
    3.4039   -0.5890   -1.5487 H   0  0  0  0  0  0  0  0  0  0  0  0
    4.3764   -1.9637   -1.2424 H   0  0  0  0  0  0  0  0  0  0  0  0
    5.1790    0.9950   -1.3045 H   0  0  0  0  0  0  0  0  0  0  0  0
    5.5635   -0.2866   -2.4340 H   0  0  0  0  0  0  0  0  0  0  0  0
    6.1982   -2.5084   -0.8856 H   0  0  0  0  0  0  0  0  0  0  0  0
    5.9124   -2.7618    0.8528 H   0  0  0  0  0  0  0  0  0  0  0  0
    8.0302   -3.6839    0.9714 H   0  0  0  0  0  0  0  0  0  0  0  0
    6.3697   -5.0410   -0.3520 H   0  0  0  0  0  0  0  0  0  0  0  0
    8.0705   -5.4854   -0.4064 H   0  0  0  0  0  0  0  0  0  0  0  0
    8.3925   -4.2783   -2.5525 H   0  0  0  0  0  0  0  0  0  0  0  0
    6.6975   -3.7967   -2.5686 H   0  0  0  0  0  0  0  0  0  0  0  0
    6.0067   -6.2053   -2.6163 H   0  0  0  0  0  0  0  0  0  0  0  0
    7.7041   -6.6886   -2.6304 H   0  0  0  0  0  0  0  0  0  0  0  0
    6.3509   -4.9799   -4.7895 H   0  0  0  0  0  0  0  0  0  0  0  0
    6.7212   -6.7058   -4.9151 H   0  0  0  0  0  0  0  0  0  0  0  0
    8.0385   -5.5286   -4.8096 H   0  0  0  0  0  0  0  0  0  0  0  0
   11.9462    3.1144    0.7051 H   0  0  0  0  0  0  0  0  0  0  0  0
   11.6863    2.8060    4.1468 H   0  0  0  0  0  0  0  0  0  0  0  0
   13.1091    2.9990    3.1134 H   0  0  0  0  0  0  0  0  0  0  0  0
   12.8959    1.5062    4.0644 H   0  0  0  0  0  0  0  0  0  0  0  0
    9.4193    0.7241   -0.2908 H   0  0  0  0  0  0  0  0  0  0  0  0
   10.6831   -0.4053   -3.1119 H   0  0  0  0  0  0  0  0  0  0  0  0
    8.6890   -1.7548   -1.6762 H   0  0  0  0  0  0  0  0  0  0  0  0
  1  2  2  0  0  0  0
  1 28  1  0  0  0  0
  1 29  1  0  0  0  0
  2  3  1  0  0  0  0
  2 30  1  0  0  0  0
  3  4  1  0  0  0  0
  3 31  1  0  0  0  0
  3 32  1  0  0  0  0
  4  5  1  0  0  0  0
  4 33  1  0  0  0  0
  4 34  1  0  0  0  0
  5  6  1  0  0  0  0
  5 27  1  0  0  0  0
  6  7  1  0  0  0  0
  6 13  2  3  0  0  0
  7  8  1  0  0  0  0
  7 35  1  0  0  0  0
  7 36  1  0  0  0  0
  8  9  1  0  0  0  0
  8 37  1  0  0  0  0
  9 10  1  0  0  0  0
  9 38  1  0  0  0  0
  9 39  1  0  0  0  0
 10 11  1  0  0  0  0
 10 40  1  0  0  0  0
 10 41  1  0  0  0  0
 11 12  1  0  0  0  0
 11 42  1  0  0  0  0
 11 43  1  0  0  0  0
 12 44  1  0  0  0  0
 12 45  1  0  0  0  0
 12 46  1  0  0  0  0
 13 14  1  0  0  0  0
 14 15  1  0  0  0  0
 14 22  1  0  0  0  0
 15 16  2  0  0  0  0
 16 17  1  0  0  0  0
 17 18  2  0  0  0  0
 18 19  1  0  0  0  0
 18 47  1  0  0  0  0
 19 20  1  0  0  0  0
 19 21  2  0  0  0  0
 20 48  1  0  0  0  0
 20 49  1  0  0  0  0
 20 50  1  0  0  0  0
 21 22  1  0  0  0  0
 22 23  2  3  0  0  0
 23 24  1  0  0  0  0
 23 51  1  0  0  0  0
 24 25  2  3  0  0  0
 25 26  1  0  0  0  0
 25 52  1  0  0  0  0
 26 27  2  3  0  0  0
 26 53  1  0  0  0  0
M  END
$$$$
