
 OpenBabel04232216413D

177176  0  0  0  0  0  0  0  0999 V2000
   26.4218  -32.5687   -3.7684 C   0  0  0  0  0  0  0  0  0  0  0  0
   27.3031  -32.0591   -2.9001 C   0  0  0  0  0  0  0  0  0  0  0  0
   27.5423  -30.5876   -2.7940 C   0  0  0  0  0  0  0  0  0  0  0  0
   28.9405  -30.2918   -3.0861 N   0  0  0  0  0  0  0  0  0  0  0  0
   29.1220  -28.8810   -2.9786 N   0  0  0  0  0  0  0  0  0  0  0  0
   30.4855  -28.5342   -3.2467 N   0  0  0  0  0  0  0  0  0  0  0  0
   30.6805  -27.1209   -3.1554 N   0  0  0  0  0  0  0  0  0  0  0  0
   30.3987  -26.6778   -1.8249 N   0  0  0  0  0  0  0  0  0  0  0  0
   31.2268  -27.3857   -0.8942 N   0  0  0  0  0  0  0  0  0  0  0  0
   32.6039  -27.0964   -1.1759 N   0  0  0  0  0  0  0  0  0  0  0  0
   32.8152  -25.6819   -1.0894 N   0  0  0  0  0  0  0  0  0  0  0  0
   32.4939  -25.2362    0.2368 N   0  0  0  0  0  0  0  0  0  0  0  0
   33.3161  -25.9226    1.1968 N   0  0  0  0  0  0  0  0  0  0  0  0
   34.6824  -25.6454    0.9040 N   0  0  0  0  0  0  0  0  0  0  0  0
   34.9210  -24.2339    0.9790 N   0  0  0  0  0  0  0  0  0  0  0  0
   34.5834  -23.7762    2.2893 N   0  0  0  0  0  0  0  0  0  0  0  0
   35.3988  -24.4402    3.2688 N   0  0  0  0  0  0  0  0  0  0  0  0
   36.7886  -24.1952    3.0048 N   0  0  0  0  0  0  0  0  0  0  0  0
   37.0156  -22.7910    3.0497 N   0  0  0  0  0  0  0  0  0  0  0  0
   36.7023  -22.2853    4.3510 N   0  0  0  0  0  0  0  0  0  0  0  0
   37.4921  -22.9725    5.3230 N   0  0  0  0  0  0  0  0  0  0  0  0
   38.9184  -22.7232    5.0601 C   0  0  0  0  0  0  0  0  0  0  0  0
   39.2420  -21.2786    5.1167 N   0  0  0  0  0  0  0  0  0  0  0  0
   38.8923  -20.7356    6.4284 C   0  0  0  0  0  0  0  0  0  0  0  0
   39.1860  -19.3070    6.4680 N   0  0  0  0  0  0  0  0  0  0  0  0
   38.8709  -18.7632    7.7956 C   0  0  0  0  0  0  0  0  0  0  0  0
   39.1682  -17.3378    7.8416 N   0  0  0  0  0  0  0  0  0  0  0  0
   38.8522  -16.7933    9.1664 C   0  0  0  0  0  0  0  0  0  0  0  0
   39.1398  -15.3818    9.1792 N   0  0  0  0  0  0  0  0  0  0  0  0
   38.8147  -14.8407   10.4946 C   0  0  0  0  0  0  0  0  0  0  0  0
   39.1260  -13.4236   10.5465 N   0  0  0  0  0  0  0  0  0  0  0  0
   38.8206  -12.8775   11.8710 C   0  0  0  0  0  0  0  0  0  0  0  0
   39.6160  -13.4938   12.9395 N   0  0  0  0  0  0  0  0  0  0  0  0
   41.0409  -13.3205   12.6740 C   0  0  0  0  0  0  0  0  0  0  0  0
   41.3622  -11.9055   12.6654 N   0  0  0  0  0  0  0  0  0  0  0  0
   41.0389  -11.3229   13.9506 C   0  0  0  0  0  0  0  0  0  0  0  0
   41.3927   -9.9099   13.9756 N   0  0  0  0  0  0  0  0  0  0  0  0
   41.0518   -9.3141   15.2539 C   0  0  0  0  0  0  0  0  0  0  0  0
   41.8162   -9.9055   16.3418 N   0  0  0  0  0  0  0  0  0  0  0  0
   43.2464   -9.7950   16.1014 C   0  0  0  0  0  0  0  0  0  0  0  0
   43.6719   -8.3847   16.1021 N   0  0  0  0  0  0  0  0  0  0  0  0
   43.2924   -7.7576   17.3427 C   0  0  0  0  0  0  0  0  0  0  0  0
   43.6960   -6.3314   17.3003 N   0  0  0  0  0  0  0  0  0  0  0  0
   43.3484   -5.6954   18.5578 C   0  0  0  0  0  0  0  0  0  0  0  0
   43.7489   -4.2781   18.5361 N   0  0  0  0  0  0  0  0  0  0  0  0
   43.3947   -3.6454   19.7888 C   0  0  0  0  0  0  0  0  0  0  0  0
   43.8140   -2.1942   19.7638 N   0  0  0  0  0  0  0  0  0  0  0  0
   43.4631   -1.5616   21.0144 C   0  0  0  0  0  0  0  0  0  0  0  0
   43.8340   -0.1421   21.0044 N   0  0  0  0  0  0  0  0  0  0  0  0
   43.1367    0.5122   19.9332 N   0  0  0  0  0  0  0  0  0  0  0  0
   43.5178    1.8713   19.8920 N   0  0  0  0  0  0  0  0  0  0  0  0
   44.9187    1.9840   19.6692 N   0  0  0  0  0  0  0  0  0  0  0  0
   45.3155    3.3372   19.6404 N   0  0  0  0  0  0  0  0  0  0  0  0
   46.6920    3.4131   19.4657 N   0  0  0  0  0  0  0  0  0  0  0  0
   47.0890    4.7732   19.4036 N   0  0  0  0  0  0  0  0  0  0  0  0
   48.4890    4.8957   19.1594 N   0  0  0  0  0  0  0  0  0  0  0  0
   48.8554    4.2794   17.9395 N   0  0  0  0  0  0  0  0  0  0  0  0
   48.1631    4.9374   16.8720 N   0  0  0  0  0  0  0  0  0  0  0  0
   48.5248    6.3364   16.8257 N   0  0  0  0  0  0  0  0  0  0  0  0
   49.9308    6.4747   16.6558 N   0  0  0  0  0  0  0  0  0  0  0  0
   50.2981    5.8483   15.4252 N   0  0  0  0  0  0  0  0  0  0  0  0
   49.5877    6.4736   14.3383 N   0  0  0  0  0  0  0  0  0  0  0  0
   49.8949    7.8704   14.3049 N   0  0  0  0  0  0  0  0  0  0  0  0
   51.3173    8.0426   14.0990 N   0  0  0  0  0  0  0  0  0  0  0  0
   51.7094    7.4006   12.8908 N   0  0  0  0  0  0  0  0  0  0  0  0
   51.0044    7.9796   11.8024 N   0  0  0  0  0  0  0  0  0  0  0  0
   51.3113    9.3912   11.7572 N   0  0  0  0  0  0  0  0  0  0  0  0
   52.7332    9.5738   11.5953 N   0  0  0  0  0  0  0  0  0  0  0  0
   53.1332    8.9456   10.3677 N   0  0  0  0  0  0  0  0  0  0  0  0
   52.4394    9.5416    9.2531 N   0  0  0  0  0  0  0  0  0  0  0  0
   52.6945   10.9386    9.2039 N   0  0  0  0  0  0  0  0  0  0  0  0
   54.1071   11.1407    9.0192 N   0  0  0  0  0  0  0  0  0  0  0  0
   54.5445   10.4879    7.8188 N   0  0  0  0  0  0  0  0  0  0  0  0
   53.8420   11.0454    6.7177 N   0  0  0  0  0  0  0  0  0  0  0  0
   54.0986   12.4530    6.6539 N   0  0  0  0  0  0  0  0  0  0  0  0
   55.5054   12.6839    6.5220 N   0  0  0  0  0  0  0  0  0  0  0  0
   55.9621   12.0524    5.2997 N   0  0  0  0  0  0  0  0  0  0  0  0
   55.2440   12.5907    4.1441 N   0  0  0  0  0  0  0  0  0  0  0  0
   55.4775   14.0112    4.0746 N   0  0  0  0  0  0  0  0  0  0  0  0
   56.8996   14.2722    3.9152 N   0  0  0  0  0  0  0  0  0  0  0  0
   26.2603  -33.6378   -3.8410 H   0  0  0  0  0  0  0  0  0  0  0  0
   25.8474  -31.9220   -4.4258 H   0  0  0  0  0  0  0  0  0  0  0  0
   27.8612  -32.7382   -2.2553 H   0  0  0  0  0  0  0  0  0  0  0  0
   27.2933  -30.2574   -1.7762 H   0  0  0  0  0  0  0  0  0  0  0  0
   26.8915  -30.0403   -3.4886 H   0  0  0  0  0  0  0  0  0  0  0  0
   29.1838  -30.5323   -4.0386 H   0  0  0  0  0  0  0  0  0  0  0  0
   28.8733  -28.6086   -2.0247 H   0  0  0  0  0  0  0  0  0  0  0  0
   30.7515  -28.8177   -4.1886 H   0  0  0  0  0  0  0  0  0  0  0  0
   30.0946  -26.6444   -3.8496 H   0  0  0  0  0  0  0  0  0  0  0  0
   29.4338  -26.8671   -1.5870 H   0  0  0  0  0  0  0  0  0  0  0  0
   31.0636  -28.3996   -0.9718 H   0  0  0  0  0  0  0  0  0  0  0  0
   32.8296  -27.4001   -2.1233 H   0  0  0  0  0  0  0  0  0  0  0  0
   32.2218  -25.2007   -1.7712 H   0  0  0  0  0  0  0  0  0  0  0  0
   31.5116  -25.4444    0.4428 H   0  0  0  0  0  0  0  0  0  0  0  0
   33.1542  -26.9347    1.1434 H   0  0  0  0  0  0  0  0  0  0  0  0
   34.9244  -25.9793   -0.0325 H   0  0  0  0  0  0  0  0  0  0  0  0
   34.3435  -23.7273    0.3035 H   0  0  0  0  0  0  0  0  0  0  0  0
   33.6019  -23.9743    2.4887 H   0  0  0  0  0  0  0  0  0  0  0  0
   35.2179  -25.4494    3.2230 H   0  0  0  0  0  0  0  0  0  0  0  0
   37.0269  -24.5308    2.0712 H   0  0  0  0  0  0  0  0  0  0  0  0
   36.4439  -22.3359    2.3321 H   0  0  0  0  0  0  0  0  0  0  0  0
   35.7133  -22.4835    4.5455 H   0  0  0  0  0  0  0  0  0  0  0  0
   37.3034  -23.9823    5.2679 H   0  0  0  0  0  0  0  0  0  0  0  0
   39.2001  -23.1134    4.0740 H   0  0  0  0  0  0  0  0  0  0  0  0
   39.5282  -23.2613    5.7890 H   0  0  0  0  0  0  0  0  0  0  0  0
   38.6424  -20.8440    4.4071 H   0  0  0  0  0  0  0  0  0  0  0  0
   39.4863  -21.2640    7.1821 H   0  0  0  0  0  0  0  0  0  0  0  0
   37.8308  -20.9017    6.6547 H   0  0  0  0  0  0  0  0  0  0  0  0
   38.6150  -18.8709    5.7405 H   0  0  0  0  0  0  0  0  0  0  0  0
   39.4690  -19.2944    8.5467 H   0  0  0  0  0  0  0  0  0  0  0  0
   37.8096  -18.9403    8.0139 H   0  0  0  0  0  0  0  0  0  0  0  0
   38.6019  -16.8404    7.1524 H   0  0  0  0  0  0  0  0  0  0  0  0
   39.4539  -17.3204    9.9146 H   0  0  0  0  0  0  0  0  0  0  0  0
   37.7914  -16.9697    9.3822 H   0  0  0  0  0  0  0  0  0  0  0  0
   38.5798  -14.8704    8.5041 H   0  0  0  0  0  0  0  0  0  0  0  0
   39.4195  -15.3730   11.2412 H   0  0  0  0  0  0  0  0  0  0  0  0
   37.7600  -14.9973   10.7377 H   0  0  0  0  0  0  0  0  0  0  0  0
   38.5798  -12.8707    9.8796 H   0  0  0  0  0  0  0  0  0  0  0  0
   37.7536  -12.9938   12.0982 H   0  0  0  0  0  0  0  0  0  0  0  0
   38.9823  -11.7914   11.8742 H   0  0  0  0  0  0  0  0  0  0  0  0
   39.4299  -14.4783   12.9774 H   0  0  0  0  0  0  0  0  0  0  0  0
   41.3170  -13.7671   11.7088 H   0  0  0  0  0  0  0  0  0  0  0  0
   41.6196  -13.8520   13.4334 H   0  0  0  0  0  0  0  0  0  0  0  0
   40.8614  -11.4302   11.9255 H   0  0  0  0  0  0  0  0  0  0  0  0
   41.6066  -11.8543   14.7181 H   0  0  0  0  0  0  0  0  0  0  0  0
   39.9741  -11.4228   14.1699 H   0  0  0  0  0  0  0  0  0  0  0  0
   40.8812   -9.4067   13.2637 H   0  0  0  0  0  0  0  0  0  0  0  0
   39.9820   -9.3992   15.4576 H   0  0  0  0  0  0  0  0  0  0  0  0
   41.2590   -8.2406   15.2320 H   0  0  0  0  0  0  0  0  0  0  0  0
   41.5806  -10.8983   16.3261 H   0  0  0  0  0  0  0  0  0  0  0  0
   43.5451  -10.2874   15.1675 H   0  0  0  0  0  0  0  0  0  0  0  0
   43.7866  -10.3272   16.8966 H   0  0  0  0  0  0  0  0  0  0  0  0
   43.1290   -8.0048   15.3259 H   0  0  0  0  0  0  0  0  0  0  0  0
   43.8176   -8.2549   18.1660 H   0  0  0  0  0  0  0  0  0  0  0  0
   42.2136   -7.8201   17.5309 H   0  0  0  0  0  0  0  0  0  0  0  0
   43.1849   -5.9217   16.5226 H   0  0  0  0  0  0  0  0  0  0  0  0
   43.8734   -6.1930   19.3822 H   0  0  0  0  0  0  0  0  0  0  0  0
   42.2691   -5.7757   18.7460 H   0  0  0  0  0  0  0  0  0  0  0  0
   43.2297   -3.9066   17.7405 H   0  0  0  0  0  0  0  0  0  0  0  0
   43.9284   -4.1347   20.6148 H   0  0  0  0  0  0  0  0  0  0  0  0
   42.3158   -3.7139   19.9781 H   0  0  0  0  0  0  0  0  0  0  0  0
   43.2982   -1.7138   19.0266 H   0  0  0  0  0  0  0  0  0  0  0  0
   43.9796   -2.0564   21.8423 H   0  0  0  0  0  0  0  0  0  0  0  0
   42.3836   -1.6493   21.2116 H   0  0  0  0  0  0  0  0  0  0  0  0
   44.8400   -0.0647   20.8155 H   0  0  0  0  0  0  0  0  0  0  0  0
   42.1194    0.4398   20.0755 H   0  0  0  0  0  0  0  0  0  0  0  0
   43.3353    2.3093   20.7864 H   0  0  0  0  0  0  0  0  0  0  0  0
   45.1707    1.5311   18.7899 H   0  0  0  0  0  0  0  0  0  0  0  0
   45.0916    3.7596   20.5311 H   0  0  0  0  0  0  0  0  0  0  0  0
   46.8754    2.9468   18.5740 H   0  0  0  0  0  0  0  0  0  0  0  0
   46.8585    5.2351   20.2762 H   0  0  0  0  0  0  0  0  0  0  0  0
   48.9915    4.4339   19.9105 H   0  0  0  0  0  0  0  0  0  0  0  0
   48.6017    3.2869   17.9847 H   0  0  0  0  0  0  0  0  0  0  0  0
   47.1563    4.8745   17.0437 H   0  0  0  0  0  0  0  0  0  0  0  0
   48.2793    6.7442   17.7318 H   0  0  0  0  0  0  0  0  0  0  0  0
   50.3833    5.9801   17.4156 H   0  0  0  0  0  0  0  0  0  0  0  0
   49.9900    4.8721   15.4875 H   0  0  0  0  0  0  0  0  0  0  0  0
   48.5814    6.3402   14.5414 H   0  0  0  0  0  0  0  0  0  0  0  0
   49.6575    8.2733   15.2041 H   0  0  0  0  0  0  0  0  0  0  0  0
   51.7749    7.5529   14.8697 H   0  0  0  0  0  0  0  0  0  0  0  0
   51.4532    6.4166   12.9526 H   0  0  0  0  0  0  0  0  0  0  0  0
   50.0140    7.8842   11.9848 H   0  0  0  0  0  0  0  0  0  0  0  0
   51.0195    9.7600   12.6777 H   0  0  0  0  0  0  0  0  0  0  0  0
   53.1930    9.0948   12.3864 H   0  0  0  0  0  0  0  0  0  0  0  0
   52.8779    7.9558   10.4067 H   0  0  0  0  0  0  0  0  0  0  0  0
   51.4384    9.4094    9.4093 H   0  0  0  0  0  0  0  0  0  0  0  0
   52.4234   11.3314   10.0982 H   0  0  0  0  0  0  0  0  0  0  0  0
   54.5532   10.6680    9.8053 H   0  0  0  0  0  0  0  0  0  0  0  0
   54.2856    9.5049    7.9186 H   0  0  0  0  0  0  0  0  0  0  0  0
   52.8484   10.9056    6.8998 H   0  0  0  0  0  0  0  0  0  0  0  0
   53.7993   12.8443    7.5473 H   0  0  0  0  0  0  0  0  0  0  0  0
   55.9563   12.2495    7.3390 H   0  0  0  0  0  0  0  0  0  0  0  0
   55.7216   11.0526    5.4030 H   0  0  0  0  0  0  0  0  0  0  0  0
   54.2342   12.4043    4.3272 H   0  0  0  0  0  0  0  0  0  0  0  0
   55.1350   14.4297    4.9553 H   0  0  0  0  0  0  0  0  0  0  0  0
   57.2177   13.7559    3.0959 H   0  0  0  0  0  0  0  0  0  0  0  0
   57.3803   13.8296    4.7126 H   0  0  0  0  0  0  0  0  0  0  0  0
  1  2  2  0  0  0  0
  1 81  1  0  0  0  0
  1 82  1  0  0  0  0
  2  3  1  0  0  0  0
  2 83  1  0  0  0  0
  3  4  1  0  0  0  0
  3 84  1  0  0  0  0
  3 85  1  0  0  0  0
  4  5  1  0  0  0  0
  4 86  1  0  0  0  0
  5  6  1  0  0  0  0
  5 87  1  0  0  0  0
  6  7  1  0  0  0  0
  6 88  1  0  0  0  0
  7  8  1  0  0  0  0
  7 89  1  0  0  0  0
  8  9  1  0  0  0  0
  8 90  1  0  0  0  0
  9 10  1  0  0  0  0
  9 91  1  0  0  0  0
 10 11  1  0  0  0  0
 10 92  1  0  0  0  0
 11 12  1  0  0  0  0
 11 93  1  0  0  0  0
 12 13  1  0  0  0  0
 12 94  1  0  0  0  0
 13 14  1  0  0  0  0
 13 95  1  0  0  0  0
 14 15  1  0  0  0  0
 14 96  1  0  0  0  0
 15 16  1  0  0  0  0
 15 97  1  0  0  0  0
 16 17  1  0  0  0  0
 16 98  1  0  0  0  0
 17 18  1  0  0  0  0
 17 99  1  0  0  0  0
 18 19  1  0  0  0  0
 18100  1  0  0  0  0
 19 20  1  0  0  0  0
 19101  1  0  0  0  0
 20 21  1  0  0  0  0
 20102  1  0  0  0  0
 21 22  1  0  0  0  0
 21103  1  0  0  0  0
 22 23  1  0  0  0  0
 22104  1  0  0  0  0
 22105  1  0  0  0  0
 23 24  1  0  0  0  0
 23106  1  0  0  0  0
 24 25  1  0  0  0  0
 24107  1  0  0  0  0
 24108  1  0  0  0  0
 25 26  1  0  0  0  0
 25109  1  0  0  0  0
 26 27  1  0  0  0  0
 26110  1  0  0  0  0
 26111  1  0  0  0  0
 27 28  1  0  0  0  0
 27112  1  0  0  0  0
 28 29  1  0  0  0  0
 28113  1  0  0  0  0
 28114  1  0  0  0  0
 29 30  1  0  0  0  0
 29115  1  0  0  0  0
 30 31  1  0  0  0  0
 30116  1  0  0  0  0
 30117  1  0  0  0  0
 31 32  1  0  0  0  0
 31118  1  0  0  0  0
 32 33  1  0  0  0  0
 32119  1  0  0  0  0
 32120  1  0  0  0  0
 33 34  1  0  0  0  0
 33121  1  0  0  0  0
 34 35  1  0  0  0  0
 34122  1  0  0  0  0
 34123  1  0  0  0  0
 35 36  1  0  0  0  0
 35124  1  0  0  0  0
 36 37  1  0  0  0  0
 36125  1  0  0  0  0
 36126  1  0  0  0  0
 37 38  1  0  0  0  0
 37127  1  0  0  0  0
 38 39  1  0  0  0  0
 38128  1  0  0  0  0
 38129  1  0  0  0  0
 39 40  1  0  0  0  0
 39130  1  0  0  0  0
 40 41  1  0  0  0  0
 40131  1  0  0  0  0
 40132  1  0  0  0  0
 41 42  1  0  0  0  0
 41133  1  0  0  0  0
 42 43  1  0  0  0  0
 42134  1  0  0  0  0
 42135  1  0  0  0  0
 43 44  1  0  0  0  0
 43136  1  0  0  0  0
 44 45  1  0  0  0  0
 44137  1  0  0  0  0
 44138  1  0  0  0  0
 45 46  1  0  0  0  0
 45139  1  0  0  0  0
 46 47  1  0  0  0  0
 46140  1  0  0  0  0
 46141  1  0  0  0  0
 47 48  1  0  0  0  0
 47142  1  0  0  0  0
 48 49  1  0  0  0  0
 48143  1  0  0  0  0
 48144  1  0  0  0  0
 49 50  1  0  0  0  0
 49145  1  0  0  0  0
 50 51  1  0  0  0  0
 50146  1  0  0  0  0
 51 52  1  0  0  0  0
 51147  1  0  0  0  0
 52 53  1  0  0  0  0
 52148  1  0  0  0  0
 53 54  1  0  0  0  0
 53149  1  0  0  0  0
 54 55  1  0  0  0  0
 54150  1  0  0  0  0
 55 56  1  0  0  0  0
 55151  1  0  0  0  0
 56 57  1  0  0  0  0
 56152  1  0  0  0  0
 57 58  1  0  0  0  0
 57153  1  0  0  0  0
 58 59  1  0  0  0  0
 58154  1  0  0  0  0
 59 60  1  0  0  0  0
 59155  1  0  0  0  0
 60 61  1  0  0  0  0
 60156  1  0  0  0  0
 61 62  1  0  0  0  0
 61157  1  0  0  0  0
 62 63  1  0  0  0  0
 62158  1  0  0  0  0
 63 64  1  0  0  0  0
 63159  1  0  0  0  0
 64 65  1  0  0  0  0
 64160  1  0  0  0  0
 65 66  1  0  0  0  0
 65161  1  0  0  0  0
 66 67  1  0  0  0  0
 66162  1  0  0  0  0
 67 68  1  0  0  0  0
 67163  1  0  0  0  0
 68 69  1  0  0  0  0
 68164  1  0  0  0  0
 69 70  1  0  0  0  0
 69165  1  0  0  0  0
 70 71  1  0  0  0  0
 70166  1  0  0  0  0
 71 72  1  0  0  0  0
 71167  1  0  0  0  0
 72 73  1  0  0  0  0
 72168  1  0  0  0  0
 73 74  1  0  0  0  0
 73169  1  0  0  0  0
 74 75  1  0  0  0  0
 74170  1  0  0  0  0
 75 76  1  0  0  0  0
 75171  1  0  0  0  0
 76 77  1  0  0  0  0
 76172  1  0  0  0  0
 77 78  1  0  0  0  0
 77173  1  0  0  0  0
 78 79  1  0  0  0  0
 78174  1  0  0  0  0
 79 80  1  0  0  0  0
 79175  1  0  0  0  0
 80176  1  0  0  0  0
 80177  1  0  0  0  0
M  END
$$$$
