
 OpenBabel04232216393D

 52 53  0  0  0  0  0  0  0  0999 V2000
    4.3761   -2.3303    0.5443 C   0  0  0  0  0  0  0  0  0  0  0  0
    4.8251   -1.3589   -0.2797 C   0  0  0  0  0  0  0  0  0  0  0  0
    6.1953   -0.7919   -0.7242 C   0  0  0  0  0  0  0  0  0  0  0  0
    7.5165   -1.2848   -0.0974 C   0  0  0  0  0  0  0  0  0  0  0  0
    7.3182   -1.6259    1.3170 C   0  0  0  0  0  0  0  0  0  0  0  0
    7.3523   -0.6691    2.2452 C   0  0  0  0  0  0  0  0  0  0  0  0
    8.0492   -0.9616    3.4778 C   0  0  0  0  0  0  0  0  0  0  0  0
    9.2982   -0.4707    3.4916 C   0  0  0  0  0  0  0  0  0  0  0  0
   10.4130   -1.2394    3.9906 C   0  0  0  0  0  0  0  0  0  0  0  0
   11.6911   -1.1463    3.5491 C   0  0  0  0  0  0  0  0  0  0  0  0
   12.3045    0.0278    2.7655 C   0  0  0  0  0  0  0  0  0  0  0  0
   11.4021    0.3795    1.7530 O   0  0  0  0  0  0  0  0  0  0  0  0
   11.8204    1.2447    0.7986 C   0  0  0  0  0  0  0  0  0  0  0  0
   10.9495    2.2005    0.4551 C   0  0  0  0  0  0  0  0  0  0  0  0
   10.6882    2.3400   -0.9576 C   0  0  0  0  0  0  0  0  0  0  0  0
    9.5220    1.7630   -1.3157 C   0  0  0  0  0  0  0  0  0  0  0  0
    9.5281    0.6779   -2.2822 C   0  0  0  0  0  0  0  0  0  0  0  0
   10.1079    1.1121   -3.6214 C   0  0  0  0  0  0  0  0  0  0  0  0
    9.1851   -0.5986   -1.9357 C   0  0  0  0  0  0  0  0  0  0  0  0
   12.4769   -2.3228    3.4938 N   0  0  0  0  0  0  0  0  0  0  0  0
   12.5012   -3.2285    4.6714 C   0  0  0  0  0  0  0  0  0  0  0  0
   12.6294   -2.9192    2.1881 C   0  0  0  0  0  0  0  0  0  0  0  0
   11.7046   -3.0299    1.1957 C   0  0  0  0  0  0  0  0  0  0  0  0
   11.2090   -2.0577    0.2814 N   0  0  0  0  0  0  0  0  0  0  0  0
    9.9026   -2.0059    0.2490 C   0  0  0  0  0  0  0  0  0  0  0  0
    8.8159   -1.1959   -0.6063 C   0  0  0  0  0  0  0  0  0  0  0  0
    3.2972   -2.4795    0.6792 H   0  0  0  0  0  0  0  0  0  0  0  0
    5.0095   -2.9886    1.1217 H   0  0  0  0  0  0  0  0  0  0  0  0
    4.0064   -0.7975   -0.7544 H   0  0  0  0  0  0  0  0  0  0  0  0
    6.1175    0.2880   -0.5226 H   0  0  0  0  0  0  0  0  0  0  0  0
    6.2304   -0.9112   -1.8104 H   0  0  0  0  0  0  0  0  0  0  0  0
    7.4364   -2.6841    1.5495 H   0  0  0  0  0  0  0  0  0  0  0  0
    7.2796    0.3829    1.9529 H   0  0  0  0  0  0  0  0  0  0  0  0
    7.7480   -1.8391    4.0434 H   0  0  0  0  0  0  0  0  0  0  0  0
    9.5252    0.3084    2.7712 H   0  0  0  0  0  0  0  0  0  0  0  0
   10.0926   -2.1542    4.4822 H   0  0  0  0  0  0  0  0  0  0  0  0
   13.2781   -0.2384    2.3347 H   0  0  0  0  0  0  0  0  0  0  0  0
   12.4593    0.8856    3.4263 H   0  0  0  0  0  0  0  0  0  0  0  0
   12.5673    0.8042    0.1434 H   0  0  0  0  0  0  0  0  0  0  0  0
   10.1094    2.3601    1.1314 H   0  0  0  0  0  0  0  0  0  0  0  0
   11.5693    2.3063   -1.5969 H   0  0  0  0  0  0  0  0  0  0  0  0
    8.6970    1.7253   -0.6065 H   0  0  0  0  0  0  0  0  0  0  0  0
   11.2047    1.0622   -3.5991 H   0  0  0  0  0  0  0  0  0  0  0  0
    9.8600    2.1606   -3.8533 H   0  0  0  0  0  0  0  0  0  0  0  0
    9.7599    0.5129   -4.4693 H   0  0  0  0  0  0  0  0  0  0  0  0
    9.2718   -1.3538   -2.7154 H   0  0  0  0  0  0  0  0  0  0  0  0
   11.4984   -3.5662    4.9599 H   0  0  0  0  0  0  0  0  0  0  0  0
   12.9384   -2.7189    5.5394 H   0  0  0  0  0  0  0  0  0  0  0  0
   13.0929   -4.1312    4.4835 H   0  0  0  0  0  0  0  0  0  0  0  0
   13.5480   -2.4154    1.8595 H   0  0  0  0  0  0  0  0  0  0  0  0
   11.8619   -3.9673    0.6544 H   0  0  0  0  0  0  0  0  0  0  0  0
    9.4180   -2.6930    0.9600 H   0  0  0  0  0  0  0  0  0  0  0  0
  1  2  2  0  0  0  0
  1 27  1  0  0  0  0
  1 28  1  0  0  0  0
  2  3  1  0  0  0  0
  2 29  1  0  0  0  0
  3  4  1  0  0  0  0
  3 30  1  0  0  0  0
  3 31  1  0  0  0  0
  4  5  1  0  0  0  0
  4 26  2  0  0  0  0
  5  6  2  0  0  0  0
  5 32  1  0  0  0  0
  6  7  1  0  0  0  0
  6 33  1  0  0  0  0
  7  8  2  0  0  0  0
  7 34  1  0  0  0  0
  8  9  1  0  0  0  0
  8 35  1  0  0  0  0
  9 10  2  0  0  0  0
  9 36  1  0  0  0  0
 10 11  1  0  0  0  0
 10 20  1  0  0  0  0
 11 12  1  0  0  0  0
 11 37  1  0  0  0  0
 11 38  1  0  0  0  0
 12 13  1  0  0  0  0
 13 14  2  3  0  0  0
 13 39  1  0  0  0  0
 14 15  1  0  0  0  0
 14 40  1  0  0  0  0
 15 16  2  3  0  0  0
 15 41  1  0  0  0  0
 16 17  1  0  0  0  0
 16 42  1  0  0  0  0
 17 18  1  0  0  0  0
 17 19  2  3  0  0  0
 18 43  1  0  0  0  0
 18 44  1  0  0  0  0
 18 45  1  0  0  0  0
 19 26  1  0  0  0  0
 19 46  1  0  0  0  0
 20 21  1  0  0  0  0
 20 22  1  0  0  0  0
 21 47  1  0  0  0  0
 21 48  1  0  0  0  0
 21 49  1  0  0  0  0
 22 23  2  0  0  0  0
 22 50  1  0  0  0  0
 23 24  1  0  0  0  0
 23 51  1  0  0  0  0
 24 25  2  0  0  0  0
 25 26  1  0  0  0  0
 25 52  1  0  0  0  0
M  END
$$$$
