
 OpenBabel04232216553D

 72 74  0  0  0  0  0  0  0  0999 V2000
   -0.1049    1.1650    2.4470 C   0  0  0  0  0  0  0  0  0  0  0  0
    0.0694    2.0032    3.7348 N   0  0  0  0  0  0  0  0  0  0  0  0
    1.5939    2.2507    3.8838 C   0  0  0  0  0  0  0  0  0  0  0  0
    2.6615    2.7942    4.5844 C   0  0  0  0  0  0  0  0  0  0  0  0
    2.3984    3.7253    5.7807 C   0  0  0  0  0  0  0  0  0  0  0  0
    1.0754    3.6025    6.3882 N   0  0  0  0  0  0  0  0  0  0  0  0
    0.7759    2.4112    7.1913 C   0  0  0  0  0  0  0  0  0  0  0  0
    1.0491    0.9836    6.7537 C   0  0  0  0  0  0  0  0  0  0  0  0
    2.1575    0.1912    6.1308 C   0  0  0  0  0  0  0  0  0  0  0  0
    3.4952    0.5214    6.7028 C   0  0  0  0  0  0  0  0  0  0  0  0
    4.4687    0.4629    5.5642 C   0  0  0  0  0  0  0  0  0  0  0  0
    0.0141    4.5001    6.1430 C   0  0  0  0  0  0  0  0  0  0  0  0
   -0.9798    4.6965    7.0269 C   0  0  0  0  0  0  0  0  0  0  0  0
   -2.3774    4.4184    6.6880 C   0  0  0  0  0  0  0  0  0  0  0  0
   -2.6568    3.0990    6.8299 C   0  0  0  0  0  0  0  0  0  0  0  0
   -3.4344    2.7129    8.2660 C   0  0  0  0  0  0  0  0  0  0  0  0
   -4.6066    3.6959    8.9518 C   0  0  0  0  0  0  0  0  0  0  0  0
   -4.5532    4.6122   10.2852 C   0  0  0  0  0  0  0  0  0  0  0  0
   -5.8238    4.6731   11.2401 C   0  0  0  0  0  0  0  0  0  0  0  0
   -5.6895    4.0754   12.6469 C   0  0  0  0  0  0  0  0  0  0  0  0
   -2.1707    2.1471    5.6373 C   0  0  0  0  0  0  0  0  0  0  0  0
   -1.2226    1.8925    4.6308 C   0  0  0  0  0  0  0  0  0  0  0  0
    4.3824    2.5518    4.3957 C   0  0  0  0  0  0  0  0  0  0  0  0
    5.1798    2.6041    3.1505 C   0  0  0  0  0  0  0  0  0  0  0  0
    6.4427    3.1071    3.1097 C   0  0  0  0  0  0  0  0  0  0  0  0
    7.6760    2.3488    2.6677 C   0  0  0  0  0  0  0  0  0  0  0  0
    8.8410    2.9309    3.0240 C   0  0  0  0  0  0  0  0  0  0  0  0
    9.6517    2.4988    4.1225 C   0  0  0  0  0  0  0  0  0  0  0  0
    9.1572    2.2649    5.3315 C   0  0  0  0  0  0  0  0  0  0  0  0
    7.8819    1.7441    5.8443 C   0  0  0  0  0  0  0  0  0  0  0  0
    6.5618    1.6050    5.8267 C   0  0  0  0  0  0  0  0  0  0  0  0
    5.1224    1.8267    5.3384 C   0  0  0  0  0  0  0  0  0  0  0  0
   -1.1429    1.0872    2.1122 H   0  0  0  0  0  0  0  0  0  0  0  0
    0.2760    0.1496    2.6304 H   0  0  0  0  0  0  0  0  0  0  0  0
    0.4574    1.5925    1.6040 H   0  0  0  0  0  0  0  0  0  0  0  0
    2.0326    1.6748    3.0357 H   0  0  0  0  0  0  0  0  0  0  0  0
    2.5475    4.7631    5.4451 H   0  0  0  0  0  0  0  0  0  0  0  0
    3.1332    3.5529    6.5688 H   0  0  0  0  0  0  0  0  0  0  0  0
   -0.3136    2.3210    7.1702 H   0  0  0  0  0  0  0  0  0  0  0  0
    0.8881    2.5994    8.2660 H   0  0  0  0  0  0  0  0  0  0  0  0
    0.9035    0.4582    7.6938 H   0  0  0  0  0  0  0  0  0  0  0  0
    0.2702    0.7681    6.0366 H   0  0  0  0  0  0  0  0  0  0  0  0
    2.1116    0.2315    5.0375 H   0  0  0  0  0  0  0  0  0  0  0  0
    1.9451   -0.8760    6.2928 H   0  0  0  0  0  0  0  0  0  0  0  0
    3.7551   -0.2102    7.4764 H   0  0  0  0  0  0  0  0  0  0  0  0
    3.4831    1.4960    7.1932 H   0  0  0  0  0  0  0  0  0  0  0  0
    4.0355    0.1319    4.6060 H   0  0  0  0  0  0  0  0  0  0  0  0
    5.1798   -0.3530    5.7499 H   0  0  0  0  0  0  0  0  0  0  0  0
   -0.1612    4.6379    5.0779 H   0  0  0  0  0  0  0  0  0  0  0  0
   -0.8051    4.5038    8.0905 H   0  0  0  0  0  0  0  0  0  0  0  0
   -2.9743    5.1344    7.2591 H   0  0  0  0  0  0  0  0  0  0  0  0
   -2.6628    2.5311    9.0343 H   0  0  0  0  0  0  0  0  0  0  0  0
   -3.9276    1.7354    8.1309 H   0  0  0  0  0  0  0  0  0  0  0  0
   -5.5067    3.0781    9.0563 H   0  0  0  0  0  0  0  0  0  0  0  0
   -4.8217    4.4200    8.1651 H   0  0  0  0  0  0  0  0  0  0  0  0
   -4.5720    5.6381    9.8805 H   0  0  0  0  0  0  0  0  0  0  0  0
   -3.6277    4.5659   10.8675 H   0  0  0  0  0  0  0  0  0  0  0  0
   -6.7113    4.2478   10.7605 H   0  0  0  0  0  0  0  0  0  0  0  0
   -6.0763    5.7330   11.4249 H   0  0  0  0  0  0  0  0  0  0  0  0
   -5.4159    3.0250   12.6161 H   0  0  0  0  0  0  0  0  0  0  0  0
   -6.6553    4.1507   13.1716 H   0  0  0  0  0  0  0  0  0  0  0  0
   -4.9624    4.6250   13.2597 H   0  0  0  0  0  0  0  0  0  0  0  0
   -3.0035    1.4265    5.5751 H   0  0  0  0  0  0  0  0  0  0  0  0
   -1.6778    1.0764    4.0574 H   0  0  0  0  0  0  0  0  0  0  0  0
    4.9521    1.7518    2.4520 H   0  0  0  0  0  0  0  0  0  0  0  0
    6.6932    3.8403    3.8881 H   0  0  0  0  0  0  0  0  0  0  0  0
    7.6316    1.2373    2.6511 H   0  0  0  0  0  0  0  0  0  0  0  0
    8.9087    4.0189    3.0079 H   0  0  0  0  0  0  0  0  0  0  0  0
   10.7407    2.6806    4.0376 H   0  0  0  0  0  0  0  0  0  0  0  0
    9.9056    2.2823    6.1575 H   0  0  0  0  0  0  0  0  0  0  0  0
    8.2845    1.0628    6.6231 H   0  0  0  0  0  0  0  0  0  0  0  0
    6.3719    0.9128    6.6760 H   0  0  0  0  0  0  0  0  0  0  0  0
  1  2  1  0  0  0  0
  1 33  1  0  0  0  0
  1 34  1  0  0  0  0
  1 35  1  0  0  0  0
  2  3  1  0  0  0  0
  2 22  1  0  0  0  0
  3  4  2  3  0  0  0
  3 36  1  0  0  0  0
  4  5  1  0  0  0  0
  4 23  1  0  0  0  0
  5  6  1  0  0  0  0
  5 37  1  0  0  0  0
  5 38  1  0  0  0  0
  6  7  1  0  0  0  0
  6 12  1  0  0  0  0
  7  8  1  0  0  0  0
  7 39  1  0  0  0  0
  7 40  1  0  0  0  0
  8  9  1  0  0  0  0
  8 41  1  0  0  0  0
  8 42  1  0  0  0  0
  9 10  1  0  0  0  0
  9 43  1  0  0  0  0
  9 44  1  0  0  0  0
 10 11  1  0  0  0  0
 10 45  1  0  0  0  0
 10 46  1  0  0  0  0
 11 32  1  0  0  0  0
 11 47  1  0  0  0  0
 11 48  1  0  0  0  0
 12 13  2  3  0  0  0
 12 49  1  0  0  0  0
 13 14  1  0  0  0  0
 13 50  1  0  0  0  0
 14 15  2  3  0  0  0
 14 51  1  0  0  0  0
 15 16  1  0  0  0  0
 15 21  1  0  0  0  0
 16 17  1  0  0  0  0
 16 52  1  0  0  0  0
 16 53  1  0  0  0  0
 17 18  1  0  0  0  0
 17 54  1  0  0  0  0
 17 55  1  0  0  0  0
 18 19  1  0  0  0  0
 18 56  1  0  0  0  0
 18 57  1  0  0  0  0
 19 20  1  0  0  0  0
 19 58  1  0  0  0  0
 19 59  1  0  0  0  0
 20 60  1  0  0  0  0
 20 61  1  0  0  0  0
 20 62  1  0  0  0  0
 21 22  2  3  0  0  0
 21 63  1  0  0  0  0
 22 64  1  0  0  0  0
 23 24  1  0  0  0  0
 23 32  2  0  0  0  0
 24 25  2  0  0  0  0
 24 65  1  0  0  0  0
 25 26  1  0  0  0  0
 25 66  1  0  0  0  0
 26 27  2  0  0  0  0
 26 67  1  0  0  0  0
 27 28  1  0  0  0  0
 27 68  1  0  0  0  0
 28 29  2  0  0  0  0
 28 69  1  0  0  0  0
 29 30  1  0  0  0  0
 29 70  1  0  0  0  0
 30 31  2  0  0  0  0
 30 71  1  0  0  0  0
 31 32  1  0  0  0  0
 31 72  1  0  0  0  0
M  END
$$$$
