
 OpenBabel04232216443D

 73 75  0  0  0  0  0  0  0  0999 V2000
    2.1735   -2.2446    0.3125 C   0  0  0  0  0  0  0  0  0  0  0  0
    3.4048   -1.6803    0.9584 C   0  0  0  0  0  0  0  0  0  0  0  0
    3.2726   -0.3270    1.1045 C   0  0  0  0  0  0  0  0  0  0  0  0
    4.4513    0.4686    1.3039 C   0  0  0  0  0  0  0  0  0  0  0  0
    5.0564    0.7865    0.1435 C   0  0  0  0  0  0  0  0  0  0  0  0
    4.4670    0.7019   -1.2387 C   0  0  0  0  0  0  0  0  0  0  0  0
    4.8509    1.9483   -2.0206 C   0  0  0  0  0  0  0  0  0  0  0  0
    4.2025    1.9320   -3.3936 C   0  0  0  0  0  0  0  0  0  0  0  0
    4.5117    3.2096   -4.1655 C   0  0  0  0  0  0  0  0  0  0  0  0
    3.8389    3.1884   -5.5331 C   0  0  0  0  0  0  0  0  0  0  0  0
    4.1386    4.4549   -6.3150 C   0  0  0  0  0  0  0  0  0  0  0  0
    5.1218    0.3753    2.6545 C   0  0  0  0  0  0  0  0  0  0  0  0
    6.4784    0.4184    2.6491 C   0  0  0  0  0  0  0  0  0  0  0  0
    7.2867    1.5659    2.0115 C   0  0  0  0  0  0  0  0  0  0  0  0
    8.1665    2.4077    2.7605 O   0  0  0  0  0  0  0  0  0  0  0  0
    8.5669    2.0583    4.0648 C   0  0  0  0  0  0  0  0  0  0  0  0
    7.4475    2.3083    5.0687 C   0  0  0  0  0  0  0  0  0  0  0  0
    7.4621    1.2625    6.1791 C   0  0  0  0  0  0  0  0  0  0  0  0
    6.3111    1.4609    7.1711 C   0  0  0  0  0  0  0  0  0  0  0  0
    5.3579    0.2703    7.2348 C   0  0  0  0  0  0  0  0  0  0  0  0
    4.4190    0.2975    6.0429 C   0  0  0  0  0  0  0  0  0  0  0  0
    4.7233   -0.8065    5.0493 C   0  0  0  0  0  0  0  0  0  0  0  0
    4.2051   -0.3804    3.6880 C   0  0  0  0  0  0  0  0  0  0  0  0
    7.2003   -0.8310    2.8355 C   0  0  0  0  0  0  0  0  0  0  0  0
    6.8214   -2.1417    2.7111 C   0  0  0  0  0  0  0  0  0  0  0  0
    7.6675   -2.9650    3.6143 C   0  0  0  0  0  0  0  0  0  0  0  0
    7.0598   -3.8580    4.4162 C   0  0  0  0  0  0  0  0  0  0  0  0
    5.6751   -4.2305    4.2107 C   0  0  0  0  0  0  0  0  0  0  0  0
    4.9202   -3.7301    3.2008 C   0  0  0  0  0  0  0  0  0  0  0  0
    5.4606   -2.7170    2.2605 C   0  0  0  0  0  0  0  0  0  0  0  0
    4.7929   -2.3426    1.1112 C   0  0  0  0  0  0  0  0  0  0  0  0
    1.3887   -2.4545    1.0404 H   0  0  0  0  0  0  0  0  0  0  0  0
    2.3689   -3.1133   -0.3222 H   0  0  0  0  0  0  0  0  0  0  0  0
    1.7359   -1.4893   -0.3737 H   0  0  0  0  0  0  0  0  0  0  0  0
    2.3450    0.2191    0.9905 H   0  0  0  0  0  0  0  0  0  0  0  0
    6.1101    1.0003    0.0764 H   0  0  0  0  0  0  0  0  0  0  0  0
    3.3761    0.6155   -1.2183 H   0  0  0  0  0  0  0  0  0  0  0  0
    4.8605   -0.1888   -1.7431 H   0  0  0  0  0  0  0  0  0  0  0  0
    5.9439    2.0067   -2.1332 H   0  0  0  0  0  0  0  0  0  0  0  0
    4.5439    2.8455   -1.4683 H   0  0  0  0  0  0  0  0  0  0  0  0
    3.1185    1.8445   -3.2743 H   0  0  0  0  0  0  0  0  0  0  0  0
    4.5460    1.0492   -3.9476 H   0  0  0  0  0  0  0  0  0  0  0  0
    5.5963    3.3163   -4.2814 H   0  0  0  0  0  0  0  0  0  0  0  0
    4.1566    4.0769   -3.5960 H   0  0  0  0  0  0  0  0  0  0  0  0
    2.7520    3.0868   -5.4154 H   0  0  0  0  0  0  0  0  0  0  0  0
    4.1853    2.3198   -6.1035 H   0  0  0  0  0  0  0  0  0  0  0  0
    3.7742    5.3398   -5.7832 H   0  0  0  0  0  0  0  0  0  0  0  0
    3.6497    4.4192   -7.2933 H   0  0  0  0  0  0  0  0  0  0  0  0
    5.2155    4.5686   -6.4751 H   0  0  0  0  0  0  0  0  0  0  0  0
    6.5888    2.2985    1.5901 H   0  0  0  0  0  0  0  0  0  0  0  0
    7.8835    1.1726    1.1806 H   0  0  0  0  0  0  0  0  0  0  0  0
    9.4025    2.7224    4.3154 H   0  0  0  0  0  0  0  0  0  0  0  0
    8.9826    1.0502    4.0890 H   0  0  0  0  0  0  0  0  0  0  0  0
    6.4711    2.3376    4.5774 H   0  0  0  0  0  0  0  0  0  0  0  0
    7.5833    3.3061    5.5056 H   0  0  0  0  0  0  0  0  0  0  0  0
    8.4108    1.3368    6.7226 H   0  0  0  0  0  0  0  0  0  0  0  0
    7.4416    0.2589    5.7406 H   0  0  0  0  0  0  0  0  0  0  0  0
    5.7412    2.3685    6.9336 H   0  0  0  0  0  0  0  0  0  0  0  0
    6.7292    1.6127    8.1709 H   0  0  0  0  0  0  0  0  0  0  0  0
    4.7531    0.3403    8.1411 H   0  0  0  0  0  0  0  0  0  0  0  0
    5.9122   -0.6768    7.2989 H   0  0  0  0  0  0  0  0  0  0  0  0
    4.4652    1.2637    5.5271 H   0  0  0  0  0  0  0  0  0  0  0  0
    3.3793    0.1819    6.3749 H   0  0  0  0  0  0  0  0  0  0  0  0
    4.1758   -1.7028    5.3850 H   0  0  0  0  0  0  0  0  0  0  0  0
    5.7705   -1.0892    5.0482 H   0  0  0  0  0  0  0  0  0  0  0  0
    3.3159    0.2461    3.8332 H   0  0  0  0  0  0  0  0  0  0  0  0
    3.7766   -1.2957    3.2939 H   0  0  0  0  0  0  0  0  0  0  0  0
    8.1936   -0.6422    3.2469 H   0  0  0  0  0  0  0  0  0  0  0  0
    8.6775   -2.6403    3.8702 H   0  0  0  0  0  0  0  0  0  0  0  0
    7.5873   -4.2681    5.2765 H   0  0  0  0  0  0  0  0  0  0  0  0
    5.2697   -4.9645    4.8972 H   0  0  0  0  0  0  0  0  0  0  0  0
    3.9127   -4.0920    3.0531 H   0  0  0  0  0  0  0  0  0  0  0  0
    5.4426   -1.8518    0.3816 H   0  0  0  0  0  0  0  0  0  0  0  0
  1  2  1  0  0  0  0
  1 32  1  0  0  0  0
  1 33  1  0  0  0  0
  1 34  1  0  0  0  0
  2  3  2  3  0  0  0
  2 31  1  0  0  0  0
  3  4  1  0  0  0  0
  3 35  1  0  0  0  0
  4  5  2  3  0  0  0
  4 12  1  0  0  0  0
  5  6  1  0  0  0  0
  5 36  1  0  0  0  0
  6  7  1  0  0  0  0
  6 37  1  0  0  0  0
  6 38  1  0  0  0  0
  7  8  1  0  0  0  0
  7 39  1  0  0  0  0
  7 40  1  0  0  0  0
  8  9  1  0  0  0  0
  8 41  1  0  0  0  0
  8 42  1  0  0  0  0
  9 10  1  0  0  0  0
  9 43  1  0  0  0  0
  9 44  1  0  0  0  0
 10 11  1  0  0  0  0
 10 45  1  0  0  0  0
 10 46  1  0  0  0  0
 11 47  1  0  0  0  0
 11 48  1  0  0  0  0
 11 49  1  0  0  0  0
 12 13  2  3  0  0  0
 12 23  1  0  0  0  0
 13 14  1  0  0  0  0
 13 24  1  0  0  0  0
 14 15  1  0  0  0  0
 14 50  1  0  0  0  0
 14 51  1  0  0  0  0
 15 16  1  0  0  0  0
 16 17  1  0  0  0  0
 16 52  1  0  0  0  0
 16 53  1  0  0  0  0
 17 18  1  0  0  0  0
 17 54  1  0  0  0  0
 17 55  1  0  0  0  0
 18 19  1  0  0  0  0
 18 56  1  0  0  0  0
 18 57  1  0  0  0  0
 19 20  1  0  0  0  0
 19 58  1  0  0  0  0
 19 59  1  0  0  0  0
 20 21  1  0  0  0  0
 20 60  1  0  0  0  0
 20 61  1  0  0  0  0
 21 22  1  0  0  0  0
 21 62  1  0  0  0  0
 21 63  1  0  0  0  0
 22 23  1  0  0  0  0
 22 64  1  0  0  0  0
 22 65  1  0  0  0  0
 23 66  1  0  0  0  0
 23 67  1  0  0  0  0
 24 25  2  3  0  0  0
 24 68  1  0  0  0  0
 25 26  1  0  0  0  0
 25 30  1  0  0  0  0
 26 27  2  0  0  0  0
 26 69  1  0  0  0  0
 27 28  1  0  0  0  0
 27 70  1  0  0  0  0
 28 29  2  0  0  0  0
 28 71  1  0  0  0  0
 29 30  1  0  0  0  0
 29 72  1  0  0  0  0
 30 31  2  3  0  0  0
 31 73  1  0  0  0  0
M  END
$$$$
