
 OpenBabel04232216593D

228228  0  0  1  0  0  0  0  0999 V2000
    1.1316    0.0850    0.1506 O   0  0  0  0  0  0  0  0  0  0  0  0
    2.3366    0.0468    0.0650 C   0  0  0  0  0  0  0  0  0  0  0  0
    3.4767    1.0693   -0.0084 C   0  0  0  0  0  0  0  0  0  0  0  0
    4.2882   -0.0039   -0.5725 O   0  0  0  0  0  0  0  0  0  0  0  0
    3.4249   -1.0329   -0.0055 C   0  0  3  0  0  0  0  0  0  0  0  0
    3.1864   -2.2007   -0.9365 C   0  0  0  0  0  0  0  0  0  0  0  0
    2.2871   -3.1943   -0.2047 C   0  0  0  0  0  0  0  0  0  0  0  0
    1.9958   -4.4206   -1.0497 C   0  0  0  0  0  0  0  0  0  0  0  0
    1.1007   -5.3833   -0.2821 C   0  0  0  0  0  0  0  0  0  0  0  0
    0.8096   -6.6066   -1.1317 C   0  0  0  0  0  0  0  0  0  0  0  0
   -0.0855   -7.5728   -0.3740 C   0  0  0  0  0  0  0  0  0  0  0  0
   -0.3719   -8.7905   -1.2316 C   0  0  0  0  0  0  0  0  0  0  0  0
   -1.2652   -9.7580   -0.4772 C   0  0  0  0  0  0  0  0  0  0  0  0
   -1.5508  -10.9745   -1.3370 C   0  0  0  0  0  0  0  0  0  0  0  0
   -2.4443  -11.9406   -0.5817 C   0  0  0  0  0  0  0  0  0  0  0  0
   -2.7302  -13.1573   -1.4410 C   0  0  0  0  0  0  0  0  0  0  0  0
   -3.6232  -14.1229   -0.6860 C   0  0  0  0  0  0  0  0  0  0  0  0
   -3.9075  -15.3400   -1.5441 C   0  0  0  0  0  0  0  0  0  0  0  0
   -4.8006  -16.3056   -0.7889 C   0  0  0  0  0  0  0  0  0  0  0  0
   -5.0851  -17.5234   -1.6471 C   0  0  0  0  0  0  0  0  0  0  0  0
   -5.9778  -18.4877   -0.8917 C   0  0  0  0  0  0  0  0  0  0  0  0
   -6.2630  -19.7067   -1.7494 C   0  0  0  0  0  0  0  0  0  0  0  0
   -7.1551  -20.6712   -0.9949 C   0  0  0  0  0  0  0  0  0  0  0  0
   -7.4396  -21.8882   -1.8541 C   0  0  0  0  0  0  0  0  0  0  0  0
   -8.3331  -22.8541   -1.0966 C   0  0  0  0  0  0  0  0  0  0  0  0
   -8.6168  -24.0715   -1.9559 C   0  0  0  0  0  0  0  0  0  0  0  0
   -9.5096  -25.0366   -1.2004 C   0  0  0  0  0  0  0  0  0  0  0  0
   -9.7926  -26.2549   -2.0588 C   0  0  0  0  0  0  0  0  0  0  0  0
  -10.6855  -27.2203   -1.3031 C   0  0  0  0  0  0  0  0  0  0  0  0
  -10.9667  -28.4394   -2.1604 C   0  0  0  0  0  0  0  0  0  0  0  0
  -11.8596  -29.4048   -1.4048 C   0  0  0  0  0  0  0  0  0  0  0  0
  -12.1422  -30.6232   -2.2627 C   0  0  0  0  0  0  0  0  0  0  0  0
  -13.0351  -31.5886   -1.5071 C   0  0  0  0  0  0  0  0  0  0  0  0
  -13.3161  -32.8072   -2.3645 C   0  0  0  0  0  0  0  0  0  0  0  0
  -14.2078  -33.7745   -1.6083 C   0  0  0  0  0  0  0  0  0  0  0  0
  -14.4935  -34.9943   -2.4641 C   0  0  0  0  0  0  0  0  0  0  0  0
  -15.3805  -35.9592   -1.7080 C   0  0  0  0  0  0  0  0  0  0  0  0
  -15.6670  -37.1765   -2.5688 C   0  0  0  0  0  0  0  0  0  0  0  0
  -16.5560  -38.1436   -1.8112 C   0  0  0  0  0  0  0  0  0  0  0  0
  -16.8391  -39.3616   -2.6698 C   0  0  0  0  0  0  0  0  0  0  0  0
  -17.7299  -40.3281   -1.9139 C   0  0  0  0  0  0  0  0  0  0  0  0
  -18.0105  -41.5457   -2.7688 C   0  0  0  0  0  0  0  0  0  0  0  0
  -18.9031  -42.5142   -2.0132 C   0  0  0  0  0  0  0  0  0  0  0  0
  -19.1835  -43.7324   -2.8705 C   0  0  0  0  0  0  0  0  0  0  0  0
  -20.0745  -44.6987   -2.1141 C   0  0  0  0  0  0  0  0  0  0  0  0
  -20.3541  -45.9187   -2.9706 C   0  0  0  0  0  0  0  0  0  0  0  0
  -21.2438  -46.8859   -2.2135 C   0  0  0  0  0  0  0  0  0  0  0  0
  -21.5232  -48.1061   -3.0698 C   0  0  0  0  0  0  0  0  0  0  0  0
  -22.4128  -49.0733   -2.3127 C   0  0  0  0  0  0  0  0  0  0  0  0
  -22.6924  -50.2933   -3.1692 C   0  0  0  0  0  0  0  0  0  0  0  0
  -23.5836  -51.2597   -2.4128 C   0  0  0  0  0  0  0  0  0  0  0  0
  -23.8631  -52.4798   -3.2692 C   0  0  0  0  0  0  0  0  0  0  0  0
  -24.7528  -53.4470   -2.5121 C   0  0  0  0  0  0  0  0  0  0  0  0
  -25.0323  -54.6671   -3.3685 C   0  0  0  0  0  0  0  0  0  0  0  0
  -25.9205  -55.6351   -2.6107 C   0  0  0  0  0  0  0  0  0  0  0  0
  -26.1999  -56.8553   -3.4671 C   0  0  0  0  0  0  0  0  0  0  0  0
  -27.0893  -57.8226   -2.7099 C   0  0  0  0  0  0  0  0  0  0  0  0
  -27.3673  -59.0435   -3.5656 C   0  0  0  0  0  0  0  0  0  0  0  0
  -28.2554  -60.0116   -2.8077 C   0  0  0  0  0  0  0  0  0  0  0  0
  -28.5347  -61.2318   -3.6640 C   0  0  0  0  0  0  0  0  0  0  0  0
  -29.4243  -62.1990   -2.9069 C   0  0  0  0  0  0  0  0  0  0  0  0
  -29.7023  -63.4200   -3.7626 C   0  0  0  0  0  0  0  0  0  0  0  0
  -30.5935  -64.3863   -3.0062 C   0  0  0  0  0  0  0  0  0  0  0  0
  -30.8730  -65.6065   -3.8626 C   0  0  0  0  0  0  0  0  0  0  0  0
  -31.7658  -66.5719   -3.1069 C   0  0  0  0  0  0  0  0  0  0  0  0
  -32.0456  -67.7914   -3.9637 C   0  0  0  0  0  0  0  0  0  0  0  0
  -32.9404  -68.7564   -3.2086 C   0  0  0  0  0  0  0  0  0  0  0  0
  -33.2208  -69.9757   -4.0670 C   0  0  0  0  0  0  0  0  0  0  0  0
  -34.1179  -70.9392   -3.3121 C   0  0  0  0  0  0  0  0  0  0  0  0
  -34.3968  -72.1599   -4.1686 C   0  0  0  0  0  0  0  0  0  0  0  0
  -35.2955  -73.1232   -3.4153 C   0  0  0  0  0  0  0  0  0  0  0  0
  -35.5763  -74.3443   -4.2705 C   0  0  0  0  0  0  0  0  0  0  0  0
  -36.4702  -75.3099   -3.5190 C   0  0  0  0  0  0  0  0  0  0  0  0
  -36.7573  -76.5343   -4.3742 C   0  0  0  0  0  0  0  0  0  0  0  0
  -37.6543  -77.4985   -3.6194 C   0  0  0  0  0  0  0  0  0  0  0  0
  -37.9394  -78.7237   -4.4745 C   0  0  0  0  0  0  0  0  0  0  0  0
  -38.8404  -79.7002   -3.7297 C   0  0  0  0  0  0  0  0  0  0  0  0
  -39.1235  -80.9196   -4.5831 C   0  0  0  0  0  0  0  0  0  0  0  0
    3.8534    1.3924    0.9653 H   0  0  0  0  0  0  0  0  0  0  0  0
    3.3261    1.9008   -0.6935 H   0  0  0  0  0  0  0  0  0  0  0  0
    3.8058   -1.3371    0.9760 H   0  0  0  0  0  0  0  0  0  0  0  0
    4.1380   -2.6865   -1.1872 H   0  0  0  0  0  0  0  0  0  0  0  0
    2.7238   -1.8835   -1.8792 H   0  0  0  0  0  0  0  0  0  0  0  0
    1.3443   -2.7095    0.0771 H   0  0  0  0  0  0  0  0  0  0  0  0
    2.7692   -3.5027    0.7328 H   0  0  0  0  0  0  0  0  0  0  0  0
    2.9335   -4.9206   -1.3181 H   0  0  0  0  0  0  0  0  0  0  0  0
    1.5038   -4.1210   -1.9828 H   0  0  0  0  0  0  0  0  0  0  0  0
    0.1609   -4.8876   -0.0089 H   0  0  0  0  0  0  0  0  0  0  0  0
    1.5881   -5.6871    0.6527 H   0  0  0  0  0  0  0  0  0  0  0  0
    1.7478   -7.1056   -1.4017 H   0  0  0  0  0  0  0  0  0  0  0  0
    0.3217   -6.3050   -2.0664 H   0  0  0  0  0  0  0  0  0  0  0  0
   -1.0259   -7.0773   -0.1013 H   0  0  0  0  0  0  0  0  0  0  0  0
    0.4020   -7.8802    0.5598 H   0  0  0  0  0  0  0  0  0  0  0  0
    0.5685   -9.2859   -1.5039 H   0  0  0  0  0  0  0  0  0  0  0  0
   -0.8592   -8.4840   -2.1660 H   0  0  0  0  0  0  0  0  0  0  0  0
   -2.2055   -9.2635   -0.2050 H   0  0  0  0  0  0  0  0  0  0  0  0
   -0.7780  -10.0661    0.4560 H   0  0  0  0  0  0  0  0  0  0  0  0
   -0.6108  -11.4701   -1.6094 H   0  0  0  0  0  0  0  0  0  0  0  0
   -2.0382  -10.6674   -2.2706 H   0  0  0  0  0  0  0  0  0  0  0  0
   -3.3843  -11.4458   -0.3093 H   0  0  0  0  0  0  0  0  0  0  0  0
   -1.9570  -12.2485    0.3520 H   0  0  0  0  0  0  0  0  0  0  0  0
   -1.7898  -13.6524   -1.7134 H   0  0  0  0  0  0  0  0  0  0  0  0
   -3.2173  -12.8498   -2.3747 H   0  0  0  0  0  0  0  0  0  0  0  0
   -4.5640  -13.6280   -0.4143 H   0  0  0  0  0  0  0  0  0  0  0  0
   -3.1364  -14.4294    0.2488 H   0  0  0  0  0  0  0  0  0  0  0  0
   -2.9668  -15.8349   -1.8153 H   0  0  0  0  0  0  0  0  0  0  0  0
   -4.3941  -15.0336   -2.4785 H   0  0  0  0  0  0  0  0  0  0  0  0
   -5.7414  -15.8109   -0.5175 H   0  0  0  0  0  0  0  0  0  0  0  0
   -4.3140  -16.6121    0.1456 H   0  0  0  0  0  0  0  0  0  0  0  0
   -4.1441  -18.0176   -1.9184 H   0  0  0  0  0  0  0  0  0  0  0  0
   -5.5715  -17.2163   -2.5821 H   0  0  0  0  0  0  0  0  0  0  0  0
   -6.9186  -17.9939   -0.6207 H   0  0  0  0  0  0  0  0  0  0  0  0
   -5.4916  -18.7950    0.0420 H   0  0  0  0  0  0  0  0  0  0  0  0
   -5.3218  -20.2005   -2.0215 H   0  0  0  0  0  0  0  0  0  0  0  0
   -6.7494  -19.3996   -2.6851 H   0  0  0  0  0  0  0  0  0  0  0  0
   -8.0972  -20.1771   -0.7230 H   0  0  0  0  0  0  0  0  0  0  0  0
   -6.6691  -20.9777   -0.0608 H   0  0  0  0  0  0  0  0  0  0  0  0
   -6.4991  -22.3830   -2.1245 H   0  0  0  0  0  0  0  0  0  0  0  0
   -7.9262  -21.5822   -2.7877 H   0  0  0  0  0  0  0  0  0  0  0  0
   -9.2732  -22.3594   -0.8269 H   0  0  0  0  0  0  0  0  0  0  0  0
   -7.8463  -23.1602   -0.1640 H   0  0  0  0  0  0  0  0  0  0  0  0
   -7.6761  -24.5658   -2.2275 H   0  0  0  0  0  0  0  0  0  0  0  0
   -9.1043  -23.7642   -2.8902 H   0  0  0  0  0  0  0  0  0  0  0  0
  -10.4513  -24.5423   -0.9308 H   0  0  0  0  0  0  0  0  0  0  0  0
   -9.0240  -25.3421   -0.2659 H   0  0  0  0  0  0  0  0  0  0  0  0
   -8.8511  -26.7490   -2.3286 H   0  0  0  0  0  0  0  0  0  0  0  0
  -10.2785  -25.9495   -2.9937 H   0  0  0  0  0  0  0  0  0  0  0  0
  -11.6274  -26.7265   -1.0345 H   0  0  0  0  0  0  0  0  0  0  0  0
  -10.2002  -27.5247   -0.3676 H   0  0  0  0  0  0  0  0  0  0  0  0
  -10.0247  -28.9333   -2.4291 H   0  0  0  0  0  0  0  0  0  0  0  0
  -11.4519  -28.1350   -3.0960 H   0  0  0  0  0  0  0  0  0  0  0  0
  -12.8011  -28.9107   -1.1350 H   0  0  0  0  0  0  0  0  0  0  0  0
  -11.3737  -29.7101   -0.4699 H   0  0  0  0  0  0  0  0  0  0  0  0
  -11.2007  -31.1173   -2.5324 H   0  0  0  0  0  0  0  0  0  0  0  0
  -12.6281  -30.3179   -3.1976 H   0  0  0  0  0  0  0  0  0  0  0  0
  -13.9771  -31.0947   -1.2384 H   0  0  0  0  0  0  0  0  0  0  0  0
  -12.5498  -31.8929   -0.5715 H   0  0  0  0  0  0  0  0  0  0  0  0
  -12.3743  -33.3008   -2.6341 H   0  0  0  0  0  0  0  0  0  0  0  0
  -13.8028  -32.5034   -3.2993 H   0  0  0  0  0  0  0  0  0  0  0  0
  -15.1493  -33.2807   -1.3371 H   0  0  0  0  0  0  0  0  0  0  0  0
  -13.7206  -34.0791   -0.6737 H   0  0  0  0  0  0  0  0  0  0  0  0
  -13.5484  -35.4861   -2.7376 H   0  0  0  0  0  0  0  0  0  0  0  0
  -14.9797  -34.6890   -3.4001 H   0  0  0  0  0  0  0  0  0  0  0  0
  -16.3243  -35.4653   -1.4375 H   0  0  0  0  0  0  0  0  0  0  0  0
  -14.8960  -36.2654   -0.7758 H   0  0  0  0  0  0  0  0  0  0  0  0
  -14.7247  -37.6696   -2.8406 H   0  0  0  0  0  0  0  0  0  0  0  0
  -16.1549  -36.8708   -3.5010 H   0  0  0  0  0  0  0  0  0  0  0  0
  -17.4981  -37.6503   -1.5394 H   0  0  0  0  0  0  0  0  0  0  0  0
  -16.0685  -38.4486   -0.8772 H   0  0  0  0  0  0  0  0  0  0  0  0
  -15.8971  -39.8548   -2.9400 H   0  0  0  0  0  0  0  0  0  0  0  0
  -17.3257  -39.0562   -3.6030 H   0  0  0  0  0  0  0  0  0  0  0  0
  -18.6716  -39.8346   -1.6414 H   0  0  0  0  0  0  0  0  0  0  0  0
  -17.2422  -40.6333   -0.9781 H   0  0  0  0  0  0  0  0  0  0  0  0
  -17.0713  -42.0389   -3.0425 H   0  0  0  0  0  0  0  0  0  0  0  0
  -18.5014  -41.2418   -3.7056 H   0  0  0  0  0  0  0  0  0  0  0  0
  -19.8444  -42.0209   -1.7425 H   0  0  0  0  0  0  0  0  0  0  0  0
  -18.4144  -42.8172   -1.0792 H   0  0  0  0  0  0  0  0  0  0  0  0
  -18.2412  -44.2252   -3.1404 H   0  0  0  0  0  0  0  0  0  0  0  0
  -19.6699  -43.4285   -3.8055 H   0  0  0  0  0  0  0  0  0  0  0  0
  -21.0172  -44.2062   -1.8455 H   0  0  0  0  0  0  0  0  0  0  0  0
  -19.5885  -45.0018   -1.1786 H   0  0  0  0  0  0  0  0  0  0  0  0
  -19.4114  -46.4106   -3.2403 H   0  0  0  0  0  0  0  0  0  0  0  0
  -20.8412  -45.6158   -3.9056 H   0  0  0  0  0  0  0  0  0  0  0  0
  -22.1866  -46.3942   -1.9438 H   0  0  0  0  0  0  0  0  0  0  0  0
  -20.7566  -47.1888   -1.2785 H   0  0  0  0  0  0  0  0  0  0  0  0
  -20.5803  -48.5978   -3.3395 H   0  0  0  0  0  0  0  0  0  0  0  0
  -22.0104  -47.8033   -4.0049 H   0  0  0  0  0  0  0  0  0  0  0  0
  -23.3556  -48.5815   -2.0430 H   0  0  0  0  0  0  0  0  0  0  0  0
  -21.9256  -49.3762   -1.3777 H   0  0  0  0  0  0  0  0  0  0  0  0
  -21.7496  -50.7858   -3.4378 H   0  0  0  0  0  0  0  0  0  0  0  0
  -23.1784  -49.9904   -4.1048 H   0  0  0  0  0  0  0  0  0  0  0  0
  -24.5264  -50.7673   -2.1443 H   0  0  0  0  0  0  0  0  0  0  0  0
  -23.0976  -51.5627   -1.4772 H   0  0  0  0  0  0  0  0  0  0  0  0
  -22.9203  -52.9716   -3.5389 H   0  0  0  0  0  0  0  0  0  0  0  0
  -24.3503  -52.1769   -4.2043 H   0  0  0  0  0  0  0  0  0  0  0  0
  -25.6956  -52.9553   -2.2423 H   0  0  0  0  0  0  0  0  0  0  0  0
  -24.2654  -53.7499   -1.5771 H   0  0  0  0  0  0  0  0  0  0  0  0
  -24.0894  -55.1581   -3.6393 H   0  0  0  0  0  0  0  0  0  0  0  0
  -25.5207  -54.3643   -4.3029 H   0  0  0  0  0  0  0  0  0  0  0  0
  -26.8633  -55.1441   -2.3398 H   0  0  0  0  0  0  0  0  0  0  0  0
  -25.4320  -55.9379   -1.6763 H   0  0  0  0  0  0  0  0  0  0  0  0
  -25.2569  -57.3468   -3.7368 H   0  0  0  0  0  0  0  0  0  0  0  0
  -26.6872  -56.5526   -4.4021 H   0  0  0  0  0  0  0  0  0  0  0  0
  -28.0327  -57.3313   -2.4413 H   0  0  0  0  0  0  0  0  0  0  0  0
  -26.6026  -58.1243   -1.7742 H   0  0  0  0  0  0  0  0  0  0  0  0
  -26.4239  -59.5341   -3.8352 H   0  0  0  0  0  0  0  0  0  0  0  0
  -27.8551  -58.7417   -4.5006 H   0  0  0  0  0  0  0  0  0  0  0  0
  -29.1983  -59.5207   -2.5369 H   0  0  0  0  0  0  0  0  0  0  0  0
  -27.7670  -60.3142   -1.8732 H   0  0  0  0  0  0  0  0  0  0  0  0
  -27.5918  -61.7233   -3.9338 H   0  0  0  0  0  0  0  0  0  0  0  0
  -29.0221  -60.9291   -4.5991 H   0  0  0  0  0  0  0  0  0  0  0  0
  -30.3676  -61.7076   -2.6385 H   0  0  0  0  0  0  0  0  0  0  0  0
  -28.9378  -62.5008   -1.9711 H   0  0  0  0  0  0  0  0  0  0  0  0
  -28.7590  -63.9121   -4.0300 H   0  0  0  0  0  0  0  0  0  0  0  0
  -30.1877  -63.1180   -4.6988 H   0  0  0  0  0  0  0  0  0  0  0  0
  -31.5363  -63.8937   -2.7378 H   0  0  0  0  0  0  0  0  0  0  0  0
  -30.1077  -64.6892   -2.0704 H   0  0  0  0  0  0  0  0  0  0  0  0
  -29.9303  -66.0997   -4.1299 H   0  0  0  0  0  0  0  0  0  0  0  0
  -31.3577  -65.3033   -4.7988 H   0  0  0  0  0  0  0  0  0  0  0  0
  -32.7086  -66.0783   -2.8397 H   0  0  0  0  0  0  0  0  0  0  0  0
  -31.2815  -66.8750   -2.1707 H   0  0  0  0  0  0  0  0  0  0  0  0
  -31.1031  -68.2861   -4.2297 H   0  0  0  0  0  0  0  0  0  0  0  0
  -32.5290  -67.4884   -4.9001 H   0  0  0  0  0  0  0  0  0  0  0  0
  -33.8822  -68.2616   -2.9414 H   0  0  0  0  0  0  0  0  0  0  0  0
  -32.4564  -69.0607   -2.2724 H   0  0  0  0  0  0  0  0  0  0  0  0
  -32.2794  -70.4705   -4.3316 H   0  0  0  0  0  0  0  0  0  0  0  0
  -33.7030  -69.6712   -5.0028 H   0  0  0  0  0  0  0  0  0  0  0  0
  -35.0601  -70.4437   -3.0470 H   0  0  0  0  0  0  0  0  0  0  0  0
  -33.6357  -71.2426   -2.3743 H   0  0  0  0  0  0  0  0  0  0  0  0
  -33.4551  -72.6547   -4.4317 H   0  0  0  0  0  0  0  0  0  0  0  0
  -34.8779  -71.8558   -5.1063 H   0  0  0  0  0  0  0  0  0  0  0  0
  -36.2376  -72.6272   -3.1516 H   0  0  0  0  0  0  0  0  0  0  0  0
  -34.8144  -73.4261   -2.4768 H   0  0  0  0  0  0  0  0  0  0  0  0
  -34.6315  -74.8388   -4.5365 H   0  0  0  0  0  0  0  0  0  0  0  0
  -36.0567  -74.0400   -5.2100 H   0  0  0  0  0  0  0  0  0  0  0  0
  -37.4141  -74.8136   -3.2523 H   0  0  0  0  0  0  0  0  0  0  0  0
  -35.9888  -75.6128   -2.5819 H   0  0  0  0  0  0  0  0  0  0  0  0
  -35.8136  -77.0269   -4.6414 H   0  0  0  0  0  0  0  0  0  0  0  0
  -37.2378  -76.2269   -5.3113 H   0  0  0  0  0  0  0  0  0  0  0  0
  -38.5933  -77.0004   -3.3539 H   0  0  0  0  0  0  0  0  0  0  0  0
  -37.1695  -77.7993   -2.6828 H   0  0  0  0  0  0  0  0  0  0  0  0
  -36.9959  -79.2159   -4.7396 H   0  0  0  0  0  0  0  0  0  0  0  0
  -38.4177  -78.4158   -5.4110 H   0  0  0  0  0  0  0  0  0  0  0  0
  -39.7847  -79.2080   -3.4652 H   0  0  0  0  0  0  0  0  0  0  0  0
  -38.3613  -80.0092   -2.7923 H   0  0  0  0  0  0  0  0  0  0  0  0
  -39.6228  -80.6329   -5.5151 H   0  0  0  0  0  0  0  0  0  0  0  0
  -39.7705  -81.6190   -4.0476 H   0  0  0  0  0  0  0  0  0  0  0  0
  -38.1934  -81.4376   -4.8396 H   0  0  0  0  0  0  0  0  0  0  0  0
  1  2  2  0  0  0  0
  2  3  1  0  0  0  0
  2  5  1  0  0  0  0
  3  4  1  0  0  0  0
  3 79  1  0  0  0  0
  3 80  1  0  0  0  0
  4  5  1  0  0  0  0
  5  6  1  0  0  0  0
  5 81  1  0  0  0  0
  6  7  1  0  0  0  0
  6 82  1  0  0  0  0
  6 83  1  0  0  0  0
  7  8  1  0  0  0  0
  7 84  1  0  0  0  0
  7 85  1  0  0  0  0
  8  9  1  0  0  0  0
  8 86  1  0  0  0  0
  8 87  1  0  0  0  0
  9 10  1  0  0  0  0
  9 88  1  0  0  0  0
  9 89  1  0  0  0  0
 10 11  1  0  0  0  0
 10 90  1  0  0  0  0
 10 91  1  0  0  0  0
 11 12  1  0  0  0  0
 11 92  1  0  0  0  0
 11 93  1  0  0  0  0
 12 13  1  0  0  0  0
 12 94  1  0  0  0  0
 12 95  1  0  0  0  0
 13 14  1  0  0  0  0
 13 96  1  0  0  0  0
 13 97  1  0  0  0  0
 14 15  1  0  0  0  0
 14 98  1  0  0  0  0
 14 99  1  0  0  0  0
 15 16  1  0  0  0  0
 15100  1  0  0  0  0
 15101  1  0  0  0  0
 16 17  1  0  0  0  0
 16102  1  0  0  0  0
 16103  1  0  0  0  0
 17 18  1  0  0  0  0
 17104  1  0  0  0  0
 17105  1  0  0  0  0
 18 19  1  0  0  0  0
 18106  1  0  0  0  0
 18107  1  0  0  0  0
 19 20  1  0  0  0  0
 19108  1  0  0  0  0
 19109  1  0  0  0  0
 20 21  1  0  0  0  0
 20110  1  0  0  0  0
 20111  1  0  0  0  0
 21 22  1  0  0  0  0
 21112  1  0  0  0  0
 21113  1  0  0  0  0
 22 23  1  0  0  0  0
 22114  1  0  0  0  0
 22115  1  0  0  0  0
 23 24  1  0  0  0  0
 23116  1  0  0  0  0
 23117  1  0  0  0  0
 24 25  1  0  0  0  0
 24118  1  0  0  0  0
 24119  1  0  0  0  0
 25 26  1  0  0  0  0
 25120  1  0  0  0  0
 25121  1  0  0  0  0
 26 27  1  0  0  0  0
 26122  1  0  0  0  0
 26123  1  0  0  0  0
 27 28  1  0  0  0  0
 27124  1  0  0  0  0
 27125  1  0  0  0  0
 28 29  1  0  0  0  0
 28126  1  0  0  0  0
 28127  1  0  0  0  0
 29 30  1  0  0  0  0
 29128  1  0  0  0  0
 29129  1  0  0  0  0
 30 31  1  0  0  0  0
 30130  1  0  0  0  0
 30131  1  0  0  0  0
 31 32  1  0  0  0  0
 31132  1  0  0  0  0
 31133  1  0  0  0  0
 32 33  1  0  0  0  0
 32134  1  0  0  0  0
 32135  1  0  0  0  0
 33 34  1  0  0  0  0
 33136  1  0  0  0  0
 33137  1  0  0  0  0
 34 35  1  0  0  0  0
 34138  1  0  0  0  0
 34139  1  0  0  0  0
 35 36  1  0  0  0  0
 35140  1  0  0  0  0
 35141  1  0  0  0  0
 36 37  1  0  0  0  0
 36142  1  0  0  0  0
 36143  1  0  0  0  0
 37 38  1  0  0  0  0
 37144  1  0  0  0  0
 37145  1  0  0  0  0
 38 39  1  0  0  0  0
 38146  1  0  0  0  0
 38147  1  0  0  0  0
 39 40  1  0  0  0  0
 39148  1  0  0  0  0
 39149  1  0  0  0  0
 40 41  1  0  0  0  0
 40150  1  0  0  0  0
 40151  1  0  0  0  0
 41 42  1  0  0  0  0
 41152  1  0  0  0  0
 41153  1  0  0  0  0
 42 43  1  0  0  0  0
 42154  1  0  0  0  0
 42155  1  0  0  0  0
 43 44  1  0  0  0  0
 43156  1  0  0  0  0
 43157  1  0  0  0  0
 44 45  1  0  0  0  0
 44158  1  0  0  0  0
 44159  1  0  0  0  0
 45 46  1  0  0  0  0
 45160  1  0  0  0  0
 45161  1  0  0  0  0
 46 47  1  0  0  0  0
 46162  1  0  0  0  0
 46163  1  0  0  0  0
 47 48  1  0  0  0  0
 47164  1  0  0  0  0
 47165  1  0  0  0  0
 48 49  1  0  0  0  0
 48166  1  0  0  0  0
 48167  1  0  0  0  0
 49 50  1  0  0  0  0
 49168  1  0  0  0  0
 49169  1  0  0  0  0
 50 51  1  0  0  0  0
 50170  1  0  0  0  0
 50171  1  0  0  0  0
 51 52  1  0  0  0  0
 51172  1  0  0  0  0
 51173  1  0  0  0  0
 52 53  1  0  0  0  0
 52174  1  0  0  0  0
 52175  1  0  0  0  0
 53 54  1  0  0  0  0
 53176  1  0  0  0  0
 53177  1  0  0  0  0
 54 55  1  0  0  0  0
 54178  1  0  0  0  0
 54179  1  0  0  0  0
 55 56  1  0  0  0  0
 55180  1  0  0  0  0
 55181  1  0  0  0  0
 56 57  1  0  0  0  0
 56182  1  0  0  0  0
 56183  1  0  0  0  0
 57 58  1  0  0  0  0
 57184  1  0  0  0  0
 57185  1  0  0  0  0
 58 59  1  0  0  0  0
 58186  1  0  0  0  0
 58187  1  0  0  0  0
 59 60  1  0  0  0  0
 59188  1  0  0  0  0
 59189  1  0  0  0  0
 60 61  1  0  0  0  0
 60190  1  0  0  0  0
 60191  1  0  0  0  0
 61 62  1  0  0  0  0
 61192  1  0  0  0  0
 61193  1  0  0  0  0
 62 63  1  0  0  0  0
 62194  1  0  0  0  0
 62195  1  0  0  0  0
 63 64  1  0  0  0  0
 63196  1  0  0  0  0
 63197  1  0  0  0  0
 64 65  1  0  0  0  0
 64198  1  0  0  0  0
 64199  1  0  0  0  0
 65 66  1  0  0  0  0
 65200  1  0  0  0  0
 65201  1  0  0  0  0
 66 67  1  0  0  0  0
 66202  1  0  0  0  0
 66203  1  0  0  0  0
 67 68  1  0  0  0  0
 67204  1  0  0  0  0
 67205  1  0  0  0  0
 68 69  1  0  0  0  0
 68206  1  0  0  0  0
 68207  1  0  0  0  0
 69 70  1  0  0  0  0
 69208  1  0  0  0  0
 69209  1  0  0  0  0
 70 71  1  0  0  0  0
 70210  1  0  0  0  0
 70211  1  0  0  0  0
 71 72  1  0  0  0  0
 71212  1  0  0  0  0
 71213  1  0  0  0  0
 72 73  1  0  0  0  0
 72214  1  0  0  0  0
 72215  1  0  0  0  0
 73 74  1  0  0  0  0
 73216  1  0  0  0  0
 73217  1  0  0  0  0
 74 75  1  0  0  0  0
 74218  1  0  0  0  0
 74219  1  0  0  0  0
 75 76  1  0  0  0  0
 75220  1  0  0  0  0
 75221  1  0  0  0  0
 76 77  1  0  0  0  0
 76222  1  0  0  0  0
 76223  1  0  0  0  0
 77 78  1  0  0  0  0
 77224  1  0  0  0  0
 77225  1  0  0  0  0
 78226  1  0  0  0  0
 78227  1  0  0  0  0
 78228  1  0  0  0  0
M  END
$$$$
