
 OpenBabel04232217003D

193192  0  0  0  0  0  0  0  0999 V2000
    0.8869    0.0116   -0.0938 O   0  0  0  0  0  0  0  0  0  0  0  0
    2.3061   -0.0128   -0.1041 C   0  0  0  0  0  0  0  0  0  0  0  0
    2.8246    1.2222    0.6127 C   0  0  0  0  0  0  0  0  0  0  0  0
    4.3469    1.2437    0.6276 C   0  0  0  0  0  0  0  0  0  0  0  0
    4.8658    2.4819    1.3465 C   0  0  0  0  0  0  0  0  0  0  0  0
    6.3877    2.4917    1.3547 C   0  0  0  0  0  0  0  0  0  0  0  0
    6.9050    3.7271    2.0741 C   0  0  0  0  0  0  0  0  0  0  0  0
    8.4242    3.7323    2.0817 C   0  0  0  0  0  0  0  0  0  0  0  0
    8.9374    4.9673    2.8009 C   0  0  0  0  0  0  0  0  0  0  0  0
   10.4548    4.9714    2.8056 C   0  0  0  0  0  0  0  0  0  0  0  0
   10.9650    6.2065    3.5229 C   0  0  0  0  0  0  0  0  0  0  0  0
   12.4808    6.2097    3.5247 C   0  0  0  0  0  0  0  0  0  0  0  0
   12.9875    7.4433    4.2429 C   0  0  0  0  0  0  0  0  0  0  0  0
   14.5009    7.4448    4.2417 C   0  0  0  0  0  0  0  0  0  0  0  0
   15.0023    8.6776    4.9596 C   0  0  0  0  0  0  0  0  0  0  0  0
   16.5121    8.6736    4.9569 C   0  0  0  0  0  0  0  0  0  0  0  0
   17.0058    9.9051    5.6720 C   0  0  0  0  0  0  0  0  0  0  0  0
   18.5105    9.8906    5.6616 C   0  0  0  0  0  0  0  0  0  0  0  0
   18.9952   11.1170    6.3758 C   0  0  0  0  0  0  0  0  0  0  0  0
   20.4920   11.0848    6.3569 C   0  0  0  0  0  0  0  0  0  0  0  0
   20.9556   12.3062    7.0647 C   0  0  0  0  0  0  0  0  0  0  0  0
   22.4351   12.2748    7.0456 C   0  0  0  0  0  0  0  0  0  0  0  0
   22.7554   13.4470    7.7167 O   0  0  0  0  0  0  0  0  0  0  0  0
   24.1513   13.3984    7.7102 O   0  0  0  0  0  0  0  0  0  0  0  0
   24.5987   14.5402    8.3652 O   0  0  0  0  0  0  0  0  0  0  0  0
   25.9872   14.5202    8.3092 O   0  0  0  0  0  0  0  0  0  0  0  0
   26.4230   15.6472    8.9914 O   0  0  0  0  0  0  0  0  0  0  0  0
   27.8081   15.6048    8.9856 O   0  0  0  0  0  0  0  0  0  0  0  0
   28.2361   16.7549    9.6338 O   0  0  0  0  0  0  0  0  0  0  0  0
   29.6183   16.7245    9.6024 O   0  0  0  0  0  0  0  0  0  0  0  0
   30.0377   17.8607   10.2645 O   0  0  0  0  0  0  0  0  0  0  0  0
   31.4213   17.8211   10.2505 O   0  0  0  0  0  0  0  0  0  0  0  0
   31.8380   18.9533   10.9222 O   0  0  0  0  0  0  0  0  0  0  0  0
   33.2167   18.9381   10.8815 O   0  0  0  0  0  0  0  0  0  0  0  0
   33.6332   20.0855   11.5259 O   0  0  0  0  0  0  0  0  0  0  0  0
   35.0120   20.0345   11.5252 O   0  0  0  0  0  0  0  0  0  0  0  0
   35.4280   21.1694   12.1911 O   0  0  0  0  0  0  0  0  0  0  0  0
   36.8038   21.1315   12.1548 O   0  0  0  0  0  0  0  0  0  0  0  0
   37.2382   22.2617   12.8061 O   0  0  0  0  0  0  0  0  0  0  0  0
   38.6141   22.2284   12.7881 O   0  0  0  0  0  0  0  0  0  0  0  0
   39.0415   23.3665   13.4477 O   0  0  0  0  0  0  0  0  0  0  0  0
   40.4261   23.3374   13.4341 O   0  0  0  0  0  0  0  0  0  0  0  0
   40.8455   24.4846   14.0937 O   0  0  0  0  0  0  0  0  0  0  0  0
   42.2328   24.4611   14.0728 O   0  0  0  0  0  0  0  0  0  0  0  0
   42.6526   25.6095   14.7431 O   0  0  0  0  0  0  0  0  0  0  0  0
   44.0393   25.5890   14.7315 O   0  0  0  0  0  0  0  0  0  0  0  0
   44.4671   26.7422   15.3947 O   0  0  0  0  0  0  0  0  0  0  0  0
   45.8538   26.6127   15.3185 C   0  0  0  0  0  0  0  0  0  0  0  0
   46.3020   27.8303   16.0235 C   0  0  0  0  0  0  0  0  0  0  0  0
   47.7905   27.8023   16.0074 C   0  0  0  0  0  0  0  0  0  0  0  0
   48.2529   29.0341   16.7203 C   0  0  0  0  0  0  0  0  0  0  0  0
   49.7545   29.0218   16.7109 C   0  0  0  0  0  0  0  0  0  0  0  0
   50.2371   30.2546   17.4223 C   0  0  0  0  0  0  0  0  0  0  0  0
   51.7444   30.2488   17.4142 C   0  0  0  0  0  0  0  0  0  0  0  0
   52.2428   31.4822   18.1278 C   0  0  0  0  0  0  0  0  0  0  0  0
   53.7547   31.4823   18.1210 C   0  0  0  0  0  0  0  0  0  0  0  0
   54.2594   32.7180   18.8339 C   0  0  0  0  0  0  0  0  0  0  0  0
   55.7737   32.7211   18.8309 C   0  0  0  0  0  0  0  0  0  0  0  0
   56.2812   33.9577   19.5443 C   0  0  0  0  0  0  0  0  0  0  0  0
   57.7968   33.9617   19.5442 C   0  0  0  0  0  0  0  0  0  0  0  0
   58.3058   35.1986   20.2578 C   0  0  0  0  0  0  0  0  0  0  0  0
   59.8220   35.2033   20.2581 C   0  0  0  0  0  0  0  0  0  0  0  0
   60.3316   36.4403   20.9718 C   0  0  0  0  0  0  0  0  0  0  0  0
   61.8480   36.4453   20.9724 C   0  0  0  0  0  0  0  0  0  0  0  0
   62.3579   37.6825   21.6861 C   0  0  0  0  0  0  0  0  0  0  0  0
   63.8744   37.6876   21.6867 C   0  0  0  0  0  0  0  0  0  0  0  0
   64.3845   38.9248   22.4005 C   0  0  0  0  0  0  0  0  0  0  0  0
   65.9011   38.9300   22.4010 C   0  0  0  0  0  0  0  0  0  0  0  0
   66.4112   40.1672   23.1148 C   0  0  0  0  0  0  0  0  0  0  0  0
   67.9279   40.1735   23.1139 C   0  0  0  0  0  0  0  0  0  0  0  0
   68.4382   41.4109   23.8275 C   0  0  0  0  0  0  0  0  0  0  0  0
   69.9552   41.4175   23.8265 C   0  0  0  0  0  0  0  0  0  0  0  0
   70.4663   42.6550   24.5403 C   0  0  0  0  0  0  0  0  0  0  0  0
   71.9839   42.6619   24.5396 C   0  0  0  0  0  0  0  0  0  0  0  0
   72.4972   43.8993   25.2536 C   0  0  0  0  0  0  0  0  0  0  0  0
   74.0160   43.9059   25.2552 C   0  0  0  0  0  0  0  0  0  0  0  0
   74.5325   45.1438   25.9692 C   0  0  0  0  0  0  0  0  0  0  0  0
   76.0536   45.1540   25.9727 C   0  0  0  0  0  0  0  0  0  0  0  0
   76.5715   46.3947   26.6862 C   0  0  0  0  0  0  0  0  0  0  0  0
   78.0947   46.4170   26.6945 C   0  0  0  0  0  0  0  0  0  0  0  0
   78.6093   47.6544   27.4059 C   0  0  0  0  0  0  0  0  0  0  0  0
    0.5875   -0.7879   -0.5582 H   0  0  0  0  0  0  0  0  0  0  0  0
    2.6492   -0.0309   -1.1435 H   0  0  0  0  0  0  0  0  0  0  0  0
    2.6450   -0.9243    0.3988 H   0  0  0  0  0  0  0  0  0  0  0  0
    2.4334    1.2451    1.6376 H   0  0  0  0  0  0  0  0  0  0  0  0
    2.4358    2.1235    0.1225 H   0  0  0  0  0  0  0  0  0  0  0  0
    4.7288    1.2289   -0.4006 H   0  0  0  0  0  0  0  0  0  0  0  0
    4.7263    0.3434    1.1264 H   0  0  0  0  0  0  0  0  0  0  0  0
    4.4908    2.5001    2.3771 H   0  0  0  0  0  0  0  0  0  0  0  0
    4.4933    3.3860    0.8496 H   0  0  0  0  0  0  0  0  0  0  0  0
    6.7671    2.4769    0.3255 H   0  0  0  0  0  0  0  0  0  0  0  0
    6.7646    1.5893    1.8516 H   0  0  0  0  0  0  0  0  0  0  0  0
    6.5289    3.7446    3.1044 H   0  0  0  0  0  0  0  0  0  0  0  0
    6.5333    4.6318    1.5775 H   0  0  0  0  0  0  0  0  0  0  0  0
    8.8039    3.7169    1.0526 H   0  0  0  0  0  0  0  0  0  0  0  0
    8.7995    2.8297    2.5794 H   0  0  0  0  0  0  0  0  0  0  0  0
    8.5617    4.9838    3.8314 H   0  0  0  0  0  0  0  0  0  0  0  0
    8.5641    5.8717    2.3048 H   0  0  0  0  0  0  0  0  0  0  0  0
   10.8331    4.9553    1.7760 H   0  0  0  0  0  0  0  0  0  0  0  0
   10.8307    4.0692    3.3037 H   0  0  0  0  0  0  0  0  0  0  0  0
   10.5904    6.2236    4.5538 H   0  0  0  0  0  0  0  0  0  0  0  0
   10.5907    7.1104    3.0265 H   0  0  0  0  0  0  0  0  0  0  0  0
   12.8580    6.1958    2.4947 H   0  0  0  0  0  0  0  0  0  0  0  0
   12.8583    5.3071    4.0210 H   0  0  0  0  0  0  0  0  0  0  0  0
   12.6146    7.4586    5.2746 H   0  0  0  0  0  0  0  0  0  0  0  0
   12.6125    8.3481    3.7486 H   0  0  0  0  0  0  0  0  0  0  0  0
   14.8784    7.4326    3.2117 H   0  0  0  0  0  0  0  0  0  0  0  0
   14.8805    6.5429    4.7377 H   0  0  0  0  0  0  0  0  0  0  0  0
   14.6302    8.6941    5.9915 H   0  0  0  0  0  0  0  0  0  0  0  0
   14.6298    9.5831    4.4647 H   0  0  0  0  0  0  0  0  0  0  0  0
   16.8922    8.6606    3.9278 H   0  0  0  0  0  0  0  0  0  0  0  0
   16.8924    7.7734    5.4557 H   0  0  0  0  0  0  0  0  0  0  0  0
   16.6381    9.9239    6.7056 H   0  0  0  0  0  0  0  0  0  0  0  0
   16.6362   10.8121    5.1777 H   0  0  0  0  0  0  0  0  0  0  0  0
   18.8903    9.8808    4.6322 H   0  0  0  0  0  0  0  0  0  0  0  0
   18.8925    8.9905    6.1595 H   0  0  0  0  0  0  0  0  0  0  0  0
   18.6314   11.1378    7.4109 H   0  0  0  0  0  0  0  0  0  0  0  0
   18.6311   12.0274    5.8828 H   0  0  0  0  0  0  0  0  0  0  0  0
   20.8750   11.0758    5.3286 H   0  0  0  0  0  0  0  0  0  0  0  0
   20.8753   10.1874    6.8589 H   0  0  0  0  0  0  0  0  0  0  0  0
   20.5977   12.3455    8.1044 H   0  0  0  0  0  0  0  0  0  0  0  0
   20.5950   13.2275    6.5864 H   0  0  0  0  0  0  0  0  0  0  0  0
   22.8426   12.3043    6.0267 H   0  0  0  0  0  0  0  0  0  0  0  0
   22.8454   11.4089    7.5787 H   0  0  0  0  0  0  0  0  0  0  0  0
   46.1647   26.5879   14.2689 H   0  0  0  0  0  0  0  0  0  0  0  0
   46.1664   25.6901   15.8185 H   0  0  0  0  0  0  0  0  0  0  0  0
   45.8992   27.8440   17.0467 H   0  0  0  0  0  0  0  0  0  0  0  0
   45.8991   28.7243   15.5260 H   0  0  0  0  0  0  0  0  0  0  0  0
   48.1562   27.7816   14.9737 H   0  0  0  0  0  0  0  0  0  0  0  0
   48.1564   26.8958   16.5042 H   0  0  0  0  0  0  0  0  0  0  0  0
   47.8680   29.0431   17.7479 H   0  0  0  0  0  0  0  0  0  0  0  0
   47.8657   29.9295   16.2179 H   0  0  0  0  0  0  0  0  0  0  0  0
   50.1213   29.0005   15.6771 H   0  0  0  0  0  0  0  0  0  0  0  0
   50.1238   28.1161   17.2078 H   0  0  0  0  0  0  0  0  0  0  0  0
   49.8574   30.2675   18.4517 H   0  0  0  0  0  0  0  0  0  0  0  0
   49.8529   31.1522   16.9217 H   0  0  0  0  0  0  0  0  0  0  0  0
   52.1129   30.2301   16.3810 H   0  0  0  0  0  0  0  0  0  0  0  0
   52.1180   29.3439   17.9094 H   0  0  0  0  0  0  0  0  0  0  0  0
   51.8675   31.4955   19.1585 H   0  0  0  0  0  0  0  0  0  0  0  0
   51.8606   32.3823   17.6306 H   0  0  0  0  0  0  0  0  0  0  0  0
   54.1243   31.4641   17.0882 H   0  0  0  0  0  0  0  0  0  0  0  0
   54.1311   30.5791   18.6169 H   0  0  0  0  0  0  0  0  0  0  0  0
   53.8845   32.7344   19.8647 H   0  0  0  0  0  0  0  0  0  0  0  0
   53.8796   33.6185   18.3356 H   0  0  0  0  0  0  0  0  0  0  0  0
   56.1459   32.7029   17.7992 H   0  0  0  0  0  0  0  0  0  0  0  0
   56.1506   31.8188   19.3282 H   0  0  0  0  0  0  0  0  0  0  0  0
   55.9059   33.9755   20.5750 H   0  0  0  0  0  0  0  0  0  0  0  0
   55.9033   34.8588   19.0456 H   0  0  0  0  0  0  0  0  0  0  0  0
   58.1708   33.9431   18.5131 H   0  0  0  0  0  0  0  0  0  0  0  0
   58.1733   33.0598   20.0425 H   0  0  0  0  0  0  0  0  0  0  0  0
   57.9308   35.2167   21.2886 H   0  0  0  0  0  0  0  0  0  0  0  0
   57.9285   36.1000   19.7592 H   0  0  0  0  0  0  0  0  0  0  0  0
   60.1964   35.1848   19.2272 H   0  0  0  0  0  0  0  0  0  0  0  0
   60.1987   34.3015   20.7565 H   0  0  0  0  0  0  0  0  0  0  0  0
   59.9568   36.4586   22.0027 H   0  0  0  0  0  0  0  0  0  0  0  0
   59.9544   37.3418   20.4733 H   0  0  0  0  0  0  0  0  0  0  0  0
   62.2226   36.4270   19.9414 H   0  0  0  0  0  0  0  0  0  0  0  0
   62.2249   35.5437   21.4708 H   0  0  0  0  0  0  0  0  0  0  0  0
   61.9832   37.7008   22.7169 H   0  0  0  0  0  0  0  0  0  0  0  0
   61.9808   38.5840   21.1876 H   0  0  0  0  0  0  0  0  0  0  0  0
   64.2490   37.6693   20.6558 H   0  0  0  0  0  0  0  0  0  0  0  0
   64.2514   36.7860   22.1851 H   0  0  0  0  0  0  0  0  0  0  0  0
   64.0098   38.9431   23.4313 H   0  0  0  0  0  0  0  0  0  0  0  0
   64.0074   39.8263   21.9020 H   0  0  0  0  0  0  0  0  0  0  0  0
   66.2756   38.9117   21.3701 H   0  0  0  0  0  0  0  0  0  0  0  0
   66.2781   38.0284   22.8994 H   0  0  0  0  0  0  0  0  0  0  0  0
   66.0376   40.1848   24.1461 H   0  0  0  0  0  0  0  0  0  0  0  0
   66.0331   41.0687   22.6171 H   0  0  0  0  0  0  0  0  0  0  0  0
   68.3013   40.1557   22.0825 H   0  0  0  0  0  0  0  0  0  0  0  0
   68.3060   39.2719   23.6114 H   0  0  0  0  0  0  0  0  0  0  0  0
   68.0646   41.4284   24.8588 H   0  0  0  0  0  0  0  0  0  0  0  0
   68.0598   42.3123   23.3299 H   0  0  0  0  0  0  0  0  0  0  0  0
   70.3282   41.3996   22.7951 H   0  0  0  0  0  0  0  0  0  0  0  0
   70.3331   40.5158   24.3240 H   0  0  0  0  0  0  0  0  0  0  0  0
   70.0925   42.6723   25.5715 H   0  0  0  0  0  0  0  0  0  0  0  0
   70.0877   43.5563   24.0426 H   0  0  0  0  0  0  0  0  0  0  0  0
   72.3564   42.6437   23.5079 H   0  0  0  0  0  0  0  0  0  0  0  0
   72.3610   41.7596   25.0367 H   0  0  0  0  0  0  0  0  0  0  0  0
   72.1218   43.9172   26.2842 H   0  0  0  0  0  0  0  0  0  0  0  0
   72.1193   44.8005   24.7551 H   0  0  0  0  0  0  0  0  0  0  0  0
   74.3887   43.8864   24.2237 H   0  0  0  0  0  0  0  0  0  0  0  0
   74.3910   43.0032   25.7529 H   0  0  0  0  0  0  0  0  0  0  0  0
   74.1561   45.1615   26.9995 H   0  0  0  0  0  0  0  0  0  0  0  0
   74.1536   46.0444   25.4705 H   0  0  0  0  0  0  0  0  0  0  0  0
   76.4259   45.1329   24.9411 H   0  0  0  0  0  0  0  0  0  0  0  0
   76.4284   44.2518   26.4714 H   0  0  0  0  0  0  0  0  0  0  0  0
   76.1930   46.4117   27.7157 H   0  0  0  0  0  0  0  0  0  0  0  0
   76.1886   47.2930   26.1864 H   0  0  0  0  0  0  0  0  0  0  0  0
   78.4733   46.4021   25.6658 H   0  0  0  0  0  0  0  0  0  0  0  0
   78.4780   45.5205   27.1955 H   0  0  0  0  0  0  0  0  0  0  0  0
   78.2587   48.5635   26.9070 H   0  0  0  0  0  0  0  0  0  0  0  0
   79.7027   47.6632   27.4076 H   0  0  0  0  0  0  0  0  0  0  0  0
   78.2634   47.6777   28.4443 H   0  0  0  0  0  0  0  0  0  0  0  0
  1  2  1  0  0  0  0
  1 82  1  0  0  0  0
  2  3  1  0  0  0  0
  2 83  1  0  0  0  0
  2 84  1  0  0  0  0
  3  4  1  0  0  0  0
  3 85  1  0  0  0  0
  3 86  1  0  0  0  0
  4  5  1  0  0  0  0
  4 87  1  0  0  0  0
  4 88  1  0  0  0  0
  5  6  1  0  0  0  0
  5 89  1  0  0  0  0
  5 90  1  0  0  0  0
  6  7  1  0  0  0  0
  6 91  1  0  0  0  0
  6 92  1  0  0  0  0
  7  8  1  0  0  0  0
  7 93  1  0  0  0  0
  7 94  1  0  0  0  0
  8  9  1  0  0  0  0
  8 95  1  0  0  0  0
  8 96  1  0  0  0  0
  9 10  1  0  0  0  0
  9 97  1  0  0  0  0
  9 98  1  0  0  0  0
 10 11  1  0  0  0  0
 10 99  1  0  0  0  0
 10100  1  0  0  0  0
 11 12  1  0  0  0  0
 11101  1  0  0  0  0
 11102  1  0  0  0  0
 12 13  1  0  0  0  0
 12103  1  0  0  0  0
 12104  1  0  0  0  0
 13 14  1  0  0  0  0
 13105  1  0  0  0  0
 13106  1  0  0  0  0
 14 15  1  0  0  0  0
 14107  1  0  0  0  0
 14108  1  0  0  0  0
 15 16  1  0  0  0  0
 15109  1  0  0  0  0
 15110  1  0  0  0  0
 16 17  1  0  0  0  0
 16111  1  0  0  0  0
 16112  1  0  0  0  0
 17 18  1  0  0  0  0
 17113  1  0  0  0  0
 17114  1  0  0  0  0
 18 19  1  0  0  0  0
 18115  1  0  0  0  0
 18116  1  0  0  0  0
 19 20  1  0  0  0  0
 19117  1  0  0  0  0
 19118  1  0  0  0  0
 20 21  1  0  0  0  0
 20119  1  0  0  0  0
 20120  1  0  0  0  0
 21 22  1  0  0  0  0
 21121  1  0  0  0  0
 21122  1  0  0  0  0
 22 23  1  0  0  0  0
 22123  1  0  0  0  0
 22124  1  0  0  0  0
 23 24  1  0  0  0  0
 24 25  1  0  0  0  0
 25 26  1  0  0  0  0
 26 27  1  0  0  0  0
 27 28  1  0  0  0  0
 28 29  1  0  0  0  0
 29 30  1  0  0  0  0
 30 31  1  0  0  0  0
 31 32  1  0  0  0  0
 32 33  1  0  0  0  0
 33 34  1  0  0  0  0
 34 35  1  0  0  0  0
 35 36  1  0  0  0  0
 36 37  1  0  0  0  0
 37 38  1  0  0  0  0
 38 39  1  0  0  0  0
 39 40  1  0  0  0  0
 40 41  1  0  0  0  0
 41 42  1  0  0  0  0
 42 43  1  0  0  0  0
 43 44  1  0  0  0  0
 44 45  1  0  0  0  0
 45 46  1  0  0  0  0
 46 47  1  0  0  0  0
 47 48  1  0  0  0  0
 48 49  1  0  0  0  0
 48125  1  0  0  0  0
 48126  1  0  0  0  0
 49 50  1  0  0  0  0
 49127  1  0  0  0  0
 49128  1  0  0  0  0
 50 51  1  0  0  0  0
 50129  1  0  0  0  0
 50130  1  0  0  0  0
 51 52  1  0  0  0  0
 51131  1  0  0  0  0
 51132  1  0  0  0  0
 52 53  1  0  0  0  0
 52133  1  0  0  0  0
 52134  1  0  0  0  0
 53 54  1  0  0  0  0
 53135  1  0  0  0  0
 53136  1  0  0  0  0
 54 55  1  0  0  0  0
 54137  1  0  0  0  0
 54138  1  0  0  0  0
 55 56  1  0  0  0  0
 55139  1  0  0  0  0
 55140  1  0  0  0  0
 56 57  1  0  0  0  0
 56141  1  0  0  0  0
 56142  1  0  0  0  0
 57 58  1  0  0  0  0
 57143  1  0  0  0  0
 57144  1  0  0  0  0
 58 59  1  0  0  0  0
 58145  1  0  0  0  0
 58146  1  0  0  0  0
 59 60  1  0  0  0  0
 59147  1  0  0  0  0
 59148  1  0  0  0  0
 60 61  1  0  0  0  0
 60149  1  0  0  0  0
 60150  1  0  0  0  0
 61 62  1  0  0  0  0
 61151  1  0  0  0  0
 61152  1  0  0  0  0
 62 63  1  0  0  0  0
 62153  1  0  0  0  0
 62154  1  0  0  0  0
 63 64  1  0  0  0  0
 63155  1  0  0  0  0
 63156  1  0  0  0  0
 64 65  1  0  0  0  0
 64157  1  0  0  0  0
 64158  1  0  0  0  0
 65 66  1  0  0  0  0
 65159  1  0  0  0  0
 65160  1  0  0  0  0
 66 67  1  0  0  0  0
 66161  1  0  0  0  0
 66162  1  0  0  0  0
 67 68  1  0  0  0  0
 67163  1  0  0  0  0
 67164  1  0  0  0  0
 68 69  1  0  0  0  0
 68165  1  0  0  0  0
 68166  1  0  0  0  0
 69 70  1  0  0  0  0
 69167  1  0  0  0  0
 69168  1  0  0  0  0
 70 71  1  0  0  0  0
 70169  1  0  0  0  0
 70170  1  0  0  0  0
 71 72  1  0  0  0  0
 71171  1  0  0  0  0
 71172  1  0  0  0  0
 72 73  1  0  0  0  0
 72173  1  0  0  0  0
 72174  1  0  0  0  0
 73 74  1  0  0  0  0
 73175  1  0  0  0  0
 73176  1  0  0  0  0
 74 75  1  0  0  0  0
 74177  1  0  0  0  0
 74178  1  0  0  0  0
 75 76  1  0  0  0  0
 75179  1  0  0  0  0
 75180  1  0  0  0  0
 76 77  1  0  0  0  0
 76181  1  0  0  0  0
 76182  1  0  0  0  0
 77 78  1  0  0  0  0
 77183  1  0  0  0  0
 77184  1  0  0  0  0
 78 79  1  0  0  0  0
 78185  1  0  0  0  0
 78186  1  0  0  0  0
 79 80  1  0  0  0  0
 79187  1  0  0  0  0
 79188  1  0  0  0  0
 80 81  1  0  0  0  0
 80189  1  0  0  0  0
 80190  1  0  0  0  0
 81191  1  0  0  0  0
 81192  1  0  0  0  0
 81193  1  0  0  0  0
M  END
$$$$
