
 OpenBabel04232216493D

 48 49  0  0  1  0  0  0  0  0999 V2000
   -2.2314    1.5645   -1.6711 C   0  0  0  0  0  0  0  0  0  0  0  0
   -1.3759    0.5853   -0.8687 C   0  0  3  0  0  0  0  0  0  0  0  0
    0.0979    0.6636   -1.2916 C   0  0  0  0  0  0  0  0  0  0  0  0
    1.0006   -0.2380   -0.4471 C   0  0  0  0  0  0  0  0  0  0  0  0
    0.8010   -0.0201    1.0525 C   0  0  0  0  0  0  0  0  0  0  0  0
   -0.6707   -0.1425    1.4784 C   0  0  3  0  0  0  0  0  0  0  0  0
   -1.2206   -1.5781    1.3386 C   0  0  0  0  0  0  0  0  0  0  0  0
   -0.6469   -2.6439    2.2845 C   0  0  0  0  0  0  0  0  0  0  0  0
   -0.6252   -2.3780    3.8092 C   0  0  3  0  0  0  0  0  0  0  0  0
    0.0443   -3.5553    4.4616 C   0  0  0  0  0  3  0  0  0  0  0  0
   -0.7132   -4.5797    5.1868 C   0  0  0  0  0  0  0  0  0  0  0  0
   -0.2230   -5.6696    5.4359 O   0  0  0  0  0  0  0  0  0  0  0  0
   -2.0781   -4.2343    5.6261 C   0  0  0  0  0  0  0  0  0  0  0  0
   -2.6513   -3.0537    5.3467 C   0  0  0  0  0  0  0  0  0  0  0  0
   -4.0314   -2.6511    5.8455 C   0  0  0  0  0  0  0  0  0  0  0  0
   -4.5175   -3.2586    7.1564 C   0  0  0  0  0  0  0  0  0  0  0  0
   -5.8673   -2.6742    7.4824 C   0  0  0  0  0  0  0  0  0  0  0  0
   -6.8706   -3.3569    7.6615 O   0  0  0  0  0  0  0  0  0  0  0  0
   -1.9625   -1.9935    4.5089 C   0  0  3  0  0  0  0  0  0  0  0  0
   -2.9324   -1.5025    3.5955 O   0  0  0  0  0  0  0  0  0  0  0  0
   -1.5177    0.8387    0.6400 C   0  0  0  0  0  0  0  0  0  0  0  0
   -2.1470    1.3613   -2.7433 H   0  0  0  0  0  0  0  0  0  0  0  0
   -1.9278    2.6011   -1.4952 H   0  0  0  0  0  0  0  0  0  0  0  0
   -3.2879    1.4677   -1.3966 H   0  0  0  0  0  0  0  0  0  0  0  0
   -1.7499   -0.4194   -1.0993 H   0  0  0  0  0  0  0  0  0  0  0  0
    0.4508    1.6989   -1.2064 H   0  0  0  0  0  0  0  0  0  0  0  0
    0.1961    0.3820   -2.3462 H   0  0  0  0  0  0  0  0  0  0  0  0
    2.0485   -0.0477   -0.7068 H   0  0  0  0  0  0  0  0  0  0  0  0
    0.8091   -1.2870   -0.6991 H   0  0  0  0  0  0  0  0  0  0  0  0
    1.1589    0.9879    1.3090 H   0  0  0  0  0  0  0  0  0  0  0  0
    1.4270   -0.7176    1.6184 H   0  0  0  0  0  0  0  0  0  0  0  0
   -0.7557    0.1687    2.5267 H   0  0  0  0  0  0  0  0  0  0  0  0
   -1.0485   -1.9476    0.3219 H   0  0  0  0  0  0  0  0  0  0  0  0
   -2.3107   -1.5552    1.4174 H   0  0  0  0  0  0  0  0  0  0  0  0
    0.3865   -2.8339    1.9592 H   0  0  0  0  0  0  0  0  0  0  0  0
   -1.1872   -3.5801    2.0892 H   0  0  0  0  0  0  0  0  0  0  0  0
    0.0547   -1.5302    3.9640 H   0  0  0  0  0  0  0  0  0  0  0  0
    1.0738   -3.8048    4.2312 H   0  0  0  0  0  0  0  0  0  0  0  0
   -2.5661   -5.0108    6.2060 H   0  0  0  0  0  0  0  0  0  0  0  0
   -4.7599   -2.8686    5.0528 H   0  0  0  0  0  0  0  0  0  0  0  0
   -4.0434   -1.5591    5.9718 H   0  0  0  0  0  0  0  0  0  0  0  0
   -3.8366   -3.0159    7.9791 H   0  0  0  0  0  0  0  0  0  0  0  0
   -4.6156   -4.3460    7.0884 H   0  0  0  0  0  0  0  0  0  0  0  0
   -5.9076   -1.5751    7.5772 H   0  0  0  0  0  0  0  0  0  0  0  0
   -1.7348   -1.1612    5.1889 H   0  0  0  0  0  0  0  0  0  0  0  0
   -3.3247   -2.2711    3.1447 H   0  0  0  0  0  0  0  0  0  0  0  0
   -1.2028    1.8665    0.8678 H   0  0  0  0  0  0  0  0  0  0  0  0
   -2.5714    0.7681    0.9372 H   0  0  0  0  0  0  0  0  0  0  0  0
  1  2  1  0  0  0  0
  1 22  1  0  0  0  0
  1 23  1  0  0  0  0
  1 24  1  0  0  0  0
  2  3  1  0  0  0  0
  2 21  1  0  0  0  0
  2 25  1  0  0  0  0
  3  4  1  0  0  0  0
  3 26  1  0  0  0  0
  3 27  1  0  0  0  0
  4  5  1  0  0  0  0
  4 28  1  0  0  0  0
  4 29  1  0  0  0  0
  5  6  1  0  0  0  0
  5 30  1  0  0  0  0
  5 31  1  0  0  0  0
  6  7  1  0  0  0  0
  6 21  1  0  0  0  0
  6 32  1  0  0  0  0
  7  8  1  0  0  0  0
  7 33  1  0  0  0  0
  7 34  1  0  0  0  0
  8  9  1  0  0  0  0
  8 35  1  0  0  0  0
  8 36  1  0  0  0  0
  9 10  1  0  0  0  0
  9 19  1  0  0  0  0
  9 37  1  0  0  0  0
 10 11  1  0  0  0  0
 10 38  1  0  0  0  0
 11 12  2  0  0  0  0
 11 13  1  0  0  0  0
 13 14  2  0  0  0  0
 13 39  1  0  0  0  0
 14 15  1  0  0  0  0
 14 19  1  0  0  0  0
 15 16  1  0  0  0  0
 15 40  1  0  0  0  0
 15 41  1  0  0  0  0
 16 17  1  0  0  0  0
 16 42  1  0  0  0  0
 16 43  1  0  0  0  0
 17 18  2  0  0  0  0
 17 44  1  0  0  0  0
 19 20  1  0  0  0  0
 19 45  1  0  0  0  0
 20 46  1  0  0  0  0
 21 47  1  0  0  0  0
 21 48  1  0  0  0  0
M  END
$$$$
