
 OpenBabel04232216563D

132131  0  0  0  0  0  0  0  0999 V2000
   14.4494   -7.2927   -6.3091 C   0  0  0  0  0  0  0  0  0  0  0  0
   13.9604   -6.2702   -5.4005 N   0  0  0  0  0  0  0  0  0  0  0  0
   14.4558   -6.5389   -4.0543 C   0  0  0  0  0  0  0  0  0  0  0  0
   13.9610   -5.4646   -3.0834 C   0  0  0  0  0  0  0  0  0  0  0  0
   14.4834   -5.7419   -1.6741 C   0  0  0  0  0  0  0  0  0  0  0  0
   13.9828   -4.7037   -0.7824 N   0  0  0  0  0  0  0  0  0  0  0  0
   14.4793   -4.9787    0.5324 N   0  0  0  0  0  0  0  0  0  0  0  0
   14.0297   -3.9858    1.4298 N   0  0  0  0  0  0  0  0  0  0  0  0
   14.4943   -4.2498    2.7397 N   0  0  0  0  0  0  0  0  0  0  0  0
   14.0189   -3.2542    3.6227 N   0  0  0  0  0  0  0  0  0  0  0  0
   14.5077   -3.5235    4.9138 N   0  0  0  0  0  0  0  0  0  0  0  0
   14.0560   -2.5261    5.8241 N   0  0  0  0  0  0  0  0  0  0  0  0
   14.5470   -2.7915    7.1274 N   0  0  0  0  0  0  0  0  0  0  0  0
   14.0534   -1.7939    8.0329 N   0  0  0  0  0  0  0  0  0  0  0  0
   14.5308   -2.0233    9.3637 N   0  0  0  0  0  0  0  0  0  0  0  0
   15.9681   -1.9634    9.3943 N   0  0  0  0  0  0  0  0  0  0  0  0
   16.4338   -2.2756   10.6772 N   0  0  0  0  0  0  0  0  0  0  0  0
   17.8715   -2.3085   10.6976 N   0  0  0  0  0  0  0  0  0  0  0  0
   18.3221   -2.5968   12.0167 N   0  0  0  0  0  0  0  0  0  0  0  0
   19.7452   -2.5862   11.9991 N   0  0  0  0  0  0  0  0  0  0  0  0
   20.2719   -2.8133   13.3098 N   0  0  0  0  0  0  0  0  0  0  0  0
   21.6732   -2.8082   13.2801 N   0  0  0  0  0  0  0  0  0  0  0  0
   22.1452   -3.1253   14.5888 N   0  0  0  0  0  0  0  0  0  0  0  0
   23.5565   -3.1072   14.5934 N   0  0  0  0  0  0  0  0  0  0  0  0
   24.0550   -3.3302   15.9026 N   0  0  0  0  0  0  0  0  0  0  0  0
   25.4646   -3.3337   15.9110 N   0  0  0  0  0  0  0  0  0  0  0  0
   25.9121   -3.6231   17.2198 N   0  0  0  0  0  0  0  0  0  0  0  0
   27.3479   -3.6318   17.2412 N   0  0  0  0  0  0  0  0  0  0  0  0
   27.8537   -3.8814   18.5632 N   0  0  0  0  0  0  0  0  0  0  0  0
   29.3025   -3.8980   18.5989 N   0  0  0  0  0  0  0  0  0  0  0  0
   29.7599   -4.1467   19.8928 N   0  0  0  0  0  0  0  0  0  0  0  0
   31.1589   -4.1157   19.8825 N   0  0  0  0  0  0  0  0  0  0  0  0
   31.5892   -4.4020   21.1667 N   0  0  0  0  0  0  0  0  0  0  0  0
   32.9984   -4.4055   21.1731 N   0  0  0  0  0  0  0  0  0  0  0  0
   33.4777   -4.6457   22.4744 N   0  0  0  0  0  0  0  0  0  0  0  0
   34.9165   -4.6604   22.4919 N   0  0  0  0  0  0  0  0  0  0  0  0
   35.4262   -4.9330   23.7935 N   0  0  0  0  0  0  0  0  0  0  0  0
   36.8560   -4.9680   23.7840 N   0  0  0  0  0  0  0  0  0  0  0  0
   37.3375   -5.2421   25.0722 N   0  0  0  0  0  0  0  0  0  0  0  0
   38.7472   -5.2259   25.1144 N   0  0  0  0  0  0  0  0  0  0  0  0
   39.1830   -5.4950   26.4389 N   0  0  0  0  0  0  0  0  0  0  0  0
   38.7359   -6.7776   26.8891 N   0  0  0  0  0  0  0  0  0  0  0  0
   39.4412   -7.1885   28.3484 S   0  0  0  0  0  0  0  0  0  0  0  0
   38.7749   -8.6154   28.8480 N   0  0  0  0  0  0  0  0  0  0  0  0
   39.3808   -9.9125   28.0296 S   0  0  0  0  0  0  0  0  0  0  0  0
   38.7160  -11.2778   28.6529 N   0  0  0  0  0  0  0  0  0  0  0  0
   39.2631  -11.6846   30.1699 S   0  0  0  0  0  0  0  0  0  0  0  0
   38.6664  -10.5844   31.2718 N   0  0  0  0  0  0  0  0  0  0  0  0
   37.0053  -10.5258   31.2659 S   0  0  0  0  0  0  0  0  0  0  0  0
   36.6170   -9.0922   32.6948 S   0  0  0  0  0  0  0  0  0  0  0  0
   37.3508   -7.2641   32.0589 S   0  0  0  0  0  0  0  0  0  0  0  0
   36.3161   -6.6140   30.3818 S   0  0  0  0  0  0  0  0  0  0  0  0
   37.1690   -4.7742   29.8236 S   0  0  0  0  0  0  0  0  0  0  0  0
   36.3375   -4.2087   27.9873 S   0  0  0  0  0  0  0  0  0  0  0  0
   37.2538   -2.4234   27.3314 S   0  0  0  0  0  0  0  0  0  0  0  0
   36.4305   -1.8848   25.4633 S   0  0  0  0  0  0  0  0  0  0  0  0
   37.2642   -0.0610   24.8353 S   0  0  0  0  0  0  0  0  0  0  0  0
   36.4640    0.4379   22.9483 S   0  0  0  0  0  0  0  0  0  0  0  0
   37.2463    2.3077   22.3652 S   0  0  0  0  0  0  0  0  0  0  0  0
   36.4551    2.8196   20.4793 S   0  0  0  0  0  0  0  0  0  0  0  0
   37.2435    4.6884   19.8998 S   0  0  0  0  0  0  0  0  0  0  0  0
   36.4513    5.2027   18.0139 S   0  0  0  0  0  0  0  0  0  0  0  0
   37.2393    7.0713   17.4339 S   0  0  0  0  0  0  0  0  0  0  0  0
   36.4469    7.5853   15.5477 S   0  0  0  0  0  0  0  0  0  0  0  0
   37.2349    9.4541   14.9676 S   0  0  0  0  0  0  0  0  0  0  0  0
   36.4424    9.9681   13.0815 S   0  0  0  0  0  0  0  0  0  0  0  0
   37.2304   11.8368   12.5013 S   0  0  0  0  0  0  0  0  0  0  0  0
   36.4380   12.3508   10.6152 S   0  0  0  0  0  0  0  0  0  0  0  0
   37.2259   14.2195   10.0351 S   0  0  0  0  0  0  0  0  0  0  0  0
   36.4335   14.7335    8.1490 S   0  0  0  0  0  0  0  0  0  0  0  0
   37.2215   16.6022    7.5689 S   0  0  0  0  0  0  0  0  0  0  0  0
   36.4290   17.1160    5.6830 S   0  0  0  0  0  0  0  0  0  0  0  0
   37.2171   18.9841    5.1035 S   0  0  0  0  0  0  0  0  0  0  0  0
   36.4249   19.4972    3.2189 S   0  0  0  0  0  0  0  0  0  0  0  0
   37.2124   21.3640    2.6431 S   0  0  0  0  0  0  0  0  0  0  0  0
   36.4244   21.8684    0.7610 S   0  0  0  0  0  0  0  0  0  0  0  0
   37.2052   23.7299    0.1894 S   0  0  0  0  0  0  0  0  0  0  0  0
   36.3647   24.2289   -1.6571 S   0  0  0  0  0  0  0  0  0  0  0  0
   37.2562   25.9881   -2.3112 S   0  0  0  0  0  0  0  0  0  0  0  0
   36.3461   26.5019   -4.1035 S   0  0  0  0  0  0  0  0  0  0  0  0
   37.0379   25.1498   -5.4931 S   0  0  0  0  0  0  0  0  0  0  0  0
   14.0797   -7.0885   -7.3188 H   0  0  0  0  0  0  0  0  0  0  0  0
   14.0962   -8.2877   -6.0142 H   0  0  0  0  0  0  0  0  0  0  0  0
   15.5424   -7.2957   -6.3496 H   0  0  0  0  0  0  0  0  0  0  0  0
   12.9405   -6.2761   -5.4189 H   0  0  0  0  0  0  0  0  0  0  0  0
   15.5530   -6.5389   -4.0485 H   0  0  0  0  0  0  0  0  0  0  0  0
   14.1157   -7.5217   -3.7081 H   0  0  0  0  0  0  0  0  0  0  0  0
   12.8614   -5.4485   -3.0777 H   0  0  0  0  0  0  0  0  0  0  0  0
   14.3000   -4.4763   -3.4146 H   0  0  0  0  0  0  0  0  0  0  0  0
   15.5796   -5.7476   -1.6861 H   0  0  0  0  0  0  0  0  0  0  0  0
   14.1415   -6.7321   -1.3400 H   0  0  0  0  0  0  0  0  0  0  0  0
   12.9606   -4.7385   -0.8157 H   0  0  0  0  0  0  0  0  0  0  0  0
   15.5025   -4.9633    0.5213 H   0  0  0  0  0  0  0  0  0  0  0  0
   13.0064   -3.9822    1.4205 H   0  0  0  0  0  0  0  0  0  0  0  0
   15.5175   -4.2336    2.7870 H   0  0  0  0  0  0  0  0  0  0  0  0
   13.0056   -3.2402    3.6320 H   0  0  0  0  0  0  0  0  0  0  0  0
   15.5354   -3.5409    4.8844 H   0  0  0  0  0  0  0  0  0  0  0  0
   13.0388   -2.5011    5.8886 H   0  0  0  0  0  0  0  0  0  0  0  0
   15.5672   -2.7805    7.0872 H   0  0  0  0  0  0  0  0  0  0  0  0
   13.0246   -1.7528    7.9938 H   0  0  0  0  0  0  0  0  0  0  0  0
   14.2575   -2.9481    9.6991 H   0  0  0  0  0  0  0  0  0  0  0  0
   16.2644   -1.0437    9.0767 H   0  0  0  0  0  0  0  0  0  0  0  0
   16.0364   -3.1844   10.9528 H   0  0  0  0  0  0  0  0  0  0  0  0
   18.2890   -1.4117   10.4469 H   0  0  0  0  0  0  0  0  0  0  0  0
   17.9780   -3.4923   12.3161 H   0  0  0  0  0  0  0  0  0  0  0  0
   20.0546   -1.6751   11.6507 H   0  0  0  0  0  0  0  0  0  0  0  0
   20.0017   -3.7290   13.6707 H   0  0  0  0  0  0  0  0  0  0  0  0
   22.0722   -1.8989   13.0392 H   0  0  0  0  0  0  0  0  0  0  0  0
   21.7487   -4.0201   14.8867 H   0  0  0  0  0  0  0  0  0  0  0  0
   23.8455   -2.1859   14.2337 H   0  0  0  0  0  0  0  0  0  0  0  0
   23.7546   -4.2440   16.2628 H   0  0  0  0  0  0  0  0  0  0  0  0
   25.8437   -2.4259   15.6686 H   0  0  0  0  0  0  0  0  0  0  0  0
   25.5134   -4.5209   17.4936 H   0  0  0  0  0  0  0  0  0  0  0  0
   27.6754   -2.7137   16.9213 H   0  0  0  0  0  0  0  0  0  0  0  0
   27.5135   -4.7917   18.8873 H   0  0  0  0  0  0  0  0  0  0  0  0
   29.6864   -2.9896   18.3317 H   0  0  0  0  0  0  0  0  0  0  0  0
   29.5097   -5.0659   20.2426 H   0  0  0  0  0  0  0  0  0  0  0  0
   31.4841   -3.2062   19.5827 H   0  0  0  0  0  0  0  0  0  0  0  0
   31.1904   -5.3011   21.4290 H   0  0  0  0  0  0  0  0  0  0  0  0
   33.2813   -3.4930   20.8168 H   0  0  0  0  0  0  0  0  0  0  0  0
   33.1127   -5.5508   22.7673 H   0  0  0  0  0  0  0  0  0  0  0  0
   35.2289   -3.7419   22.1598 H   0  0  0  0  0  0  0  0  0  0  0  0
   35.1213   -5.8410   24.1389 H   0  0  0  0  0  0  0  0  0  0  0  0
   37.1907   -4.0428   23.5358 H   0  0  0  0  0  0  0  0  0  0  0  0
   37.0223   -6.1349   25.4331 H   0  0  0  0  0  0  0  0  0  0  0  0
   39.0590   -4.3004   24.8622 H   0  0  0  0  0  0  0  0  0  0  0  0
   38.7789   -4.7911   27.0543 H   0  0  0  0  0  0  0  0  0  0  0  0
   39.0129   -7.4567   26.1686 H   0  0  0  0  0  0  0  0  0  0  0  0
   37.7541   -8.6065   28.9530 H   0  0  0  0  0  0  0  0  0  0  0  0
   38.9311  -12.0518   28.0411 H   0  0  0  0  0  0  0  0  0  0  0  0
   39.0617   -9.6656   31.0585 H   0  0  0  0  0  0  0  0  0  0  0  0
   36.4363   25.5757   -6.6200 H   0  0  0  0  0  0  0  0  0  0  0  0
  1  2  1  0  0  0  0
  1 82  1  0  0  0  0
  1 83  1  0  0  0  0
  1 84  1  0  0  0  0
  2  3  1  0  0  0  0
  2 85  1  0  0  0  0
  3  4  1  0  0  0  0
  3 86  1  0  0  0  0
  3 87  1  0  0  0  0
  4  5  1  0  0  0  0
  4 88  1  0  0  0  0
  4 89  1  0  0  0  0
  5  6  1  0  0  0  0
  5 90  1  0  0  0  0
  5 91  1  0  0  0  0
  6  7  1  0  0  0  0
  6 92  1  0  0  0  0
  7  8  1  0  0  0  0
  7 93  1  0  0  0  0
  8  9  1  0  0  0  0
  8 94  1  0  0  0  0
  9 10  1  0  0  0  0
  9 95  1  0  0  0  0
 10 11  1  0  0  0  0
 10 96  1  0  0  0  0
 11 12  1  0  0  0  0
 11 97  1  0  0  0  0
 12 13  1  0  0  0  0
 12 98  1  0  0  0  0
 13 14  1  0  0  0  0
 13 99  1  0  0  0  0
 14 15  1  0  0  0  0
 14100  1  0  0  0  0
 15 16  1  0  0  0  0
 15101  1  0  0  0  0
 16 17  1  0  0  0  0
 16102  1  0  0  0  0
 17 18  1  0  0  0  0
 17103  1  0  0  0  0
 18 19  1  0  0  0  0
 18104  1  0  0  0  0
 19 20  1  0  0  0  0
 19105  1  0  0  0  0
 20 21  1  0  0  0  0
 20106  1  0  0  0  0
 21 22  1  0  0  0  0
 21107  1  0  0  0  0
 22 23  1  0  0  0  0
 22108  1  0  0  0  0
 23 24  1  0  0  0  0
 23109  1  0  0  0  0
 24 25  1  0  0  0  0
 24110  1  0  0  0  0
 25 26  1  0  0  0  0
 25111  1  0  0  0  0
 26 27  1  0  0  0  0
 26112  1  0  0  0  0
 27 28  1  0  0  0  0
 27113  1  0  0  0  0
 28 29  1  0  0  0  0
 28114  1  0  0  0  0
 29 30  1  0  0  0  0
 29115  1  0  0  0  0
 30 31  1  0  0  0  0
 30116  1  0  0  0  0
 31 32  1  0  0  0  0
 31117  1  0  0  0  0
 32 33  1  0  0  0  0
 32118  1  0  0  0  0
 33 34  1  0  0  0  0
 33119  1  0  0  0  0
 34 35  1  0  0  0  0
 34120  1  0  0  0  0
 35 36  1  0  0  0  0
 35121  1  0  0  0  0
 36 37  1  0  0  0  0
 36122  1  0  0  0  0
 37 38  1  0  0  0  0
 37123  1  0  0  0  0
 38 39  1  0  0  0  0
 38124  1  0  0  0  0
 39 40  1  0  0  0  0
 39125  1  0  0  0  0
 40 41  1  0  0  0  0
 40126  1  0  0  0  0
 41 42  1  0  0  0  0
 41127  1  0  0  0  0
 42 43  1  0  0  0  0
 42128  1  0  0  0  0
 43 44  1  0  0  0  0
 44 45  1  0  0  0  0
 44129  1  0  0  0  0
 45 46  1  0  0  0  0
 46 47  1  0  0  0  0
 46130  1  0  0  0  0
 47 48  1  0  0  0  0
 48 49  1  0  0  0  0
 48131  1  0  0  0  0
 49 50  1  0  0  0  0
 50 51  1  0  0  0  0
 51 52  1  0  0  0  0
 52 53  1  0  0  0  0
 53 54  1  0  0  0  0
 54 55  1  0  0  0  0
 55 56  1  0  0  0  0
 56 57  1  0  0  0  0
 57 58  1  0  0  0  0
 58 59  1  0  0  0  0
 59 60  1  0  0  0  0
 60 61  1  0  0  0  0
 61 62  1  0  0  0  0
 62 63  1  0  0  0  0
 63 64  1  0  0  0  0
 64 65  1  0  0  0  0
 65 66  1  0  0  0  0
 66 67  1  0  0  0  0
 67 68  1  0  0  0  0
 68 69  1  0  0  0  0
 69 70  1  0  0  0  0
 70 71  1  0  0  0  0
 71 72  1  0  0  0  0
 72 73  1  0  0  0  0
 73 74  1  0  0  0  0
 74 75  1  0  0  0  0
 75 76  1  0  0  0  0
 76 77  1  0  0  0  0
 77 78  1  0  0  0  0
 78 79  1  0  0  0  0
 79 80  1  0  0  0  0
 80 81  1  0  0  0  0
 81132  1  0  0  0  0
M  END
$$$$
