
 OpenBabel04232216453D

 50 51  0  0  0  0  0  0  0  0999 V2000
    7.7298   -2.4767   -1.3794 C   0  0  0  0  0  0  0  0  0  0  0  0
    8.7440   -1.3420   -1.8426 C   0  0  0  0  0  0  0  0  0  0  0  0
    7.8003   -0.1690   -1.9994 C   0  0  0  0  0  0  0  0  0  0  0  0
    6.8920    0.7581   -1.5816 C   0  0  0  0  0  0  0  0  0  0  0  0
    6.3858    0.9725   -0.1753 C   0  0  0  0  0  0  0  0  0  0  0  0
    6.1917    1.5571   -2.7670 C   0  0  0  0  0  0  0  0  0  0  0  0
    7.2236    1.4903   -3.8930 C   0  0  0  0  0  0  0  0  0  0  0  0
    7.4974    1.9816   -5.2850 C   0  0  0  0  0  0  0  0  0  0  0  0
    8.9692    1.5002   -5.4199 C   0  0  0  0  0  0  0  0  0  0  0  0
    9.7146    1.4693   -6.7173 C   0  0  0  0  0  0  0  0  0  0  0  0
   11.2190    1.1527   -6.7930 C   0  0  0  0  0  0  0  0  0  0  0  0
   11.6463    0.8235   -7.9073 O   0  0  0  0  0  0  0  0  0  0  0  0
   12.2317    1.3369   -5.6550 C   0  0  0  0  0  0  0  0  0  0  0  0
   12.0592    1.0809   -4.3359 C   0  0  0  0  0  0  0  0  0  0  0  0
   10.9655    0.2788   -3.7352 C   0  0  0  0  0  0  0  0  0  0  0  0
   11.0849   -0.7718   -2.8930 C   0  0  0  0  0  0  0  0  0  0  0  0
   12.5855   -1.5164   -3.3175 C   0  0  0  0  0  0  0  0  0  0  0  0
   14.1609   -0.9503   -3.8113 C   0  0  0  0  0  0  0  0  0  0  0  0
   15.0584   -0.9144   -2.9410 O   0  0  0  0  0  0  0  0  0  0  0  0
   14.6337   -0.5522   -5.2669 C   0  0  0  0  0  0  0  0  0  0  0  0
   14.8576    0.9530   -5.5879 C   0  0  0  0  0  0  0  0  0  0  0  0
   13.6379    1.6209   -6.2450 C   0  0  0  0  0  0  0  0  0  0  0  0
    9.9925   -1.5867   -2.2885 N   0  0  0  0  0  0  0  0  0  0  0  0
    7.2311   -2.9098   -2.2642 H   0  0  0  0  0  0  0  0  0  0  0  0
    6.8717   -2.0102   -0.8457 H   0  0  0  0  0  0  0  0  0  0  0  0
    8.0926   -3.2504   -0.7152 H   0  0  0  0  0  0  0  0  0  0  0  0
    7.3175   -0.6177   -2.8786 H   0  0  0  0  0  0  0  0  0  0  0  0
    5.2913    0.9446   -0.1561 H   0  0  0  0  0  0  0  0  0  0  0  0
    6.6880    1.9310    0.2342 H   0  0  0  0  0  0  0  0  0  0  0  0
    6.7330    0.1808    0.5210 H   0  0  0  0  0  0  0  0  0  0  0  0
    5.9811    2.5944   -2.5029 H   0  0  0  0  0  0  0  0  0  0  0  0
    5.2587    1.0490   -3.0408 H   0  0  0  0  0  0  0  0  0  0  0  0
    7.1852    0.4292   -4.1771 H   0  0  0  0  0  0  0  0  0  0  0  0
    8.1459    1.7411   -3.3387 H   0  0  0  0  0  0  0  0  0  0  0  0
    7.4348    3.0869   -5.3973 H   0  0  0  0  0  0  0  0  0  0  0  0
    6.8932    1.4536   -6.0276 H   0  0  0  0  0  0  0  0  0  0  0  0
    8.8804    0.4313   -5.1633 H   0  0  0  0  0  0  0  0  0  0  0  0
    9.5718    2.0400   -4.6763 H   0  0  0  0  0  0  0  0  0  0  0  0
    9.5535    2.4189   -7.2162 H   0  0  0  0  0  0  0  0  0  0  0  0
    9.2698    0.6641   -7.3023 H   0  0  0  0  0  0  0  0  0  0  0  0
   12.8763    1.3121   -3.6325 H   0  0  0  0  0  0  0  0  0  0  0  0
   10.3417   -0.1098   -4.5138 H   0  0  0  0  0  0  0  0  0  0  0  0
   12.8999   -1.0721   -2.3782 H   0  0  0  0  0  0  0  0  0  0  0  0
   12.3174   -1.5964   -4.3783 H   0  0  0  0  0  0  0  0  0  0  0  0
   14.1278   -1.0783   -6.0814 H   0  0  0  0  0  0  0  0  0  0  0  0
   15.6658   -0.9560   -5.3220 H   0  0  0  0  0  0  0  0  0  0  0  0
   15.6759    1.0357   -6.3349 H   0  0  0  0  0  0  0  0  0  0  0  0
   15.2256    1.5263   -4.7296 H   0  0  0  0  0  0  0  0  0  0  0  0
   13.6844    1.2066   -7.2606 H   0  0  0  0  0  0  0  0  0  0  0  0
   13.8061    2.6973   -6.3958 H   0  0  0  0  0  0  0  0  0  0  0  0
  1  2  1  0  0  0  0
  1 24  1  0  0  0  0
  1 25  1  0  0  0  0
  1 26  1  0  0  0  0
  2  3  1  0  0  0  0
  2 23  2  3  0  0  0
  3  4  2  3  0  0  0
  3 27  1  0  0  0  0
  4  5  1  0  0  0  0
  4  6  1  0  0  0  0
  5 28  1  0  0  0  0
  5 29  1  0  0  0  0
  5 30  1  0  0  0  0
  6  7  1  0  0  0  0
  6 31  1  0  0  0  0
  6 32  1  0  0  0  0
  7  8  1  0  0  0  0
  7 33  1  0  0  0  0
  7 34  1  0  0  0  0
  8  9  1  0  0  0  0
  8 35  1  0  0  0  0
  8 36  1  0  0  0  0
  9 10  1  0  0  0  0
  9 37  1  0  0  0  0
  9 38  1  0  0  0  0
 10 11  1  0  0  0  0
 10 39  1  0  0  0  0
 10 40  1  0  0  0  0
 11 12  2  0  0  0  0
 11 13  1  0  0  0  0
 13 14  2  3  0  0  0
 13 22  1  0  0  0  0
 14 15  1  0  0  0  0
 14 41  1  0  0  0  0
 15 16  2  3  0  0  0
 15 42  1  0  0  0  0
 16 17  1  0  0  0  0
 16 23  1  0  0  0  0
 17 18  1  0  0  0  0
 17 43  1  0  0  0  0
 17 44  1  0  0  0  0
 18 19  2  0  0  0  0
 18 20  1  0  0  0  0
 20 21  1  0  0  0  0
 20 45  1  0  0  0  0
 20 46  1  0  0  0  0
 21 22  1  0  0  0  0
 21 47  1  0  0  0  0
 21 48  1  0  0  0  0
 22 49  1  0  0  0  0
 22 50  1  0  0  0  0
M  END
$$$$
