
 OpenBabel04232216513D

 47 48  0  0  0  0  0  0  0  0999 V2000
    1.4625   -0.2103    0.1563 C   0  0  0  0  0  0  0  0  0  0  0  0
    2.4286   -1.0713    0.9335 C   0  0  0  0  0  0  0  0  0  0  0  0
    3.0142   -0.5183    2.0488 N   0  0  0  0  0  0  0  0  0  0  0  0
    4.1434    0.0465    1.7252 C   0  0  0  0  0  0  0  0  0  0  0  0
    5.2123    0.1809    2.7452 C   0  0  0  0  0  0  0  0  0  0  0  0
    4.7622    0.0692    4.0565 O   0  0  0  0  0  0  0  0  0  0  0  0
    6.5021   -0.0871    2.4144 C   0  0  0  0  0  0  0  0  0  0  0  0
    7.2174   -0.1252    1.0626 C   0  0  0  0  0  0  0  0  0  0  0  0
    6.8210    0.9290    0.0337 C   0  0  0  0  0  0  0  0  0  0  0  0
    7.6724    0.8905   -1.2347 C   0  0  0  0  0  0  0  0  0  0  0  0
    7.1117    1.8937   -2.2321 C   0  0  0  0  0  0  0  0  0  0  0  0
    5.8266    1.5517   -2.5265 F   0  0  0  0  0  0  0  0  0  0  0  0
    7.3271   -0.7385    3.4339 C   0  0  0  0  0  0  0  0  0  0  0  0
    8.5155   -0.2498    4.0910 C   0  0  0  0  0  0  0  0  0  0  0  0
    9.1515    0.9069    3.8879 C   0  0  0  0  0  0  0  0  0  0  0  0
    8.8547   -1.3472    5.0305 C   0  0  0  0  0  0  0  0  0  0  0  0
    9.9907   -1.2822    6.0022 C   0  0  0  0  0  0  0  0  0  0  0  0
    8.0271   -2.3607    4.9272 N   0  0  0  0  0  0  0  0  0  0  0  0
    7.1197   -1.9818    3.9392 C   0  0  0  0  0  0  0  0  0  0  0  0
    6.0012   -2.8875    3.6695 C   0  0  0  0  0  0  0  0  0  0  0  0
    5.3098   -2.9582    2.5127 C   0  0  0  0  0  0  0  0  0  0  0  0
    4.0800   -3.6987    2.3071 C   0  0  0  0  0  0  0  0  0  0  0  0
    3.0584   -3.4342    1.4751 C   0  0  0  0  0  0  0  0  0  0  0  0
    2.6594   -2.3545    0.5809 C   0  0  0  0  0  0  0  0  0  0  0  0
    0.5589   -0.0604    0.7609 H   0  0  0  0  0  0  0  0  0  0  0  0
    1.1460   -0.6830   -0.7801 H   0  0  0  0  0  0  0  0  0  0  0  0
    1.8781    0.7724   -0.0829 H   0  0  0  0  0  0  0  0  0  0  0  0
    4.4012    0.2166    0.6806 H   0  0  0  0  0  0  0  0  0  0  0  0
    3.8565   -0.3037    3.9628 H   0  0  0  0  0  0  0  0  0  0  0  0
    7.1233   -1.1261    0.6242 H   0  0  0  0  0  0  0  0  0  0  0  0
    8.2960    0.0093    1.2289 H   0  0  0  0  0  0  0  0  0  0  0  0
    6.8611    1.9252    0.4869 H   0  0  0  0  0  0  0  0  0  0  0  0
    5.8049    0.7615   -0.3067 H   0  0  0  0  0  0  0  0  0  0  0  0
    7.6298   -0.1149   -1.6728 H   0  0  0  0  0  0  0  0  0  0  0  0
    8.7189    1.1190   -1.0088 H   0  0  0  0  0  0  0  0  0  0  0  0
    7.6789    1.8918   -3.1649 H   0  0  0  0  0  0  0  0  0  0  0  0
    7.1017    2.9054   -1.8156 H   0  0  0  0  0  0  0  0  0  0  0  0
    8.7826    1.6225    3.1595 H   0  0  0  0  0  0  0  0  0  0  0  0
   10.0486    1.1843    4.4269 H   0  0  0  0  0  0  0  0  0  0  0  0
   10.6754   -0.4614    5.7761 H   0  0  0  0  0  0  0  0  0  0  0  0
   10.5572   -2.2161    5.9721 H   0  0  0  0  0  0  0  0  0  0  0  0
    9.5939   -1.1353    7.0106 H   0  0  0  0  0  0  0  0  0  0  0  0
    5.6732   -3.4571    4.5349 H   0  0  0  0  0  0  0  0  0  0  0  0
    5.6334   -2.4098    1.6324 H   0  0  0  0  0  0  0  0  0  0  0  0
    3.9827   -4.5741    2.9375 H   0  0  0  0  0  0  0  0  0  0  0  0
    2.2684   -4.1877    1.4818 H   0  0  0  0  0  0  0  0  0  0  0  0
    2.2402   -2.7091   -0.3600 H   0  0  0  0  0  0  0  0  0  0  0  0
  1  2  1  0  0  0  0
  1 25  1  0  0  0  0
  1 26  1  0  0  0  0
  1 27  1  0  0  0  0
  2  3  1  0  0  0  0
  2 24  2  3  0  0  0
  3  4  2  3  0  0  0
  4  5  1  0  0  0  0
  4 28  1  0  0  0  0
  5  6  1  0  0  0  0
  5  7  2  3  0  0  0
  6 29  1  0  0  0  0
  7  8  1  0  0  0  0
  7 13  1  0  0  0  0
  8  9  1  0  0  0  0
  8 30  1  0  0  0  0
  8 31  1  0  0  0  0
  9 10  1  0  0  0  0
  9 32  1  0  0  0  0
  9 33  1  0  0  0  0
 10 11  1  0  0  0  0
 10 34  1  0  0  0  0
 10 35  1  0  0  0  0
 11 12  1  0  0  0  0
 11 36  1  0  0  0  0
 11 37  1  0  0  0  0
 13 14  1  0  0  0  0
 13 19  2  0  0  0  0
 14 15  2  0  0  0  0
 14 16  1  0  0  0  0
 15 38  1  0  0  0  0
 15 39  1  0  0  0  0
 16 17  1  0  0  0  0
 16 18  2  0  0  0  0
 17 40  1  0  0  0  0
 17 41  1  0  0  0  0
 17 42  1  0  0  0  0
 18 19  1  0  0  0  0
 19 20  1  0  0  0  0
 20 21  2  3  0  0  0
 20 43  1  0  0  0  0
 21 22  1  0  0  0  0
 21 44  1  0  0  0  0
 22 23  2  3  0  0  0
 22 45  1  0  0  0  0
 23 24  1  0  0  0  0
 23 46  1  0  0  0  0
 24 47  1  0  0  0  0
M  END
$$$$
