
 OpenBabel04232216573D

 26 26  0  0  0  0  0  0  0  0999 V2000
    1.7119    0.1069   -1.4371 N   0  0  0  0  0  0  0  0  0  0  0  0
    2.0515    1.4339   -1.1105 C   0  0  0  0  0  0  0  0  0  0  0  0
    2.8282    2.1825   -1.9208 C   0  0  0  0  0  0  0  0  0  0  0  0
    4.1853    2.3998   -1.3853 C   0  0  0  0  0  0  0  0  0  0  0  0
    5.1135    1.6378   -1.9976 C   0  0  0  0  0  0  0  0  0  0  0  0
    5.3936    0.2950   -1.4142 C   0  0  0  0  0  0  0  0  0  0  0  0
    4.5223   -0.6816   -1.8098 C   0  0  0  0  0  0  0  0  0  0  0  0
    4.8877   -1.5047   -3.0244 C   0  0  0  0  0  0  0  0  0  0  0  0
    3.6650   -1.2773   -0.9143 N   0  0  0  0  0  0  0  0  0  0  0  0
    2.4142   -0.9195   -0.7846 C   0  0  0  0  0  0  0  0  0  0  0  0
    1.6779   -1.7404    0.3032 C   0  0  0  0  0  0  0  0  0  0  0  0
    0.2424   -1.3936    0.6633 C   0  0  0  0  0  0  0  0  0  0  0  0
    0.7099    0.0197   -1.3124 H   0  0  0  0  0  0  0  0  0  0  0  0
    2.2045    1.4919   -0.0356 H   0  0  0  0  0  0  0  0  0  0  0  0
    2.7755    2.0020   -2.9954 H   0  0  0  0  0  0  0  0  0  0  0  0
    4.2156    2.4303   -0.2961 H   0  0  0  0  0  0  0  0  0  0  0  0
    5.0979    1.5685   -3.0871 H   0  0  0  0  0  0  0  0  0  0  0  0
    6.4412    0.1297   -1.6884 H   0  0  0  0  0  0  0  0  0  0  0  0
    4.0352   -1.5617   -3.7071 H   0  0  0  0  0  0  0  0  0  0  0  0
    5.1953   -2.5198   -2.7491 H   0  0  0  0  0  0  0  0  0  0  0  0
    5.7123   -1.0494   -3.5886 H   0  0  0  0  0  0  0  0  0  0  0  0
    2.2781   -1.6372    1.2196 H   0  0  0  0  0  0  0  0  0  0  0  0
    1.7302   -2.7909    0.0096 H   0  0  0  0  0  0  0  0  0  0  0  0
    0.1937   -0.4723    1.2543 H   0  0  0  0  0  0  0  0  0  0  0  0
   -0.1826   -2.1951    1.2783 H   0  0  0  0  0  0  0  0  0  0  0  0
   -0.4023   -1.2787   -0.2118 H   0  0  0  0  0  0  0  0  0  0  0  0
  1  2  1  0  0  0  0
  1 10  1  0  0  0  0
  1 13  1  0  0  0  0
  2  3  2  0  0  0  0
  2 14  1  0  0  0  0
  3  4  1  0  0  0  0
  3 15  1  0  0  0  0
  4  5  2  0  0  0  0
  4 16  1  0  0  0  0
  5  6  1  0  0  0  0
  5 17  1  0  0  0  0
  6  7  2  0  0  0  0
  6 18  1  0  0  0  0
  7  8  1  0  0  0  0
  7  9  1  0  0  0  0
  8 19  1  0  0  0  0
  8 20  1  0  0  0  0
  8 21  1  0  0  0  0
  9 10  2  0  0  0  0
 10 11  1  0  0  0  0
 11 12  1  0  0  0  0
 11 22  1  0  0  0  0
 11 23  1  0  0  0  0
 12 24  1  0  0  0  0
 12 25  1  0  0  0  0
 12 26  1  0  0  0  0
M  END
$$$$
