
 OpenBabel04232216523D

 70 71  0  0  0  0  0  0  0  0999 V2000
    4.3667    0.2916   -1.1674 C   0  0  0  0  0  0  0  0  0  0  0  0
    6.2205    0.5752   -2.1133 C   0  0  0  0  0  0  0  0  0  0  0  0
    8.4642    1.0068   -2.2308 C   0  0  0  0  0  0  0  0  0  0  0  0
   10.5102    0.9369   -3.1877 C   0  0  0  0  0  0  0  0  0  0  0  0
    8.5250    0.3379   -3.3571 C   0  0  0  0  0  0  0  0  0  0  0  0
    8.9301   -1.0515   -2.9061 C   0  0  0  0  0  0  0  0  0  0  0  0
    8.0757   -0.8355   -4.5547 C   0  0  0  0  0  0  0  0  0  0  0  0
    9.2791   -0.3808   -5.0904 C   0  0  0  0  0  0  0  0  0  0  0  0
    9.6138   -0.3493   -6.4130 C   0  0  0  0  0  0  0  0  0  0  0  0
   10.9631   -0.1741   -5.9544 C   0  0  0  0  0  0  0  0  0  0  0  0
   11.6592   -0.3515   -7.1793 C   0  0  0  0  0  0  0  0  0  0  0  0
   12.8736   -0.4205   -6.4537 C   0  0  0  0  0  0  0  0  0  0  0  0
   13.9945   -0.7612   -7.2446 C   0  0  0  0  0  0  0  0  0  0  0  0
   15.0187   -0.8635   -6.2181 C   0  0  0  0  0  0  0  0  0  0  0  0
   15.2025   -1.3727   -5.0949 O   0  0  0  0  0  0  0  0  0  0  0  0
   15.5847    0.5727   -6.6902 C   0  0  0  0  0  0  0  0  0  0  0  0
   14.4245    0.8551   -5.1924 C   0  0  0  0  0  0  0  0  0  0  0  0
   16.4199    0.6721   -5.2731 N   0  0  0  0  0  0  0  0  0  0  0  0
   18.3579    0.2861   -5.8691 C   0  0  0  0  0  0  0  0  0  0  0  0
   19.9184    0.0597   -7.1607 C   0  0  0  0  0  0  0  0  0  0  0  0
   21.8086   -0.0182   -7.5494 C   0  0  0  0  0  0  0  0  0  0  0  0
   22.8612    0.1624   -8.7314 C   0  0  0  0  0  0  0  0  0  0  0  0
   23.1878   -0.1161  -10.0822 C   0  0  0  0  0  0  0  0  0  0  0  0
   21.1953   -0.0681  -10.2212 C   0  0  0  0  0  0  0  0  0  0  0  0
   19.2105    0.1178   -9.3726 C   0  0  0  0  0  0  0  0  0  0  0  0
   17.2862    0.2766   -8.1738 C   0  0  0  0  0  0  0  0  0  0  0  0
   12.4345    0.8938   -4.0544 C   0  0  0  0  0  0  0  0  0  0  0  0
    3.3660   -0.0087   -1.8890 H   0  0  0  0  0  0  0  0  0  0  0  0
    3.5558    1.1056   -0.7238 H   0  0  0  0  0  0  0  0  0  0  0  0
    3.8453   -0.6668   -0.5110 H   0  0  0  0  0  0  0  0  0  0  0  0
    5.4577    1.1553   -2.8219 H   0  0  0  0  0  0  0  0  0  0  0  0
    5.7957   -0.5797   -2.4464 H   0  0  0  0  0  0  0  0  0  0  0  0
    8.0580    0.0693   -1.4490 H   0  0  0  0  0  0  0  0  0  0  0  0
    8.1371    1.8367   -1.6609 H   0  0  0  0  0  0  0  0  0  0  0  0
    7.4665    1.1719   -3.7730 H   0  0  0  0  0  0  0  0  0  0  0  0
    7.4861   -0.4226   -3.0224 H   0  0  0  0  0  0  0  0  0  0  0  0
    8.3726   -1.6187   -2.1221 H   0  0  0  0  0  0  0  0  0  0  0  0
    9.5777   -0.4847   -1.9498 H   0  0  0  0  0  0  0  0  0  0  0  0
    7.4498    0.0724   -4.9580 H   0  0  0  0  0  0  0  0  0  0  0  0
    7.4883   -1.6696   -4.7998 H   0  0  0  0  0  0  0  0  0  0  0  0
    9.8702   -1.1123   -4.5226 H   0  0  0  0  0  0  0  0  0  0  0  0
    9.2840    0.7585   -4.9532 H   0  0  0  0  0  0  0  0  0  0  0  0
    9.2756    0.6312   -6.7581 H   0  0  0  0  0  0  0  0  0  0  0  0
    9.3694   -1.3640   -6.6348 H   0  0  0  0  0  0  0  0  0  0  0  0
   11.3032   -0.9207   -5.1609 H   0  0  0  0  0  0  0  0  0  0  0  0
   11.0671    0.8836   -5.6262 H   0  0  0  0  0  0  0  0  0  0  0  0
   11.4927    0.6152   -7.6736 H   0  0  0  0  0  0  0  0  0  0  0  0
   11.4048   -1.3154   -7.5686 H   0  0  0  0  0  0  0  0  0  0  0  0
   12.9152   -1.1067   -5.5898 H   0  0  0  0  0  0  0  0  0  0  0  0
   12.8695    0.6743   -6.2304 H   0  0  0  0  0  0  0  0  0  0  0  0
   14.0387    0.2073   -7.8083 H   0  0  0  0  0  0  0  0  0  0  0  0
   14.0426   -1.5745   -7.9010 H   0  0  0  0  0  0  0  0  0  0  0  0
   16.6245   -0.4004   -5.7622 H   0  0  0  0  0  0  0  0  0  0  0  0
   18.2939   -0.8132   -6.1765 H   0  0  0  0  0  0  0  0  0  0  0  0
   18.5286    1.2587   -6.2690 H   0  0  0  0  0  0  0  0  0  0  0  0
   19.9097    0.9860   -7.7538 H   0  0  0  0  0  0  0  0  0  0  0  0
   19.8067   -0.9338   -7.7181 H   0  0  0  0  0  0  0  0  0  0  0  0
   22.2106   -1.0358   -7.3620 H   0  0  0  0  0  0  0  0  0  0  0  0
   22.2714    0.8985   -7.1978 H   0  0  0  0  0  0  0  0  0  0  0  0
   22.7246    1.1849   -9.1946 H   0  0  0  0  0  0  0  0  0  0  0  0
   22.7855   -0.9302   -8.9950 H   0  0  0  0  0  0  0  0  0  0  0  0
   24.0987   -0.9946  -10.0090 H   0  0  0  0  0  0  0  0  0  0  0  0
   24.1399    0.6815  -10.1591 H   0  0  0  0  0  0  0  0  0  0  0  0
   21.5101    0.7001  -11.0761 H   0  0  0  0  0  0  0  0  0  0  0  0
   21.4546   -0.9794  -10.9438 H   0  0  0  0  0  0  0  0  0  0  0  0
   19.3209    0.9731  -10.0662 H   0  0  0  0  0  0  0  0  0  0  0  0
   19.3217   -0.9875   -9.7697 H   0  0  0  0  0  0  0  0  0  0  0  0
   17.1455   -0.7471   -8.4651 H   0  0  0  0  0  0  0  0  0  0  0  0
   16.9858    0.9723   -8.9405 H   0  0  0  0  0  0  0  0  0  0  0  0
   12.6686    0.1193   -3.2784 H   0  0  0  0  0  0  0  0  0  0  0  0
  1  2  1  0  0  0  0
  1 28  1  0  0  0  0
  1 29  1  0  0  0  0
  1 30  1  0  0  0  0
  2  3  1  0  0  0  0
  2 31  1  0  0  0  0
  2 32  1  0  0  0  0
  3  4  1  0  0  0  0
  3 33  1  0  0  0  0
  3 34  1  0  0  0  0
  4  5  1  0  0  0  0
  4 27  2  3  0  0  0
  5  6  1  0  0  0  0
  5 35  1  0  0  0  0
  5 36  1  0  0  0  0
  6  7  1  0  0  0  0
  6 37  1  0  0  0  0
  6 38  1  0  0  0  0
  7  8  1  0  0  0  0
  7 39  1  0  0  0  0
  7 40  1  0  0  0  0
  8  9  1  0  0  0  0
  8 41  1  0  0  0  0
  8 42  1  0  0  0  0
  9 10  1  0  0  0  0
  9 43  1  0  0  0  0
  9 44  1  0  0  0  0
 10 11  1  0  0  0  0
 10 45  1  0  0  0  0
 10 46  1  0  0  0  0
 11 12  1  0  0  0  0
 11 47  1  0  0  0  0
 11 48  1  0  0  0  0
 12 13  1  0  0  0  0
 12 49  1  0  0  0  0
 12 50  1  0  0  0  0
 13 14  1  0  0  0  0
 13 51  1  0  0  0  0
 13 52  1  0  0  0  0
 14 15  2  0  0  0  0
 14 16  1  0  0  0  0
 16 17  2  3  0  0  0
 16 26  1  0  0  0  0
 17 18  1  0  0  0  0
 17 27  1  0  0  0  0
 18 19  1  0  0  0  0
 18 53  1  0  0  0  0
 19 20  1  0  0  0  0
 19 54  1  0  0  0  0
 19 55  1  0  0  0  0
 20 21  1  0  0  0  0
 20 56  1  0  0  0  0
 20 57  1  0  0  0  0
 21 22  1  0  0  0  0
 21 58  1  0  0  0  0
 21 59  1  0  0  0  0
 22 23  1  0  0  0  0
 22 60  1  0  0  0  0
 22 61  1  0  0  0  0
 23 24  1  0  0  0  0
 23 62  1  0  0  0  0
 23 63  1  0  0  0  0
 24 25  1  0  0  0  0
 24 64  1  0  0  0  0
 24 65  1  0  0  0  0
 25 26  1  0  0  0  0
 25 66  1  0  0  0  0
 25 67  1  0  0  0  0
 26 68  1  0  0  0  0
 26 69  1  0  0  0  0
 27 70  1  0  0  0  0
M  END
$$$$
