
 OpenBabel04232216443D

 39 41  0  0  1  0  0  0  0  0999 V2000
    0.8454   -0.0323   -0.0923 C   0  0  0  0  0  0  0  0  0  0  0  0
    1.9010   -0.4204   -1.0506 C   0  0  0  0  0  0  0  0  0  0  0  0
    2.4606   -1.6747   -1.5321 C   0  0  3  0  0  0  0  0  0  0  0  0
    2.2632   -2.9353   -0.7674 C   0  0  0  0  0  0  0  0  0  0  0  0
    3.4547   -3.8213   -0.6050 C   0  0  0  0  0  0  0  0  0  0  0  0
    4.5773   -3.9867   -1.3313 C   0  0  0  0  0  0  0  0  0  0  0  0
    5.5044   -5.0749   -0.8102 C   0  0  0  0  0  0  0  0  0  0  0  0
    4.9634   -3.3200   -2.6132 C   0  0  0  0  0  0  0  0  0  0  0  0
    5.9095   -4.1814   -3.4485 C   0  0  0  0  0  0  0  0  0  0  0  0
    4.2993   -2.2713   -3.1904 C   0  0  0  0  0  0  0  0  0  0  0  0
    2.8546   -1.7374   -2.9976 C   0  0  3  0  0  0  0  0  0  0  0  0
    2.7366   -2.5689   -4.4843 C   0  0  3  0  0  0  0  0  0  0  0  0
    3.0901   -3.9821   -5.0650 C   0  0  0  0  0  0  0  0  0  0  0  0
    2.9106   -4.1732   -6.5643 C   0  0  0  0  0  0  0  0  0  0  0  0
    4.1007   -1.7261   -4.5220 C   0  0  0  0  0  0  0  0  0  0  0  0
    4.4315   -0.6173   -5.1958 C   0  0  0  0  0  0  0  0  0  0  0  0
    3.1867   -0.6159   -0.7974 C   0  0  0  0  0  0  0  0  0  0  0  0
    0.0837   -0.7955   -0.0911 H   0  0  0  0  0  0  0  0  0  0  0  0
    0.4087    0.8990   -0.4116 H   0  0  0  0  0  0  0  0  0  0  0  0
    1.2385    0.1018    0.9152 H   0  0  0  0  0  0  0  0  0  0  0  0
    1.4268   -3.5125   -1.1774 H   0  0  0  0  0  0  0  0  0  0  0  0
    1.9530   -2.6812    0.2604 H   0  0  0  0  0  0  0  0  0  0  0  0
    3.3518   -4.4368    0.2940 H   0  0  0  0  0  0  0  0  0  0  0  0
    5.3324   -5.3017    0.2491 H   0  0  0  0  0  0  0  0  0  0  0  0
    6.5586   -4.7958   -0.8831 H   0  0  0  0  0  0  0  0  0  0  0  0
    5.3314   -6.0036   -1.3676 H   0  0  0  0  0  0  0  0  0  0  0  0
    6.8318   -4.4551   -2.9407 H   0  0  0  0  0  0  0  0  0  0  0  0
    6.1892   -3.7087   -4.3932 H   0  0  0  0  0  0  0  0  0  0  0  0
    5.3905   -5.1261   -3.6926 H   0  0  0  0  0  0  0  0  0  0  0  0
    2.6187   -0.6868   -3.2902 H   0  0  0  0  0  0  0  0  0  0  0  0
    1.8832   -2.1720   -5.0557 H   0  0  0  0  0  0  0  0  0  0  0  0
    2.6226   -4.7833   -4.4935 H   0  0  0  0  0  0  0  0  0  0  0  0
    4.1635   -4.1446   -5.0036 H   0  0  0  0  0  0  0  0  0  0  0  0
    1.8840   -4.0133   -6.9036 H   0  0  0  0  0  0  0  0  0  0  0  0
    3.2004   -5.2016   -6.8302 H   0  0  0  0  0  0  0  0  0  0  0  0
    3.5791   -3.5214   -7.1433 H   0  0  0  0  0  0  0  0  0  0  0  0
    5.1389    0.0913   -4.7787 H   0  0  0  0  0  0  0  0  0  0  0  0
    3.8091   -0.2981   -6.0272 H   0  0  0  0  0  0  0  0  0  0  0  0
    3.6188   -0.5153    0.1891 H   0  0  0  0  0  0  0  0  0  0  0  0
  1  2  1  0  0  0  0
  1 18  1  0  0  0  0
  1 19  1  0  0  0  0
  1 20  1  0  0  0  0
  2  3  1  0  0  0  0
  2 17  2  0  0  0  0
  3  4  1  0  0  0  0
  3 11  1  0  0  0  0
  3 17  1  0  0  0  0
  4  5  1  0  0  0  0
  4 21  1  0  0  0  0
  4 22  1  0  0  0  0
  5  6  2  0  0  0  0
  5 23  1  0  0  0  0
  6  7  1  0  0  0  0
  6  8  1  0  0  0  0
  7 24  1  0  0  0  0
  7 25  1  0  0  0  0
  7 26  1  0  0  0  0
  8  9  1  0  0  0  0
  8 10  2  0  0  0  0
  9 27  1  0  0  0  0
  9 28  1  0  0  0  0
  9 29  1  0  0  0  0
 10 11  1  0  0  0  0
 10 15  1  0  0  0  0
 11 12  1  0  0  0  0
 11 30  1  0  0  0  0
 12 13  1  0  0  0  0
 12 15  1  0  0  0  0
 12 31  1  0  0  0  0
 13 14  1  0  0  0  0
 13 32  1  0  0  0  0
 13 33  1  0  0  0  0
 14 34  1  0  0  0  0
 14 35  1  0  0  0  0
 14 36  1  0  0  0  0
 15 16  2  0  0  0  0
 16 37  1  0  0  0  0
 16 38  1  0  0  0  0
 17 39  1  0  0  0  0
M  END
$$$$
