
 OpenBabel04232216583D

212211  0  0  0  0  0  0  0  0999 V2000
    8.8803   -0.1924   -2.7215 N   0  0  0  0  0  0  0  0  0  0  0  0
    8.3899   -1.3286   -1.9724 N   0  0  0  0  0  0  0  0  0  0  0  0
    8.8697   -1.2354   -0.5974 C   0  0  0  0  0  0  0  0  0  0  0  0
    8.3604   -2.4298    0.2138 C   0  0  0  0  0  0  0  0  0  0  0  0
    8.8362   -2.3645    1.6110 N   0  0  0  0  0  0  0  0  0  0  0  0
    8.3412   -1.1799    2.1999 N   0  0  0  0  0  0  0  0  0  0  0  0
    8.7913   -1.1089    3.5264 N   0  0  0  0  0  0  0  0  0  0  0  0
    8.3296    0.0790    4.1429 N   0  0  0  0  0  0  0  0  0  0  0  0
    8.7813    0.1335    5.4737 N   0  0  0  0  0  0  0  0  0  0  0  0
   10.2191    0.1285    5.4996 N   0  0  0  0  0  0  0  0  0  0  0  0
   10.7050    0.1770    6.8210 N   0  0  0  0  0  0  0  0  0  0  0  0
   12.1294    0.1718    6.8362 N   0  0  0  0  0  0  0  0  0  0  0  0
   12.5989    0.2262    8.1607 N   0  0  0  0  0  0  0  0  0  0  0  0
   14.0071    0.2229    8.1577 N   0  0  0  0  0  0  0  0  0  0  0  0
   14.4824    0.2777    9.4855 N   0  0  0  0  0  0  0  0  0  0  0  0
   15.9010    0.2717    9.5037 N   0  0  0  0  0  0  0  0  0  0  0  0
   16.3703    0.3222   10.8316 N   0  0  0  0  0  0  0  0  0  0  0  0
   17.7837    0.3190   10.8290 N   0  0  0  0  0  0  0  0  0  0  0  0
   18.2707    0.3759   12.1581 N   0  0  0  0  0  0  0  0  0  0  0  0
   19.6918    0.3684   12.1775 N   0  0  0  0  0  0  0  0  0  0  0  0
   20.1573    0.4216   13.5067 N   0  0  0  0  0  0  0  0  0  0  0  0
   21.5799    0.4177   13.5199 N   0  0  0  0  0  0  0  0  0  0  0  0
   22.0706    0.4696   14.8500 N   0  0  0  0  0  0  0  0  0  0  0  0
   23.4740    0.4666   14.8435 N   0  0  0  0  0  0  0  0  0  0  0  0
   23.9535    0.5164   16.1759 N   0  0  0  0  0  0  0  0  0  0  0  0
   25.3616    0.5141   16.1777 N   0  0  0  0  0  0  0  0  0  0  0  0
   25.8403    0.5644   17.5155 N   0  0  0  0  0  0  0  0  0  0  0  0
   27.2666    0.5599   17.5359 N   0  0  0  0  0  0  0  0  0  0  0  0
   27.7448    0.6133   18.8642 N   0  0  0  0  0  0  0  0  0  0  0  0
   29.1693    0.6100   18.8759 N   0  0  0  0  0  0  0  0  0  0  0  0
   29.6351    0.6603   20.1997 N   0  0  0  0  0  0  0  0  0  0  0  0
   31.0498    0.6547   20.2082 N   0  0  0  0  0  0  0  0  0  0  0  0
   31.5263    0.7064   21.5328 N   0  0  0  0  0  0  0  0  0  0  0  0
   32.9370    0.7056   21.5330 N   0  0  0  0  0  0  0  0  0  0  0  0
   33.4156    0.7563   22.8853 N   0  0  0  0  0  0  0  0  0  0  0  0
   34.8734    0.7556   22.8689 C   0  0  0  0  0  0  0  0  0  0  0  0
   35.3865    0.8074   24.2976 C   0  0  0  0  0  0  0  0  0  0  0  0
   36.9049    0.8099   24.3080 C   0  0  0  0  0  0  0  0  0  0  0  0
   37.4189    0.8602   25.7332 C   0  0  0  0  0  0  0  0  0  0  0  0
   38.9343    0.8604   25.7411 C   0  0  0  0  0  0  0  0  0  0  0  0
   39.4466    0.9086   27.1661 C   0  0  0  0  0  0  0  0  0  0  0  0
   40.9614    0.9089   27.1737 C   0  0  0  0  0  0  0  0  0  0  0  0
   41.4733    0.9570   28.5984 C   0  0  0  0  0  0  0  0  0  0  0  0
   42.9880    0.9573   28.6059 C   0  0  0  0  0  0  0  0  0  0  0  0
   43.5000    1.0055   30.0307 C   0  0  0  0  0  0  0  0  0  0  0  0
   45.0147    1.0057   30.0382 C   0  0  0  0  0  0  0  0  0  0  0  0
   45.5267    1.0539   31.4629 C   0  0  0  0  0  0  0  0  0  0  0  0
   47.0414    1.0542   31.4704 C   0  0  0  0  0  0  0  0  0  0  0  0
   47.5533    1.1023   32.8952 C   0  0  0  0  0  0  0  0  0  0  0  0
   49.0680    1.1046   32.9026 C   0  0  0  0  0  0  0  0  0  0  0  0
   49.5800    1.1528   34.3274 C   0  0  0  0  0  0  0  0  0  0  0  0
   51.0947    1.1571   34.3347 C   0  0  0  0  0  0  0  0  0  0  0  0
   51.6066    1.2073   35.7594 C   0  0  0  0  0  0  0  0  0  0  0  0
   53.1213    1.2135   35.7667 C   0  0  0  0  0  0  0  0  0  0  0  0
   53.6333    1.2617   37.1915 C   0  0  0  0  0  0  0  0  0  0  0  0
   55.1480    1.2660   37.1988 C   0  0  0  0  0  0  0  0  0  0  0  0
   55.6600    1.3162   38.6235 C   0  0  0  0  0  0  0  0  0  0  0  0
   57.1746    1.3225   38.6308 C   0  0  0  0  0  0  0  0  0  0  0  0
   57.6866    1.3727   40.0555 C   0  0  0  0  0  0  0  0  0  0  0  0
   59.2013    1.3810   40.0627 C   0  0  0  0  0  0  0  0  0  0  0  0
   59.7132    1.4311   41.4874 C   0  0  0  0  0  0  0  0  0  0  0  0
   61.2279    1.4394   41.4946 C   0  0  0  0  0  0  0  0  0  0  0  0
   61.7399    1.4896   42.9193 C   0  0  0  0  0  0  0  0  0  0  0  0
   63.2545    1.4979   42.9266 C   0  0  0  0  0  0  0  0  0  0  0  0
   63.7665    1.5481   44.3512 C   0  0  0  0  0  0  0  0  0  0  0  0
   65.2812    1.5564   44.3585 C   0  0  0  0  0  0  0  0  0  0  0  0
   65.7931    1.6066   45.7832 C   0  0  0  0  0  0  0  0  0  0  0  0
   67.3078    1.6149   45.7904 C   0  0  0  0  0  0  0  0  0  0  0  0
   67.8198    1.6651   47.2151 C   0  0  0  0  0  0  0  0  0  0  0  0
   69.3344    1.6754   47.2222 C   0  0  0  0  0  0  0  0  0  0  0  0
   69.8464    1.7256   48.6469 C   0  0  0  0  0  0  0  0  0  0  0  0
   71.3611    1.7359   48.6541 C   0  0  0  0  0  0  0  0  0  0  0  0
   71.8730    1.7861   50.0788 C   0  0  0  0  0  0  0  0  0  0  0  0
   73.3877    1.7964   50.0859 C   0  0  0  0  0  0  0  0  0  0  0  0
   73.8996    1.8466   51.5106 C   0  0  0  0  0  0  0  0  0  0  0  0
   75.4143    1.8589   51.5177 C   0  0  0  0  0  0  0  0  0  0  0  0
   75.9263    1.9091   52.9423 C   0  0  0  0  0  0  0  0  0  0  0  0
   77.4411    1.9214   52.9491 C   0  0  0  0  0  0  0  0  0  0  0  0
   77.9537    1.9736   54.3736 C   0  0  0  0  0  0  0  0  0  0  0  0
   79.4702    1.9840   54.3835 C   0  0  0  0  0  0  0  0  0  0  0  0
   79.9775    2.0361   55.8059 C   0  0  0  0  0  0  0  0  0  0  0  0
    8.5744   -0.2413   -3.6923 H   0  0  0  0  0  0  0  0  0  0  0  0
    9.9006   -0.2111   -2.7035 H   0  0  0  0  0  0  0  0  0  0  0  0
    8.7457   -2.1967   -2.3760 H   0  0  0  0  0  0  0  0  0  0  0  0
    8.5033   -0.3125   -0.1327 H   0  0  0  0  0  0  0  0  0  0  0  0
    9.9651   -1.2313   -0.5686 H   0  0  0  0  0  0  0  0  0  0  0  0
    8.7215   -3.3602   -0.2548 H   0  0  0  0  0  0  0  0  0  0  0  0
    7.2624   -2.4501    0.1834 H   0  0  0  0  0  0  0  0  0  0  0  0
    9.8505   -2.3607    1.6098 H   0  0  0  0  0  0  0  0  0  0  0  0
    7.3216   -1.2072    2.1473 H   0  0  0  0  0  0  0  0  0  0  0  0
    9.8122   -1.1165    3.5202 H   0  0  0  0  0  0  0  0  0  0  0  0
    7.3126    0.0725    4.1474 H   0  0  0  0  0  0  0  0  0  0  0  0
    8.4004   -0.6804    5.9647 H   0  0  0  0  0  0  0  0  0  0  0  0
   10.5729    0.9310    4.9733 H   0  0  0  0  0  0  0  0  0  0  0  0
   10.3811   -0.6349    7.3439 H   0  0  0  0  0  0  0  0  0  0  0  0
   12.4687    0.9835    6.3206 H   0  0  0  0  0  0  0  0  0  0  0  0
   12.2637   -0.5877    8.6709 H   0  0  0  0  0  0  0  0  0  0  0  0
   14.3205    1.0327    7.6192 H   0  0  0  0  0  0  0  0  0  0  0  0
   14.1369   -0.5339   10.0033 H   0  0  0  0  0  0  0  0  0  0  0  0
   16.2607    1.0768    8.9948 H   0  0  0  0  0  0  0  0  0  0  0  0
   16.0108   -0.4873   11.3365 H   0  0  0  0  0  0  0  0  0  0  0  0
   18.0835    1.1272   10.2776 H   0  0  0  0  0  0  0  0  0  0  0  0
   17.9280   -0.4355   12.6796 H   0  0  0  0  0  0  0  0  0  0  0  0
   20.0520    1.1838   11.6818 H   0  0  0  0  0  0  0  0  0  0  0  0
   19.8327   -0.3947   14.0230 H   0  0  0  0  0  0  0  0  0  0  0  0
   21.9306    1.2304   13.0152 H   0  0  0  0  0  0  0  0  0  0  0  0
   21.7420   -0.3462   15.3623 H   0  0  0  0  0  0  0  0  0  0  0  0
   23.8104    1.2856   14.3390 H   0  0  0  0  0  0  0  0  0  0  0  0
   23.6088   -0.2903   16.6936 H   0  0  0  0  0  0  0  0  0  0  0  0
   25.6922    1.3273   15.6637 H   0  0  0  0  0  0  0  0  0  0  0  0
   25.4402   -0.2454   17.9939 H   0  0  0  0  0  0  0  0  0  0  0  0
   27.5882    1.3758   17.0057 H   0  0  0  0  0  0  0  0  0  0  0  0
   27.4152   -0.2037   19.3834 H   0  0  0  0  0  0  0  0  0  0  0  0
   29.5253    1.4189   18.3703 H   0  0  0  0  0  0  0  0  0  0  0  0
   29.2997   -0.1563   20.7041 H   0  0  0  0  0  0  0  0  0  0  0  0
   31.3786    1.4686   19.6970 H   0  0  0  0  0  0  0  0  0  0  0  0
   31.1742   -0.1097   22.0296 H   0  0  0  0  0  0  0  0  0  0  0  0
   33.2583    1.5257   21.0174 H   0  0  0  0  0  0  0  0  0  0  0  0
   33.0742   -0.0704   23.3755 H   0  0  0  0  0  0  0  0  0  0  0  0
   35.2440    1.6322   22.3251 H   0  0  0  0  0  0  0  0  0  0  0  0
   35.2549   -0.1470   22.3787 H   0  0  0  0  0  0  0  0  0  0  0  0
   35.0215   -0.0611   24.8580 H   0  0  0  0  0  0  0  0  0  0  0  0
   35.0189    1.7124   24.7959 H   0  0  0  0  0  0  0  0  0  0  0  0
   37.2780    1.6782   23.7527 H   0  0  0  0  0  0  0  0  0  0  0  0
   37.2799   -0.0940   23.8144 H   0  0  0  0  0  0  0  0  0  0  0  0
   37.0480   -0.0076   26.2905 H   0  0  0  0  0  0  0  0  0  0  0  0
   37.0480    1.7649   26.2281 H   0  0  0  0  0  0  0  0  0  0  0  0
   39.3065    1.7289   25.1858 H   0  0  0  0  0  0  0  0  0  0  0  0
   39.3065   -0.0436   25.2458 H   0  0  0  0  0  0  0  0  0  0  0  0
   39.0748    0.0401   27.7217 H   0  0  0  0  0  0  0  0  0  0  0  0
   39.0748    1.8127   27.6618 H   0  0  0  0  0  0  0  0  0  0  0  0
   41.3332    1.7774   26.6181 H   0  0  0  0  0  0  0  0  0  0  0  0
   41.3332    0.0048   26.6781 H   0  0  0  0  0  0  0  0  0  0  0  0
   41.1015    0.0885   29.1540 H   0  0  0  0  0  0  0  0  0  0  0  0
   41.1015    1.8611   29.0940 H   0  0  0  0  0  0  0  0  0  0  0  0
   43.3599    1.8258   28.0504 H   0  0  0  0  0  0  0  0  0  0  0  0
   43.3599    0.0532   28.1103 H   0  0  0  0  0  0  0  0  0  0  0  0
   43.1282    0.1369   30.5862 H   0  0  0  0  0  0  0  0  0  0  0  0
   43.1282    1.9096   30.5263 H   0  0  0  0  0  0  0  0  0  0  0  0
   45.3866    1.8743   29.4826 H   0  0  0  0  0  0  0  0  0  0  0  0
   45.3866    0.1017   29.5426 H   0  0  0  0  0  0  0  0  0  0  0  0
   45.1548    0.1854   32.0185 H   0  0  0  0  0  0  0  0  0  0  0  0
   45.1548    1.9580   31.9586 H   0  0  0  0  0  0  0  0  0  0  0  0
   47.4132    1.9227   30.9149 H   0  0  0  0  0  0  0  0  0  0  0  0
   47.4132    0.1501   30.9748 H   0  0  0  0  0  0  0  0  0  0  0  0
   47.1827    0.2331   33.4503 H   0  0  0  0  0  0  0  0  0  0  0  0
   47.1803    2.0057   33.3913 H   0  0  0  0  0  0  0  0  0  0  0  0
   49.4387    1.9739   32.3475 H   0  0  0  0  0  0  0  0  0  0  0  0
   49.4411    0.2013   32.4066 H   0  0  0  0  0  0  0  0  0  0  0  0
   49.2105    0.2827   34.8821 H   0  0  0  0  0  0  0  0  0  0  0  0
   49.2058    2.0554   34.8239 H   0  0  0  0  0  0  0  0  0  0  0  0
   51.4642    2.0263   33.7788 H   0  0  0  0  0  0  0  0  0  0  0  0
   51.4689    0.2538   33.8395 H   0  0  0  0  0  0  0  0  0  0  0  0
   51.2383    0.3372   36.3150 H   0  0  0  0  0  0  0  0  0  0  0  0
   51.2313    2.1098   36.2551 H   0  0  0  0  0  0  0  0  0  0  0  0
   53.4896    2.0843   35.2124 H   0  0  0  0  0  0  0  0  0  0  0  0
   53.4967    0.3117   35.2698 H   0  0  0  0  0  0  0  0  0  0  0  0
   53.2638    0.3917   37.7462 H   0  0  0  0  0  0  0  0  0  0  0  0
   53.2591    2.1643   37.6880 H   0  0  0  0  0  0  0  0  0  0  0  0
   55.5175    2.1353   36.6429 H   0  0  0  0  0  0  0  0  0  0  0  0
   55.5222    0.3627   36.7036 H   0  0  0  0  0  0  0  0  0  0  0  0
   55.2916    0.4462   39.1791 H   0  0  0  0  0  0  0  0  0  0  0  0
   55.2846    2.2188   39.1192 H   0  0  0  0  0  0  0  0  0  0  0  0
   57.5429    2.1925   38.0752 H   0  0  0  0  0  0  0  0  0  0  0  0
   57.5500    0.4199   38.1351 H   0  0  0  0  0  0  0  0  0  0  0  0
   57.3195    0.5019   40.6107 H   0  0  0  0  0  0  0  0  0  0  0  0
   57.3100    2.2745   40.5516 H   0  0  0  0  0  0  0  0  0  0  0  0
   59.5684    2.2517   39.5075 H   0  0  0  0  0  0  0  0  0  0  0  0
   59.5778    0.4791   39.5666 H   0  0  0  0  0  0  0  0  0  0  0  0
   59.3461    0.5604   42.0426 H   0  0  0  0  0  0  0  0  0  0  0  0
   59.3367    2.3330   41.9835 H   0  0  0  0  0  0  0  0  0  0  0  0
   61.5950    2.3102   40.9395 H   0  0  0  0  0  0  0  0  0  0  0  0
   61.6045    0.5376   40.9985 H   0  0  0  0  0  0  0  0  0  0  0  0
   61.3727    0.6189   43.4745 H   0  0  0  0  0  0  0  0  0  0  0  0
   61.3633    2.3915   43.4155 H   0  0  0  0  0  0  0  0  0  0  0  0
   63.6217    2.3687   42.3714 H   0  0  0  0  0  0  0  0  0  0  0  0
   63.6311    0.5961   42.4304 H   0  0  0  0  0  0  0  0  0  0  0  0
   63.3994    0.6773   44.9064 H   0  0  0  0  0  0  0  0  0  0  0  0
   63.3899    2.4500   44.8474 H   0  0  0  0  0  0  0  0  0  0  0  0
   65.6483    2.4272   43.8033 H   0  0  0  0  0  0  0  0  0  0  0  0
   65.6577    0.6546   43.8623 H   0  0  0  0  0  0  0  0  0  0  0  0
   65.4260    0.7358   46.3383 H   0  0  0  0  0  0  0  0  0  0  0  0
   65.4166    2.5085   46.2793 H   0  0  0  0  0  0  0  0  0  0  0  0
   67.6749    2.4857   45.2352 H   0  0  0  0  0  0  0  0  0  0  0  0
   67.6844    0.7131   45.2942 H   0  0  0  0  0  0  0  0  0  0  0  0
   67.4538    0.7936   47.7699 H   0  0  0  0  0  0  0  0  0  0  0  0
   67.4420    2.5662   47.7116 H   0  0  0  0  0  0  0  0  0  0  0  0
   69.7004    2.5469   46.6674 H   0  0  0  0  0  0  0  0  0  0  0  0
   69.7122    0.7743   46.7256 H   0  0  0  0  0  0  0  0  0  0  0  0
   69.4805    0.8541   49.2017 H   0  0  0  0  0  0  0  0  0  0  0  0
   69.4687    2.6267   49.1435 H   0  0  0  0  0  0  0  0  0  0  0  0
   71.7270    2.6074   48.0993 H   0  0  0  0  0  0  0  0  0  0  0  0
   71.7388    0.8348   48.1575 H   0  0  0  0  0  0  0  0  0  0  0  0
   71.5071    0.9146   50.6335 H   0  0  0  0  0  0  0  0  0  0  0  0
   71.4953    2.6872   50.5753 H   0  0  0  0  0  0  0  0  0  0  0  0
   73.7536    2.6679   49.5311 H   0  0  0  0  0  0  0  0  0  0  0  0
   73.7654    0.8953   49.5893 H   0  0  0  0  0  0  0  0  0  0  0  0
   73.5349    0.9743   52.0650 H   0  0  0  0  0  0  0  0  0  0  0  0
   73.5207    2.7470   52.0076 H   0  0  0  0  0  0  0  0  0  0  0  0
   75.7791    2.7312   50.9633 H   0  0  0  0  0  0  0  0  0  0  0  0
   75.7932    0.9585   51.0207 H   0  0  0  0  0  0  0  0  0  0  0  0
   75.5615    1.0368   53.4968 H   0  0  0  0  0  0  0  0  0  0  0  0
   75.5474    2.8095   53.4394 H   0  0  0  0  0  0  0  0  0  0  0  0
   77.8058    2.7930   52.3937 H   0  0  0  0  0  0  0  0  0  0  0  0
   77.8199    1.0203   52.4535 H   0  0  0  0  0  0  0  0  0  0  0  0
   77.5870    1.1030   54.9297 H   0  0  0  0  0  0  0  0  0  0  0  0
   77.5752    2.8752   54.8690 H   0  0  0  0  0  0  0  0  0  0  0  0
   79.8378    2.8548   53.8304 H   0  0  0  0  0  0  0  0  0  0  0  0
   79.8496    1.0824   53.8911 H   0  0  0  0  0  0  0  0  0  0  0  0
   79.6151    2.9402   56.3043 H   0  0  0  0  0  0  0  0  0  0  0  0
   81.0694    2.0437   55.8155 H   0  0  0  0  0  0  0  0  0  0  0  0
   79.6269    1.1635   56.3652 H   0  0  0  0  0  0  0  0  0  0  0  0
  1  2  1  0  0  0  0
  1 82  1  0  0  0  0
  1 83  1  0  0  0  0
  2  3  1  0  0  0  0
  2 84  1  0  0  0  0
  3  4  1  0  0  0  0
  3 85  1  0  0  0  0
  3 86  1  0  0  0  0
  4  5  1  0  0  0  0
  4 87  1  0  0  0  0
  4 88  1  0  0  0  0
  5  6  1  0  0  0  0
  5 89  1  0  0  0  0
  6  7  1  0  0  0  0
  6 90  1  0  0  0  0
  7  8  1  0  0  0  0
  7 91  1  0  0  0  0
  8  9  1  0  0  0  0
  8 92  1  0  0  0  0
  9 10  1  0  0  0  0
  9 93  1  0  0  0  0
 10 11  1  0  0  0  0
 10 94  1  0  0  0  0
 11 12  1  0  0  0  0
 11 95  1  0  0  0  0
 12 13  1  0  0  0  0
 12 96  1  0  0  0  0
 13 14  1  0  0  0  0
 13 97  1  0  0  0  0
 14 15  1  0  0  0  0
 14 98  1  0  0  0  0
 15 16  1  0  0  0  0
 15 99  1  0  0  0  0
 16 17  1  0  0  0  0
 16100  1  0  0  0  0
 17 18  1  0  0  0  0
 17101  1  0  0  0  0
 18 19  1  0  0  0  0
 18102  1  0  0  0  0
 19 20  1  0  0  0  0
 19103  1  0  0  0  0
 20 21  1  0  0  0  0
 20104  1  0  0  0  0
 21 22  1  0  0  0  0
 21105  1  0  0  0  0
 22 23  1  0  0  0  0
 22106  1  0  0  0  0
 23 24  1  0  0  0  0
 23107  1  0  0  0  0
 24 25  1  0  0  0  0
 24108  1  0  0  0  0
 25 26  1  0  0  0  0
 25109  1  0  0  0  0
 26 27  1  0  0  0  0
 26110  1  0  0  0  0
 27 28  1  0  0  0  0
 27111  1  0  0  0  0
 28 29  1  0  0  0  0
 28112  1  0  0  0  0
 29 30  1  0  0  0  0
 29113  1  0  0  0  0
 30 31  1  0  0  0  0
 30114  1  0  0  0  0
 31 32  1  0  0  0  0
 31115  1  0  0  0  0
 32 33  1  0  0  0  0
 32116  1  0  0  0  0
 33 34  1  0  0  0  0
 33117  1  0  0  0  0
 34 35  1  0  0  0  0
 34118  1  0  0  0  0
 35 36  1  0  0  0  0
 35119  1  0  0  0  0
 36 37  1  0  0  0  0
 36120  1  0  0  0  0
 36121  1  0  0  0  0
 37 38  1  0  0  0  0
 37122  1  0  0  0  0
 37123  1  0  0  0  0
 38 39  1  0  0  0  0
 38124  1  0  0  0  0
 38125  1  0  0  0  0
 39 40  1  0  0  0  0
 39126  1  0  0  0  0
 39127  1  0  0  0  0
 40 41  1  0  0  0  0
 40128  1  0  0  0  0
 40129  1  0  0  0  0
 41 42  1  0  0  0  0
 41130  1  0  0  0  0
 41131  1  0  0  0  0
 42 43  1  0  0  0  0
 42132  1  0  0  0  0
 42133  1  0  0  0  0
 43 44  1  0  0  0  0
 43134  1  0  0  0  0
 43135  1  0  0  0  0
 44 45  1  0  0  0  0
 44136  1  0  0  0  0
 44137  1  0  0  0  0
 45 46  1  0  0  0  0
 45138  1  0  0  0  0
 45139  1  0  0  0  0
 46 47  1  0  0  0  0
 46140  1  0  0  0  0
 46141  1  0  0  0  0
 47 48  1  0  0  0  0
 47142  1  0  0  0  0
 47143  1  0  0  0  0
 48 49  1  0  0  0  0
 48144  1  0  0  0  0
 48145  1  0  0  0  0
 49 50  1  0  0  0  0
 49146  1  0  0  0  0
 49147  1  0  0  0  0
 50 51  1  0  0  0  0
 50148  1  0  0  0  0
 50149  1  0  0  0  0
 51 52  1  0  0  0  0
 51150  1  0  0  0  0
 51151  1  0  0  0  0
 52 53  1  0  0  0  0
 52152  1  0  0  0  0
 52153  1  0  0  0  0
 53 54  1  0  0  0  0
 53154  1  0  0  0  0
 53155  1  0  0  0  0
 54 55  1  0  0  0  0
 54156  1  0  0  0  0
 54157  1  0  0  0  0
 55 56  1  0  0  0  0
 55158  1  0  0  0  0
 55159  1  0  0  0  0
 56 57  1  0  0  0  0
 56160  1  0  0  0  0
 56161  1  0  0  0  0
 57 58  1  0  0  0  0
 57162  1  0  0  0  0
 57163  1  0  0  0  0
 58 59  1  0  0  0  0
 58164  1  0  0  0  0
 58165  1  0  0  0  0
 59 60  1  0  0  0  0
 59166  1  0  0  0  0
 59167  1  0  0  0  0
 60 61  1  0  0  0  0
 60168  1  0  0  0  0
 60169  1  0  0  0  0
 61 62  1  0  0  0  0
 61170  1  0  0  0  0
 61171  1  0  0  0  0
 62 63  1  0  0  0  0
 62172  1  0  0  0  0
 62173  1  0  0  0  0
 63 64  1  0  0  0  0
 63174  1  0  0  0  0
 63175  1  0  0  0  0
 64 65  1  0  0  0  0
 64176  1  0  0  0  0
 64177  1  0  0  0  0
 65 66  1  0  0  0  0
 65178  1  0  0  0  0
 65179  1  0  0  0  0
 66 67  1  0  0  0  0
 66180  1  0  0  0  0
 66181  1  0  0  0  0
 67 68  1  0  0  0  0
 67182  1  0  0  0  0
 67183  1  0  0  0  0
 68 69  1  0  0  0  0
 68184  1  0  0  0  0
 68185  1  0  0  0  0
 69 70  1  0  0  0  0
 69186  1  0  0  0  0
 69187  1  0  0  0  0
 70 71  1  0  0  0  0
 70188  1  0  0  0  0
 70189  1  0  0  0  0
 71 72  1  0  0  0  0
 71190  1  0  0  0  0
 71191  1  0  0  0  0
 72 73  1  0  0  0  0
 72192  1  0  0  0  0
 72193  1  0  0  0  0
 73 74  1  0  0  0  0
 73194  1  0  0  0  0
 73195  1  0  0  0  0
 74 75  1  0  0  0  0
 74196  1  0  0  0  0
 74197  1  0  0  0  0
 75 76  1  0  0  0  0
 75198  1  0  0  0  0
 75199  1  0  0  0  0
 76 77  1  0  0  0  0
 76200  1  0  0  0  0
 76201  1  0  0  0  0
 77 78  1  0  0  0  0
 77202  1  0  0  0  0
 77203  1  0  0  0  0
 78 79  1  0  0  0  0
 78204  1  0  0  0  0
 78205  1  0  0  0  0
 79 80  1  0  0  0  0
 79206  1  0  0  0  0
 79207  1  0  0  0  0
 80 81  1  0  0  0  0
 80208  1  0  0  0  0
 80209  1  0  0  0  0
 81210  1  0  0  0  0
 81211  1  0  0  0  0
 81212  1  0  0  0  0
M  END
$$$$
