
 OpenBabel04232216423D

130129  0  0  0  0  0  0  0  0999 V2000
   30.2144   35.0043    0.5421 C   0  0  0  0  0  0  0  0  0  0  0  0
   30.4533   33.6844    0.6142 C   0  0  0  0  0  0  0  0  0  0  0  0
   30.9008   32.8277   -0.5390 C   0  0  0  0  0  0  0  0  0  0  0  0
   29.9421   31.7228   -0.8245 N   0  0  0  0  0  0  0  0  0  0  0  0
   30.4768   30.8890   -1.8800 N   0  0  0  0  0  0  0  0  0  0  0  0
   29.6772   29.7220   -2.0903 N   0  0  0  0  0  0  0  0  0  0  0  0
   30.1555   29.0134   -3.2482 N   0  0  0  0  0  0  0  0  0  0  0  0
   31.4789   28.4834   -2.9457 N   0  0  0  0  0  0  0  0  0  0  0  0
   31.4095   27.7368   -1.6803 N   0  0  0  0  0  0  0  0  0  0  0  0
   30.4647   26.6157   -1.7970 N   0  0  0  0  0  0  0  0  0  0  0  0
   30.8484   25.6169   -2.7860 N   0  0  0  0  0  0  0  0  0  0  0  0
   32.1481   25.0057   -2.6119 N   0  0  0  0  0  0  0  0  0  0  0  0
   32.2700   24.1681   -1.4526 N   0  0  0  0  0  0  0  0  0  0  0  0
   31.3354   23.0874   -1.4769 N   0  0  0  0  0  0  0  0  0  0  0  0
   31.3522   22.2004   -0.0793 S   0  0  0  0  0  0  0  0  0  0  0  0
   30.9639   23.2163    1.1735 N   0  0  0  0  0  0  0  0  0  0  0  0
   30.9833   22.4546    2.6523 S   0  0  0  0  0  0  0  0  0  0  0  0
   32.4957   21.8399    2.9833 N   0  0  0  0  0  0  0  0  0  0  0  0
   33.6674   23.0138    2.9053 S   0  0  0  0  0  0  0  0  0  0  0  0
   35.1492   22.3641    3.2242 N   0  0  0  0  0  0  0  0  0  0  0  0
   35.7480   21.3643    2.0534 S   0  0  0  0  0  0  0  0  0  0  0  0
   35.8929   22.1515    0.6070 N   0  0  0  0  0  0  0  0  0  0  0  0
   36.9119   23.4514    0.5952 S   0  0  0  0  0  0  0  0  0  0  0  0
   38.4806   22.9564    0.6815 N   0  0  0  0  0  0  0  0  0  0  0  0
   38.9593   21.8979   -0.4946 S   0  0  0  0  0  0  0  0  0  0  0  0
   38.9939   22.6774   -1.9536 N   0  0  0  0  0  0  0  0  0  0  0  0
   40.1100   23.8978   -2.0674 S   0  0  0  0  0  0  0  0  0  0  0  0
   41.6301   23.3546   -1.7061 N   0  0  0  0  0  0  0  0  0  0  0  0
   42.1583   22.1840   -2.7417 S   0  0  0  0  0  0  0  0  0  0  0  0
   43.7542   21.8886   -2.4366 N   0  0  0  0  0  0  0  0  0  0  0  0
   44.1008   21.3400   -0.9152 S   0  0  0  0  0  0  0  0  0  0  0  0
   43.3654   19.8609   -0.8306 N   0  0  0  0  0  0  0  0  0  0  0  0
   44.2304   18.6799   -1.5907 S   0  0  0  0  0  0  0  0  0  0  0  0
   43.8577   18.9412   -3.1755 N   0  0  0  0  0  0  0  0  0  0  0  0
   44.5342   17.7994   -4.1376 S   0  0  0  0  0  0  0  0  0  0  0  0
   44.1351   18.2621   -5.6717 N   0  0  0  0  0  0  0  0  0  0  0  0
   44.8926   19.6449   -6.1585 S   0  0  0  0  0  0  0  0  0  0  0  0
   46.5204   19.3686   -6.0882 N   0  0  0  0  0  0  0  0  0  0  0  0
   47.2966   20.7008   -6.6597 S   0  0  0  0  0  0  0  0  0  0  0  0
   48.8877   20.4315   -6.4494 N   0  0  0  0  0  0  0  0  0  0  0  0
   49.5410   19.4786   -7.6177 S   0  0  0  0  0  0  0  0  0  0  0  0
   51.0380   19.1331   -7.0258 N   0  0  0  0  0  0  0  0  0  0  0  0
   52.1626   20.2855   -7.4326 S   0  0  0  0  0  0  0  0  0  0  0  0
   51.8934   21.6183   -6.4830 N   0  0  0  0  0  0  0  0  0  0  0  0
   52.0969   21.3419   -4.8701 S   0  0  0  0  0  0  0  0  0  0  0  0
   53.7127   21.1632   -4.6428 N   0  0  0  0  0  0  0  0  0  0  0  0
   54.0322   20.8006   -3.0680 S   0  0  0  0  0  0  0  0  0  0  0  0
   55.6845   20.8654   -2.9354 N   0  0  0  0  0  0  0  0  0  0  0  0
   56.4170   19.4862   -3.4910 S   0  0  0  0  0  0  0  0  0  0  0  0
   56.1785   19.4373   -5.1345 N   0  0  0  0  0  0  0  0  0  0  0  0
   57.0610   20.5564   -5.9908 S   0  0  0  0  0  0  0  0  0  0  0  0
   58.6564   20.4687   -5.5754 N   0  0  0  0  0  0  0  0  0  0  0  0
   59.4644   19.1529   -6.1724 S   0  0  0  0  0  0  0  0  0  0  0  0
   59.2930   19.0197   -7.8110 N   0  0  0  0  0  0  0  0  0  0  0  0
   60.0028   20.1966   -8.7274 S   0  0  0  0  0  0  0  0  0  0  0  0
   61.6344   20.2349   -8.5017 N   0  0  0  0  0  0  0  0  0  0  0  0
   62.4841   18.8960   -8.9663 S   0  0  0  0  0  0  0  0  0  0  0  0
   62.4041   18.6452  -10.5940 N   0  0  0  0  0  0  0  0  0  0  0  0
   63.0566   19.7891  -11.5798 S   0  0  0  0  0  0  0  0  0  0  0  0
   64.6927   19.8695  -11.3723 N   0  0  0  0  0  0  0  0  0  0  0  0
   65.5571   18.5137  -11.7268 S   0  0  0  0  0  0  0  0  0  0  0  0
   65.6048   18.2870  -13.3678 N   0  0  0  0  0  0  0  0  0  0  0  0
   66.0373   19.6173  -14.2514 S   0  0  0  0  0  0  0  0  0  0  0  0
   67.6212   19.9383  -14.0088 N   0  0  0  0  0  0  0  0  0  0  0  0
   68.7652   18.7692  -14.1729 S   0  0  0  0  0  0  0  0  0  0  0  0
   68.7090   18.0177  -15.6283 N   0  0  0  0  0  0  0  0  0  0  0  0
   69.0626   18.8977  -16.9729 S   0  0  0  0  0  0  0  0  0  0  0  0
   70.6719   19.2837  -16.9551 N   0  0  0  0  0  0  0  0  0  0  0  0
   71.7031   17.9903  -16.9752 S   0  0  0  0  0  0  0  0  0  0  0  0
   71.7091   17.3318  -18.4978 N   0  0  0  0  0  0  0  0  0  0  0  0
   72.7549   16.0449  -18.6178 S   0  0  0  0  0  0  0  0  0  0  0  0
   72.4532   14.9511  -17.3985 N   0  0  0  0  0  0  0  0  0  0  0  0
   71.0190   14.1449  -17.6166 S   0  0  0  0  0  0  0  0  0  0  0  0
   70.8322   13.1131  -16.3272 N   0  0  0  0  0  0  0  0  0  0  0  0
   70.9179   13.8698  -14.8496 S   0  0  0  0  0  0  0  0  0  0  0  0
   69.6054   14.8375  -14.6222 N   0  0  0  0  0  0  0  0  0  0  0  0
   68.2083   13.9971  -14.4198 S   0  0  0  0  0  0  0  0  0  0  0  0
   67.0878   15.2072  -14.4330 N   0  0  0  0  0  0  0  0  0  0  0  0
   66.5699   15.4968  -15.9658 S   0  0  0  0  0  0  0  0  0  0  0  0
   66.0695   17.0428  -15.8561 N   0  0  0  0  0  0  0  0  0  0  0  0
   29.9266   35.5634    1.4284 H   0  0  0  0  0  0  0  0  0  0  0  0
   30.3095   35.5679   -0.3806 H   0  0  0  0  0  0  0  0  0  0  0  0
   30.3650   33.1999    1.5847 H   0  0  0  0  0  0  0  0  0  0  0  0
   31.8798   32.4037   -0.2798 H   0  0  0  0  0  0  0  0  0  0  0  0
   31.0321   33.4355   -1.4427 H   0  0  0  0  0  0  0  0  0  0  0  0
   29.0618   32.1985   -1.0854 H   0  0  0  0  0  0  0  0  0  0  0  0
   31.4119   30.5564   -1.6221 H   0  0  0  0  0  0  0  0  0  0  0  0
   28.6996   29.9855   -2.1997 H   0  0  0  0  0  0  0  0  0  0  0  0
   30.2172   29.6967   -4.0238 H   0  0  0  0  0  0  0  0  0  0  0  0
   32.0725   29.3211   -2.8039 H   0  0  0  0  0  0  0  0  0  0  0  0
   31.0006   28.4378   -1.0144 H   0  0  0  0  0  0  0  0  0  0  0  0
   29.5748   27.0542   -2.1143 H   0  0  0  0  0  0  0  0  0  0  0  0
   30.8013   26.0551   -3.7073 H   0  0  0  0  0  0  0  0  0  0  0  0
   32.8730   25.7240   -2.6060 H   0  0  0  0  0  0  0  0  0  0  0  0
   32.1313   24.7296   -0.6151 H   0  0  0  0  0  0  0  0  0  0  0  0
   31.5518   22.5117   -2.2934 H   0  0  0  0  0  0  0  0  0  0  0  0
   30.0609   23.6820    1.0272 H   0  0  0  0  0  0  0  0  0  0  0  0
   32.6811   21.0485    2.3672 H   0  0  0  0  0  0  0  0  0  0  0  0
   35.2449   21.9753    4.1617 H   0  0  0  0  0  0  0  0  0  0  0  0
   34.9963   22.4288    0.2129 H   0  0  0  0  0  0  0  0  0  0  0  0
   38.7203   22.5846    1.5966 H   0  0  0  0  0  0  0  0  0  0  0  0
   38.0644   22.9945   -2.2255 H   0  0  0  0  0  0  0  0  0  0  0  0
   41.7182   23.0824   -0.7265 H   0  0  0  0  0  0  0  0  0  0  0  0
   44.3383   22.6849   -2.6729 H   0  0  0  0  0  0  0  0  0  0  0  0
   42.4929   19.9532   -1.3449 H   0  0  0  0  0  0  0  0  0  0  0  0
   44.1420   19.8891   -3.4392 H   0  0  0  0  0  0  0  0  0  0  0  0
   43.1226   18.4164   -5.6880 H   0  0  0  0  0  0  0  0  0  0  0  0
   46.7740   18.5311   -6.6055 H   0  0  0  0  0  0  0  0  0  0  0  0
   49.1790   20.1279   -5.5217 H   0  0  0  0  0  0  0  0  0  0  0  0
   51.3444   18.2301   -7.3886 H   0  0  0  0  0  0  0  0  0  0  0  0
   50.9500   21.9644   -6.6449 H   0  0  0  0  0  0  0  0  0  0  0  0
   54.2202   21.9955   -4.9343 H   0  0  0  0  0  0  0  0  0  0  0  0
   55.8857   20.9844   -1.9410 H   0  0  0  0  0  0  0  0  0  0  0  0
   55.1869   19.6642   -5.2935 H   0  0  0  0  0  0  0  0  0  0  0  0
   58.7459   20.5299   -4.5602 H   0  0  0  0  0  0  0  0  0  0  0  0
   58.3180   18.9196   -8.0836 H   0  0  0  0  0  0  0  0  0  0  0  0
   61.8652   20.4744   -7.5397 H   0  0  0  0  0  0  0  0  0  0  0  0
   61.4581   18.4140  -10.8918 H   0  0  0  0  0  0  0  0  0  0  0  0
   64.8908   20.1587  -10.4193 H   0  0  0  0  0  0  0  0  0  0  0  0
   64.6772   17.9822  -13.6644 H   0  0  0  0  0  0  0  0  0  0  0  0
   67.6982   20.3666  -13.0860 H   0  0  0  0  0  0  0  0  0  0  0  0
   67.8658   17.4386  -15.7313 H   0  0  0  0  0  0  0  0  0  0  0  0
   70.8391   19.8404  -16.1188 H   0  0  0  0  0  0  0  0  0  0  0  0
   71.8939   18.0400  -19.2092 H   0  0  0  0  0  0  0  0  0  0  0  0
   72.4034   15.4422  -16.5019 H   0  0  0  0  0  0  0  0  0  0  0  0
   71.5292   12.3736  -16.3730 H   0  0  0  0  0  0  0  0  0  0  0  0
   69.4591   15.5943  -15.2978 H   0  0  0  0  0  0  0  0  0  0  0  0
   67.4965   16.0453  -14.0210 H   0  0  0  0  0  0  0  0  0  0  0  0
   66.3615   17.6456  -16.6248 H   0  0  0  0  0  0  0  0  0  0  0  0
   66.3827   17.5308  -15.0080 H   0  0  0  0  0  0  0  0  0  0  0  0
  1  2  2  0  0  0  0
  1 81  1  0  0  0  0
  1 82  1  0  0  0  0
  2  3  1  0  0  0  0
  2 83  1  0  0  0  0
  3  4  1  0  0  0  0
  3 84  1  0  0  0  0
  3 85  1  0  0  0  0
  4  5  1  0  0  0  0
  4 86  1  0  0  0  0
  5  6  1  0  0  0  0
  5 87  1  0  0  0  0
  6  7  1  0  0  0  0
  6 88  1  0  0  0  0
  7  8  1  0  0  0  0
  7 89  1  0  0  0  0
  8  9  1  0  0  0  0
  8 90  1  0  0  0  0
  9 10  1  0  0  0  0
  9 91  1  0  0  0  0
 10 11  1  0  0  0  0
 10 92  1  0  0  0  0
 11 12  1  0  0  0  0
 11 93  1  0  0  0  0
 12 13  1  0  0  0  0
 12 94  1  0  0  0  0
 13 14  1  0  0  0  0
 13 95  1  0  0  0  0
 14 15  1  0  0  0  0
 14 96  1  0  0  0  0
 15 16  1  0  0  0  0
 16 17  1  0  0  0  0
 16 97  1  0  0  0  0
 17 18  1  0  0  0  0
 18 19  1  0  0  0  0
 18 98  1  0  0  0  0
 19 20  1  0  0  0  0
 20 21  1  0  0  0  0
 20 99  1  0  0  0  0
 21 22  1  0  0  0  0
 22 23  1  0  0  0  0
 22100  1  0  0  0  0
 23 24  1  0  0  0  0
 24 25  1  0  0  0  0
 24101  1  0  0  0  0
 25 26  1  0  0  0  0
 26 27  1  0  0  0  0
 26102  1  0  0  0  0
 27 28  1  0  0  0  0
 28 29  1  0  0  0  0
 28103  1  0  0  0  0
 29 30  1  0  0  0  0
 30 31  1  0  0  0  0
 30104  1  0  0  0  0
 31 32  1  0  0  0  0
 32 33  1  0  0  0  0
 32105  1  0  0  0  0
 33 34  1  0  0  0  0
 34 35  1  0  0  0  0
 34106  1  0  0  0  0
 35 36  1  0  0  0  0
 36 37  1  0  0  0  0
 36107  1  0  0  0  0
 37 38  1  0  0  0  0
 38 39  1  0  0  0  0
 38108  1  0  0  0  0
 39 40  1  0  0  0  0
 40 41  1  0  0  0  0
 40109  1  0  0  0  0
 41 42  1  0  0  0  0
 42 43  1  0  0  0  0
 42110  1  0  0  0  0
 43 44  1  0  0  0  0
 44 45  1  0  0  0  0
 44111  1  0  0  0  0
 45 46  1  0  0  0  0
 46 47  1  0  0  0  0
 46112  1  0  0  0  0
 47 48  1  0  0  0  0
 48 49  1  0  0  0  0
 48113  1  0  0  0  0
 49 50  1  0  0  0  0
 50 51  1  0  0  0  0
 50114  1  0  0  0  0
 51 52  1  0  0  0  0
 52 53  1  0  0  0  0
 52115  1  0  0  0  0
 53 54  1  0  0  0  0
 54 55  1  0  0  0  0
 54116  1  0  0  0  0
 55 56  1  0  0  0  0
 56 57  1  0  0  0  0
 56117  1  0  0  0  0
 57 58  1  0  0  0  0
 58 59  1  0  0  0  0
 58118  1  0  0  0  0
 59 60  1  0  0  0  0
 60 61  1  0  0  0  0
 60119  1  0  0  0  0
 61 62  1  0  0  0  0
 62 63  1  0  0  0  0
 62120  1  0  0  0  0
 63 64  1  0  0  0  0
 64 65  1  0  0  0  0
 64121  1  0  0  0  0
 65 66  1  0  0  0  0
 66 67  1  0  0  0  0
 66122  1  0  0  0  0
 67 68  1  0  0  0  0
 68 69  1  0  0  0  0
 68123  1  0  0  0  0
 69 70  1  0  0  0  0
 70 71  1  0  0  0  0
 70124  1  0  0  0  0
 71 72  1  0  0  0  0
 72 73  1  0  0  0  0
 72125  1  0  0  0  0
 73 74  1  0  0  0  0
 74 75  1  0  0  0  0
 74126  1  0  0  0  0
 75 76  1  0  0  0  0
 76 77  1  0  0  0  0
 76127  1  0  0  0  0
 77 78  1  0  0  0  0
 78 79  1  0  0  0  0
 78128  1  0  0  0  0
 79 80  1  0  0  0  0
 80129  1  0  0  0  0
 80130  1  0  0  0  0
M  END
$$$$
