
 OpenBabel04232216473D

 47 49  0  0  1  0  0  0  0  0999 V2000
    2.9486    1.4135   -1.0574 C   0  0  0  0  0  0  0  0  0  0  0  0
    4.2921    1.3443   -0.3386 C   0  0  0  0  0  0  0  0  0  0  0  0
    4.2053    0.6545    0.8216 C   0  0  0  0  0  0  0  0  0  0  0  0
    5.2016   -0.0358    1.5868 C   0  0  0  0  0  0  0  0  0  0  0  0
    5.8966    0.5473    2.5629 C   0  0  0  0  0  0  0  0  0  0  0  0
    6.8659    0.0597    3.5204 C   0  0  0  0  0  0  0  0  0  0  0  0
    7.3308    0.9184    2.3893 C   0  0  3  0  0  0  0  0  0  0  0  0
    7.3677    2.4278    2.5196 C   0  0  0  0  0  0  0  0  0  0  0  0
    8.0620    3.0251    3.3403 O   0  0  0  0  0  0  0  0  0  0  0  0
    6.5093    3.1289    1.5013 C   0  0  0  0  0  0  0  0  0  0  0  0
    7.1003    2.9999    0.3043 C   0  0  0  0  0  0  0  0  0  0  0  0
    6.5480    2.5653   -0.9581 C   0  0  0  0  0  0  0  0  0  0  0  0
    7.4401    3.0836   -2.1093 C   0  0  0  0  0  0  0  0  0  0  0  0
    8.7039    2.3557   -2.6591 C   0  0  0  0  0  0  0  0  0  0  0  0
    9.6621    1.5768   -1.7392 C   0  0  0  0  0  0  0  0  0  0  0  0
    9.5379    0.0613   -1.9550 C   0  0  0  0  0  0  0  0  0  0  0  0
   10.1054   -0.8217   -0.8280 C   0  0  0  0  0  0  0  0  0  0  0  0
    9.0288   -1.6572   -0.1092 C   0  0  0  0  0  0  0  0  0  0  0  0
    8.5855   -1.1238    1.2656 C   0  0  0  0  0  0  0  0  0  0  0  0
    8.0673    0.3005    1.1833 C   0  0  0  0  0  0  0  0  0  0  0  0
    5.4221    1.8284   -1.1735 C   0  0  0  0  0  0  0  0  0  0  0  0
    2.1238    1.6501   -0.3734 H   0  0  0  0  0  0  0  0  0  0  0  0
    2.7392    0.4190   -1.4843 H   0  0  0  0  0  0  0  0  0  0  0  0
    2.9238    2.1355   -1.8744 H   0  0  0  0  0  0  0  0  0  0  0  0
    3.2065    0.4328    1.2108 H   0  0  0  0  0  0  0  0  0  0  0  0
    5.4929   -1.0033    1.1901 H   0  0  0  0  0  0  0  0  0  0  0  0
    7.0483   -1.0067    3.5267 H   0  0  0  0  0  0  0  0  0  0  0  0
    6.8575    0.5059    4.5090 H   0  0  0  0  0  0  0  0  0  0  0  0
    5.4407    3.0820    1.6437 H   0  0  0  0  0  0  0  0  0  0  0  0
    8.1991    3.0220    0.3148 H   0  0  0  0  0  0  0  0  0  0  0  0
    7.7798    4.0898   -1.8166 H   0  0  0  0  0  0  0  0  0  0  0  0
    6.7962    3.2827   -2.9762 H   0  0  0  0  0  0  0  0  0  0  0  0
    9.3122    3.1479   -3.1226 H   0  0  0  0  0  0  0  0  0  0  0  0
    8.4025    1.7181   -3.4986 H   0  0  0  0  0  0  0  0  0  0  0  0
    9.5626    1.8687   -0.6997 H   0  0  0  0  0  0  0  0  0  0  0  0
   10.6953    1.8503   -2.0028 H   0  0  0  0  0  0  0  0  0  0  0  0
   10.0970   -0.1752   -2.8723 H   0  0  0  0  0  0  0  0  0  0  0  0
    8.4962   -0.1993   -2.1637 H   0  0  0  0  0  0  0  0  0  0  0  0
   10.7129   -0.2517   -0.1169 H   0  0  0  0  0  0  0  0  0  0  0  0
   10.7925   -1.5387   -1.2994 H   0  0  0  0  0  0  0  0  0  0  0  0
    9.4208   -2.6698    0.0466 H   0  0  0  0  0  0  0  0  0  0  0  0
    8.1479   -1.7817   -0.7532 H   0  0  0  0  0  0  0  0  0  0  0  0
    9.4219   -1.1633    1.9703 H   0  0  0  0  0  0  0  0  0  0  0  0
    7.8128   -1.8035    1.6387 H   0  0  0  0  0  0  0  0  0  0  0  0
    7.4178    0.3462    0.2996 H   0  0  0  0  0  0  0  0  0  0  0  0
    8.9231    0.9417    0.9860 H   0  0  0  0  0  0  0  0  0  0  0  0
    5.2277    1.6050   -2.2275 H   0  0  0  0  0  0  0  0  0  0  0  0
  1  2  1  0  0  0  0
  1 22  1  0  0  0  0
  1 23  1  0  0  0  0
  1 24  1  0  0  0  0
  2  3  2  3  0  0  0
  2 21  1  0  0  0  0
  3  4  1  0  0  0  0
  3 25  1  0  0  0  0
  4  5  2  3  0  0  0
  4 26  1  0  0  0  0
  5  6  1  0  0  0  0
  5  7  1  0  0  0  0
  6  7  1  0  0  0  0
  6 27  1  0  0  0  0
  6 28  1  0  0  0  0
  7  8  1  0  0  0  0
  7 20  1  0  0  0  0
  8  9  2  0  0  0  0
  8 10  1  0  0  0  0
 10 11  2  3  0  0  0
 10 29  1  0  0  0  0
 11 12  1  0  0  0  0
 11 30  1  0  0  0  0
 12 13  1  0  0  0  0
 12 21  2  3  0  0  0
 13 14  1  0  0  0  0
 13 31  1  0  0  0  0
 13 32  1  0  0  0  0
 14 15  1  0  0  0  0
 14 33  1  0  0  0  0
 14 34  1  0  0  0  0
 15 16  1  0  0  0  0
 15 35  1  0  0  0  0
 15 36  1  0  0  0  0
 16 17  1  0  0  0  0
 16 37  1  0  0  0  0
 16 38  1  0  0  0  0
 17 18  1  0  0  0  0
 17 39  1  0  0  0  0
 17 40  1  0  0  0  0
 18 19  1  0  0  0  0
 18 41  1  0  0  0  0
 18 42  1  0  0  0  0
 19 20  1  0  0  0  0
 19 43  1  0  0  0  0
 19 44  1  0  0  0  0
 20 45  1  0  0  0  0
 20 46  1  0  0  0  0
 21 47  1  0  0  0  0
M  END
$$$$
