
 OpenBabel04232216453D

 58 59  0  0  1  0  0  0  0  0999 V2000
    3.5437   -1.1810   -2.3864 C   0  0  0  0  0  0  0  0  0  0  0  0
    4.7066   -0.1550   -2.2130 C   0  0  3  0  0  0  0  0  0  0  0  0
    3.9474    1.1187   -2.0396 C   0  0  0  0  0  0  0  0  0  0  0  0
    4.1875    2.0001   -1.0673 C   0  0  0  0  0  0  0  0  0  0  0  0
    4.9038    1.5715    0.2101 C   0  0  0  0  0  0  0  0  0  0  0  0
    4.2217    3.3641   -1.4330 N   0  0  0  0  0  0  0  0  0  0  0  0
    3.4024    3.8746   -2.5544 C   0  0  0  0  0  0  0  0  0  0  0  0
    5.6051    3.8981   -1.4062 C   0  0  0  0  0  0  0  0  0  0  0  0
    6.2383    4.1552   -2.7650 C   0  0  0  0  0  0  0  0  0  0  0  0
    7.7103    3.7796   -2.6749 C   0  0  0  0  0  0  0  0  0  0  0  0
    8.5752    4.6098   -2.8654 O   0  0  0  0  0  0  0  0  0  0  0  0
    7.9908    2.3563   -2.1421 C   0  0  0  0  0  0  0  0  0  0  0  0
    8.1269    1.4421   -3.1365 C   0  0  0  0  0  0  0  0  0  0  0  0
    9.3464    1.3568   -3.8914 N   0  0  0  0  0  0  0  0  0  0  0  0
   10.4854    2.3432   -3.9382 C   0  0  0  0  0  0  0  0  0  0  0  0
   11.8948    1.7477   -3.5714 C   0  0  0  0  0  0  0  0  0  0  0  0
   11.7772    1.3466   -2.1206 C   0  0  0  0  0  0  0  0  0  0  0  0
   12.7538    0.7117   -1.1530 C   0  0  0  0  0  0  0  0  0  0  0  0
   11.9623    0.2677    0.1405 C   0  0  0  0  0  0  0  0  0  0  0  0
   10.4059    0.4895    0.1640 C   0  0  0  0  0  0  0  0  0  0  0  0
    9.0205    1.1859   -0.0390 C   0  0  0  0  0  0  0  0  0  0  0  0
    8.8910    2.4721   -0.9111 C   0  0  0  0  0  0  0  0  0  0  0  0
    6.9246    0.6761   -3.6959 C   0  0  0  0  0  0  0  0  0  0  0  0
    5.7180    0.0870   -3.3897 C   0  0  0  0  0  0  0  0  0  0  0  0
    2.6627   -0.9018   -1.7770 H   0  0  0  0  0  0  0  0  0  0  0  0
    3.8156   -2.1822   -2.0417 H   0  0  0  0  0  0  0  0  0  0  0  0
    3.1792   -1.2478   -3.4181 H   0  0  0  0  0  0  0  0  0  0  0  0
    5.2592   -0.4693   -1.3196 H   0  0  0  0  0  0  0  0  0  0  0  0
    3.3635    1.4004   -2.9103 H   0  0  0  0  0  0  0  0  0  0  0  0
    4.2926    0.8754    0.7934 H   0  0  0  0  0  0  0  0  0  0  0  0
    5.1345    2.4214    0.8608 H   0  0  0  0  0  0  0  0  0  0  0  0
    5.8579    1.0829   -0.0206 H   0  0  0  0  0  0  0  0  0  0  0  0
    2.3416    3.6686   -2.3889 H   0  0  0  0  0  0  0  0  0  0  0  0
    3.6853    3.4027   -3.5063 H   0  0  0  0  0  0  0  0  0  0  0  0
    3.5318    4.9533   -2.6811 H   0  0  0  0  0  0  0  0  0  0  0  0
    6.2198    3.1500   -0.9051 H   0  0  0  0  0  0  0  0  0  0  0  0
    5.6815    4.7533   -0.7332 H   0  0  0  0  0  0  0  0  0  0  0  0
    6.1548    5.2201   -3.0054 H   0  0  0  0  0  0  0  0  0  0  0  0
    5.8251    3.5892   -3.6032 H   0  0  0  0  0  0  0  0  0  0  0  0
    9.1756    0.9888   -4.8261 H   0  0  0  0  0  0  0  0  0  0  0  0
   10.3167    3.1779   -3.2578 H   0  0  0  0  0  0  0  0  0  0  0  0
   10.5301    2.7893   -4.9391 H   0  0  0  0  0  0  0  0  0  0  0  0
   12.6656    2.5190   -3.6942 H   0  0  0  0  0  0  0  0  0  0  0  0
   12.1515    0.9033   -4.2142 H   0  0  0  0  0  0  0  0  0  0  0  0
   10.9472    0.6537   -2.1731 H   0  0  0  0  0  0  0  0  0  0  0  0
   11.5218    2.2758   -1.6159 H   0  0  0  0  0  0  0  0  0  0  0  0
   13.5276    1.4310   -0.8521 H   0  0  0  0  0  0  0  0  0  0  0  0
   13.2751   -0.1509   -1.5845 H   0  0  0  0  0  0  0  0  0  0  0  0
   12.1402   -0.8067    0.2918 H   0  0  0  0  0  0  0  0  0  0  0  0
   12.4112    0.7320    1.0320 H   0  0  0  0  0  0  0  0  0  0  0  0
   10.7389    1.5328    0.1630 H   0  0  0  0  0  0  0  0  0  0  0  0
   10.2393   -0.1938   -0.6738 H   0  0  0  0  0  0  0  0  0  0  0  0
    8.3078    0.4369   -0.4135 H   0  0  0  0  0  0  0  0  0  0  0  0
    8.6481    1.4325    0.9640 H   0  0  0  0  0  0  0  0  0  0  0  0
    8.4087    3.2135   -0.2543 H   0  0  0  0  0  0  0  0  0  0  0  0
    9.8360    2.9599   -1.1358 H   0  0  0  0  0  0  0  0  0  0  0  0
    7.1249    0.5472   -4.7670 H   0  0  0  0  0  0  0  0  0  0  0  0
    5.2520   -0.3581   -4.2801 H   0  0  0  0  0  0  0  0  0  0  0  0
  1  2  1  0  0  0  0
  1 25  1  0  0  0  0
  1 26  1  0  0  0  0
  1 27  1  0  0  0  0
  2  3  1  0  0  0  0
  2 24  1  0  0  0  0
  2 28  1  0  0  0  0
  3  4  2  3  0  0  0
  3 29  1  0  0  0  0
  4  5  1  0  0  0  0
  4  6  1  0  0  0  0
  5 30  1  0  0  0  0
  5 31  1  0  0  0  0
  5 32  1  0  0  0  0
  6  7  1  0  0  0  0
  6  8  1  0  0  0  0
  7 33  1  0  0  0  0
  7 34  1  0  0  0  0
  7 35  1  0  0  0  0
  8  9  1  0  0  0  0
  8 36  1  0  0  0  0
  8 37  1  0  0  0  0
  9 10  1  0  0  0  0
  9 38  1  0  0  0  0
  9 39  1  0  0  0  0
 10 11  2  0  0  0  0
 10 12  1  0  0  0  0
 12 13  2  3  0  0  0
 12 22  1  0  0  0  0
 13 14  1  0  0  0  0
 13 23  1  0  0  0  0
 14 15  1  0  0  0  0
 14 40  1  0  0  0  0
 15 16  1  0  0  0  0
 15 41  1  0  0  0  0
 15 42  1  0  0  0  0
 16 17  1  0  0  0  0
 16 43  1  0  0  0  0
 16 44  1  0  0  0  0
 17 18  1  0  0  0  0
 17 45  1  0  0  0  0
 17 46  1  0  0  0  0
 18 19  1  0  0  0  0
 18 47  1  0  0  0  0
 18 48  1  0  0  0  0
 19 20  1  0  0  0  0
 19 49  1  0  0  0  0
 19 50  1  0  0  0  0
 20 21  1  0  0  0  0
 20 51  1  0  0  0  0
 20 52  1  0  0  0  0
 21 22  1  0  0  0  0
 21 53  1  0  0  0  0
 21 54  1  0  0  0  0
 22 55  1  0  0  0  0
 22 56  1  0  0  0  0
 23 24  2  3  0  0  0
 23 57  1  0  0  0  0
 24 58  1  0  0  0  0
M  END
$$$$
