
 OpenBabel04232217033D

 85 84  0  0  0  0  0  0  0  0999 V2000
   18.3986   11.2652   -4.1914 S   0  0  0  0  0  0  0  0  0  0  0  0
   17.6978   10.4583   -2.8934 O   0  0  0  0  0  0  0  0  0  0  0  0
   16.0458   10.5838   -2.9971 S   0  0  0  0  0  0  0  0  0  0  0  0
   15.4509    9.4656   -1.3777 S   0  0  0  0  0  0  0  0  0  0  0  0
   13.3850    9.4505   -1.3311 S   0  0  0  0  0  0  0  0  0  0  0  0
   12.6813    8.5703   -3.0698 S   0  0  0  0  0  0  0  0  0  0  0  0
   13.2394    7.0162   -2.9737 N   0  0  0  0  0  0  0  0  0  0  0  0
   12.8021    6.1957   -4.0885 N   0  0  0  0  0  0  0  0  0  0  0  0
   13.5142    4.6983   -4.0602 S   0  0  0  0  0  0  0  0  0  0  0  0
   12.8172    3.8181   -5.7997 S   0  0  0  0  0  0  0  0  0  0  0  0
   13.5498    4.8549   -7.4388 S   0  0  0  0  0  0  0  0  0  0  0  0
   15.6232    4.7687   -7.4798 S   0  0  0  0  0  0  0  0  0  0  0  0
   16.2890    5.8864   -9.1372 S   0  0  0  0  0  0  0  0  0  0  0  0
   18.4017    5.8861   -9.1372 S   0  0  0  0  0  0  0  0  0  0  0  0
   19.0928    6.9779  -10.8091 S   0  0  0  0  0  0  0  0  0  0  0  0
   21.2057    6.9731  -10.8014 S   0  0  0  0  0  0  0  0  0  0  0  0
   21.8990    8.0644  -12.4707 S   0  0  0  0  0  0  0  0  0  0  0  0
   24.0099    8.0574  -12.4602 S   0  0  0  0  0  0  0  0  0  0  0  0
   24.7017    9.1483  -14.1289 S   0  0  0  0  0  0  0  0  0  0  0  0
   26.8115    9.1412  -14.1180 S   0  0  0  0  0  0  0  0  0  0  0  0
   27.5024   10.2319  -15.7865 S   0  0  0  0  0  0  0  0  0  0  0  0
   29.6119   10.2247  -15.7756 S   0  0  0  0  0  0  0  0  0  0  0  0
   30.3026   11.3154  -17.4439 S   0  0  0  0  0  0  0  0  0  0  0  0
   32.4120   11.3081  -17.4328 S   0  0  0  0  0  0  0  0  0  0  0  0
   33.1027   12.3987  -19.1011 S   0  0  0  0  0  0  0  0  0  0  0  0
   35.2121   12.3914  -19.0900 S   0  0  0  0  0  0  0  0  0  0  0  0
   35.9021   13.4822  -20.7586 S   0  0  0  0  0  0  0  0  0  0  0  0
   38.0114   13.4751  -20.7477 S   0  0  0  0  0  0  0  0  0  0  0  0
   38.7023   14.5655  -22.4158 S   0  0  0  0  0  0  0  0  0  0  0  0
   40.8114   14.5580  -22.4042 S   0  0  0  0  0  0  0  0  0  0  0  0
   41.5027   15.6483  -24.0722 S   0  0  0  0  0  0  0  0  0  0  0  0
   43.6121   15.6412  -24.0613 S   0  0  0  0  0  0  0  0  0  0  0  0
   44.3024   16.7321  -25.7300 S   0  0  0  0  0  0  0  0  0  0  0  0
   46.4120   16.7249  -25.7190 S   0  0  0  0  0  0  0  0  0  0  0  0
   47.1026   17.8154  -27.3873 S   0  0  0  0  0  0  0  0  0  0  0  0
   49.2120   17.8082  -27.3762 S   0  0  0  0  0  0  0  0  0  0  0  0
   49.9026   18.8988  -29.0445 S   0  0  0  0  0  0  0  0  0  0  0  0
   52.0120   18.8915  -29.0334 S   0  0  0  0  0  0  0  0  0  0  0  0
   52.7026   19.9821  -30.7017 S   0  0  0  0  0  0  0  0  0  0  0  0
   54.8120   19.9749  -30.6906 S   0  0  0  0  0  0  0  0  0  0  0  0
   55.5026   21.0654  -32.3589 S   0  0  0  0  0  0  0  0  0  0  0  0
   57.6120   21.0582  -32.3478 S   0  0  0  0  0  0  0  0  0  0  0  0
   58.3026   22.1488  -34.0162 S   0  0  0  0  0  0  0  0  0  0  0  0
   60.4120   22.1415  -34.0051 S   0  0  0  0  0  0  0  0  0  0  0  0
   61.1026   23.2321  -35.6734 S   0  0  0  0  0  0  0  0  0  0  0  0
   63.2120   23.2249  -35.6623 S   0  0  0  0  0  0  0  0  0  0  0  0
   63.9026   24.3155  -37.3306 S   0  0  0  0  0  0  0  0  0  0  0  0
   66.0119   24.3082  -37.3195 S   0  0  0  0  0  0  0  0  0  0  0  0
   66.7026   25.3988  -38.9878 S   0  0  0  0  0  0  0  0  0  0  0  0
   68.8119   25.3916  -38.9767 S   0  0  0  0  0  0  0  0  0  0  0  0
   69.5026   26.4821  -40.6450 S   0  0  0  0  0  0  0  0  0  0  0  0
   71.6119   26.4749  -40.6340 S   0  0  0  0  0  0  0  0  0  0  0  0
   72.3026   27.5655  -42.3023 S   0  0  0  0  0  0  0  0  0  0  0  0
   74.4119   27.5582  -42.2912 S   0  0  0  0  0  0  0  0  0  0  0  0
   75.1026   28.6488  -43.9595 S   0  0  0  0  0  0  0  0  0  0  0  0
   77.2118   28.6417  -43.9486 S   0  0  0  0  0  0  0  0  0  0  0  0
   77.9026   29.7321  -45.6166 S   0  0  0  0  0  0  0  0  0  0  0  0
   80.0121   29.7249  -45.6055 S   0  0  0  0  0  0  0  0  0  0  0  0
   80.7020   30.8158  -47.2744 S   0  0  0  0  0  0  0  0  0  0  0  0
   82.8112   30.8092  -47.2643 S   0  0  0  0  0  0  0  0  0  0  0  0
   83.5016   31.8997  -48.9325 S   0  0  0  0  0  0  0  0  0  0  0  0
   85.6107   31.8921  -48.9209 S   0  0  0  0  0  0  0  0  0  0  0  0
   86.3025   32.9824  -50.5887 S   0  0  0  0  0  0  0  0  0  0  0  0
   88.4121   32.9748  -50.5771 S   0  0  0  0  0  0  0  0  0  0  0  0
   89.1025   34.0655  -52.2456 S   0  0  0  0  0  0  0  0  0  0  0  0
   91.2119   34.0583  -52.2345 S   0  0  0  0  0  0  0  0  0  0  0  0
   91.9025   35.1489  -53.9028 S   0  0  0  0  0  0  0  0  0  0  0  0
   94.0118   35.1416  -53.8917 S   0  0  0  0  0  0  0  0  0  0  0  0
   94.7023   36.2321  -55.5599 S   0  0  0  0  0  0  0  0  0  0  0  0
   96.8114   36.2248  -55.5486 S   0  0  0  0  0  0  0  0  0  0  0  0
   97.5014   37.3151  -57.2166 S   0  0  0  0  0  0  0  0  0  0  0  0
   99.6096   37.3075  -57.2049 S   0  0  0  0  0  0  0  0  0  0  0  0
  100.2979   38.3974  -58.8722 S   0  0  0  0  0  0  0  0  0  0  0  0
  102.4037   38.3886  -58.8588 S   0  0  0  0  0  0  0  0  0  0  0  0
  103.0886   39.4767  -60.5235 S   0  0  0  0  0  0  0  0  0  0  0  0
  105.1879   39.4646  -60.5037 S   0  0  0  0  0  0  0  0  0  0  0  0
  105.8620   40.5489  -62.1635 S   0  0  0  0  0  0  0  0  0  0  0  0
  107.9460   40.5026  -62.1433 S   0  0  0  0  0  0  0  0  0  0  0  0
  108.6110   41.6453  -63.7438 S   0  0  0  0  0  0  0  0  0  0  0  0
  110.6780   41.5557  -63.7345 S   0  0  0  0  0  0  0  0  0  0  0  0
  111.2766   42.5200  -62.0141 S   0  0  0  0  0  0  0  0  0  0  0  0
   19.7020   11.0754   -3.9460 H   0  0  0  0  0  0  0  0  0  0  0  0
   12.8962    6.5681   -2.1052 H   0  0  0  0  0  0  0  0  0  0  0  0
   13.1774    6.6826   -4.9759 H   0  0  0  0  0  0  0  0  0  0  0  0
  112.6106   42.4216  -62.1050 H   0  0  0  0  0  0  0  0  0  0  0  0
  1  2  1  0  0  0  0
  1 82  1  0  0  0  0
  2  3  1  0  0  0  0
  3  4  1  0  0  0  0
  4  5  1  0  0  0  0
  5  6  1  0  0  0  0
  6  7  1  0  0  0  0
  7  8  1  0  0  0  0
  7 83  1  0  0  0  0
  8  9  1  0  0  0  0
  8 84  1  0  0  0  0
  9 10  1  0  0  0  0
 10 11  1  0  0  0  0
 11 12  1  0  0  0  0
 12 13  1  0  0  0  0
 13 14  1  0  0  0  0
 14 15  1  0  0  0  0
 15 16  1  0  0  0  0
 16 17  1  0  0  0  0
 17 18  1  0  0  0  0
 18 19  1  0  0  0  0
 19 20  1  0  0  0  0
 20 21  1  0  0  0  0
 21 22  1  0  0  0  0
 22 23  1  0  0  0  0
 23 24  1  0  0  0  0
 24 25  1  0  0  0  0
 25 26  1  0  0  0  0
 26 27  1  0  0  0  0
 27 28  1  0  0  0  0
 28 29  1  0  0  0  0
 29 30  1  0  0  0  0
 30 31  1  0  0  0  0
 31 32  1  0  0  0  0
 32 33  1  0  0  0  0
 33 34  1  0  0  0  0
 34 35  1  0  0  0  0
 35 36  1  0  0  0  0
 36 37  1  0  0  0  0
 37 38  1  0  0  0  0
 38 39  1  0  0  0  0
 39 40  1  0  0  0  0
 40 41  1  0  0  0  0
 41 42  1  0  0  0  0
 42 43  1  0  0  0  0
 43 44  1  0  0  0  0
 44 45  1  0  0  0  0
 45 46  1  0  0  0  0
 46 47  1  0  0  0  0
 47 48  1  0  0  0  0
 48 49  1  0  0  0  0
 49 50  1  0  0  0  0
 50 51  1  0  0  0  0
 51 52  1  0  0  0  0
 52 53  1  0  0  0  0
 53 54  1  0  0  0  0
 54 55  1  0  0  0  0
 55 56  1  0  0  0  0
 56 57  1  0  0  0  0
 57 58  1  0  0  0  0
 58 59  1  0  0  0  0
 59 60  1  0  0  0  0
 60 61  1  0  0  0  0
 61 62  1  0  0  0  0
 62 63  1  0  0  0  0
 63 64  1  0  0  0  0
 64 65  1  0  0  0  0
 65 66  1  0  0  0  0
 66 67  1  0  0  0  0
 67 68  1  0  0  0  0
 68 69  1  0  0  0  0
 69 70  1  0  0  0  0
 70 71  1  0  0  0  0
 71 72  1  0  0  0  0
 72 73  1  0  0  0  0
 73 74  1  0  0  0  0
 74 75  1  0  0  0  0
 75 76  1  0  0  0  0
 76 77  1  0  0  0  0
 77 78  1  0  0  0  0
 78 79  1  0  0  0  0
 79 80  1  0  0  0  0
 80 81  1  0  0  0  0
 81 85  1  0  0  0  0
M  END
$$$$
