
 OpenBabel04232217033D

 84 83  0  0  0  0  0  0  0  0999 V2000
    5.7013    3.7834   -7.5467 S   0  0  0  0  0  0  0  0  0  0  0  0
    7.3242    3.8694   -7.6938 O   0  0  0  0  0  0  0  0  0  0  0  0
    8.0073    3.2500   -6.5572 O   0  0  0  0  0  0  0  0  0  0  0  0
    9.4165    3.1357   -6.6850 O   0  0  0  0  0  0  0  0  0  0  0  0
   10.0872    2.5261   -5.3172 S   0  0  0  0  0  0  0  0  0  0  0  0
    9.5452    0.9312   -5.3711 N   0  0  0  0  0  0  0  0  0  0  0  0
   10.2113    0.1299   -4.0778 S   0  0  0  0  0  0  0  0  0  0  0  0
    9.4735   -1.7772   -4.2932 S   0  0  0  0  0  0  0  0  0  0  0  0
   10.2046   -2.5921   -6.0461 S   0  0  0  0  0  0  0  0  0  0  0  0
   12.2730   -2.6777   -5.9801 S   0  0  0  0  0  0  0  0  0  0  0  0
   12.9215   -3.4526   -7.8203 S   0  0  0  0  0  0  0  0  0  0  0  0
   15.0309   -3.4540   -7.8205 S   0  0  0  0  0  0  0  0  0  0  0  0
   15.7223   -4.2618   -9.6437 S   0  0  0  0  0  0  0  0  0  0  0  0
   17.8343   -4.2569   -9.6332 S   0  0  0  0  0  0  0  0  0  0  0  0
   18.5271   -5.0637  -11.4565 S   0  0  0  0  0  0  0  0  0  0  0  0
   20.6373   -5.0586  -11.4449 S   0  0  0  0  0  0  0  0  0  0  0  0
   21.3285   -5.8653  -13.2678 S   0  0  0  0  0  0  0  0  0  0  0  0
   23.4381   -5.8600  -13.2559 S   0  0  0  0  0  0  0  0  0  0  0  0
   24.1288   -6.6666  -15.0787 S   0  0  0  0  0  0  0  0  0  0  0  0
   26.2383   -6.6613  -15.0665 S   0  0  0  0  0  0  0  0  0  0  0  0
   26.9289   -7.4678  -16.8892 S   0  0  0  0  0  0  0  0  0  0  0  0
   29.0384   -7.4625  -16.8770 S   0  0  0  0  0  0  0  0  0  0  0  0
   29.7289   -8.2690  -18.6997 S   0  0  0  0  0  0  0  0  0  0  0  0
   31.8383   -8.2637  -18.6876 S   0  0  0  0  0  0  0  0  0  0  0  0
   32.5288   -9.0703  -20.5103 S   0  0  0  0  0  0  0  0  0  0  0  0
   34.6382   -9.0649  -20.4982 S   0  0  0  0  0  0  0  0  0  0  0  0
   35.3288   -9.8715  -22.3208 S   0  0  0  0  0  0  0  0  0  0  0  0
   37.4382   -9.8661  -22.3087 S   0  0  0  0  0  0  0  0  0  0  0  0
   38.1288  -10.6727  -24.1314 S   0  0  0  0  0  0  0  0  0  0  0  0
   40.2382  -10.6673  -24.1193 S   0  0  0  0  0  0  0  0  0  0  0  0
   40.9288  -11.4739  -25.9419 S   0  0  0  0  0  0  0  0  0  0  0  0
   43.0382  -11.4686  -25.9298 S   0  0  0  0  0  0  0  0  0  0  0  0
   43.7288  -12.2751  -27.7525 S   0  0  0  0  0  0  0  0  0  0  0  0
   45.8382  -12.2698  -27.7404 S   0  0  0  0  0  0  0  0  0  0  0  0
   46.5288  -13.0763  -29.5630 S   0  0  0  0  0  0  0  0  0  0  0  0
   48.6382  -13.0710  -29.5509 S   0  0  0  0  0  0  0  0  0  0  0  0
   49.3288  -13.8776  -31.3736 S   0  0  0  0  0  0  0  0  0  0  0  0
   51.4382  -13.8722  -31.3614 S   0  0  0  0  0  0  0  0  0  0  0  0
   52.1288  -14.6788  -33.1841 S   0  0  0  0  0  0  0  0  0  0  0  0
   54.2381  -14.6734  -33.1720 S   0  0  0  0  0  0  0  0  0  0  0  0
   54.9288  -15.4800  -34.9947 S   0  0  0  0  0  0  0  0  0  0  0  0
   57.0381  -15.4746  -34.9825 S   0  0  0  0  0  0  0  0  0  0  0  0
   57.7288  -16.2812  -36.8052 S   0  0  0  0  0  0  0  0  0  0  0  0
   59.8381  -16.2758  -36.7931 S   0  0  0  0  0  0  0  0  0  0  0  0
   60.5288  -17.0824  -38.6157 S   0  0  0  0  0  0  0  0  0  0  0  0
   62.6381  -17.0770  -38.6036 S   0  0  0  0  0  0  0  0  0  0  0  0
   63.3287  -17.8836  -40.4263 S   0  0  0  0  0  0  0  0  0  0  0  0
   65.4381  -17.8783  -40.4142 S   0  0  0  0  0  0  0  0  0  0  0  0
   66.1287  -18.6848  -42.2368 S   0  0  0  0  0  0  0  0  0  0  0  0
   68.2381  -18.6795  -42.2247 S   0  0  0  0  0  0  0  0  0  0  0  0
   68.9287  -19.4860  -44.0474 S   0  0  0  0  0  0  0  0  0  0  0  0
   71.0381  -19.4807  -44.0353 S   0  0  0  0  0  0  0  0  0  0  0  0
   71.7287  -20.2873  -45.8579 S   0  0  0  0  0  0  0  0  0  0  0  0
   73.8381  -20.2819  -45.8458 S   0  0  0  0  0  0  0  0  0  0  0  0
   74.5287  -21.0885  -47.6685 S   0  0  0  0  0  0  0  0  0  0  0  0
   76.6381  -21.0831  -47.6563 S   0  0  0  0  0  0  0  0  0  0  0  0
   77.3287  -21.8897  -49.4790 S   0  0  0  0  0  0  0  0  0  0  0  0
   79.4381  -21.8843  -49.4669 S   0  0  0  0  0  0  0  0  0  0  0  0
   80.1287  -22.6909  -51.2895 S   0  0  0  0  0  0  0  0  0  0  0  0
   82.2381  -22.6855  -51.2774 S   0  0  0  0  0  0  0  0  0  0  0  0
   82.9287  -23.4921  -53.1001 S   0  0  0  0  0  0  0  0  0  0  0  0
   85.0381  -23.4867  -53.0880 S   0  0  0  0  0  0  0  0  0  0  0  0
   85.7287  -24.2933  -54.9106 S   0  0  0  0  0  0  0  0  0  0  0  0
   87.8380  -24.2880  -54.8985 S   0  0  0  0  0  0  0  0  0  0  0  0
   88.5286  -25.0945  -56.7212 S   0  0  0  0  0  0  0  0  0  0  0  0
   90.6380  -25.0892  -56.7090 S   0  0  0  0  0  0  0  0  0  0  0  0
   91.3286  -25.8957  -58.5317 S   0  0  0  0  0  0  0  0  0  0  0  0
   93.4380  -25.8904  -58.5196 S   0  0  0  0  0  0  0  0  0  0  0  0
   94.1286  -26.6970  -60.3422 S   0  0  0  0  0  0  0  0  0  0  0  0
   96.2379  -26.6916  -60.3301 S   0  0  0  0  0  0  0  0  0  0  0  0
   96.9284  -27.4981  -62.1527 S   0  0  0  0  0  0  0  0  0  0  0  0
   99.0375  -27.4927  -62.1404 S   0  0  0  0  0  0  0  0  0  0  0  0
   99.7273  -28.2991  -63.9626 S   0  0  0  0  0  0  0  0  0  0  0  0
  101.8351  -28.2933  -63.9495 S   0  0  0  0  0  0  0  0  0  0  0  0
  102.5227  -29.0987  -65.7701 S   0  0  0  0  0  0  0  0  0  0  0  0
  104.6249  -29.0920  -65.7523 S   0  0  0  0  0  0  0  0  0  0  0  0
  105.3036  -29.8945  -67.5679 S   0  0  0  0  0  0  0  0  0  0  0  0
  107.3917  -29.8465  -67.5423 S   0  0  0  0  0  0  0  0  0  0  0  0
  108.0672  -30.7357  -69.2962 S   0  0  0  0  0  0  0  0  0  0  0  0
  110.1342  -30.6294  -69.2785 S   0  0  0  0  0  0  0  0  0  0  0  0
  110.7445  -31.8809  -67.7552 S   0  0  0  0  0  0  0  0  0  0  0  0
    5.3138    4.4132   -8.6525 H   0  0  0  0  0  0  0  0  0  0  0  0
    9.8543    0.5040   -6.2242 H   0  0  0  0  0  0  0  0  0  0  0  0
  112.0830  -31.7675  -67.8357 H   0  0  0  0  0  0  0  0  0  0  0  0
  1  2  1  0  0  0  0
  1 82  1  0  0  0  0
  2  3  1  0  0  0  0
  3  4  1  0  0  0  0
  4  5  1  0  0  0  0
  5  6  1  0  0  0  0
  6  7  1  0  0  0  0
  6 83  1  0  0  0  0
  7  8  1  0  0  0  0
  8  9  1  0  0  0  0
  9 10  1  0  0  0  0
 10 11  1  0  0  0  0
 11 12  1  0  0  0  0
 12 13  1  0  0  0  0
 13 14  1  0  0  0  0
 14 15  1  0  0  0  0
 15 16  1  0  0  0  0
 16 17  1  0  0  0  0
 17 18  1  0  0  0  0
 18 19  1  0  0  0  0
 19 20  1  0  0  0  0
 20 21  1  0  0  0  0
 21 22  1  0  0  0  0
 22 23  1  0  0  0  0
 23 24  1  0  0  0  0
 24 25  1  0  0  0  0
 25 26  1  0  0  0  0
 26 27  1  0  0  0  0
 27 28  1  0  0  0  0
 28 29  1  0  0  0  0
 29 30  1  0  0  0  0
 30 31  1  0  0  0  0
 31 32  1  0  0  0  0
 32 33  1  0  0  0  0
 33 34  1  0  0  0  0
 34 35  1  0  0  0  0
 35 36  1  0  0  0  0
 36 37  1  0  0  0  0
 37 38  1  0  0  0  0
 38 39  1  0  0  0  0
 39 40  1  0  0  0  0
 40 41  1  0  0  0  0
 41 42  1  0  0  0  0
 42 43  1  0  0  0  0
 43 44  1  0  0  0  0
 44 45  1  0  0  0  0
 45 46  1  0  0  0  0
 46 47  1  0  0  0  0
 47 48  1  0  0  0  0
 48 49  1  0  0  0  0
 49 50  1  0  0  0  0
 50 51  1  0  0  0  0
 51 52  1  0  0  0  0
 52 53  1  0  0  0  0
 53 54  1  0  0  0  0
 54 55  1  0  0  0  0
 55 56  1  0  0  0  0
 56 57  1  0  0  0  0
 57 58  1  0  0  0  0
 58 59  1  0  0  0  0
 59 60  1  0  0  0  0
 60 61  1  0  0  0  0
 61 62  1  0  0  0  0
 62 63  1  0  0  0  0
 63 64  1  0  0  0  0
 64 65  1  0  0  0  0
 65 66  1  0  0  0  0
 66 67  1  0  0  0  0
 67 68  1  0  0  0  0
 68 69  1  0  0  0  0
 69 70  1  0  0  0  0
 70 71  1  0  0  0  0
 71 72  1  0  0  0  0
 72 73  1  0  0  0  0
 73 74  1  0  0  0  0
 74 75  1  0  0  0  0
 75 76  1  0  0  0  0
 76 77  1  0  0  0  0
 77 78  1  0  0  0  0
 78 79  1  0  0  0  0
 79 80  1  0  0  0  0
 80 81  1  0  0  0  0
 81 84  1  0  0  0  0
M  END
$$$$
