
 OpenBabel04232216443D

 57 59  0  0  1  0  0  0  0  0999 V2000
    1.1110    0.4568   -0.4304 C   0  0  0  0  0  0  0  0  0  0  0  0
    2.6153    0.3589   -0.2990 C   0  0  0  0  0  0  0  0  0  0  0  0
    3.2438    1.6550   -0.6076 C   0  0  0  0  0  0  0  0  0  0  0  0
    4.7149    2.3415   -0.5436 C   0  0  3  0  0  0  0  0  0  0  0  0
    5.2856    3.7138   -0.1178 C   0  0  0  0  0  0  0  0  0  0  0  0
    6.7110    4.0280   -0.5612 C   0  0  0  0  0  0  0  0  0  0  0  0
    6.7820    4.4797   -2.0099 C   0  0  0  0  0  0  0  0  0  0  0  0
    8.1744    5.0031   -2.3601 C   0  0  0  0  0  0  0  0  0  0  0  0
    8.2305    5.3981   -3.8329 C   0  0  0  0  0  0  0  0  0  0  0  0
    9.6076    5.8953   -4.2325 C   0  0  0  0  0  0  0  0  0  0  0  0
    3.7095    2.2418    0.4476 C   0  0  0  0  0  0  0  0  0  0  0  0
    3.8285    1.9138    1.8308 C   0  0  0  0  0  0  0  0  0  0  0  0
    3.0285    2.8966    2.6463 C   0  0  0  0  0  0  0  0  0  0  0  0
    3.0948    2.7314    4.1480 C   0  0  0  0  0  0  0  0  0  0  0  0
    4.6200    0.9096    2.2645 C   0  0  0  0  0  0  0  0  0  0  0  0
    5.3012   -0.0432    1.3902 C   0  0  0  0  0  0  0  0  0  0  0  0
    6.7993   -0.1328    1.4819 C   0  0  0  0  0  0  0  0  0  0  0  0
    4.6440   -0.8049    0.4931 C   0  0  0  0  0  0  0  0  0  0  0  0
    3.1989   -0.7390    0.2651 C   0  0  0  0  0  0  0  0  0  0  0  0
    2.4306   -1.8310    1.0183 C   0  0  0  0  0  0  0  0  0  0  0  0
    2.0949   -3.1194    0.3519 C   0  0  0  0  0  0  0  0  0  0  0  0
    1.8086   -3.5033   -0.9403 C   0  0  0  0  0  0  0  0  0  0  0  0
    1.4275   -4.8680   -0.8814 C   0  0  0  0  0  0  0  0  0  0  0  0
    1.5201   -5.2380    0.4388 C   0  0  0  0  0  0  0  0  0  0  0  0
    1.9247   -4.1862    1.1939 O   0  0  0  0  0  0  0  0  0  0  0  0
    0.7974    1.4087   -0.8739 H   0  0  0  0  0  0  0  0  0  0  0  0
    0.6314    0.4043    0.5537 H   0  0  0  0  0  0  0  0  0  0  0  0
    0.7190   -0.3434   -1.0656 H   0  0  0  0  0  0  0  0  0  0  0  0
    4.7498    2.4300   -1.6317 H   0  0  0  0  0  0  0  0  0  0  0  0
    5.3741    3.7580    0.9798 H   0  0  0  0  0  0  0  0  0  0  0  0
    4.6062    4.5282   -0.4026 H   0  0  0  0  0  0  0  0  0  0  0  0
    7.3760    3.1764   -0.3782 H   0  0  0  0  0  0  0  0  0  0  0  0
    7.0753    4.8509    0.0719 H   0  0  0  0  0  0  0  0  0  0  0  0
    6.0464    5.2751   -2.1822 H   0  0  0  0  0  0  0  0  0  0  0  0
    6.5215    3.6427   -2.6654 H   0  0  0  0  0  0  0  0  0  0  0  0
    8.9268    4.2343   -2.1469 H   0  0  0  0  0  0  0  0  0  0  0  0
    8.4155    5.8718   -1.7335 H   0  0  0  0  0  0  0  0  0  0  0  0
    7.4906    6.1818   -4.0335 H   0  0  0  0  0  0  0  0  0  0  0  0
    7.9655    4.5350   -4.4543 H   0  0  0  0  0  0  0  0  0  0  0  0
    9.8885    6.7819   -3.6555 H   0  0  0  0  0  0  0  0  0  0  0  0
    9.6154    6.1621   -5.2938 H   0  0  0  0  0  0  0  0  0  0  0  0
   10.3653    5.1224   -4.0700 H   0  0  0  0  0  0  0  0  0  0  0  0
    1.9757    2.8312    2.3372 H   0  0  0  0  0  0  0  0  0  0  0  0
    3.3576    3.9160    2.3997 H   0  0  0  0  0  0  0  0  0  0  0  0
    2.7020    1.7564    4.4495 H   0  0  0  0  0  0  0  0  0  0  0  0
    2.4899    3.5074    4.6263 H   0  0  0  0  0  0  0  0  0  0  0  0
    4.1231    2.8314    4.5070 H   0  0  0  0  0  0  0  0  0  0  0  0
    4.7662    0.7364    3.3241 H   0  0  0  0  0  0  0  0  0  0  0  0
    7.2212    0.7113    2.0344 H   0  0  0  0  0  0  0  0  0  0  0  0
    7.2474   -0.1105    0.4794 H   0  0  0  0  0  0  0  0  0  0  0  0
    7.1063   -1.0604    1.9745 H   0  0  0  0  0  0  0  0  0  0  0  0
    5.1693   -1.5452   -0.1125 H   0  0  0  0  0  0  0  0  0  0  0  0
    1.4871   -1.4213    1.4002 H   0  0  0  0  0  0  0  0  0  0  0  0
    2.9861   -2.0697    1.9397 H   0  0  0  0  0  0  0  0  0  0  0  0
    1.8356   -2.8654   -1.8120 H   0  0  0  0  0  0  0  0  0  0  0  0
    1.1071   -5.5010   -1.6965 H   0  0  0  0  0  0  0  0  0  0  0  0
    1.3291   -6.1565    0.9776 H   0  0  0  0  0  0  0  0  0  0  0  0
  1  2  1  0  0  0  0
  1 26  1  0  0  0  0
  1 27  1  0  0  0  0
  1 28  1  0  0  0  0
  2  3  1  0  0  0  0
  2 19  2  0  0  0  0
  3  4  1  0  0  0  0
  3 11  2  0  0  0  0
  4  5  1  0  0  0  0
  4 11  1  0  0  0  0
  4 29  1  0  0  0  0
  5  6  1  0  0  0  0
  5 30  1  0  0  0  0
  5 31  1  0  0  0  0
  6  7  1  0  0  0  0
  6 32  1  0  0  0  0
  6 33  1  0  0  0  0
  7  8  1  0  0  0  0
  7 34  1  0  0  0  0
  7 35  1  0  0  0  0
  8  9  1  0  0  0  0
  8 36  1  0  0  0  0
  8 37  1  0  0  0  0
  9 10  1  0  0  0  0
  9 38  1  0  0  0  0
  9 39  1  0  0  0  0
 10 40  1  0  0  0  0
 10 41  1  0  0  0  0
 10 42  1  0  0  0  0
 11 12  1  0  0  0  0
 12 13  1  0  0  0  0
 12 15  2  0  0  0  0
 13 14  1  0  0  0  0
 13 43  1  0  0  0  0
 13 44  1  0  0  0  0
 14 45  1  0  0  0  0
 14 46  1  0  0  0  0
 14 47  1  0  0  0  0
 15 16  1  0  0  0  0
 15 48  1  0  0  0  0
 16 17  1  0  0  0  0
 16 18  2  0  0  0  0
 17 49  1  0  0  0  0
 17 50  1  0  0  0  0
 17 51  1  0  0  0  0
 18 19  1  0  0  0  0
 18 52  1  0  0  0  0
 19 20  1  0  0  0  0
 20 21  1  0  0  0  0
 20 53  1  0  0  0  0
 20 54  1  0  0  0  0
 21 22  2  0  0  0  0
 21 25  1  0  0  0  0
 22 23  1  0  0  0  0
 22 55  1  0  0  0  0
 23 24  2  0  0  0  0
 23 56  1  0  0  0  0
 24 25  1  0  0  0  0
 24 57  1  0  0  0  0
M  END
$$$$
