
 OpenBabel04232216533D

206205  0  0  0  0  0  0  0  0999 V2000
   17.1927    0.2304  -30.6801 C   0  0  0  0  0  0  0  0  0  0  0  0
   18.6663    0.3880  -30.9860 C   0  0  0  0  0  0  0  0  0  0  0  0
   19.4645    0.4287  -29.6941 C   0  0  0  0  0  0  0  0  0  0  0  0
   20.9443    0.5849  -29.9954 C   0  0  0  0  0  0  0  0  0  0  0  0
   21.7444    0.6256  -28.7034 C   0  0  0  0  0  0  0  0  0  0  0  0
   23.2302    0.7840  -29.0065 C   0  0  0  0  0  0  0  0  0  0  0  0
   23.9430    0.8066  -27.7504 N   0  0  0  0  0  0  0  0  0  0  0  0
   25.3301    0.9653  -28.0454 N   0  0  0  0  0  0  0  0  0  0  0  0
   26.0794    0.9862  -26.8501 N   0  0  0  0  0  0  0  0  0  0  0  0
   27.4538    1.1176  -27.1520 N   0  0  0  0  0  0  0  0  0  0  0  0
   27.7189    2.3650  -27.8379 N   0  0  0  0  0  0  0  0  0  0  0  0
   27.2948    3.5052  -27.0788 N   0  0  0  0  0  0  0  0  0  0  0  0
   27.9812    3.5385  -25.8370 N   0  0  0  0  0  0  0  0  0  0  0  0
   29.3869    3.6467  -26.0984 N   0  0  0  0  0  0  0  0  0  0  0  0
   29.6366    4.8400  -26.8697 N   0  0  0  0  0  0  0  0  0  0  0  0
   29.1806    5.9845  -26.1389 N   0  0  0  0  0  0  0  0  0  0  0  0
   29.8777    6.0551  -24.8858 N   0  0  0  0  0  0  0  0  0  0  0  0
   31.2891    6.1643  -25.1123 N   0  0  0  0  0  0  0  0  0  0  0  0
   31.5690    7.3061  -25.9069 N   0  0  0  0  0  0  0  0  0  0  0  0
   31.1175    8.4675  -25.2093 N   0  0  0  0  0  0  0  0  0  0  0  0
   31.7838    8.5793  -23.9346 N   0  0  0  0  0  0  0  0  0  0  0  0
   33.1917    8.6284  -24.1219 N   0  0  0  0  0  0  0  0  0  0  0  0
   33.4966    9.7922  -24.9120 N   0  0  0  0  0  0  0  0  0  0  0  0
   33.0282   10.9884  -24.2493 N   0  0  0  0  0  0  0  0  0  0  0  0
   33.6457   11.0872  -22.9796 N   0  0  0  0  0  0  0  0  0  0  0  0
   35.0680   11.1727  -23.1441 N   0  0  0  0  0  0  0  0  0  0  0  0
   35.3933   12.2823  -23.9676 N   0  0  0  0  0  0  0  0  0  0  0  0
   34.9356   13.4887  -23.3337 N   0  0  0  0  0  0  0  0  0  0  0  0
   35.5332   13.6367  -22.0289 N   0  0  0  0  0  0  0  0  0  0  0  0
   36.9655   13.7113  -22.1467 N   0  0  0  0  0  0  0  0  0  0  0  0
   37.3342   14.8012  -22.9868 N   0  0  0  0  0  0  0  0  0  0  0  0
   36.8137   15.9837  -22.4048 N   0  0  0  0  0  0  0  0  0  0  0  0
   37.3861   16.1285  -21.0721 N   0  0  0  0  0  0  0  0  0  0  0  0
   38.8358   16.1793  -21.1813 N   0  0  0  0  0  0  0  0  0  0  0  0
   39.2467   17.3005  -21.9861 N   0  0  0  0  0  0  0  0  0  0  0  0
   38.7547   18.4963  -21.4140 N   0  0  0  0  0  0  0  0  0  0  0  0
   39.2998   18.6717  -20.0962 N   0  0  0  0  0  0  0  0  0  0  0  0
   40.7272   18.7042  -20.1469 N   0  0  0  0  0  0  0  0  0  0  0  0
   41.1671   19.7666  -20.9755 N   0  0  0  0  0  0  0  0  0  0  0  0
   40.6947   21.0002  -20.4288 N   0  0  0  0  0  0  0  0  0  0  0  0
   41.1686   21.1643  -19.0836 N   0  0  0  0  0  0  0  0  0  0  0  0
   42.6064   21.1677  -19.0930 N   0  0  0  0  0  0  0  0  0  0  0  0
   43.0675   22.2407  -19.9253 N   0  0  0  0  0  0  0  0  0  0  0  0
   42.5818   23.5285  -19.4163 N   0  0  0  0  0  0  0  0  0  0  0  0
   43.0855   23.6970  -18.0328 C   0  0  0  0  0  0  0  0  0  0  0  0
   44.5498   23.6949  -18.0059 N   0  0  0  0  0  0  0  0  0  0  0  0
   45.0194   24.7787  -18.8630 C   0  0  0  0  0  0  0  0  0  0  0  0
   46.5309   24.7778  -18.8696 C   0  0  0  0  0  0  0  0  0  0  0  0
   47.0390   25.9158  -19.7360 C   0  0  0  0  0  0  0  0  0  0  0  0
   48.5549   25.9243  -19.7390 C   0  0  0  0  0  0  0  0  0  0  0  0
   49.0665   27.0608  -20.6025 C   0  0  0  0  0  0  0  0  0  0  0  0
   50.5826   27.0664  -20.6057 C   0  0  0  0  0  0  0  0  0  0  0  0
   51.0937   28.2040  -21.4676 C   0  0  0  0  0  0  0  0  0  0  0  0
   52.6095   28.2105  -21.4690 C   0  0  0  0  0  0  0  0  0  0  0  0
   53.1204   29.3492  -22.3291 C   0  0  0  0  0  0  0  0  0  0  0  0
   54.6361   29.3569  -22.3289 C   0  0  0  0  0  0  0  0  0  0  0  0
   55.1471   30.4944  -23.1907 C   0  0  0  0  0  0  0  0  0  0  0  0
   56.6628   30.5009  -23.1920 C   0  0  0  0  0  0  0  0  0  0  0  0
   57.1737   31.6384  -24.0538 C   0  0  0  0  0  0  0  0  0  0  0  0
   58.6895   31.6461  -24.0536 C   0  0  0  0  0  0  0  0  0  0  0  0
   59.2004   32.7835  -24.9154 C   0  0  0  0  0  0  0  0  0  0  0  0
   60.7161   32.7913  -24.9151 C   0  0  0  0  0  0  0  0  0  0  0  0
   61.2271   33.9287  -25.7769 C   0  0  0  0  0  0  0  0  0  0  0  0
   62.7428   33.9365  -25.7767 C   0  0  0  0  0  0  0  0  0  0  0  0
   63.2537   35.0739  -26.6384 C   0  0  0  0  0  0  0  0  0  0  0  0
   64.7694   35.0817  -26.6382 C   0  0  0  0  0  0  0  0  0  0  0  0
   65.2804   36.2191  -27.5000 C   0  0  0  0  0  0  0  0  0  0  0  0
   66.7961   36.2269  -27.4998 C   0  0  0  0  0  0  0  0  0  0  0  0
   67.3070   37.3643  -28.3615 C   0  0  0  0  0  0  0  0  0  0  0  0
   68.8227   37.3708  -28.3629 C   0  0  0  0  0  0  0  0  0  0  0  0
   69.3337   38.5083  -29.2247 C   0  0  0  0  0  0  0  0  0  0  0  0
   70.8494   38.5148  -29.2261 C   0  0  0  0  0  0  0  0  0  0  0  0
   71.3603   39.6523  -30.0878 C   0  0  0  0  0  0  0  0  0  0  0  0
   72.8761   39.6588  -30.0892 C   0  0  0  0  0  0  0  0  0  0  0  0
   73.3870   40.7962  -30.9509 C   0  0  0  0  0  0  0  0  0  0  0  0
   74.9027   40.8015  -30.9539 C   0  0  0  0  0  0  0  0  0  0  0  0
   75.4138   41.9390  -31.8157 C   0  0  0  0  0  0  0  0  0  0  0  0
   76.9300   41.9441  -31.8185 C   0  0  0  0  0  0  0  0  0  0  0  0
   77.4423   43.0805  -32.6820 C   0  0  0  0  0  0  0  0  0  0  0  0
   78.9605   43.0873  -32.6886 C   0  0  0  0  0  0  0  0  0  0  0  0
   79.4681   44.2220  -33.5508 C   0  0  0  0  0  0  0  0  0  0  0  0
   16.6167    0.2008  -31.6080 H   0  0  0  0  0  0  0  0  0  0  0  0
   16.8378    1.0696  -30.0733 H   0  0  0  0  0  0  0  0  0  0  0  0
   17.0155   -0.6979  -30.1274 H   0  0  0  0  0  0  0  0  0  0  0  0
   18.8274    1.3127  -31.5519 H   0  0  0  0  0  0  0  0  0  0  0  0
   19.0047   -0.4503  -31.6059 H   0  0  0  0  0  0  0  0  0  0  0  0
   19.2974   -0.4955  -29.1271 H   0  0  0  0  0  0  0  0  0  0  0  0
   19.1222    1.2668  -29.0745 H   0  0  0  0  0  0  0  0  0  0  0  0
   21.1078    1.5088  -30.5629 H   0  0  0  0  0  0  0  0  0  0  0  0
   21.2830   -0.2540  -30.6154 H   0  0  0  0  0  0  0  0  0  0  0  0
   21.5690   -0.3001  -28.1399 H   0  0  0  0  0  0  0  0  0  0  0  0
   21.3934    1.4629  -28.0858 H   0  0  0  0  0  0  0  0  0  0  0  0
   23.3791    1.7149  -29.5662 H   0  0  0  0  0  0  0  0  0  0  0  0
   23.5586   -0.0556  -29.6290 H   0  0  0  0  0  0  0  0  0  0  0  0
   23.8361   -0.0665  -27.2396 H   0  0  0  0  0  0  0  0  0  0  0  0
   25.5208    1.8513  -28.5162 H   0  0  0  0  0  0  0  0  0  0  0  0
   25.9506    0.1270  -26.3273 H   0  0  0  0  0  0  0  0  0  0  0  0
   27.7782    0.3107  -27.6965 H   0  0  0  0  0  0  0  0  0  0  0  0
   27.2196    2.3721  -28.7258 H   0  0  0  0  0  0  0  0  0  0  0  0
   26.2991    3.4259  -26.8836 H   0  0  0  0  0  0  0  0  0  0  0  0
   27.7707    2.6695  -25.3352 H   0  0  0  0  0  0  0  0  0  0  0  0
   29.6782    2.8599  -26.6734 H   0  0  0  0  0  0  0  0  0  0  0  0
   29.1146    4.7386  -27.7611 H   0  0  0  0  0  0  0  0  0  0  0  0
   28.1714    5.9116  -25.9609 H   0  0  0  0  0  0  0  0  0  0  0  0
   29.7188    5.2121  -24.3420 H   0  0  0  0  0  0  0  0  0  0  0  0
   31.6058    5.3443  -25.6261 H   0  0  0  0  0  0  0  0  0  0  0  0
   31.0851    7.2072  -26.8100 H   0  0  0  0  0  0  0  0  0  0  0  0
   30.1223    8.4062  -25.0223 H   0  0  0  0  0  0  0  0  0  0  0  0
   31.5770    7.7450  -23.3879 H   0  0  0  0  0  0  0  0  0  0  0  0
   33.4798    7.7514  -24.5896 H   0  0  0  0  0  0  0  0  0  0  0  0
   33.0276    9.6959  -25.8252 H   0  0  0  0  0  0  0  0  0  0  0  0
   32.0199   10.9283  -24.0933 H   0  0  0  0  0  0  0  0  0  0  0  0
   33.4351   10.2763  -22.4122 H   0  0  0  0  0  0  0  0  0  0  0  0
   35.3907   10.3402  -23.6224 H   0  0  0  0  0  0  0  0  0  0  0  0
   34.9319   12.1896  -24.8725 H   0  0  0  0  0  0  0  0  0  0  0  0
   33.9088   13.4242  -23.2449 H   0  0  0  0  0  0  0  0  0  0  0  0
   35.2972   12.8274  -21.4515 H   0  0  0  0  0  0  0  0  0  0  0  0
   37.2918   12.8551  -22.5865 H   0  0  0  0  0  0  0  0  0  0  0  0
   36.8881   14.6557  -23.8954 H   0  0  0  0  0  0  0  0  0  0  0  0
   35.7922   15.8983  -22.3430 H   0  0  0  0  0  0  0  0  0  0  0  0
   37.1021   15.2949  -20.5192 H   0  0  0  0  0  0  0  0  0  0  0  0
   39.1869   15.2966  -21.5970 H   0  0  0  0  0  0  0  0  0  0  0  0
   38.8688   17.2350  -22.9294 H   0  0  0  0  0  0  0  0  0  0  0  0
   37.7495   18.5037  -21.3391 H   0  0  0  0  0  0  0  0  0  0  0  0
   39.0206   17.8815  -19.5204 H   0  0  0  0  0  0  0  0  0  0  0  0
   41.0689   17.8318  -20.5454 H   0  0  0  0  0  0  0  0  0  0  0  0
   40.7849   19.6571  -21.9121 H   0  0  0  0  0  0  0  0  0  0  0  0
   39.6770   20.9620  -20.4002 H   0  0  0  0  0  0  0  0  0  0  0  0
   40.8546   20.3590  -18.5419 H   0  0  0  0  0  0  0  0  0  0  0  0
   42.9066   20.2770  -19.5010 H   0  0  0  0  0  0  0  0  0  0  0  0
   42.6871   22.0838  -20.8673 H   0  0  0  0  0  0  0  0  0  0  0  0
   41.5614   23.4533  -19.4059 H   0  0  0  0  0  0  0  0  0  0  0  0
   42.7083   22.8830  -17.3942 H   0  0  0  0  0  0  0  0  0  0  0  0
   42.6782   24.6217  -17.6106 H   0  0  0  0  0  0  0  0  0  0  0  0
   44.8483   22.8054  -18.4023 H   0  0  0  0  0  0  0  0  0  0  0  0
   44.6446   25.7351  -18.4767 H   0  0  0  0  0  0  0  0  0  0  0  0
   44.6605   24.6685  -19.8962 H   0  0  0  0  0  0  0  0  0  0  0  0
   46.9027   23.8235  -19.2604 H   0  0  0  0  0  0  0  0  0  0  0  0
   46.9027   24.8965  -17.8471 H   0  0  0  0  0  0  0  0  0  0  0  0
   46.6649   26.8730  -19.3521 H   0  0  0  0  0  0  0  0  0  0  0  0
   46.6682   25.8000  -20.7621 H   0  0  0  0  0  0  0  0  0  0  0  0
   48.9305   24.9688  -20.1245 H   0  0  0  0  0  0  0  0  0  0  0  0
   48.9272   26.0420  -18.7141 H   0  0  0  0  0  0  0  0  0  0  0  0
   48.6934   28.0172  -20.2167 H   0  0  0  0  0  0  0  0  0  0  0  0
   48.6944   26.9448  -21.6276 H   0  0  0  0  0  0  0  0  0  0  0  0
   50.9563   26.1110  -20.9932 H   0  0  0  0  0  0  0  0  0  0  0  0
   50.9553   27.1815  -19.5808 H   0  0  0  0  0  0  0  0  0  0  0  0
   50.7191   29.1594  -21.0810 H   0  0  0  0  0  0  0  0  0  0  0  0
   50.7224   28.0883  -22.4929 H   0  0  0  0  0  0  0  0  0  0  0  0
   52.9842   27.2556  -21.8568 H   0  0  0  0  0  0  0  0  0  0  0  0
   52.9809   28.3249  -20.4435 H   0  0  0  0  0  0  0  0  0  0  0  0
   52.7446   30.3040  -21.9421 H   0  0  0  0  0  0  0  0  0  0  0  0
   52.7502   29.2341  -23.3550 H   0  0  0  0  0  0  0  0  0  0  0  0
   55.0120   28.4016  -22.7146 H   0  0  0  0  0  0  0  0  0  0  0  0
   55.0063   29.4734  -21.3032 H   0  0  0  0  0  0  0  0  0  0  0  0
   54.7724   31.4498  -22.8041 H   0  0  0  0  0  0  0  0  0  0  0  0
   54.7757   30.3787  -24.2160 H   0  0  0  0  0  0  0  0  0  0  0  0
   57.0375   29.5455  -23.5786 H   0  0  0  0  0  0  0  0  0  0  0  0
   57.0341   30.6166  -22.1667 H   0  0  0  0  0  0  0  0  0  0  0  0
   56.7979   32.5937  -23.6681 H   0  0  0  0  0  0  0  0  0  0  0  0
   56.8035   31.5218  -25.0795 H   0  0  0  0  0  0  0  0  0  0  0  0
   59.0653   30.6908  -24.4393 H   0  0  0  0  0  0  0  0  0  0  0  0
   59.0596   31.7626  -23.0279 H   0  0  0  0  0  0  0  0  0  0  0  0
   58.8245   33.7389  -24.5297 H   0  0  0  0  0  0  0  0  0  0  0  0
   58.8302   32.6670  -25.9411 H   0  0  0  0  0  0  0  0  0  0  0  0
   61.0920   31.8360  -25.3008 H   0  0  0  0  0  0  0  0  0  0  0  0
   61.0863   32.9078  -23.8894 H   0  0  0  0  0  0  0  0  0  0  0  0
   60.8512   34.8841  -25.3912 H   0  0  0  0  0  0  0  0  0  0  0  0
   60.8569   33.8122  -26.8026 H   0  0  0  0  0  0  0  0  0  0  0  0
   63.1186   32.9812  -26.1624 H   0  0  0  0  0  0  0  0  0  0  0  0
   63.1130   34.0530  -24.7510 H   0  0  0  0  0  0  0  0  0  0  0  0
   62.8778   36.0293  -26.2528 H   0  0  0  0  0  0  0  0  0  0  0  0
   62.8835   34.9574  -27.6641 H   0  0  0  0  0  0  0  0  0  0  0  0
   65.1453   34.1263  -27.0239 H   0  0  0  0  0  0  0  0  0  0  0  0
   65.1396   35.1982  -25.6125 H   0  0  0  0  0  0  0  0  0  0  0  0
   64.9045   37.1745  -27.1143 H   0  0  0  0  0  0  0  0  0  0  0  0
   64.9102   36.1026  -28.5257 H   0  0  0  0  0  0  0  0  0  0  0  0
   67.1719   35.2715  -27.8854 H   0  0  0  0  0  0  0  0  0  0  0  0
   67.1663   36.3434  -26.4741 H   0  0  0  0  0  0  0  0  0  0  0  0
   66.9323   38.3197  -27.9750 H   0  0  0  0  0  0  0  0  0  0  0  0
   66.9357   37.2486  -29.3869 H   0  0  0  0  0  0  0  0  0  0  0  0
   69.1974   36.4154  -28.7494 H   0  0  0  0  0  0  0  0  0  0  0  0
   69.1941   37.4866  -27.3375 H   0  0  0  0  0  0  0  0  0  0  0  0
   68.9590   39.4637  -28.8381 H   0  0  0  0  0  0  0  0  0  0  0  0
   68.9623   38.3925  -30.2500 H   0  0  0  0  0  0  0  0  0  0  0  0
   71.2241   37.5594  -29.6126 H   0  0  0  0  0  0  0  0  0  0  0  0
   71.2208   38.6305  -28.2007 H   0  0  0  0  0  0  0  0  0  0  0  0
   70.9857   40.6077  -29.7013 H   0  0  0  0  0  0  0  0  0  0  0  0
   70.9890   39.5365  -31.1132 H   0  0  0  0  0  0  0  0  0  0  0  0
   73.2507   38.7033  -30.4757 H   0  0  0  0  0  0  0  0  0  0  0  0
   73.2475   39.7745  -29.0638 H   0  0  0  0  0  0  0  0  0  0  0  0
   73.0135   41.7518  -30.5636 H   0  0  0  0  0  0  0  0  0  0  0  0
   73.0145   40.6813  -31.9760 H   0  0  0  0  0  0  0  0  0  0  0  0
   75.2762   39.8460  -31.3413 H   0  0  0  0  0  0  0  0  0  0  0  0
   75.2753   40.9165  -29.9289 H   0  0  0  0  0  0  0  0  0  0  0  0
   75.0402   42.8945  -31.4283 H   0  0  0  0  0  0  0  0  0  0  0  0
   75.0412   41.8240  -32.8407 H   0  0  0  0  0  0  0  0  0  0  0  0
   77.3030   40.9880  -32.2047 H   0  0  0  0  0  0  0  0  0  0  0  0
   77.3020   42.0605  -30.7936 H   0  0  0  0  0  0  0  0  0  0  0  0
   77.0683   44.0362  -32.2950 H   0  0  0  0  0  0  0  0  0  0  0  0
   77.0670   42.9647  -33.7061 H   0  0  0  0  0  0  0  0  0  0  0  0
   79.3346   42.1333  -33.0775 H   0  0  0  0  0  0  0  0  0  0  0  0
   79.3360   43.2054  -31.6657 H   0  0  0  0  0  0  0  0  0  0  0  0
   79.1113   44.1077  -34.5794 H   0  0  0  0  0  0  0  0  0  0  0  0
   80.5604   44.2294  -33.5575 H   0  0  0  0  0  0  0  0  0  0  0  0
   79.1127   45.1825  -33.1641 H   0  0  0  0  0  0  0  0  0  0  0  0
  1  2  1  0  0  0  0
  1 82  1  0  0  0  0
  1 83  1  0  0  0  0
  1 84  1  0  0  0  0
  2  3  1  0  0  0  0
  2 85  1  0  0  0  0
  2 86  1  0  0  0  0
  3  4  1  0  0  0  0
  3 87  1  0  0  0  0
  3 88  1  0  0  0  0
  4  5  1  0  0  0  0
  4 89  1  0  0  0  0
  4 90  1  0  0  0  0
  5  6  1  0  0  0  0
  5 91  1  0  0  0  0
  5 92  1  0  0  0  0
  6  7  1  0  0  0  0
  6 93  1  0  0  0  0
  6 94  1  0  0  0  0
  7  8  1  0  0  0  0
  7 95  1  0  0  0  0
  8  9  1  0  0  0  0
  8 96  1  0  0  0  0
  9 10  1  0  0  0  0
  9 97  1  0  0  0  0
 10 11  1  0  0  0  0
 10 98  1  0  0  0  0
 11 12  1  0  0  0  0
 11 99  1  0  0  0  0
 12 13  1  0  0  0  0
 12100  1  0  0  0  0
 13 14  1  0  0  0  0
 13101  1  0  0  0  0
 14 15  1  0  0  0  0
 14102  1  0  0  0  0
 15 16  1  0  0  0  0
 15103  1  0  0  0  0
 16 17  1  0  0  0  0
 16104  1  0  0  0  0
 17 18  1  0  0  0  0
 17105  1  0  0  0  0
 18 19  1  0  0  0  0
 18106  1  0  0  0  0
 19 20  1  0  0  0  0
 19107  1  0  0  0  0
 20 21  1  0  0  0  0
 20108  1  0  0  0  0
 21 22  1  0  0  0  0
 21109  1  0  0  0  0
 22 23  1  0  0  0  0
 22110  1  0  0  0  0
 23 24  1  0  0  0  0
 23111  1  0  0  0  0
 24 25  1  0  0  0  0
 24112  1  0  0  0  0
 25 26  1  0  0  0  0
 25113  1  0  0  0  0
 26 27  1  0  0  0  0
 26114  1  0  0  0  0
 27 28  1  0  0  0  0
 27115  1  0  0  0  0
 28 29  1  0  0  0  0
 28116  1  0  0  0  0
 29 30  1  0  0  0  0
 29117  1  0  0  0  0
 30 31  1  0  0  0  0
 30118  1  0  0  0  0
 31 32  1  0  0  0  0
 31119  1  0  0  0  0
 32 33  1  0  0  0  0
 32120  1  0  0  0  0
 33 34  1  0  0  0  0
 33121  1  0  0  0  0
 34 35  1  0  0  0  0
 34122  1  0  0  0  0
 35 36  1  0  0  0  0
 35123  1  0  0  0  0
 36 37  1  0  0  0  0
 36124  1  0  0  0  0
 37 38  1  0  0  0  0
 37125  1  0  0  0  0
 38 39  1  0  0  0  0
 38126  1  0  0  0  0
 39 40  1  0  0  0  0
 39127  1  0  0  0  0
 40 41  1  0  0  0  0
 40128  1  0  0  0  0
 41 42  1  0  0  0  0
 41129  1  0  0  0  0
 42 43  1  0  0  0  0
 42130  1  0  0  0  0
 43 44  1  0  0  0  0
 43131  1  0  0  0  0
 44 45  1  0  0  0  0
 44132  1  0  0  0  0
 45 46  1  0  0  0  0
 45133  1  0  0  0  0
 45134  1  0  0  0  0
 46 47  1  0  0  0  0
 46135  1  0  0  0  0
 47 48  1  0  0  0  0
 47136  1  0  0  0  0
 47137  1  0  0  0  0
 48 49  1  0  0  0  0
 48138  1  0  0  0  0
 48139  1  0  0  0  0
 49 50  1  0  0  0  0
 49140  1  0  0  0  0
 49141  1  0  0  0  0
 50 51  1  0  0  0  0
 50142  1  0  0  0  0
 50143  1  0  0  0  0
 51 52  1  0  0  0  0
 51144  1  0  0  0  0
 51145  1  0  0  0  0
 52 53  1  0  0  0  0
 52146  1  0  0  0  0
 52147  1  0  0  0  0
 53 54  1  0  0  0  0
 53148  1  0  0  0  0
 53149  1  0  0  0  0
 54 55  1  0  0  0  0
 54150  1  0  0  0  0
 54151  1  0  0  0  0
 55 56  1  0  0  0  0
 55152  1  0  0  0  0
 55153  1  0  0  0  0
 56 57  1  0  0  0  0
 56154  1  0  0  0  0
 56155  1  0  0  0  0
 57 58  1  0  0  0  0
 57156  1  0  0  0  0
 57157  1  0  0  0  0
 58 59  1  0  0  0  0
 58158  1  0  0  0  0
 58159  1  0  0  0  0
 59 60  1  0  0  0  0
 59160  1  0  0  0  0
 59161  1  0  0  0  0
 60 61  1  0  0  0  0
 60162  1  0  0  0  0
 60163  1  0  0  0  0
 61 62  1  0  0  0  0
 61164  1  0  0  0  0
 61165  1  0  0  0  0
 62 63  1  0  0  0  0
 62166  1  0  0  0  0
 62167  1  0  0  0  0
 63 64  1  0  0  0  0
 63168  1  0  0  0  0
 63169  1  0  0  0  0
 64 65  1  0  0  0  0
 64170  1  0  0  0  0
 64171  1  0  0  0  0
 65 66  1  0  0  0  0
 65172  1  0  0  0  0
 65173  1  0  0  0  0
 66 67  1  0  0  0  0
 66174  1  0  0  0  0
 66175  1  0  0  0  0
 67 68  1  0  0  0  0
 67176  1  0  0  0  0
 67177  1  0  0  0  0
 68 69  1  0  0  0  0
 68178  1  0  0  0  0
 68179  1  0  0  0  0
 69 70  1  0  0  0  0
 69180  1  0  0  0  0
 69181  1  0  0  0  0
 70 71  1  0  0  0  0
 70182  1  0  0  0  0
 70183  1  0  0  0  0
 71 72  1  0  0  0  0
 71184  1  0  0  0  0
 71185  1  0  0  0  0
 72 73  1  0  0  0  0
 72186  1  0  0  0  0
 72187  1  0  0  0  0
 73 74  1  0  0  0  0
 73188  1  0  0  0  0
 73189  1  0  0  0  0
 74 75  1  0  0  0  0
 74190  1  0  0  0  0
 74191  1  0  0  0  0
 75 76  1  0  0  0  0
 75192  1  0  0  0  0
 75193  1  0  0  0  0
 76 77  1  0  0  0  0
 76194  1  0  0  0  0
 76195  1  0  0  0  0
 77 78  1  0  0  0  0
 77196  1  0  0  0  0
 77197  1  0  0  0  0
 78 79  1  0  0  0  0
 78198  1  0  0  0  0
 78199  1  0  0  0  0
 79 80  1  0  0  0  0
 79200  1  0  0  0  0
 79201  1  0  0  0  0
 80 81  1  0  0  0  0
 80202  1  0  0  0  0
 80203  1  0  0  0  0
 81204  1  0  0  0  0
 81205  1  0  0  0  0
 81206  1  0  0  0  0
M  END
$$$$
