
 OpenBabel04232216443D

 42 44  0  0  0  0  0  0  0  0999 V2000
    3.9543    1.7442    0.0400 C   0  0  0  0  0  0  0  0  0  0  0  0
    4.5808    1.7767   -1.3529 C   0  0  0  0  0  0  0  0  0  0  0  0
    3.8272    1.1176   -2.2765 C   0  0  0  0  0  0  0  0  0  0  0  0
    2.3303    1.3761   -2.4680 C   0  0  0  0  0  0  0  0  0  0  0  0
    4.0761   -0.3580   -2.4205 C   0  0  0  0  0  0  0  0  0  0  0  0
    5.0107   -0.6825   -3.3277 C   0  0  0  0  0  0  0  0  0  0  0  0
    4.6798   -0.0276   -4.7272 C   0  0  0  0  0  0  0  0  0  0  0  0
    6.4024   -0.7860   -2.9528 N   0  0  0  0  0  0  0  0  0  0  0  0
    6.8343   -0.7126   -1.4913 C   0  0  0  0  0  0  0  0  0  0  0  0
    7.0396   -1.9490   -0.6436 C   0  0  0  0  0  0  0  0  0  0  0  0
    6.7399   -3.3197   -0.6105 C   0  0  0  0  0  0  0  0  0  0  0  0
    6.0004   -4.2041   -1.4969 C   0  0  0  0  0  0  0  0  0  0  0  0
    7.2899   -3.4810    0.5513 N   0  0  0  0  0  0  0  0  0  0  0  0
    7.6157   -2.1089    0.5640 C   0  0  0  0  0  0  0  0  0  0  0  0
    7.1421    0.0518   -3.7839 C   0  0  0  0  0  0  0  0  0  0  0  0
    7.0329    1.3668   -3.5611 C   0  0  0  0  0  0  0  0  0  0  0  0
    7.5051    2.6195   -4.1203 C   0  0  0  0  0  0  0  0  0  0  0  0
    8.0714    2.7837   -2.8742 C   0  0  0  0  0  0  0  0  0  0  0  0
    9.6022    2.3743   -2.8247 C   0  0  0  0  0  0  0  0  0  0  0  0
    6.7559    2.1631   -2.3911 C   0  0  0  0  0  0  0  0  0  0  0  0
    5.8707    2.3555   -1.4505 N   0  0  0  0  0  0  0  0  0  0  0  0
    2.8877    2.0028    0.0256 H   0  0  0  0  0  0  0  0  0  0  0  0
    4.4434    2.4083    0.7507 H   0  0  0  0  0  0  0  0  0  0  0  0
    4.0190    0.7176    0.4321 H   0  0  0  0  0  0  0  0  0  0  0  0
    1.7256    1.0323   -1.6222 H   0  0  0  0  0  0  0  0  0  0  0  0
    1.9527    0.8520   -3.3588 H   0  0  0  0  0  0  0  0  0  0  0  0
    2.1349    2.4379   -2.6489 H   0  0  0  0  0  0  0  0  0  0  0  0
    3.1202   -0.8636   -2.5943 H   0  0  0  0  0  0  0  0  0  0  0  0
    3.6123   -0.0684   -4.9613 H   0  0  0  0  0  0  0  0  0  0  0  0
    5.2372   -0.4759   -5.5515 H   0  0  0  0  0  0  0  0  0  0  0  0
    4.9101    1.0529   -4.7278 H   0  0  0  0  0  0  0  0  0  0  0  0
    6.1795   -0.0792   -0.8983 H   0  0  0  0  0  0  0  0  0  0  0  0
    7.7876   -0.1661   -1.4035 H   0  0  0  0  0  0  0  0  0  0  0  0
    5.9083   -3.7512   -2.4875 H   0  0  0  0  0  0  0  0  0  0  0  0
    5.0049   -4.3778   -1.0792 H   0  0  0  0  0  0  0  0  0  0  0  0
    6.5248   -5.1611   -1.5747 H   0  0  0  0  0  0  0  0  0  0  0  0
    8.1155   -1.4651    1.2956 H   0  0  0  0  0  0  0  0  0  0  0  0
    7.5403   -0.3802   -4.6832 H   0  0  0  0  0  0  0  0  0  0  0  0
    7.8981    2.7327   -5.1271 H   0  0  0  0  0  0  0  0  0  0  0  0
    9.9660    2.2903   -3.8662 H   0  0  0  0  0  0  0  0  0  0  0  0
    9.7342    1.3802   -2.3809 H   0  0  0  0  0  0  0  0  0  0  0  0
   10.2392    3.1056   -2.3332 H   0  0  0  0  0  0  0  0  0  0  0  0
  1  2  1  0  0  0  0
  1 22  1  0  0  0  0
  1 23  1  0  0  0  0
  1 24  1  0  0  0  0
  2  3  2  0  0  0  0
  2 21  1  0  0  0  0
  3  4  1  0  0  0  0
  3  5  1  0  0  0  0
  4 25  1  0  0  0  0
  4 26  1  0  0  0  0
  4 27  1  0  0  0  0
  5  6  2  0  0  0  0
  5 28  1  0  0  0  0
  6  7  1  0  0  0  0
  6  8  1  0  0  0  0
  7 29  1  0  0  0  0
  7 30  1  0  0  0  0
  7 31  1  0  0  0  0
  8  9  1  0  0  0  0
  8 15  1  0  0  0  0
  9 10  1  0  0  0  0
  9 32  1  0  0  0  0
  9 33  1  0  0  0  0
 10 11  1  0  0  0  0
 10 14  2  0  0  0  0
 11 12  1  0  0  0  0
 11 13  2  0  0  0  0
 12 34  1  0  0  0  0
 12 35  1  0  0  0  0
 12 36  1  0  0  0  0
 13 14  1  0  0  0  0
 14 37  1  0  0  0  0
 15 16  2  0  0  0  0
 15 38  1  0  0  0  0
 16 17  1  0  0  0  0
 16 20  1  0  0  0  0
 17 18  2  0  0  0  0
 17 39  1  0  0  0  0
 18 19  1  0  0  0  0
 18 20  1  0  0  0  0
 19 40  1  0  0  0  0
 19 41  1  0  0  0  0
 19 42  1  0  0  0  0
 20 21  2  0  0  0  0
M  END
$$$$
