
 OpenBabel04232216473D

197197  0  0  1  0  0  0  0  0999 V2000
    3.3775    0.5078    7.8257 C   0  0  0  0  0  0  0  0  0  0  0  0
    3.3030    1.0141    6.4290 C   0  0  3  0  0  0  0  0  0  0  0  0
    2.1367    1.3369    5.8374 C   0  0  0  0  0  0  0  0  0  0  0  0
    2.4116    0.1348    5.3483 C   0  0  0  0  0  0  0  0  0  0  0  0
    3.1855   -0.9715    5.2723 O   0  0  0  0  0  0  0  0  0  0  0  0
    2.7131   -1.9918    4.3820 C   0  0  0  0  0  0  0  0  0  0  0  0
    3.2428   -3.3705    4.8472 C   0  0  0  0  0  0  0  0  0  0  0  0
    2.7890   -4.5390    3.9492 C   0  0  0  0  0  0  0  0  0  0  0  0
    3.2865   -5.9262    4.4019 C   0  0  0  0  0  0  0  0  0  0  0  0
    2.7904   -6.3101    5.7952 C   0  0  0  0  0  0  0  0  0  0  0  0
    3.2901   -7.6885    6.2158 C   0  0  0  0  0  0  0  0  0  0  0  0
    2.7927   -8.0304    7.6158 C   0  0  0  0  0  0  0  0  0  0  0  0
    3.2941   -9.4029    8.0373 C   0  0  0  0  0  0  0  0  0  0  0  0
    2.7953   -9.7407    9.4322 C   0  0  0  0  0  0  0  0  0  0  0  0
    3.2984  -11.1121    9.8472 C   0  0  0  0  0  0  0  0  0  0  0  0
    2.7983  -11.4463   11.2406 C   0  0  0  0  0  0  0  0  0  0  0  0
    3.3028  -12.8159   11.6557 C   0  0  0  0  0  0  0  0  0  0  0  0
    2.8034  -13.1509   13.0488 C   0  0  0  0  0  0  0  0  0  0  0  0
    3.3068  -14.5209   13.4630 C   0  0  0  0  0  0  0  0  0  0  0  0
    2.8079  -14.8542   14.8564 C   0  0  0  0  0  0  0  0  0  0  0  0
    3.3126  -16.2234   15.2707 C   0  0  0  0  0  0  0  0  0  0  0  0
    2.8127  -16.5573   16.6633 C   0  0  0  0  0  0  0  0  0  0  0  0
    3.3176  -17.9264   17.0772 C   0  0  0  0  0  0  0  0  0  0  0  0
    2.8176  -18.2601   18.4697 C   0  0  0  0  0  0  0  0  0  0  0  0
    3.3226  -19.6292   18.8835 C   0  0  0  0  0  0  0  0  0  0  0  0
    2.8226  -19.9629   20.2760 C   0  0  0  0  0  0  0  0  0  0  0  0
    3.3259  -21.3327   20.6890 C   0  0  0  0  0  0  0  0  0  0  0  0
    2.8260  -21.6665   22.0814 C   0  0  0  0  0  0  0  0  0  0  0  0
    3.3308  -23.0355   22.4952 C   0  0  0  0  0  0  0  0  0  0  0  0
    2.8292  -23.3700   23.8870 C   0  0  0  0  0  0  0  0  0  0  0  0
    3.3341  -24.7390   24.3009 C   0  0  0  0  0  0  0  0  0  0  0  0
    2.8308  -25.0744   25.6918 C   0  0  0  0  0  0  0  0  0  0  0  0
    3.3341  -26.4443   26.1048 C   0  0  0  0  0  0  0  0  0  0  0  0
    2.8308  -26.7798   27.4957 C   0  0  0  0  0  0  0  0  0  0  0  0
    3.3342  -28.1497   27.9084 C   0  0  0  0  0  0  0  0  0  0  0  0
    2.8310  -28.4852   29.2993 C   0  0  0  0  0  0  0  0  0  0  0  0
    3.3343  -29.8552   29.7125 C   0  0  0  0  0  0  0  0  0  0  0  0
    2.8321  -30.1908   31.1036 C   0  0  0  0  0  0  0  0  0  0  0  0
    3.3402  -31.5485   31.5247 C   0  0  0  0  0  0  0  0  0  0  0  0
    2.8314  -31.8983   32.9157 C   0  0  0  0  0  0  0  0  0  0  0  0
    3.3363  -33.2640   33.3273 C   0  0  0  0  0  0  0  0  0  0  0  0
    2.8443  -33.6124   34.7173 C   0  0  0  0  0  0  0  0  0  0  0  0
    3.3638  -34.9788   35.1042 C   0  0  0  0  0  0  0  0  0  0  0  0
    2.9081  -35.2778   36.4116 O   0  0  0  0  0  0  0  0  0  0  0  0
    3.3536  -36.5676   36.7983 C   0  0  0  0  0  0  0  0  0  0  0  0
    2.8699  -36.8953   38.0863 O   0  0  0  0  0  0  0  0  0  0  0  0
    1.4479  -36.8501   38.0945 C   0  0  0  0  0  0  0  0  0  0  0  0
    0.9247  -37.1422   39.3872 O   0  0  0  0  0  0  0  0  0  0  0  0
    1.3960  -36.1874   40.3351 C   0  0  0  0  0  0  0  0  0  0  0  0
    0.9172  -36.4839   41.6432 O   0  0  0  0  0  0  0  0  0  0  0  0
    1.3579  -37.7740   42.0464 C   0  0  0  0  0  0  0  0  0  0  0  0
    0.8478  -38.0963   43.3275 O   0  0  0  0  0  0  0  0  0  0  0  0
   -0.5747  -38.0442   43.3057 C   0  0  0  0  0  0  0  0  0  0  0  0
   -1.1206  -38.3223   44.5947 O   0  0  0  0  0  0  0  0  0  0  0  0
   -0.6579  -37.3550   45.5279 C   0  0  0  0  0  0  0  0  0  0  0  0
   -1.1567  -37.6498   46.8224 O   0  0  0  0  0  0  0  0  0  0  0  0
   -0.7491  -38.9603   47.1996 C   0  0  0  0  0  0  0  0  0  0  0  0
   -1.2793  -39.3114   48.4732 O   0  0  0  0  0  0  0  0  0  0  0  0
   -2.6977  -39.2844   48.4129 C   0  0  0  0  0  0  0  0  0  0  0  0
   -3.2355  -39.5857   49.6851 O   0  0  0  0  0  0  0  0  0  0  0  0
   -2.7636  -38.6466   50.6460 C   0  0  0  0  0  0  0  0  0  0  0  0
   -3.2455  -38.9516   51.9458 O   0  0  0  0  0  0  0  0  0  0  0  0
   -2.8153  -40.2546   52.3291 C   0  0  0  0  0  0  0  0  0  0  0  0
   -3.3273  -40.6017   53.6030 O   0  0  0  0  0  0  0  0  0  0  0  0
   -4.7490  -40.5634   53.5815 C   0  0  0  0  0  0  0  0  0  0  0  0
   -5.2757  -40.8526   54.8590 O   0  0  0  0  0  0  0  0  0  0  0  0
   -4.8199  -39.9097   55.8292 C   0  0  0  0  0  0  0  0  0  0  0  0
   -5.2955  -40.2276   57.1204 O   0  0  0  0  0  0  0  0  0  0  0  0
   -4.8525  -41.5217   57.5130 C   0  0  0  0  0  0  0  0  0  0  0  0
   -5.3643  -41.8509   58.7843 O   0  0  0  0  0  0  0  0  0  0  0  0
   -6.7826  -41.8120   58.7452 C   0  0  0  0  0  0  0  0  0  0  0  0
   -7.3118  -42.1160   60.0160 O   0  0  0  0  0  0  0  0  0  0  0  0
   -6.8521  -41.1671   60.9713 C   0  0  0  0  0  0  0  0  0  0  0  0
   -7.3754  -41.4655   62.2603 O   0  0  0  0  0  0  0  0  0  0  0  0
   -6.9185  -42.7448   62.6867 C   0  0  0  0  0  0  0  0  0  0  0  0
   -7.4397  -43.0595   63.9700 O   0  0  0  0  0  0  0  0  0  0  0  0
   -6.9543  -44.3274   64.4047 C   0  0  0  0  0  0  0  0  0  0  0  0
   -5.5310  -44.3996   64.4999 O   0  0  0  0  0  0  0  0  0  0  0  0
   -5.0270  -43.4115   65.3905 C   0  0  0  0  0  0  0  0  0  0  0  0
    3.7431    1.2934    8.4963 H   0  0  0  0  0  0  0  0  0  0  0  0
    4.0788   -0.3314    7.8716 H   0  0  0  0  0  0  0  0  0  0  0  0
    2.4076    0.1624    8.2013 H   0  0  0  0  0  0  0  0  0  0  0  0
    4.2382    1.3569    6.0088 H   0  0  0  0  0  0  0  0  0  0  0  0
    1.4585    2.1592    5.8456 H   0  0  0  0  0  0  0  0  0  0  0  0
    3.0951   -1.7803    3.3766 H   0  0  0  0  0  0  0  0  0  0  0  0
    1.6177   -2.0120    4.3555 H   0  0  0  0  0  0  0  0  0  0  0  0
    2.9039   -3.5363    5.8760 H   0  0  0  0  0  0  0  0  0  0  0  0
    4.3398   -3.3568    4.8975 H   0  0  0  0  0  0  0  0  0  0  0  0
    3.1466   -4.3710    2.9257 H   0  0  0  0  0  0  0  0  0  0  0  0
    1.6940   -4.5632    3.9017 H   0  0  0  0  0  0  0  0  0  0  0  0
    4.3826   -5.9590    4.3753 H   0  0  0  0  0  0  0  0  0  0  0  0
    2.9392   -6.6825    3.6836 H   0  0  0  0  0  0  0  0  0  0  0  0
    1.6938   -6.2959    5.8132 H   0  0  0  0  0  0  0  0  0  0  0  0
    3.1403   -5.5788    6.5304 H   0  0  0  0  0  0  0  0  0  0  0  0
    4.3868   -7.7073    6.2035 H   0  0  0  0  0  0  0  0  0  0  0  0
    2.9427   -8.4484    5.5059 H   0  0  0  0  0  0  0  0  0  0  0  0
    1.6962   -8.0156    7.6377 H   0  0  0  0  0  0  0  0  0  0  0  0
    3.1400   -7.2758    8.3326 H   0  0  0  0  0  0  0  0  0  0  0  0
    4.3908   -9.4216    8.0218 H   0  0  0  0  0  0  0  0  0  0  0  0
    2.9469  -10.1623    7.3260 H   0  0  0  0  0  0  0  0  0  0  0  0
    1.6984   -9.7259    9.4516 H   0  0  0  0  0  0  0  0  0  0  0  0
    3.1430   -8.9852   10.1477 H   0  0  0  0  0  0  0  0  0  0  0  0
    4.3953  -11.1300    9.8303 H   0  0  0  0  0  0  0  0  0  0  0  0
    2.9512  -11.8705    9.1344 H   0  0  0  0  0  0  0  0  0  0  0  0
    1.7015  -11.4309   11.2581 H   0  0  0  0  0  0  0  0  0  0  0  0
    3.1445  -10.6885   11.9542 H   0  0  0  0  0  0  0  0  0  0  0  0
    4.3995  -12.8311   11.6381 H   0  0  0  0  0  0  0  0  0  0  0  0
    2.9565  -13.5737   10.9421 H   0  0  0  0  0  0  0  0  0  0  0  0
    1.7066  -13.1349   13.0668 H   0  0  0  0  0  0  0  0  0  0  0  0
    3.1508  -12.3938   13.7627 H   0  0  0  0  0  0  0  0  0  0  0  0
    4.4036  -14.5379   13.4446 H   0  0  0  0  0  0  0  0  0  0  0  0
    2.9583  -15.2786   12.7504 H   0  0  0  0  0  0  0  0  0  0  0  0
    1.7111  -14.8386   14.8748 H   0  0  0  0  0  0  0  0  0  0  0  0
    3.1552  -14.0964   15.5695 H   0  0  0  0  0  0  0  0  0  0  0  0
    4.4093  -16.2387   15.2535 H   0  0  0  0  0  0  0  0  0  0  0  0
    2.9661  -16.9814   14.5574 H   0  0  0  0  0  0  0  0  0  0  0  0
    1.7159  -16.5423   16.6807 H   0  0  0  0  0  0  0  0  0  0  0  0
    3.1591  -15.7995   17.3768 H   0  0  0  0  0  0  0  0  0  0  0  0
    4.4144  -17.9416   17.0600 H   0  0  0  0  0  0  0  0  0  0  0  0
    2.9712  -18.6843   16.3638 H   0  0  0  0  0  0  0  0  0  0  0  0
    1.7209  -18.2450   18.4869 H   0  0  0  0  0  0  0  0  0  0  0  0
    3.1640  -17.5023   19.1832 H   0  0  0  0  0  0  0  0  0  0  0  0
    4.4193  -19.6444   18.8662 H   0  0  0  0  0  0  0  0  0  0  0  0
    2.9761  -20.3870   18.1700 H   0  0  0  0  0  0  0  0  0  0  0  0
    1.7258  -19.9465   20.2936 H   0  0  0  0  0  0  0  0  0  0  0  0
    3.1701  -19.2058   20.9896 H   0  0  0  0  0  0  0  0  0  0  0  0
    4.4227  -21.3492   20.6713 H   0  0  0  0  0  0  0  0  0  0  0  0
    2.9783  -22.0898   19.9753 H   0  0  0  0  0  0  0  0  0  0  0  0
    1.7292  -21.6513   22.0986 H   0  0  0  0  0  0  0  0  0  0  0  0
    3.1724  -20.9087   22.7950 H   0  0  0  0  0  0  0  0  0  0  0  0
    4.4276  -23.0502   22.4793 H   0  0  0  0  0  0  0  0  0  0  0  0
    2.9855  -23.7932   21.7810 H   0  0  0  0  0  0  0  0  0  0  0  0
    1.7325  -23.3553   23.9027 H   0  0  0  0  0  0  0  0  0  0  0  0
    3.1745  -22.6124   24.6012 H   0  0  0  0  0  0  0  0  0  0  0  0
    4.4309  -24.7534   24.2864 H   0  0  0  0  0  0  0  0  0  0  0  0
    2.9899  -25.4965   23.5859 H   0  0  0  0  0  0  0  0  0  0  0  0
    1.7340  -25.0588   25.7067 H   0  0  0  0  0  0  0  0  0  0  0  0
    3.1760  -24.3177   26.4071 H   0  0  0  0  0  0  0  0  0  0  0  0
    4.4309  -26.4600   26.0900 H   0  0  0  0  0  0  0  0  0  0  0  0
    2.9889  -27.2010   25.3895 H   0  0  0  0  0  0  0  0  0  0  0  0
    1.7340  -26.7641   27.5106 H   0  0  0  0  0  0  0  0  0  0  0  0
    3.1760  -26.0231   28.2111 H   0  0  0  0  0  0  0  0  0  0  0  0
    4.4310  -28.1653   27.8935 H   0  0  0  0  0  0  0  0  0  0  0  0
    2.9890  -28.9062   27.1930 H   0  0  0  0  0  0  0  0  0  0  0  0
    1.7343  -28.4694   29.3141 H   0  0  0  0  0  0  0  0  0  0  0  0
    3.1762  -27.7285   30.0145 H   0  0  0  0  0  0  0  0  0  0  0  0
    4.4311  -29.8708   29.6975 H   0  0  0  0  0  0  0  0  0  0  0  0
    2.9891  -30.6118   28.9971 H   0  0  0  0  0  0  0  0  0  0  0  0
    1.7339  -30.1739   31.1181 H   0  0  0  0  0  0  0  0  0  0  0  0
    3.1759  -29.4329   31.8183 H   0  0  0  0  0  0  0  0  0  0  0  0
    4.4299  -31.5764   31.5032 H   0  0  0  0  0  0  0  0  0  0  0  0
    2.9865  -32.3172   30.8048 H   0  0  0  0  0  0  0  0  0  0  0  0
    1.7332  -31.8802   32.9304 H   0  0  0  0  0  0  0  0  0  0  0  0
    3.1751  -31.1363   33.6277 H   0  0  0  0  0  0  0  0  0  0  0  0
    4.4335  -33.2728   33.3042 H   0  0  0  0  0  0  0  0  0  0  0  0
    2.9876  -34.0180   32.6097 H   0  0  0  0  0  0  0  0  0  0  0  0
    1.7492  -33.6048   34.7580 H   0  0  0  0  0  0  0  0  0  0  0  0
    3.1800  -32.8684   35.4525 H   0  0  0  0  0  0  0  0  0  0  0  0
    4.4593  -34.9814   35.0945 H   0  0  0  0  0  0  0  0  0  0  0  0
    2.9953  -35.7329   34.3990 H   0  0  0  0  0  0  0  0  0  0  0  0
    4.4467  -36.5795   36.8311 H   0  0  0  0  0  0  0  0  0  0  0  0
    3.0040  -37.3244   36.0873 H   0  0  0  0  0  0  0  0  0  0  0  0
    1.0621  -37.6084   37.4065 H   0  0  0  0  0  0  0  0  0  0  0  0
    1.0670  -35.8679   37.7934 H   0  0  0  0  0  0  0  0  0  0  0  0
    1.0375  -35.1907   40.0599 H   0  0  0  0  0  0  0  0  0  0  0  0
    2.4918  -36.1725   40.3708 H   0  0  0  0  0  0  0  0  0  0  0  0
    2.4505  -37.7938   42.0947 H   0  0  0  0  0  0  0  0  0  0  0  0
    1.0177  -38.5438   41.3443 H   0  0  0  0  0  0  0  0  0  0  0  0
   -0.9528  -38.8044   42.6151 H   0  0  0  0  0  0  0  0  0  0  0  0
   -0.9444  -37.0621   42.9886 H   0  0  0  0  0  0  0  0  0  0  0  0
   -1.0094  -36.3597   45.2413 H   0  0  0  0  0  0  0  0  0  0  0  0
    0.4366  -37.3480   45.5850 H   0  0  0  0  0  0  0  0  0  0  0  0
    0.3419  -38.9890   47.2763 H   0  0  0  0  0  0  0  0  0  0  0  0
   -1.0751  -39.7204   46.4803 H   0  0  0  0  0  0  0  0  0  0  0  0
   -3.0567  -40.0330   47.7008 H   0  0  0  0  0  0  0  0  0  0  0  0
   -3.0701  -38.2972   48.1162 H   0  0  0  0  0  0  0  0  0  0  0  0
   -3.1217  -37.6473   50.3816 H   0  0  0  0  0  0  0  0  0  0  0  0
   -1.6688  -38.6305   50.6944 H   0  0  0  0  0  0  0  0  0  0  0  0
   -1.7230  -40.2751   52.3872 H   0  0  0  0  0  0  0  0  0  0  0  0
   -3.1493  -41.0145   51.6138 H   0  0  0  0  0  0  0  0  0  0  0  0
   -5.1229  -41.3151   52.8793 H   0  0  0  0  0  0  0  0  0  0  0  0
   -5.1229  -39.5787   53.2779 H   0  0  0  0  0  0  0  0  0  0  0  0
   -5.1777  -38.9116   55.5581 H   0  0  0  0  0  0  0  0  0  0  0  0
   -3.7238  -39.8887   55.8640 H   0  0  0  0  0  0  0  0  0  0  0  0
   -3.7593  -41.5347   57.5597 H   0  0  0  0  0  0  0  0  0  0  0  0
   -5.1832  -42.2819   56.7953 H   0  0  0  0  0  0  0  0  0  0  0  0
   -7.1474  -42.5667   58.0410 H   0  0  0  0  0  0  0  0  0  0  0  0
   -7.1591  -40.8299   58.4384 H   0  0  0  0  0  0  0  0  0  0  0  0
   -7.2010  -40.1681   60.6937 H   0  0  0  0  0  0  0  0  0  0  0  0
   -5.7552  -41.1502   61.0286 H   0  0  0  0  0  0  0  0  0  0  0  0
   -5.8214  -42.7389   62.7076 H   0  0  0  0  0  0  0  0  0  0  0  0
   -7.2603  -43.5123   61.9834 H   0  0  0  0  0  0  0  0  0  0  0  0
   -7.3032  -45.1024   63.7129 H   0  0  0  0  0  0  0  0  0  0  0  0
   -7.3857  -44.5442   65.3868 H   0  0  0  0  0  0  0  0  0  0  0  0
   -3.9370  -43.4690   65.3912 H   0  0  0  0  0  0  0  0  0  0  0  0
   -5.4064  -43.6000   66.3973 H   0  0  0  0  0  0  0  0  0  0  0  0
   -5.3129  -42.4042   65.0701 H   0  0  0  0  0  0  0  0  0  0  0  0
  1  2  1  0  0  0  0
  1 80  1  0  0  0  0
  1 81  1  0  0  0  0
  1 82  1  0  0  0  0
  2  3  1  0  0  0  0
  2  4  1  0  0  0  0
  2 83  1  0  0  0  0
  3  4  2  0  0  0  0
  3 84  1  0  0  0  0
  4  5  1  0  0  0  0
  5  6  1  0  0  0  0
  6  7  1  0  0  0  0
  6 85  1  0  0  0  0
  6 86  1  0  0  0  0
  7  8  1  0  0  0  0
  7 87  1  0  0  0  0
  7 88  1  0  0  0  0
  8  9  1  0  0  0  0
  8 89  1  0  0  0  0
  8 90  1  0  0  0  0
  9 10  1  0  0  0  0
  9 91  1  0  0  0  0
  9 92  1  0  0  0  0
 10 11  1  0  0  0  0
 10 93  1  0  0  0  0
 10 94  1  0  0  0  0
 11 12  1  0  0  0  0
 11 95  1  0  0  0  0
 11 96  1  0  0  0  0
 12 13  1  0  0  0  0
 12 97  1  0  0  0  0
 12 98  1  0  0  0  0
 13 14  1  0  0  0  0
 13 99  1  0  0  0  0
 13100  1  0  0  0  0
 14 15  1  0  0  0  0
 14101  1  0  0  0  0
 14102  1  0  0  0  0
 15 16  1  0  0  0  0
 15103  1  0  0  0  0
 15104  1  0  0  0  0
 16 17  1  0  0  0  0
 16105  1  0  0  0  0
 16106  1  0  0  0  0
 17 18  1  0  0  0  0
 17107  1  0  0  0  0
 17108  1  0  0  0  0
 18 19  1  0  0  0  0
 18109  1  0  0  0  0
 18110  1  0  0  0  0
 19 20  1  0  0  0  0
 19111  1  0  0  0  0
 19112  1  0  0  0  0
 20 21  1  0  0  0  0
 20113  1  0  0  0  0
 20114  1  0  0  0  0
 21 22  1  0  0  0  0
 21115  1  0  0  0  0
 21116  1  0  0  0  0
 22 23  1  0  0  0  0
 22117  1  0  0  0  0
 22118  1  0  0  0  0
 23 24  1  0  0  0  0
 23119  1  0  0  0  0
 23120  1  0  0  0  0
 24 25  1  0  0  0  0
 24121  1  0  0  0  0
 24122  1  0  0  0  0
 25 26  1  0  0  0  0
 25123  1  0  0  0  0
 25124  1  0  0  0  0
 26 27  1  0  0  0  0
 26125  1  0  0  0  0
 26126  1  0  0  0  0
 27 28  1  0  0  0  0
 27127  1  0  0  0  0
 27128  1  0  0  0  0
 28 29  1  0  0  0  0
 28129  1  0  0  0  0
 28130  1  0  0  0  0
 29 30  1  0  0  0  0
 29131  1  0  0  0  0
 29132  1  0  0  0  0
 30 31  1  0  0  0  0
 30133  1  0  0  0  0
 30134  1  0  0  0  0
 31 32  1  0  0  0  0
 31135  1  0  0  0  0
 31136  1  0  0  0  0
 32 33  1  0  0  0  0
 32137  1  0  0  0  0
 32138  1  0  0  0  0
 33 34  1  0  0  0  0
 33139  1  0  0  0  0
 33140  1  0  0  0  0
 34 35  1  0  0  0  0
 34141  1  0  0  0  0
 34142  1  0  0  0  0
 35 36  1  0  0  0  0
 35143  1  0  0  0  0
 35144  1  0  0  0  0
 36 37  1  0  0  0  0
 36145  1  0  0  0  0
 36146  1  0  0  0  0
 37 38  1  0  0  0  0
 37147  1  0  0  0  0
 37148  1  0  0  0  0
 38 39  1  0  0  0  0
 38149  1  0  0  0  0
 38150  1  0  0  0  0
 39 40  1  0  0  0  0
 39151  1  0  0  0  0
 39152  1  0  0  0  0
 40 41  1  0  0  0  0
 40153  1  0  0  0  0
 40154  1  0  0  0  0
 41 42  1  0  0  0  0
 41155  1  0  0  0  0
 41156  1  0  0  0  0
 42 43  1  0  0  0  0
 42157  1  0  0  0  0
 42158  1  0  0  0  0
 43 44  1  0  0  0  0
 43159  1  0  0  0  0
 43160  1  0  0  0  0
 44 45  1  0  0  0  0
 45 46  1  0  0  0  0
 45161  1  0  0  0  0
 45162  1  0  0  0  0
 46 47  1  0  0  0  0
 47 48  1  0  0  0  0
 47163  1  0  0  0  0
 47164  1  0  0  0  0
 48 49  1  0  0  0  0
 49 50  1  0  0  0  0
 49165  1  0  0  0  0
 49166  1  0  0  0  0
 50 51  1  0  0  0  0
 51 52  1  0  0  0  0
 51167  1  0  0  0  0
 51168  1  0  0  0  0
 52 53  1  0  0  0  0
 53 54  1  0  0  0  0
 53169  1  0  0  0  0
 53170  1  0  0  0  0
 54 55  1  0  0  0  0
 55 56  1  0  0  0  0
 55171  1  0  0  0  0
 55172  1  0  0  0  0
 56 57  1  0  0  0  0
 57 58  1  0  0  0  0
 57173  1  0  0  0  0
 57174  1  0  0  0  0
 58 59  1  0  0  0  0
 59 60  1  0  0  0  0
 59175  1  0  0  0  0
 59176  1  0  0  0  0
 60 61  1  0  0  0  0
 61 62  1  0  0  0  0
 61177  1  0  0  0  0
 61178  1  0  0  0  0
 62 63  1  0  0  0  0
 63 64  1  0  0  0  0
 63179  1  0  0  0  0
 63180  1  0  0  0  0
 64 65  1  0  0  0  0
 65 66  1  0  0  0  0
 65181  1  0  0  0  0
 65182  1  0  0  0  0
 66 67  1  0  0  0  0
 67 68  1  0  0  0  0
 67183  1  0  0  0  0
 67184  1  0  0  0  0
 68 69  1  0  0  0  0
 69 70  1  0  0  0  0
 69185  1  0  0  0  0
 69186  1  0  0  0  0
 70 71  1  0  0  0  0
 71 72  1  0  0  0  0
 71187  1  0  0  0  0
 71188  1  0  0  0  0
 72 73  1  0  0  0  0
 73 74  1  0  0  0  0
 73189  1  0  0  0  0
 73190  1  0  0  0  0
 74 75  1  0  0  0  0
 75 76  1  0  0  0  0
 75191  1  0  0  0  0
 75192  1  0  0  0  0
 76 77  1  0  0  0  0
 77 78  1  0  0  0  0
 77193  1  0  0  0  0
 77194  1  0  0  0  0
 78 79  1  0  0  0  0
 79195  1  0  0  0  0
 79196  1  0  0  0  0
 79197  1  0  0  0  0
M  END
$$$$
