
 OpenBabel04232216553D

 53 55  0  0  0  0  0  0  0  0999 V2000
    0.9792    0.1500   -0.0521 C   0  0  0  0  0  0  0  0  0  0  0  0
    2.4262    0.0843    0.0070 N   0  0  0  0  0  0  0  0  0  0  0  0
    3.2148   -1.0404    0.0341 C   0  0  0  0  0  0  0  0  0  0  0  0
    2.6900   -2.4378   -0.0190 C   0  0  0  0  0  0  0  0  0  0  0  0
    4.5450   -0.6198    0.0845 C   0  0  0  0  0  0  0  0  0  0  0  0
    5.7192   -1.5786    0.0745 C   0  0  0  0  0  0  0  0  0  0  0  0
    6.6317   -1.6063    1.3078 C   0  0  0  0  0  0  0  0  0  0  0  0
    5.9364   -1.9632    2.6226 C   0  0  0  0  0  0  0  0  0  0  0  0
    6.8321   -1.7416    3.8682 C   0  0  0  0  0  0  0  0  0  0  0  0
    6.0219   -1.9780    5.1546 C   0  0  0  0  0  0  0  0  0  0  0  0
    5.8126   -3.4601    5.4527 C   0  0  0  0  0  0  0  0  0  0  0  0
    7.1521   -4.1722    5.5864 C   0  0  0  0  0  0  0  0  0  0  0  0
    7.9901   -4.0117    4.3222 C   0  0  0  0  0  0  0  0  0  0  0  0
    8.1455   -2.5494    3.9037 C   0  0  0  0  0  0  0  0  0  0  0  0
    4.5542    0.8292    0.0575 C   0  0  0  0  0  0  0  0  0  0  0  0
    5.5424    1.8624    0.0459 C   0  0  0  0  0  0  0  0  0  0  0  0
    7.0350    1.6714    0.0885 C   0  0  0  0  0  0  0  0  0  0  0  0
    5.1134    3.2153    0.0222 C   0  0  0  0  0  0  0  0  0  0  0  0
    3.7740    3.5781   -0.0284 C   0  0  0  0  0  0  0  0  0  0  0  0
    3.3603    5.0184   -0.0621 C   0  0  0  0  0  0  0  0  0  0  0  0
    2.8058    2.5758   -0.0376 C   0  0  0  0  0  0  0  0  0  0  0  0
    3.2089    1.2257    0.0067 C   0  0  0  0  0  0  0  0  0  0  0  0
    0.5269   -0.8391   -0.0569 H   0  0  0  0  0  0  0  0  0  0  0  0
    0.6951    0.6734   -0.9693 H   0  0  0  0  0  0  0  0  0  0  0  0
    0.6237    0.6972    0.8266 H   0  0  0  0  0  0  0  0  0  0  0  0
    1.6024   -2.5111   -0.0149 H   0  0  0  0  0  0  0  0  0  0  0  0
    3.0531   -3.0089    0.8396 H   0  0  0  0  0  0  0  0  0  0  0  0
    3.0398   -2.9296   -0.9337 H   0  0  0  0  0  0  0  0  0  0  0  0
    6.3252   -1.3603   -0.8141 H   0  0  0  0  0  0  0  0  0  0  0  0
    5.3509   -2.6010   -0.0810 H   0  0  0  0  0  0  0  0  0  0  0  0
    7.1438   -0.6512    1.4309 H   0  0  0  0  0  0  0  0  0  0  0  0
    7.4125   -2.3522    1.1094 H   0  0  0  0  0  0  0  0  0  0  0  0
    5.5713   -2.9943    2.5761 H   0  0  0  0  0  0  0  0  0  0  0  0
    5.0554   -1.3188    2.7350 H   0  0  0  0  0  0  0  0  0  0  0  0
    7.1162   -0.6798    3.8566 H   0  0  0  0  0  0  0  0  0  0  0  0
    5.0514   -1.4727    5.0924 H   0  0  0  0  0  0  0  0  0  0  0  0
    6.5560   -1.5206    5.9977 H   0  0  0  0  0  0  0  0  0  0  0  0
    5.2236   -3.9306    4.6562 H   0  0  0  0  0  0  0  0  0  0  0  0
    5.2394   -3.5729    6.3784 H   0  0  0  0  0  0  0  0  0  0  0  0
    6.9907   -5.2363    5.7926 H   0  0  0  0  0  0  0  0  0  0  0  0
    7.6980   -3.7625    6.4460 H   0  0  0  0  0  0  0  0  0  0  0  0
    7.5368   -4.5843    3.5058 H   0  0  0  0  0  0  0  0  0  0  0  0
    8.9839   -4.4436    4.4976 H   0  0  0  0  0  0  0  0  0  0  0  0
    8.6714   -2.4998    2.9448 H   0  0  0  0  0  0  0  0  0  0  0  0
    8.8145   -2.0667    4.6296 H   0  0  0  0  0  0  0  0  0  0  0  0
    7.3370    0.6647   -0.1912 H   0  0  0  0  0  0  0  0  0  0  0  0
    7.4056    1.9034    1.0930 H   0  0  0  0  0  0  0  0  0  0  0  0
    7.5212    2.3470   -0.6245 H   0  0  0  0  0  0  0  0  0  0  0  0
    5.8695    4.0009    0.0346 H   0  0  0  0  0  0  0  0  0  0  0  0
    4.2286    5.6854   -0.0750 H   0  0  0  0  0  0  0  0  0  0  0  0
    2.7644    5.2596    0.8237 H   0  0  0  0  0  0  0  0  0  0  0  0
    2.7700    5.2210   -0.9613 H   0  0  0  0  0  0  0  0  0  0  0  0
    1.7527    2.8393   -0.0816 H   0  0  0  0  0  0  0  0  0  0  0  0
  1  2  1  0  0  0  0
  1 23  1  0  0  0  0
  1 24  1  0  0  0  0
  1 25  1  0  0  0  0
  2  3  1  0  0  0  0
  2 22  1  0  0  0  0
  3  4  1  0  0  0  0
  3  5  2  0  0  0  0
  4 26  1  0  0  0  0
  4 27  1  0  0  0  0
  4 28  1  0  0  0  0
  5  6  1  0  0  0  0
  5 15  1  0  0  0  0
  6  7  1  0  0  0  0
  6 29  1  0  0  0  0
  6 30  1  0  0  0  0
  7  8  1  0  0  0  0
  7 31  1  0  0  0  0
  7 32  1  0  0  0  0
  8  9  1  0  0  0  0
  8 33  1  0  0  0  0
  8 34  1  0  0  0  0
  9 10  1  0  0  0  0
  9 14  1  0  0  0  0
  9 35  1  0  0  0  0
 10 11  1  0  0  0  0
 10 36  1  0  0  0  0
 10 37  1  0  0  0  0
 11 12  1  0  0  0  0
 11 38  1  0  0  0  0
 11 39  1  0  0  0  0
 12 13  1  0  0  0  0
 12 40  1  0  0  0  0
 12 41  1  0  0  0  0
 13 14  1  0  0  0  0
 13 42  1  0  0  0  0
 13 43  1  0  0  0  0
 14 44  1  0  0  0  0
 14 45  1  0  0  0  0
 15 16  1  0  0  0  0
 15 22  2  0  0  0  0
 16 17  1  0  0  0  0
 16 18  2  0  0  0  0
 17 46  1  0  0  0  0
 17 47  1  0  0  0  0
 17 48  1  0  0  0  0
 18 19  1  0  0  0  0
 18 49  1  0  0  0  0
 19 20  1  0  0  0  0
 19 21  2  0  0  0  0
 20 50  1  0  0  0  0
 20 51  1  0  0  0  0
 20 52  1  0  0  0  0
 21 22  1  0  0  0  0
 21 53  1  0  0  0  0
M  END
$$$$
