
 OpenBabel04232216523D

 52 53  0  0  0  0  0  0  0  0999 V2000
    3.0698    3.4818    0.2293 C   0  0  0  0  0  0  0  0  0  0  0  0
    3.1634    2.1463   -0.4854 C   0  0  0  0  0  0  0  0  0  0  0  0
    4.4488    1.3415   -0.1417 C   0  0  0  0  0  0  0  0  0  0  0  0
    5.7004    1.6583   -0.9711 C   0  0  0  0  0  0  0  0  0  0  0  0
    5.4416    1.2479   -2.3539 C   0  0  0  0  0  0  0  0  0  0  0  0
    6.4823    0.8037   -3.0721 C   0  0  0  0  0  0  0  0  0  0  0  0
    7.4256   -0.2913   -2.5673 C   0  0  0  0  0  0  0  0  0  0  0  0
    7.1023    1.9495   -3.7584 C   0  0  0  0  0  0  0  0  0  0  0  0
    6.6370    2.1827   -5.0229 N   0  0  0  0  0  0  0  0  0  0  0  0
    7.3852    2.5521   -6.1920 C   0  0  0  0  0  0  0  0  0  0  0  0
    6.6852    1.9518   -7.4055 C   0  0  0  0  0  0  0  0  0  0  0  0
    5.6198    1.3418   -7.3458 O   0  0  0  0  0  0  0  0  0  0  0  0
    7.9183    2.7033   -2.9958 C   0  0  0  0  0  0  0  0  0  0  0  0
    9.0611    3.4110   -3.5034 C   0  0  0  0  0  0  0  0  0  0  0  0
   10.0407    3.1761   -2.6111 C   0  0  0  0  0  0  0  0  0  0  0  0
   11.5044    3.3525   -2.9899 C   0  0  0  0  0  0  0  0  0  0  0  0
   12.2532    2.0451   -3.3479 C   0  0  0  0  0  0  0  0  0  0  0  0
   13.6020    2.2057   -4.1028 C   0  0  0  0  0  0  0  0  0  0  0  0
   14.6795    3.0071   -3.3648 C   0  0  0  0  0  0  0  0  0  0  0  0
   16.0358    2.9600   -4.0696 C   0  0  0  0  0  0  0  0  0  0  0  0
    9.3874    2.7120   -1.3425 C   0  0  0  0  0  0  0  0  0  0  0  0
    8.0544    2.5006   -1.5354 C   0  0  0  0  0  0  0  0  0  0  0  0
    6.9322    2.1574   -0.5881 C   0  0  0  0  0  0  0  0  0  0  0  0
    2.0920    3.9423    0.0444 H   0  0  0  0  0  0  0  0  0  0  0  0
    3.8394    4.1744   -0.1204 H   0  0  0  0  0  0  0  0  0  0  0  0
    3.1744    3.3483    1.3102 H   0  0  0  0  0  0  0  0  0  0  0  0
    3.0502    2.3158   -1.5640 H   0  0  0  0  0  0  0  0  0  0  0  0
    2.2868    1.5505   -0.1961 H   0  0  0  0  0  0  0  0  0  0  0  0
    4.1883    0.2875   -0.3436 H   0  0  0  0  0  0  0  0  0  0  0  0
    4.6469    1.3867    0.9331 H   0  0  0  0  0  0  0  0  0  0  0  0
    4.7594    1.9577   -2.8335 H   0  0  0  0  0  0  0  0  0  0  0  0
    6.9000   -0.9827   -1.8970 H   0  0  0  0  0  0  0  0  0  0  0  0
    8.2953    0.0683   -2.0063 H   0  0  0  0  0  0  0  0  0  0  0  0
    7.8227   -0.8764   -3.4014 H   0  0  0  0  0  0  0  0  0  0  0  0
    5.8129    1.6179   -5.2483 H   0  0  0  0  0  0  0  0  0  0  0  0
    8.3994    2.1480   -6.1507 H   0  0  0  0  0  0  0  0  0  0  0  0
    7.4212    3.6391   -6.3068 H   0  0  0  0  0  0  0  0  0  0  0  0
    7.2040    2.0990   -8.3577 H   0  0  0  0  0  0  0  0  0  0  0  0
    9.1761    3.7741   -4.5087 H   0  0  0  0  0  0  0  0  0  0  0  0
   12.0386    3.9169   -2.2208 H   0  0  0  0  0  0  0  0  0  0  0  0
   11.5326    3.9744   -3.8957 H   0  0  0  0  0  0  0  0  0  0  0  0
   11.6139    1.4207   -3.9814 H   0  0  0  0  0  0  0  0  0  0  0  0
   12.4334    1.4749   -2.4271 H   0  0  0  0  0  0  0  0  0  0  0  0
   13.4282    2.6534   -5.0875 H   0  0  0  0  0  0  0  0  0  0  0  0
   13.9946    1.1988   -4.2972 H   0  0  0  0  0  0  0  0  0  0  0  0
   14.8040    2.6144   -2.3503 H   0  0  0  0  0  0  0  0  0  0  0  0
   14.3698    4.0530   -3.2814 H   0  0  0  0  0  0  0  0  0  0  0  0
   16.4197    1.9367   -4.1371 H   0  0  0  0  0  0  0  0  0  0  0  0
   16.7674    3.5524   -3.5089 H   0  0  0  0  0  0  0  0  0  0  0  0
   15.9817    3.3723   -5.0831 H   0  0  0  0  0  0  0  0  0  0  0  0
    9.9287    2.6094   -0.4098 H   0  0  0  0  0  0  0  0  0  0  0  0
    7.0794    2.4261    0.4490 H   0  0  0  0  0  0  0  0  0  0  0  0
  1  2  1  0  0  0  0
  1 24  1  0  0  0  0
  1 25  1  0  0  0  0
  1 26  1  0  0  0  0
  2  3  1  0  0  0  0
  2 27  1  0  0  0  0
  2 28  1  0  0  0  0
  3  4  1  0  0  0  0
  3 29  1  0  0  0  0
  3 30  1  0  0  0  0
  4  5  1  0  0  0  0
  4 23  2  0  0  0  0
  5  6  2  0  0  0  0
  5 31  1  0  0  0  0
  6  7  1  0  0  0  0
  6  8  1  0  0  0  0
  7 32  1  0  0  0  0
  7 33  1  0  0  0  0
  7 34  1  0  0  0  0
  8  9  1  0  0  0  0
  8 13  2  0  0  0  0
  9 10  1  0  0  0  0
  9 35  1  0  0  0  0
 10 11  1  0  0  0  0
 10 36  1  0  0  0  0
 10 37  1  0  0  0  0
 11 12  2  0  0  0  0
 11 38  1  0  0  0  0
 13 14  1  0  0  0  0
 13 22  1  0  0  0  0
 14 15  2  0  0  0  0
 14 39  1  0  0  0  0
 15 16  1  0  0  0  0
 15 21  1  0  0  0  0
 16 17  1  0  0  0  0
 16 40  1  0  0  0  0
 16 41  1  0  0  0  0
 17 18  1  0  0  0  0
 17 42  1  0  0  0  0
 17 43  1  0  0  0  0
 18 19  1  0  0  0  0
 18 44  1  0  0  0  0
 18 45  1  0  0  0  0
 19 20  1  0  0  0  0
 19 46  1  0  0  0  0
 19 47  1  0  0  0  0
 20 48  1  0  0  0  0
 20 49  1  0  0  0  0
 20 50  1  0  0  0  0
 21 22  2  0  0  0  0
 21 51  1  0  0  0  0
 22 23  1  0  0  0  0
 23 52  1  0  0  0  0
M  END
$$$$
