
 OpenBabel04232216463D

 44 44  0  0  0  0  0  0  0  0999 V2000
    5.6847    3.0876    0.7688 C   0  0  0  0  0  0  0  0  0  0  0  0
    6.4374    2.5511    2.0447 C   0  0  0  0  0  0  0  0  0  0  0  0
    5.6616    1.5295    2.4741 C   0  0  0  0  0  0  0  0  0  0  0  0
    5.6267    0.0832    1.9378 C   0  0  0  0  0  0  0  0  0  0  0  0
    5.3607   -0.2693    0.4680 C   0  0  0  0  0  0  0  0  0  0  0  0
    5.7183   -0.9239    2.7470 N   0  0  0  0  0  0  0  0  0  0  0  0
    6.7272   -0.6505    3.7708 C   0  0  0  0  0  0  0  0  0  0  0  0
    6.2710    0.2505    4.9404 C   0  0  0  0  0  0  0  0  0  0  0  0
    7.3626    1.2869    5.1885 C   0  0  0  0  0  0  0  0  0  0  0  0
    8.4426    0.9200    6.1944 C   0  0  0  0  0  0  0  0  0  0  0  0
    9.6581    0.2489    5.4946 C   0  0  0  0  0  0  0  0  0  0  0  0
   10.8620    1.1251    5.5805 C   0  0  0  0  0  0  0  0  0  0  0  0
   11.6870    1.0756    6.4942 O   0  0  0  0  0  0  0  0  0  0  0  0
   11.0320    2.0777    4.3833 C   0  0  0  0  0  0  0  0  0  0  0  0
   10.0506    3.0515    4.4419 C   0  0  0  0  0  0  0  0  0  0  0  0
   10.2317    3.9574    5.5934 N   0  0  0  0  0  0  0  0  0  0  0  0
    9.3266    4.7600    6.2453 C   0  0  0  0  0  0  0  0  0  0  0  0
    9.5190    5.3849    7.2635 O   0  0  0  0  0  0  0  0  0  0  0  0
   11.4922    4.0483    6.2555 C   0  0  0  0  0  0  0  0  0  0  0  0
   12.5785    4.1522    5.7069 O   0  0  0  0  0  0  0  0  0  0  0  0
    9.1283    2.9277    3.0847 C   0  0  0  0  0  0  0  0  0  0  0  0
    7.9848    2.7640    2.2764 C   0  0  0  0  0  0  0  0  0  0  0  0
    4.9632    3.8792    1.0060 H   0  0  0  0  0  0  0  0  0  0  0  0
    5.0105    2.3069    0.3483 H   0  0  0  0  0  0  0  0  0  0  0  0
    6.3083    3.3489   -0.0865 H   0  0  0  0  0  0  0  0  0  0  0  0
    4.5787    1.7425    2.4818 H   0  0  0  0  0  0  0  0  0  0  0  0
    4.2966   -0.3931    0.2450 H   0  0  0  0  0  0  0  0  0  0  0  0
    5.8431   -1.2375    0.2615 H   0  0  0  0  0  0  0  0  0  0  0  0
    5.8157    0.4365   -0.2284 H   0  0  0  0  0  0  0  0  0  0  0  0
    7.5487   -0.1996    3.2133 H   0  0  0  0  0  0  0  0  0  0  0  0
    7.1345   -1.5829    4.1293 H   0  0  0  0  0  0  0  0  0  0  0  0
    6.0772   -0.3578    5.8310 H   0  0  0  0  0  0  0  0  0  0  0  0
    5.3359    0.7785    4.7397 H   0  0  0  0  0  0  0  0  0  0  0  0
    6.9451    2.2818    5.3760 H   0  0  0  0  0  0  0  0  0  0  0  0
    7.8793    1.3944    4.2504 H   0  0  0  0  0  0  0  0  0  0  0  0
    8.0320    0.2682    6.9743 H   0  0  0  0  0  0  0  0  0  0  0  0
    8.7455    1.8459    6.7015 H   0  0  0  0  0  0  0  0  0  0  0  0
    9.4689    0.0613    4.4308 H   0  0  0  0  0  0  0  0  0  0  0  0
    9.8703   -0.7092    5.9422 H   0  0  0  0  0  0  0  0  0  0  0  0
   12.0943    2.3608    4.5311 H   0  0  0  0  0  0  0  0  0  0  0  0
    8.3651    4.7673    5.7836 H   0  0  0  0  0  0  0  0  0  0  0  0
   11.4018    4.1189    7.3679 H   0  0  0  0  0  0  0  0  0  0  0  0
    9.9575    2.7743    2.4049 H   0  0  0  0  0  0  0  0  0  0  0  0
    8.3374    2.5931    1.2447 H   0  0  0  0  0  0  0  0  0  0  0  0
  1  2  1  0  0  0  0
  1 23  1  0  0  0  0
  1 24  1  0  0  0  0
  1 25  1  0  0  0  0
  2  3  2  3  0  0  0
  2 22  1  0  0  0  0
  3  4  1  0  0  0  0
  3 26  1  0  0  0  0
  4  5  1  0  0  0  0
  4  6  2  3  0  0  0
  5 27  1  0  0  0  0
  5 28  1  0  0  0  0
  5 29  1  0  0  0  0
  6  7  1  0  0  0  0
  7  8  1  0  0  0  0
  7 30  1  0  0  0  0
  7 31  1  0  0  0  0
  8  9  1  0  0  0  0
  8 32  1  0  0  0  0
  8 33  1  0  0  0  0
  9 10  1  0  0  0  0
  9 34  1  0  0  0  0
  9 35  1  0  0  0  0
 10 11  1  0  0  0  0
 10 36  1  0  0  0  0
 10 37  1  0  0  0  0
 11 12  1  0  0  0  0
 11 38  1  0  0  0  0
 11 39  1  0  0  0  0
 12 13  2  0  0  0  0
 12 14  1  0  0  0  0
 14 15  2  3  0  0  0
 14 40  1  0  0  0  0
 15 16  1  0  0  0  0
 15 21  1  0  0  0  0
 16 17  1  0  0  0  0
 16 19  1  0  0  0  0
 17 18  2  0  0  0  0
 17 41  1  0  0  0  0
 19 20  2  0  0  0  0
 19 42  1  0  0  0  0
 21 22  2  3  0  0  0
 21 43  1  0  0  0  0
 22 44  1  0  0  0  0
M  END
$$$$
