
 OpenBabel04232216503D

 72 72  0  0  1  0  0  0  0  0999 V2000
    4.4798    0.5328   -1.1491 C   0  0  0  0  0  0  0  0  0  0  0  0
    5.3618    1.1127   -0.0198 C   0  0  3  0  0  0  0  0  0  0  0  0
    4.1465    1.5875    0.9347 C   0  0  0  0  0  0  0  0  0  0  0  0
    4.8480    1.9021    2.1612 C   0  0  0  0  0  0  0  0  0  0  0  0
    4.5759    2.6096    3.4447 C   0  0  0  0  0  0  0  0  0  0  0  0
    6.0391    2.9847    3.6807 C   0  0  0  0  0  0  0  0  0  0  0  0
    6.6484    2.9328    5.0242 C   0  0  0  0  0  0  0  0  0  0  0  0
    8.0041    2.2772    4.7684 C   0  0  0  0  0  0  0  0  0  0  0  0
    8.9820    2.9436    5.6689 C   0  0  0  0  0  0  0  0  0  0  0  0
   10.3631    2.4428    5.3667 C   0  0  0  0  0  0  0  0  0  0  0  0
   11.1998    3.6792    5.1582 C   0  0  0  0  0  0  0  0  0  0  0  0
   11.3327    3.9736    3.6046 C   0  0  0  0  0  0  0  0  0  0  0  0
    9.9908    4.0554    2.5079 C   0  0  0  0  0  0  0  0  0  0  0  0
    9.4067    2.9798    1.1760 C   0  0  0  0  0  0  0  0  0  0  0  0
   10.3016    2.4116    0.5019 O   0  0  0  0  0  0  0  0  0  0  0  0
    7.7617    2.5728    0.6869 C   0  0  0  0  0  0  0  0  0  0  0  0
    6.9104    1.9282   -0.3104 C   0  0  0  0  0  0  0  0  0  0  0  0
    7.1230    1.8797   -1.9313 C   0  0  0  0  0  0  0  0  0  0  0  0
    7.0738    0.5568   -2.9302 C   0  0  0  0  0  0  0  0  0  0  0  0
    6.3761    0.6426   -4.3835 C   0  0  0  0  0  0  0  0  0  0  0  0
    5.7495   -0.5942   -5.1789 C   0  0  0  0  0  0  0  0  0  0  0  0
    6.4617   -1.9355   -5.4471 C   0  0  0  0  0  0  0  0  0  0  0  0
    6.7262   -2.8315   -4.2394 C   0  0  0  0  0  0  0  0  0  0  0  0
    5.4746   -3.2273   -3.4264 C   0  0  0  0  0  0  0  0  0  0  0  0
    4.5511   -4.2450   -4.1021 C   0  0  0  0  0  0  0  0  0  0  0  0
    3.3517   -4.5379   -3.2079 C   0  0  0  0  0  0  0  0  0  0  0  0
    3.8093   -0.2304   -0.7137 H   0  0  0  0  0  0  0  0  0  0  0  0
    4.9724   -0.0019   -1.9360 H   0  0  0  0  0  0  0  0  0  0  0  0
    3.8375    1.3019   -1.5842 H   0  0  0  0  0  0  0  0  0  0  0  0
    5.7736    0.2067    0.4627 H   0  0  0  0  0  0  0  0  0  0  0  0
    3.4335    0.7719    1.1360 H   0  0  0  0  0  0  0  0  0  0  0  0
    3.5884    2.4300    0.5164 H   0  0  0  0  0  0  0  0  0  0  0  0
    5.4817    2.6309    1.6710 H   0  0  0  0  0  0  0  0  0  0  0  0
    5.3597    0.9667    2.4365 H   0  0  0  0  0  0  0  0  0  0  0  0
    4.1641    1.9421    4.2082 H   0  0  0  0  0  0  0  0  0  0  0  0
    3.9563    3.5032    3.3431 H   0  0  0  0  0  0  0  0  0  0  0  0
    6.2725    3.9285    3.1700 H   0  0  0  0  0  0  0  0  0  0  0  0
    6.6345    2.2259    3.1438 H   0  0  0  0  0  0  0  0  0  0  0  0
    6.0686    2.3475    5.7325 H   0  0  0  0  0  0  0  0  0  0  0  0
    6.7186    3.9522    5.4156 H   0  0  0  0  0  0  0  0  0  0  0  0
    8.3723    2.4223    3.7336 H   0  0  0  0  0  0  0  0  0  0  0  0
    7.9648    1.1943    4.9048 H   0  0  0  0  0  0  0  0  0  0  0  0
    8.7087    2.7935    6.7147 H   0  0  0  0  0  0  0  0  0  0  0  0
    8.8856    4.0179    5.4604 H   0  0  0  0  0  0  0  0  0  0  0  0
   10.4236    1.8290    4.4610 H   0  0  0  0  0  0  0  0  0  0  0  0
   10.7010    1.7972    6.1908 H   0  0  0  0  0  0  0  0  0  0  0  0
   12.1683    3.5149    5.6690 H   0  0  0  0  0  0  0  0  0  0  0  0
   10.7936    4.5512    5.7005 H   0  0  0  0  0  0  0  0  0  0  0  0
   11.8159    4.9854    3.6498 H   0  0  0  0  0  0  0  0  0  0  0  0
   12.1199    3.3083    3.2502 H   0  0  0  0  0  0  0  0  0  0  0  0
    9.1662    4.5114    3.0658 H   0  0  0  0  0  0  0  0  0  0  0  0
   10.4143    4.8724    1.9002 H   0  0  0  0  0  0  0  0  0  0  0  0
    7.2622    3.0960    1.4777 H   0  0  0  0  0  0  0  0  0  0  0  0
    8.0459    2.4271   -2.1512 H   0  0  0  0  0  0  0  0  0  0  0  0
    6.3074    2.5393   -2.2764 H   0  0  0  0  0  0  0  0  0  0  0  0
    6.7157   -0.3217   -2.3996 H   0  0  0  0  0  0  0  0  0  0  0  0
    8.1224    0.3386   -3.1496 H   0  0  0  0  0  0  0  0  0  0  0  0
    7.1188    1.0690   -5.0720 H   0  0  0  0  0  0  0  0  0  0  0  0
    5.5590    1.3791   -4.3515 H   0  0  0  0  0  0  0  0  0  0  0  0
    5.5473   -0.2152   -6.1976 H   0  0  0  0  0  0  0  0  0  0  0  0
    4.7439   -0.8115   -4.7951 H   0  0  0  0  0  0  0  0  0  0  0  0
    7.4059   -1.7695   -5.9843 H   0  0  0  0  0  0  0  0  0  0  0  0
    5.8500   -2.5199   -6.1565 H   0  0  0  0  0  0  0  0  0  0  0  0
    7.4261   -2.3270   -3.5862 H   0  0  0  0  0  0  0  0  0  0  0  0
    7.2235   -3.7074   -4.5866 H   0  0  0  0  0  0  0  0  0  0  0  0
    4.9080   -2.3280   -3.1733 H   0  0  0  0  0  0  0  0  0  0  0  0
    5.8331   -3.6231   -2.4678 H   0  0  0  0  0  0  0  0  0  0  0  0
    5.0908   -5.1806   -4.2931 H   0  0  0  0  0  0  0  0  0  0  0  0
    4.1906   -3.8755   -5.0692 H   0  0  0  0  0  0  0  0  0  0  0  0
    3.6726   -4.9292   -2.2366 H   0  0  0  0  0  0  0  0  0  0  0  0
    2.6917   -5.2813   -3.6692 H   0  0  0  0  0  0  0  0  0  0  0  0
    2.7658   -3.6295   -3.0323 H   0  0  0  0  0  0  0  0  0  0  0  0
  1  2  1  0  0  0  0
  1 27  1  0  0  0  0
  1 28  1  0  0  0  0
  1 29  1  0  0  0  0
  2  3  1  0  0  0  0
  2 17  1  0  0  0  0
  2 30  1  0  0  0  0
  3  4  1  0  0  0  0
  3 31  1  0  0  0  0
  3 32  1  0  0  0  0
  4  5  1  0  0  0  0
  4 33  1  0  0  0  0
  4 34  1  0  0  0  0
  5  6  1  0  0  0  0
  5 35  1  0  0  0  0
  5 36  1  0  0  0  0
  6  7  1  0  0  0  0
  6 37  1  0  0  0  0
  6 38  1  0  0  0  0
  7  8  1  0  0  0  0
  7 39  1  0  0  0  0
  7 40  1  0  0  0  0
  8  9  1  0  0  0  0
  8 41  1  0  0  0  0
  8 42  1  0  0  0  0
  9 10  1  0  0  0  0
  9 43  1  0  0  0  0
  9 44  1  0  0  0  0
 10 11  1  0  0  0  0
 10 45  1  0  0  0  0
 10 46  1  0  0  0  0
 11 12  1  0  0  0  0
 11 47  1  0  0  0  0
 11 48  1  0  0  0  0
 12 13  1  0  0  0  0
 12 49  1  0  0  0  0
 12 50  1  0  0  0  0
 13 14  1  0  0  0  0
 13 51  1  0  0  0  0
 13 52  1  0  0  0  0
 14 15  2  0  0  0  0
 14 16  1  0  0  0  0
 16 17  2  3  0  0  0
 16 53  1  0  0  0  0
 17 18  1  0  0  0  0
 18 19  1  0  0  0  0
 18 54  1  0  0  0  0
 18 55  1  0  0  0  0
 19 20  1  0  0  0  0
 19 56  1  0  0  0  0
 19 57  1  0  0  0  0
 20 21  1  0  0  0  0
 20 58  1  0  0  0  0
 20 59  1  0  0  0  0
 21 22  1  0  0  0  0
 21 60  1  0  0  0  0
 21 61  1  0  0  0  0
 22 23  1  0  0  0  0
 22 62  1  0  0  0  0
 22 63  1  0  0  0  0
 23 24  1  0  0  0  0
 23 64  1  0  0  0  0
 23 65  1  0  0  0  0
 24 25  1  0  0  0  0
 24 66  1  0  0  0  0
 24 67  1  0  0  0  0
 25 26  1  0  0  0  0
 25 68  1  0  0  0  0
 25 69  1  0  0  0  0
 26 70  1  0  0  0  0
 26 71  1  0  0  0  0
 26 72  1  0  0  0  0
M  END
$$$$
