
 OpenBabel04232216523D

203202  0  0  0  0  0  0  0  0999 V2000
    1.0323   -0.0401   -0.0499 C   0  0  0  0  0  0  0  0  0  0  0  0
    2.5496   -0.0454   -0.0532 C   0  0  0  0  0  0  0  0  0  0  0  0
    3.0818   -0.4667   -1.4171 C   0  0  0  0  0  0  0  0  0  0  0  0
    4.6025   -0.4711   -1.4244 C   0  0  0  0  0  0  0  0  0  0  0  0
    5.1173   -0.8934   -2.7919 C   0  0  0  0  0  0  0  0  0  0  0  0
    6.6355   -0.8979   -2.7995 C   0  0  0  0  0  0  0  0  0  0  0  0
    7.1468   -1.3216   -4.1646 C   0  0  0  0  0  0  0  0  0  0  0  0
    8.6640   -1.3273   -4.1691 C   0  0  0  0  0  0  0  0  0  0  0  0
    9.1746   -1.7506   -5.5331 C   0  0  0  0  0  0  0  0  0  0  0  0
   10.6914   -1.7540   -5.5370 C   0  0  0  0  0  0  0  0  0  0  0  0
   11.2018   -2.1794   -6.9009 C   0  0  0  0  0  0  0  0  0  0  0  0
   12.7187   -2.1806   -6.9046 C   0  0  0  0  0  0  0  0  0  0  0  0
   13.2289   -2.6080   -8.2681 C   0  0  0  0  0  0  0  0  0  0  0  0
   14.7455   -2.6078   -8.2741 C   0  0  0  0  0  0  0  0  0  0  0  0
   15.2567   -3.0345   -9.6352 C   0  0  0  0  0  0  0  0  0  0  0  0
   16.7707   -3.0368   -9.6428 C   0  0  0  0  0  0  0  0  0  0  0  0
   17.2833   -3.4611  -11.0026 C   0  0  0  0  0  0  0  0  0  0  0  0
   18.7973   -3.4617  -11.0115 C   0  0  0  0  0  0  0  0  0  0  0  0
   19.3101   -3.8878  -12.3708 C   0  0  0  0  0  0  0  0  0  0  0  0
   20.8241   -3.8904  -12.3791 C   0  0  0  0  0  0  0  0  0  0  0  0
   21.3369   -4.3147  -13.7389 C   0  0  0  0  0  0  0  0  0  0  0  0
   22.8508   -4.3191  -13.7465 C   0  0  0  0  0  0  0  0  0  0  0  0
   23.3635   -4.7452  -15.1057 C   0  0  0  0  0  0  0  0  0  0  0  0
   24.8774   -4.7478  -15.1140 C   0  0  0  0  0  0  0  0  0  0  0  0
   25.3902   -5.1739  -16.4732 C   0  0  0  0  0  0  0  0  0  0  0  0
   26.9041   -5.1746  -16.4820 C   0  0  0  0  0  0  0  0  0  0  0  0
   27.4169   -5.6007  -17.8412 C   0  0  0  0  0  0  0  0  0  0  0  0
   28.9308   -5.6013  -17.8501 C   0  0  0  0  0  0  0  0  0  0  0  0
   29.4435   -6.0274  -19.2093 C   0  0  0  0  0  0  0  0  0  0  0  0
   30.9574   -6.0280  -19.2181 C   0  0  0  0  0  0  0  0  0  0  0  0
   31.4702   -6.4542  -20.5774 C   0  0  0  0  0  0  0  0  0  0  0  0
   32.9841   -6.4548  -20.5862 C   0  0  0  0  0  0  0  0  0  0  0  0
   33.4968   -6.8810  -21.9454 C   0  0  0  0  0  0  0  0  0  0  0  0
   35.0107   -6.8835  -21.9537 C   0  0  0  0  0  0  0  0  0  0  0  0
   35.5235   -7.3096  -23.3129 C   0  0  0  0  0  0  0  0  0  0  0  0
   37.0374   -7.3102  -23.3217 C   0  0  0  0  0  0  0  0  0  0  0  0
   37.5502   -7.7345  -24.6815 C   0  0  0  0  0  0  0  0  0  0  0  0
   39.0641   -7.7370  -24.6898 C   0  0  0  0  0  0  0  0  0  0  0  0
   39.5768   -8.1631  -26.0490 C   0  0  0  0  0  0  0  0  0  0  0  0
   41.0908   -8.1638  -26.0579 C   0  0  0  0  0  0  0  0  0  0  0  0
   41.6036   -8.5918  -27.4166 C   0  0  0  0  0  0  0  0  0  0  0  0
   43.1176   -8.5925  -27.4254 C   0  0  0  0  0  0  0  0  0  0  0  0
   43.6301   -9.0205  -28.7840 C   0  0  0  0  0  0  0  0  0  0  0  0
   45.1441   -9.0211  -28.7925 C   0  0  0  0  0  0  0  0  0  0  0  0
   45.6564   -9.4494  -30.1519 C   0  0  0  0  0  0  0  0  0  0  0  0
   47.1718   -9.4494  -30.1587 C   0  0  0  0  0  0  0  0  0  0  0  0
   47.6828   -9.8782  -31.5199 C   0  0  0  0  0  0  0  0  0  0  0  0
   49.1987   -9.8781  -31.5264 C   0  0  0  0  0  0  0  0  0  0  0  0
   49.7096  -10.3074  -32.8889 C   0  0  0  0  0  0  0  0  0  0  0  0
   51.2263  -10.3088  -32.8934 C   0  0  0  0  0  0  0  0  0  0  0  0
   51.7373  -10.7380  -34.2560 C   0  0  0  0  0  0  0  0  0  0  0  0
   53.2555  -10.7380  -34.2624 C   0  0  0  0  0  0  0  0  0  0  0  0
   53.7675  -11.1653  -35.6255 C   0  0  0  0  0  0  0  0  0  0  0  0
   55.2874  -11.1681  -35.6342 C   0  0  0  0  0  0  0  0  0  0  0  0
   55.8043  -11.5981  -36.9979 C   0  0  0  0  0  0  0  0  0  0  0  0
   57.3262  -11.6003  -37.0148 C   0  0  0  0  0  0  0  0  0  0  0  0
   57.8475  -12.0293  -38.3814 C   0  0  0  0  0  0  0  0  0  0  0  0
   59.3728  -12.0327  -38.4058 C   0  0  0  0  0  0  0  0  0  0  0  0
   59.9026  -12.4628  -39.7708 C   0  0  0  0  0  0  0  0  0  0  0  0
   61.4069  -12.4685  -39.7952 C   0  0  0  0  0  0  0  0  0  0  0  0
   62.0652  -12.9672  -41.4611 S   0  0  0  0  0  0  0  0  0  0  0  0
   61.3411  -11.5754  -42.7970 S   0  0  0  0  0  0  0  0  0  0  0  0
   62.0957   -9.7396  -42.2232 S   0  0  0  0  0  0  0  0  0  0  0  0
   64.1613   -9.8049  -42.3521 S   0  0  0  0  0  0  0  0  0  0  0  0
   64.8901   -7.9411  -41.7436 S   0  0  0  0  0  0  0  0  0  0  0  0
   66.9855   -8.0104  -41.8241 S   0  0  0  0  0  0  0  0  0  0  0  0
   67.7383   -6.1364  -41.2375 S   0  0  0  0  0  0  0  0  0  0  0  0
   69.8411   -6.2099  -41.3193 S   0  0  0  0  0  0  0  0  0  0  0  0
   70.6050   -4.3363  -40.7328 S   0  0  0  0  0  0  0  0  0  0  0  0
   72.7100   -4.4109  -40.8150 S   0  0  0  0  0  0  0  0  0  0  0  0
   73.4752   -2.5363  -40.2283 S   0  0  0  0  0  0  0  0  0  0  0  0
   75.5802   -2.6093  -40.3100 S   0  0  0  0  0  0  0  0  0  0  0  0
   76.3431   -0.7348  -39.7232 S   0  0  0  0  0  0  0  0  0  0  0  0
   78.4457   -0.8093  -39.8053 S   0  0  0  0  0  0  0  0  0  0  0  0
   79.2046    1.0624  -39.2192 S   0  0  0  0  0  0  0  0  0  0  0  0
   81.3003    0.9814  -39.3037 S   0  0  0  0  0  0  0  0  0  0  0  0
   82.0479    2.8471  -38.7190 S   0  0  0  0  0  0  0  0  0  0  0  0
   84.1279    2.7447  -38.7857 S   0  0  0  0  0  0  0  0  0  0  0  0
   84.8610    4.6148  -38.2640 S   0  0  0  0  0  0  0  0  0  0  0  0
   86.9277    4.4894  -38.3114 S   0  0  0  0  0  0  0  0  0  0  0  0
   87.4217    4.1243  -40.2721 S   0  0  0  0  0  0  0  0  0  0  0  0
    0.6583    0.2625    0.9303 H   0  0  0  0  0  0  0  0  0  0  0  0
    0.6417   -1.0368   -0.2756 H   0  0  0  0  0  0  0  0  0  0  0  0
    0.6465    0.6593   -0.7975 H   0  0  0  0  0  0  0  0  0  0  0  0
    2.9176   -0.7331    0.7178 H   0  0  0  0  0  0  0  0  0  0  0  0
    2.9223    0.9548    0.1985 H   0  0  0  0  0  0  0  0  0  0  0  0
    2.7102    0.2193   -2.1894 H   0  0  0  0  0  0  0  0  0  0  0  0
    2.7077   -1.4674   -1.6694 H   0  0  0  0  0  0  0  0  0  0  0  0
    4.9778   -1.1595   -0.6580 H   0  0  0  0  0  0  0  0  0  0  0  0
    4.9802    0.5283   -1.1783 H   0  0  0  0  0  0  0  0  0  0  0  0
    4.7436   -0.2059   -3.5606 H   0  0  0  0  0  0  0  0  0  0  0  0
    4.7411   -1.8934   -3.0403 H   0  0  0  0  0  0  0  0  0  0  0  0
    7.0117   -1.5850   -2.0314 H   0  0  0  0  0  0  0  0  0  0  0  0
    7.0142    0.1020   -2.5540 H   0  0  0  0  0  0  0  0  0  0  0  0
    6.7737   -0.6342   -4.9340 H   0  0  0  0  0  0  0  0  0  0  0  0
    6.7691   -2.3215   -4.4122 H   0  0  0  0  0  0  0  0  0  0  0  0
    9.0372   -2.0149   -3.4002 H   0  0  0  0  0  0  0  0  0  0  0  0
    9.0419   -0.3275   -3.9221 H   0  0  0  0  0  0  0  0  0  0  0  0
    8.8005   -1.0639   -6.3024 H   0  0  0  0  0  0  0  0  0  0  0  0
    8.7980   -2.7510   -5.7796 H   0  0  0  0  0  0  0  0  0  0  0  0
   11.0662   -2.4398   -4.7673 H   0  0  0  0  0  0  0  0  0  0  0  0
   11.0685   -0.7535   -5.2923 H   0  0  0  0  0  0  0  0  0  0  0  0
   10.8263   -1.4947   -7.6711 H   0  0  0  0  0  0  0  0  0  0  0  0
   10.8261   -3.1805   -7.1452 H   0  0  0  0  0  0  0  0  0  0  0  0
   13.0942   -2.8642   -6.1338 H   0  0  0  0  0  0  0  0  0  0  0  0
   13.0941   -1.1793   -6.6619 H   0  0  0  0  0  0  0  0  0  0  0  0
   12.8514   -1.9252   -9.0393 H   0  0  0  0  0  0  0  0  0  0  0  0
   12.8536   -3.6100   -8.5103 H   0  0  0  0  0  0  0  0  0  0  0  0
   15.1222   -3.2908   -7.5014 H   0  0  0  0  0  0  0  0  0  0  0  0
   15.1200   -1.6049   -8.0308 H   0  0  0  0  0  0  0  0  0  0  0  0
   14.8788   -2.3506  -10.4086 H   0  0  0  0  0  0  0  0  0  0  0  0
   14.8789   -4.0375   -9.8798 H   0  0  0  0  0  0  0  0  0  0  0  0
   17.1484   -3.7218   -8.8695 H   0  0  0  0  0  0  0  0  0  0  0  0
   17.1483   -2.0338   -9.3961 H   0  0  0  0  0  0  0  0  0  0  0  0
   16.9045   -2.7770  -11.7763 H   0  0  0  0  0  0  0  0  0  0  0  0
   16.9068   -4.4648  -11.2488 H   0  0  0  0  0  0  0  0  0  0  0  0
   19.1764   -4.1448  -10.2371 H   0  0  0  0  0  0  0  0  0  0  0  0
   19.1741   -2.4577  -10.7668 H   0  0  0  0  0  0  0  0  0  0  0  0
   18.9323   -3.2040  -13.1452 H   0  0  0  0  0  0  0  0  0  0  0  0
   18.9324   -4.8914  -12.6163 H   0  0  0  0  0  0  0  0  0  0  0  0
   21.2019   -4.5754  -11.6056 H   0  0  0  0  0  0  0  0  0  0  0  0
   21.2020   -2.8873  -12.1323 H   0  0  0  0  0  0  0  0  0  0  0  0
   20.9602   -3.6288  -14.5121 H   0  0  0  0  0  0  0  0  0  0  0  0
   20.9579   -5.3172  -13.9863 H   0  0  0  0  0  0  0  0  0  0  0  0
   23.2275   -5.0038  -12.9724 H   0  0  0  0  0  0  0  0  0  0  0  0
   23.2297   -3.3162  -13.5005 H   0  0  0  0  0  0  0  0  0  0  0  0
   22.9857   -4.0614  -15.8801 H   0  0  0  0  0  0  0  0  0  0  0  0
   22.9857   -5.7487  -15.3511 H   0  0  0  0  0  0  0  0  0  0  0  0
   25.2553   -5.4317  -14.3396 H   0  0  0  0  0  0  0  0  0  0  0  0
   25.2552   -3.7443  -14.8686 H   0  0  0  0  0  0  0  0  0  0  0  0
   25.0112   -4.4909  -17.2477 H   0  0  0  0  0  0  0  0  0  0  0  0
   25.0135   -6.1780  -16.7179 H   0  0  0  0  0  0  0  0  0  0  0  0
   27.2831   -5.8576  -15.7075 H   0  0  0  0  0  0  0  0  0  0  0  0
   27.2807   -4.1705  -16.2373 H   0  0  0  0  0  0  0  0  0  0  0  0
   27.0378   -4.9176  -18.6158 H   0  0  0  0  0  0  0  0  0  0  0  0
   27.0402   -6.6048  -18.0860 H   0  0  0  0  0  0  0  0  0  0  0  0
   29.3098   -6.2843  -17.0755 H   0  0  0  0  0  0  0  0  0  0  0  0
   29.3074   -4.5972  -17.6053 H   0  0  0  0  0  0  0  0  0  0  0  0
   29.0645   -5.3444  -19.9838 H   0  0  0  0  0  0  0  0  0  0  0  0
   29.0669   -7.0315  -19.4541 H   0  0  0  0  0  0  0  0  0  0  0  0
   31.3364   -6.7111  -18.4436 H   0  0  0  0  0  0  0  0  0  0  0  0
   31.3341   -5.0240  -18.9734 H   0  0  0  0  0  0  0  0  0  0  0  0
   31.0912   -5.7711  -21.3519 H   0  0  0  0  0  0  0  0  0  0  0  0
   31.0935   -7.4582  -20.8221 H   0  0  0  0  0  0  0  0  0  0  0  0
   33.3630   -7.1378  -19.8116 H   0  0  0  0  0  0  0  0  0  0  0  0
   33.3608   -5.4507  -20.3415 H   0  0  0  0  0  0  0  0  0  0  0  0
   33.1190   -6.1971  -22.7198 H   0  0  0  0  0  0  0  0  0  0  0  0
   33.1190   -7.8844  -22.1908 H   0  0  0  0  0  0  0  0  0  0  0  0
   35.3886   -7.5674  -21.1793 H   0  0  0  0  0  0  0  0  0  0  0  0
   35.3885   -5.8800  -21.7083 H   0  0  0  0  0  0  0  0  0  0  0  0
   35.1445   -6.6266  -24.0874 H   0  0  0  0  0  0  0  0  0  0  0  0
   35.1468   -8.3137  -23.5576 H   0  0  0  0  0  0  0  0  0  0  0  0
   37.4163   -7.9943  -22.5481 H   0  0  0  0  0  0  0  0  0  0  0  0
   37.4141   -6.3065  -23.0756 H   0  0  0  0  0  0  0  0  0  0  0  0
   37.1723   -7.0495  -25.4549 H   0  0  0  0  0  0  0  0  0  0  0  0
   37.1723   -8.7376  -24.9283 H   0  0  0  0  0  0  0  0  0  0  0  0
   39.4419   -8.4209  -23.9154 H   0  0  0  0  0  0  0  0  0  0  0  0
   39.4418   -6.7335  -24.4444 H   0  0  0  0  0  0  0  0  0  0  0  0
   39.1979   -7.4801  -26.8236 H   0  0  0  0  0  0  0  0  0  0  0  0
   39.2001   -9.1672  -26.2937 H   0  0  0  0  0  0  0  0  0  0  0  0
   41.4698   -8.8457  -25.2824 H   0  0  0  0  0  0  0  0  0  0  0  0
   41.4674   -7.1593  -25.8145 H   0  0  0  0  0  0  0  0  0  0  0  0
   41.2245   -7.9099  -28.1920 H   0  0  0  0  0  0  0  0  0  0  0  0
   41.2269   -9.5962  -27.6598 H   0  0  0  0  0  0  0  0  0  0  0  0
   43.4965   -9.2744  -26.6499 H   0  0  0  0  0  0  0  0  0  0  0  0
   43.4941   -7.5881  -27.1821 H   0  0  0  0  0  0  0  0  0  0  0  0
   43.2514   -8.3386  -29.5595 H   0  0  0  0  0  0  0  0  0  0  0  0
   43.2538  -10.0249  -29.0274 H   0  0  0  0  0  0  0  0  0  0  0  0
   45.5233   -9.7031  -28.0177 H   0  0  0  0  0  0  0  0  0  0  0  0
   45.5209   -8.0170  -28.5497 H   0  0  0  0  0  0  0  0  0  0  0  0
   45.2785   -8.7675  -30.9268 H   0  0  0  0  0  0  0  0  0  0  0  0
   45.2808  -10.4533  -30.3948 H   0  0  0  0  0  0  0  0  0  0  0  0
   47.5498  -10.1315  -29.3853 H   0  0  0  0  0  0  0  0  0  0  0  0
   47.5475   -8.4460  -29.9172 H   0  0  0  0  0  0  0  0  0  0  0  0
   47.3051   -9.1964  -32.2935 H   0  0  0  0  0  0  0  0  0  0  0  0
   47.3074  -10.8814  -31.7618 H   0  0  0  0  0  0  0  0  0  0  0  0
   49.5760  -10.5599  -30.7536 H   0  0  0  0  0  0  0  0  0  0  0  0
   49.5738   -8.8754  -31.2851 H   0  0  0  0  0  0  0  0  0  0  0  0
   49.3336   -9.6246  -33.6604 H   0  0  0  0  0  0  0  0  0  0  0  0
   49.3336  -11.3090  -33.1298 H   0  0  0  0  0  0  0  0  0  0  0  0
   51.6020  -10.9914  -32.1212 H   0  0  0  0  0  0  0  0  0  0  0  0
   51.6019   -9.3069  -32.6517 H   0  0  0  0  0  0  0  0  0  0  0  0
   51.3600  -10.0561  -35.0281 H   0  0  0  0  0  0  0  0  0  0  0  0
   51.3622  -11.7404  -34.4967 H   0  0  0  0  0  0  0  0  0  0  0  0
   53.6309  -11.4206  -33.4902 H   0  0  0  0  0  0  0  0  0  0  0  0
   53.6287   -9.7356  -34.0193 H   0  0  0  0  0  0  0  0  0  0  0  0
   53.3900  -10.4816  -36.3963 H   0  0  0  0  0  0  0  0  0  0  0  0
   53.3899  -12.1666  -35.8681 H   0  0  0  0  0  0  0  0  0  0  0  0
   55.6604  -11.8502  -34.8605 H   0  0  0  0  0  0  0  0  0  0  0  0
   55.6604  -10.1657  -35.3911 H   0  0  0  0  0  0  0  0  0  0  0  0
   55.4214  -10.9166  -37.7687 H   0  0  0  0  0  0  0  0  0  0  0  0
   55.4248  -12.5998  -37.2367 H   0  0  0  0  0  0  0  0  0  0  0  0
   57.7018  -12.2811  -36.2393 H   0  0  0  0  0  0  0  0  0  0  0  0
   57.6980  -10.5972  -36.7697 H   0  0  0  0  0  0  0  0  0  0  0  0
   57.4611  -11.3468  -39.1487 H   0  0  0  0  0  0  0  0  0  0  0  0
   57.4659  -13.0301  -38.6185 H   0  0  0  0  0  0  0  0  0  0  0  0
   59.7512  -12.7137  -37.6317 H   0  0  0  0  0  0  0  0  0  0  0  0
   59.7461  -11.0291  -38.1623 H   0  0  0  0  0  0  0  0  0  0  0  0
   59.4995  -11.7741  -40.5264 H   0  0  0  0  0  0  0  0  0  0  0  0
   59.5178  -13.4645  -40.0087 H   0  0  0  0  0  0  0  0  0  0  0  0
   61.8212  -13.1589  -39.0727 H   0  0  0  0  0  0  0  0  0  0  0  0
   61.8239  -11.4775  -39.5869 H   0  0  0  0  0  0  0  0  0  0  0  0
   88.7640    4.0704  -40.2050 H   0  0  0  0  0  0  0  0  0  0  0  0
  1  2  1  0  0  0  0
  1 82  1  0  0  0  0
  1 83  1  0  0  0  0
  1 84  1  0  0  0  0
  2  3  1  0  0  0  0
  2 85  1  0  0  0  0
  2 86  1  0  0  0  0
  3  4  1  0  0  0  0
  3 87  1  0  0  0  0
  3 88  1  0  0  0  0
  4  5  1  0  0  0  0
  4 89  1  0  0  0  0
  4 90  1  0  0  0  0
  5  6  1  0  0  0  0
  5 91  1  0  0  0  0
  5 92  1  0  0  0  0
  6  7  1  0  0  0  0
  6 93  1  0  0  0  0
  6 94  1  0  0  0  0
  7  8  1  0  0  0  0
  7 95  1  0  0  0  0
  7 96  1  0  0  0  0
  8  9  1  0  0  0  0
  8 97  1  0  0  0  0
  8 98  1  0  0  0  0
  9 10  1  0  0  0  0
  9 99  1  0  0  0  0
  9100  1  0  0  0  0
 10 11  1  0  0  0  0
 10101  1  0  0  0  0
 10102  1  0  0  0  0
 11 12  1  0  0  0  0
 11103  1  0  0  0  0
 11104  1  0  0  0  0
 12 13  1  0  0  0  0
 12105  1  0  0  0  0
 12106  1  0  0  0  0
 13 14  1  0  0  0  0
 13107  1  0  0  0  0
 13108  1  0  0  0  0
 14 15  1  0  0  0  0
 14109  1  0  0  0  0
 14110  1  0  0  0  0
 15 16  1  0  0  0  0
 15111  1  0  0  0  0
 15112  1  0  0  0  0
 16 17  1  0  0  0  0
 16113  1  0  0  0  0
 16114  1  0  0  0  0
 17 18  1  0  0  0  0
 17115  1  0  0  0  0
 17116  1  0  0  0  0
 18 19  1  0  0  0  0
 18117  1  0  0  0  0
 18118  1  0  0  0  0
 19 20  1  0  0  0  0
 19119  1  0  0  0  0
 19120  1  0  0  0  0
 20 21  1  0  0  0  0
 20121  1  0  0  0  0
 20122  1  0  0  0  0
 21 22  1  0  0  0  0
 21123  1  0  0  0  0
 21124  1  0  0  0  0
 22 23  1  0  0  0  0
 22125  1  0  0  0  0
 22126  1  0  0  0  0
 23 24  1  0  0  0  0
 23127  1  0  0  0  0
 23128  1  0  0  0  0
 24 25  1  0  0  0  0
 24129  1  0  0  0  0
 24130  1  0  0  0  0
 25 26  1  0  0  0  0
 25131  1  0  0  0  0
 25132  1  0  0  0  0
 26 27  1  0  0  0  0
 26133  1  0  0  0  0
 26134  1  0  0  0  0
 27 28  1  0  0  0  0
 27135  1  0  0  0  0
 27136  1  0  0  0  0
 28 29  1  0  0  0  0
 28137  1  0  0  0  0
 28138  1  0  0  0  0
 29 30  1  0  0  0  0
 29139  1  0  0  0  0
 29140  1  0  0  0  0
 30 31  1  0  0  0  0
 30141  1  0  0  0  0
 30142  1  0  0  0  0
 31 32  1  0  0  0  0
 31143  1  0  0  0  0
 31144  1  0  0  0  0
 32 33  1  0  0  0  0
 32145  1  0  0  0  0
 32146  1  0  0  0  0
 33 34  1  0  0  0  0
 33147  1  0  0  0  0
 33148  1  0  0  0  0
 34 35  1  0  0  0  0
 34149  1  0  0  0  0
 34150  1  0  0  0  0
 35 36  1  0  0  0  0
 35151  1  0  0  0  0
 35152  1  0  0  0  0
 36 37  1  0  0  0  0
 36153  1  0  0  0  0
 36154  1  0  0  0  0
 37 38  1  0  0  0  0
 37155  1  0  0  0  0
 37156  1  0  0  0  0
 38 39  1  0  0  0  0
 38157  1  0  0  0  0
 38158  1  0  0  0  0
 39 40  1  0  0  0  0
 39159  1  0  0  0  0
 39160  1  0  0  0  0
 40 41  1  0  0  0  0
 40161  1  0  0  0  0
 40162  1  0  0  0  0
 41 42  1  0  0  0  0
 41163  1  0  0  0  0
 41164  1  0  0  0  0
 42 43  1  0  0  0  0
 42165  1  0  0  0  0
 42166  1  0  0  0  0
 43 44  1  0  0  0  0
 43167  1  0  0  0  0
 43168  1  0  0  0  0
 44 45  1  0  0  0  0
 44169  1  0  0  0  0
 44170  1  0  0  0  0
 45 46  1  0  0  0  0
 45171  1  0  0  0  0
 45172  1  0  0  0  0
 46 47  1  0  0  0  0
 46173  1  0  0  0  0
 46174  1  0  0  0  0
 47 48  1  0  0  0  0
 47175  1  0  0  0  0
 47176  1  0  0  0  0
 48 49  1  0  0  0  0
 48177  1  0  0  0  0
 48178  1  0  0  0  0
 49 50  1  0  0  0  0
 49179  1  0  0  0  0
 49180  1  0  0  0  0
 50 51  1  0  0  0  0
 50181  1  0  0  0  0
 50182  1  0  0  0  0
 51 52  1  0  0  0  0
 51183  1  0  0  0  0
 51184  1  0  0  0  0
 52 53  1  0  0  0  0
 52185  1  0  0  0  0
 52186  1  0  0  0  0
 53 54  1  0  0  0  0
 53187  1  0  0  0  0
 53188  1  0  0  0  0
 54 55  1  0  0  0  0
 54189  1  0  0  0  0
 54190  1  0  0  0  0
 55 56  1  0  0  0  0
 55191  1  0  0  0  0
 55192  1  0  0  0  0
 56 57  1  0  0  0  0
 56193  1  0  0  0  0
 56194  1  0  0  0  0
 57 58  1  0  0  0  0
 57195  1  0  0  0  0
 57196  1  0  0  0  0
 58 59  1  0  0  0  0
 58197  1  0  0  0  0
 58198  1  0  0  0  0
 59 60  1  0  0  0  0
 59199  1  0  0  0  0
 59200  1  0  0  0  0
 60 61  1  0  0  0  0
 60201  1  0  0  0  0
 60202  1  0  0  0  0
 61 62  1  0  0  0  0
 62 63  1  0  0  0  0
 63 64  1  0  0  0  0
 64 65  1  0  0  0  0
 65 66  1  0  0  0  0
 66 67  1  0  0  0  0
 67 68  1  0  0  0  0
 68 69  1  0  0  0  0
 69 70  1  0  0  0  0
 70 71  1  0  0  0  0
 71 72  1  0  0  0  0
 72 73  1  0  0  0  0
 73 74  1  0  0  0  0
 74 75  1  0  0  0  0
 75 76  1  0  0  0  0
 76 77  1  0  0  0  0
 77 78  1  0  0  0  0
 78 79  1  0  0  0  0
 79 80  1  0  0  0  0
 80 81  1  0  0  0  0
 81203  1  0  0  0  0
M  END
$$$$
