
 OpenBabel04232217023D

239238  0  0  0  0  0  0  0  0999 V2000
    0.7102   -3.8263   -1.0839 O   0  0  0  0  0  0  0  0  0  0  0  0
    2.1590   -3.8935   -1.1968 O   0  0  0  0  0  0  0  0  0  0  0  0
    2.6728   -3.4811    0.0696 C   0  0  0  0  0  0  0  0  0  0  0  0
    4.0938   -3.4130    0.0620 O   0  0  0  0  0  0  0  0  0  0  0  0
    4.5695   -2.4503   -0.8756 C   0  0  0  0  0  0  0  0  0  0  0  0
    6.0884   -2.4625   -0.8640 C   0  0  0  0  0  0  0  0  0  0  0  0
    6.6228   -3.8402   -1.2506 C   0  0  0  0  0  0  0  0  0  0  0  0
    8.1421   -3.8511   -1.2447 C   0  0  0  0  0  0  0  0  0  0  0  0
    8.6531   -5.2318   -1.6255 C   0  0  0  0  0  0  0  0  0  0  0  0
   10.1710   -5.2462   -1.6166 C   0  0  0  0  0  0  0  0  0  0  0  0
   10.6814   -6.6247   -1.9964 C   0  0  0  0  0  0  0  0  0  0  0  0
   12.1993   -6.6328   -1.9900 C   0  0  0  0  0  0  0  0  0  0  0  0
   12.7101   -8.0111   -2.3660 C   0  0  0  0  0  0  0  0  0  0  0  0
   14.2272   -8.0196   -2.3597 C   0  0  0  0  0  0  0  0  0  0  0  0
   14.7374   -9.3976   -2.7369 C   0  0  0  0  0  0  0  0  0  0  0  0
   16.2544   -9.4053   -2.7289 C   0  0  0  0  0  0  0  0  0  0  0  0
   16.7647  -10.7833   -3.1048 C   0  0  0  0  0  0  0  0  0  0  0  0
   18.2815  -10.7903   -3.0979 C   0  0  0  0  0  0  0  0  0  0  0  0
   18.7912  -12.1690   -3.4718 C   0  0  0  0  0  0  0  0  0  0  0  0
   20.3078  -12.1764   -3.4638 C   0  0  0  0  0  0  0  0  0  0  0  0
   20.8180  -13.5545   -3.8389 C   0  0  0  0  0  0  0  0  0  0  0  0
   22.3346  -13.5607   -3.8319 C   0  0  0  0  0  0  0  0  0  0  0  0
   22.8449  -14.9391   -4.2059 C   0  0  0  0  0  0  0  0  0  0  0  0
   24.3615  -14.9453   -4.2014 C   0  0  0  0  0  0  0  0  0  0  0  0
   24.8714  -16.3238   -4.5754 C   0  0  0  0  0  0  0  0  0  0  0  0
   26.3880  -16.3296   -4.5727 C   0  0  0  0  0  0  0  0  0  0  0  0
   26.8981  -17.7082   -4.9465 C   0  0  0  0  0  0  0  0  0  0  0  0
   28.4147  -17.7138   -4.9439 C   0  0  0  0  0  0  0  0  0  0  0  0
   28.9248  -19.0924   -5.3176 C   0  0  0  0  0  0  0  0  0  0  0  0
   30.4414  -19.0981   -5.3150 C   0  0  0  0  0  0  0  0  0  0  0  0
   30.9514  -20.4767   -5.6888 C   0  0  0  0  0  0  0  0  0  0  0  0
   32.4681  -20.4823   -5.6864 C   0  0  0  0  0  0  0  0  0  0  0  0
   32.9782  -21.8608   -6.0602 C   0  0  0  0  0  0  0  0  0  0  0  0
   34.4949  -21.8658   -6.0594 C   0  0  0  0  0  0  0  0  0  0  0  0
   35.0049  -23.2443   -6.4334 C   0  0  0  0  0  0  0  0  0  0  0  0
   36.5215  -23.2490   -6.4344 C   0  0  0  0  0  0  0  0  0  0  0  0
   37.0315  -24.6270   -6.8101 C   0  0  0  0  0  0  0  0  0  0  0  0
   38.5481  -24.6320   -6.8098 C   0  0  0  0  0  0  0  0  0  0  0  0
   39.0581  -26.0093   -7.1875 C   0  0  0  0  0  0  0  0  0  0  0  0
   40.5748  -26.0138   -7.1890 C   0  0  0  0  0  0  0  0  0  0  0  0
   41.0844  -27.3908   -7.5691 C   0  0  0  0  0  0  0  0  0  0  0  0
   42.6011  -27.3960   -7.5697 C   0  0  0  0  0  0  0  0  0  0  0  0
   43.1111  -28.7730   -7.9491 C   0  0  0  0  0  0  0  0  0  0  0  0
   44.6278  -28.7775   -7.9504 C   0  0  0  0  0  0  0  0  0  0  0  0
   45.1380  -30.1545   -8.3294 C   0  0  0  0  0  0  0  0  0  0  0  0
   46.6547  -30.1590   -8.3307 C   0  0  0  0  0  0  0  0  0  0  0  0
   47.1649  -31.5360   -8.7102 C   0  0  0  0  0  0  0  0  0  0  0  0
   48.6815  -31.5403   -8.7120 C   0  0  0  0  0  0  0  0  0  0  0  0
   49.1916  -32.9172   -9.0917 C   0  0  0  0  0  0  0  0  0  0  0  0
   50.7078  -32.9214   -9.0948 C   0  0  0  0  0  0  0  0  0  0  0  0
   51.2180  -34.2982   -9.4746 C   0  0  0  0  0  0  0  0  0  0  0  0
   52.7344  -34.3032   -9.4767 C   0  0  0  0  0  0  0  0  0  0  0  0
   53.2456  -35.6776   -9.8581 C   0  0  0  0  0  0  0  0  0  0  0  0
   54.7619  -35.6837   -9.8578 C   0  0  0  0  0  0  0  0  0  0  0  0
   55.2723  -37.0620  -10.2401 C   0  0  0  0  0  0  0  0  0  0  0  0
   56.7880  -37.0652  -10.2414 C   0  0  0  0  0  0  0  0  0  0  0  0
   57.2986  -38.4413  -10.6226 C   0  0  0  0  0  0  0  0  0  0  0  0
   58.8155  -38.4459  -10.6217 C   0  0  0  0  0  0  0  0  0  0  0  0
   59.3256  -39.8220  -11.0026 C   0  0  0  0  0  0  0  0  0  0  0  0
   60.8422  -39.8267  -11.0051 C   0  0  0  0  0  0  0  0  0  0  0  0
   61.3516  -41.2031  -11.3883 C   0  0  0  0  0  0  0  0  0  0  0  0
   62.8685  -41.2085  -11.3893 C   0  0  0  0  0  0  0  0  0  0  0  0
   63.3786  -42.5849  -11.7702 C   0  0  0  0  0  0  0  0  0  0  0  0
   64.8952  -42.5898  -11.7712 C   0  0  0  0  0  0  0  0  0  0  0  0
   65.4049  -43.9668  -12.1518 C   0  0  0  0  0  0  0  0  0  0  0  0
   66.9217  -43.9711  -12.1533 C   0  0  0  0  0  0  0  0  0  0  0  0
   67.4321  -45.3474  -12.5351 C   0  0  0  0  0  0  0  0  0  0  0  0
   68.9490  -45.3519  -12.5370 C   0  0  0  0  0  0  0  0  0  0  0  0
   69.4597  -46.7282  -12.9186 C   0  0  0  0  0  0  0  0  0  0  0  0
   70.9767  -46.7330  -12.9218 C   0  0  0  0  0  0  0  0  0  0  0  0
   71.4870  -48.1099  -13.3037 C   0  0  0  0  0  0  0  0  0  0  0  0
   73.0044  -48.1156  -13.3072 C   0  0  0  0  0  0  0  0  0  0  0  0
   73.5162  -49.4926  -13.6888 C   0  0  0  0  0  0  0  0  0  0  0  0
   75.0343  -49.4987  -13.6929 C   0  0  0  0  0  0  0  0  0  0  0  0
   75.5484  -50.8764  -14.0750 C   0  0  0  0  0  0  0  0  0  0  0  0
   77.0672  -50.8827  -14.0808 C   0  0  0  0  0  0  0  0  0  0  0  0
   77.5862  -52.2611  -14.4630 C   0  0  0  0  0  0  0  0  0  0  0  0
   79.1062  -52.2694  -14.4693 C   0  0  0  0  0  0  0  0  0  0  0  0
   79.6254  -53.6496  -14.8500 C   0  0  0  0  0  0  0  0  0  0  0  0
   81.1485  -53.6725  -14.8585 C   0  0  0  0  0  0  0  0  0  0  0  0
   81.6640  -55.0490  -15.2380 C   0  0  0  0  0  0  0  0  0  0  0  0
    0.5261   -4.0989   -2.0013 H   0  0  0  0  0  0  0  0  0  0  0  0
    2.3824   -4.2219    0.8206 H   0  0  0  0  0  0  0  0  0  0  0  0
    2.2612   -2.5060    0.3543 H   0  0  0  0  0  0  0  0  0  0  0  0
    4.2036   -1.4538   -0.5986 H   0  0  0  0  0  0  0  0  0  0  0  0
    4.2140   -2.6935   -1.8827 H   0  0  0  0  0  0  0  0  0  0  0  0
    6.4529   -2.2064    0.1375 H   0  0  0  0  0  0  0  0  0  0  0  0
    6.4666   -1.7068   -1.5624 H   0  0  0  0  0  0  0  0  0  0  0  0
    6.2541   -4.1158   -2.2464 H   0  0  0  0  0  0  0  0  0  0  0  0
    6.2555   -4.6003   -0.5504 H   0  0  0  0  0  0  0  0  0  0  0  0
    8.5135   -3.5802   -0.2488 H   0  0  0  0  0  0  0  0  0  0  0  0
    8.5252   -3.1042   -1.9503 H   0  0  0  0  0  0  0  0  0  0  0  0
    8.2839   -5.5061   -2.6214 H   0  0  0  0  0  0  0  0  0  0  0  0
    8.2702   -5.9807   -0.9211 H   0  0  0  0  0  0  0  0  0  0  0  0
   10.5413   -4.9739   -0.6206 H   0  0  0  0  0  0  0  0  0  0  0  0
   10.5557   -4.4991   -2.3216 H   0  0  0  0  0  0  0  0  0  0  0  0
   10.3117   -6.9002   -2.9916 H   0  0  0  0  0  0  0  0  0  0  0  0
   10.3010   -7.3726   -1.2900 H   0  0  0  0  0  0  0  0  0  0  0  0
   12.5710   -6.3547   -0.9960 H   0  0  0  0  0  0  0  0  0  0  0  0
   12.5795   -5.8871   -2.6991 H   0  0  0  0  0  0  0  0  0  0  0  0
   12.3390   -8.2887   -3.3603 H   0  0  0  0  0  0  0  0  0  0  0  0
   12.3293   -8.7571   -1.6575 H   0  0  0  0  0  0  0  0  0  0  0  0
   14.5986   -7.7430   -1.3652 H   0  0  0  0  0  0  0  0  0  0  0  0
   14.6083   -7.2734   -3.0677 H   0  0  0  0  0  0  0  0  0  0  0  0
   14.3674   -9.6741   -3.7319 H   0  0  0  0  0  0  0  0  0  0  0  0
   14.3561  -10.1445   -2.0297 H   0  0  0  0  0  0  0  0  0  0  0  0
   16.6246   -9.1282   -1.7342 H   0  0  0  0  0  0  0  0  0  0  0  0
   16.6360   -8.6591   -3.4367 H   0  0  0  0  0  0  0  0  0  0  0  0
   16.3941  -11.0613   -4.0992 H   0  0  0  0  0  0  0  0  0  0  0  0
   16.3842  -11.5293   -2.3963 H   0  0  0  0  0  0  0  0  0  0  0  0
   18.6524  -10.5112   -2.1040 H   0  0  0  0  0  0  0  0  0  0  0  0
   18.6624  -10.0455   -3.8075 H   0  0  0  0  0  0  0  0  0  0  0  0
   18.4208  -12.4479   -4.4660 H   0  0  0  0  0  0  0  0  0  0  0  0
   18.4098  -12.9140   -2.7626 H   0  0  0  0  0  0  0  0  0  0  0  0
   20.6780  -11.8984   -2.4693 H   0  0  0  0  0  0  0  0  0  0  0  0
   20.6892  -11.4308   -4.1723 H   0  0  0  0  0  0  0  0  0  0  0  0
   20.4473  -13.8330   -4.8331 H   0  0  0  0  0  0  0  0  0  0  0  0
   20.4374  -14.3002   -3.1300 H   0  0  0  0  0  0  0  0  0  0  0  0
   22.7054  -13.2813   -2.8380 H   0  0  0  0  0  0  0  0  0  0  0  0
   22.7149  -12.8156   -4.5415 H   0  0  0  0  0  0  0  0  0  0  0  0
   22.4727  -15.2189   -5.1992 H   0  0  0  0  0  0  0  0  0  0  0  0
   22.4655  -15.6838   -3.4954 H   0  0  0  0  0  0  0  0  0  0  0  0
   24.7339  -14.6654   -3.2083 H   0  0  0  0  0  0  0  0  0  0  0  0
   24.7407  -14.2006   -4.9121 H   0  0  0  0  0  0  0  0  0  0  0  0
   24.4981  -16.6043   -5.5681 H   0  0  0  0  0  0  0  0  0  0  0  0
   24.4931  -17.0684   -3.8641 H   0  0  0  0  0  0  0  0  0  0  0  0
   26.7614  -16.0490   -3.5801 H   0  0  0  0  0  0  0  0  0  0  0  0
   26.7663  -15.5852   -5.2842 H   0  0  0  0  0  0  0  0  0  0  0  0
   26.5246  -17.9888   -5.9390 H   0  0  0  0  0  0  0  0  0  0  0  0
   26.5199  -18.4526   -4.2350 H   0  0  0  0  0  0  0  0  0  0  0  0
   28.7882  -17.4332   -3.9513 H   0  0  0  0  0  0  0  0  0  0  0  0
   28.7929  -16.9694   -5.6554 H   0  0  0  0  0  0  0  0  0  0  0  0
   28.5513  -19.3730   -6.3102 H   0  0  0  0  0  0  0  0  0  0  0  0
   28.5466  -19.8368   -4.6062 H   0  0  0  0  0  0  0  0  0  0  0  0
   30.8149  -18.8175   -4.3224 H   0  0  0  0  0  0  0  0  0  0  0  0
   30.8196  -18.3537   -6.0265 H   0  0  0  0  0  0  0  0  0  0  0  0
   30.5778  -20.7573   -6.6813 H   0  0  0  0  0  0  0  0  0  0  0  0
   30.5734  -21.2211   -4.9773 H   0  0  0  0  0  0  0  0  0  0  0  0
   32.8417  -20.2016   -4.6939 H   0  0  0  0  0  0  0  0  0  0  0  0
   32.8460  -19.7379   -6.3980 H   0  0  0  0  0  0  0  0  0  0  0  0
   32.6037  -22.1420   -7.0522 H   0  0  0  0  0  0  0  0  0  0  0  0
   32.6012  -22.6051   -5.3479 H   0  0  0  0  0  0  0  0  0  0  0  0
   34.8695  -21.5846   -5.0674 H   0  0  0  0  0  0  0  0  0  0  0  0
   34.8717  -21.1215   -6.7717 H   0  0  0  0  0  0  0  0  0  0  0  0
   34.6293  -23.5258   -7.4249 H   0  0  0  0  0  0  0  0  0  0  0  0
   34.6290  -23.9884   -5.7205 H   0  0  0  0  0  0  0  0  0  0  0  0
   36.8972  -22.9685   -5.4426 H   0  0  0  0  0  0  0  0  0  0  0  0
   36.8976  -22.5041   -7.1465 H   0  0  0  0  0  0  0  0  0  0  0  0
   36.6566  -24.9068   -7.8024 H   0  0  0  0  0  0  0  0  0  0  0  0
   36.6547  -25.3723   -6.0988 H   0  0  0  0  0  0  0  0  0  0  0  0
   38.9229  -24.3534   -5.8171 H   0  0  0  0  0  0  0  0  0  0  0  0
   38.9248  -23.8858   -7.5202 H   0  0  0  0  0  0  0  0  0  0  0  0
   38.6823  -26.2884   -8.1797 H   0  0  0  0  0  0  0  0  0  0  0  0
   38.6824  -26.7555   -6.4765 H   0  0  0  0  0  0  0  0  0  0  0  0
   40.9506  -25.7364   -6.1964 H   0  0  0  0  0  0  0  0  0  0  0  0
   40.9506  -25.2667   -7.8989 H   0  0  0  0  0  0  0  0  0  0  0  0
   40.7090  -27.6675   -8.5620 H   0  0  0  0  0  0  0  0  0  0  0  0
   40.7075  -28.1380   -6.8599 H   0  0  0  0  0  0  0  0  0  0  0  0
   42.9767  -27.1186   -6.5770 H   0  0  0  0  0  0  0  0  0  0  0  0
   42.9773  -26.6490   -8.2795 H   0  0  0  0  0  0  0  0  0  0  0  0
   42.7353  -29.0508   -8.9416 H   0  0  0  0  0  0  0  0  0  0  0  0
   42.7354  -29.5199   -7.2389 H   0  0  0  0  0  0  0  0  0  0  0  0
   45.0036  -28.4994   -6.9580 H   0  0  0  0  0  0  0  0  0  0  0  0
   45.0036  -28.0307   -8.6607 H   0  0  0  0  0  0  0  0  0  0  0  0
   44.7622  -30.4327   -9.3217 H   0  0  0  0  0  0  0  0  0  0  0  0
   44.7624  -30.9012   -7.6189 H   0  0  0  0  0  0  0  0  0  0  0  0
   47.0305  -29.8812   -7.3382 H   0  0  0  0  0  0  0  0  0  0  0  0
   47.0304  -29.4121   -9.0409 H   0  0  0  0  0  0  0  0  0  0  0  0
   46.7888  -31.8138   -9.7026 H   0  0  0  0  0  0  0  0  0  0  0  0
   46.7894  -32.2829   -7.9999 H   0  0  0  0  0  0  0  0  0  0  0  0
   49.0577  -31.2625   -7.7197 H   0  0  0  0  0  0  0  0  0  0  0  0
   49.0569  -30.7933   -9.4223 H   0  0  0  0  0  0  0  0  0  0  0  0
   48.8148  -33.1953  -10.0838 H   0  0  0  0  0  0  0  0  0  0  0  0
   48.8168  -33.6641   -8.3811 H   0  0  0  0  0  0  0  0  0  0  0  0
   51.0851  -32.6432   -8.1028 H   0  0  0  0  0  0  0  0  0  0  0  0
   51.0829  -32.1745   -9.8055 H   0  0  0  0  0  0  0  0  0  0  0  0
   50.8420  -34.5758  -10.4672 H   0  0  0  0  0  0  0  0  0  0  0  0
   50.8427  -35.0455   -8.7645 H   0  0  0  0  0  0  0  0  0  0  0  0
   53.1106  -34.0259   -8.4834 H   0  0  0  0  0  0  0  0  0  0  0  0
   53.1094  -33.5538  -10.1852 H   0  0  0  0  0  0  0  0  0  0  0  0
   52.8699  -35.9558  -10.8521 H   0  0  0  0  0  0  0  0  0  0  0  0
   52.8696  -36.4258   -9.1495 H   0  0  0  0  0  0  0  0  0  0  0  0
   55.1378  -35.4054   -8.8657 H   0  0  0  0  0  0  0  0  0  0  0  0
   55.1374  -34.9371  -10.5686 H   0  0  0  0  0  0  0  0  0  0  0  0
   54.8966  -37.3356  -11.2320 H   0  0  0  0  0  0  0  0  0  0  0  0
   54.8956  -37.8104   -9.5308 H   0  0  0  0  0  0  0  0  0  0  0  0
   57.1643  -36.7891   -9.2485 H   0  0  0  0  0  0  0  0  0  0  0  0
   57.1639  -36.3171  -10.9504 H   0  0  0  0  0  0  0  0  0  0  0  0
   56.9241  -38.7173  -11.6160 H   0  0  0  0  0  0  0  0  0  0  0  0
   56.9221  -39.1898   -9.9144 H   0  0  0  0  0  0  0  0  0  0  0  0
   59.1900  -38.1694   -9.6282 H   0  0  0  0  0  0  0  0  0  0  0  0
   59.1917  -37.6976  -11.3304 H   0  0  0  0  0  0  0  0  0  0  0  0
   58.9494  -40.0979  -11.9954 H   0  0  0  0  0  0  0  0  0  0  0  0
   58.9499  -40.5702  -10.2936 H   0  0  0  0  0  0  0  0  0  0  0  0
   61.2188  -39.5519  -10.0121 H   0  0  0  0  0  0  0  0  0  0  0  0
   61.2175  -39.0779  -11.7135 H   0  0  0  0  0  0  0  0  0  0  0  0
   60.9753  -41.4792  -12.3811 H   0  0  0  0  0  0  0  0  0  0  0  0
   60.9755  -41.9511  -10.6796 H   0  0  0  0  0  0  0  0  0  0  0  0
   63.2440  -40.9328  -10.3961 H   0  0  0  0  0  0  0  0  0  0  0  0
   63.2444  -40.4606  -12.0979 H   0  0  0  0  0  0  0  0  0  0  0  0
   63.0023  -42.8612  -12.7632 H   0  0  0  0  0  0  0  0  0  0  0  0
   63.0018  -43.3329  -11.0616 H   0  0  0  0  0  0  0  0  0  0  0  0
   65.2724  -42.3122  -10.7777 H   0  0  0  0  0  0  0  0  0  0  0  0
   65.2709  -41.8439  -12.4800 H   0  0  0  0  0  0  0  0  0  0  0  0
   65.0292  -44.2434  -13.1438 H   0  0  0  0  0  0  0  0  0  0  0  0
   65.0289  -44.7132  -11.4415 H   0  0  0  0  0  0  0  0  0  0  0  0
   67.2975  -43.6946  -11.1604 H   0  0  0  0  0  0  0  0  0  0  0  0
   67.2971  -43.2228  -12.8623 H   0  0  0  0  0  0  0  0  0  0  0  0
   67.0559  -45.6235  -13.5278 H   0  0  0  0  0  0  0  0  0  0  0  0
   67.0566  -46.0954  -11.8260 H   0  0  0  0  0  0  0  0  0  0  0  0
   69.3249  -45.0754  -11.5442 H   0  0  0  0  0  0  0  0  0  0  0  0
   69.3242  -44.6037  -13.2461 H   0  0  0  0  0  0  0  0  0  0  0  0
   69.0827  -47.0050  -13.9109 H   0  0  0  0  0  0  0  0  0  0  0  0
   69.0849  -47.4760  -12.2088 H   0  0  0  0  0  0  0  0  0  0  0  0
   71.3536  -46.4562  -11.9295 H   0  0  0  0  0  0  0  0  0  0  0  0
   71.3513  -45.9850  -13.6315 H   0  0  0  0  0  0  0  0  0  0  0  0
   71.1094  -48.3862  -14.2959 H   0  0  0  0  0  0  0  0  0  0  0  0
   71.1116  -48.8573  -12.5939 H   0  0  0  0  0  0  0  0  0  0  0  0
   73.3809  -47.8385  -12.3148 H   0  0  0  0  0  0  0  0  0  0  0  0
   73.3787  -47.3676  -14.0169 H   0  0  0  0  0  0  0  0  0  0  0  0
   73.1384  -49.7689  -14.6810 H   0  0  0  0  0  0  0  0  0  0  0  0
   73.1409  -50.2400  -12.9790 H   0  0  0  0  0  0  0  0  0  0  0  0
   75.4107  -49.2213  -12.7006 H   0  0  0  0  0  0  0  0  0  0  0  0
   75.4080  -48.7503  -14.4025 H   0  0  0  0  0  0  0  0  0  0  0  0
   75.1686  -51.1526  -15.0662 H   0  0  0  0  0  0  0  0  0  0  0  0
   75.1731  -51.6229  -13.3642 H   0  0  0  0  0  0  0  0  0  0  0  0
   77.4440  -50.6044  -13.0893 H   0  0  0  0  0  0  0  0  0  0  0  0
   77.4393  -50.1343  -14.7908 H   0  0  0  0  0  0  0  0  0  0  0  0
   77.2048  -52.5365  -15.4538 H   0  0  0  0  0  0  0  0  0  0  0  0
   77.2093  -53.0064  -13.7519 H   0  0  0  0  0  0  0  0  0  0  0  0
   79.4822  -51.9893  -13.4777 H   0  0  0  0  0  0  0  0  0  0  0  0
   79.4777  -51.5214  -15.1804 H   0  0  0  0  0  0  0  0  0  0  0  0
   79.2431  -53.9252  -15.8407 H   0  0  0  0  0  0  0  0  0  0  0  0
   79.2458  -54.3936  -14.1389 H   0  0  0  0  0  0  0  0  0  0  0  0
   81.5313  -53.3994  -13.8683 H   0  0  0  0  0  0  0  0  0  0  0  0
   81.5289  -52.9309  -15.5706 H   0  0  0  0  0  0  0  0  0  0  0  0
   81.3170  -55.8039  -14.5252 H   0  0  0  0  0  0  0  0  0  0  0  0
   82.7571  -55.0565  -15.2415 H   0  0  0  0  0  0  0  0  0  0  0  0
   81.3147  -55.3332  -16.2358 H   0  0  0  0  0  0  0  0  0  0  0  0
  1  2  1  0  0  0  0
  1 82  1  0  0  0  0
  2  3  1  0  0  0  0
  3  4  1  0  0  0  0
  3 83  1  0  0  0  0
  3 84  1  0  0  0  0
  4  5  1  0  0  0  0
  5  6  1  0  0  0  0
  5 85  1  0  0  0  0
  5 86  1  0  0  0  0
  6  7  1  0  0  0  0
  6 87  1  0  0  0  0
  6 88  1  0  0  0  0
  7  8  1  0  0  0  0
  7 89  1  0  0  0  0
  7 90  1  0  0  0  0
  8  9  1  0  0  0  0
  8 91  1  0  0  0  0
  8 92  1  0  0  0  0
  9 10  1  0  0  0  0
  9 93  1  0  0  0  0
  9 94  1  0  0  0  0
 10 11  1  0  0  0  0
 10 95  1  0  0  0  0
 10 96  1  0  0  0  0
 11 12  1  0  0  0  0
 11 97  1  0  0  0  0
 11 98  1  0  0  0  0
 12 13  1  0  0  0  0
 12 99  1  0  0  0  0
 12100  1  0  0  0  0
 13 14  1  0  0  0  0
 13101  1  0  0  0  0
 13102  1  0  0  0  0
 14 15  1  0  0  0  0
 14103  1  0  0  0  0
 14104  1  0  0  0  0
 15 16  1  0  0  0  0
 15105  1  0  0  0  0
 15106  1  0  0  0  0
 16 17  1  0  0  0  0
 16107  1  0  0  0  0
 16108  1  0  0  0  0
 17 18  1  0  0  0  0
 17109  1  0  0  0  0
 17110  1  0  0  0  0
 18 19  1  0  0  0  0
 18111  1  0  0  0  0
 18112  1  0  0  0  0
 19 20  1  0  0  0  0
 19113  1  0  0  0  0
 19114  1  0  0  0  0
 20 21  1  0  0  0  0
 20115  1  0  0  0  0
 20116  1  0  0  0  0
 21 22  1  0  0  0  0
 21117  1  0  0  0  0
 21118  1  0  0  0  0
 22 23  1  0  0  0  0
 22119  1  0  0  0  0
 22120  1  0  0  0  0
 23 24  1  0  0  0  0
 23121  1  0  0  0  0
 23122  1  0  0  0  0
 24 25  1  0  0  0  0
 24123  1  0  0  0  0
 24124  1  0  0  0  0
 25 26  1  0  0  0  0
 25125  1  0  0  0  0
 25126  1  0  0  0  0
 26 27  1  0  0  0  0
 26127  1  0  0  0  0
 26128  1  0  0  0  0
 27 28  1  0  0  0  0
 27129  1  0  0  0  0
 27130  1  0  0  0  0
 28 29  1  0  0  0  0
 28131  1  0  0  0  0
 28132  1  0  0  0  0
 29 30  1  0  0  0  0
 29133  1  0  0  0  0
 29134  1  0  0  0  0
 30 31  1  0  0  0  0
 30135  1  0  0  0  0
 30136  1  0  0  0  0
 31 32  1  0  0  0  0
 31137  1  0  0  0  0
 31138  1  0  0  0  0
 32 33  1  0  0  0  0
 32139  1  0  0  0  0
 32140  1  0  0  0  0
 33 34  1  0  0  0  0
 33141  1  0  0  0  0
 33142  1  0  0  0  0
 34 35  1  0  0  0  0
 34143  1  0  0  0  0
 34144  1  0  0  0  0
 35 36  1  0  0  0  0
 35145  1  0  0  0  0
 35146  1  0  0  0  0
 36 37  1  0  0  0  0
 36147  1  0  0  0  0
 36148  1  0  0  0  0
 37 38  1  0  0  0  0
 37149  1  0  0  0  0
 37150  1  0  0  0  0
 38 39  1  0  0  0  0
 38151  1  0  0  0  0
 38152  1  0  0  0  0
 39 40  1  0  0  0  0
 39153  1  0  0  0  0
 39154  1  0  0  0  0
 40 41  1  0  0  0  0
 40155  1  0  0  0  0
 40156  1  0  0  0  0
 41 42  1  0  0  0  0
 41157  1  0  0  0  0
 41158  1  0  0  0  0
 42 43  1  0  0  0  0
 42159  1  0  0  0  0
 42160  1  0  0  0  0
 43 44  1  0  0  0  0
 43161  1  0  0  0  0
 43162  1  0  0  0  0
 44 45  1  0  0  0  0
 44163  1  0  0  0  0
 44164  1  0  0  0  0
 45 46  1  0  0  0  0
 45165  1  0  0  0  0
 45166  1  0  0  0  0
 46 47  1  0  0  0  0
 46167  1  0  0  0  0
 46168  1  0  0  0  0
 47 48  1  0  0  0  0
 47169  1  0  0  0  0
 47170  1  0  0  0  0
 48 49  1  0  0  0  0
 48171  1  0  0  0  0
 48172  1  0  0  0  0
 49 50  1  0  0  0  0
 49173  1  0  0  0  0
 49174  1  0  0  0  0
 50 51  1  0  0  0  0
 50175  1  0  0  0  0
 50176  1  0  0  0  0
 51 52  1  0  0  0  0
 51177  1  0  0  0  0
 51178  1  0  0  0  0
 52 53  1  0  0  0  0
 52179  1  0  0  0  0
 52180  1  0  0  0  0
 53 54  1  0  0  0  0
 53181  1  0  0  0  0
 53182  1  0  0  0  0
 54 55  1  0  0  0  0
 54183  1  0  0  0  0
 54184  1  0  0  0  0
 55 56  1  0  0  0  0
 55185  1  0  0  0  0
 55186  1  0  0  0  0
 56 57  1  0  0  0  0
 56187  1  0  0  0  0
 56188  1  0  0  0  0
 57 58  1  0  0  0  0
 57189  1  0  0  0  0
 57190  1  0  0  0  0
 58 59  1  0  0  0  0
 58191  1  0  0  0  0
 58192  1  0  0  0  0
 59 60  1  0  0  0  0
 59193  1  0  0  0  0
 59194  1  0  0  0  0
 60 61  1  0  0  0  0
 60195  1  0  0  0  0
 60196  1  0  0  0  0
 61 62  1  0  0  0  0
 61197  1  0  0  0  0
 61198  1  0  0  0  0
 62 63  1  0  0  0  0
 62199  1  0  0  0  0
 62200  1  0  0  0  0
 63 64  1  0  0  0  0
 63201  1  0  0  0  0
 63202  1  0  0  0  0
 64 65  1  0  0  0  0
 64203  1  0  0  0  0
 64204  1  0  0  0  0
 65 66  1  0  0  0  0
 65205  1  0  0  0  0
 65206  1  0  0  0  0
 66 67  1  0  0  0  0
 66207  1  0  0  0  0
 66208  1  0  0  0  0
 67 68  1  0  0  0  0
 67209  1  0  0  0  0
 67210  1  0  0  0  0
 68 69  1  0  0  0  0
 68211  1  0  0  0  0
 68212  1  0  0  0  0
 69 70  1  0  0  0  0
 69213  1  0  0  0  0
 69214  1  0  0  0  0
 70 71  1  0  0  0  0
 70215  1  0  0  0  0
 70216  1  0  0  0  0
 71 72  1  0  0  0  0
 71217  1  0  0  0  0
 71218  1  0  0  0  0
 72 73  1  0  0  0  0
 72219  1  0  0  0  0
 72220  1  0  0  0  0
 73 74  1  0  0  0  0
 73221  1  0  0  0  0
 73222  1  0  0  0  0
 74 75  1  0  0  0  0
 74223  1  0  0  0  0
 74224  1  0  0  0  0
 75 76  1  0  0  0  0
 75225  1  0  0  0  0
 75226  1  0  0  0  0
 76 77  1  0  0  0  0
 76227  1  0  0  0  0
 76228  1  0  0  0  0
 77 78  1  0  0  0  0
 77229  1  0  0  0  0
 77230  1  0  0  0  0
 78 79  1  0  0  0  0
 78231  1  0  0  0  0
 78232  1  0  0  0  0
 79 80  1  0  0  0  0
 79233  1  0  0  0  0
 79234  1  0  0  0  0
 80 81  1  0  0  0  0
 80235  1  0  0  0  0
 80236  1  0  0  0  0
 81237  1  0  0  0  0
 81238  1  0  0  0  0
 81239  1  0  0  0  0
M  END
$$$$
