
 OpenBabel04232216473D

 63 64  0  0  0  0  0  0  0  0999 V2000
    8.4073   -0.1173   -0.4274 C   0  0  0  0  0  0  0  0  0  0  0  0
    7.1142   -0.2605   -1.1929 C   0  0  0  0  0  0  0  0  0  0  0  0
    5.9696   -0.6181   -0.4215 C   0  0  0  0  0  3  0  0  0  0  0  0
    5.0667   -1.7267   -0.7165 C   0  0  0  0  0  0  0  0  0  0  0  0
    4.9813   -2.7702    0.2410 N   0  0  0  0  0  0  0  0  0  0  0  0
    5.7024   -4.0432   -0.0883 C   0  0  0  0  0  0  0  0  0  0  0  0
    4.8096   -5.2975   -0.0418 C   0  0  0  0  0  0  0  0  0  0  0  0
    4.7152   -5.9627    1.3444 C   0  0  0  0  0  0  0  0  0  0  0  0
    3.2648   -6.0754    1.8437 C   0  0  0  0  0  0  0  0  0  0  0  0
    3.1527   -5.9716    3.3731 C   0  0  0  0  0  0  0  0  0  0  0  0
    1.7749   -5.4378    3.8256 C   0  0  0  0  0  0  0  0  0  0  0  0
    1.8440   -4.5244    5.0691 C   0  0  0  0  0  0  0  0  0  0  0  0
    1.9576   -3.0235    4.7380 C   0  0  0  0  0  0  0  0  0  0  0  0
    3.1236   -2.7894    3.8025 C   0  0  0  0  0  0  0  0  0  0  0  0
    3.4815   -1.3555    3.4858 C   0  0  0  0  0  0  0  0  0  0  0  0
    4.1610   -1.2630    2.1138 C   0  0  0  0  0  0  0  0  0  0  0  0
    5.1056   -2.4246    1.6948 C   0  0  0  0  0  0  0  0  0  0  0  0
    4.2594   -1.7496   -2.0461 C   0  0  0  0  0  0  0  0  0  0  0  0
    4.5417   -3.0111   -2.9011 C   0  0  0  0  0  0  0  0  0  0  0  0
    2.7165   -1.8186   -1.7309 C   0  0  0  0  0  0  0  0  0  0  0  0
    1.9685   -0.5237   -1.4392 C   0  0  0  0  0  0  0  0  0  0  0  0
    4.6009   -0.6105   -3.0239 C   0  0  0  0  0  0  0  0  0  0  0  0
    5.7513    0.0653   -3.2240 C   0  0  0  0  0  0  0  0  0  0  0  0
    7.0071   -0.0190   -2.5052 C   0  0  0  0  0  0  0  0  0  0  0  0
    8.3380   -0.5494    0.5767 H   0  0  0  0  0  0  0  0  0  0  0  0
    8.6549    0.9418   -0.3088 H   0  0  0  0  0  0  0  0  0  0  0  0
    9.2348   -0.6215   -0.9414 H   0  0  0  0  0  0  0  0  0  0  0  0
    5.9931   -0.2298    0.5830 H   0  0  0  0  0  0  0  0  0  0  0  0
    6.5812   -4.1659    0.5574 H   0  0  0  0  0  0  0  0  0  0  0  0
    6.1186   -3.9758   -1.0984 H   0  0  0  0  0  0  0  0  0  0  0  0
    5.2600   -6.0375   -0.7174 H   0  0  0  0  0  0  0  0  0  0  0  0
    3.8176   -5.0799   -0.4538 H   0  0  0  0  0  0  0  0  0  0  0  0
    5.3459   -5.4327    2.0635 H   0  0  0  0  0  0  0  0  0  0  0  0
    5.1368   -6.9754    1.2825 H   0  0  0  0  0  0  0  0  0  0  0  0
    2.8420   -7.0330    1.5145 H   0  0  0  0  0  0  0  0  0  0  0  0
    2.6605   -5.2896    1.3789 H   0  0  0  0  0  0  0  0  0  0  0  0
    3.9558   -5.3379    3.7569 H   0  0  0  0  0  0  0  0  0  0  0  0
    3.3228   -6.9583    3.8209 H   0  0  0  0  0  0  0  0  0  0  0  0
    1.1383   -6.2992    4.0542 H   0  0  0  0  0  0  0  0  0  0  0  0
    1.2700   -4.8982    3.0148 H   0  0  0  0  0  0  0  0  0  0  0  0
    2.6863   -4.8198    5.7064 H   0  0  0  0  0  0  0  0  0  0  0  0
    0.9332   -4.6644    5.6629 H   0  0  0  0  0  0  0  0  0  0  0  0
    2.0788   -2.4438    5.6601 H   0  0  0  0  0  0  0  0  0  0  0  0
    1.0323   -2.6793    4.2593 H   0  0  0  0  0  0  0  0  0  0  0  0
    2.8762   -3.2826    2.8582 H   0  0  0  0  0  0  0  0  0  0  0  0
    4.0168   -3.2564    4.2316 H   0  0  0  0  0  0  0  0  0  0  0  0
    4.1469   -0.9587    4.2621 H   0  0  0  0  0  0  0  0  0  0  0  0
    2.5913   -0.7147    3.4775 H   0  0  0  0  0  0  0  0  0  0  0  0
    4.7151   -0.3180    2.1193 H   0  0  0  0  0  0  0  0  0  0  0  0
    3.3661   -1.1503    1.3688 H   0  0  0  0  0  0  0  0  0  0  0  0
    4.9023   -3.3303    2.2594 H   0  0  0  0  0  0  0  0  0  0  0  0
    6.1459   -2.1675    1.9329 H   0  0  0  0  0  0  0  0  0  0  0  0
    4.1916   -3.9248   -2.4149 H   0  0  0  0  0  0  0  0  0  0  0  0
    5.6047   -3.1182   -3.1393 H   0  0  0  0  0  0  0  0  0  0  0  0
    4.0032   -2.9606   -3.8590 H   0  0  0  0  0  0  0  0  0  0  0  0
    2.5429   -2.5007   -0.8864 H   0  0  0  0  0  0  0  0  0  0  0  0
    2.1947   -2.2874   -2.5774 H   0  0  0  0  0  0  0  0  0  0  0  0
    2.3215   -0.0347   -0.5297 H   0  0  0  0  0  0  0  0  0  0  0  0
    0.9016   -0.7539   -1.2991 H   0  0  0  0  0  0  0  0  0  0  0  0
    2.0252    0.1786   -2.2738 H   0  0  0  0  0  0  0  0  0  0  0  0
    3.8009   -0.3819   -3.7294 H   0  0  0  0  0  0  0  0  0  0  0  0
    5.7752    0.7829   -4.0413 H   0  0  0  0  0  0  0  0  0  0  0  0
    7.8920    0.2547   -3.0684 H   0  0  0  0  0  0  0  0  0  0  0  0
  1  2  1  0  0  0  0
  1 25  1  0  0  0  0
  1 26  1  0  0  0  0
  1 27  1  0  0  0  0
  2  3  1  0  0  0  0
  2 24  2  0  0  0  0
  3  4  1  0  0  0  0
  3 28  1  0  0  0  0
  4  5  1  0  0  0  0
  4 18  2  0  0  0  0
  5  6  1  0  0  0  0
  5 17  1  0  0  0  0
  6  7  1  0  0  0  0
  6 29  1  0  0  0  0
  6 30  1  0  0  0  0
  7  8  1  0  0  0  0
  7 31  1  0  0  0  0
  7 32  1  0  0  0  0
  8  9  1  0  0  0  0
  8 33  1  0  0  0  0
  8 34  1  0  0  0  0
  9 10  1  0  0  0  0
  9 35  1  0  0  0  0
  9 36  1  0  0  0  0
 10 11  1  0  0  0  0
 10 37  1  0  0  0  0
 10 38  1  0  0  0  0
 11 12  1  0  0  0  0
 11 39  1  0  0  0  0
 11 40  1  0  0  0  0
 12 13  1  0  0  0  0
 12 41  1  0  0  0  0
 12 42  1  0  0  0  0
 13 14  1  0  0  0  0
 13 43  1  0  0  0  0
 13 44  1  0  0  0  0
 14 15  1  0  0  0  0
 14 45  1  0  0  0  0
 14 46  1  0  0  0  0
 15 16  1  0  0  0  0
 15 47  1  0  0  0  0
 15 48  1  0  0  0  0
 16 17  1  0  0  0  0
 16 49  1  0  0  0  0
 16 50  1  0  0  0  0
 17 51  1  0  0  0  0
 17 52  1  0  0  0  0
 18 19  1  0  0  0  0
 18 20  1  0  0  0  0
 18 22  1  0  0  0  0
 19 53  1  0  0  0  0
 19 54  1  0  0  0  0
 19 55  1  0  0  0  0
 20 21  1  0  0  0  0
 20 56  1  0  0  0  0
 20 57  1  0  0  0  0
 21 58  1  0  0  0  0
 21 59  1  0  0  0  0
 21 60  1  0  0  0  0
 22 23  2  0  0  0  0
 22 61  1  0  0  0  0
 23 24  1  0  0  0  0
 23 62  1  0  0  0  0
 24 63  1  0  0  0  0
M  END
$$$$
