
 OpenBabel04232217013D

113112  0  0  0  0  0  0  0  0999 V2000
   14.3912   -0.9453    9.6153 O   0  0  0  0  0  0  0  0  0  0  0  0
   13.9238   -0.8414    8.2802 C   0  0  0  0  0  0  0  0  0  0  0  0
   14.4517    0.4450    7.6736 C   0  0  0  0  0  0  0  0  0  0  0  0
   13.9729    0.5926    6.2383 C   0  0  0  0  0  0  0  0  0  0  0  0
   14.5018    1.8816    5.6308 C   0  0  0  0  0  0  0  0  0  0  0  0
   14.0190    2.0215    4.1966 C   0  0  0  0  0  0  0  0  0  0  0  0
   14.5506    3.3098    3.5907 C   0  0  0  0  0  0  0  0  0  0  0  0
   14.0700    3.4485    2.1578 C   0  0  0  0  0  0  0  0  0  0  0  0
   14.5964    4.7342    1.5425 C   0  0  0  0  0  0  0  0  0  0  0  0
   14.1027    4.8513    0.1155 C   0  0  0  0  0  0  0  0  0  0  0  0
   14.5985    6.0562   -0.4485 O   0  0  0  0  0  0  0  0  0  0  0  0
   14.1465    6.1842   -1.7880 C   0  0  0  0  0  0  0  0  0  0  0  0
   14.6891    7.4702   -2.3503 C   0  0  0  0  0  0  0  0  0  0  0  0
   14.2339    7.5899   -3.6930 O   0  0  0  0  0  0  0  0  0  0  0  0
   14.7260    8.7900   -4.2674 C   0  0  0  0  0  0  0  0  0  0  0  0
   16.1423    8.7906   -4.2884 O   0  0  0  0  0  0  0  0  0  0  0  0
   16.6141    9.9935   -4.8472 C   0  0  0  0  0  0  0  0  0  0  0  0
   18.1109    9.9396   -4.8168 C   0  0  0  0  0  0  0  0  0  0  0  0
   18.5366   11.1397   -5.3936 O   0  0  0  0  0  0  0  0  0  0  0  0
   19.9301   11.1657   -5.4019 C   0  0  0  0  0  0  0  0  0  0  0  0
   20.2588   12.3775   -5.9867 O   0  0  0  0  0  0  0  0  0  0  0  0
   21.6614   12.3284   -5.9609 O   0  0  0  0  0  0  0  0  0  0  0  0
   22.1245   13.5093   -6.5283 O   0  0  0  0  0  0  0  0  0  0  0  0
   23.5104   13.4570   -6.5036 O   0  0  0  0  0  0  0  0  0  0  0  0
   23.9433   14.6404   -7.0723 O   0  0  0  0  0  0  0  0  0  0  0  0
   25.3203   14.5958   -7.0508 O   0  0  0  0  0  0  0  0  0  0  0  0
   25.7341   15.7781   -7.6191 O   0  0  0  0  0  0  0  0  0  0  0  0
   27.1061   15.7372   -7.5995 O   0  0  0  0  0  0  0  0  0  0  0  0
   27.5115   16.9184   -8.1673 O   0  0  0  0  0  0  0  0  0  0  0  0
   28.8817   16.8760   -8.1469 O   0  0  0  0  0  0  0  0  0  0  0  0
   29.2811   18.0566   -8.7144 O   0  0  0  0  0  0  0  0  0  0  0  0
   30.6482   18.0106   -8.6923 O   0  0  0  0  0  0  0  0  0  0  0  0
   31.0515   19.1852   -9.2569 O   0  0  0  0  0  0  0  0  0  0  0  0
   32.4149   19.1295   -9.2301 O   0  0  0  0  0  0  0  0  0  0  0  0
   32.8187   20.3034   -9.7944 O   0  0  0  0  0  0  0  0  0  0  0  0
   34.1808   20.2485   -9.7680 O   0  0  0  0  0  0  0  0  0  0  0  0
   34.5788   21.4232  -10.3327 O   0  0  0  0  0  0  0  0  0  0  0  0
   35.9408   21.3699  -10.3071 O   0  0  0  0  0  0  0  0  0  0  0  0
   36.3382   22.5456  -10.8722 O   0  0  0  0  0  0  0  0  0  0  0  0
   37.7007   22.4945  -10.8476 O   0  0  0  0  0  0  0  0  0  0  0  0
   38.0999   23.6699  -11.4127 O   0  0  0  0  0  0  0  0  0  0  0  0
   39.4627   23.6169  -11.3871 O   0  0  0  0  0  0  0  0  0  0  0  0
   39.8615   24.7921  -11.9521 O   0  0  0  0  0  0  0  0  0  0  0  0
   41.2235   24.7390  -11.9265 O   0  0  0  0  0  0  0  0  0  0  0  0
   41.6218   25.9141  -12.4914 O   0  0  0  0  0  0  0  0  0  0  0  0
   42.9837   25.8607  -12.4658 O   0  0  0  0  0  0  0  0  0  0  0  0
   43.3818   27.0357  -13.0306 O   0  0  0  0  0  0  0  0  0  0  0  0
   44.7437   26.9824  -13.0049 O   0  0  0  0  0  0  0  0  0  0  0  0
   45.1418   28.1574  -13.5697 O   0  0  0  0  0  0  0  0  0  0  0  0
   46.5037   28.1041  -13.5441 O   0  0  0  0  0  0  0  0  0  0  0  0
   46.8959   29.2900  -14.1142 O   0  0  0  0  0  0  0  0  0  0  0  0
   48.2637   29.2259  -14.0834 O   0  0  0  0  0  0  0  0  0  0  0  0
   48.6638   30.4015  -14.6484 O   0  0  0  0  0  0  0  0  0  0  0  0
   50.0272   30.3507  -14.6240 O   0  0  0  0  0  0  0  0  0  0  0  0
   50.4222   31.5238  -15.1879 O   0  0  0  0  0  0  0  0  0  0  0  0
   51.7931   31.4731  -15.1635 O   0  0  0  0  0  0  0  0  0  0  0  0
   52.1918   32.6460  -15.7273 O   0  0  0  0  0  0  0  0  0  0  0  0
   53.5536   32.5931  -15.7019 O   0  0  0  0  0  0  0  0  0  0  0  0
   53.9490   33.7696  -16.2675 O   0  0  0  0  0  0  0  0  0  0  0  0
   55.3119   33.7180  -16.2427 O   0  0  0  0  0  0  0  0  0  0  0  0
   55.7122   34.8925  -16.8072 O   0  0  0  0  0  0  0  0  0  0  0  0
   57.0739   34.8360  -16.7801 O   0  0  0  0  0  0  0  0  0  0  0  0
   57.4722   36.0123  -17.3455 O   0  0  0  0  0  0  0  0  0  0  0  0
   58.8327   35.9572  -17.3190 O   0  0  0  0  0  0  0  0  0  0  0  0
   59.2276   37.1322  -17.8838 O   0  0  0  0  0  0  0  0  0  0  0  0
   60.5890   37.0801  -17.8588 O   0  0  0  0  0  0  0  0  0  0  0  0
   60.9886   38.2554  -18.4237 O   0  0  0  0  0  0  0  0  0  0  0  0
   62.3529   38.2036  -18.3988 O   0  0  0  0  0  0  0  0  0  0  0  0
   62.7531   39.3808  -18.9647 O   0  0  0  0  0  0  0  0  0  0  0  0
   64.1195   39.3358  -18.9430 O   0  0  0  0  0  0  0  0  0  0  0  0
   64.5192   40.5163  -19.5105 O   0  0  0  0  0  0  0  0  0  0  0  0
   65.8889   40.4751  -19.4907 O   0  0  0  0  0  0  0  0  0  0  0  0
   66.3001   41.6567  -20.0587 O   0  0  0  0  0  0  0  0  0  0  0  0
   67.6766   41.6095  -20.0360 O   0  0  0  0  0  0  0  0  0  0  0  0
   68.1095   42.7906  -20.6035 O   0  0  0  0  0  0  0  0  0  0  0  0
   69.4964   42.7488  -20.5843 O   0  0  0  0  0  0  0  0  0  0  0  0
   69.9288   43.9407  -21.1601 O   0  0  0  0  0  0  0  0  0  0  0  0
   71.3262   43.9457  -21.1341 O   0  0  0  0  0  0  0  0  0  0  0  0
   71.7643   45.1702  -21.6992 O   0  0  0  0  0  0  0  0  0  0  0  0
   73.1860   45.1569  -21.7442 O   0  0  0  0  0  0  0  0  0  0  0  0
   73.6312   44.0259  -22.5247 O   0  0  0  0  0  0  0  0  0  0  0  0
   14.0375   -1.7764    9.9745 H   0  0  0  0  0  0  0  0  0  0  0  0
   12.8291   -0.8431    8.2876 H   0  0  0  0  0  0  0  0  0  0  0  0
   14.2777   -1.7084    7.7130 H   0  0  0  0  0  0  0  0  0  0  0  0
   15.5483    0.4518    7.7123 H   0  0  0  0  0  0  0  0  0  0  0  0
   14.1232    1.3019    8.2752 H   0  0  0  0  0  0  0  0  0  0  0  0
   12.8762    0.5931    6.2089 H   0  0  0  0  0  0  0  0  0  0  0  0
   14.3121   -0.2634    5.6419 H   0  0  0  0  0  0  0  0  0  0  0  0
   15.5985    1.8835    5.6549 H   0  0  0  0  0  0  0  0  0  0  0  0
   14.1619    2.7405    6.2222 H   0  0  0  0  0  0  0  0  0  0  0  0
   12.9222    2.0216    4.1701 H   0  0  0  0  0  0  0  0  0  0  0  0
   14.3570    1.1629    3.6032 H   0  0  0  0  0  0  0  0  0  0  0  0
   15.6470    3.3094    3.6171 H   0  0  0  0  0  0  0  0  0  0  0  0
   14.2101    4.1681    4.1823 H   0  0  0  0  0  0  0  0  0  0  0  0
   12.9730    3.4452    2.1320 H   0  0  0  0  0  0  0  0  0  0  0  0
   14.4082    2.5875    1.5675 H   0  0  0  0  0  0  0  0  0  0  0  0
   15.6932    4.7507    1.5621 H   0  0  0  0  0  0  0  0  0  0  0  0
   14.2678    5.6038    2.1252 H   0  0  0  0  0  0  0  0  0  0  0  0
   13.0069    4.8660    0.0982 H   0  0  0  0  0  0  0  0  0  0  0  0
   14.4591    3.9996   -0.4752 H   0  0  0  0  0  0  0  0  0  0  0  0
   13.0514    6.1959   -1.8208 H   0  0  0  0  0  0  0  0  0  0  0  0
   14.4949    5.3354   -2.3885 H   0  0  0  0  0  0  0  0  0  0  0  0
   15.7860    7.4558   -2.3139 H   0  0  0  0  0  0  0  0  0  0  0  0
   14.3457    8.3258   -1.7570 H   0  0  0  0  0  0  0  0  0  0  0  0
   14.3555    9.6473   -3.6930 H   0  0  0  0  0  0  0  0  0  0  0  0
   14.3573    8.8556   -5.2949 H   0  0  0  0  0  0  0  0  0  0  0  0
   16.2577   10.8640   -4.2812 H   0  0  0  0  0  0  0  0  0  0  0  0
   16.2615   10.0985   -5.8799 H   0  0  0  0  0  0  0  0  0  0  0  0
   18.4875    9.0875   -5.3936 H   0  0  0  0  0  0  0  0  0  0  0  0
   18.4845    9.8591   -3.7898 H   0  0  0  0  0  0  0  0  0  0  0  0
   20.3464   10.3456   -6.0025 H   0  0  0  0  0  0  0  0  0  0  0  0
   20.3415   11.1280   -4.3840 H   0  0  0  0  0  0  0  0  0  0  0  0
   74.5702   44.2064  -22.3832 H   0  0  0  0  0  0  0  0  0  0  0  0
  1  2  1  0  0  0  0
  1 82  1  0  0  0  0
  2  3  1  0  0  0  0
  2 83  1  0  0  0  0
  2 84  1  0  0  0  0
  3  4  1  0  0  0  0
  3 85  1  0  0  0  0
  3 86  1  0  0  0  0
  4  5  1  0  0  0  0
  4 87  1  0  0  0  0
  4 88  1  0  0  0  0
  5  6  1  0  0  0  0
  5 89  1  0  0  0  0
  5 90  1  0  0  0  0
  6  7  1  0  0  0  0
  6 91  1  0  0  0  0
  6 92  1  0  0  0  0
  7  8  1  0  0  0  0
  7 93  1  0  0  0  0
  7 94  1  0  0  0  0
  8  9  1  0  0  0  0
  8 95  1  0  0  0  0
  8 96  1  0  0  0  0
  9 10  1  0  0  0  0
  9 97  1  0  0  0  0
  9 98  1  0  0  0  0
 10 11  1  0  0  0  0
 10 99  1  0  0  0  0
 10100  1  0  0  0  0
 11 12  1  0  0  0  0
 12 13  1  0  0  0  0
 12101  1  0  0  0  0
 12102  1  0  0  0  0
 13 14  1  0  0  0  0
 13103  1  0  0  0  0
 13104  1  0  0  0  0
 14 15  1  0  0  0  0
 15 16  1  0  0  0  0
 15105  1  0  0  0  0
 15106  1  0  0  0  0
 16 17  1  0  0  0  0
 17 18  1  0  0  0  0
 17107  1  0  0  0  0
 17108  1  0  0  0  0
 18 19  1  0  0  0  0
 18109  1  0  0  0  0
 18110  1  0  0  0  0
 19 20  1  0  0  0  0
 20 21  1  0  0  0  0
 20111  1  0  0  0  0
 20112  1  0  0  0  0
 21 22  1  0  0  0  0
 22 23  1  0  0  0  0
 23 24  1  0  0  0  0
 24 25  1  0  0  0  0
 25 26  1  0  0  0  0
 26 27  1  0  0  0  0
 27 28  1  0  0  0  0
 28 29  1  0  0  0  0
 29 30  1  0  0  0  0
 30 31  1  0  0  0  0
 31 32  1  0  0  0  0
 32 33  1  0  0  0  0
 33 34  1  0  0  0  0
 34 35  1  0  0  0  0
 35 36  1  0  0  0  0
 36 37  1  0  0  0  0
 37 38  1  0  0  0  0
 38 39  1  0  0  0  0
 39 40  1  0  0  0  0
 40 41  1  0  0  0  0
 41 42  1  0  0  0  0
 42 43  1  0  0  0  0
 43 44  1  0  0  0  0
 44 45  1  0  0  0  0
 45 46  1  0  0  0  0
 46 47  1  0  0  0  0
 47 48  1  0  0  0  0
 48 49  1  0  0  0  0
 49 50  1  0  0  0  0
 50 51  1  0  0  0  0
 51 52  1  0  0  0  0
 52 53  1  0  0  0  0
 53 54  1  0  0  0  0
 54 55  1  0  0  0  0
 55 56  1  0  0  0  0
 56 57  1  0  0  0  0
 57 58  1  0  0  0  0
 58 59  1  0  0  0  0
 59 60  1  0  0  0  0
 60 61  1  0  0  0  0
 61 62  1  0  0  0  0
 62 63  1  0  0  0  0
 63 64  1  0  0  0  0
 64 65  1  0  0  0  0
 65 66  1  0  0  0  0
 66 67  1  0  0  0  0
 67 68  1  0  0  0  0
 68 69  1  0  0  0  0
 69 70  1  0  0  0  0
 70 71  1  0  0  0  0
 71 72  1  0  0  0  0
 72 73  1  0  0  0  0
 73 74  1  0  0  0  0
 74 75  1  0  0  0  0
 75 76  1  0  0  0  0
 76 77  1  0  0  0  0
 77 78  1  0  0  0  0
 78 79  1  0  0  0  0
 79 80  1  0  0  0  0
 80 81  1  0  0  0  0
 81113  1  0  0  0  0
M  END
$$$$
