
 OpenBabel04232216433D

 51 53  0  0  0  0  0  0  0  0999 V2000
    8.0946    3.4595    2.5809 C   0  0  0  0  0  0  0  0  0  0  0  0
    6.9894    2.3886    1.5860 C   0  0  0  0  0  0  0  0  0  0  0  0
    5.8886    2.5285    0.7116 C   0  0  0  0  0  0  0  0  0  0  0  0
    6.1452    2.2512   -0.7339 C   0  0  0  0  0  0  0  0  0  0  0  0
    7.0517    3.0752   -1.2594 C   0  0  0  0  0  0  0  0  0  0  0  0
    8.5138    2.8607   -0.9819 C   0  0  0  0  0  0  0  0  0  0  0  0
    9.2801    3.8618   -0.4773 C   0  0  0  0  0  0  0  0  0  0  0  0
    8.3502    5.0559    0.1462 C   0  0  0  0  0  0  0  0  0  0  0  0
   10.8843    4.0952   -0.7327 C   0  0  0  0  0  0  0  0  0  0  0  0
   12.4601    3.5070   -0.0215 C   0  0  0  0  0  0  0  0  0  0  0  0
   13.7968    4.4543    0.7934 C   0  0  0  0  0  0  0  0  0  0  0  0
   13.8620    5.2462    2.1860 C   0  0  0  0  0  0  0  0  0  0  0  0
   15.1430    5.6672    2.8032 N   0  0  0  0  0  0  0  0  0  0  0  0
   16.3011    6.0603    2.3277 C   0  0  0  0  0  0  0  0  0  0  0  0
   17.3566    6.8383    3.2029 C   0  0  0  0  0  0  0  0  0  0  0  0
   17.9274    7.9178    2.5381 C   0  0  0  0  0  0  0  0  0  0  0  0
   17.0555    9.0362    2.2498 C   0  0  0  0  0  0  0  0  0  0  0  0
   15.8755    8.7730    1.6607 C   0  0  0  0  0  0  0  0  0  0  0  0
   14.3744    8.3960    2.1145 C   0  0  0  0  0  0  0  0  0  0  0  0
   13.2800    7.5473    2.4903 C   0  0  0  0  0  0  0  0  0  0  0  0
   12.6928    5.8238    2.7641 C   0  0  0  0  0  0  0  0  0  0  0  0
   10.9763    5.4693   -0.8132 C   0  0  0  0  0  0  0  0  0  0  0  0
   11.1608    5.7449    0.5961 C   0  0  0  0  0  0  0  0  0  0  0  0
   10.6015    6.3612    1.6398 C   0  0  0  0  0  0  0  0  0  0  0  0
   10.9318    5.3818    2.7286 C   0  0  0  0  0  0  0  0  0  0  0  0
    9.9309    4.1240    2.6563 C   0  0  0  0  0  0  0  0  0  0  0  0
    8.2529    2.6176    3.3172 H   0  0  0  0  0  0  0  0  0  0  0  0
    7.4000    4.1251    3.0866 H   0  0  0  0  0  0  0  0  0  0  0  0
    6.6281    1.5570    2.2481 H   0  0  0  0  0  0  0  0  0  0  0  0
    4.9088    1.9586    0.8121 H   0  0  0  0  0  0  0  0  0  0  0  0
    6.0612    1.2140   -1.0599 H   0  0  0  0  0  0  0  0  0  0  0  0
    6.7014    4.1019   -1.0950 H   0  0  0  0  0  0  0  0  0  0  0  0
    8.8870    1.8785   -1.2342 H   0  0  0  0  0  0  0  0  0  0  0  0
    7.3691    4.7229    0.5127 H   0  0  0  0  0  0  0  0  0  0  0  0
    8.1367    5.8586   -0.5616 H   0  0  0  0  0  0  0  0  0  0  0  0
    8.6477    5.4906    1.0890 H   0  0  0  0  0  0  0  0  0  0  0  0
   13.0128    3.0988   -0.8813 H   0  0  0  0  0  0  0  0  0  0  0  0
   12.2624    2.7047    0.6934 H   0  0  0  0  0  0  0  0  0  0  0  0
   14.1787    5.1701    0.0392 H   0  0  0  0  0  0  0  0  0  0  0  0
   14.6149    3.7258    0.9065 H   0  0  0  0  0  0  0  0  0  0  0  0
   16.6145    6.0074    1.2737 H   0  0  0  0  0  0  0  0  0  0  0  0
   16.7730    7.2715    4.0402 H   0  0  0  0  0  0  0  0  0  0  0  0
   19.0116    7.9751    2.3152 H   0  0  0  0  0  0  0  0  0  0  0  0
   17.7598    9.8131    1.8285 H   0  0  0  0  0  0  0  0  0  0  0  0
   15.8625    9.2915    0.7099 H   0  0  0  0  0  0  0  0  0  0  0  0
   13.9713    9.3973    1.8776 H   0  0  0  0  0  0  0  0  0  0  0  0
   12.3515    8.1134    2.4513 H   0  0  0  0  0  0  0  0  0  0  0  0
   10.2056    6.0988   -1.1928 H   0  0  0  0  0  0  0  0  0  0  0  0
   11.5589    4.8335    1.0232 H   0  0  0  0  0  0  0  0  0  0  0  0
    9.9703    7.2041    1.6949 H   0  0  0  0  0  0  0  0  0  0  0  0
   10.4173    3.1629    2.5907 H   0  0  0  0  0  0  0  0  0  0  0  0
  1  2  1  0  0  0  0
  1 26  1  0  0  0  0
  1 27  1  0  0  0  0
  1 28  1  0  0  0  0
  2  3  2  3  0  0  0
  2 29  1  0  0  0  0
  3  4  1  0  0  0  0
  3 30  1  0  0  0  0
  4  5  2  3  0  0  0
  4 31  1  0  0  0  0
  5  6  1  0  0  0  0
  5 32  1  0  0  0  0
  6  7  2  3  0  0  0
  6 33  1  0  0  0  0
  7  8  1  0  0  0  0
  7  9  1  0  0  0  0
  8 34  1  0  0  0  0
  8 35  1  0  0  0  0
  8 36  1  0  0  0  0
  9 10  1  0  0  0  0
  9 22  2  3  0  0  0
 10 11  1  0  0  0  0
 10 37  1  0  0  0  0
 10 38  1  0  0  0  0
 11 12  1  0  0  0  0
 11 39  1  0  0  0  0
 11 40  1  0  0  0  0
 12 13  1  0  0  0  0
 12 21  2  0  0  0  0
 13 14  2  0  0  0  0
 14 15  1  0  0  0  0
 14 41  1  0  0  0  0
 15 16  2  0  0  0  0
 15 42  1  0  0  0  0
 16 17  1  0  0  0  0
 16 43  1  0  0  0  0
 17 18  2  0  0  0  0
 17 44  1  0  0  0  0
 18 19  1  0  0  0  0
 18 45  1  0  0  0  0
 19 20  2  0  0  0  0
 19 46  1  0  0  0  0
 20 21  1  0  0  0  0
 20 47  1  0  0  0  0
 21 25  1  0  0  0  0
 22 23  1  0  0  0  0
 22 48  1  0  0  0  0
 23 24  2  3  0  0  0
 23 49  1  0  0  0  0
 24 25  1  0  0  0  0
 24 50  1  0  0  0  0
 25 26  2  3  0  0  0
 26 51  1  0  0  0  0
M  END
$$$$
