
 OpenBabel04232216573D

 43 43  0  0  0  0  0  0  0  0999 V2000
   -2.5695    1.4823   -2.7236 C   0  0  0  0  0  0  0  0  0  0  0  0
   -1.3953    1.4123   -1.9233 O   0  0  0  0  0  0  0  0  0  0  0  0
   -0.3126    2.1928   -2.2810 C   0  0  0  0  0  0  0  0  0  0  0  0
   -0.2849    3.0361   -3.3229 C   0  0  0  0  0  0  0  0  0  0  0  0
    0.7929    3.8722   -3.7792 C   0  0  0  0  0  0  0  0  0  0  0  0
    2.0221    4.0781   -3.2748 C   0  0  0  0  0  0  0  0  0  0  0  0
    2.8853    4.9482   -3.9168 N   0  0  0  0  0  0  0  0  0  0  0  0
    4.2205    5.2797   -3.4660 C   0  0  0  0  0  0  0  0  0  0  0  0
    4.8462    6.3446   -4.3628 C   0  0  0  0  0  0  0  0  0  0  0  0
    4.0514    7.6509   -4.3327 C   0  0  0  0  0  0  0  0  0  0  0  0
    4.6935    8.7213   -5.2086 C   0  0  0  0  0  0  0  0  0  0  0  0
    3.8631   10.0035   -5.1772 C   0  0  0  0  0  0  0  0  0  0  0  0
    4.4929   11.0811   -6.0533 C   0  0  0  0  0  0  0  0  0  0  0  0
    3.6715   12.3674   -6.0271 C   0  0  0  0  0  0  0  0  0  0  0  0
    4.3080   13.4355   -6.9018 C   0  0  0  0  0  0  0  0  0  0  0  0
    2.5548    3.5072   -2.1415 O   0  0  0  0  0  0  0  0  0  0  0  0
    1.9933    2.5536   -1.3546 C   0  0  0  0  0  0  0  0  0  0  0  0
    0.7881    1.9719   -1.3794 C   0  0  0  0  0  0  0  0  0  0  0  0
   -3.3171    0.8132   -2.2893 H   0  0  0  0  0  0  0  0  0  0  0  0
   -2.3657    1.1430   -3.7449 H   0  0  0  0  0  0  0  0  0  0  0  0
   -2.9847    2.4957   -2.7213 H   0  0  0  0  0  0  0  0  0  0  0  0
   -1.1646    3.1415   -3.9519 H   0  0  0  0  0  0  0  0  0  0  0  0
    0.5278    4.4286   -4.6771 H   0  0  0  0  0  0  0  0  0  0  0  0
    2.5959    5.2759   -4.8307 H   0  0  0  0  0  0  0  0  0  0  0  0
    4.8471    4.3811   -3.4807 H   0  0  0  0  0  0  0  0  0  0  0  0
    4.1853    5.6479   -2.4334 H   0  0  0  0  0  0  0  0  0  0  0  0
    4.9126    5.9722   -5.3928 H   0  0  0  0  0  0  0  0  0  0  0  0
    5.8713    6.5325   -4.0213 H   0  0  0  0  0  0  0  0  0  0  0  0
    3.9803    8.0127   -3.2999 H   0  0  0  0  0  0  0  0  0  0  0  0
    3.0274    7.4775   -4.6834 H   0  0  0  0  0  0  0  0  0  0  0  0
    4.7725    8.3571   -6.2402 H   0  0  0  0  0  0  0  0  0  0  0  0
    5.7115    8.9273   -4.8570 H   0  0  0  0  0  0  0  0  0  0  0  0
    3.7819   10.3646   -4.1446 H   0  0  0  0  0  0  0  0  0  0  0  0
    2.8444    9.7921   -5.5256 H   0  0  0  0  0  0  0  0  0  0  0  0
    4.5716   10.7155   -7.0845 H   0  0  0  0  0  0  0  0  0  0  0  0
    5.5119   11.2874   -5.7044 H   0  0  0  0  0  0  0  0  0  0  0  0
    3.5925   12.7403   -4.9995 H   0  0  0  0  0  0  0  0  0  0  0  0
    2.6531   12.1690   -6.3804 H   0  0  0  0  0  0  0  0  0  0  0  0
    5.3180   13.6731   -6.5537 H   0  0  0  0  0  0  0  0  0  0  0  0
    3.7120   14.3530   -6.8762 H   0  0  0  0  0  0  0  0  0  0  0  0
    4.3734   13.0995   -7.9416 H   0  0  0  0  0  0  0  0  0  0  0  0
    2.7189    2.2822   -0.5951 H   0  0  0  0  0  0  0  0  0  0  0  0
    0.5960    1.2293   -0.6068 H   0  0  0  0  0  0  0  0  0  0  0  0
  1  2  1  0  0  0  0
  1 19  1  0  0  0  0
  1 20  1  0  0  0  0
  1 21  1  0  0  0  0
  2  3  1  0  0  0  0
  3  4  2  0  0  0  0
  3 18  1  0  0  0  0
  4  5  1  0  0  0  0
  4 22  1  0  0  0  0
  5  6  2  0  0  0  0
  5 23  1  0  0  0  0
  6  7  1  0  0  0  0
  6 16  1  0  0  0  0
  7  8  1  0  0  0  0
  7 24  1  0  0  0  0
  8  9  1  0  0  0  0
  8 25  1  0  0  0  0
  8 26  1  0  0  0  0
  9 10  1  0  0  0  0
  9 27  1  0  0  0  0
  9 28  1  0  0  0  0
 10 11  1  0  0  0  0
 10 29  1  0  0  0  0
 10 30  1  0  0  0  0
 11 12  1  0  0  0  0
 11 31  1  0  0  0  0
 11 32  1  0  0  0  0
 12 13  1  0  0  0  0
 12 33  1  0  0  0  0
 12 34  1  0  0  0  0
 13 14  1  0  0  0  0
 13 35  1  0  0  0  0
 13 36  1  0  0  0  0
 14 15  1  0  0  0  0
 14 37  1  0  0  0  0
 14 38  1  0  0  0  0
 15 39  1  0  0  0  0
 15 40  1  0  0  0  0
 15 41  1  0  0  0  0
 16 17  1  0  0  0  0
 17 18  2  0  0  0  0
 17 42  1  0  0  0  0
 18 43  1  0  0  0  0
M  END
$$$$
