
 OpenBabel04232216513D

 57 58  0  0  0  0  0  0  0  0999 V2000
    3.8847   -0.7502    2.3680 C   0  0  0  0  0  0  0  0  0  0  0  0
    5.3216   -0.5187    3.0216 C   0  0  0  0  0  0  0  0  0  0  0  0
    6.4171   -1.6865    3.3626 C   0  0  0  0  0  0  0  0  0  0  0  0
    6.3814   -2.5521    2.1829 C   0  0  0  0  0  0  0  0  0  0  0  0
    6.9373   -2.0559    1.0010 N   0  0  0  0  0  0  0  0  0  0  0  0
    5.6794   -3.7208    2.2216 C   0  0  0  0  0  0  0  0  0  0  0  0
    4.5160   -3.9043    3.2145 C   0  0  0  0  0  0  0  0  0  0  0  0
    3.1459   -4.3231    2.6440 C   0  0  0  0  0  0  0  0  0  0  0  0
    2.9981   -5.7915    2.2631 C   0  0  0  0  0  0  0  0  0  0  0  0
    3.3676   -6.7404    3.3861 C   0  0  0  0  0  0  0  0  0  0  0  0
    6.5450   -4.8599    1.8362 C   0  0  0  0  0  0  0  0  0  0  0  0
    7.0890   -5.5283    2.8721 C   0  0  0  0  0  0  0  0  0  0  0  0
    8.5382   -5.6647    3.1768 C   0  0  0  0  0  0  0  0  0  0  0  0
    9.5081   -4.8202    2.2999 C   0  0  0  0  0  0  0  0  0  0  0  0
    8.7425   -5.5402    4.5166 C   0  0  0  0  0  0  0  0  0  0  0  0
    9.8742   -6.4913    5.2648 C   0  0  0  0  0  0  0  0  0  0  0  0
   11.1799   -5.9430    5.6091 O   0  0  0  0  0  0  0  0  0  0  0  0
   11.5717   -5.6894    6.9936 C   0  0  0  0  0  0  0  0  0  0  0  0
   11.9532   -4.1325    7.1482 C   0  0  0  0  0  0  0  0  0  0  0  0
   10.7460   -3.4076    6.5166 C   0  0  0  0  0  0  0  0  0  0  0  0
    9.8966   -2.1892    5.8177 C   0  0  0  0  0  0  0  0  0  0  0  0
    8.8080   -4.1130    4.8362 C   0  0  0  0  0  0  0  0  0  0  0  0
    8.5111   -2.7804    4.9472 C   0  0  0  0  0  0  0  0  0  0  0  0
    7.2761   -1.8620    4.4689 C   0  0  0  0  0  0  0  0  0  0  0  0
    3.6110    0.1052    1.7238 H   0  0  0  0  0  0  0  0  0  0  0  0
    3.0778   -0.8073    3.1111 H   0  0  0  0  0  0  0  0  0  0  0  0
    3.7971   -1.6173    1.7048 H   0  0  0  0  0  0  0  0  0  0  0  0
    5.1811    0.1536    3.8702 H   0  0  0  0  0  0  0  0  0  0  0  0
    5.8025    0.0937    2.2411 H   0  0  0  0  0  0  0  0  0  0  0  0
    6.2234   -2.0687    0.2677 H   0  0  0  0  0  0  0  0  0  0  0  0
    7.2727   -1.1004    1.1060 H   0  0  0  0  0  0  0  0  0  0  0  0
    4.2974   -2.9428    3.6916 H   0  0  0  0  0  0  0  0  0  0  0  0
    4.7907   -4.5338    4.0561 H   0  0  0  0  0  0  0  0  0  0  0  0
    2.8637   -3.7006    1.7864 H   0  0  0  0  0  0  0  0  0  0  0  0
    2.3954   -4.1072    3.4194 H   0  0  0  0  0  0  0  0  0  0  0  0
    3.5920   -6.0108    1.3697 H   0  0  0  0  0  0  0  0  0  0  0  0
    1.9473   -5.9700    1.9958 H   0  0  0  0  0  0  0  0  0  0  0  0
    4.4391   -6.6779    3.6228 H   0  0  0  0  0  0  0  0  0  0  0  0
    3.1584   -7.7702    3.1039 H   0  0  0  0  0  0  0  0  0  0  0  0
    2.8090   -6.5080    4.3013 H   0  0  0  0  0  0  0  0  0  0  0  0
    7.1781   -4.6576    0.9528 H   0  0  0  0  0  0  0  0  0  0  0  0
    6.4974   -5.5880    3.7917 H   0  0  0  0  0  0  0  0  0  0  0  0
    9.1044   -3.8197    2.0880 H   0  0  0  0  0  0  0  0  0  0  0  0
    9.7597   -5.3144    1.3691 H   0  0  0  0  0  0  0  0  0  0  0  0
   10.4654   -4.6249    2.8193 H   0  0  0  0  0  0  0  0  0  0  0  0
   10.1274   -7.2532    4.5170 H   0  0  0  0  0  0  0  0  0  0  0  0
    9.4424   -7.0493    6.1084 H   0  0  0  0  0  0  0  0  0  0  0  0
   12.4572   -6.3046    7.2297 H   0  0  0  0  0  0  0  0  0  0  0  0
   10.7889   -5.9790    7.7065 H   0  0  0  0  0  0  0  0  0  0  0  0
   12.8794   -3.9958    6.5616 H   0  0  0  0  0  0  0  0  0  0  0  0
   12.1875   -3.8797    8.1862 H   0  0  0  0  0  0  0  0  0  0  0  0
    9.9370   -3.9926    6.9700 H   0  0  0  0  0  0  0  0  0  0  0  0
   11.1997   -3.6860    5.5596 H   0  0  0  0  0  0  0  0  0  0  0  0
   10.5504   -1.7247    5.0656 H   0  0  0  0  0  0  0  0  0  0  0  0
    9.5933   -1.4672    6.5721 H   0  0  0  0  0  0  0  0  0  0  0  0
    9.8575   -4.1756    4.8123 H   0  0  0  0  0  0  0  0  0  0  0  0
    7.1120   -1.1238    5.2609 H   0  0  0  0  0  0  0  0  0  0  0  0
  1  2  1  0  0  0  0
  1 25  1  0  0  0  0
  1 26  1  0  0  0  0
  1 27  1  0  0  0  0
  2  3  1  0  0  0  0
  2 28  1  0  0  0  0
  2 29  1  0  0  0  0
  3  4  1  0  0  0  0
  3 24  2  0  0  0  0
  4  5  1  0  0  0  0
  4  6  2  0  0  0  0
  5 30  1  0  0  0  0
  5 31  1  0  0  0  0
  6  7  1  0  0  0  0
  6 11  1  0  0  0  0
  7  8  1  0  0  0  0
  7 32  1  0  0  0  0
  7 33  1  0  0  0  0
  8  9  1  0  0  0  0
  8 34  1  0  0  0  0
  8 35  1  0  0  0  0
  9 10  1  0  0  0  0
  9 36  1  0  0  0  0
  9 37  1  0  0  0  0
 10 38  1  0  0  0  0
 10 39  1  0  0  0  0
 10 40  1  0  0  0  0
 11 12  2  0  0  0  0
 11 41  1  0  0  0  0
 12 13  1  0  0  0  0
 12 42  1  0  0  0  0
 13 14  1  0  0  0  0
 13 15  2  0  0  0  0
 14 43  1  0  0  0  0
 14 44  1  0  0  0  0
 14 45  1  0  0  0  0
 15 16  1  0  0  0  0
 15 22  1  0  0  0  0
 16 17  1  0  0  0  0
 16 46  1  0  0  0  0
 16 47  1  0  0  0  0
 17 18  1  0  0  0  0
 18 19  1  0  0  0  0
 18 48  1  0  0  0  0
 18 49  1  0  0  0  0
 19 20  1  0  0  0  0
 19 50  1  0  0  0  0
 19 51  1  0  0  0  0
 20 21  1  0  0  0  0
 20 52  1  0  0  0  0
 20 53  1  0  0  0  0
 21 23  1  0  0  0  0
 21 54  1  0  0  0  0
 21 55  1  0  0  0  0
 22 23  2  0  0  0  0
 22 56  1  0  0  0  0
 23 24  1  0  0  0  0
 24 57  1  0  0  0  0
M  END
$$$$
