
 OpenBabel04232216553D

 46 47  0  0  0  0  0  0  0  0999 V2000
    3.1874    0.0836    1.3811 C   0  0  0  0  0  0  0  0  0  0  0  0
    4.3654    0.1172    0.4758 N   0  0  0  0  0  0  0  0  0  0  0  0
    4.0007    0.0140   -0.8641 C   0  0  0  0  0  3  0  0  0  0  0  0
    4.8985   -0.4790   -1.8765 C   0  0  0  0  0  0  0  0  0  0  0  0
    5.5265    0.7797   -2.4436 C   0  0  0  0  0  0  0  0  0  0  0  0
    5.1381   -2.0403   -1.8926 C   0  0  0  0  0  0  0  0  0  0  0  0
    4.5819   -2.7192   -0.5506 C   0  0  0  0  0  0  0  0  0  0  0  0
    4.3357   -4.1345   -0.5173 O   0  0  0  0  0  0  0  0  0  0  0  0
    3.7168   -4.4056    0.7909 N   0  0  0  0  0  0  0  0  0  0  0  0
    4.2593   -2.7181   -3.0000 C   0  0  0  0  0  0  0  0  0  0  0  0
    4.7134   -2.6658   -4.4417 C   0  0  0  0  0  0  0  0  0  0  0  0
    5.2078   -3.8276   -5.0529 C   0  0  0  0  0  0  0  0  0  0  0  0
    5.5378   -3.8226   -6.4075 C   0  0  0  0  0  0  0  0  0  0  0  0
    5.3803   -2.6588   -7.1572 C   0  0  0  0  0  0  0  0  0  0  0  0
    4.9041   -1.4915   -6.5438 C   0  0  0  0  0  0  0  0  0  0  0  0
    4.5769   -1.4957   -5.1895 C   0  0  0  0  0  0  0  0  0  0  0  0
    6.5146   -2.4894   -2.1633 N   0  0  0  0  0  0  0  0  0  0  0  0
    7.4738   -2.7131   -1.3903 C   0  0  0  0  0  0  0  0  0  0  0  0
    8.5026   -3.4010   -1.9015 O   0  0  0  0  0  0  0  0  0  0  0  0
    7.7714   -2.4352    0.0459 C   0  0  0  0  0  0  0  0  0  0  0  0
    7.9935   -1.1387    0.3175 C   0  0  0  0  0  0  0  0  0  0  0  0
    6.8585   -0.2104    0.3322 C   0  0  0  0  0  0  0  0  0  0  0  0
    5.6574   -0.2941    0.9304 C   0  0  0  0  0  0  0  0  0  0  0  0
    2.5911   -0.8124    1.1885 H   0  0  0  0  0  0  0  0  0  0  0  0
    2.5514    0.9528    1.1607 H   0  0  0  0  0  0  0  0  0  0  0  0
    3.4808    0.1131    2.4236 H   0  0  0  0  0  0  0  0  0  0  0  0
    2.9397    0.0744   -1.1170 H   0  0  0  0  0  0  0  0  0  0  0  0
    4.7652    1.4055   -2.9354 H   0  0  0  0  0  0  0  0  0  0  0  0
    6.3889    0.6644   -3.0916 H   0  0  0  0  0  0  0  0  0  0  0  0
    5.8327    1.4611   -1.6274 H   0  0  0  0  0  0  0  0  0  0  0  0
    3.6110   -2.2779   -0.3180 H   0  0  0  0  0  0  0  0  0  0  0  0
    5.2477   -2.5426    0.2812 H   0  0  0  0  0  0  0  0  0  0  0  0
    4.1620   -5.2820    1.0609 H   0  0  0  0  0  0  0  0  0  0  0  0
    2.7554   -4.6293    0.5309 H   0  0  0  0  0  0  0  0  0  0  0  0
    3.2255   -2.3550   -2.9371 H   0  0  0  0  0  0  0  0  0  0  0  0
    4.1861   -3.7917   -2.7722 H   0  0  0  0  0  0  0  0  0  0  0  0
    5.3307   -4.7475   -4.4821 H   0  0  0  0  0  0  0  0  0  0  0  0
    5.9042   -4.7304   -6.8826 H   0  0  0  0  0  0  0  0  0  0  0  0
    5.6187   -2.6499   -8.2093 H   0  0  0  0  0  0  0  0  0  0  0  0
    4.7873   -0.5826   -7.1319 H   0  0  0  0  0  0  0  0  0  0  0  0
    4.2012   -0.5927   -4.7261 H   0  0  0  0  0  0  0  0  0  0  0  0
    8.2204   -3.6756   -2.7981 H   0  0  0  0  0  0  0  0  0  0  0  0
    7.1401   -3.0556    0.6934 H   0  0  0  0  0  0  0  0  0  0  0  0
    8.7381   -0.6883   -0.3497 H   0  0  0  0  0  0  0  0  0  0  0  0
    6.9887    0.5073   -0.4794 H   0  0  0  0  0  0  0  0  0  0  0  0
    5.5365   -0.9698    1.7895 H   0  0  0  0  0  0  0  0  0  0  0  0
  1  2  1  0  0  0  0
  1 24  1  0  0  0  0
  1 25  1  0  0  0  0
  1 26  1  0  0  0  0
  2  3  1  0  0  0  0
  2 23  1  0  0  0  0
  3  4  1  0  0  0  0
  3 27  1  0  0  0  0
  4  5  1  0  0  0  0
  4  6  2  0  0  0  0
  5 28  1  0  0  0  0
  5 29  1  0  0  0  0
  5 30  1  0  0  0  0
  6  7  1  0  0  0  0
  6 10  1  0  0  0  0
  6 17  1  0  0  0  0
  7  8  1  0  0  0  0
  7 31  1  0  0  0  0
  7 32  1  0  0  0  0
  8  9  1  0  0  0  0
  9 33  1  0  0  0  0
  9 34  1  0  0  0  0
 10 11  1  0  0  0  0
 10 35  1  0  0  0  0
 10 36  1  0  0  0  0
 11 12  1  0  0  0  0
 11 16  2  0  0  0  0
 12 13  2  0  0  0  0
 12 37  1  0  0  0  0
 13 14  1  0  0  0  0
 13 38  1  0  0  0  0
 14 15  2  0  0  0  0
 14 39  1  0  0  0  0
 15 16  1  0  0  0  0
 15 40  1  0  0  0  0
 16 41  1  0  0  0  0
 17 18  2  3  0  0  0
 18 19  1  0  0  0  0
 18 20  1  0  0  0  0
 19 42  1  0  0  0  0
 20 21  2  3  0  0  0
 20 43  1  0  0  0  0
 21 22  1  0  0  0  0
 21 44  1  0  0  0  0
 22 23  2  3  0  0  0
 22 45  1  0  0  0  0
 23 46  1  0  0  0  0
M  END
$$$$
