
 OpenBabel04232216503D

 59 60  0  0  1  0  0  0  0  0999 V2000
    6.0810   -2.0406   -3.3010 C   0  0  0  0  0  0  0  0  0  0  0  0
    6.7517   -0.8110   -4.3258 C   0  0  3  0  0  0  0  0  0  0  0  0
    5.2028    0.0864   -4.1108 C   0  0  0  0  0  0  0  0  0  0  0  0
    4.9687    0.8137   -2.6369 C   0  0  0  0  0  0  0  0  0  0  0  0
    5.4891    2.2309   -2.7293 C   0  0  0  0  0  0  0  0  0  0  0  0
    6.9715    2.0634   -2.5765 C   0  0  0  0  0  0  0  0  0  0  0  0
    7.4181    2.0828   -3.9732 C   0  0  0  0  0  0  0  0  0  0  0  0
    8.8365    1.7415   -3.9021 C   0  0  0  0  0  0  0  0  0  0  0  0
    9.2553    2.1405   -5.2420 C   0  0  0  0  0  0  0  0  0  0  0  0
   10.6926    2.2400   -4.9935 C   0  0  0  0  0  0  0  0  0  0  0  0
   11.2387    2.8814   -6.1603 C   0  0  0  0  0  0  0  0  0  0  0  0
   12.6990    2.5867   -5.9571 C   0  0  0  0  0  0  0  0  0  0  0  0
   13.3832    2.7531   -7.2254 N   0  0  0  0  0  0  0  0  0  0  0  0
   13.1796    1.5397   -7.8084 C   0  0  0  0  0  0  0  0  0  0  0  0
   14.0860    0.7265   -7.8472 O   0  0  0  0  0  0  0  0  0  0  0  0
   11.7069    1.4465   -8.4557 C   0  0  0  0  0  0  0  0  0  0  0  0
   10.7948    0.3175   -8.2850 C   0  0  0  0  0  0  0  0  0  0  0  0
   11.9553   -0.5295   -9.1908 C   0  0  0  0  0  0  0  0  0  0  0  0
   12.1234   -1.7249   -8.9413 O   0  0  0  0  0  0  0  0  0  0  0  0
   13.0911    0.2080  -10.3443 C   0  0  0  0  0  0  0  0  0  0  0  0
   13.0537    1.6941  -10.6716 C   0  0  0  0  0  0  0  0  0  0  0  0
   12.0275    2.3318   -9.7408 C   0  0  0  0  0  0  0  0  0  0  0  0
    9.7469   -0.4908   -6.8400 C   0  0  0  0  0  0  0  0  0  0  0  0
    8.0762   -0.9741   -5.7009 C   0  0  0  0  0  0  0  0  0  0  0  0
    5.2901   -1.5972   -2.6262 H   0  0  0  0  0  0  0  0  0  0  0  0
    6.7207   -2.3764   -2.4822 H   0  0  0  0  0  0  0  0  0  0  0  0
    5.4447   -2.7992   -3.7646 H   0  0  0  0  0  0  0  0  0  0  0  0
    7.3587   -0.4025   -3.5340 H   0  0  0  0  0  0  0  0  0  0  0  0
    4.9444    0.7666   -4.9196 H   0  0  0  0  0  0  0  0  0  0  0  0
    4.3524   -0.6243   -4.0995 H   0  0  0  0  0  0  0  0  0  0  0  0
    5.4619    0.2846   -1.8119 H   0  0  0  0  0  0  0  0  0  0  0  0
    3.9230    0.8942   -2.3155 H   0  0  0  0  0  0  0  0  0  0  0  0
    5.1188    2.9593   -2.0242 H   0  0  0  0  0  0  0  0  0  0  0  0
    5.2096    2.6098   -3.7207 H   0  0  0  0  0  0  0  0  0  0  0  0
    7.2777    1.1342   -2.0670 H   0  0  0  0  0  0  0  0  0  0  0  0
    7.4364    2.8688   -2.0000 H   0  0  0  0  0  0  0  0  0  0  0  0
    7.2237    3.0646   -4.4059 H   0  0  0  0  0  0  0  0  0  0  0  0
    6.9460    1.4042   -4.6895 H   0  0  0  0  0  0  0  0  0  0  0  0
    9.0818    0.7004   -3.6631 H   0  0  0  0  0  0  0  0  0  0  0  0
    9.3069    2.3491   -3.1183 H   0  0  0  0  0  0  0  0  0  0  0  0
    8.8443    3.1025   -5.5965 H   0  0  0  0  0  0  0  0  0  0  0  0
    8.9186    1.4327   -6.0114 H   0  0  0  0  0  0  0  0  0  0  0  0
   11.0894    1.2253   -4.7865 H   0  0  0  0  0  0  0  0  0  0  0  0
   10.9327    2.8556   -4.1283 H   0  0  0  0  0  0  0  0  0  0  0  0
   10.9745    3.8974   -6.3306 H   0  0  0  0  0  0  0  0  0  0  0  0
   10.7192    2.4299   -7.0199 H   0  0  0  0  0  0  0  0  0  0  0  0
   12.8691    1.5814   -5.6524 H   0  0  0  0  0  0  0  0  0  0  0  0
   13.0957    3.2455   -5.1725 H   0  0  0  0  0  0  0  0  0  0  0  0
   12.9078    3.5919   -7.6309 H   0  0  0  0  0  0  0  0  0  0  0  0
   13.1174   -0.3361  -11.2958 H   0  0  0  0  0  0  0  0  0  0  0  0
   14.1266    0.0530   -9.9693 H   0  0  0  0  0  0  0  0  0  0  0  0
   12.8376    1.9356  -11.7342 H   0  0  0  0  0  0  0  0  0  0  0  0
   14.0594    2.1843  -10.5649 H   0  0  0  0  0  0  0  0  0  0  0  0
   11.1696    2.6787  -10.2740 H   0  0  0  0  0  0  0  0  0  0  0  0
   12.5275    3.2827   -9.4434 H   0  0  0  0  0  0  0  0  0  0  0  0
   10.5019   -0.4309   -6.0351 H   0  0  0  0  0  0  0  0  0  0  0  0
    9.8530   -1.5290   -7.2393 H   0  0  0  0  0  0  0  0  0  0  0  0
    8.8203   -1.1817   -4.9149 H   0  0  0  0  0  0  0  0  0  0  0  0
    7.9122   -1.9847   -6.0655 H   0  0  0  0  0  0  0  0  0  0  0  0
  1  2  1  0  0  0  0
  1 25  1  0  0  0  0
  1 26  1  0  0  0  0
  1 27  1  0  0  0  0
  2  3  1  0  0  0  0
  2 24  1  0  0  0  0
  2 28  1  0  0  0  0
  3  4  1  0  0  0  0
  3 29  1  0  0  0  0
  3 30  1  0  0  0  0
  4  5  1  0  0  0  0
  4 31  1  0  0  0  0
  4 32  1  0  0  0  0
  5  6  1  0  0  0  0
  5 33  1  0  0  0  0
  5 34  1  0  0  0  0
  6  7  1  0  0  0  0
  6 35  1  0  0  0  0
  6 36  1  0  0  0  0
  7  8  1  0  0  0  0
  7 37  1  0  0  0  0
  7 38  1  0  0  0  0
  8  9  1  0  0  0  0
  8 39  1  0  0  0  0
  8 40  1  0  0  0  0
  9 10  1  0  0  0  0
  9 41  1  0  0  0  0
  9 42  1  0  0  0  0
 10 11  1  0  0  0  0
 10 43  1  0  0  0  0
 10 44  1  0  0  0  0
 11 12  1  0  0  0  0
 11 45  1  0  0  0  0
 11 46  1  0  0  0  0
 12 13  1  0  0  0  0
 12 47  1  0  0  0  0
 12 48  1  0  0  0  0
 13 14  1  0  0  0  0
 13 49  1  0  0  0  0
 14 15  2  0  0  0  0
 14 16  1  0  0  0  0
 16 17  2  0  0  0  0
 16 22  1  0  0  0  0
 17 18  1  0  0  0  0
 17 23  1  0  0  0  0
 18 19  2  0  0  0  0
 18 20  1  0  0  0  0
 20 21  1  0  0  0  0
 20 50  1  0  0  0  0
 20 51  1  0  0  0  0
 21 22  1  0  0  0  0
 21 52  1  0  0  0  0
 21 53  1  0  0  0  0
 22 54  1  0  0  0  0
 22 55  1  0  0  0  0
 23 24  1  0  0  0  0
 23 56  1  0  0  0  0
 23 57  1  0  0  0  0
 24 58  1  0  0  0  0
 24 59  1  0  0  0  0
M  END
$$$$
