
 OpenBabel04232216583D

154153  0  0  0  0  0  0  0  0999 V2000
   17.8542   -4.2660   23.5917 N   0  0  0  0  0  0  0  0  0  0  0  0
   19.2753   -4.4301   23.7373 N   0  0  0  0  0  0  0  0  0  0  0  0
   19.6126   -5.7806   24.0802 N   0  0  0  0  0  0  0  0  0  0  0  0
   19.1802   -6.7030   23.0654 N   0  0  0  0  0  0  0  0  0  0  0  0
   19.7947   -6.3668   21.8176 N   0  0  0  0  0  0  0  0  0  0  0  0
   21.2322   -6.5058   21.9476 N   0  0  0  0  0  0  0  0  0  0  0  0
   21.5687   -7.8443   22.3617 N   0  0  0  0  0  0  0  0  0  0  0  0
   21.0915   -8.7597   21.3645 N   0  0  0  0  0  0  0  0  0  0  0  0
   21.7228   -8.4793   20.0790 N   0  0  0  0  0  0  0  0  0  0  0  0
   23.1456   -8.5407   20.2283 N   0  0  0  0  0  0  0  0  0  0  0  0
   23.4889   -9.8635   20.6511 N   0  0  0  0  0  0  0  0  0  0  0  0
   23.0319  -10.8002   19.6534 N   0  0  0  0  0  0  0  0  0  0  0  0
   23.5977  -10.4780   18.3827 N   0  0  0  0  0  0  0  0  0  0  0  0
   25.0314  -10.5735   18.4723 N   0  0  0  0  0  0  0  0  0  0  0  0
   25.4167  -11.8943   18.8753 N   0  0  0  0  0  0  0  0  0  0  0  0
   24.9380  -12.8440   17.9287 N   0  0  0  0  0  0  0  0  0  0  0  0
   25.5158  -12.5718   16.6385 N   0  0  0  0  0  0  0  0  0  0  0  0
   26.9420  -12.6036   16.7450 N   0  0  0  0  0  0  0  0  0  0  0  0
   27.3258  -13.9237   17.1682 N   0  0  0  0  0  0  0  0  0  0  0  0
   26.8597  -14.9010   16.2160 N   0  0  0  0  0  0  0  0  0  0  0  0
   27.3891  -14.5973   14.9289 N   0  0  0  0  0  0  0  0  0  0  0  0
   28.8203  -14.6699   14.9816 N   0  0  0  0  0  0  0  0  0  0  0  0
   29.2530  -15.9863   15.4050 N   0  0  0  0  0  0  0  0  0  0  0  0
   28.7668  -16.9627   14.4978 N   0  0  0  0  0  0  0  0  0  0  0  0
   29.3068  -16.6870   13.2124 N   0  0  0  0  0  0  0  0  0  0  0  0
   30.7348  -16.6808   13.2834 N   0  0  0  0  0  0  0  0  0  0  0  0
   31.1722  -17.9784   13.7086 N   0  0  0  0  0  0  0  0  0  0  0  0
   30.6883  -18.9807   12.7971 N   0  0  0  0  0  0  0  0  0  0  0  0
   31.2337  -18.7547   11.4714 N   0  0  0  0  0  0  0  0  0  0  0  0
   32.6500  -18.7191   11.5380 N   0  0  0  0  0  0  0  0  0  0  0  0
   33.0962  -20.0123   11.9756 N   0  0  0  0  0  0  0  0  0  0  0  0
   32.6188  -21.0373   11.0706 N   0  0  0  0  0  0  0  0  0  0  0  0
   33.1110  -20.7709    9.7553 N   0  0  0  0  0  0  0  0  0  0  0  0
   34.5523  -20.7974    9.7569 N   0  0  0  0  0  0  0  0  0  0  0  0
   35.0228  -22.0620   10.2387 N   0  0  0  0  0  0  0  0  0  0  0  0
   34.5507  -23.0704    9.3576 N   0  0  0  0  0  0  0  0  0  0  0  0
   35.0202  -22.8183    8.0213 N   0  0  0  0  0  0  0  0  0  0  0  0
   36.4491  -22.8000    8.0284 N   0  0  0  0  0  0  0  0  0  0  0  0
   36.9382  -24.0687    8.4745 N   0  0  0  0  0  0  0  0  0  0  0  0
   36.4473  -25.1058    7.6274 N   0  0  0  0  0  0  0  0  0  0  0  0
   36.9100  -24.8623    6.3029 N   0  0  0  0  0  0  0  0  0  0  0  0
   38.3502  -24.8356    6.2803 N   0  0  0  0  0  0  0  0  0  0  0  0
   38.8606  -26.0868    6.7452 N   0  0  0  0  0  0  0  0  0  0  0  0
   38.4069  -27.1553    5.8963 N   0  0  0  0  0  0  0  0  0  0  0  0
   38.8228  -26.9095    4.5617 N   0  0  0  0  0  0  0  0  0  0  0  0
   40.2588  -26.8741    4.5255 N   0  0  0  0  0  0  0  0  0  0  0  0
   40.7822  -28.1073    5.0235 N   0  0  0  0  0  0  0  0  0  0  0  0
   40.3362  -29.1782    4.1898 N   0  0  0  0  0  0  0  0  0  0  0  0
   40.7397  -28.9475    2.8383 N   0  0  0  0  0  0  0  0  0  0  0  0
   42.1621  -28.8897    2.8038 N   0  0  0  0  0  0  0  0  0  0  0  0
   42.6921  -30.1060    3.3120 N   0  0  0  0  0  0  0  0  0  0  0  0
   42.2600  -31.1945    2.4880 N   0  0  0  0  0  0  0  0  0  0  0  0
   42.6633  -30.9876    1.1246 N   0  0  0  0  0  0  0  0  0  0  0  0
   44.0908  -30.9257    1.0585 N   0  0  0  0  0  0  0  0  0  0  0  0
   44.6705  -32.1440    1.5423 N   0  0  0  0  0  0  0  0  0  0  0  0
   44.2025  -33.2406    0.7515 N   0  0  0  0  0  0  0  0  0  0  0  0
   44.5752  -33.0141   -0.6150 N   0  0  0  0  0  0  0  0  0  0  0  0
   46.0276  -32.9554   -0.6890 N   0  0  0  0  0  0  0  0  0  0  0  0
   46.5964  -34.1519   -0.1688 N   0  0  0  0  0  0  0  0  0  0  0  0
   46.1628  -35.2700   -0.9440 N   0  0  0  0  0  0  0  0  0  0  0  0
   46.5159  -35.0494   -2.2952 N   0  0  0  0  0  0  0  0  0  0  0  0
   47.9414  -34.9636   -2.4077 N   0  0  0  0  0  0  0  0  0  0  0  0
   48.5422  -36.1554   -1.8947 N   0  0  0  0  0  0  0  0  0  0  0  0
   48.0870  -37.2892   -2.6532 N   0  0  0  0  0  0  0  0  0  0  0  0
   48.4487  -37.0804   -4.0197 N   0  0  0  0  0  0  0  0  0  0  0  0
   49.8844  -36.9766   -4.1374 N   0  0  0  0  0  0  0  0  0  0  0  0
   50.5363  -38.1911   -3.6204 N   0  0  0  0  0  0  0  0  0  0  0  0
   50.0302  -39.3251   -4.4004 C   0  0  0  0  0  0  0  0  0  0  0  0
   50.6552  -40.5875   -3.8617 C   0  0  0  0  0  0  0  0  0  0  0  0
   50.1831  -41.7802   -4.6696 C   0  0  0  0  0  0  0  0  0  0  0  0
   50.8214  -43.0483   -4.1420 C   0  0  0  0  0  0  0  0  0  0  0  0
   50.3529  -44.2451   -4.9475 C   0  0  0  0  0  0  0  0  0  0  0  0
   50.9929  -45.5078   -4.4174 C   0  0  0  0  0  0  0  0  0  0  0  0
   17.6218   -3.3209   23.3008 H   0  0  0  0  0  0  0  0  0  0  0  0
   17.3772   -4.4941   24.4626 H   0  0  0  0  0  0  0  0  0  0  0  0
   19.6544   -3.7979   24.4454 H   0  0  0  0  0  0  0  0  0  0  0  0
   19.2089   -6.0516   24.9710 H   0  0  0  0  0  0  0  0  0  0  0  0
   18.1532   -6.6424   22.9917 H   0  0  0  0  0  0  0  0  0  0  0  0
   19.5526   -5.4078   21.5382 H   0  0  0  0  0  0  0  0  0  0  0  0
   21.5822   -5.8866   22.6702 H   0  0  0  0  0  0  0  0  0  0  0  0
   21.1212   -8.0365   23.2720 H   0  0  0  0  0  0  0  0  0  0  0  0
   20.0634   -8.6834   21.2888 H   0  0  0  0  0  0  0  0  0  0  0  0
   21.4938   -7.5290   19.7887 H   0  0  0  0  0  0  0  0  0  0  0  0
   23.4492   -7.8533   20.9264 H   0  0  0  0  0  0  0  0  0  0  0  0
   23.0382  -10.0720   21.5531 H   0  0  0  0  0  0  0  0  0  0  0  0
   22.0207  -10.7341   19.5449 H   0  0  0  0  0  0  0  0  0  0  0  0
   23.3092   -9.5355   18.0972 H   0  0  0  0  0  0  0  0  0  0  0  0
   25.3676   -9.9281   19.1806 H   0  0  0  0  0  0  0  0  0  0  0  0
   24.9936  -12.1174   19.7749 H   0  0  0  0  0  0  0  0  0  0  0  0
   23.9078  -12.7850   17.8993 H   0  0  0  0  0  0  0  0  0  0  0  0
   25.2669  -11.6306   16.3591 H   0  0  0  0  0  0  0  0  0  0  0  0
   27.2346  -11.9106   17.4458 H   0  0  0  0  0  0  0  0  0  0  0  0
   26.8790  -14.1042   18.0783 H   0  0  0  0  0  0  0  0  0  0  0  0
   25.8504  -14.8548   16.1457 H   0  0  0  0  0  0  0  0  0  0  0  0
   27.0812  -13.6607   14.6488 H   0  0  0  0  0  0  0  0  0  0  0  0
   29.1775  -14.0045   15.6636 H   0  0  0  0  0  0  0  0  0  0  0  0
   28.8699  -16.1590   16.3461 H   0  0  0  0  0  0  0  0  0  0  0  0
   27.7527  -16.9136   14.4422 H   0  0  0  0  0  0  0  0  0  0  0  0
   29.0282  -15.7583   12.9209 H   0  0  0  0  0  0  0  0  0  0  0  0
   31.0264  -15.9651   13.9585 H   0  0  0  0  0  0  0  0  0  0  0  0
   30.7710  -18.1923   14.6140 H   0  0  0  0  0  0  0  0  0  0  0  0
   29.6570  -18.9339   12.7833 H   0  0  0  0  0  0  0  0  0  0  0  0
   30.9287  -17.8303   11.1656 H   0  0  0  0  0  0  0  0  0  0  0  0
   32.9458  -17.9859   12.1906 H   0  0  0  0  0  0  0  0  0  0  0  0
   32.6960  -20.1912   12.9035 H   0  0  0  0  0  0  0  0  0  0  0  0
   31.6010  -20.9969   11.0244 H   0  0  0  0  0  0  0  0  0  0  0  0
   32.7522  -19.8465    9.4662 H   0  0  0  0  0  0  0  0  0  0  0  0
   34.8869  -20.0930   10.4116 H   0  0  0  0  0  0  0  0  0  0  0  0
   34.6263  -22.2040   11.1717 H   0  0  0  0  0  0  0  0  0  0  0  0
   33.5398  -23.0230    9.3327 H   0  0  0  0  0  0  0  0  0  0  0  0
   34.6966  -21.8942    7.7481 H   0  0  0  0  0  0  0  0  0  0  0  0
   36.7426  -22.0468    8.6700 H   0  0  0  0  0  0  0  0  0  0  0  0
   36.5718  -24.2565    9.4052 H   0  0  0  0  0  0  0  0  0  0  0  0
   35.4302  -25.0792    7.6339 H   0  0  0  0  0  0  0  0  0  0  0  0
   36.5596  -23.9483    6.0113 H   0  0  0  0  0  0  0  0  0  0  0  0
   38.6724  -24.1225    6.9298 H   0  0  0  0  0  0  0  0  0  0  0  0
   38.5023  -26.2386    7.6887 H   0  0  0  0  0  0  0  0  0  0  0  0
   37.3801  -27.1496    5.9365 H   0  0  0  0  0  0  0  0  0  0  0  0
   38.4904  -26.0069    4.2540 H   0  0  0  0  0  0  0  0  0  0  0  0
   40.5510  -26.1416    5.1705 H   0  0  0  0  0  0  0  0  0  0  0  0
   40.4306  -28.2172    5.9908 H   0  0  0  0  0  0  0  0  0  0  0  0
   39.3226  -29.1804    4.1928 H   0  0  0  0  0  0  0  0  0  0  0  0
   40.3904  -28.0432    2.5471 H   0  0  0  0  0  0  0  0  0  0  0  0
   42.4438  -28.1407    3.4337 H   0  0  0  0  0  0  0  0  0  0  0  0
   42.3526  -30.2205    4.2772 H   0  0  0  0  0  0  0  0  0  0  0  0
   41.2442  -31.2068    2.4946 H   0  0  0  0  0  0  0  0  0  0  0  0
   42.2979  -30.0892    0.8262 H   0  0  0  0  0  0  0  0  0  0  0  0
   44.3957  -30.1642    1.6586 H   0  0  0  0  0  0  0  0  0  0  0  0
   44.3291  -32.2674    2.4985 H   0  0  0  0  0  0  0  0  0  0  0  0
   43.1739  -33.2293    0.8395 H   0  0  0  0  0  0  0  0  0  0  0  0
   44.1831  -32.1075   -0.9008 H   0  0  0  0  0  0  0  0  0  0  0  0
   46.3175  -32.1898   -0.0718 H   0  0  0  0  0  0  0  0  0  0  0  0
   46.2827  -34.2723    0.7904 H   0  0  0  0  0  0  0  0  0  0  0  0
   45.1480  -35.2803   -0.8938 H   0  0  0  0  0  0  0  0  0  0  0  0
   46.1260  -34.1668   -2.6070 H   0  0  0  0  0  0  0  0  0  0  0  0
   48.2137  -34.1866   -1.8014 H   0  0  0  0  0  0  0  0  0  0  0  0
   48.2036  -36.2496   -0.9382 H   0  0  0  0  0  0  0  0  0  0  0  0
   47.0682  -37.2815   -2.5801 H   0  0  0  0  0  0  0  0  0  0  0  0
   48.0226  -36.1930   -4.3051 H   0  0  0  0  0  0  0  0  0  0  0  0
   50.1374  -36.1693   -3.5452 H   0  0  0  0  0  0  0  0  0  0  0  0
   50.1801  -38.2782   -2.6546 H   0  0  0  0  0  0  0  0  0  0  0  0
   50.2937  -39.1856   -5.4525 H   0  0  0  0  0  0  0  0  0  0  0  0
   48.9352  -39.4233   -4.3348 H   0  0  0  0  0  0  0  0  0  0  0  0
   50.3787  -40.7243   -2.8093 H   0  0  0  0  0  0  0  0  0  0  0  0
   51.7450  -40.5071   -3.9230 H   0  0  0  0  0  0  0  0  0  0  0  0
   50.4521  -41.6428   -5.7231 H   0  0  0  0  0  0  0  0  0  0  0  0
   49.0917  -41.8634   -4.6074 H   0  0  0  0  0  0  0  0  0  0  0  0
   50.5534  -43.1848   -3.0880 H   0  0  0  0  0  0  0  0  0  0  0  0
   51.9125  -42.9650   -4.2052 H   0  0  0  0  0  0  0  0  0  0  0  0
   50.6227  -44.1111   -6.0005 H   0  0  0  0  0  0  0  0  0  0  0  0
   49.2630  -44.3310   -4.8828 H   0  0  0  0  0  0  0  0  0  0  0  0
   52.0827  -45.4387   -4.4885 H   0  0  0  0  0  0  0  0  0  0  0  0
   50.6571  -46.3712   -4.9958 H   0  0  0  0  0  0  0  0  0  0  0  0
   50.7202  -45.6590   -3.3685 H   0  0  0  0  0  0  0  0  0  0  0  0
  1  2  1  0  0  0  0
  1 74  1  0  0  0  0
  1 75  1  0  0  0  0
  2  3  1  0  0  0  0
  2 76  1  0  0  0  0
  3  4  1  0  0  0  0
  3 77  1  0  0  0  0
  4  5  1  0  0  0  0
  4 78  1  0  0  0  0
  5  6  1  0  0  0  0
  5 79  1  0  0  0  0
  6  7  1  0  0  0  0
  6 80  1  0  0  0  0
  7  8  1  0  0  0  0
  7 81  1  0  0  0  0
  8  9  1  0  0  0  0
  8 82  1  0  0  0  0
  9 10  1  0  0  0  0
  9 83  1  0  0  0  0
 10 11  1  0  0  0  0
 10 84  1  0  0  0  0
 11 12  1  0  0  0  0
 11 85  1  0  0  0  0
 12 13  1  0  0  0  0
 12 86  1  0  0  0  0
 13 14  1  0  0  0  0
 13 87  1  0  0  0  0
 14 15  1  0  0  0  0
 14 88  1  0  0  0  0
 15 16  1  0  0  0  0
 15 89  1  0  0  0  0
 16 17  1  0  0  0  0
 16 90  1  0  0  0  0
 17 18  1  0  0  0  0
 17 91  1  0  0  0  0
 18 19  1  0  0  0  0
 18 92  1  0  0  0  0
 19 20  1  0  0  0  0
 19 93  1  0  0  0  0
 20 21  1  0  0  0  0
 20 94  1  0  0  0  0
 21 22  1  0  0  0  0
 21 95  1  0  0  0  0
 22 23  1  0  0  0  0
 22 96  1  0  0  0  0
 23 24  1  0  0  0  0
 23 97  1  0  0  0  0
 24 25  1  0  0  0  0
 24 98  1  0  0  0  0
 25 26  1  0  0  0  0
 25 99  1  0  0  0  0
 26 27  1  0  0  0  0
 26100  1  0  0  0  0
 27 28  1  0  0  0  0
 27101  1  0  0  0  0
 28 29  1  0  0  0  0
 28102  1  0  0  0  0
 29 30  1  0  0  0  0
 29103  1  0  0  0  0
 30 31  1  0  0  0  0
 30104  1  0  0  0  0
 31 32  1  0  0  0  0
 31105  1  0  0  0  0
 32 33  1  0  0  0  0
 32106  1  0  0  0  0
 33 34  1  0  0  0  0
 33107  1  0  0  0  0
 34 35  1  0  0  0  0
 34108  1  0  0  0  0
 35 36  1  0  0  0  0
 35109  1  0  0  0  0
 36 37  1  0  0  0  0
 36110  1  0  0  0  0
 37 38  1  0  0  0  0
 37111  1  0  0  0  0
 38 39  1  0  0  0  0
 38112  1  0  0  0  0
 39 40  1  0  0  0  0
 39113  1  0  0  0  0
 40 41  1  0  0  0  0
 40114  1  0  0  0  0
 41 42  1  0  0  0  0
 41115  1  0  0  0  0
 42 43  1  0  0  0  0
 42116  1  0  0  0  0
 43 44  1  0  0  0  0
 43117  1  0  0  0  0
 44 45  1  0  0  0  0
 44118  1  0  0  0  0
 45 46  1  0  0  0  0
 45119  1  0  0  0  0
 46 47  1  0  0  0  0
 46120  1  0  0  0  0
 47 48  1  0  0  0  0
 47121  1  0  0  0  0
 48 49  1  0  0  0  0
 48122  1  0  0  0  0
 49 50  1  0  0  0  0
 49123  1  0  0  0  0
 50 51  1  0  0  0  0
 50124  1  0  0  0  0
 51 52  1  0  0  0  0
 51125  1  0  0  0  0
 52 53  1  0  0  0  0
 52126  1  0  0  0  0
 53 54  1  0  0  0  0
 53127  1  0  0  0  0
 54 55  1  0  0  0  0
 54128  1  0  0  0  0
 55 56  1  0  0  0  0
 55129  1  0  0  0  0
 56 57  1  0  0  0  0
 56130  1  0  0  0  0
 57 58  1  0  0  0  0
 57131  1  0  0  0  0
 58 59  1  0  0  0  0
 58132  1  0  0  0  0
 59 60  1  0  0  0  0
 59133  1  0  0  0  0
 60 61  1  0  0  0  0
 60134  1  0  0  0  0
 61 62  1  0  0  0  0
 61135  1  0  0  0  0
 62 63  1  0  0  0  0
 62136  1  0  0  0  0
 63 64  1  0  0  0  0
 63137  1  0  0  0  0
 64 65  1  0  0  0  0
 64138  1  0  0  0  0
 65 66  1  0  0  0  0
 65139  1  0  0  0  0
 66 67  1  0  0  0  0
 66140  1  0  0  0  0
 67 68  1  0  0  0  0
 67141  1  0  0  0  0
 68 69  1  0  0  0  0
 68142  1  0  0  0  0
 68143  1  0  0  0  0
 69 70  1  0  0  0  0
 69144  1  0  0  0  0
 69145  1  0  0  0  0
 70 71  1  0  0  0  0
 70146  1  0  0  0  0
 70147  1  0  0  0  0
 71 72  1  0  0  0  0
 71148  1  0  0  0  0
 71149  1  0  0  0  0
 72 73  1  0  0  0  0
 72150  1  0  0  0  0
 72151  1  0  0  0  0
 73152  1  0  0  0  0
 73153  1  0  0  0  0
 73154  1  0  0  0  0
M  END
$$$$
