
 OpenBabel04232216503D

 58 59  0  0  0  0  0  0  0  0999 V2000
    7.1010    2.3726   -0.9594 C   0  0  0  0  0  0  0  0  0  0  0  0
    8.5827    2.3050   -0.6275 C   0  0  0  0  0  0  0  0  0  0  0  0
    8.8424    1.3035    0.3516 N   0  0  0  0  0  0  0  0  0  0  0  0
    9.1306    0.0919   -0.0947 C   0  0  0  0  0  0  0  0  0  0  0  0
    9.2574   -0.9825    0.8098 N   0  0  0  0  0  0  0  0  0  0  0  0
   10.3307   -1.3603    1.8024 C   0  0  0  0  0  0  0  0  0  0  0  0
   11.8511   -1.2232    1.5377 C   0  0  0  0  0  0  0  0  0  0  0  0
   12.0544   -0.2814    0.4141 C   0  0  0  0  0  0  0  0  0  0  0  0
   13.4098    0.1033   -0.1654 C   0  0  0  0  0  0  0  0  0  0  0  0
   12.9209    0.9439   -1.3293 C   0  0  0  0  0  0  0  0  0  0  0  0
   13.7817    1.4182   -2.4750 C   0  0  0  0  0  0  0  0  0  0  0  0
   12.7014    1.9174   -3.4398 C   0  0  0  0  0  0  0  0  0  0  0  0
   13.0768    2.5514   -4.7472 C   0  0  0  0  0  0  0  0  0  0  0  0
    9.2570   -0.1016   -1.4763 N   0  0  0  0  0  0  0  0  0  0  0  0
    8.1628   -0.3555   -2.0458 N   0  0  0  0  0  0  0  0  0  0  0  0
    7.8840    0.4557   -3.2145 N   0  0  0  0  0  0  0  0  0  0  0  0
    8.9013    0.8450   -3.9131 C   0  0  0  0  0  0  0  0  0  0  0  0
    8.8986    1.8917   -5.0023 C   0  0  0  0  0  0  0  0  0  0  0  0
   10.1092    2.0174   -5.6058 C   0  0  0  0  0  0  0  0  0  0  0  0
   10.7910    3.3023   -5.8134 C   0  0  0  0  0  0  0  0  0  0  0  0
   10.0670    4.4306   -6.5306 C   0  0  0  0  0  0  0  0  0  0  0  0
   11.9734    3.5242   -5.1914 C   0  0  0  0  0  0  0  0  0  0  0  0
   12.2354    4.8573   -4.6278 C   0  0  0  0  0  0  0  0  0  0  0  0
   11.7304    5.3370   -3.4651 C   0  0  0  0  0  0  0  0  0  0  0  0
   10.9616    4.7255   -2.3616 C   0  0  0  0  0  0  0  0  0  0  0  0
    9.9137    3.8632   -2.2997 C   0  0  0  0  0  0  0  0  0  0  0  0
    9.6328    3.0242   -1.1040 C   0  0  0  0  0  0  0  0  0  0  0  0
    6.8562    2.9692   -1.8462 H   0  0  0  0  0  0  0  0  0  0  0  0
    6.5416    2.7828   -0.1082 H   0  0  0  0  0  0  0  0  0  0  0  0
    6.6547    1.3789   -1.1056 H   0  0  0  0  0  0  0  0  0  0  0  0
    8.4677   -0.8172    1.4273 H   0  0  0  0  0  0  0  0  0  0  0  0
   10.1137   -0.8666    2.7566 H   0  0  0  0  0  0  0  0  0  0  0  0
   10.1738   -2.4320    1.9964 H   0  0  0  0  0  0  0  0  0  0  0  0
   12.3043   -2.1964    1.3074 H   0  0  0  0  0  0  0  0  0  0  0  0
   12.3613   -0.8649    2.4424 H   0  0  0  0  0  0  0  0  0  0  0  0
   11.5459    0.6492    0.6935 H   0  0  0  0  0  0  0  0  0  0  0  0
   11.5167   -0.7747   -0.4019 H   0  0  0  0  0  0  0  0  0  0  0  0
   13.9813   -0.7664   -0.4986 H   0  0  0  0  0  0  0  0  0  0  0  0
   14.0083    0.6938    0.5348 H   0  0  0  0  0  0  0  0  0  0  0  0
   12.4296    1.8266   -0.8983 H   0  0  0  0  0  0  0  0  0  0  0  0
   12.1230    0.3587   -1.8099 H   0  0  0  0  0  0  0  0  0  0  0  0
   14.3746    0.6107   -2.9067 H   0  0  0  0  0  0  0  0  0  0  0  0
   14.4368    2.2304   -2.1454 H   0  0  0  0  0  0  0  0  0  0  0  0
   12.1261    2.6368   -2.8675 H   0  0  0  0  0  0  0  0  0  0  0  0
   12.0132    1.0983   -3.6669 H   0  0  0  0  0  0  0  0  0  0  0  0
   13.2513    1.7751   -5.5026 H   0  0  0  0  0  0  0  0  0  0  0  0
   14.0385    3.0741   -4.6387 H   0  0  0  0  0  0  0  0  0  0  0  0
    9.9068    0.5154   -3.6198 H   0  0  0  0  0  0  0  0  0  0  0  0
    8.1660    2.6775   -4.9106 H   0  0  0  0  0  0  0  0  0  0  0  0
   10.7941    1.1797   -5.5553 H   0  0  0  0  0  0  0  0  0  0  0  0
    8.9838    4.3527   -6.5029 H   0  0  0  0  0  0  0  0  0  0  0  0
   10.3931    4.4108   -7.5771 H   0  0  0  0  0  0  0  0  0  0  0  0
   10.3343    5.4274   -6.1531 H   0  0  0  0  0  0  0  0  0  0  0  0
   12.9566    5.4450   -5.2044 H   0  0  0  0  0  0  0  0  0  0  0  0
   12.1497    6.3127   -3.1949 H   0  0  0  0  0  0  0  0  0  0  0  0
   11.3808    5.0403   -1.4045 H   0  0  0  0  0  0  0  0  0  0  0  0
    9.4575    3.5416   -3.2211 H   0  0  0  0  0  0  0  0  0  0  0  0
   10.5514    2.8381   -0.5616 H   0  0  0  0  0  0  0  0  0  0  0  0
  1  2  1  0  0  0  0
  1 28  1  0  0  0  0
  1 29  1  0  0  0  0
  1 30  1  0  0  0  0
  2  3  1  0  0  0  0
  2 27  2  3  0  0  0
  3  4  2  3  0  0  0
  4  5  1  0  0  0  0
  4 14  1  0  0  0  0
  5  6  1  0  0  0  0
  5 31  1  0  0  0  0
  6  7  1  0  0  0  0
  6 32  1  0  0  0  0
  6 33  1  0  0  0  0
  7  8  1  0  0  0  0
  7 34  1  0  0  0  0
  7 35  1  0  0  0  0
  8  9  1  0  0  0  0
  8 36  1  0  0  0  0
  8 37  1  0  0  0  0
  9 10  1  0  0  0  0
  9 38  1  0  0  0  0
  9 39  1  0  0  0  0
 10 11  1  0  0  0  0
 10 40  1  0  0  0  0
 10 41  1  0  0  0  0
 11 12  1  0  0  0  0
 11 42  1  0  0  0  0
 11 43  1  0  0  0  0
 12 13  1  0  0  0  0
 12 44  1  0  0  0  0
 12 45  1  0  0  0  0
 13 22  1  0  0  0  0
 13 46  1  0  0  0  0
 13 47  1  0  0  0  0
 14 15  2  3  0  0  0
 15 16  1  0  0  0  0
 16 17  2  3  0  0  0
 17 18  1  0  0  0  0
 17 48  1  0  0  0  0
 18 19  2  3  0  0  0
 18 49  1  0  0  0  0
 19 20  1  0  0  0  0
 19 50  1  0  0  0  0
 20 21  1  0  0  0  0
 20 22  2  3  0  0  0
 21 51  1  0  0  0  0
 21 52  1  0  0  0  0
 21 53  1  0  0  0  0
 22 23  1  0  0  0  0
 23 24  2  3  0  0  0
 23 54  1  0  0  0  0
 24 25  1  0  0  0  0
 24 55  1  0  0  0  0
 25 26  2  3  0  0  0
 25 56  1  0  0  0  0
 26 27  1  0  0  0  0
 26 57  1  0  0  0  0
 27 58  1  0  0  0  0
M  END
$$$$
