
 OpenBabel04232216523D

 67 68  0  0  0  0  0  0  0  0999 V2000
    3.1891    1.5607   -3.0884 C   0  0  0  0  0  0  0  0  0  0  0  0
    4.5635    1.4827   -2.3757 C   0  0  0  0  0  0  0  0  0  0  0  0
    5.8612    2.4311   -2.7748 C   0  0  0  0  0  0  0  0  0  0  0  0
    7.1538    2.0338   -3.7363 C   0  0  0  0  0  0  0  0  0  0  0  0
    6.8469    0.7276   -4.2479 C   0  0  0  0  0  0  0  0  0  0  0  0
    7.0529   -0.3461   -3.4526 C   0  0  0  0  0  0  0  0  0  0  0  0
    7.3622   -0.3345   -1.9508 C   0  0  0  0  0  0  0  0  0  0  0  0
    7.4857   -1.5775   -4.1759 C   0  0  0  0  0  0  0  0  0  0  0  0
    9.0004   -1.4924   -4.0654 C   0  0  0  0  0  0  0  0  0  0  0  0
    9.6505   -1.2916   -5.4136 C   0  0  0  0  0  0  0  0  0  0  0  0
   11.1061   -1.2497   -5.1467 C   0  0  0  0  0  0  0  0  0  0  0  0
   11.8020   -0.2292   -6.0036 C   0  0  0  0  0  0  0  0  0  0  0  0
   11.7582   -0.2145   -7.2154 O   0  0  0  0  0  0  0  0  0  0  0  0
   12.7217    0.5983   -5.1686 C   0  0  0  0  0  0  0  0  0  0  0  0
   12.1427    1.7073   -4.6134 C   0  0  0  0  0  0  0  0  0  0  0  0
   11.0163    2.4240   -5.2739 C   0  0  0  0  0  0  0  0  0  0  0  0
   11.7923    3.0965   -6.5896 C   0  0  0  0  0  0  0  0  0  0  0  0
   13.4232    2.9714   -6.9853 C   0  0  0  0  0  0  0  0  0  0  0  0
   14.5511    3.8217   -6.2731 C   0  0  0  0  0  0  0  0  0  0  0  0
   16.0313    3.2495   -6.2256 C   0  0  0  0  0  0  0  0  0  0  0  0
   16.7506    3.3409   -4.8439 C   0  0  0  0  0  0  0  0  0  0  0  0
   16.9079    2.0363   -4.0421 C   0  0  0  0  0  0  0  0  0  0  0  0
   15.5796    1.3272   -3.8673 C   0  0  0  0  0  0  0  0  0  0  0  0
   15.3904    0.2295   -4.8876 C   0  0  0  0  0  0  0  0  0  0  0  0
   13.9578   -0.2703   -4.9326 C   0  0  0  0  0  0  0  0  0  0  0  0
    9.6270    2.5504   -5.0198 C   0  0  0  0  0  0  0  0  0  0  0  0
    8.4897    2.5052   -3.8233 C   0  0  0  0  0  0  0  0  0  0  0  0
    2.4125    1.1084   -2.4396 H   0  0  0  0  0  0  0  0  0  0  0  0
    3.1500    0.9761   -4.0137 H   0  0  0  0  0  0  0  0  0  0  0  0
    2.8485    2.5807   -3.2804 H   0  0  0  0  0  0  0  0  0  0  0  0
    4.8077    0.4198   -2.3328 H   0  0  0  0  0  0  0  0  0  0  0  0
    4.3137    1.7465   -1.3344 H   0  0  0  0  0  0  0  0  0  0  0  0
    6.2953    2.6735   -1.7956 H   0  0  0  0  0  0  0  0  0  0  0  0
    5.4186    3.3524   -3.1725 H   0  0  0  0  0  0  0  0  0  0  0  0
    6.6256    0.6448   -5.3065 H   0  0  0  0  0  0  0  0  0  0  0  0
    6.4595   -0.3969   -1.3381 H   0  0  0  0  0  0  0  0  0  0  0  0
    7.9280    0.5527   -1.6481 H   0  0  0  0  0  0  0  0  0  0  0  0
    7.9748   -1.1963   -1.6592 H   0  0  0  0  0  0  0  0  0  0  0  0
    7.1655   -1.5621   -5.2249 H   0  0  0  0  0  0  0  0  0  0  0  0
    7.0978   -2.4899   -3.7214 H   0  0  0  0  0  0  0  0  0  0  0  0
    9.4002   -2.3653   -3.5411 H   0  0  0  0  0  0  0  0  0  0  0  0
    9.3230   -0.6263   -3.4563 H   0  0  0  0  0  0  0  0  0  0  0  0
    9.2933   -0.3668   -5.8817 H   0  0  0  0  0  0  0  0  0  0  0  0
    9.4275   -2.1208   -6.0878 H   0  0  0  0  0  0  0  0  0  0  0  0
   11.6112   -2.1958   -5.1901 H   0  0  0  0  0  0  0  0  0  0  0  0
   11.2810   -0.8958   -4.0925 H   0  0  0  0  0  0  0  0  0  0  0  0
   12.6988    2.3122   -3.8972 H   0  0  0  0  0  0  0  0  0  0  0  0
   11.5681    4.1706   -6.5899 H   0  0  0  0  0  0  0  0  0  0  0  0
   11.2856    2.6629   -7.4650 H   0  0  0  0  0  0  0  0  0  0  0  0
   13.4706    3.2910   -8.0409 H   0  0  0  0  0  0  0  0  0  0  0  0
   13.7307    1.9235   -7.0304 H   0  0  0  0  0  0  0  0  0  0  0  0
   14.2318    4.1304   -5.2783 H   0  0  0  0  0  0  0  0  0  0  0  0
   14.6538    4.7449   -6.8662 H   0  0  0  0  0  0  0  0  0  0  0  0
   16.6488    3.8683   -6.8967 H   0  0  0  0  0  0  0  0  0  0  0  0
   16.1150    2.2531   -6.6604 H   0  0  0  0  0  0  0  0  0  0  0  0
   16.2400    4.0738   -4.2094 H   0  0  0  0  0  0  0  0  0  0  0  0
   17.7688    3.7312   -4.9851 H   0  0  0  0  0  0  0  0  0  0  0  0
   17.2924    2.2877   -3.0438 H   0  0  0  0  0  0  0  0  0  0  0  0
   17.6628    1.3795   -4.4942 H   0  0  0  0  0  0  0  0  0  0  0  0
   14.7856    2.0664   -3.9406 H   0  0  0  0  0  0  0  0  0  0  0  0
   15.5085    0.8818   -2.8686 H   0  0  0  0  0  0  0  0  0  0  0  0
   16.0433   -0.6156   -4.6152 H   0  0  0  0  0  0  0  0  0  0  0  0
   15.7241    0.5005   -5.8920 H   0  0  0  0  0  0  0  0  0  0  0  0
   13.7794   -0.8816   -4.0406 H   0  0  0  0  0  0  0  0  0  0  0  0
   13.9967   -1.0050   -5.7608 H   0  0  0  0  0  0  0  0  0  0  0  0
    9.0932    3.0417   -5.8449 H   0  0  0  0  0  0  0  0  0  0  0  0
    8.7373    3.3040   -3.1206 H   0  0  0  0  0  0  0  0  0  0  0  0
  1  2  1  0  0  0  0
  1 28  1  0  0  0  0
  1 29  1  0  0  0  0
  1 30  1  0  0  0  0
  2  3  1  0  0  0  0
  2 31  1  0  0  0  0
  2 32  1  0  0  0  0
  3  4  1  0  0  0  0
  3 33  1  0  0  0  0
  3 34  1  0  0  0  0
  4  5  1  0  0  0  0
  4 27  2  3  0  0  0
  5  6  2  3  0  0  0
  5 35  1  0  0  0  0
  6  7  1  0  0  0  0
  6  8  1  0  0  0  0
  7 36  1  0  0  0  0
  7 37  1  0  0  0  0
  7 38  1  0  0  0  0
  8  9  1  0  0  0  0
  8 39  1  0  0  0  0
  8 40  1  0  0  0  0
  9 10  1  0  0  0  0
  9 41  1  0  0  0  0
  9 42  1  0  0  0  0
 10 11  1  0  0  0  0
 10 43  1  0  0  0  0
 10 44  1  0  0  0  0
 11 12  1  0  0  0  0
 11 45  1  0  0  0  0
 11 46  1  0  0  0  0
 12 13  2  0  0  0  0
 12 14  1  0  0  0  0
 14 15  2  3  0  0  0
 14 25  1  0  0  0  0
 15 16  1  0  0  0  0
 15 47  1  0  0  0  0
 16 17  1  0  0  0  0
 16 26  2  3  0  0  0
 17 18  1  0  0  0  0
 17 48  1  0  0  0  0
 17 49  1  0  0  0  0
 18 19  1  0  0  0  0
 18 50  1  0  0  0  0
 18 51  1  0  0  0  0
 19 20  1  0  0  0  0
 19 52  1  0  0  0  0
 19 53  1  0  0  0  0
 20 21  1  0  0  0  0
 20 54  1  0  0  0  0
 20 55  1  0  0  0  0
 21 22  1  0  0  0  0
 21 56  1  0  0  0  0
 21 57  1  0  0  0  0
 22 23  1  0  0  0  0
 22 58  1  0  0  0  0
 22 59  1  0  0  0  0
 23 24  1  0  0  0  0
 23 60  1  0  0  0  0
 23 61  1  0  0  0  0
 24 25  1  0  0  0  0
 24 62  1  0  0  0  0
 24 63  1  0  0  0  0
 25 64  1  0  0  0  0
 25 65  1  0  0  0  0
 26 27  1  0  0  0  0
 26 66  1  0  0  0  0
 27 67  1  0  0  0  0
M  END
$$$$
