
 OpenBabel04232216573D

166165  0  0  0  0  0  0  0  0999 V2000
   15.8446    0.9944  -26.8914 C   0  0  0  0  0  0  0  0  0  0  0  0
   17.2602    1.0799  -27.0311 O   0  0  0  0  0  0  0  0  0  0  0  0
   17.8627    1.1269  -25.7397 C   0  0  0  0  0  0  0  0  0  0  0  0
   19.3708    1.2148  -25.8803 C   0  0  0  0  0  0  0  0  0  0  0  0
   19.9679    1.2717  -24.5535 N   0  0  0  0  0  0  0  0  0  0  0  0
   21.3694    1.3331  -24.7056 N   0  0  0  0  0  0  0  0  0  0  0  0
   21.9873    1.3739  -23.4296 N   0  0  0  0  0  0  0  0  0  0  0  0
   23.3934    1.4651  -23.5635 N   0  0  0  0  0  0  0  0  0  0  0  0
   23.7570    2.6456  -24.2805 N   0  0  0  0  0  0  0  0  0  0  0  0
   23.2601    3.7958  -23.5918 N   0  0  0  0  0  0  0  0  0  0  0  0
   23.8425    3.8175  -22.2991 N   0  0  0  0  0  0  0  0  0  0  0  0
   25.2643    3.9117  -22.4160 N   0  0  0  0  0  0  0  0  0  0  0  0
   25.6332    5.0805  -23.1452 N   0  0  0  0  0  0  0  0  0  0  0  0
   25.1806    6.2656  -22.4807 N   0  0  0  0  0  0  0  0  0  0  0  0
   25.7302    6.3124  -21.1647 N   0  0  0  0  0  0  0  0  0  0  0  0
   27.1725    6.3710  -21.2769 N   0  0  0  0  0  0  0  0  0  0  0  0
   27.5579    7.5445  -22.0379 N   0  0  0  0  0  0  0  0  0  0  0  0
   27.0767    8.7303  -21.3823 N   0  0  0  0  0  0  0  0  0  0  0  0
   27.6281    8.8000  -20.0673 N   0  0  0  0  0  0  0  0  0  0  0  0
   29.0476    8.8351  -20.1621 N   0  0  0  0  0  0  0  0  0  0  0  0
   29.4311    9.9680  -20.9328 N   0  0  0  0  0  0  0  0  0  0  0  0
   28.9654   11.1476  -20.2925 N   0  0  0  0  0  0  0  0  0  0  0  0
   29.5061   11.2423  -18.9826 N   0  0  0  0  0  0  0  0  0  0  0  0
   30.9359   11.2974  -19.0320 N   0  0  0  0  0  0  0  0  0  0  0  0
   31.3636   12.4351  -19.8052 N   0  0  0  0  0  0  0  0  0  0  0  0
   30.8687   13.6362  -19.1827 N   0  0  0  0  0  0  0  0  0  0  0  0
   31.3983   13.7064  -17.8496 N   0  0  0  0  0  0  0  0  0  0  0  0
   32.8191   13.7015  -17.9225 N   0  0  0  0  0  0  0  0  0  0  0  0
   33.2281   14.8072  -18.7159 N   0  0  0  0  0  0  0  0  0  0  0  0
   32.7461   15.9983  -18.1022 N   0  0  0  0  0  0  0  0  0  0  0  0
   33.2749   16.1315  -16.7705 N   0  0  0  0  0  0  0  0  0  0  0  0
   34.7114   16.1721  -16.7877 N   0  0  0  0  0  0  0  0  0  0  0  0
   35.1687   17.2886  -17.5726 N   0  0  0  0  0  0  0  0  0  0  0  0
   34.6842   18.5074  -16.9731 N   0  0  0  0  0  0  0  0  0  0  0  0
   35.1787   18.6050  -15.6260 N   0  0  0  0  0  0  0  0  0  0  0  0
   36.6057   18.6019  -15.6581 N   0  0  0  0  0  0  0  0  0  0  0  0
   37.0558   19.6967  -16.4440 N   0  0  0  0  0  0  0  0  0  0  0  0
   36.5886   20.9086  -15.8673 N   0  0  0  0  0  0  0  0  0  0  0  0
   37.0663   21.0323  -14.5308 N   0  0  0  0  0  0  0  0  0  0  0  0
   38.5075   21.0299  -14.5225 N   0  0  0  0  0  0  0  0  0  0  0  0
   38.9944   22.1423  -15.3030 N   0  0  0  0  0  0  0  0  0  0  0  0
   38.4789   23.3496  -14.7445 N   0  0  0  0  0  0  0  0  0  0  0  0
   38.9323   23.4353  -13.3880 N   0  0  0  0  0  0  0  0  0  0  0  0
   40.3688   23.4268  -13.3870 N   0  0  0  0  0  0  0  0  0  0  0  0
   40.8612   24.5253  -14.1693 N   0  0  0  0  0  0  0  0  0  0  0  0
   40.4165   25.7877  -13.6111 N   0  0  0  0  0  0  0  0  0  0  0  0
   40.8753   25.9584  -12.2485 N   0  0  0  0  0  0  0  0  0  0  0  0
   42.2946   25.8936  -12.2215 N   0  0  0  0  0  0  0  0  0  0  0  0
   42.7899   26.9840  -13.0056 N   0  0  0  0  0  0  0  0  0  0  0  0
   42.2735   28.2070  -12.4944 N   0  0  0  0  0  0  0  0  0  0  0  0
   42.7152   28.3591  -11.1488 N   0  0  0  0  0  0  0  0  0  0  0  0
   44.1560   28.3478  -11.0951 N   0  0  0  0  0  0  0  0  0  0  0  0
   44.6895   29.4196  -11.8938 N   0  0  0  0  0  0  0  0  0  0  0  0
   44.1837   30.6553  -11.3880 N   0  0  0  0  0  0  0  0  0  0  0  0
   44.5909   30.7877  -10.0218 N   0  0  0  0  0  0  0  0  0  0  0  0
   46.0218   30.7546   -9.9561 N   0  0  0  0  0  0  0  0  0  0  0  0
   46.5746   31.8365  -10.7408 N   0  0  0  0  0  0  0  0  0  0  0  0
   46.1056   33.1065  -10.2489 N   0  0  0  0  0  0  0  0  0  0  0  0
   46.5015   33.2634   -8.8878 N   0  0  0  0  0  0  0  0  0  0  0  0
   47.9237   33.2130   -8.8160 N   0  0  0  0  0  0  0  0  0  0  0  0
   48.4638   34.2627   -9.6143 N   0  0  0  0  0  0  0  0  0  0  0  0
   47.9718   35.5222   -9.1446 N   0  0  0  0  0  0  0  0  0  0  0  0
   48.3736   35.7196   -7.7762 N   0  0  0  0  0  0  0  0  0  0  0  0
   49.7989   35.6545   -7.6810 N   0  0  0  0  0  0  0  0  0  0  0  0
   50.3559   36.6880   -8.5079 N   0  0  0  0  0  0  0  0  0  0  0  0
   49.8789   37.9716   -8.0421 N   0  0  0  0  0  0  0  0  0  0  0  0
   50.2595   38.1576   -6.6712 N   0  0  0  0  0  0  0  0  0  0  0  0
   51.6921   38.1169   -6.5468 N   0  0  0  0  0  0  0  0  0  0  0  0
   52.2716   39.1503   -7.3490 N   0  0  0  0  0  0  0  0  0  0  0  0
   51.7820   40.4079   -6.9174 N   0  0  0  0  0  0  0  0  0  0  0  0
   52.1361   40.5877   -5.5495 N   0  0  0  0  0  0  0  0  0  0  0  0
   53.5639   40.5169   -5.4240 N   0  0  0  0  0  0  0  0  0  0  0  0
   54.1551   41.5484   -6.2477 N   0  0  0  0  0  0  0  0  0  0  0  0
   53.6882   42.8587   -5.8033 N   0  0  0  0  0  0  0  0  0  0  0  0
   54.0333   43.0675   -4.4223 N   0  0  0  0  0  0  0  0  0  0  0  0
   55.4484   43.0022   -4.2774 N   0  0  0  0  0  0  0  0  0  0  0  0
   56.0585   44.0028   -5.0990 N   0  0  0  0  0  0  0  0  0  0  0  0
   55.5753   45.2867   -4.6975 N   0  0  0  0  0  0  0  0  0  0  0  0
   55.9293   45.5251   -3.3087 N   0  0  0  0  0  0  0  0  0  0  0  0
   57.3613   45.4461   -3.1397 N   0  0  0  0  0  0  0  0  0  0  0  0
   58.0077   46.4531   -3.9538 N   0  0  0  0  0  0  0  0  0  0  0  0
   15.3861    0.9572  -27.8811 H   0  0  0  0  0  0  0  0  0  0  0  0
   15.4697    1.8717  -26.3562 H   0  0  0  0  0  0  0  0  0  0  0  0
   15.5787    0.0873  -26.3403 H   0  0  0  0  0  0  0  0  0  0  0  0
   17.5916    0.2225  -25.1851 H   0  0  0  0  0  0  0  0  0  0  0  0
   17.4858    2.0034  -25.2017 H   0  0  0  0  0  0  0  0  0  0  0  0
   19.6210    2.1140  -26.4555 H   0  0  0  0  0  0  0  0  0  0  0  0
   19.7296    0.3445  -26.4410 H   0  0  0  0  0  0  0  0  0  0  0  0
   19.7520    0.4241  -24.0335 H   0  0  0  0  0  0  0  0  0  0  0  0
   21.6296    2.1915  -25.1970 H   0  0  0  0  0  0  0  0  0  0  0  0
   21.7628    0.5536  -22.8848 H   0  0  0  0  0  0  0  0  0  0  0  0
   23.7590    0.6629  -24.0526 H   0  0  0  0  0  0  0  0  0  0  0  0
   23.3601    2.6205  -25.2114 H   0  0  0  0  0  0  0  0  0  0  0  0
   22.2391    3.7412  -23.5028 H   0  0  0  0  0  0  0  0  0  0  0  0
   23.5963    2.9855  -21.7472 H   0  0  0  0  0  0  0  0  0  0  0  0
   25.6434    3.1019  -22.9110 H   0  0  0  0  0  0  0  0  0  0  0  0
   25.2294    5.0561  -24.0770 H   0  0  0  0  0  0  0  0  0  0  0  0
   24.1710    6.2191  -22.3895 H   0  0  0  0  0  0  0  0  0  0  0  0
   25.4602    5.4588  -20.6645 H   0  0  0  0  0  0  0  0  0  0  0  0
   27.4654    5.5373  -21.7983 H   0  0  0  0  0  0  0  0  0  0  0  0
   27.1176    7.4801  -22.9539 H   0  0  0  0  0  0  0  0  0  0  0  0
   26.0689    8.6704  -21.3059 H   0  0  0  0  0  0  0  0  0  0  0  0
   27.3702    7.9738  -19.5451 H   0  0  0  0  0  0  0  0  0  0  0  0
   29.3858    7.9886  -20.6282 H   0  0  0  0  0  0  0  0  0  0  0  0
   29.0245    9.9010  -21.8793 H   0  0  0  0  0  0  0  0  0  0  0  0
   27.9511   11.1284  -20.2022 H   0  0  0  0  0  0  0  0  0  0  0  0
   29.2366   10.4212  -18.4463 H   0  0  0  0  0  0  0  0  0  0  0  0
   31.2435   10.4480  -19.5085 H   0  0  0  0  0  0  0  0  0  0  0  0
   30.9275   12.3081  -20.7382 H   0  0  0  0  0  0  0  0  0  0  0  0
   29.8512   13.5320  -19.1250 H   0  0  0  0  0  0  0  0  0  0  0  0
   31.1045   12.8685  -17.3583 H   0  0  0  0  0  0  0  0  0  0  0  0
   33.1285   12.8594  -18.3842 H   0  0  0  0  0  0  0  0  0  0  0  0
   32.8363   14.7275  -19.6563 H   0  0  0  0  0  0  0  0  0  0  0  0
   31.7261   15.9891  -18.0330 H   0  0  0  0  0  0  0  0  0  0  0  0
   32.9868   15.3311  -16.2061 H   0  0  0  0  0  0  0  0  0  0  0  0
   35.0449   15.3168  -17.2266 H   0  0  0  0  0  0  0  0  0  0  0  0
   34.7618   17.1661  -18.5096 H   0  0  0  0  0  0  0  0  0  0  0  0
   33.6710   18.4418  -16.9214 H   0  0  0  0  0  0  0  0  0  0  0  0
   34.8733   17.7849  -15.1084 H   0  0  0  0  0  0  0  0  0  0  0  0
   36.9262   17.7203  -16.0746 H   0  0  0  0  0  0  0  0  0  0  0  0
   36.6827   19.6150  -17.3969 H   0  0  0  0  0  0  0  0  0  0  0  0
   35.5723   20.9024  -15.8336 H   0  0  0  0  0  0  0  0  0  0  0  0
   36.7298   20.2333  -13.9877 H   0  0  0  0  0  0  0  0  0  0  0  0
   38.7970   20.1320  -14.9548 H   0  0  0  0  0  0  0  0  0  0  0  0
   38.6001   22.0399  -16.2365 H   0  0  0  0  0  0  0  0  0  0  0  0
   37.4630   23.3108  -14.7498 H   0  0  0  0  0  0  0  0  0  0  0  0
   38.5802   22.6225  -12.8674 H   0  0  0  0  0  0  0  0  0  0  0  0
   40.7326   22.5768  -13.8050 H   0  0  0  0  0  0  0  0  0  0  0  0
   40.5319   24.4393  -15.1424 H   0  0  0  0  0  0  0  0  0  0  0  0
   39.3927   25.7930  -13.6117 H   0  0  0  0  0  0  0  0  0  0  0  0
   40.5200   25.1632  -11.7226 H   0  0  0  0  0  0  0  0  0  0  0  0
   42.5704   24.9928  -12.6339 H   0  0  0  0  0  0  0  0  0  0  0  0
   42.4166   26.8758  -13.9489 H   0  0  0  0  0  0  0  0  0  0  0  0
   41.2407   28.1686  -12.5359 H   0  0  0  0  0  0  0  0  0  0  0  0
   42.3671   27.5748  -10.5944 H   0  0  0  0  0  0  0  0  0  0  0  0
   44.4704   27.4488  -11.4818 H   0  0  0  0  0  0  0  0  0  0  0  0
   44.3260   29.2926  -12.8402 H   0  0  0  0  0  0  0  0  0  0  0  0
   43.1704   30.6325  -11.4183 H   0  0  0  0  0  0  0  0  0  0  0  0
   44.2353   30.0007   -9.4836 H   0  0  0  0  0  0  0  0  0  0  0  0
   46.3505   29.8778  -10.3439 H   0  0  0  0  0  0  0  0  0  0  0  0
   46.2444   31.7198  -11.7048 H   0  0  0  0  0  0  0  0  0  0  0  0
   45.0788   33.0926  -10.3142 H   0  0  0  0  0  0  0  0  0  0  0  0
   46.1242   32.4809   -8.3551 H   0  0  0  0  0  0  0  0  0  0  0  0
   48.2187   32.2960   -9.1877 H   0  0  0  0  0  0  0  0  0  0  0  0
   48.1492   34.1448  -10.5784 H   0  0  0  0  0  0  0  0  0  0  0  0
   46.9428   35.5107   -9.2238 H   0  0  0  0  0  0  0  0  0  0  0  0
   48.0005   34.9451   -7.2285 H   0  0  0  0  0  0  0  0  0  0  0  0
   50.0998   34.7595   -8.0527 H   0  0  0  0  0  0  0  0  0  0  0  0
   50.0265   36.5229   -9.4633 H   0  0  0  0  0  0  0  0  0  0  0  0
   48.8618   37.9684   -8.0761 H   0  0  0  0  0  0  0  0  0  0  0  0
   49.8554   37.4017   -6.1158 H   0  0  0  0  0  0  0  0  0  0  0  0
   51.9907   37.1833   -6.8768 H   0  0  0  0  0  0  0  0  0  0  0  0
   51.9888   39.0060   -8.3205 H   0  0  0  0  0  0  0  0  0  0  0  0
   50.7645   40.4351   -6.9844 H   0  0  0  0  0  0  0  0  0  0  0  0
   51.7121   39.8178   -5.0151 H   0  0  0  0  0  0  0  0  0  0  0  0
   53.8551   39.5934   -5.7661 H   0  0  0  0  0  0  0  0  0  0  0  0
   53.8573   41.4019   -7.2192 H   0  0  0  0  0  0  0  0  0  0  0  0
   52.6708   42.8724   -5.8793 H   0  0  0  0  0  0  0  0  0  0  0  0
   53.6098   42.3302   -3.8649 H   0  0  0  0  0  0  0  0  0  0  0  0
   55.7743   42.0859   -4.5886 H   0  0  0  0  0  0  0  0  0  0  0  0
   55.7978   43.8231   -6.0835 H   0  0  0  0  0  0  0  0  0  0  0  0
   54.5471   45.3022   -4.8031 H   0  0  0  0  0  0  0  0  0  0  0  0
   55.4783   44.7628   -2.7619 H   0  0  0  0  0  0  0  0  0  0  0  0
   57.6581   44.5070   -3.4491 H   0  0  0  0  0  0  0  0  0  0  0  0
   57.6019   47.3519   -3.6920 H   0  0  0  0  0  0  0  0  0  0  0  0
   57.6966   46.2951   -4.9234 H   0  0  0  0  0  0  0  0  0  0  0  0
  1  2  1  0  0  0  0
  1 82  1  0  0  0  0
  1 83  1  0  0  0  0
  1 84  1  0  0  0  0
  2  3  1  0  0  0  0
  3  4  1  0  0  0  0
  3 85  1  0  0  0  0
  3 86  1  0  0  0  0
  4  5  1  0  0  0  0
  4 87  1  0  0  0  0
  4 88  1  0  0  0  0
  5  6  1  0  0  0  0
  5 89  1  0  0  0  0
  6  7  1  0  0  0  0
  6 90  1  0  0  0  0
  7  8  1  0  0  0  0
  7 91  1  0  0  0  0
  8  9  1  0  0  0  0
  8 92  1  0  0  0  0
  9 10  1  0  0  0  0
  9 93  1  0  0  0  0
 10 11  1  0  0  0  0
 10 94  1  0  0  0  0
 11 12  1  0  0  0  0
 11 95  1  0  0  0  0
 12 13  1  0  0  0  0
 12 96  1  0  0  0  0
 13 14  1  0  0  0  0
 13 97  1  0  0  0  0
 14 15  1  0  0  0  0
 14 98  1  0  0  0  0
 15 16  1  0  0  0  0
 15 99  1  0  0  0  0
 16 17  1  0  0  0  0
 16100  1  0  0  0  0
 17 18  1  0  0  0  0
 17101  1  0  0  0  0
 18 19  1  0  0  0  0
 18102  1  0  0  0  0
 19 20  1  0  0  0  0
 19103  1  0  0  0  0
 20 21  1  0  0  0  0
 20104  1  0  0  0  0
 21 22  1  0  0  0  0
 21105  1  0  0  0  0
 22 23  1  0  0  0  0
 22106  1  0  0  0  0
 23 24  1  0  0  0  0
 23107  1  0  0  0  0
 24 25  1  0  0  0  0
 24108  1  0  0  0  0
 25 26  1  0  0  0  0
 25109  1  0  0  0  0
 26 27  1  0  0  0  0
 26110  1  0  0  0  0
 27 28  1  0  0  0  0
 27111  1  0  0  0  0
 28 29  1  0  0  0  0
 28112  1  0  0  0  0
 29 30  1  0  0  0  0
 29113  1  0  0  0  0
 30 31  1  0  0  0  0
 30114  1  0  0  0  0
 31 32  1  0  0  0  0
 31115  1  0  0  0  0
 32 33  1  0  0  0  0
 32116  1  0  0  0  0
 33 34  1  0  0  0  0
 33117  1  0  0  0  0
 34 35  1  0  0  0  0
 34118  1  0  0  0  0
 35 36  1  0  0  0  0
 35119  1  0  0  0  0
 36 37  1  0  0  0  0
 36120  1  0  0  0  0
 37 38  1  0  0  0  0
 37121  1  0  0  0  0
 38 39  1  0  0  0  0
 38122  1  0  0  0  0
 39 40  1  0  0  0  0
 39123  1  0  0  0  0
 40 41  1  0  0  0  0
 40124  1  0  0  0  0
 41 42  1  0  0  0  0
 41125  1  0  0  0  0
 42 43  1  0  0  0  0
 42126  1  0  0  0  0
 43 44  1  0  0  0  0
 43127  1  0  0  0  0
 44 45  1  0  0  0  0
 44128  1  0  0  0  0
 45 46  1  0  0  0  0
 45129  1  0  0  0  0
 46 47  1  0  0  0  0
 46130  1  0  0  0  0
 47 48  1  0  0  0  0
 47131  1  0  0  0  0
 48 49  1  0  0  0  0
 48132  1  0  0  0  0
 49 50  1  0  0  0  0
 49133  1  0  0  0  0
 50 51  1  0  0  0  0
 50134  1  0  0  0  0
 51 52  1  0  0  0  0
 51135  1  0  0  0  0
 52 53  1  0  0  0  0
 52136  1  0  0  0  0
 53 54  1  0  0  0  0
 53137  1  0  0  0  0
 54 55  1  0  0  0  0
 54138  1  0  0  0  0
 55 56  1  0  0  0  0
 55139  1  0  0  0  0
 56 57  1  0  0  0  0
 56140  1  0  0  0  0
 57 58  1  0  0  0  0
 57141  1  0  0  0  0
 58 59  1  0  0  0  0
 58142  1  0  0  0  0
 59 60  1  0  0  0  0
 59143  1  0  0  0  0
 60 61  1  0  0  0  0
 60144  1  0  0  0  0
 61 62  1  0  0  0  0
 61145  1  0  0  0  0
 62 63  1  0  0  0  0
 62146  1  0  0  0  0
 63 64  1  0  0  0  0
 63147  1  0  0  0  0
 64 65  1  0  0  0  0
 64148  1  0  0  0  0
 65 66  1  0  0  0  0
 65149  1  0  0  0  0
 66 67  1  0  0  0  0
 66150  1  0  0  0  0
 67 68  1  0  0  0  0
 67151  1  0  0  0  0
 68 69  1  0  0  0  0
 68152  1  0  0  0  0
 69 70  1  0  0  0  0
 69153  1  0  0  0  0
 70 71  1  0  0  0  0
 70154  1  0  0  0  0
 71 72  1  0  0  0  0
 71155  1  0  0  0  0
 72 73  1  0  0  0  0
 72156  1  0  0  0  0
 73 74  1  0  0  0  0
 73157  1  0  0  0  0
 74 75  1  0  0  0  0
 74158  1  0  0  0  0
 75 76  1  0  0  0  0
 75159  1  0  0  0  0
 76 77  1  0  0  0  0
 76160  1  0  0  0  0
 77 78  1  0  0  0  0
 77161  1  0  0  0  0
 78 79  1  0  0  0  0
 78162  1  0  0  0  0
 79 80  1  0  0  0  0
 79163  1  0  0  0  0
 80 81  1  0  0  0  0
 80164  1  0  0  0  0
 81165  1  0  0  0  0
 81166  1  0  0  0  0
M  END
$$$$
