
 OpenBabel04232216523D

 49 50  0  0  1  0  0  0  0  0999 V2000
    3.5415    0.1198    0.0394 C   0  0  0  0  0  0  0  0  0  0  0  0
    4.4138    1.1766    0.7347 C   0  0  0  0  0  0  0  0  0  0  0  0
    5.6637    1.7255   -0.0341 C   0  0  0  0  0  0  0  0  0  0  0  0
    5.4944    2.9984   -0.9483 C   0  0  0  0  0  0  0  0  0  0  0  0
    6.5318    3.2540   -2.1965 C   0  0  3  0  0  0  0  0  0  0  0  0
    6.8327    1.8807   -2.8014 C   0  0  0  0  0  0  0  0  0  0  0  0
    7.0260    1.9299   -4.3094 C   0  0  0  0  0  0  0  0  0  0  0  0
    8.5086    1.8855   -4.5882 C   0  0  0  0  0  0  0  0  0  0  0  0
    8.9386    2.8612   -5.6455 C   0  0  0  0  0  0  0  0  0  0  0  0
   10.4384    3.1166   -5.4685 C   0  0  0  0  0  0  0  0  0  0  0  0
   10.7737    4.5746   -5.2287 C   0  0  0  0  0  0  0  0  0  0  0  0
   11.1328    4.8975   -3.9266 C   0  0  0  0  0  0  0  0  0  0  0  0
   12.7128    4.4086   -3.9279 C   0  0  0  0  0  0  0  0  0  0  0  0
   12.9836    3.2609   -4.2845 O   0  0  0  0  0  0  0  0  0  0  0  0
   13.9721    5.3317   -3.4067 C   0  0  0  0  0  0  0  0  0  0  0  0
   14.6120    4.5708   -2.0685 C   0  0  0  0  0  0  0  0  0  0  0  0
   15.3178    5.3419   -1.1564 C   0  0  0  0  0  0  0  0  0  0  0  0
   13.8678    6.7280   -3.2235 C   0  0  0  0  0  0  0  0  0  0  0  0
   13.1027    7.4595   -4.3143 C   0  0  0  0  0  0  0  0  0  0  0  0
   13.5025    8.4458   -4.9265 O   0  0  0  0  0  0  0  0  0  0  0  0
   10.1453    4.3069   -2.9211 O   0  0  0  0  0  0  0  0  0  0  0  0
    8.8498    4.8889   -2.7639 C   0  0  0  0  0  0  0  0  0  0  0  0
    7.5667    4.4839   -2.4254 C   0  0  0  0  0  0  0  0  0  0  0  0
    2.7555   -0.2254    0.7298 H   0  0  0  0  0  0  0  0  0  0  0  0
    4.1149   -0.7737   -0.2335 H   0  0  0  0  0  0  0  0  0  0  0  0
    3.0392    0.5044   -0.8512 H   0  0  0  0  0  0  0  0  0  0  0  0
    4.7921    0.6694    1.6351 H   0  0  0  0  0  0  0  0  0  0  0  0
    3.7742    1.9903    1.0904 H   0  0  0  0  0  0  0  0  0  0  0  0
    6.0889    0.8793   -0.5777 H   0  0  0  0  0  0  0  0  0  0  0  0
    6.3980    1.9981    0.7314 H   0  0  0  0  0  0  0  0  0  0  0  0
    5.3858    3.9000   -0.3358 H   0  0  0  0  0  0  0  0  0  0  0  0
    4.5087    2.8538   -1.4257 H   0  0  0  0  0  0  0  0  0  0  0  0
    5.7677    3.6459   -2.8955 H   0  0  0  0  0  0  0  0  0  0  0  0
    5.9601    1.2312   -2.6515 H   0  0  0  0  0  0  0  0  0  0  0  0
    7.6607    1.4084   -2.2596 H   0  0  0  0  0  0  0  0  0  0  0  0
    6.5343    2.7941   -4.7489 H   0  0  0  0  0  0  0  0  0  0  0  0
    6.5551    1.0410   -4.7595 H   0  0  0  0  0  0  0  0  0  0  0  0
    8.8122    0.8741   -4.8628 H   0  0  0  0  0  0  0  0  0  0  0  0
    9.0454    2.1073   -3.6689 H   0  0  0  0  0  0  0  0  0  0  0  0
    8.3691    3.8144   -5.5898 H   0  0  0  0  0  0  0  0  0  0  0  0
    8.7387    2.4603   -6.6597 H   0  0  0  0  0  0  0  0  0  0  0  0
   11.0143    2.7354   -6.3236 H   0  0  0  0  0  0  0  0  0  0  0  0
   10.7804    2.5198   -4.6343 H   0  0  0  0  0  0  0  0  0  0  0  0
   10.1321    5.2633   -5.7747 H   0  0  0  0  0  0  0  0  0  0  0  0
   14.4758    3.4812   -1.9832 H   0  0  0  0  0  0  0  0  0  0  0  0
   15.6899    6.3329   -0.8943 H   0  0  0  0  0  0  0  0  0  0  0  0
   12.0931    7.0865   -4.5137 H   0  0  0  0  0  0  0  0  0  0  0  0
    8.9783    5.9528   -2.9985 H   0  0  0  0  0  0  0  0  0  0  0  0
    6.9101    5.3719   -2.4238 H   0  0  0  0  0  0  0  0  0  0  0  0
  1  2  1  0  0  0  0
  1 24  1  0  0  0  0
  1 25  1  0  0  0  0
  1 26  1  0  0  0  0
  2  3  1  0  0  0  0
  2 27  1  0  0  0  0
  2 28  1  0  0  0  0
  3  4  1  0  0  0  0
  3 29  1  0  0  0  0
  3 30  1  0  0  0  0
  4  5  1  0  0  0  0
  4 31  1  0  0  0  0
  4 32  1  0  0  0  0
  5  6  1  0  0  0  0
  5 23  1  0  0  0  0
  5 33  1  0  0  0  0
  6  7  1  0  0  0  0
  6 34  1  0  0  0  0
  6 35  1  0  0  0  0
  7  8  1  0  0  0  0
  7 36  1  0  0  0  0
  7 37  1  0  0  0  0
  8  9  1  0  0  0  0
  8 38  1  0  0  0  0
  8 39  1  0  0  0  0
  9 10  1  0  0  0  0
  9 40  1  0  0  0  0
  9 41  1  0  0  0  0
 10 11  1  0  0  0  0
 10 42  1  0  0  0  0
 10 43  1  0  0  0  0
 11 12  2  3  0  0  0
 11 44  1  0  0  0  0
 12 13  1  0  0  0  0
 12 21  1  0  0  0  0
 13 14  2  0  0  0  0
 13 15  1  0  0  0  0
 15 16  1  0  0  0  0
 15 18  2  0  0  0  0
 16 17  2  0  0  0  0
 16 45  1  0  0  0  0
 17 18  1  0  0  0  0
 17 46  1  0  0  0  0
 18 19  1  0  0  0  0
 19 20  2  0  0  0  0
 19 47  1  0  0  0  0
 21 22  1  0  0  0  0
 22 23  2  3  0  0  0
 22 48  1  0  0  0  0
 23 49  1  0  0  0  0
M  END
$$$$
