
 OpenBabel04232216573D

 90 89  0  0  0  0  0  0  0  0999 V2000
    7.5002   -3.2483    2.8688 C   0  0  0  0  0  0  0  0  0  0  0  0
    6.9156   -2.2468    1.9813 N   0  0  0  0  0  0  0  0  0  0  0  0
    7.2493   -0.8982    2.4463 C   0  0  0  0  0  0  0  0  0  0  0  0
    6.6529    0.1920    1.5296 C   0  0  0  0  0  0  0  0  0  0  0  0
    7.0205    1.4670    2.0827 O   0  0  0  0  0  0  0  0  0  0  0  0
    6.6487    2.5089    1.1864 O   0  0  0  0  0  0  0  0  0  0  0  0
    6.9356    4.0214    1.8545 S   0  0  0  0  0  0  0  0  0  0  0  0
    8.6040    4.0013    1.8221 O   0  0  0  0  0  0  0  0  0  0  0  0
    9.1467    5.4749    2.4855 S   0  0  0  0  0  0  0  0  0  0  0  0
   11.2435    5.3411    2.4256 S   0  0  0  0  0  0  0  0  0  0  0  0
   11.9733    7.1686    3.2261 S   0  0  0  0  0  0  0  0  0  0  0  0
   14.0804    7.1657    3.2250 S   0  0  0  0  0  0  0  0  0  0  0  0
   14.7617    9.0010    4.0290 S   0  0  0  0  0  0  0  0  0  0  0  0
   16.8737    9.0008    4.0289 S   0  0  0  0  0  0  0  0  0  0  0  0
   17.5636   10.8289    4.8298 S   0  0  0  0  0  0  0  0  0  0  0  0
   19.6751   10.8176    4.8248 S   0  0  0  0  0  0  0  0  0  0  0  0
   20.3673   12.6436    5.6247 S   0  0  0  0  0  0  0  0  0  0  0  0
   22.4772   12.6316    5.6195 S   0  0  0  0  0  0  0  0  0  0  0  0
   23.1681   14.4575    6.4194 S   0  0  0  0  0  0  0  0  0  0  0  0
   25.2776   14.4454    6.4141 S   0  0  0  0  0  0  0  0  0  0  0  0
   25.9683   16.2711    7.2139 S   0  0  0  0  0  0  0  0  0  0  0  0
   28.0777   16.2590    7.2086 S   0  0  0  0  0  0  0  0  0  0  0  0
   28.7683   18.0847    8.0084 S   0  0  0  0  0  0  0  0  0  0  0  0
   30.8777   18.0725    8.0030 S   0  0  0  0  0  0  0  0  0  0  0  0
   31.5683   19.8982    8.8028 S   0  0  0  0  0  0  0  0  0  0  0  0
   33.6777   19.8860    8.7975 S   0  0  0  0  0  0  0  0  0  0  0  0
   34.3683   21.7117    9.5973 S   0  0  0  0  0  0  0  0  0  0  0  0
   36.4777   21.6995    9.5920 S   0  0  0  0  0  0  0  0  0  0  0  0
   37.1683   23.5252   10.3918 S   0  0  0  0  0  0  0  0  0  0  0  0
   39.2777   23.5131   10.3864 S   0  0  0  0  0  0  0  0  0  0  0  0
   39.9683   25.3387   11.1862 S   0  0  0  0  0  0  0  0  0  0  0  0
   42.0776   25.3266   11.1809 S   0  0  0  0  0  0  0  0  0  0  0  0
   42.7683   27.1522   11.9807 S   0  0  0  0  0  0  0  0  0  0  0  0
   44.8776   27.1401   11.9754 S   0  0  0  0  0  0  0  0  0  0  0  0
   45.5683   28.9657   12.7752 S   0  0  0  0  0  0  0  0  0  0  0  0
   47.6776   28.9536   12.7699 S   0  0  0  0  0  0  0  0  0  0  0  0
   48.3683   30.7793   13.5696 S   0  0  0  0  0  0  0  0  0  0  0  0
   50.4776   30.7671   13.5643 S   0  0  0  0  0  0  0  0  0  0  0  0
   51.1682   32.5928   14.3641 S   0  0  0  0  0  0  0  0  0  0  0  0
   53.2776   32.5806   14.3588 S   0  0  0  0  0  0  0  0  0  0  0  0
   53.9682   34.4063   15.1586 S   0  0  0  0  0  0  0  0  0  0  0  0
   56.0776   34.3941   15.1533 S   0  0  0  0  0  0  0  0  0  0  0  0
   56.7682   36.2198   15.9530 S   0  0  0  0  0  0  0  0  0  0  0  0
   58.8776   36.2077   15.9477 S   0  0  0  0  0  0  0  0  0  0  0  0
   59.5682   38.0333   16.7475 S   0  0  0  0  0  0  0  0  0  0  0  0
   61.6776   38.0212   16.7422 S   0  0  0  0  0  0  0  0  0  0  0  0
   62.3682   39.8468   17.5420 S   0  0  0  0  0  0  0  0  0  0  0  0
   64.4776   39.8347   17.5367 S   0  0  0  0  0  0  0  0  0  0  0  0
   65.1682   41.6603   18.3364 S   0  0  0  0  0  0  0  0  0  0  0  0
   67.2776   41.6482   18.3311 S   0  0  0  0  0  0  0  0  0  0  0  0
   67.9682   43.4738   19.1309 S   0  0  0  0  0  0  0  0  0  0  0  0
   70.0776   43.4617   19.1256 S   0  0  0  0  0  0  0  0  0  0  0  0
   70.7682   45.2874   19.9254 S   0  0  0  0  0  0  0  0  0  0  0  0
   72.8776   45.2752   19.9201 S   0  0  0  0  0  0  0  0  0  0  0  0
   73.5682   47.1009   20.7198 S   0  0  0  0  0  0  0  0  0  0  0  0
   75.6776   47.0887   20.7145 S   0  0  0  0  0  0  0  0  0  0  0  0
   76.3682   48.9144   21.5143 S   0  0  0  0  0  0  0  0  0  0  0  0
   78.4775   48.9023   21.5090 S   0  0  0  0  0  0  0  0  0  0  0  0
   79.1682   50.7279   22.3088 S   0  0  0  0  0  0  0  0  0  0  0  0
   81.2775   50.7158   22.3035 S   0  0  0  0  0  0  0  0  0  0  0  0
   81.9682   52.5414   23.1032 S   0  0  0  0  0  0  0  0  0  0  0  0
   84.0775   52.5293   23.0979 S   0  0  0  0  0  0  0  0  0  0  0  0
   84.7682   54.3549   23.8977 S   0  0  0  0  0  0  0  0  0  0  0  0
   86.8775   54.3428   23.8924 S   0  0  0  0  0  0  0  0  0  0  0  0
   87.5681   56.1684   24.6922 S   0  0  0  0  0  0  0  0  0  0  0  0
   89.6775   56.1563   24.6869 S   0  0  0  0  0  0  0  0  0  0  0  0
   90.3681   57.9820   25.4866 S   0  0  0  0  0  0  0  0  0  0  0  0
   92.4775   57.9698   25.4813 S   0  0  0  0  0  0  0  0  0  0  0  0
   93.1681   59.7955   26.2811 S   0  0  0  0  0  0  0  0  0  0  0  0
   95.2775   59.7833   26.2758 S   0  0  0  0  0  0  0  0  0  0  0  0
   95.9680   61.6089   27.0755 S   0  0  0  0  0  0  0  0  0  0  0  0
   98.0771   61.5966   27.0702 S   0  0  0  0  0  0  0  0  0  0  0  0
   98.7672   63.4220   27.8698 S   0  0  0  0  0  0  0  0  0  0  0  0
  100.8753   63.4091   27.8642 S   0  0  0  0  0  0  0  0  0  0  0  0
  101.5634   65.2329   28.6634 S   0  0  0  0  0  0  0  0  0  0  0  0
  103.6668   65.2165   28.6553 S   0  0  0  0  0  0  0  0  0  0  0  0
  104.3472   67.0351   29.4527 S   0  0  0  0  0  0  0  0  0  0  0  0
  106.4363   66.9875   29.4647 S   0  0  0  0  0  0  0  0  0  0  0  0
  107.1127   68.8224   30.1689 S   0  0  0  0  0  0  0  0  0  0  0  0
  109.1834   68.7412   30.2155 S   0  0  0  0  0  0  0  0  0  0  0  0
  109.7895   68.6232   28.2529 S   0  0  0  0  0  0  0  0  0  0  0  0
    7.2477   -4.2512    2.5097 H   0  0  0  0  0  0  0  0  0  0  0  0
    7.1095   -3.1528    3.8920 H   0  0  0  0  0  0  0  0  0  0  0  0
    8.5913   -3.1740    2.8977 H   0  0  0  0  0  0  0  0  0  0  0  0
    5.9099   -2.3619    1.9569 H   0  0  0  0  0  0  0  0  0  0  0  0
    8.3384   -0.7617    2.4931 H   0  0  0  0  0  0  0  0  0  0  0  0
    6.8715   -0.7408    3.4675 H   0  0  0  0  0  0  0  0  0  0  0  0
    5.5614    0.1280    1.4938 H   0  0  0  0  0  0  0  0  0  0  0  0
    7.0631    0.1081    0.5096 H   0  0  0  0  0  0  0  0  0  0  0  0
  111.1289   68.5960   28.3781 H   0  0  0  0  0  0  0  0  0  0  0  0
  1  2  1  0  0  0  0
  1 82  1  0  0  0  0
  1 83  1  0  0  0  0
  1 84  1  0  0  0  0
  2  3  1  0  0  0  0
  2 85  1  0  0  0  0
  3  4  1  0  0  0  0
  3 86  1  0  0  0  0
  3 87  1  0  0  0  0
  4  5  1  0  0  0  0
  4 88  1  0  0  0  0
  4 89  1  0  0  0  0
  5  6  1  0  0  0  0
  6  7  1  0  0  0  0
  7  8  1  0  0  0  0
  8  9  1  0  0  0  0
  9 10  1  0  0  0  0
 10 11  1  0  0  0  0
 11 12  1  0  0  0  0
 12 13  1  0  0  0  0
 13 14  1  0  0  0  0
 14 15  1  0  0  0  0
 15 16  1  0  0  0  0
 16 17  1  0  0  0  0
 17 18  1  0  0  0  0
 18 19  1  0  0  0  0
 19 20  1  0  0  0  0
 20 21  1  0  0  0  0
 21 22  1  0  0  0  0
 22 23  1  0  0  0  0
 23 24  1  0  0  0  0
 24 25  1  0  0  0  0
 25 26  1  0  0  0  0
 26 27  1  0  0  0  0
 27 28  1  0  0  0  0
 28 29  1  0  0  0  0
 29 30  1  0  0  0  0
 30 31  1  0  0  0  0
 31 32  1  0  0  0  0
 32 33  1  0  0  0  0
 33 34  1  0  0  0  0
 34 35  1  0  0  0  0
 35 36  1  0  0  0  0
 36 37  1  0  0  0  0
 37 38  1  0  0  0  0
 38 39  1  0  0  0  0
 39 40  1  0  0  0  0
 40 41  1  0  0  0  0
 41 42  1  0  0  0  0
 42 43  1  0  0  0  0
 43 44  1  0  0  0  0
 44 45  1  0  0  0  0
 45 46  1  0  0  0  0
 46 47  1  0  0  0  0
 47 48  1  0  0  0  0
 48 49  1  0  0  0  0
 49 50  1  0  0  0  0
 50 51  1  0  0  0  0
 51 52  1  0  0  0  0
 52 53  1  0  0  0  0
 53 54  1  0  0  0  0
 54 55  1  0  0  0  0
 55 56  1  0  0  0  0
 56 57  1  0  0  0  0
 57 58  1  0  0  0  0
 58 59  1  0  0  0  0
 59 60  1  0  0  0  0
 60 61  1  0  0  0  0
 61 62  1  0  0  0  0
 62 63  1  0  0  0  0
 63 64  1  0  0  0  0
 64 65  1  0  0  0  0
 65 66  1  0  0  0  0
 66 67  1  0  0  0  0
 67 68  1  0  0  0  0
 68 69  1  0  0  0  0
 69 70  1  0  0  0  0
 70 71  1  0  0  0  0
 71 72  1  0  0  0  0
 72 73  1  0  0  0  0
 73 74  1  0  0  0  0
 74 75  1  0  0  0  0
 75 76  1  0  0  0  0
 76 77  1  0  0  0  0
 77 78  1  0  0  0  0
 78 79  1  0  0  0  0
 79 80  1  0  0  0  0
 80 81  1  0  0  0  0
 81 90  1  0  0  0  0
M  END
$$$$
