
 OpenBabel04232216403D

 57 56  0  0  0  0  0  0  0  0999 V2000
    1.5667    0.9373    0.5430 C   0  0  0  0  0  0  0  0  0  0  0  0
    2.4465    0.0247    0.1167 C   0  0  0  0  0  0  0  0  0  0  0  0
    3.1804   -0.9049    1.0230 C   0  0  0  0  0  0  0  0  0  0  0  0
    4.6150   -0.7680    0.7944 N   0  0  0  0  0  0  0  0  0  0  0  0
    5.2948   -1.6902    1.6122 N   0  0  0  0  0  0  0  0  0  0  0  0
    6.6676   -1.4313    1.4492 N   0  0  0  0  0  0  0  0  0  0  0  0
    7.4119   -2.2908    2.3643 C   0  0  0  0  0  0  0  0  0  0  0  0
    8.9116   -2.0932    2.1673 C   0  0  0  0  0  0  0  0  0  0  0  0
    9.6899   -3.0340    3.0835 C   0  0  0  0  0  0  0  0  0  0  0  0
   11.1904   -2.8527    2.9002 C   0  0  0  0  0  0  0  0  0  0  0  0
   11.9595   -3.7930    3.8193 C   0  0  0  0  0  0  0  0  0  0  0  0
   13.4588   -3.6064    3.6353 C   0  0  0  0  0  0  0  0  0  0  0  0
   14.2293   -4.5437    4.5535 C   0  0  0  0  0  0  0  0  0  0  0  0
   15.7279   -4.3544    4.3683 C   0  0  0  0  0  0  0  0  0  0  0  0
   16.4984   -5.2917    5.2877 C   0  0  0  0  0  0  0  0  0  0  0  0
   17.9979   -5.1039    5.1030 C   0  0  0  0  0  0  0  0  0  0  0  0
   18.7727   -6.0401    6.0202 C   0  0  0  0  0  0  0  0  0  0  0  0
   20.2737   -5.8515    5.8357 C   0  0  0  0  0  0  0  0  0  0  0  0
   21.0582   -6.7853    6.7510 C   0  0  0  0  0  0  0  0  0  0  0  0
   22.5536   -6.5963    6.5658 C   0  0  0  0  0  0  0  0  0  0  0  0
    1.0473    1.5802   -0.1576 H   0  0  0  0  0  0  0  0  0  0  0  0
    1.3546    1.0522    1.6006 H   0  0  0  0  0  0  0  0  0  0  0  0
    2.6565   -0.0811   -0.9436 H   0  0  0  0  0  0  0  0  0  0  0  0
    2.8628   -1.9275    0.7803 H   0  0  0  0  0  0  0  0  0  0  0  0
    2.9309   -0.7177    2.0745 H   0  0  0  0  0  0  0  0  0  0  0  0
    4.9176    0.1701    1.0444 H   0  0  0  0  0  0  0  0  0  0  0  0
    5.0800   -2.6413    1.3092 H   0  0  0  0  0  0  0  0  0  0  0  0
    6.8317   -0.4476    1.6475 H   0  0  0  0  0  0  0  0  0  0  0  0
    7.1696   -3.3434    2.1658 H   0  0  0  0  0  0  0  0  0  0  0  0
    7.1440   -2.0758    3.4063 H   0  0  0  0  0  0  0  0  0  0  0  0
    9.1880   -1.0536    2.3825 H   0  0  0  0  0  0  0  0  0  0  0  0
    9.1835   -2.2933    1.1229 H   0  0  0  0  0  0  0  0  0  0  0  0
    9.4166   -4.0743    2.8659 H   0  0  0  0  0  0  0  0  0  0  0  0
    9.4194   -2.8418    4.1289 H   0  0  0  0  0  0  0  0  0  0  0  0
   11.4680   -1.8143    3.1176 H   0  0  0  0  0  0  0  0  0  0  0  0
   11.4641   -3.0506    1.8567 H   0  0  0  0  0  0  0  0  0  0  0  0
   11.6861   -4.8330    3.6021 H   0  0  0  0  0  0  0  0  0  0  0  0
   11.6871   -3.5982    4.8639 H   0  0  0  0  0  0  0  0  0  0  0  0
   13.7329   -2.5667    3.8525 H   0  0  0  0  0  0  0  0  0  0  0  0
   13.7323   -3.8025    2.5914 H   0  0  0  0  0  0  0  0  0  0  0  0
   13.9567   -5.5841    4.3369 H   0  0  0  0  0  0  0  0  0  0  0  0
   13.9567   -4.3479    5.5977 H   0  0  0  0  0  0  0  0  0  0  0  0
   16.0000   -3.3140    4.5853 H   0  0  0  0  0  0  0  0  0  0  0  0
   16.0008   -4.5494    3.3239 H   0  0  0  0  0  0  0  0  0  0  0  0
   16.2243   -6.3314    5.0710 H   0  0  0  0  0  0  0  0  0  0  0  0
   16.2238   -5.0947    6.3310 H   0  0  0  0  0  0  0  0  0  0  0  0
   18.2698   -4.0633    5.3187 H   0  0  0  0  0  0  0  0  0  0  0  0
   18.2694   -5.2991    4.0581 H   0  0  0  0  0  0  0  0  0  0  0  0
   18.4989   -7.0805    5.8041 H   0  0  0  0  0  0  0  0  0  0  0  0
   18.4989   -5.8443    7.0651 H   0  0  0  0  0  0  0  0  0  0  0  0
   20.5424   -4.8099    6.0503 H   0  0  0  0  0  0  0  0  0  0  0  0
   20.5424   -6.0453    4.7899 H   0  0  0  0  0  0  0  0  0  0  0  0
   20.7935   -7.8271    6.5362 H   0  0  0  0  0  0  0  0  0  0  0  0
   20.7936   -6.5912    7.7969 H   0  0  0  0  0  0  0  0  0  0  0  0
   22.8478   -6.8104    5.5333 H   0  0  0  0  0  0  0  0  0  0  0  0
   23.1056   -7.2702    7.2263 H   0  0  0  0  0  0  0  0  0  0  0  0
   22.8478   -5.5683    6.8003 H   0  0  0  0  0  0  0  0  0  0  0  0
  1  2  2  0  0  0  0
  1 21  1  0  0  0  0
  1 22  1  0  0  0  0
  2  3  1  0  0  0  0
  2 23  1  0  0  0  0
  3  4  1  0  0  0  0
  3 24  1  0  0  0  0
  3 25  1  0  0  0  0
  4  5  1  0  0  0  0
  4 26  1  0  0  0  0
  5  6  1  0  0  0  0
  5 27  1  0  0  0  0
  6  7  1  0  0  0  0
  6 28  1  0  0  0  0
  7  8  1  0  0  0  0
  7 29  1  0  0  0  0
  7 30  1  0  0  0  0
  8  9  1  0  0  0  0
  8 31  1  0  0  0  0
  8 32  1  0  0  0  0
  9 10  1  0  0  0  0
  9 33  1  0  0  0  0
  9 34  1  0  0  0  0
 10 11  1  0  0  0  0
 10 35  1  0  0  0  0
 10 36  1  0  0  0  0
 11 12  1  0  0  0  0
 11 37  1  0  0  0  0
 11 38  1  0  0  0  0
 12 13  1  0  0  0  0
 12 39  1  0  0  0  0
 12 40  1  0  0  0  0
 13 14  1  0  0  0  0
 13 41  1  0  0  0  0
 13 42  1  0  0  0  0
 14 15  1  0  0  0  0
 14 43  1  0  0  0  0
 14 44  1  0  0  0  0
 15 16  1  0  0  0  0
 15 45  1  0  0  0  0
 15 46  1  0  0  0  0
 16 17  1  0  0  0  0
 16 47  1  0  0  0  0
 16 48  1  0  0  0  0
 17 18  1  0  0  0  0
 17 49  1  0  0  0  0
 17 50  1  0  0  0  0
 18 19  1  0  0  0  0
 18 51  1  0  0  0  0
 18 52  1  0  0  0  0
 19 20  1  0  0  0  0
 19 53  1  0  0  0  0
 19 54  1  0  0  0  0
 20 55  1  0  0  0  0
 20 56  1  0  0  0  0
 20 57  1  0  0  0  0
M  END
$$$$
