
 OpenBabel04232216493D

 75 76  0  0  1  0  0  0  0  0999 V2000
    6.3338    4.5348    0.3605 C   0  0  0  0  0  0  0  0  0  0  0  0
    6.9185    4.7344    1.9763 C   0  0  3  0  0  0  0  0  0  0  0  0
    5.3880    3.8709    2.5581 C   0  0  0  0  0  0  0  0  0  0  0  0
    5.0277    2.2425    2.1416 C   0  0  0  0  0  0  0  0  0  0  0  0
    5.5190    1.2662    3.1988 C   0  0  0  0  0  0  0  0  0  0  0  0
    6.9788    1.1497    2.9054 C   0  0  0  0  0  0  0  0  0  0  0  0
    7.5624    2.1559    3.7987 C   0  0  0  0  0  0  0  0  0  0  0  0
    8.9485    2.3199    3.3493 C   0  0  0  0  0  0  0  0  0  0  0  0
    9.3993    3.2225    4.4142 C   0  0  0  0  0  0  0  0  0  0  0  0
   10.8595    3.3600    4.3653 C   0  0  0  0  0  0  0  0  0  0  0  0
   10.9821    3.9143    5.7332 C   0  0  0  0  0  0  0  0  0  0  0  0
   12.3228    3.8628    6.3161 C   0  0  0  0  0  0  0  0  0  0  0  0
   12.0425    4.8011    7.5040 C   0  0  0  0  0  0  0  0  0  0  0  0
   11.4832    4.4114    8.5244 O   0  0  0  0  0  0  0  0  0  0  0  0
   12.0500    6.2486    7.1709 C   0  0  0  0  0  0  0  0  0  0  0  0
   12.7524    6.3554    5.9919 C   0  0  0  0  0  0  0  0  0  0  0  0
   12.1046    6.2806    4.6424 C   0  0  0  0  0  0  0  0  0  0  0  0
   11.1719    7.1874    4.2967 C   0  0  0  0  0  0  0  0  0  0  0  0
   11.9407    8.6621    5.2744 C   0  0  0  0  0  0  0  0  0  0  0  0
   13.3807    9.0090    6.4991 C   0  0  0  0  0  0  0  0  0  0  0  0
   13.6716    9.8551    8.0301 C   0  0  0  0  0  0  0  0  0  0  0  0
   12.5404    9.7066    8.9974 C   0  0  0  0  0  0  0  0  0  0  0  0
   11.5553   10.4889    9.9186 C   0  0  0  0  0  0  0  0  0  0  0  0
   10.3416    9.6658    9.4842 C   0  0  0  0  0  0  0  0  0  0  0  0
    9.0798    8.9599    9.1554 C   0  0  0  0  0  0  0  0  0  0  0  0
    9.4421    7.7277    8.1033 C   0  0  0  0  0  0  0  0  0  0  0  0
   10.9221    7.2545    7.6172 C   0  0  0  0  0  0  0  0  0  0  0  0
    9.5126    6.5717    3.6294 C   0  0  0  0  0  0  0  0  0  0  0  0
    8.5369    5.6372    2.6254 C   0  0  0  0  0  0  0  0  0  0  0  0
    5.5291    3.7528    0.3305 H   0  0  0  0  0  0  0  0  0  0  0  0
    7.0141    4.0321   -0.3328 H   0  0  0  0  0  0  0  0  0  0  0  0
    5.7380    5.3554   -0.0547 H   0  0  0  0  0  0  0  0  0  0  0  0
    7.4980    3.8090    1.8892 H   0  0  0  0  0  0  0  0  0  0  0  0
    5.1763    4.0090    3.6189 H   0  0  0  0  0  0  0  0  0  0  0  0
    4.5350    4.3558    2.0394 H   0  0  0  0  0  0  0  0  0  0  0  0
    5.4261    1.9261    1.1606 H   0  0  0  0  0  0  0  0  0  0  0  0
    3.9462    2.0442    2.0478 H   0  0  0  0  0  0  0  0  0  0  0  0
    5.0862    0.2612    3.2191 H   0  0  0  0  0  0  0  0  0  0  0  0
    5.2913    1.7060    4.1810 H   0  0  0  0  0  0  0  0  0  0  0  0
    7.2400    1.3889    1.8638 H   0  0  0  0  0  0  0  0  0  0  0  0
    7.4156    0.1731    3.1208 H   0  0  0  0  0  0  0  0  0  0  0  0
    7.4330    1.8498    4.8441 H   0  0  0  0  0  0  0  0  0  0  0  0
    7.0791    3.1371    3.7948 H   0  0  0  0  0  0  0  0  0  0  0  0
    9.1119    2.7481    2.3654 H   0  0  0  0  0  0  0  0  0  0  0  0
    9.4967    1.3660    3.4044 H   0  0  0  0  0  0  0  0  0  0  0  0
    9.0793    2.7592    5.3685 H   0  0  0  0  0  0  0  0  0  0  0  0
    8.8478    4.1575    4.3813 H   0  0  0  0  0  0  0  0  0  0  0  0
   11.1583    4.0108    3.5331 H   0  0  0  0  0  0  0  0  0  0  0  0
   11.3622    2.3983    4.2513 H   0  0  0  0  0  0  0  0  0  0  0  0
   10.3539    3.4050    6.4691 H   0  0  0  0  0  0  0  0  0  0  0  0
   10.5136    4.9097    5.7089 H   0  0  0  0  0  0  0  0  0  0  0  0
   13.0922    4.1499    5.5901 H   0  0  0  0  0  0  0  0  0  0  0  0
   12.6118    2.8460    6.6281 H   0  0  0  0  0  0  0  0  0  0  0  0
   13.7972    6.0168    5.9430 H   0  0  0  0  0  0  0  0  0  0  0  0
   12.8856    6.2825    3.8676 H   0  0  0  0  0  0  0  0  0  0  0  0
   11.4962    9.5909    4.9840 H   0  0  0  0  0  0  0  0  0  0  0  0
   12.7549    8.6135    4.5077 H   0  0  0  0  0  0  0  0  0  0  0  0
   13.8868    8.0732    6.7663 H   0  0  0  0  0  0  0  0  0  0  0  0
   14.1391    9.5212    5.8869 H   0  0  0  0  0  0  0  0  0  0  0  0
   13.9785   10.8972    7.9211 H   0  0  0  0  0  0  0  0  0  0  0  0
   14.5277    9.3581    8.5366 H   0  0  0  0  0  0  0  0  0  0  0  0
   12.6423    8.6885    9.4301 H   0  0  0  0  0  0  0  0  0  0  0  0
   11.9436    9.7342    8.1188 H   0  0  0  0  0  0  0  0  0  0  0  0
   11.5112   11.5614    9.6922 H   0  0  0  0  0  0  0  0  0  0  0  0
   11.7841   10.3710   10.9882 H   0  0  0  0  0  0  0  0  0  0  0  0
   10.7597    8.7230    9.8356 H   0  0  0  0  0  0  0  0  0  0  0  0
   10.3204   10.1070    8.4827 H   0  0  0  0  0  0  0  0  0  0  0  0
    8.3765    9.6487    8.6570 H   0  0  0  0  0  0  0  0  0  0  0  0
    8.5630    8.5824   10.0392 H   0  0  0  0  0  0  0  0  0  0  0  0
    9.0580    8.1949    7.1778 H   0  0  0  0  0  0  0  0  0  0  0  0
    8.8150    6.8683    8.3224 H   0  0  0  0  0  0  0  0  0  0  0  0
   10.5307    7.2109    6.6144 H   0  0  0  0  0  0  0  0  0  0  0  0
   11.5070    8.1319    7.7091 H   0  0  0  0  0  0  0  0  0  0  0  0
   10.3075    6.3395    2.8554 H   0  0  0  0  0  0  0  0  0  0  0  0
    9.1675    5.2147    1.8274 H   0  0  0  0  0  0  0  0  0  0  0  0
  1  2  1  0  0  0  0
  1 30  1  0  0  0  0
  1 31  1  0  0  0  0
  1 32  1  0  0  0  0
  2  3  1  0  0  0  0
  2 29  1  0  0  0  0
  2 33  1  0  0  0  0
  3  4  1  0  0  0  0
  3 34  1  0  0  0  0
  3 35  1  0  0  0  0
  4  5  1  0  0  0  0
  4 36  1  0  0  0  0
  4 37  1  0  0  0  0
  5  6  1  0  0  0  0
  5 38  1  0  0  0  0
  5 39  1  0  0  0  0
  6  7  1  0  0  0  0
  6 40  1  0  0  0  0
  6 41  1  0  0  0  0
  7  8  1  0  0  0  0
  7 42  1  0  0  0  0
  7 43  1  0  0  0  0
  8  9  1  0  0  0  0
  8 44  1  0  0  0  0
  8 45  1  0  0  0  0
  9 10  1  0  0  0  0
  9 46  1  0  0  0  0
  9 47  1  0  0  0  0
 10 11  1  0  0  0  0
 10 48  1  0  0  0  0
 10 49  1  0  0  0  0
 11 12  1  0  0  0  0
 11 50  1  0  0  0  0
 11 51  1  0  0  0  0
 12 13  1  0  0  0  0
 12 52  1  0  0  0  0
 12 53  1  0  0  0  0
 13 14  2  0  0  0  0
 13 15  1  0  0  0  0
 15 16  2  3  0  0  0
 15 27  1  0  0  0  0
 16 17  1  0  0  0  0
 16 54  1  0  0  0  0
 17 18  2  3  0  0  0
 17 55  1  0  0  0  0
 18 19  1  0  0  0  0
 18 28  1  0  0  0  0
 19 20  1  0  0  0  0
 19 56  1  0  0  0  0
 19 57  1  0  0  0  0
 20 21  1  0  0  0  0
 20 58  1  0  0  0  0
 20 59  1  0  0  0  0
 21 22  1  0  0  0  0
 21 60  1  0  0  0  0
 21 61  1  0  0  0  0
 22 23  1  0  0  0  0
 22 62  1  0  0  0  0
 22 63  1  0  0  0  0
 23 24  1  0  0  0  0
 23 64  1  0  0  0  0
 23 65  1  0  0  0  0
 24 25  1  0  0  0  0
 24 66  1  0  0  0  0
 24 67  1  0  0  0  0
 25 26  1  0  0  0  0
 25 68  1  0  0  0  0
 25 69  1  0  0  0  0
 26 27  1  0  0  0  0
 26 70  1  0  0  0  0
 26 71  1  0  0  0  0
 27 72  1  0  0  0  0
 27 73  1  0  0  0  0
 28 29  2  3  0  0  0
 28 74  1  0  0  0  0
 29 75  1  0  0  0  0
M  END
$$$$
