
 OpenBabel04232216453D

 51 51  0  0  1  0  0  0  0  0999 V2000
    6.4540    1.2188    3.4453 C   0  0  0  0  0  0  0  0  0  0  0  0
    7.3040   -0.1561    3.6217 C   0  0  3  0  0  0  0  0  0  0  0  0
    5.9596   -0.9406    3.4400 C   0  0  0  0  0  0  0  0  0  0  0  0
    5.3458   -1.4274    2.3037 C   0  0  0  0  0  0  0  0  0  0  0  0
    5.7029   -1.1781    0.8294 C   0  0  0  0  0  0  0  0  0  0  0  0
    4.7137   -2.8406    2.5465 C   0  0  0  0  0  0  0  0  0  0  0  0
    6.0228   -3.4583    2.9459 C   0  0  0  0  0  0  0  0  0  0  0  0
    6.5283   -4.5971    3.7693 C   0  0  0  0  0  0  0  0  0  0  0  0
    7.9555   -4.4454    3.3106 C   0  0  0  0  0  0  0  0  0  0  0  0
    8.8990   -5.0932    4.1902 C   0  0  0  0  0  0  0  0  0  0  0  0
   10.2529   -4.7210    3.6648 C   0  0  0  0  0  0  0  0  0  0  0  0
   10.5064   -4.1325    2.6200 O   0  0  0  0  0  0  0  0  0  0  0  0
   11.1466   -4.8640    4.6778 N   0  0  0  0  0  0  0  0  0  0  0  0
   11.3794   -3.6011    5.3091 C   0  0  0  0  0  0  0  0  0  0  0  0
   10.0939   -2.7898    5.8775 C   0  0  0  0  0  0  0  0  0  0  0  0
    9.8071   -1.2752    5.5286 C   0  0  0  0  0  0  0  0  0  0  0  0
   11.2101   -0.5544    6.4212 C   0  0  0  0  0  0  0  0  0  0  0  0
   12.7162   -1.8808    7.3949 S   0  0  0  0  0  0  0  0  0  0  0  0
   11.9351   -2.8623    8.1569 O   0  0  0  0  0  0  0  0  0  0  0  0
   13.5300   -2.3044    6.3475 O   0  0  0  0  0  0  0  0  0  0  0  0
   13.8506   -1.3940    8.6749 C   0  0  0  0  0  0  0  0  0  0  0  0
    8.7710   -0.4707    4.7659 C   0  0  0  0  0  0  0  0  0  0  0  0
    5.6239    1.0957    2.6872 H   0  0  0  0  0  0  0  0  0  0  0  0
    6.9803    2.0546    2.9946 H   0  0  0  0  0  0  0  0  0  0  0  0
    5.8618    1.5022    4.3299 H   0  0  0  0  0  0  0  0  0  0  0  0
    7.8215   -0.2601    2.6590 H   0  0  0  0  0  0  0  0  0  0  0  0
    5.4075   -1.1470    4.3678 H   0  0  0  0  0  0  0  0  0  0  0  0
    4.8278   -0.8792    0.2330 H   0  0  0  0  0  0  0  0  0  0  0  0
    6.1018   -2.0750    0.3289 H   0  0  0  0  0  0  0  0  0  0  0  0
    6.4504   -0.3974    0.7185 H   0  0  0  0  0  0  0  0  0  0  0  0
    4.3574   -3.3515    1.6391 H   0  0  0  0  0  0  0  0  0  0  0  0
    3.9393   -2.8608    3.3158 H   0  0  0  0  0  0  0  0  0  0  0  0
    6.4614   -2.7778    3.6637 H   0  0  0  0  0  0  0  0  0  0  0  0
    6.6263   -3.3704    2.0176 H   0  0  0  0  0  0  0  0  0  0  0  0
    6.0944   -5.5240    3.6300 H   0  0  0  0  0  0  0  0  0  0  0  0
    6.4368   -4.2787    4.8581 H   0  0  0  0  0  0  0  0  0  0  0  0
    8.2832   -3.3424    3.3035 H   0  0  0  0  0  0  0  0  0  0  0  0
    8.0720   -4.7563    2.2772 H   0  0  0  0  0  0  0  0  0  0  0  0
    8.7495   -6.1724    4.2897 H   0  0  0  0  0  0  0  0  0  0  0  0
    8.7156   -4.6921    5.1751 H   0  0  0  0  0  0  0  0  0  0  0  0
   10.9382   -5.6165    5.3206 H   0  0  0  0  0  0  0  0  0  0  0  0
   11.9654   -2.9845    4.6178 H   0  0  0  0  0  0  0  0  0  0  0  0
   12.0268   -3.9647    6.1119 H   0  0  0  0  0  0  0  0  0  0  0  0
    9.2308   -3.3766    6.1613 H   0  0  0  0  0  0  0  0  0  0  0  0
   10.3469   -2.6756    6.9257 H   0  0  0  0  0  0  0  0  0  0  0  0
   10.8673    0.0316    7.2842 H   0  0  0  0  0  0  0  0  0  0  0  0
   11.8739   -0.0722    5.7250 H   0  0  0  0  0  0  0  0  0  0  0  0
   13.3876   -1.2600    9.6449 H   0  0  0  0  0  0  0  0  0  0  0  0
   14.5355   -0.6159    8.3836 H   0  0  0  0  0  0  0  0  0  0  0  0
   14.4649   -2.3010    8.8054 H   0  0  0  0  0  0  0  0  0  0  0  0
    9.0599    0.5856    4.8606 H   0  0  0  0  0  0  0  0  0  0  0  0
  1  2  1  0  0  0  0
  1 23  1  0  0  0  0
  1 24  1  0  0  0  0
  1 25  1  0  0  0  0
  2  3  1  0  0  0  0
  2 22  1  0  0  0  0
  2 26  1  0  0  0  0
  3  4  2  3  0  0  0
  3 27  1  0  0  0  0
  4  5  1  0  0  0  0
  4  6  1  0  0  0  0
  5 28  1  0  0  0  0
  5 29  1  0  0  0  0
  5 30  1  0  0  0  0
  6  7  1  0  0  0  0
  6 31  1  0  0  0  0
  6 32  1  0  0  0  0
  7  8  1  0  0  0  0
  7 33  1  0  0  0  0
  7 34  1  0  0  0  0
  8  9  1  0  0  0  0
  8 35  1  0  0  0  0
  8 36  1  0  0  0  0
  9 10  1  0  0  0  0
  9 37  1  0  0  0  0
  9 38  1  0  0  0  0
 10 11  1  0  0  0  0
 10 39  1  0  0  0  0
 10 40  1  0  0  0  0
 11 12  2  0  0  0  0
 11 13  1  0  0  0  0
 13 14  1  0  0  0  0
 13 41  1  0  0  0  0
 14 15  1  0  0  0  0
 14 42  1  0  0  0  0
 14 43  1  0  0  0  0
 15 16  1  0  0  0  0
 15 44  1  0  0  0  0
 15 45  1  0  0  0  0
 16 17  1  0  0  0  0
 16 22  2  3  0  0  0
 17 18  1  0  0  0  0
 17 46  1  0  0  0  0
 17 47  1  0  0  0  0
 18 19  2  0  0  0  0
 18 20  2  0  0  0  0
 18 21  1  0  0  0  0
 21 48  1  0  0  0  0
 21 49  1  0  0  0  0
 21 50  1  0  0  0  0
 22 51  1  0  0  0  0
M  END
$$$$
