
 OpenBabel04232216533D

135134  0  0  0  0  0  0  0  0999 V2000
   23.4128   35.5578   -7.3898 C   0  0  0  0  0  0  0  0  0  0  0  0
   22.8804   34.4567   -6.4919 C   0  0  0  0  0  0  0  0  0  0  0  0
   23.3347   33.0916   -6.9920 C   0  0  0  0  0  0  0  0  0  0  0  0
   22.8024   31.9823   -6.0966 C   0  0  0  0  0  0  0  0  0  0  0  0
   23.2639   30.6260   -6.6082 C   0  0  0  0  0  0  0  0  0  0  0  0
   22.7323   29.5187   -5.7140 C   0  0  0  0  0  0  0  0  0  0  0  0
   23.1955   28.1655   -6.2250 C   0  0  0  0  0  0  0  0  0  0  0  0
   22.6639   27.0617   -5.3279 C   0  0  0  0  0  0  0  0  0  0  0  0
   23.1277   25.7101   -5.8396 C   0  0  0  0  0  0  0  0  0  0  0  0
   22.5963   24.6052   -4.9457 C   0  0  0  0  0  0  0  0  0  0  0  0
   23.0639   23.2551   -5.4599 C   0  0  0  0  0  0  0  0  0  0  0  0
   22.5331   22.1536   -4.5644 C   0  0  0  0  0  0  0  0  0  0  0  0
   22.9874   20.7968   -5.0651 C   0  0  0  0  0  0  0  0  0  0  0  0
   22.4339   19.7239   -4.1542 C   0  0  0  0  0  0  0  0  0  0  0  0
   22.8507   18.4698   -4.6545 O   0  0  0  0  0  0  0  0  0  0  0  0
   22.3936   17.4293   -3.8041 C   0  0  0  0  0  0  0  0  0  0  0  0
   22.8323   16.1659   -4.2596 O   0  0  0  0  0  0  0  0  0  0  0  0
   24.2565   16.0957   -4.3003 C   0  0  0  0  0  0  0  0  0  0  0  0
   24.6903   14.8367   -4.7763 O   0  0  0  0  0  0  0  0  0  0  0  0
   24.2046   14.6372   -6.0946 C   0  0  0  0  0  0  0  0  0  0  0  0
   24.6034   13.3634   -6.5580 O   0  0  0  0  0  0  0  0  0  0  0  0
   24.1689   13.2026   -7.9028 C   0  0  0  0  0  0  0  0  0  0  0  0
   24.6645   14.2617   -8.7176 O   0  0  0  0  0  0  0  0  0  0  0  0
   26.0933   14.2181   -8.7909 C   0  0  0  0  0  0  0  0  0  0  0  0
   26.5613   12.9671   -9.2591 O   0  0  0  0  0  0  0  0  0  0  0  0
   26.1064   12.7377  -10.5964 C   0  0  0  0  0  0  0  0  0  0  0  0
   26.5582   13.7578  -11.4726 O   0  0  0  0  0  0  0  0  0  0  0  0
   27.9750   13.7917  -11.4368 C   0  0  0  0  0  0  0  0  0  0  0  0
   28.4778   12.5568  -11.8862 O   0  0  0  0  0  0  0  0  0  0  0  0
   29.8922   12.5190  -11.7920 C   0  0  0  0  0  0  0  0  0  0  0  0
   30.2935   11.1697  -12.3426 C   0  0  0  0  0  0  0  0  0  0  0  0
   29.7594   11.0105  -13.6703 O   0  0  0  0  0  0  0  0  0  0  0  0
   30.2603   12.0170  -14.5499 C   0  0  0  0  0  0  0  0  0  0  0  0
   31.6716   11.9913  -14.5992 O   0  0  0  0  0  0  0  0  0  0  0  0
   32.0593   10.7137  -15.0478 C   0  0  0  0  0  0  0  0  0  0  0  0
   33.4488   10.6655  -15.0081 O   0  0  0  0  0  0  0  0  0  0  0  0
   33.8490    9.4289  -15.4986 C   0  0  0  0  0  0  0  0  0  0  0  0
   35.2311    9.4612  -15.4498 O   0  0  0  0  0  0  0  0  0  0  0  0
   35.5472    8.2030  -15.9671 O   0  0  0  0  0  0  0  0  0  0  0  0
   36.9310    8.0991  -15.9779 O   0  0  0  0  0  0  0  0  0  0  0  0
   37.2330    6.8441  -16.4944 O   0  0  0  0  0  0  0  0  0  0  0  0
   38.6105    6.7549  -16.4991 O   0  0  0  0  0  0  0  0  0  0  0  0
   38.9300    5.5059  -17.0124 O   0  0  0  0  0  0  0  0  0  0  0  0
   40.3046    5.4430  -17.0062 O   0  0  0  0  0  0  0  0  0  0  0  0
   40.6410    4.2056  -17.5142 O   0  0  0  0  0  0  0  0  0  0  0  0
   42.0136    4.1641  -17.4991 O   0  0  0  0  0  0  0  0  0  0  0  0
   42.3608    2.9271  -18.0068 O   0  0  0  0  0  0  0  0  0  0  0  0
   43.7312    2.8940  -17.9883 O   0  0  0  0  0  0  0  0  0  0  0  0
   44.0721    1.6618  -18.4940 O   0  0  0  0  0  0  0  0  0  0  0  0
   45.4424    1.6171  -18.4804 O   0  0  0  0  0  0  0  0  0  0  0  0
   45.7615    0.3887  -18.9851 O   0  0  0  0  0  0  0  0  0  0  0  0
   47.1269    0.3388  -18.9737 O   0  0  0  0  0  0  0  0  0  0  0  0
   47.4295   -0.8942  -19.4807 O   0  0  0  0  0  0  0  0  0  0  0  0
   48.7954   -0.9537  -19.4733 O   0  0  0  0  0  0  0  0  0  0  0  0
   49.0943   -2.1886  -19.9812 O   0  0  0  0  0  0  0  0  0  0  0  0
   50.4601   -2.2400  -19.9704 O   0  0  0  0  0  0  0  0  0  0  0  0
   50.7716   -3.4702  -20.4760 O   0  0  0  0  0  0  0  0  0  0  0  0
   52.1377   -3.5085  -20.4598 O   0  0  0  0  0  0  0  0  0  0  0  0
   52.4589   -4.7365  -20.9643 O   0  0  0  0  0  0  0  0  0  0  0  0
   53.8216   -4.7734  -20.9475 O   0  0  0  0  0  0  0  0  0  0  0  0
   54.1335   -5.9948  -21.4495 O   0  0  0  0  0  0  0  0  0  0  0  0
   55.5011   -6.0485  -21.4396 O   0  0  0  0  0  0  0  0  0  0  0  0
   55.8056   -7.2691  -21.9414 O   0  0  0  0  0  0  0  0  0  0  0  0
   57.1831   -7.3275  -21.9333 O   0  0  0  0  0  0  0  0  0  0  0  0
   57.4890   -8.5393  -22.4314 O   0  0  0  0  0  0  0  0  0  0  0  0
   58.8439   -8.6019  -22.4255 O   0  0  0  0  0  0  0  0  0  0  0  0
   59.1884   -9.8180  -22.9245 O   0  0  0  0  0  0  0  0  0  0  0  0
   60.5681   -9.8538  -22.9069 O   0  0  0  0  0  0  0  0  0  0  0  0
   60.8913  -11.1103  -23.4232 O   0  0  0  0  0  0  0  0  0  0  0  0
   62.2643  -11.1602  -23.4116 O   0  0  0  0  0  0  0  0  0  0  0  0
   62.5808  -12.4102  -23.9254 O   0  0  0  0  0  0  0  0  0  0  0  0
   63.9654  -12.4724  -23.9187 O   0  0  0  0  0  0  0  0  0  0  0  0
   64.3114  -13.7225  -24.4319 O   0  0  0  0  0  0  0  0  0  0  0  0
   65.7068  -13.7731  -24.4198 O   0  0  0  0  0  0  0  0  0  0  0  0
   66.0620  -15.0266  -24.9331 O   0  0  0  0  0  0  0  0  0  0  0  0
   67.4576  -15.1024  -24.9368 O   0  0  0  0  0  0  0  0  0  0  0  0
   67.8083  -16.3670  -25.4575 O   0  0  0  0  0  0  0  0  0  0  0  0
   69.2104  -16.4935  -25.4125 O   0  0  0  0  0  0  0  0  0  0  0  0
   69.5792  -17.7594  -25.9608 O   0  0  0  0  0  0  0  0  0  0  0  0
   71.0073  -17.8395  -26.0100 O   0  0  0  0  0  0  0  0  0  0  0  0
   71.5273  -16.7680  -26.8324 O   0  0  0  0  0  0  0  0  0  0  0  0
   23.0843   36.5355   -7.0270 H   0  0  0  0  0  0  0  0  0  0  0  0
   23.0507   35.4313   -8.4151 H   0  0  0  0  0  0  0  0  0  0  0  0
   24.5073   35.5475   -7.4091 H   0  0  0  0  0  0  0  0  0  0  0  0
   21.7853   34.5002   -6.4681 H   0  0  0  0  0  0  0  0  0  0  0  0
   23.2350   34.6157   -5.4668 H   0  0  0  0  0  0  0  0  0  0  0  0
   24.4307   33.0501   -7.0165 H   0  0  0  0  0  0  0  0  0  0  0  0
   22.9827   32.9355   -8.0192 H   0  0  0  0  0  0  0  0  0  0  0  0
   21.7063   32.0150   -6.0718 H   0  0  0  0  0  0  0  0  0  0  0  0
   23.1550   32.1296   -5.0685 H   0  0  0  0  0  0  0  0  0  0  0  0
   24.3600   30.5888   -6.6329 H   0  0  0  0  0  0  0  0  0  0  0  0
   22.9116   30.4742   -7.6360 H   0  0  0  0  0  0  0  0  0  0  0  0
   21.6361   29.5514   -5.6903 H   0  0  0  0  0  0  0  0  0  0  0  0
   23.0838   29.6677   -4.6857 H   0  0  0  0  0  0  0  0  0  0  0  0
   24.2917   28.1300   -6.2497 H   0  0  0  0  0  0  0  0  0  0  0  0
   22.8430   28.0128   -7.2525 H   0  0  0  0  0  0  0  0  0  0  0  0
   21.5677   27.0956   -5.3031 H   0  0  0  0  0  0  0  0  0  0  0  0
   23.0166   27.2129   -4.3002 H   0  0  0  0  0  0  0  0  0  0  0  0
   24.2238   25.6757   -5.8628 H   0  0  0  0  0  0  0  0  0  0  0  0
   22.7761   25.5591   -6.8676 H   0  0  0  0  0  0  0  0  0  0  0  0
   21.4998   24.6376   -4.9225 H   0  0  0  0  0  0  0  0  0  0  0  0
   22.9461   24.7555   -3.9168 H   0  0  0  0  0  0  0  0  0  0  0  0
   24.1600   23.2224   -5.4825 H   0  0  0  0  0  0  0  0  0  0  0  0
   22.7116   23.1036   -6.4874 H   0  0  0  0  0  0  0  0  0  0  0  0
   21.4369   22.1901   -4.5388 H   0  0  0  0  0  0  0  0  0  0  0  0
   22.8850   22.3065   -3.5365 H   0  0  0  0  0  0  0  0  0  0  0  0
   24.0830   20.7380   -5.0948 H   0  0  0  0  0  0  0  0  0  0  0  0
   22.6476   20.6253   -6.0942 H   0  0  0  0  0  0  0  0  0  0  0  0
   21.3399   19.7575   -4.1436 H   0  0  0  0  0  0  0  0  0  0  0  0
   22.8120   19.8619   -3.1343 H   0  0  0  0  0  0  0  0  0  0  0  0
   21.2994   17.4217   -3.8051 H   0  0  0  0  0  0  0  0  0  0  0  0
   22.7522   17.5756   -2.7798 H   0  0  0  0  0  0  0  0  0  0  0  0
   24.6526   16.2347   -3.2914 H   0  0  0  0  0  0  0  0  0  0  0  0
   24.6664   16.8849   -4.9459 H   0  0  0  0  0  0  0  0  0  0  0  0
   24.5977   15.4441   -6.7304 H   0  0  0  0  0  0  0  0  0  0  0  0
   23.1110   14.6737   -6.1099 H   0  0  0  0  0  0  0  0  0  0  0  0
   23.0755   13.2151   -7.9396 H   0  0  0  0  0  0  0  0  0  0  0  0
   24.4957   12.2233   -8.2681 H   0  0  0  0  0  0  0  0  0  0  0  0
   26.5116   14.3898   -7.7930 H   0  0  0  0  0  0  0  0  0  0  0  0
   26.4433   15.0479   -9.4132 H   0  0  0  0  0  0  0  0  0  0  0  0
   25.0115   12.7198  -10.6178 H   0  0  0  0  0  0  0  0  0  0  0  0
   26.4420   11.7492  -10.9224 H   0  0  0  0  0  0  0  0  0  0  0  0
   28.3476   13.9958  -10.4264 H   0  0  0  0  0  0  0  0  0  0  0  0
   28.3164   14.5935  -12.0940 H   0  0  0  0  0  0  0  0  0  0  0  0
   30.2335   12.6503  -10.7654 H   0  0  0  0  0  0  0  0  0  0  0  0
   30.2977   13.3428  -12.3822 H   0  0  0  0  0  0  0  0  0  0  0  0
   29.8939   10.3542  -11.7298 H   0  0  0  0  0  0  0  0  0  0  0  0
   31.3849   11.0717  -12.3438 H   0  0  0  0  0  0  0  0  0  0  0  0
   29.9509   13.0180  -14.2531 H   0  0  0  0  0  0  0  0  0  0  0  0
   29.8668   11.8685  -15.5573 H   0  0  0  0  0  0  0  0  0  0  0  0
   31.6980   10.5643  -16.0697 H   0  0  0  0  0  0  0  0  0  0  0  0
   31.6743    9.9072  -14.4054 H   0  0  0  0  0  0  0  0  0  0  0  0
   33.5179    9.2807  -16.5371 H   0  0  0  0  0  0  0  0  0  0  0  0
   33.4778    8.5999  -14.8766 H   0  0  0  0  0  0  0  0  0  0  0  0
   72.4581  -16.9821  -26.6694 H   0  0  0  0  0  0  0  0  0  0  0  0
  1  2  1  0  0  0  0
  1 82  1  0  0  0  0
  1 83  1  0  0  0  0
  1 84  1  0  0  0  0
  2  3  1  0  0  0  0
  2 85  1  0  0  0  0
  2 86  1  0  0  0  0
  3  4  1  0  0  0  0
  3 87  1  0  0  0  0
  3 88  1  0  0  0  0
  4  5  1  0  0  0  0
  4 89  1  0  0  0  0
  4 90  1  0  0  0  0
  5  6  1  0  0  0  0
  5 91  1  0  0  0  0
  5 92  1  0  0  0  0
  6  7  1  0  0  0  0
  6 93  1  0  0  0  0
  6 94  1  0  0  0  0
  7  8  1  0  0  0  0
  7 95  1  0  0  0  0
  7 96  1  0  0  0  0
  8  9  1  0  0  0  0
  8 97  1  0  0  0  0
  8 98  1  0  0  0  0
  9 10  1  0  0  0  0
  9 99  1  0  0  0  0
  9100  1  0  0  0  0
 10 11  1  0  0  0  0
 10101  1  0  0  0  0
 10102  1  0  0  0  0
 11 12  1  0  0  0  0
 11103  1  0  0  0  0
 11104  1  0  0  0  0
 12 13  1  0  0  0  0
 12105  1  0  0  0  0
 12106  1  0  0  0  0
 13 14  1  0  0  0  0
 13107  1  0  0  0  0
 13108  1  0  0  0  0
 14 15  1  0  0  0  0
 14109  1  0  0  0  0
 14110  1  0  0  0  0
 15 16  1  0  0  0  0
 16 17  1  0  0  0  0
 16111  1  0  0  0  0
 16112  1  0  0  0  0
 17 18  1  0  0  0  0
 18 19  1  0  0  0  0
 18113  1  0  0  0  0
 18114  1  0  0  0  0
 19 20  1  0  0  0  0
 20 21  1  0  0  0  0
 20115  1  0  0  0  0
 20116  1  0  0  0  0
 21 22  1  0  0  0  0
 22 23  1  0  0  0  0
 22117  1  0  0  0  0
 22118  1  0  0  0  0
 23 24  1  0  0  0  0
 24 25  1  0  0  0  0
 24119  1  0  0  0  0
 24120  1  0  0  0  0
 25 26  1  0  0  0  0
 26 27  1  0  0  0  0
 26121  1  0  0  0  0
 26122  1  0  0  0  0
 27 28  1  0  0  0  0
 28 29  1  0  0  0  0
 28123  1  0  0  0  0
 28124  1  0  0  0  0
 29 30  1  0  0  0  0
 30 31  1  0  0  0  0
 30125  1  0  0  0  0
 30126  1  0  0  0  0
 31 32  1  0  0  0  0
 31127  1  0  0  0  0
 31128  1  0  0  0  0
 32 33  1  0  0  0  0
 33 34  1  0  0  0  0
 33129  1  0  0  0  0
 33130  1  0  0  0  0
 34 35  1  0  0  0  0
 35 36  1  0  0  0  0
 35131  1  0  0  0  0
 35132  1  0  0  0  0
 36 37  1  0  0  0  0
 37 38  1  0  0  0  0
 37133  1  0  0  0  0
 37134  1  0  0  0  0
 38 39  1  0  0  0  0
 39 40  1  0  0  0  0
 40 41  1  0  0  0  0
 41 42  1  0  0  0  0
 42 43  1  0  0  0  0
 43 44  1  0  0  0  0
 44 45  1  0  0  0  0
 45 46  1  0  0  0  0
 46 47  1  0  0  0  0
 47 48  1  0  0  0  0
 48 49  1  0  0  0  0
 49 50  1  0  0  0  0
 50 51  1  0  0  0  0
 51 52  1  0  0  0  0
 52 53  1  0  0  0  0
 53 54  1  0  0  0  0
 54 55  1  0  0  0  0
 55 56  1  0  0  0  0
 56 57  1  0  0  0  0
 57 58  1  0  0  0  0
 58 59  1  0  0  0  0
 59 60  1  0  0  0  0
 60 61  1  0  0  0  0
 61 62  1  0  0  0  0
 62 63  1  0  0  0  0
 63 64  1  0  0  0  0
 64 65  1  0  0  0  0
 65 66  1  0  0  0  0
 66 67  1  0  0  0  0
 67 68  1  0  0  0  0
 68 69  1  0  0  0  0
 69 70  1  0  0  0  0
 70 71  1  0  0  0  0
 71 72  1  0  0  0  0
 72 73  1  0  0  0  0
 73 74  1  0  0  0  0
 74 75  1  0  0  0  0
 75 76  1  0  0  0  0
 76 77  1  0  0  0  0
 77 78  1  0  0  0  0
 78 79  1  0  0  0  0
 79 80  1  0  0  0  0
 80 81  1  0  0  0  0
 81135  1  0  0  0  0
M  END
$$$$
