
 OpenBabel04232216433D

 45 47  0  0  0  0  0  0  0  0999 V2000
    1.2469    3.1837    3.1100 C   0  0  0  0  0  0  0  0  0  0  0  0
    2.1710    2.0006    2.1620 C   0  0  0  0  0  0  0  0  0  0  0  0
    2.1477    0.8379    0.9701 C   0  0  0  0  0  0  0  0  0  0  0  0
    3.6919    0.2446    0.4992 C   0  0  0  0  0  0  0  0  0  0  0  0
    4.2460   -0.5651   -0.5938 N   0  0  0  0  0  0  0  0  0  0  0  0
    5.4188   -0.2818   -0.2336 C   0  0  0  0  0  0  0  0  0  0  0  0
    4.9588    0.5647    0.8489 C   0  0  0  0  0  0  0  0  0  0  0  0
    5.3956    1.4905    1.8965 C   0  0  0  0  0  0  0  0  0  0  0  0
    6.2715    2.2745    2.5600 C   0  0  0  0  0  0  0  0  0  0  0  0
    7.7102    2.2466    2.1676 C   0  0  0  0  0  0  0  0  0  0  0  0
    5.6528    3.2551    3.5104 N   0  0  0  0  0  0  0  0  0  0  0  0
    4.2560    3.5644    3.1432 C   0  0  0  0  0  0  0  0  0  0  0  0
    6.2483    4.4923    4.1639 N   0  0  0  0  0  0  0  0  0  0  0  0
    5.5837    5.5538    3.5936 N   0  0  0  0  0  0  0  0  0  0  0  0
    6.0161    6.6883    3.5163 N   0  0  0  0  0  0  0  0  0  0  0  0
    4.8788    7.4162    3.0830 N   0  0  0  0  0  0  0  0  0  0  0  0
    4.2626    7.8585    4.1262 C   0  0  0  0  0  0  0  0  0  0  0  0
    2.9213    7.5990    4.3517 N   0  0  0  0  0  0  0  0  0  0  0  0
    2.6704    6.4077    3.9810 N   0  0  0  0  0  0  0  0  0  0  0  0
    2.2113    5.4944    4.9276 C   0  0  0  0  0  0  0  0  0  0  0  0
    2.3712    6.1024    6.4720 C   0  0  0  0  0  0  0  0  0  0  0  0
    3.7533    6.6547    6.9576 C   0  0  0  0  0  0  0  0  0  0  0  0
    4.9588    6.0704    6.8127 N   0  0  0  0  0  0  0  0  0  0  0  0
    4.9307    4.8931    6.0243 N   0  0  0  0  0  0  0  0  0  0  0  0
    6.0868    4.5194    5.6372 N   0  0  0  0  0  0  0  0  0  0  0  0
    1.5900    4.2993    4.4792 C   0  0  0  0  0  0  0  0  0  0  0  0
    0.5023    2.5323    3.5890 H   0  0  0  0  0  0  0  0  0  0  0  0
    0.7404    3.8234    2.3794 H   0  0  0  0  0  0  0  0  0  0  0  0
    2.7070    1.4635    2.9418 H   0  0  0  0  0  0  0  0  0  0  0  0
    2.6612    2.7211    1.5217 H   0  0  0  0  0  0  0  0  0  0  0  0
    1.6909    1.1850    0.0270 H   0  0  0  0  0  0  0  0  0  0  0  0
    1.6045   -0.0832    1.2050 H   0  0  0  0  0  0  0  0  0  0  0  0
    6.4752   -0.4416   -0.5034 H   0  0  0  0  0  0  0  0  0  0  0  0
    4.4717    1.4855    2.4277 H   0  0  0  0  0  0  0  0  0  0  0  0
    7.8914    1.4701    1.4006 H   0  0  0  0  0  0  0  0  0  0  0  0
    8.3319    1.9801    3.0198 H   0  0  0  0  0  0  0  0  0  0  0  0
    8.0323    3.1924    1.7372 H   0  0  0  0  0  0  0  0  0  0  0  0
    4.1745    3.3826    2.0625 H   0  0  0  0  0  0  0  0  0  0  0  0
    3.8873    4.5872    3.0664 H   0  0  0  0  0  0  0  0  0  0  0  0
    3.6340    2.9813    3.8418 H   0  0  0  0  0  0  0  0  0  0  0  0
    4.8452    8.2250    4.9951 H   0  0  0  0  0  0  0  0  0  0  0  0
    1.7598    7.0239    6.5378 H   0  0  0  0  0  0  0  0  0  0  0  0
    2.0015    5.4878    7.3043 H   0  0  0  0  0  0  0  0  0  0  0  0
    3.7683    7.5895    7.5265 H   0  0  0  0  0  0  0  0  0  0  0  0
    0.5681    4.3835    4.8772 H   0  0  0  0  0  0  0  0  0  0  0  0
  1  2  1  0  0  0  0
  1 26  1  0  0  0  0
  1 27  1  0  0  0  0
  1 28  1  0  0  0  0
  2  3  1  0  0  0  0
  2 29  1  0  0  0  0
  2 30  1  0  0  0  0
  3  4  1  0  0  0  0
  3 31  1  0  0  0  0
  3 32  1  0  0  0  0
  4  5  1  0  0  0  0
  4  7  2  0  0  0  0
  5  6  2  0  0  0  0
  6  7  1  0  0  0  0
  6 33  1  0  0  0  0
  7  8  1  0  0  0  0
  8  9  2  3  0  0  0
  8 34  1  0  0  0  0
  9 10  1  0  0  0  0
  9 11  1  0  0  0  0
 10 35  1  0  0  0  0
 10 36  1  0  0  0  0
 10 37  1  0  0  0  0
 11 12  1  0  0  0  0
 11 13  1  0  0  0  0
 12 38  1  0  0  0  0
 12 39  1  0  0  0  0
 12 40  1  0  0  0  0
 13 14  1  0  0  0  0
 13 25  1  0  0  0  0
 14 15  2  3  0  0  0
 15 16  1  0  0  0  0
 16 17  2  3  0  0  0
 17 18  1  0  0  0  0
 17 41  1  0  0  0  0
 18 19  2  3  0  0  0
 19 20  1  0  0  0  0
 20 21  1  0  0  0  0
 20 26  2  3  0  0  0
 21 22  1  0  0  0  0
 21 42  1  0  0  0  0
 21 43  1  0  0  0  0
 22 23  2  3  0  0  0
 22 44  1  0  0  0  0
 23 24  1  0  0  0  0
 24 25  2  3  0  0  0
 26 45  1  0  0  0  0
M  END
$$$$
