
 OpenBabel04232216533D

234233  0  0  0  0  0  0  0  0999 V2000
    1.0020   -0.0408    0.0958 C   0  0  0  0  0  0  0  0  0  0  0  0
    2.5220   -0.0409    0.0791 C   0  0  0  0  0  0  0  0  0  0  0  0
    3.0618    0.5234   -1.2338 C   0  0  0  0  0  0  0  0  0  0  0  0
    4.5912    0.5245   -1.2547 C   0  0  0  0  0  0  0  0  0  0  0  0
    5.1195    1.0932   -2.5732 C   0  0  0  0  0  0  0  0  0  0  0  0
    6.5818    1.1040   -2.5510 N   0  0  0  0  0  0  0  0  0  0  0  0
    7.0534    1.6180   -3.7938 N   0  0  0  0  0  0  0  0  0  0  0  0
    8.4635    1.6113   -3.8117 N   0  0  0  0  0  0  0  0  0  0  0  0
    8.9281    2.1390   -5.0292 N   0  0  0  0  0  0  0  0  0  0  0  0
   10.3208    2.1158   -5.0321 N   0  0  0  0  0  0  0  0  0  0  0  0
   10.7859    2.6687   -6.2357 N   0  0  0  0  0  0  0  0  0  0  0  0
   12.1916    2.6443   -6.2376 N   0  0  0  0  0  0  0  0  0  0  0  0
   12.6813    3.1525   -7.4619 N   0  0  0  0  0  0  0  0  0  0  0  0
   14.0982    3.1586   -7.4656 N   0  0  0  0  0  0  0  0  0  0  0  0
   14.5798    3.6885   -8.6872 N   0  0  0  0  0  0  0  0  0  0  0  0
   16.0019    3.6953   -8.6825 N   0  0  0  0  0  0  0  0  0  0  0  0
   16.4614    4.2304   -9.9601 C   0  0  0  0  0  0  0  0  0  0  0  0
   17.9862    4.2352   -9.9710 C   0  0  0  0  0  0  0  0  0  0  0  0
   18.5083    4.7971  -11.2858 C   0  0  0  0  0  0  0  0  0  0  0  0
   20.0298    4.8006  -11.2972 C   0  0  0  0  0  0  0  0  0  0  0  0
   20.5472    5.3613  -12.6127 C   0  0  0  0  0  0  0  0  0  0  0  0
   22.0672    5.3639  -12.6230 C   0  0  0  0  0  0  0  0  0  0  0  0
   22.5814    5.9238  -13.9384 C   0  0  0  0  0  0  0  0  0  0  0  0
   24.1003    5.9260  -13.9470 C   0  0  0  0  0  0  0  0  0  0  0  0
   24.6133    6.4850  -15.2621 C   0  0  0  0  0  0  0  0  0  0  0  0
   26.1311    6.4873  -15.2684 C   0  0  0  0  0  0  0  0  0  0  0  0
   26.6432    7.0459  -16.5835 C   0  0  0  0  0  0  0  0  0  0  0  0
   28.1604    7.0484  -16.5887 C   0  0  0  0  0  0  0  0  0  0  0  0
   28.6711    7.6076  -17.9033 C   0  0  0  0  0  0  0  0  0  0  0  0
   30.1881    7.6096  -17.9083 C   0  0  0  0  0  0  0  0  0  0  0  0
   30.6989    8.1680  -19.2227 C   0  0  0  0  0  0  0  0  0  0  0  0
   32.2157    8.1683  -19.2281 C   0  0  0  0  0  0  0  0  0  0  0  0
   32.7261    8.7285  -20.5420 C   0  0  0  0  0  0  0  0  0  0  0  0
   34.2428    8.7314  -20.5462 C   0  0  0  0  0  0  0  0  0  0  0  0
   34.7530    9.2898  -21.8608 C   0  0  0  0  0  0  0  0  0  0  0  0
   36.2697    9.2918  -21.8653 C   0  0  0  0  0  0  0  0  0  0  0  0
   36.7797    9.8488  -23.1806 C   0  0  0  0  0  0  0  0  0  0  0  0
   38.2964    9.8509  -23.1849 C   0  0  0  0  0  0  0  0  0  0  0  0
   38.8064   10.4098  -24.4994 C   0  0  0  0  0  0  0  0  0  0  0  0
   40.3231   10.4121  -24.5036 C   0  0  0  0  0  0  0  0  0  0  0  0
   40.8331   10.9725  -25.8173 C   0  0  0  0  0  0  0  0  0  0  0  0
   42.3497   10.9743  -25.8217 C   0  0  0  0  0  0  0  0  0  0  0  0
   42.8598   11.5347  -27.1354 C   0  0  0  0  0  0  0  0  0  0  0  0
   44.3764   11.5365  -27.1398 C   0  0  0  0  0  0  0  0  0  0  0  0
   44.8865   12.0969  -28.4535 C   0  0  0  0  0  0  0  0  0  0  0  0
   46.4031   12.0987  -28.4579 C   0  0  0  0  0  0  0  0  0  0  0  0
   46.9131   12.6591  -29.7717 C   0  0  0  0  0  0  0  0  0  0  0  0
   48.4298   12.6608  -29.7762 C   0  0  0  0  0  0  0  0  0  0  0  0
   48.9398   13.2212  -31.0899 C   0  0  0  0  0  0  0  0  0  0  0  0
   50.4565   13.2211  -31.0952 C   0  0  0  0  0  0  0  0  0  0  0  0
   50.9666   13.7813  -32.4091 C   0  0  0  0  0  0  0  0  0  0  0  0
   52.4833   13.7797  -32.4150 C   0  0  0  0  0  0  0  0  0  0  0  0
   52.9934   14.3386  -33.7293 C   0  0  0  0  0  0  0  0  0  0  0  0
   54.5101   14.3381  -33.7347 C   0  0  0  0  0  0  0  0  0  0  0  0
   55.0199   14.8981  -35.0487 C   0  0  0  0  0  0  0  0  0  0  0  0
   56.5365   14.8966  -35.0546 C   0  0  0  0  0  0  0  0  0  0  0  0
   57.0464   15.4553  -36.3692 C   0  0  0  0  0  0  0  0  0  0  0  0
   58.5629   15.4549  -36.3743 C   0  0  0  0  0  0  0  0  0  0  0  0
   59.0732   16.0134  -37.6888 C   0  0  0  0  0  0  0  0  0  0  0  0
   60.5898   16.0118  -37.6941 C   0  0  0  0  0  0  0  0  0  0  0  0
   61.1004   16.5709  -39.0081 C   0  0  0  0  0  0  0  0  0  0  0  0
   62.6171   16.5689  -39.0147 C   0  0  0  0  0  0  0  0  0  0  0  0
   63.1268   17.1271  -40.3297 C   0  0  0  0  0  0  0  0  0  0  0  0
   64.6434   17.1249  -40.3364 C   0  0  0  0  0  0  0  0  0  0  0  0
   65.1536   17.6832  -41.6512 C   0  0  0  0  0  0  0  0  0  0  0  0
   66.6704   17.6812  -41.6574 C   0  0  0  0  0  0  0  0  0  0  0  0
   67.1810   18.2401  -42.9719 C   0  0  0  0  0  0  0  0  0  0  0  0
   68.6980   18.2383  -42.9781 C   0  0  0  0  0  0  0  0  0  0  0  0
   69.2087   18.7969  -44.2929 C   0  0  0  0  0  0  0  0  0  0  0  0
   70.7263   18.7937  -44.3007 C   0  0  0  0  0  0  0  0  0  0  0  0
   71.2376   19.3526  -45.6160 C   0  0  0  0  0  0  0  0  0  0  0  0
   72.7548   19.3494  -45.6244 C   0  0  0  0  0  0  0  0  0  0  0  0
   73.2686   19.9078  -46.9394 C   0  0  0  0  0  0  0  0  0  0  0  0
   74.7878   19.9056  -46.9495 C   0  0  0  0  0  0  0  0  0  0  0  0
   75.3027   20.4641  -48.2642 C   0  0  0  0  0  0  0  0  0  0  0  0
   76.8238   20.4638  -48.2745 C   0  0  0  0  0  0  0  0  0  0  0  0
   77.3437   21.0234  -49.5911 C   0  0  0  0  0  0  0  0  0  0  0  0
   78.8647   21.0251  -49.6058 C   0  0  0  0  0  0  0  0  0  0  0  0
   79.3838   21.5869  -50.9236 C   0  0  0  0  0  0  0  0  0  0  0  0
   80.9075   21.5925  -50.9517 C   0  0  0  0  0  0  0  0  0  0  0  0
   81.4224   22.1529  -52.2658 C   0  0  0  0  0  0  0  0  0  0  0  0
    0.6328   -0.4497    1.0413 H   0  0  0  0  0  0  0  0  0  0  0  0
    0.6012   -0.6522   -0.7191 H   0  0  0  0  0  0  0  0  0  0  0  0
    0.6091    0.9752   -0.0120 H   0  0  0  0  0  0  0  0  0  0  0  0
    2.8842   -1.0655    0.2220 H   0  0  0  0  0  0  0  0  0  0  0  0
    2.8917    0.5551    0.9216 H   0  0  0  0  0  0  0  0  0  0  0  0
    2.6923    1.5468   -1.3724 H   0  0  0  0  0  0  0  0  0  0  0  0
    2.6836   -0.0728   -2.0733 H   0  0  0  0  0  0  0  0  0  0  0  0
    4.9609   -0.4991   -1.1145 H   0  0  0  0  0  0  0  0  0  0  0  0
    4.9674    1.1227   -0.4150 H   0  0  0  0  0  0  0  0  0  0  0  0
    4.7399    2.1151   -2.6999 H   0  0  0  0  0  0  0  0  0  0  0  0
    4.7482    0.4882   -3.4101 H   0  0  0  0  0  0  0  0  0  0  0  0
    6.9306    0.1515   -2.4486 H   0  0  0  0  0  0  0  0  0  0  0  0
    6.7620    2.5884   -3.9131 H   0  0  0  0  0  0  0  0  0  0  0  0
    8.8300    0.6661   -3.7247 H   0  0  0  0  0  0  0  0  0  0  0  0
    8.6076    3.1006   -5.1323 H   0  0  0  0  0  0  0  0  0  0  0  0
   10.6576    1.1588   -4.9432 H   0  0  0  0  0  0  0  0  0  0  0  0
   10.4611    3.6290   -6.3237 H   0  0  0  0  0  0  0  0  0  0  0  0
   12.4731    1.6765   -6.1106 H   0  0  0  0  0  0  0  0  0  0  0  0
   12.3331    4.1041   -7.5568 H   0  0  0  0  0  0  0  0  0  0  0  0
   14.4191    2.1986   -7.3563 H   0  0  0  0  0  0  0  0  0  0  0  0
   14.2309    4.6422   -8.7756 H   0  0  0  0  0  0  0  0  0  0  0  0
   16.3298    2.7359   -8.5737 H   0  0  0  0  0  0  0  0  0  0  0  0
   16.0988    5.2572  -10.0969 H   0  0  0  0  0  0  0  0  0  0  0  0
   16.0872    3.6242  -10.7950 H   0  0  0  0  0  0  0  0  0  0  0  0
   18.3662    3.2125   -9.8330 H   0  0  0  0  0  0  0  0  0  0  0  0
   18.3664    4.8356   -9.1361 H   0  0  0  0  0  0  0  0  0  0  0  0
   18.1352    5.8188  -11.4269 H   0  0  0  0  0  0  0  0  0  0  0  0
   18.1334    4.1964  -12.1235 H   0  0  0  0  0  0  0  0  0  0  0  0
   20.4063    3.7801  -11.1560 H   0  0  0  0  0  0  0  0  0  0  0  0
   20.4076    5.4039  -10.4627 H   0  0  0  0  0  0  0  0  0  0  0  0
   20.1734    6.3827  -12.7558 H   0  0  0  0  0  0  0  0  0  0  0  0
   20.1716    4.7587  -13.4488 H   0  0  0  0  0  0  0  0  0  0  0  0
   22.4435    4.3435  -12.4801 H   0  0  0  0  0  0  0  0  0  0  0  0
   22.4446    5.9687  -11.7893 H   0  0  0  0  0  0  0  0  0  0  0  0
   22.2073    6.9450  -14.0818 H   0  0  0  0  0  0  0  0  0  0  0  0
   22.2053    5.3205  -14.7739 H   0  0  0  0  0  0  0  0  0  0  0  0
   24.4761    4.9054  -13.8042 H   0  0  0  0  0  0  0  0  0  0  0  0
   24.4777    6.5304  -13.1130 H   0  0  0  0  0  0  0  0  0  0  0  0
   24.2384    7.5059  -15.4063 H   0  0  0  0  0  0  0  0  0  0  0  0
   24.2380    5.8806  -16.0971 H   0  0  0  0  0  0  0  0  0  0  0  0
   26.5075    5.4670  -15.1247 H   0  0  0  0  0  0  0  0  0  0  0  0
   26.5078    7.0924  -14.4343 H   0  0  0  0  0  0  0  0  0  0  0  0
   26.2677    8.0665  -16.7279 H   0  0  0  0  0  0  0  0  0  0  0  0
   26.2678    6.4409  -17.4180 H   0  0  0  0  0  0  0  0  0  0  0  0
   28.5367    6.0280  -16.4455 H   0  0  0  0  0  0  0  0  0  0  0  0
   28.5366    7.6532  -15.7545 H   0  0  0  0  0  0  0  0  0  0  0  0
   28.2950    8.6283  -18.0468 H   0  0  0  0  0  0  0  0  0  0  0  0
   28.2955    7.0030  -18.7380 H   0  0  0  0  0  0  0  0  0  0  0  0
   30.5636    6.5888  -17.7647 H   0  0  0  0  0  0  0  0  0  0  0  0
   30.5642    8.2142  -17.0738 H   0  0  0  0  0  0  0  0  0  0  0  0
   30.3241    9.1889  -19.3662 H   0  0  0  0  0  0  0  0  0  0  0  0
   30.3223    7.5638  -20.0574 H   0  0  0  0  0  0  0  0  0  0  0  0
   32.5906    7.1472  -19.0863 H   0  0  0  0  0  0  0  0  0  0  0  0
   32.5926    8.7714  -18.3928 H   0  0  0  0  0  0  0  0  0  0  0  0
   32.3499    9.7490  -20.6850 H   0  0  0  0  0  0  0  0  0  0  0  0
   32.3509    8.1243  -21.3772 H   0  0  0  0  0  0  0  0  0  0  0  0
   34.6193    7.7111  -20.4020 H   0  0  0  0  0  0  0  0  0  0  0  0
   34.6181    9.3368  -19.7118 H   0  0  0  0  0  0  0  0  0  0  0  0
   34.3771   10.3102  -22.0049 H   0  0  0  0  0  0  0  0  0  0  0  0
   34.3774    8.6846  -22.6952 H   0  0  0  0  0  0  0  0  0  0  0  0
   36.6457    8.2716  -21.7201 H   0  0  0  0  0  0  0  0  0  0  0  0
   36.6454    9.8979  -21.0316 H   0  0  0  0  0  0  0  0  0  0  0  0
   36.4037   10.8690  -23.3258 H   0  0  0  0  0  0  0  0  0  0  0  0
   36.4042    9.2427  -24.0143 H   0  0  0  0  0  0  0  0  0  0  0  0
   38.6724    8.8304  -23.0412 H   0  0  0  0  0  0  0  0  0  0  0  0
   38.6721   10.4557  -22.3504 H   0  0  0  0  0  0  0  0  0  0  0  0
   38.4304   11.4303  -24.6429 H   0  0  0  0  0  0  0  0  0  0  0  0
   38.4309    9.8051  -25.3340 H   0  0  0  0  0  0  0  0  0  0  0  0
   40.6991    9.3914  -24.3610 H   0  0  0  0  0  0  0  0  0  0  0  0
   40.6987   11.0160  -23.6683 H   0  0  0  0  0  0  0  0  0  0  0  0
   40.4574   11.9932  -25.9596 H   0  0  0  0  0  0  0  0  0  0  0  0
   40.4573   10.3688  -26.6526 H   0  0  0  0  0  0  0  0  0  0  0  0
   42.7255    9.9535  -25.6793 H   0  0  0  0  0  0  0  0  0  0  0  0
   42.7255   11.5780  -24.9863 H   0  0  0  0  0  0  0  0  0  0  0  0
   42.4840   12.5554  -27.2778 H   0  0  0  0  0  0  0  0  0  0  0  0
   42.4840   10.9310  -27.9707 H   0  0  0  0  0  0  0  0  0  0  0  0
   44.7522   10.5157  -26.9974 H   0  0  0  0  0  0  0  0  0  0  0  0
   44.7522   12.1402  -26.3045 H   0  0  0  0  0  0  0  0  0  0  0  0
   44.5107   13.1177  -28.5959 H   0  0  0  0  0  0  0  0  0  0  0  0
   44.5106   11.4932  -29.2888 H   0  0  0  0  0  0  0  0  0  0  0  0
   46.7788   11.0779  -28.3156 H   0  0  0  0  0  0  0  0  0  0  0  0
   46.7789   12.7023  -27.6226 H   0  0  0  0  0  0  0  0  0  0  0  0
   46.5374   13.6799  -29.9140 H   0  0  0  0  0  0  0  0  0  0  0  0
   46.5372   12.0555  -30.6070 H   0  0  0  0  0  0  0  0  0  0  0  0
   48.8054   11.6400  -29.6339 H   0  0  0  0  0  0  0  0  0  0  0  0
   48.8058   13.2644  -28.9409 H   0  0  0  0  0  0  0  0  0  0  0  0
   48.5652   14.2425  -31.2316 H   0  0  0  0  0  0  0  0  0  0  0  0
   48.5628   12.6184  -31.9253 H   0  0  0  0  0  0  0  0  0  0  0  0
   50.8310   12.1998  -30.9535 H   0  0  0  0  0  0  0  0  0  0  0  0
   50.8336   13.8240  -30.2599 H   0  0  0  0  0  0  0  0  0  0  0  0
   50.5930   14.8030  -32.5503 H   0  0  0  0  0  0  0  0  0  0  0  0
   50.5885   13.1791  -33.2445 H   0  0  0  0  0  0  0  0  0  0  0  0
   52.8569   12.7582  -32.2728 H   0  0  0  0  0  0  0  0  0  0  0  0
   52.8611   14.3828  -31.5801 H   0  0  0  0  0  0  0  0  0  0  0  0
   52.6192   15.3599  -33.8721 H   0  0  0  0  0  0  0  0  0  0  0  0
   52.6163   13.7350  -34.5640 H   0  0  0  0  0  0  0  0  0  0  0  0
   54.8843   13.3166  -33.5930 H   0  0  0  0  0  0  0  0  0  0  0  0
   54.8877   14.9409  -32.8996 H   0  0  0  0  0  0  0  0  0  0  0  0
   54.6463   15.9198  -35.1900 H   0  0  0  0  0  0  0  0  0  0  0  0
   54.6418   14.2958  -35.8840 H   0  0  0  0  0  0  0  0  0  0  0  0
   56.9102   13.8751  -34.9123 H   0  0  0  0  0  0  0  0  0  0  0  0
   56.9144   15.4998  -34.2199 H   0  0  0  0  0  0  0  0  0  0  0  0
   56.6720   16.4765  -36.5121 H   0  0  0  0  0  0  0  0  0  0  0  0
   56.6692   14.8514  -37.2037 H   0  0  0  0  0  0  0  0  0  0  0  0
   58.9373   14.4337  -36.2312 H   0  0  0  0  0  0  0  0  0  0  0  0
   58.9401   16.0588  -35.5397 H   0  0  0  0  0  0  0  0  0  0  0  0
   58.6995   17.0349  -37.8315 H   0  0  0  0  0  0  0  0  0  0  0  0
   58.6955   15.4100  -38.5234 H   0  0  0  0  0  0  0  0  0  0  0  0
   60.9632   14.9901  -37.5518 H   0  0  0  0  0  0  0  0  0  0  0  0
   60.9673   16.6143  -36.8585 H   0  0  0  0  0  0  0  0  0  0  0  0
   60.7267   17.5925  -39.1504 H   0  0  0  0  0  0  0  0  0  0  0  0
   60.7225   15.9679  -39.8428 H   0  0  0  0  0  0  0  0  0  0  0  0
   62.9901   15.5472  -38.8726 H   0  0  0  0  0  0  0  0  0  0  0  0
   62.9960   17.1718  -38.1801 H   0  0  0  0  0  0  0  0  0  0  0  0
   62.7534   18.1487  -40.4724 H   0  0  0  0  0  0  0  0  0  0  0  0
   62.7481   16.5238  -41.1641 H   0  0  0  0  0  0  0  0  0  0  0  0
   65.0167   16.1032  -40.1938 H   0  0  0  0  0  0  0  0  0  0  0  0
   65.0219   17.7281  -39.5020 H   0  0  0  0  0  0  0  0  0  0  0  0
   64.7804   18.7049  -41.7935 H   0  0  0  0  0  0  0  0  0  0  0  0
   64.7751   17.0802  -42.4857 H   0  0  0  0  0  0  0  0  0  0  0  0
   67.0436   16.6595  -41.5152 H   0  0  0  0  0  0  0  0  0  0  0  0
   67.0485   18.2841  -40.8226 H   0  0  0  0  0  0  0  0  0  0  0  0
   66.8076   19.2618  -43.1140 H   0  0  0  0  0  0  0  0  0  0  0  0
   66.8028   17.6373  -43.8067 H   0  0  0  0  0  0  0  0  0  0  0  0
   69.0711   17.2167  -42.8355 H   0  0  0  0  0  0  0  0  0  0  0  0
   69.0760   18.8414  -42.1434 H   0  0  0  0  0  0  0  0  0  0  0  0
   68.8361   19.8189  -44.4345 H   0  0  0  0  0  0  0  0  0  0  0  0
   68.8292   18.1945  -45.1274 H   0  0  0  0  0  0  0  0  0  0  0  0
   71.0979   17.7714  -44.1587 H   0  0  0  0  0  0  0  0  0  0  0  0
   71.1050   19.3958  -43.4656 H   0  0  0  0  0  0  0  0  0  0  0  0
   70.8646   20.3746  -45.7573 H   0  0  0  0  0  0  0  0  0  0  0  0
   70.8573   18.7500  -46.4501 H   0  0  0  0  0  0  0  0  0  0  0  0
   73.1267   18.3270  -45.4818 H   0  0  0  0  0  0  0  0  0  0  0  0
   73.1339   19.9514  -44.7891 H   0  0  0  0  0  0  0  0  0  0  0  0
   72.8953   20.9296  -47.0810 H   0  0  0  0  0  0  0  0  0  0  0  0
   72.8883   19.3053  -47.7736 H   0  0  0  0  0  0  0  0  0  0  0  0
   75.1588   18.8829  -46.8062 H   0  0  0  0  0  0  0  0  0  0  0  0
   75.1657   20.5074  -46.1134 H   0  0  0  0  0  0  0  0  0  0  0  0
   74.9283   21.4855  -48.4063 H   0  0  0  0  0  0  0  0  0  0  0  0
   74.9232   19.8610  -49.0984 H   0  0  0  0  0  0  0  0  0  0  0  0
   77.1944   19.4418  -48.1309 H   0  0  0  0  0  0  0  0  0  0  0  0
   77.1993   21.0662  -47.4387 H   0  0  0  0  0  0  0  0  0  0  0  0
   76.9667   22.0441  -49.7319 H   0  0  0  0  0  0  0  0  0  0  0  0
   76.9618   20.4200  -50.4241 H   0  0  0  0  0  0  0  0  0  0  0  0
   79.2374   20.0030  -49.4640 H   0  0  0  0  0  0  0  0  0  0  0  0
   79.2425   21.6267  -48.7698 H   0  0  0  0  0  0  0  0  0  0  0  0
   79.0060   22.6078  -51.0616 H   0  0  0  0  0  0  0  0  0  0  0  0
   78.9990   20.9851  -51.7564 H   0  0  0  0  0  0  0  0  0  0  0  0
   81.2870   20.5729  -50.8171 H   0  0  0  0  0  0  0  0  0  0  0  0
   81.2940   22.1958  -50.1221 H   0  0  0  0  0  0  0  0  0  0  0  0
   81.0715   21.5509  -53.1099 H   0  0  0  0  0  0  0  0  0  0  0  0
   82.5166   22.1523  -52.2755 H   0  0  0  0  0  0  0  0  0  0  0  0
   81.0787   23.1819  -52.4114 H   0  0  0  0  0  0  0  0  0  0  0  0
  1  2  1  0  0  0  0
  1 82  1  0  0  0  0
  1 83  1  0  0  0  0
  1 84  1  0  0  0  0
  2  3  1  0  0  0  0
  2 85  1  0  0  0  0
  2 86  1  0  0  0  0
  3  4  1  0  0  0  0
  3 87  1  0  0  0  0
  3 88  1  0  0  0  0
  4  5  1  0  0  0  0
  4 89  1  0  0  0  0
  4 90  1  0  0  0  0
  5  6  1  0  0  0  0
  5 91  1  0  0  0  0
  5 92  1  0  0  0  0
  6  7  1  0  0  0  0
  6 93  1  0  0  0  0
  7  8  1  0  0  0  0
  7 94  1  0  0  0  0
  8  9  1  0  0  0  0
  8 95  1  0  0  0  0
  9 10  1  0  0  0  0
  9 96  1  0  0  0  0
 10 11  1  0  0  0  0
 10 97  1  0  0  0  0
 11 12  1  0  0  0  0
 11 98  1  0  0  0  0
 12 13  1  0  0  0  0
 12 99  1  0  0  0  0
 13 14  1  0  0  0  0
 13100  1  0  0  0  0
 14 15  1  0  0  0  0
 14101  1  0  0  0  0
 15 16  1  0  0  0  0
 15102  1  0  0  0  0
 16 17  1  0  0  0  0
 16103  1  0  0  0  0
 17 18  1  0  0  0  0
 17104  1  0  0  0  0
 17105  1  0  0  0  0
 18 19  1  0  0  0  0
 18106  1  0  0  0  0
 18107  1  0  0  0  0
 19 20  1  0  0  0  0
 19108  1  0  0  0  0
 19109  1  0  0  0  0
 20 21  1  0  0  0  0
 20110  1  0  0  0  0
 20111  1  0  0  0  0
 21 22  1  0  0  0  0
 21112  1  0  0  0  0
 21113  1  0  0  0  0
 22 23  1  0  0  0  0
 22114  1  0  0  0  0
 22115  1  0  0  0  0
 23 24  1  0  0  0  0
 23116  1  0  0  0  0
 23117  1  0  0  0  0
 24 25  1  0  0  0  0
 24118  1  0  0  0  0
 24119  1  0  0  0  0
 25 26  1  0  0  0  0
 25120  1  0  0  0  0
 25121  1  0  0  0  0
 26 27  1  0  0  0  0
 26122  1  0  0  0  0
 26123  1  0  0  0  0
 27 28  1  0  0  0  0
 27124  1  0  0  0  0
 27125  1  0  0  0  0
 28 29  1  0  0  0  0
 28126  1  0  0  0  0
 28127  1  0  0  0  0
 29 30  1  0  0  0  0
 29128  1  0  0  0  0
 29129  1  0  0  0  0
 30 31  1  0  0  0  0
 30130  1  0  0  0  0
 30131  1  0  0  0  0
 31 32  1  0  0  0  0
 31132  1  0  0  0  0
 31133  1  0  0  0  0
 32 33  1  0  0  0  0
 32134  1  0  0  0  0
 32135  1  0  0  0  0
 33 34  1  0  0  0  0
 33136  1  0  0  0  0
 33137  1  0  0  0  0
 34 35  1  0  0  0  0
 34138  1  0  0  0  0
 34139  1  0  0  0  0
 35 36  1  0  0  0  0
 35140  1  0  0  0  0
 35141  1  0  0  0  0
 36 37  1  0  0  0  0
 36142  1  0  0  0  0
 36143  1  0  0  0  0
 37 38  1  0  0  0  0
 37144  1  0  0  0  0
 37145  1  0  0  0  0
 38 39  1  0  0  0  0
 38146  1  0  0  0  0
 38147  1  0  0  0  0
 39 40  1  0  0  0  0
 39148  1  0  0  0  0
 39149  1  0  0  0  0
 40 41  1  0  0  0  0
 40150  1  0  0  0  0
 40151  1  0  0  0  0
 41 42  1  0  0  0  0
 41152  1  0  0  0  0
 41153  1  0  0  0  0
 42 43  1  0  0  0  0
 42154  1  0  0  0  0
 42155  1  0  0  0  0
 43 44  1  0  0  0  0
 43156  1  0  0  0  0
 43157  1  0  0  0  0
 44 45  1  0  0  0  0
 44158  1  0  0  0  0
 44159  1  0  0  0  0
 45 46  1  0  0  0  0
 45160  1  0  0  0  0
 45161  1  0  0  0  0
 46 47  1  0  0  0  0
 46162  1  0  0  0  0
 46163  1  0  0  0  0
 47 48  1  0  0  0  0
 47164  1  0  0  0  0
 47165  1  0  0  0  0
 48 49  1  0  0  0  0
 48166  1  0  0  0  0
 48167  1  0  0  0  0
 49 50  1  0  0  0  0
 49168  1  0  0  0  0
 49169  1  0  0  0  0
 50 51  1  0  0  0  0
 50170  1  0  0  0  0
 50171  1  0  0  0  0
 51 52  1  0  0  0  0
 51172  1  0  0  0  0
 51173  1  0  0  0  0
 52 53  1  0  0  0  0
 52174  1  0  0  0  0
 52175  1  0  0  0  0
 53 54  1  0  0  0  0
 53176  1  0  0  0  0
 53177  1  0  0  0  0
 54 55  1  0  0  0  0
 54178  1  0  0  0  0
 54179  1  0  0  0  0
 55 56  1  0  0  0  0
 55180  1  0  0  0  0
 55181  1  0  0  0  0
 56 57  1  0  0  0  0
 56182  1  0  0  0  0
 56183  1  0  0  0  0
 57 58  1  0  0  0  0
 57184  1  0  0  0  0
 57185  1  0  0  0  0
 58 59  1  0  0  0  0
 58186  1  0  0  0  0
 58187  1  0  0  0  0
 59 60  1  0  0  0  0
 59188  1  0  0  0  0
 59189  1  0  0  0  0
 60 61  1  0  0  0  0
 60190  1  0  0  0  0
 60191  1  0  0  0  0
 61 62  1  0  0  0  0
 61192  1  0  0  0  0
 61193  1  0  0  0  0
 62 63  1  0  0  0  0
 62194  1  0  0  0  0
 62195  1  0  0  0  0
 63 64  1  0  0  0  0
 63196  1  0  0  0  0
 63197  1  0  0  0  0
 64 65  1  0  0  0  0
 64198  1  0  0  0  0
 64199  1  0  0  0  0
 65 66  1  0  0  0  0
 65200  1  0  0  0  0
 65201  1  0  0  0  0
 66 67  1  0  0  0  0
 66202  1  0  0  0  0
 66203  1  0  0  0  0
 67 68  1  0  0  0  0
 67204  1  0  0  0  0
 67205  1  0  0  0  0
 68 69  1  0  0  0  0
 68206  1  0  0  0  0
 68207  1  0  0  0  0
 69 70  1  0  0  0  0
 69208  1  0  0  0  0
 69209  1  0  0  0  0
 70 71  1  0  0  0  0
 70210  1  0  0  0  0
 70211  1  0  0  0  0
 71 72  1  0  0  0  0
 71212  1  0  0  0  0
 71213  1  0  0  0  0
 72 73  1  0  0  0  0
 72214  1  0  0  0  0
 72215  1  0  0  0  0
 73 74  1  0  0  0  0
 73216  1  0  0  0  0
 73217  1  0  0  0  0
 74 75  1  0  0  0  0
 74218  1  0  0  0  0
 74219  1  0  0  0  0
 75 76  1  0  0  0  0
 75220  1  0  0  0  0
 75221  1  0  0  0  0
 76 77  1  0  0  0  0
 76222  1  0  0  0  0
 76223  1  0  0  0  0
 77 78  1  0  0  0  0
 77224  1  0  0  0  0
 77225  1  0  0  0  0
 78 79  1  0  0  0  0
 78226  1  0  0  0  0
 78227  1  0  0  0  0
 79 80  1  0  0  0  0
 79228  1  0  0  0  0
 79229  1  0  0  0  0
 80 81  1  0  0  0  0
 80230  1  0  0  0  0
 80231  1  0  0  0  0
 81232  1  0  0  0  0
 81233  1  0  0  0  0
 81234  1  0  0  0  0
M  END
$$$$
