
 OpenBabel04232216593D

 67 67  0  0  0  0  0  0  0  0999 V2000
   10.6561  -10.8000  -11.0591 O   0  0  0  0  0  0  0  0  0  0  0  0
   11.1075   -9.7182  -10.6927 C   0  0  0  0  0  0  0  0  0  0  0  0
   11.7481   -9.5024   -9.3476 C   0  0  0  0  0  0  0  0  0  0  0  0
   11.0813   -8.3481   -8.6002 C   0  0  0  0  0  0  0  0  0  0  0  0
   11.7482   -8.1202   -7.2400 C   0  0  0  0  0  0  0  0  0  0  0  0
   11.1274   -6.9644   -6.4367 C   0  0  0  0  0  0  0  0  0  0  0  0
   11.8635   -6.7937   -5.0937 C   0  0  0  0  0  0  0  0  0  0  0  0
   11.3392   -5.6426   -4.2245 C   0  0  0  0  0  0  0  0  0  0  0  0
   12.0370   -5.5313   -2.8334 C   0  0  0  0  0  0  0  0  0  0  0  0
   13.5702   -5.3320   -2.9095 C   0  0  0  0  0  0  0  0  0  0  0  0
   14.3552   -5.0574   -1.6026 C   0  0  0  0  0  0  0  0  0  0  0  0
   14.6707   -6.1738   -0.5711 C   0  0  0  0  0  0  0  0  0  0  0  0
   15.5685   -7.4548   -0.8144 C   0  0  0  0  0  0  0  0  0  0  0  0
   17.0501   -7.5207   -1.4295 C   0  0  0  0  0  0  0  0  0  0  0  0
   18.4322   -7.7975   -0.6613 C   0  0  0  0  0  0  0  0  0  0  0  0
   18.3752   -7.8211    0.7849 C   0  0  0  0  0  0  0  0  0  0  0  0
   18.0421   -6.5012    1.4367 C   0  0  0  0  0  0  0  0  0  0  0  0
   18.7239   -8.9667    1.4245 C   0  0  0  0  0  0  0  0  0  0  0  0
   18.7039  -10.3203    0.7306 C   0  0  0  0  0  0  0  0  0  0  0  0
   19.5073   -8.7875    2.6494 C   0  0  0  0  0  0  0  0  0  0  0  0
   20.8207   -9.0159    2.5206 C   0  0  0  0  0  0  0  0  0  0  0  0
   21.7087   -7.8290    2.7349 C   0  0  0  0  0  0  0  0  0  0  0  0
   22.9267   -7.6414    2.3123 N   0  0  0  0  0  0  0  0  0  0  0  0
   23.4480   -8.7071    1.6528 C   0  0  0  0  0  0  0  0  0  0  0  0
   23.0882   -9.1249    0.4238 C   0  0  0  0  0  0  0  0  0  0  0  0
   22.2982   -8.3767   -0.5986 C   0  0  0  0  0  0  0  0  0  0  0  0
   21.1147   -8.0283   -1.1380 C   0  0  0  0  0  0  0  0  0  0  0  0
   19.6086   -8.0145   -1.3173 C   0  0  0  0  0  0  0  0  0  0  0  0
   11.1077   -8.8511  -11.3740 H   0  0  0  0  0  0  0  0  0  0  0  0
   12.8102   -9.2936   -9.5201 H   0  0  0  0  0  0  0  0  0  0  0  0
   11.6737  -10.4320   -8.7731 H   0  0  0  0  0  0  0  0  0  0  0  0
   10.0157   -8.5691   -8.4645 H   0  0  0  0  0  0  0  0  0  0  0  0
   11.1395   -7.4350   -9.2048 H   0  0  0  0  0  0  0  0  0  0  0  0
   12.8146   -7.9159   -7.3968 H   0  0  0  0  0  0  0  0  0  0  0  0
   11.6830   -9.0430   -6.6504 H   0  0  0  0  0  0  0  0  0  0  0  0
   10.0641   -7.1669   -6.2613 H   0  0  0  0  0  0  0  0  0  0  0  0
   11.1906   -6.0376   -7.0196 H   0  0  0  0  0  0  0  0  0  0  0  0
   12.9234   -6.6244   -5.3094 H   0  0  0  0  0  0  0  0  0  0  0  0
   11.7876   -7.7279   -4.5258 H   0  0  0  0  0  0  0  0  0  0  0  0
   10.2604   -5.7794   -4.0657 H   0  0  0  0  0  0  0  0  0  0  0  0
   11.4480   -4.6953   -4.7690 H   0  0  0  0  0  0  0  0  0  0  0  0
   11.8017   -6.4232   -2.2439 H   0  0  0  0  0  0  0  0  0  0  0  0
   11.5778   -4.6783   -2.3135 H   0  0  0  0  0  0  0  0  0  0  0  0
   13.7150   -4.4423   -3.5411 H   0  0  0  0  0  0  0  0  0  0  0  0
   14.0380   -6.1699   -3.4270 H   0  0  0  0  0  0  0  0  0  0  0  0
   13.7911   -4.2763   -1.0647 H   0  0  0  0  0  0  0  0  0  0  0  0
   15.3053   -4.5850   -1.8752 H   0  0  0  0  0  0  0  0  0  0  0  0
   13.6875   -6.5493   -0.2425 H   0  0  0  0  0  0  0  0  0  0  0  0
   15.0639   -5.6578    0.3149 H   0  0  0  0  0  0  0  0  0  0  0  0
   14.9474   -8.0752   -1.4752 H   0  0  0  0  0  0  0  0  0  0  0  0
   15.5814   -7.9904    0.1448 H   0  0  0  0  0  0  0  0  0  0  0  0
   17.1854   -6.6455   -2.0736 H   0  0  0  0  0  0  0  0  0  0  0  0
   16.9862   -8.3919   -2.1006 H   0  0  0  0  0  0  0  0  0  0  0  0
   17.0443   -6.1792    1.1299 H   0  0  0  0  0  0  0  0  0  0  0  0
   18.7527   -5.7162    1.1683 H   0  0  0  0  0  0  0  0  0  0  0  0
   17.9790   -6.5603    2.5263 H   0  0  0  0  0  0  0  0  0  0  0  0
   17.6595  -10.6057    0.5447 H   0  0  0  0  0  0  0  0  0  0  0  0
   19.1562  -11.1170    1.3251 H   0  0  0  0  0  0  0  0  0  0  0  0
   19.2098  -10.3304   -0.2413 H   0  0  0  0  0  0  0  0  0  0  0  0
   19.2122   -7.9655    3.2909 H   0  0  0  0  0  0  0  0  0  0  0  0
   21.1834   -9.7615    1.8238 H   0  0  0  0  0  0  0  0  0  0  0  0
   21.2114   -6.9307    3.1598 H   0  0  0  0  0  0  0  0  0  0  0  0
   24.2378   -9.2264    2.2051 H   0  0  0  0  0  0  0  0  0  0  0  0
   23.6838   -9.9572    0.0419 H   0  0  0  0  0  0  0  0  0  0  0  0
   23.1388   -7.9831   -1.1877 H   0  0  0  0  0  0  0  0  0  0  0  0
   21.4003   -7.4496   -2.0335 H   0  0  0  0  0  0  0  0  0  0  0  0
   19.4670   -8.1484   -2.3996 H   0  0  0  0  0  0  0  0  0  0  0  0
  1  2  2  0  0  0  0
  2  3  1  0  0  0  0
  2 29  1  0  0  0  0
  3  4  1  0  0  0  0
  3 30  1  0  0  0  0
  3 31  1  0  0  0  0
  4  5  1  0  0  0  0
  4 32  1  0  0  0  0
  4 33  1  0  0  0  0
  5  6  1  0  0  0  0
  5 34  1  0  0  0  0
  5 35  1  0  0  0  0
  6  7  1  0  0  0  0
  6 36  1  0  0  0  0
  6 37  1  0  0  0  0
  7  8  1  0  0  0  0
  7 38  1  0  0  0  0
  7 39  1  0  0  0  0
  8  9  1  0  0  0  0
  8 40  1  0  0  0  0
  8 41  1  0  0  0  0
  9 10  1  0  0  0  0
  9 42  1  0  0  0  0
  9 43  1  0  0  0  0
 10 11  1  0  0  0  0
 10 44  1  0  0  0  0
 10 45  1  0  0  0  0
 11 12  1  0  0  0  0
 11 46  1  0  0  0  0
 11 47  1  0  0  0  0
 12 13  1  0  0  0  0
 12 48  1  0  0  0  0
 12 49  1  0  0  0  0
 13 14  1  0  0  0  0
 13 50  1  0  0  0  0
 13 51  1  0  0  0  0
 14 15  1  0  0  0  0
 14 52  1  0  0  0  0
 14 53  1  0  0  0  0
 15 16  1  0  0  0  0
 15 28  2  3  0  0  0
 16 17  1  0  0  0  0
 16 18  2  3  0  0  0
 17 54  1  0  0  0  0
 17 55  1  0  0  0  0
 17 56  1  0  0  0  0
 18 19  1  0  0  0  0
 18 20  1  0  0  0  0
 19 57  1  0  0  0  0
 19 58  1  0  0  0  0
 19 59  1  0  0  0  0
 20 21  2  3  0  0  0
 20 60  1  0  0  0  0
 21 22  1  0  0  0  0
 21 61  1  0  0  0  0
 22 23  2  3  0  0  0
 22 62  1  0  0  0  0
 23 24  1  0  0  0  0
 24 25  2  3  0  0  0
 24 63  1  0  0  0  0
 25 26  1  0  0  0  0
 25 64  1  0  0  0  0
 26 27  2  3  0  0  0
 26 65  1  0  0  0  0
 27 28  1  0  0  0  0
 27 66  1  0  0  0  0
 28 67  1  0  0  0  0
M  END
$$$$
