
 OpenBabel04232216433D

 51 52  0  0  0  0  0  0  0  0999 V2000
    4.1436    0.4327    1.7821 C   0  0  0  0  0  0  0  0  0  0  0  0
    3.8054   -0.3402    0.4921 C   0  0  0  0  0  0  0  0  0  0  0  0
    3.8578   -1.6809    0.3050 C   0  0  0  0  0  0  0  0  0  0  0  0
    5.2820   -2.0497    0.2396 C   0  0  0  0  0  0  0  0  0  0  0  0
    5.7781   -2.3806    1.4353 C   0  0  0  0  0  0  0  0  0  0  0  0
    7.1096   -2.2488    1.9798 C   0  0  0  0  0  0  0  0  0  0  0  0
    8.0396   -1.6289    1.2178 C   0  0  0  0  0  0  0  0  0  0  0  0
    7.2049   -2.6853    3.3234 N   0  0  0  0  0  0  0  0  0  0  0  0
    6.0299   -2.6876    4.1288 N   0  0  0  0  0  0  0  0  0  0  0  0
    8.1109   -2.3329    4.2108 N   0  0  0  0  0  0  0  0  0  0  0  0
    9.1514   -3.0559    4.3521 C   0  0  0  0  0  0  0  0  0  0  0  0
   10.0011   -3.7085    3.3251 C   0  0  0  0  0  0  0  0  0  0  0  0
   11.0934   -3.9874    4.0534 C   0  0  0  0  0  0  0  0  0  0  0  0
   12.0006   -2.7855    4.1875 C   0  0  0  0  0  0  0  0  0  0  0  0
   11.3330   -1.5966    4.4837 C   0  0  0  0  0  0  0  0  0  0  0  0
   10.5977   -0.3723    3.6763 C   0  0  0  0  0  0  0  0  0  0  0  0
    9.2881    0.3344    3.3062 C   0  0  0  0  0  0  0  0  0  0  0  0
    7.6158    0.4559    2.9267 N   0  0  0  0  0  0  0  0  0  0  0  0
    6.9106    1.3756    2.0001 N   0  0  0  0  0  0  0  0  0  0  0  0
    5.1586    1.4764    1.4876 N   0  0  0  0  0  0  0  0  0  0  0  0
    4.2780    2.7440    0.4826 C   0  0  0  0  0  0  0  0  0  0  0  0
    2.5223    2.6282   -0.2168 C   0  0  0  0  0  0  0  0  0  0  0  0
    1.3790    3.6507   -1.2028 C   0  0  0  0  0  0  0  0  0  0  0  0
    1.2850    4.6700   -2.1891 C   0  0  0  0  0  0  0  0  0  0  0  0
   -0.1444    4.8343   -2.6331 C   0  0  0  0  0  0  0  0  0  0  0  0
   -0.9039    3.8725   -1.9027 C   0  0  0  0  0  0  0  0  0  0  0  0
   -0.0188    3.1973   -1.1097 O   0  0  0  0  0  0  0  0  0  0  0  0
    4.2605   -0.1044    2.7360 H   0  0  0  0  0  0  0  0  0  0  0  0
    3.2165    1.0036    1.9342 H   0  0  0  0  0  0  0  0  0  0  0  0
    4.0853    0.2102   -0.4018 H   0  0  0  0  0  0  0  0  0  0  0  0
    3.3543   -2.3256    1.0283 H   0  0  0  0  0  0  0  0  0  0  0  0
    5.8879   -1.6917   -0.5812 H   0  0  0  0  0  0  0  0  0  0  0  0
    5.0330   -2.5904    2.1910 H   0  0  0  0  0  0  0  0  0  0  0  0
    7.7770   -1.1163    0.2929 H   0  0  0  0  0  0  0  0  0  0  0  0
    9.0484   -1.4172    1.5339 H   0  0  0  0  0  0  0  0  0  0  0  0
    5.5526   -1.7962    3.9839 H   0  0  0  0  0  0  0  0  0  0  0  0
    6.4167   -2.5379    5.0642 H   0  0  0  0  0  0  0  0  0  0  0  0
    9.5970   -2.8641    5.3404 H   0  0  0  0  0  0  0  0  0  0  0  0
   10.1931   -3.0604    2.4567 H   0  0  0  0  0  0  0  0  0  0  0  0
   10.9354   -4.5724    4.9820 H   0  0  0  0  0  0  0  0  0  0  0  0
   12.6721   -2.9587    3.3296 H   0  0  0  0  0  0  0  0  0  0  0  0
   11.8990   -1.3091    5.4855 H   0  0  0  0  0  0  0  0  0  0  0  0
   11.5398    0.1829    3.4613 H   0  0  0  0  0  0  0  0  0  0  0  0
    8.9312   -0.1050    4.2708 H   0  0  0  0  0  0  0  0  0  0  0  0
    4.9476    2.9504   -0.3436 H   0  0  0  0  0  0  0  0  0  0  0  0
    4.2084    3.5592    1.2020 H   0  0  0  0  0  0  0  0  0  0  0  0
    1.8721    2.5105    0.6611 H   0  0  0  0  0  0  0  0  0  0  0  0
    2.4726    1.7230   -0.8305 H   0  0  0  0  0  0  0  0  0  0  0  0
    2.0750    5.2678   -2.6245 H   0  0  0  0  0  0  0  0  0  0  0  0
   -0.5429    5.5845   -3.3779 H   0  0  0  0  0  0  0  0  0  0  0  0
   -1.9524    3.6453   -1.9515 H   0  0  0  0  0  0  0  0  0  0  0  0
  1  2  1  0  0  0  0
  1 20  1  0  0  0  0
  1 28  1  0  0  0  0
  1 29  1  0  0  0  0
  2  3  2  3  0  0  0
  2 30  1  0  0  0  0
  3  4  1  0  0  0  0
  3 31  1  0  0  0  0
  4  5  2  3  0  0  0
  4 32  1  0  0  0  0
  5  6  1  0  0  0  0
  5 33  1  0  0  0  0
  6  7  2  0  0  0  0
  6  8  1  0  0  0  0
  7 34  1  0  0  0  0
  7 35  1  0  0  0  0
  8  9  1  0  0  0  0
  8 10  1  0  0  0  0
  9 36  1  0  0  0  0
  9 37  1  0  0  0  0
 10 11  2  3  0  0  0
 11 12  1  0  0  0  0
 11 38  1  0  0  0  0
 12 13  2  3  0  0  0
 12 39  1  0  0  0  0
 13 14  1  0  0  0  0
 13 40  1  0  0  0  0
 14 15  2  3  0  0  0
 14 41  1  0  0  0  0
 15 16  1  0  0  0  0
 15 42  1  0  0  0  0
 16 17  2  3  0  0  0
 16 43  1  0  0  0  0
 17 18  1  0  0  0  0
 17 44  1  0  0  0  0
 18 19  2  3  0  0  0
 19 20  1  0  0  0  0
 20 21  1  0  0  0  0
 21 22  1  0  0  0  0
 21 45  1  0  0  0  0
 21 46  1  0  0  0  0
 22 23  1  0  0  0  0
 22 47  1  0  0  0  0
 22 48  1  0  0  0  0
 23 24  2  0  0  0  0
 23 27  1  0  0  0  0
 24 25  1  0  0  0  0
 24 49  1  0  0  0  0
 25 26  2  0  0  0  0
 25 50  1  0  0  0  0
 26 27  1  0  0  0  0
 26 51  1  0  0  0  0
M  END
$$$$
