
 OpenBabel04232216433D

 38 38  0  0  0  0  0  0  0  0999 V2000
    0.0409    1.8863    1.9194 C   0  0  0  0  0  0  0  0  0  0  0  0
    0.2198    2.1657    0.4465 C   0  0  0  0  0  0  0  0  0  0  0  0
    0.9069    3.2661    0.0659 C   0  0  0  0  0  0  0  0  0  0  0  0
    2.2184    2.9187   -0.4799 C   0  0  0  0  0  0  0  0  0  0  0  0
    3.1723    2.7811    0.4830 C   0  0  0  0  0  0  0  0  0  0  0  0
    3.2953    1.5044    1.2508 C   0  0  0  0  0  0  0  0  0  0  0  0
    2.5542    1.4145    2.3985 C   0  0  0  0  0  0  0  0  0  0  0  0
    3.2059    2.0841    3.7367 C   0  0  0  0  0  0  0  0  0  0  0  0
    4.6602    2.8019    3.6907 C   0  0  0  0  0  0  0  0  0  0  0  0
    5.7030    2.8215    4.8747 C   0  0  0  0  0  0  0  0  0  0  0  0
    5.5704    3.6961    6.1235 C   0  0  0  0  0  0  0  0  0  0  0  0
    1.1235    0.9483    2.3741 N   0  0  0  0  0  0  0  0  0  0  0  0
    0.8292   -0.5271    1.9952 C   0  0  0  0  0  0  0  0  0  0  0  0
   -0.6328   -0.9605    1.6143 C   0  0  0  0  0  0  0  0  0  0  0  0
   -0.9777   -2.4567    1.8099 C   0  0  0  0  0  0  0  0  0  0  0  0
   -0.9621    1.4814    2.0595 H   0  0  0  0  0  0  0  0  0  0  0  0
    0.0663    2.7972    2.5205 H   0  0  0  0  0  0  0  0  0  0  0  0
    0.2866    1.2702   -0.1706 H   0  0  0  0  0  0  0  0  0  0  0  0
    0.9205    4.1304    0.7431 H   0  0  0  0  0  0  0  0  0  0  0  0
    2.1513    2.1048   -1.2316 H   0  0  0  0  0  0  0  0  0  0  0  0
    3.2429    3.6389    1.1924 H   0  0  0  0  0  0  0  0  0  0  0  0
    4.3751    1.4147    1.3351 H   0  0  0  0  0  0  0  0  0  0  0  0
    3.2197    1.3209    4.5185 H   0  0  0  0  0  0  0  0  0  0  0  0
    2.5077    2.8731    4.0395 H   0  0  0  0  0  0  0  0  0  0  0  0
    4.5268    3.8416    3.3618 H   0  0  0  0  0  0  0  0  0  0  0  0
    5.2402    2.3159    2.9005 H   0  0  0  0  0  0  0  0  0  0  0  0
    6.6417    3.1766    4.4205 H   0  0  0  0  0  0  0  0  0  0  0  0
    5.9178    1.7948    5.1912 H   0  0  0  0  0  0  0  0  0  0  0  0
    5.5524    4.7661    5.8954 H   0  0  0  0  0  0  0  0  0  0  0  0
    6.4611    3.5461    6.7477 H   0  0  0  0  0  0  0  0  0  0  0  0
    4.7112    3.4345    6.7431 H   0  0  0  0  0  0  0  0  0  0  0  0
    1.1499   -1.1397    2.8458 H   0  0  0  0  0  0  0  0  0  0  0  0
    1.4611   -0.7976    1.1389 H   0  0  0  0  0  0  0  0  0  0  0  0
   -0.8084   -0.7428    0.5548 H   0  0  0  0  0  0  0  0  0  0  0  0
   -1.4043   -0.4236    2.1798 H   0  0  0  0  0  0  0  0  0  0  0  0
   -0.1808   -3.1229    1.4626 H   0  0  0  0  0  0  0  0  0  0  0  0
   -1.8832   -2.7119    1.2535 H   0  0  0  0  0  0  0  0  0  0  0  0
   -1.1903   -2.6782    2.8618 H   0  0  0  0  0  0  0  0  0  0  0  0
  1  2  1  0  0  0  0
  1 12  1  0  0  0  0
  1 16  1  0  0  0  0
  1 17  1  0  0  0  0
  2  3  2  0  0  0  0
  2 18  1  0  0  0  0
  3  4  1  0  0  0  0
  3 19  1  0  0  0  0
  4  5  2  0  0  0  0
  4 20  1  0  0  0  0
  5  6  1  0  0  0  0
  5 21  1  0  0  0  0
  6  7  2  0  0  0  0
  6 22  1  0  0  0  0
  7  8  1  0  0  0  0
  7 12  1  0  0  0  0
  8  9  1  0  0  0  0
  8 23  1  0  0  0  0
  8 24  1  0  0  0  0
  9 10  1  0  0  0  0
  9 25  1  0  0  0  0
  9 26  1  0  0  0  0
 10 11  1  0  0  0  0
 10 27  1  0  0  0  0
 10 28  1  0  0  0  0
 11 29  1  0  0  0  0
 11 30  1  0  0  0  0
 11 31  1  0  0  0  0
 12 13  1  0  0  0  0
 13 14  1  0  0  0  0
 13 32  1  0  0  0  0
 13 33  1  0  0  0  0
 14 15  1  0  0  0  0
 14 34  1  0  0  0  0
 14 35  1  0  0  0  0
 15 36  1  0  0  0  0
 15 37  1  0  0  0  0
 15 38  1  0  0  0  0
M  END
$$$$
