
 OpenBabel04232216393D

 54 57  0  0  0  0  0  0  0  0999 V2000
    5.1423   -1.3835   -0.8467 C   0  0  0  0  0  0  0  0  0  0  0  0
    4.7204   -2.2846    0.0757 C   0  0  0  0  0  0  0  0  0  0  0  0
    3.6941   -1.6022    1.2107 C   0  0  0  0  0  0  0  0  0  0  0  0
    4.4768   -0.5497    1.9756 C   0  0  0  0  0  0  0  0  0  0  0  0
    5.2597   -0.9364    3.0029 C   0  0  0  0  0  0  0  0  0  0  0  0
    6.6998   -1.0767    2.7980 C   0  0  0  0  0  0  0  0  0  0  0  0
    7.3854   -2.1670    3.2122 C   0  0  0  0  0  0  0  0  0  0  0  0
    6.8037   -3.2473    3.8715 N   0  0  0  0  0  0  0  0  0  0  0  0
    6.8535   -3.3952    5.3133 C   0  0  0  0  0  0  0  0  0  0  0  0
    8.8231   -2.3791    2.7669 C   0  0  0  0  0  0  0  0  0  0  0  0
    9.2521   -3.8571    2.6522 C   0  0  0  0  0  0  0  0  0  0  0  0
    8.8381   -4.6137    1.3610 C   0  0  0  0  0  0  0  0  0  0  0  0
    7.3598   -4.8267    0.9622 C   0  0  0  0  0  0  0  0  0  0  0  0
    6.6211   -3.8651    0.3787 C   0  0  0  0  0  0  0  0  0  0  0  0
    5.2652   -3.7454   -0.0374 N   0  0  0  0  0  0  0  0  0  0  0  0
    4.3351   -5.2220   -0.4330 C   0  0  0  0  0  0  0  0  0  0  0  0
    2.5457   -5.0973   -0.4872 C   0  0  0  0  0  0  0  0  0  0  0  0
    1.3714   -5.2542    0.2646 C   0  0  0  0  0  0  0  0  0  0  0  0
    0.6272   -3.9440    0.9746 C   0  0  0  0  0  0  0  0  0  0  0  0
    1.0751   -2.7034    1.4640 C   0  0  0  0  0  0  0  0  0  0  0  0
    2.5149   -2.0671    1.8382 C   0  0  0  0  0  0  0  0  0  0  0  0
    2.8992   -3.2456    2.6207 C   0  0  0  0  0  0  0  0  0  0  0  0
    3.3233   -4.0790    1.4621 C   0  0  0  0  0  0  0  0  0  0  0  0
    2.7384   -3.7352   -0.2888 C   0  0  0  0  0  0  0  0  0  0  0  0
    3.0164   -3.3084   -1.6599 C   0  0  0  0  0  3  0  0  0  0  0  0
    1.9727   -2.6847   -1.0142 C   0  0  0  0  0  0  0  0  0  0  0  0
    4.7213   -0.3814   -0.8902 H   0  0  0  0  0  0  0  0  0  0  0  0
    5.7788   -1.6833   -1.6733 H   0  0  0  0  0  0  0  0  0  0  0  0
    4.9028    0.1695    1.2754 H   0  0  0  0  0  0  0  0  0  0  0  0
    4.8667   -1.6133    3.7482 H   0  0  0  0  0  0  0  0  0  0  0  0
    7.1912   -0.3345    2.1726 H   0  0  0  0  0  0  0  0  0  0  0  0
    5.8713   -3.4281    3.5053 H   0  0  0  0  0  0  0  0  0  0  0  0
    7.2186   -2.4900    5.8084 H   0  0  0  0  0  0  0  0  0  0  0  0
    7.5078   -4.2311    5.5756 H   0  0  0  0  0  0  0  0  0  0  0  0
    5.8510   -3.6163    5.6923 H   0  0  0  0  0  0  0  0  0  0  0  0
    9.4745   -1.8762    3.4945 H   0  0  0  0  0  0  0  0  0  0  0  0
    9.0036   -1.8909    1.8001 H   0  0  0  0  0  0  0  0  0  0  0  0
    8.9499   -4.4303    3.5369 H   0  0  0  0  0  0  0  0  0  0  0  0
   10.3522   -3.8641    2.6931 H   0  0  0  0  0  0  0  0  0  0  0  0
    9.2717   -5.6193    1.4618 H   0  0  0  0  0  0  0  0  0  0  0  0
    9.3843   -4.1598    0.5229 H   0  0  0  0  0  0  0  0  0  0  0  0
    6.9508   -5.7950    1.1604 H   0  0  0  0  0  0  0  0  0  0  0  0
    7.1087   -2.8931    0.2703 H   0  0  0  0  0  0  0  0  0  0  0  0
    4.6320   -6.0060    0.2697 H   0  0  0  0  0  0  0  0  0  0  0  0
    4.6690   -5.4802   -1.4486 H   0  0  0  0  0  0  0  0  0  0  0  0
    0.5960   -5.8967   -0.1627 H   0  0  0  0  0  0  0  0  0  0  0  0
   -0.4569   -4.0679    0.9066 H   0  0  0  0  0  0  0  0  0  0  0  0
    0.3061   -1.9949    1.7860 H   0  0  0  0  0  0  0  0  0  0  0  0
    2.1106   -3.7038    3.2359 H   0  0  0  0  0  0  0  0  0  0  0  0
    3.7135   -3.1211    3.3310 H   0  0  0  0  0  0  0  0  0  0  0  0
    2.9644   -5.0855    1.7599 H   0  0  0  0  0  0  0  0  0  0  0  0
    4.3746   -4.3002    1.6501 H   0  0  0  0  0  0  0  0  0  0  0  0
    3.8365   -2.8711   -2.1960 H   0  0  0  0  0  0  0  0  0  0  0  0
    1.9957   -1.6124   -0.8737 H   0  0  0  0  0  0  0  0  0  0  0  0
  1  2  2  0  0  0  0
  1 27  1  0  0  0  0
  1 28  1  0  0  0  0
  2  3  1  0  0  0  0
  2 15  1  0  0  0  0
  3  4  1  0  0  0  0
  3 21  2  3  0  0  0
  4  5  2  3  0  0  0
  4 29  1  0  0  0  0
  5  6  1  0  0  0  0
  5 30  1  0  0  0  0
  6  7  2  3  0  0  0
  6 31  1  0  0  0  0
  7  8  1  0  0  0  0
  7 10  1  0  0  0  0
  8  9  1  0  0  0  0
  8 32  1  0  0  0  0
  9 33  1  0  0  0  0
  9 34  1  0  0  0  0
  9 35  1  0  0  0  0
 10 11  1  0  0  0  0
 10 36  1  0  0  0  0
 10 37  1  0  0  0  0
 11 12  1  0  0  0  0
 11 38  1  0  0  0  0
 11 39  1  0  0  0  0
 12 13  1  0  0  0  0
 12 40  1  0  0  0  0
 12 41  1  0  0  0  0
 13 14  2  3  0  0  0
 13 42  1  0  0  0  0
 14 15  1  0  0  0  0
 14 43  1  0  0  0  0
 15 16  1  0  0  0  0
 16 17  1  0  0  0  0
 16 44  1  0  0  0  0
 16 45  1  0  0  0  0
 17 18  2  0  0  0  0
 17 24  1  0  0  0  0
 18 19  1  0  0  0  0
 18 46  1  0  0  0  0
 19 20  2  0  0  0  0
 19 47  1  0  0  0  0
 20 21  1  0  0  0  0
 20 48  1  0  0  0  0
 21 22  1  0  0  0  0
 22 23  1  0  0  0  0
 22 49  1  0  0  0  0
 22 50  1  0  0  0  0
 23 24  1  0  0  0  0
 23 51  1  0  0  0  0
 23 52  1  0  0  0  0
 24 25  1  0  0  0  0
 24 26  2  0  0  0  0
 25 26  1  0  0  0  0
 25 53  1  0  0  0  0
 26 54  1  0  0  0  0
M  END
$$$$
