
 OpenBabel04232216523D

 69 69  0  0  0  0  0  0  0  0999 V2000
    4.3107    0.9171    0.7210 C   0  0  0  0  0  0  0  0  0  0  0  0
    5.2912   -0.1371    1.4917 C   0  0  0  0  0  0  0  0  0  0  0  0
    7.1278   -0.5524    1.5078 C   0  0  0  0  0  0  0  0  0  0  0  0
    8.3811   -0.4278    2.8826 C   0  0  0  0  0  0  0  0  0  0  0  0
    7.3756    0.1029    3.5916 C   0  0  0  0  0  0  0  0  0  0  0  0
    7.0584    1.5808    3.2874 C   0  0  0  0  0  0  0  0  0  0  0  0
    6.8077    2.0755    4.6757 C   0  0  0  0  0  0  0  0  0  0  0  0
    8.0269    1.7843    5.3132 C   0  0  0  0  0  0  0  0  0  0  0  0
    8.0870    1.8098    6.7797 C   0  0  0  0  0  0  0  0  0  0  0  0
    9.4745    1.5740    6.9732 C   0  0  0  0  0  0  0  0  0  0  0  0
    9.9700    2.1294    8.3043 C   0  0  0  0  0  0  0  0  0  0  0  0
   11.3633    2.1086    7.9734 C   0  0  0  0  0  0  0  0  0  0  0  0
   12.6860    2.4037    8.5223 C   0  0  0  0  0  0  0  0  0  0  0  0
   13.3995    1.9645    7.2186 C   0  0  0  0  0  0  0  0  0  0  0  0
   14.1586    2.7341    6.6333 O   0  0  0  0  0  0  0  0  0  0  0  0
   12.7798    0.5294    6.5590 C   0  0  0  0  0  0  0  0  0  0  0  0
   12.8904    0.1653    5.2755 C   0  0  0  0  0  0  0  0  0  0  0  0
   14.6839    0.2959    5.2663 C   0  0  0  0  0  0  0  0  0  0  0  0
   15.9449    0.3721    6.6126 C   0  0  0  0  0  0  0  0  0  0  0  0
   16.2496   -0.4074    7.9876 C   0  0  0  0  0  0  0  0  0  0  0  0
   15.5402   -1.7142    8.1055 C   0  0  0  0  0  0  0  0  0  0  0  0
   15.6984   -2.5573    9.3799 C   0  0  0  0  0  0  0  0  0  0  0  0
   14.6933   -3.6824    9.2002 C   0  0  0  0  0  0  0  0  0  0  0  0
   14.6490   -4.6727   10.3049 C   0  0  0  0  0  0  0  0  0  0  0  0
   13.6477   -5.6581    9.9984 O   0  0  0  0  0  0  0  0  0  0  0  0
   11.5444    0.1972    3.9790 C   0  0  0  0  0  0  0  0  0  0  0  0
   10.1543    0.0263    3.2171 C   0  0  0  0  0  0  0  0  0  0  0  0
    3.2586    0.5368    0.7998 H   0  0  0  0  0  0  0  0  0  0  0  0
    4.4373    1.0215   -0.3629 H   0  0  0  0  0  0  0  0  0  0  0  0
    4.1932    1.9174    1.1733 H   0  0  0  0  0  0  0  0  0  0  0  0
    4.8532   -1.0654    1.0926 H   0  0  0  0  0  0  0  0  0  0  0  0
    4.9005   -0.0890    2.5204 H   0  0  0  0  0  0  0  0  0  0  0  0
    7.5272   -0.2687    0.5322 H   0  0  0  0  0  0  0  0  0  0  0  0
    6.9568   -1.6463    1.5139 H   0  0  0  0  0  0  0  0  0  0  0  0
    6.4344   -0.4523    3.7108 H   0  0  0  0  0  0  0  0  0  0  0  0
    6.2178    1.7815    2.6260 H   0  0  0  0  0  0  0  0  0  0  0  0
    7.9325    2.0487    2.8209 H   0  0  0  0  0  0  0  0  0  0  0  0
    5.9485    1.5149    5.1392 H   0  0  0  0  0  0  0  0  0  0  0  0
    6.5577    3.1273    4.6990 H   0  0  0  0  0  0  0  0  0  0  0  0
    8.8719    2.3886    4.7930 H   0  0  0  0  0  0  0  0  0  0  0  0
    8.4285    0.7203    5.1815 H   0  0  0  0  0  0  0  0  0  0  0  0
    7.4884    1.0030    7.2258 H   0  0  0  0  0  0  0  0  0  0  0  0
    7.7406    2.7914    7.1252 H   0  0  0  0  0  0  0  0  0  0  0  0
   10.0589    2.0355    6.1463 H   0  0  0  0  0  0  0  0  0  0  0  0
    9.7553    0.4981    6.8498 H   0  0  0  0  0  0  0  0  0  0  0  0
    9.7071    1.4260    9.1045 H   0  0  0  0  0  0  0  0  0  0  0  0
    9.5863    3.1425    8.5103 H   0  0  0  0  0  0  0  0  0  0  0  0
   11.4422    2.6266    6.9801 H   0  0  0  0  0  0  0  0  0  0  0  0
   11.4186    1.0116    7.9285 H   0  0  0  0  0  0  0  0  0  0  0  0
   12.9438    1.7857    9.3818 H   0  0  0  0  0  0  0  0  0  0  0  0
   12.7751    3.4724    8.7288 H   0  0  0  0  0  0  0  0  0  0  0  0
   13.4507   -0.0449    7.2477 H   0  0  0  0  0  0  0  0  0  0  0  0
   14.8240    1.3396    4.9308 H   0  0  0  0  0  0  0  0  0  0  0  0
   15.1464   -0.3053    4.4795 H   0  0  0  0  0  0  0  0  0  0  0  0
   16.8956    0.2234    6.0702 H   0  0  0  0  0  0  0  0  0  0  0  0
   16.0418    1.4229    6.9300 H   0  0  0  0  0  0  0  0  0  0  0  0
   16.0373    0.2123    8.8747 H   0  0  0  0  0  0  0  0  0  0  0  0
   17.3334   -0.5993    8.0961 H   0  0  0  0  0  0  0  0  0  0  0  0
   15.8178   -2.3246    7.2340 H   0  0  0  0  0  0  0  0  0  0  0  0
   14.4729   -1.4876    8.0398 H   0  0  0  0  0  0  0  0  0  0  0  0
   15.4834   -1.9783   10.2870 H   0  0  0  0  0  0  0  0  0  0  0  0
   16.7247   -2.9534    9.4643 H   0  0  0  0  0  0  0  0  0  0  0  0
   14.9020   -4.2099    8.2450 H   0  0  0  0  0  0  0  0  0  0  0  0
   13.6865   -3.2487    9.0470 H   0  0  0  0  0  0  0  0  0  0  0  0
   14.3813   -4.2035   11.2467 H   0  0  0  0  0  0  0  0  0  0  0  0
   15.6037   -5.1989   10.4038 H   0  0  0  0  0  0  0  0  0  0  0  0
   12.8247   -5.1859    9.7837 H   0  0  0  0  0  0  0  0  0  0  0  0
   12.2175    0.6616    3.2400 H   0  0  0  0  0  0  0  0  0  0  0  0
   10.3128    0.4127    2.1987 H   0  0  0  0  0  0  0  0  0  0  0  0
  1  2  1  0  0  0  0
  1 28  1  0  0  0  0
  1 29  1  0  0  0  0
  1 30  1  0  0  0  0
  2  3  1  0  0  0  0
  2 31  1  0  0  0  0
  2 32  1  0  0  0  0
  3  4  1  0  0  0  0
  3 33  1  0  0  0  0
  3 34  1  0  0  0  0
  4  5  2  3  0  0  0
  4 27  1  0  0  0  0
  5  6  1  0  0  0  0
  5 35  1  0  0  0  0
  6  7  1  0  0  0  0
  6 36  1  0  0  0  0
  6 37  1  0  0  0  0
  7  8  1  0  0  0  0
  7 38  1  0  0  0  0
  7 39  1  0  0  0  0
  8  9  1  0  0  0  0
  8 40  1  0  0  0  0
  8 41  1  0  0  0  0
  9 10  1  0  0  0  0
  9 42  1  0  0  0  0
  9 43  1  0  0  0  0
 10 11  1  0  0  0  0
 10 44  1  0  0  0  0
 10 45  1  0  0  0  0
 11 12  1  0  0  0  0
 11 46  1  0  0  0  0
 11 47  1  0  0  0  0
 12 13  1  0  0  0  0
 12 48  1  0  0  0  0
 12 49  1  0  0  0  0
 13 14  1  0  0  0  0
 13 50  1  0  0  0  0
 13 51  1  0  0  0  0
 14 15  2  0  0  0  0
 14 16  1  0  0  0  0
 16 17  2  3  0  0  0
 16 52  1  0  0  0  0
 17 18  1  0  0  0  0
 17 26  1  0  0  0  0
 18 19  1  0  0  0  0
 18 53  1  0  0  0  0
 18 54  1  0  0  0  0
 19 20  1  0  0  0  0
 19 55  1  0  0  0  0
 19 56  1  0  0  0  0
 20 21  1  0  0  0  0
 20 57  1  0  0  0  0
 20 58  1  0  0  0  0
 21 22  1  0  0  0  0
 21 59  1  0  0  0  0
 21 60  1  0  0  0  0
 22 23  1  0  0  0  0
 22 61  1  0  0  0  0
 22 62  1  0  0  0  0
 23 24  1  0  0  0  0
 23 63  1  0  0  0  0
 23 64  1  0  0  0  0
 24 25  1  0  0  0  0
 24 65  1  0  0  0  0
 24 66  1  0  0  0  0
 25 67  1  0  0  0  0
 26 27  2  3  0  0  0
 26 68  1  0  0  0  0
 27 69  1  0  0  0  0
M  END
$$$$
