
 OpenBabel04232216513D

 46 48  0  0  0  0  0  0  0  0999 V2000
    5.7505   -2.4458    3.6728 C   0  0  0  0  0  0  0  0  0  0  0  0
    6.9460   -2.6322    2.7411 C   0  0  0  0  0  0  0  0  0  0  0  0
    6.8722   -1.8242    1.6158 N   0  0  0  0  0  0  0  0  0  0  0  0
    5.7441   -1.7833    1.0264 N   0  0  0  0  0  0  0  0  0  0  0  0
    5.4427   -2.9139    0.2703 C   0  0  0  0  0  0  0  0  0  0  0  0
    4.5062   -3.9944    0.8414 C   0  0  0  0  0  0  0  0  0  0  0  0
    3.2467   -3.4739    1.3821 N   0  0  0  0  0  0  0  0  0  0  0  0
    2.3523   -3.0680    0.3610 N   0  0  0  0  0  0  0  0  0  0  0  0
    1.1672   -3.7983    0.1720 C   0  0  0  0  0  0  0  0  0  0  0  0
    0.9211   -4.8540    0.7451 O   0  0  0  0  0  0  0  0  0  0  0  0
    0.1784   -3.1490   -0.7331 C   0  0  0  0  0  0  0  0  0  0  0  0
    0.5992   -2.3225   -1.7853 C   0  0  0  0  0  0  0  0  0  0  0  0
   -0.3409   -1.6497   -2.5663 C   0  0  0  0  0  0  0  0  0  0  0  0
   -1.7024   -1.8122   -2.3145 C   0  0  0  0  0  0  0  0  0  0  0  0
   -2.1296   -2.6676   -1.2968 C   0  0  0  0  0  0  0  0  0  0  0  0
   -1.1916   -3.3397   -0.5073 C   0  0  0  0  0  0  0  0  0  0  0  0
    6.0789   -3.1192   -0.8559 N   0  0  0  0  0  0  0  0  0  0  0  0
    7.1495   -3.9529   -0.6276 C   0  0  0  0  0  0  0  0  0  0  0  0
    8.3784   -3.4276   -0.5626 C   0  0  0  0  0  0  0  0  0  0  0  0
    9.2348   -4.1350    0.3870 C   0  0  0  0  0  0  0  0  0  0  0  0
    9.2772   -5.3540    0.4686 O   0  0  0  0  0  0  0  0  0  0  0  0
    9.8786   -3.2760    1.2172 N   0  0  0  0  0  0  0  0  0  0  0  0
    9.4089   -3.2565    2.4278 C   0  0  0  0  0  0  0  0  0  0  0  0
   10.4955   -3.4966    3.4258 C   0  0  0  0  0  0  0  0  0  0  0  0
   10.3286   -4.6349    4.1222 C   0  0  0  0  0  0  0  0  0  0  0  0
    9.0285   -5.2588    4.2706 C   0  0  0  0  0  0  0  0  0  0  0  0
    7.9096   -4.6196    3.8867 C   0  0  0  0  0  0  0  0  0  0  0  0
    8.0028   -3.4453    3.0186 C   0  0  0  0  0  0  0  0  0  0  0  0
    5.6585   -1.3768    3.9162 H   0  0  0  0  0  0  0  0  0  0  0  0
    5.8182   -2.9866    4.6171 H   0  0  0  0  0  0  0  0  0  0  0  0
    4.8086   -2.7242    3.2026 H   0  0  0  0  0  0  0  0  0  0  0  0
    5.0445   -4.4941    1.6526 H   0  0  0  0  0  0  0  0  0  0  0  0
    4.3105   -4.7560    0.0772 H   0  0  0  0  0  0  0  0  0  0  0  0
    2.7759   -4.2521    1.8752 H   0  0  0  0  0  0  0  0  0  0  0  0
    2.3378   -2.0749    0.1200 H   0  0  0  0  0  0  0  0  0  0  0  0
    1.6546   -2.1983   -2.0158 H   0  0  0  0  0  0  0  0  0  0  0  0
   -0.0116   -1.0013   -3.3759 H   0  0  0  0  0  0  0  0  0  0  0  0
   -2.4330   -1.2811   -2.9212 H   0  0  0  0  0  0  0  0  0  0  0  0
   -3.1916   -2.8025   -1.1144 H   0  0  0  0  0  0  0  0  0  0  0  0
   -1.5306   -3.9960    0.2903 H   0  0  0  0  0  0  0  0  0  0  0  0
    6.9483   -4.9494   -0.2318 H   0  0  0  0  0  0  0  0  0  0  0  0
    8.5986   -2.3993   -0.8009 H   0  0  0  0  0  0  0  0  0  0  0  0
   11.4702   -3.0515    3.2672 H   0  0  0  0  0  0  0  0  0  0  0  0
   11.1791   -5.1241    4.5886 H   0  0  0  0  0  0  0  0  0  0  0  0
    8.9854   -6.2351    4.7443 H   0  0  0  0  0  0  0  0  0  0  0  0
    6.9368   -5.0655    4.0674 H   0  0  0  0  0  0  0  0  0  0  0  0
  1  2  1  0  0  0  0
  1 29  1  0  0  0  0
  1 30  1  0  0  0  0
  1 31  1  0  0  0  0
  2  3  1  0  0  0  0
  2 28  2  0  0  0  0
  3  4  2  0  0  0  0
  4  5  1  0  0  0  0
  5  6  1  0  0  0  0
  5 17  2  0  0  0  0
  6  7  1  0  0  0  0
  6 32  1  0  0  0  0
  6 33  1  0  0  0  0
  7  8  1  0  0  0  0
  7 34  1  0  0  0  0
  8  9  1  0  0  0  0
  8 35  1  0  0  0  0
  9 10  2  0  0  0  0
  9 11  1  0  0  0  0
 11 12  1  0  0  0  0
 11 16  2  0  0  0  0
 12 13  2  0  0  0  0
 12 36  1  0  0  0  0
 13 14  1  0  0  0  0
 13 37  1  0  0  0  0
 14 15  2  0  0  0  0
 14 38  1  0  0  0  0
 15 16  1  0  0  0  0
 15 39  1  0  0  0  0
 16 40  1  0  0  0  0
 17 18  1  0  0  0  0
 18 19  2  0  0  0  0
 18 41  1  0  0  0  0
 19 20  1  0  0  0  0
 19 42  1  0  0  0  0
 20 21  2  0  0  0  0
 20 22  1  0  0  0  0
 22 23  2  0  0  0  0
 23 24  1  0  0  0  0
 23 28  1  0  0  0  0
 24 25  2  0  0  0  0
 24 43  1  0  0  0  0
 25 26  1  0  0  0  0
 25 44  1  0  0  0  0
 26 27  2  0  0  0  0
 26 45  1  0  0  0  0
 27 28  1  0  0  0  0
 27 46  1  0  0  0  0
M  END
$$$$
