
 OpenBabel04232216453D

 58 58  0  0  0  0  0  0  0  0999 V2000
    5.3653    2.0336    1.0278 C   0  0  0  0  0  0  0  0  0  0  0  0
    6.5679    2.5407    0.1566 C   0  0  0  0  0  0  0  0  0  0  0  0
    5.6483    2.0655   -0.9889 C   0  0  0  0  0  0  0  0  0  0  0  0
    5.5950    0.9119   -1.7125 C   0  0  0  0  0  0  0  0  0  0  0  0
    6.2508   -0.3784   -1.1987 C   0  0  0  0  0  0  0  0  0  0  0  0
    5.4118    1.2648   -3.1684 C   0  0  0  0  0  0  0  0  0  0  0  0
    4.5242    2.4945   -3.4553 C   0  0  0  0  0  0  0  0  0  0  0  0
    3.9976    2.7720   -4.8600 C   0  0  0  0  0  0  0  0  0  0  0  0
    3.0156    1.7306   -5.3511 C   0  0  0  0  0  0  0  0  0  0  0  0
    1.8596    1.5381   -4.3759 C   0  0  0  0  0  0  0  0  0  0  0  0
    0.8861    0.5009   -4.9027 C   0  0  0  0  0  0  0  0  0  0  0  0
   -0.2386    0.2785   -3.9122 C   0  0  0  0  0  0  0  0  0  0  0  0
    0.2801   -0.1702   -2.7377 F   0  0  0  0  0  0  0  0  0  0  0  0
    6.5222    1.0353   -3.9047 C   0  0  0  0  0  0  0  0  0  0  0  0
    7.2150    2.1320   -4.5757 C   0  0  0  0  0  0  0  0  0  0  0  0
    8.5488    2.1326   -4.5061 C   0  0  0  0  0  0  0  0  0  0  0  0
    9.4539    3.2543   -4.6164 C   0  0  0  0  0  0  0  0  0  0  0  0
    8.9793    4.5691   -5.2216 C   0  0  0  0  0  0  0  0  0  0  0  0
   10.6329    3.1004   -3.9689 C   0  0  0  0  0  0  0  0  0  0  0  0
   11.3281    1.8299   -3.5027 C   0  0  0  0  0  0  0  0  0  0  0  0
   11.2360    4.2171   -3.3081 C   0  0  0  0  0  0  0  0  0  0  0  0
   10.9541    4.5853   -2.0450 C   0  0  0  0  0  0  0  0  0  0  0  0
   11.8169    5.5233   -1.5830 F   0  0  0  0  0  0  0  0  0  0  0  0
    9.8877    4.3025   -1.0607 C   0  0  0  0  0  0  0  0  0  0  0  0
    8.8412    3.4677   -0.8133 C   0  0  0  0  0  0  0  0  0  0  0  0
    7.7222    2.5078   -0.6160 C   0  0  0  0  0  0  0  0  0  0  0  0
    4.4039    2.5518    0.7969 H   0  0  0  0  0  0  0  0  0  0  0  0
    5.5303    2.2799    2.0776 H   0  0  0  0  0  0  0  0  0  0  0  0
    5.1502    0.9503    1.0016 H   0  0  0  0  0  0  0  0  0  0  0  0
    5.0409    2.9232   -1.2655 H   0  0  0  0  0  0  0  0  0  0  0  0
    5.5028   -1.0440   -0.7505 H   0  0  0  0  0  0  0  0  0  0  0  0
    6.9668   -0.1761   -0.3891 H   0  0  0  0  0  0  0  0  0  0  0  0
    6.8038   -0.9605   -1.9402 H   0  0  0  0  0  0  0  0  0  0  0  0
    5.0923    3.3949   -3.1815 H   0  0  0  0  0  0  0  0  0  0  0  0
    3.6664    2.4747   -2.7723 H   0  0  0  0  0  0  0  0  0  0  0  0
    4.8007    2.8723   -5.5935 H   0  0  0  0  0  0  0  0  0  0  0  0
    3.5043    3.7530   -4.8312 H   0  0  0  0  0  0  0  0  0  0  0  0
    3.5403    0.7823   -5.5100 H   0  0  0  0  0  0  0  0  0  0  0  0
    2.6312    2.0567   -6.3244 H   0  0  0  0  0  0  0  0  0  0  0  0
    1.3534    2.4961   -4.2002 H   0  0  0  0  0  0  0  0  0  0  0  0
    2.2277    1.1857   -3.4064 H   0  0  0  0  0  0  0  0  0  0  0  0
    1.4285   -0.4395   -5.0533 H   0  0  0  0  0  0  0  0  0  0  0  0
    0.4848    0.8232   -5.8685 H   0  0  0  0  0  0  0  0  0  0  0  0
   -0.9311   -0.4789   -4.2840 H   0  0  0  0  0  0  0  0  0  0  0  0
   -0.7858    1.2036   -3.7101 H   0  0  0  0  0  0  0  0  0  0  0  0
    7.2002    0.2450   -3.5837 H   0  0  0  0  0  0  0  0  0  0  0  0
    6.6892    3.0411   -4.8296 H   0  0  0  0  0  0  0  0  0  0  0  0
    8.9780    1.2505   -4.0482 H   0  0  0  0  0  0  0  0  0  0  0  0
    7.9003    4.7296   -5.1523 H   0  0  0  0  0  0  0  0  0  0  0  0
    9.2367    4.5940   -6.2899 H   0  0  0  0  0  0  0  0  0  0  0  0
    9.4424    5.4511   -4.7663 H   0  0  0  0  0  0  0  0  0  0  0  0
   10.6544    1.0950   -3.0624 H   0  0  0  0  0  0  0  0  0  0  0  0
   12.0607    2.0447   -2.7133 H   0  0  0  0  0  0  0  0  0  0  0  0
   11.8881    1.3686   -4.3235 H   0  0  0  0  0  0  0  0  0  0  0  0
   12.0745    4.6677   -3.8437 H   0  0  0  0  0  0  0  0  0  0  0  0
   10.0364    5.0030   -0.2502 H   0  0  0  0  0  0  0  0  0  0  0  0
    9.3003    2.6817   -1.4532 H   0  0  0  0  0  0  0  0  0  0  0  0
    7.8558    1.6530   -1.2980 H   0  0  0  0  0  0  0  0  0  0  0  0
  1  2  1  0  0  0  0
  1 27  1  0  0  0  0
  1 28  1  0  0  0  0
  1 29  1  0  0  0  0
  2  3  1  0  0  0  0
  2 26  2  0  0  0  0
  3  4  2  0  0  0  0
  3 30  1  0  0  0  0
  4  5  1  0  0  0  0
  4  6  1  0  0  0  0
  5 31  1  0  0  0  0
  5 32  1  0  0  0  0
  5 33  1  0  0  0  0
  6  7  1  0  0  0  0
  6 14  2  0  0  0  0
  7  8  1  0  0  0  0
  7 34  1  0  0  0  0
  7 35  1  0  0  0  0
  8  9  1  0  0  0  0
  8 36  1  0  0  0  0
  8 37  1  0  0  0  0
  9 10  1  0  0  0  0
  9 38  1  0  0  0  0
  9 39  1  0  0  0  0
 10 11  1  0  0  0  0
 10 40  1  0  0  0  0
 10 41  1  0  0  0  0
 11 12  1  0  0  0  0
 11 42  1  0  0  0  0
 11 43  1  0  0  0  0
 12 13  1  0  0  0  0
 12 44  1  0  0  0  0
 12 45  1  0  0  0  0
 14 15  1  0  0  0  0
 14 46  1  0  0  0  0
 15 16  2  0  0  0  0
 15 47  1  0  0  0  0
 16 17  1  0  0  0  0
 16 48  1  0  0  0  0
 17 18  1  0  0  0  0
 17 19  2  0  0  0  0
 18 49  1  0  0  0  0
 18 50  1  0  0  0  0
 18 51  1  0  0  0  0
 19 20  1  0  0  0  0
 19 21  1  0  0  0  0
 20 52  1  0  0  0  0
 20 53  1  0  0  0  0
 20 54  1  0  0  0  0
 21 22  2  0  0  0  0
 21 55  1  0  0  0  0
 22 23  1  0  0  0  0
 22 24  1  0  0  0  0
 24 25  2  0  0  0  0
 24 56  1  0  0  0  0
 25 26  1  0  0  0  0
 25 57  1  0  0  0  0
 26 58  1  0  0  0  0
M  END
$$$$
