
 OpenBabel04232216493D

 59 61  0  0  0  0  0  0  0  0999 V2000
    9.5795   -3.8618   -0.0938 C   0  0  0  0  0  0  0  0  0  0  0  0
   10.0474   -3.6205   -1.5801 C   0  0  0  0  0  0  0  0  0  0  0  0
    8.5413   -3.1543   -2.0631 C   0  0  0  0  0  0  0  0  0  0  0  0
    7.5619   -2.1938   -2.0322 C   0  0  0  0  0  0  0  0  0  0  0  0
    5.9797   -2.3108   -2.5857 C   0  0  0  0  0  0  0  0  0  0  0  0
    5.4980   -2.9133   -3.7877 C   0  0  0  0  0  0  0  0  0  0  0  0
    4.2834   -3.7575   -3.8109 N   0  0  0  0  0  0  0  0  0  0  0  0
    3.6201   -4.8235   -4.8160 C   0  0  0  0  0  0  0  0  0  0  0  0
    4.2967   -6.1499   -5.4528 C   0  0  0  0  0  0  0  0  0  0  0  0
    5.7154   -6.2141   -5.0503 C   0  0  0  0  0  0  0  0  0  0  0  0
    7.0238   -6.8890   -5.5679 C   0  0  0  0  0  0  0  0  0  0  0  0
    8.0965   -6.0105   -4.9417 C   0  0  0  0  0  0  0  0  0  0  0  0
    9.3501   -5.1557   -5.1142 C   0  0  0  0  0  0  0  0  0  0  0  0
    6.7665   -3.4949   -4.2940 C   0  0  0  0  0  0  0  0  0  0  0  0
    6.8381   -4.5720   -3.6033 O   0  0  0  0  0  0  0  0  0  0  0  0
    7.9596   -2.8663   -4.8773 C   0  0  0  0  0  0  0  0  0  0  0  0
    9.1494   -3.5718   -4.9197 C   0  0  0  0  0  0  0  0  0  0  0  0
   10.3952   -2.8614   -4.4901 C   0  0  0  0  0  0  0  0  0  0  0  0
   11.3535   -3.6191   -3.9314 C   0  0  0  0  0  0  0  0  0  0  0  0
   12.4627   -3.9284   -4.7503 N   0  0  0  0  0  0  0  0  0  0  0  0
   12.5382   -5.1176   -5.2777 C   0  0  0  0  0  0  0  0  0  0  0  0
   13.2871   -5.5081   -6.3663 N   0  0  0  0  0  0  0  0  0  0  0  0
   14.5963   -5.4204   -6.4576 C   0  0  0  0  0  0  0  0  0  0  0  0
   15.5274   -4.7350   -5.5493 C   0  0  0  0  0  0  0  0  0  0  0  0
   16.2867   -5.6592   -4.9446 C   0  0  0  0  0  0  0  0  0  0  0  0
   16.1193   -5.9851   -3.5159 C   0  0  0  0  0  0  0  0  0  0  0  0
   14.8673   -6.1053   -2.8853 C   0  0  0  0  0  0  0  0  0  0  0  0
   13.8098   -5.0439   -2.5454 C   0  0  0  0  0  0  0  0  0  0  0  0
   12.4818   -5.1262   -2.1029 C   0  0  0  0  0  0  0  0  0  0  0  0
   11.2444   -4.0185   -2.3899 C   0  0  0  0  0  0  0  0  0  0  0  0
   10.0469   -3.1826    0.6210 H   0  0  0  0  0  0  0  0  0  0  0  0
    9.5550   -4.9064    0.2233 H   0  0  0  0  0  0  0  0  0  0  0  0
    8.5044   -3.5857    0.0611 H   0  0  0  0  0  0  0  0  0  0  0  0
    8.1436   -4.1509   -2.2501 H   0  0  0  0  0  0  0  0  0  0  0  0
    7.6762   -1.2052   -1.5665 H   0  0  0  0  0  0  0  0  0  0  0  0
    5.2525   -1.9896   -1.8846 H   0  0  0  0  0  0  0  0  0  0  0  0
    4.3236   -4.2795   -2.9439 H   0  0  0  0  0  0  0  0  0  0  0  0
    2.8300   -5.2755   -4.1869 H   0  0  0  0  0  0  0  0  0  0  0  0
    3.0517   -4.3133   -5.6019 H   0  0  0  0  0  0  0  0  0  0  0  0
    4.2217   -6.1172   -6.5485 H   0  0  0  0  0  0  0  0  0  0  0  0
    3.7783   -7.0679   -5.1419 H   0  0  0  0  0  0  0  0  0  0  0  0
    5.6907   -6.3234   -3.9558 H   0  0  0  0  0  0  0  0  0  0  0  0
    5.8660   -5.1972   -5.3907 H   0  0  0  0  0  0  0  0  0  0  0  0
    7.1119   -6.8657   -6.6515 H   0  0  0  0  0  0  0  0  0  0  0  0
    7.1319   -7.9027   -5.1810 H   0  0  0  0  0  0  0  0  0  0  0  0
    8.0130   -6.1526   -3.8475 H   0  0  0  0  0  0  0  0  0  0  0  0
    7.6104   -5.1777   -5.4122 H   0  0  0  0  0  0  0  0  0  0  0  0
    9.8075   -5.3483   -6.0675 H   0  0  0  0  0  0  0  0  0  0  0  0
    9.9793   -5.5382   -4.3066 H   0  0  0  0  0  0  0  0  0  0  0  0
    8.0008   -1.7670   -4.6889 H   0  0  0  0  0  0  0  0  0  0  0  0
   10.1105   -2.0141   -3.8628 H   0  0  0  0  0  0  0  0  0  0  0  0
   11.8577   -5.9260   -4.9373 H   0  0  0  0  0  0  0  0  0  0  0  0
   15.0469   -5.9746   -7.3012 H   0  0  0  0  0  0  0  0  0  0  0  0
   15.1080   -3.9252   -4.9943 H   0  0  0  0  0  0  0  0  0  0  0  0
   16.7748   -6.4615   -5.5330 H   0  0  0  0  0  0  0  0  0  0  0  0
   16.8317   -6.8177   -3.3686 H   0  0  0  0  0  0  0  0  0  0  0  0
   14.6340   -7.1474   -2.6634 H   0  0  0  0  0  0  0  0  0  0  0  0
   14.2249   -4.0568   -2.7323 H   0  0  0  0  0  0  0  0  0  0  0  0
   12.0680   -6.1306   -1.9877 H   0  0  0  0  0  0  0  0  0  0  0  0
  1  2  1  0  0  0  0
  1 31  1  0  0  0  0
  1 32  1  0  0  0  0
  1 33  1  0  0  0  0
  2  3  1  0  0  0  0
  2 30  2  0  0  0  0
  3  4  2  0  0  0  0
  3 34  1  0  0  0  0
  4  5  1  0  0  0  0
  4 35  1  0  0  0  0
  5  6  2  0  0  0  0
  5 36  1  0  0  0  0
  6  7  1  0  0  0  0
  6 14  1  0  0  0  0
  7  8  1  0  0  0  0
  7 37  1  0  0  0  0
  8  9  1  0  0  0  0
  8 38  1  0  0  0  0
  8 39  1  0  0  0  0
  9 10  1  0  0  0  0
  9 40  1  0  0  0  0
  9 41  1  0  0  0  0
 10 11  1  0  0  0  0
 10 42  1  0  0  0  0
 10 43  1  0  0  0  0
 11 12  1  0  0  0  0
 11 44  1  0  0  0  0
 11 45  1  0  0  0  0
 12 13  1  0  0  0  0
 12 46  1  0  0  0  0
 12 47  1  0  0  0  0
 13 17  1  0  0  0  0
 13 48  1  0  0  0  0
 13 49  1  0  0  0  0
 14 15  2  0  0  0  0
 14 16  1  0  0  0  0
 16 17  2  0  0  0  0
 16 50  1  0  0  0  0
 17 18  1  0  0  0  0
 18 19  2  0  0  0  0
 18 51  1  0  0  0  0
 19 20  1  0  0  0  0
 19 30  1  0  0  0  0
 20 21  2  3  0  0  0
 21 22  1  0  0  0  0
 21 52  1  0  0  0  0
 22 23  2  3  0  0  0
 23 24  1  0  0  0  0
 23 53  1  0  0  0  0
 24 25  2  3  0  0  0
 24 54  1  0  0  0  0
 25 26  1  0  0  0  0
 25 55  1  0  0  0  0
 26 27  2  3  0  0  0
 26 56  1  0  0  0  0
 27 28  1  0  0  0  0
 27 57  1  0  0  0  0
 28 29  2  3  0  0  0
 28 58  1  0  0  0  0
 29 30  1  0  0  0  0
 29 59  1  0  0  0  0
M  END
$$$$
