
 OpenBabel04232216513D

137137  0  0  1  0  0  0  0  0999 V2000
   29.9293  -87.1746  -24.4318 C   0  0  0  0  0  0  0  0  0  0  0  0
   27.1193  -89.7907  -23.4998 C   0  0  0  0  0  0  0  0  0  0  0  0
   23.9697  -92.6700  -22.5198 C   0  0  3  0  0  0  0  0  0  0  0  0
   27.1589  -89.4101  -23.1191 C   0  0  0  0  0  0  0  0  0  0  0  0
   29.5590  -86.8298  -23.3012 C   0  0  0  0  0  0  0  0  0  0  0  0
   32.2704  -84.1264  -23.8011 C   0  0  0  0  0  0  0  0  0  0  0  0
   34.5304  -81.9407  -24.0607 C   0  0  0  0  0  0  0  0  0  0  0  0
   37.1954  -80.4087  -24.2182 C   0  0  0  0  0  0  0  0  0  0  0  0
   36.6073  -80.2405  -23.5810 C   0  0  0  0  0  0  0  0  0  0  0  0
   36.5477  -81.6223  -24.7186 C   0  0  0  0  0  0  0  0  0  0  0  0
   34.7078  -81.3134  -25.4225 C   0  0  0  0  0  0  0  0  0  0  0  0
   35.3838  -83.0095  -23.9028 C   0  0  0  0  0  0  0  0  0  0  0  0
   34.2232  -83.4847  -23.1645 C   0  0  0  0  0  0  0  0  0  0  0  0
   33.6884  -85.0942  -22.8844 C   0  0  0  0  0  0  0  0  0  0  0  0
   32.0650  -85.3378  -22.4115 C   0  0  0  0  0  0  0  0  0  0  0  0
   32.0969  -86.4611  -23.0226 C   0  0  0  0  0  0  0  0  0  0  0  0
   30.4953  -86.1431  -22.1262 C   0  0  0  0  0  0  0  0  0  0  0  0
   29.4545  -87.9217  -22.1461 C   0  0  0  0  0  0  0  0  0  0  0  0
   27.8641  -88.4716  -21.5427 C   0  0  0  0  0  0  0  0  0  0  0  0
   27.9887  -90.0368  -21.7946 C   0  0  0  0  0  0  0  0  0  0  0  0
   26.4504  -89.8267  -21.5460 C   0  0  0  0  0  0  0  0  0  0  0  0
   26.6120  -91.2977  -21.8626 C   0  0  0  0  0  0  0  0  0  0  0  0
   25.2297  -91.4007  -21.3400 C   0  0  0  0  0  0  0  0  0  0  0  0
   24.9361  -93.2346  -21.4150 C   0  0  0  0  0  0  0  0  0  0  0  0
   23.4625  -93.2884  -21.3778 C   0  0  0  0  0  0  0  0  0  0  0  0
   23.2737  -94.5362  -21.2013 C   0  0  0  0  0  0  0  0  0  0  0  0
   21.8621  -94.8709  -20.6861 C   0  0  0  0  0  0  0  0  0  0  0  0
   21.6843  -96.3952  -20.1694 C   0  0  0  0  0  0  0  0  0  0  0  0
   20.2760  -96.6942  -19.3639 C   0  0  0  0  0  0  0  0  0  0  0  0
   19.6589  -98.1781  -20.4211 C   0  0  0  0  0  0  0  0  0  0  0  0
   18.4919  -98.3536  -20.1613 C   0  0  0  0  0  0  0  0  0  0  0  0
   18.4877  -99.8216  -19.7905 C   0  0  0  0  0  0  0  0  0  0  0  0
   17.1037 -100.0032  -19.0038 C   0  0  0  0  0  0  0  0  0  0  0  0
   16.3466 -101.5890  -19.1879 C   0  0  0  0  0  0  0  0  0  0  0  0
   15.1362 -101.3436  -18.1604 C   0  0  0  0  0  0  0  0  0  0  0  0
   15.1482 -103.0357  -18.9943 C   0  0  0  0  0  0  0  0  0  0  0  0
   13.7311 -103.4199  -18.1424 C   0  0  0  0  0  0  0  0  0  0  0  0
   12.7636 -104.2866  -16.8435 C   0  0  0  0  0  0  0  0  0  0  0  0
   11.4123 -105.4505  -16.9501 C   0  0  0  0  0  0  0  0  0  0  0  0
   11.5570 -106.9420  -17.8447 C   0  0  0  0  0  0  0  0  0  0  0  0
   10.3021 -107.1015  -17.2333 C   0  0  0  0  0  0  0  0  0  0  0  0
    9.7966 -108.9962  -17.6716 C   0  0  0  0  0  0  0  0  0  0  0  0
    9.6005 -110.5814  -17.6463 C   0  0  0  0  0  0  0  0  0  0  0  0
    8.4205 -110.6270  -16.7617 C   0  0  0  0  0  0  0  0  0  0  0  0
    6.9478 -110.1730  -16.2579 C   0  0  0  0  0  0  0  0  0  0  0  0
    6.7634 -111.5791  -16.2321 C   0  0  0  0  0  0  0  0  0  0  0  0
    5.3099 -112.0755  -15.8596 C   0  0  0  0  0  0  0  0  0  0  0  0
    5.2285 -113.8915  -15.5501 C   0  0  0  0  0  0  0  0  0  0  0  0
    3.5865 -114.3344  -15.1550 C   0  0  0  0  0  0  0  0  0  0  0  0
    3.1879 -115.6793  -15.5010 C   0  0  0  0  0  0  0  0  0  0  0  0
    1.6857 -115.6213  -14.7217 C   0  0  0  0  0  0  0  0  0  0  0  0
    1.5798 -117.5425  -15.0470 C   0  0  0  0  0  0  0  0  0  0  0  0
    0.4571 -118.2506  -14.7266 C   0  0  0  0  0  0  0  0  0  0  0  0
    0.3786 -120.3410  -14.9401 C   0  0  0  0  0  0  0  0  0  0  0  0
   -0.9135 -120.7568  -14.9996 C   0  0  0  0  0  0  0  0  0  0  0  0
   -1.5963 -120.2652  -13.7768 C   0  0  0  0  0  0  0  0  0  0  0  0
   -3.4129 -119.5273  -13.4252 C   0  0  0  0  0  0  0  0  0  0  0  0
   -4.7477 -120.8188  -14.2041 C   0  0  0  0  0  0  0  0  0  0  0  0
   -2.7099 -119.3346  -14.8469 C   0  0  0  0  0  0  0  0  0  0  0  0
   -0.2587 -117.2852  -15.6397 C   0  0  0  0  0  0  0  0  0  0  0  0
    2.0506 -115.0247  -16.3740 C   0  0  0  0  0  0  0  0  0  0  0  0
    5.0392 -111.8833  -17.4363 C   0  0  0  0  0  0  0  0  0  0  0  0
    7.7867 -109.0490  -18.0665 C   0  0  0  0  0  0  0  0  0  0  0  0
   10.9099 -105.9236  -19.3504 C   0  0  0  0  0  0  0  0  0  0  0  0
   13.8502 -102.8735  -19.9467 C   0  0  0  0  0  0  0  0  0  0  0  0
   17.3434  -99.3211  -20.7336 C   0  0  0  0  0  0  0  0  0  0  0  0
   20.3505  -96.2916  -21.5126 C   0  0  0  0  0  0  0  0  0  0  0  0
   31.8627  -85.3212  -24.8521 H   0  0  0  0  0  0  0  0  0  0  0  0
   31.8526  -85.3061  -24.8317 H   0  0  0  0  0  0  0  0  0  0  0  0
   31.8195  -85.2786  -24.8598 H   0  0  0  0  0  0  0  0  0  0  0  0
   28.9554  -88.1983  -24.1523 H   0  0  0  0  0  0  0  0  0  0  0  0
   28.9216  -88.1718  -24.1836 H   0  0  0  0  0  0  0  0  0  0  0  0
   25.6335  -91.0777  -22.9721 H   0  0  0  0  0  0  0  0  0  0  0  0
   28.6204  -87.5958  -23.3362 H   0  0  0  0  0  0  0  0  0  0  0  0
   31.3103  -85.1914  -23.8048 H   0  0  0  0  0  0  0  0  0  0  0  0
   34.1820  -82.4190  -24.2488 H   0  0  0  0  0  0  0  0  0  0  0  0
   36.3277  -80.0848  -24.6873 H   0  0  0  0  0  0  0  0  0  0  0  0
   39.2962  -79.6173  -24.1992 H   0  0  0  0  0  0  0  0  0  0  0  0
   36.2200  -78.8331  -24.6546 H   0  0  0  0  0  0  0  0  0  0  0  0
   37.7036  -81.1750  -25.1511 H   0  0  0  0  0  0  0  0  0  0  0  0
   34.7125  -79.9812  -24.6469 H   0  0  0  0  0  0  0  0  0  0  0  0
   34.4655  -82.6263  -23.0605 H   0  0  0  0  0  0  0  0  0  0  0  0
   33.1823  -82.1122  -23.7901 H   0  0  0  0  0  0  0  0  0  0  0  0
   33.3525  -84.6428  -23.5198 H   0  0  0  0  0  0  0  0  0  0  0  0
   31.2570  -84.1144  -23.1771 H   0  0  0  0  0  0  0  0  0  0  0  0
   31.7991  -86.8013  -23.8640 H   0  0  0  0  0  0  0  0  0  0  0  0
   29.6280  -85.2307  -23.1885 H   0  0  0  0  0  0  0  0  0  0  0  0
   30.2935  -88.2473  -23.6015 H   0  0  0  0  0  0  0  0  0  0  0  0
   27.8413  -87.3748  -22.5551 H   0  0  0  0  0  0  0  0  0  0  0  0
   28.9084  -90.0738  -22.8177 H   0  0  0  0  0  0  0  0  0  0  0  0
   26.0051  -88.8532  -22.4845 H   0  0  0  0  0  0  0  0  0  0  0  0
   26.2639  -92.1670  -22.1587 H   0  0  0  0  0  0  0  0  0  0  0  0
   24.5538  -90.6136  -21.9645 H   0  0  0  0  0  0  0  0  0  0  0  0
   24.8603  -93.2345  -20.6694 H   0  0  0  0  0  0  0  0  0  0  0  0
   22.8453  -92.3728  -21.5556 H   0  0  0  0  0  0  0  0  0  0  0  0
   23.8850  -95.2732  -20.8977 H   0  0  0  0  0  0  0  0  0  0  0  0
   21.1332  -94.1257  -21.1085 H   0  0  0  0  0  0  0  0  0  0  0  0
   21.2597  -97.1778  -20.8724 H   0  0  0  0  0  0  0  0  0  0  0  0
   19.4503  -95.9609  -20.4233 H   0  0  0  0  0  0  0  0  0  0  0  0
   18.2655  -98.2223  -21.2196 H   0  0  0  0  0  0  0  0  0  0  0  0
   17.6867  -97.5970  -20.1881 H   0  0  0  0  0  0  0  0  0  0  0  0
   18.2921 -100.3706  -19.1105 H   0  0  0  0  0  0  0  0  0  0  0  0
   15.9614  -99.3035  -19.6748 H   0  0  0  0  0  0  0  0  0  0  0  0
   17.0604 -102.3401  -19.5105 H   0  0  0  0  0  0  0  0  0  0  0  0
   14.1696 -100.9339  -19.1735 H   0  0  0  0  0  0  0  0  0  0  0  0
   14.8709 -103.4814  -20.1816 H   0  0  0  0  0  0  0  0  0  0  0  0
   12.5166 -102.8070  -18.8316 H   0  0  0  0  0  0  0  0  0  0  0  0
   14.2656 -104.4465  -17.4194 H   0  0  0  0  0  0  0  0  0  0  0  0
   10.8505 -104.6795  -18.2288 H   0  0  0  0  0  0  0  0  0  0  0  0
   11.3275 -107.4222  -18.8453 H   0  0  0  0  0  0  0  0  0  0  0  0
    9.1021 -106.3656  -17.9563 H   0  0  0  0  0  0  0  0  0  0  0  0
    9.2284 -109.2723  -18.5834 H   0  0  0  0  0  0  0  0  0  0  0  0
    8.6356 -109.5051  -17.2587 H   0  0  0  0  0  0  0  0  0  0  0  0
    9.2901 -110.8054  -16.3112 H   0  0  0  0  0  0  0  0  0  0  0  0
    5.6707 -109.8287  -17.0828 H   0  0  0  0  0  0  0  0  0  0  0  0
    6.6612 -112.7854  -15.8885 H   0  0  0  0  0  0  0  0  0  0  0  0
    3.9565 -111.5437  -16.6257 H   0  0  0  0  0  0  0  0  0  0  0  0
    5.9727 -113.1618  -14.7497 H   0  0  0  0  0  0  0  0  0  0  0  0
    2.3695 -113.4633  -15.9318 H   0  0  0  0  0  0  0  0  0  0  0  0
    3.2263 -116.3233  -16.3270 H   0  0  0  0  0  0  0  0  0  0  0  0
    0.4361 -115.0374  -15.7705 H   0  0  0  0  0  0  0  0  0  0  0  0
    2.3290 -118.0741  -14.8334 H   0  0  0  0  0  0  0  0  0  0  0  0
   -0.9335 -116.7700  -15.0411 H   0  0  0  0  0  0  0  0  0  0  0  0
   -0.1675 -119.8285  -14.4413 H   0  0  0  0  0  0  0  0  0  0  0  0
   -1.0434 -119.5691  -15.3476 H   0  0  0  0  0  0  0  0  0  0  0  0
   -0.6350 -121.0753  -13.5369 H   0  0  0  0  0  0  0  0  0  0  0  0
   -4.5799 -120.1435  -14.5513 H   0  0  0  0  0  0  0  0  0  0  0  0
   -4.1163 -122.4065  -13.6738 H   0  0  0  0  0  0  0  0  0  0  0  0
   -4.9897 -121.1470  -14.2240 H   0  0  0  0  0  0  0  0  0  0  0  0
   -2.0058 -119.0870  -14.7536 H   0  0  0  0  0  0  0  0  0  0  0  0
    0.3044 -116.8550  -15.7913 H   0  0  0  0  0  0  0  0  0  0  0  0
    3.2863 -113.7908  -16.8141 H   0  0  0  0  0  0  0  0  0  0  0  0
    6.0367 -110.9877  -17.6590 H   0  0  0  0  0  0  0  0  0  0  0  0
    9.3395 -107.5394  -18.5657 H   0  0  0  0  0  0  0  0  0  0  0  0
   12.3424 -104.4459  -19.4938 H   0  0  0  0  0  0  0  0  0  0  0  0
   15.8392 -100.5927  -20.2784 H   0  0  0  0  0  0  0  0  0  0  0  0
   21.8778  -95.2567  -22.0994 H   0  0  0  0  0  0  0  0  0  0  0  0
  1  2  1  0  0  0  0
  1 68  1  0  0  0  0
  1 69  1  0  0  0  0
  1 70  1  0  0  0  0
  2  3  1  0  0  0  0
  2 71  1  0  0  0  0
  2 72  1  0  0  0  0
  3  4  1  0  0  0  0
  3 67  1  0  0  0  0
  3 73  1  0  0  0  0
  4  5  2  3  0  0  0
  4 74  1  0  0  0  0
  5  6  1  0  0  0  0
  5 75  1  0  0  0  0
  6  7  2  3  0  0  0
  6 76  1  0  0  0  0
  7  8  1  0  0  0  0
  7 77  1  0  0  0  0
  8  9  2  3  0  0  0
  8 78  1  0  0  0  0
  9 10  1  0  0  0  0
  9 79  1  0  0  0  0
 10 11  2  3  0  0  0
 10 80  1  0  0  0  0
 11 12  1  0  0  0  0
 11 81  1  0  0  0  0
 12 13  2  3  0  0  0
 12 82  1  0  0  0  0
 13 14  1  0  0  0  0
 13 83  1  0  0  0  0
 14 15  2  3  0  0  0
 14 84  1  0  0  0  0
 15 16  1  0  0  0  0
 15 85  1  0  0  0  0
 16 17  2  3  0  0  0
 16 86  1  0  0  0  0
 17 18  1  0  0  0  0
 17 87  1  0  0  0  0
 18 19  2  3  0  0  0
 18 88  1  0  0  0  0
 19 20  1  0  0  0  0
 19 89  1  0  0  0  0
 20 21  2  3  0  0  0
 20 90  1  0  0  0  0
 21 22  1  0  0  0  0
 21 91  1  0  0  0  0
 22 23  2  3  0  0  0
 22 92  1  0  0  0  0
 23 24  1  0  0  0  0
 23 93  1  0  0  0  0
 24 25  2  3  0  0  0
 24 94  1  0  0  0  0
 25 26  1  0  0  0  0
 25 95  1  0  0  0  0
 26 27  2  3  0  0  0
 26 96  1  0  0  0  0
 27 28  1  0  0  0  0
 27 97  1  0  0  0  0
 28 29  2  3  0  0  0
 28 98  1  0  0  0  0
 29 30  1  0  0  0  0
 29 99  1  0  0  0  0
 30 31  2  3  0  0  0
 30100  1  0  0  0  0
 31 32  1  0  0  0  0
 31101  1  0  0  0  0
 32 33  2  3  0  0  0
 32102  1  0  0  0  0
 33 34  1  0  0  0  0
 33103  1  0  0  0  0
 34 35  2  3  0  0  0
 34104  1  0  0  0  0
 35 36  1  0  0  0  0
 35105  1  0  0  0  0
 36 37  2  3  0  0  0
 36106  1  0  0  0  0
 37 38  1  0  0  0  0
 37107  1  0  0  0  0
 38 39  2  3  0  0  0
 38108  1  0  0  0  0
 39 40  1  0  0  0  0
 39109  1  0  0  0  0
 40 41  2  3  0  0  0
 40110  1  0  0  0  0
 41 42  1  0  0  0  0
 41111  1  0  0  0  0
 42 43  2  3  0  0  0
 42112  1  0  0  0  0
 43 44  1  0  0  0  0
 43113  1  0  0  0  0
 44 45  2  3  0  0  0
 44114  1  0  0  0  0
 45 46  1  0  0  0  0
 45115  1  0  0  0  0
 46 47  2  3  0  0  0
 46116  1  0  0  0  0
 47 48  1  0  0  0  0
 47117  1  0  0  0  0
 48 49  2  3  0  0  0
 48118  1  0  0  0  0
 49 50  1  0  0  0  0
 49119  1  0  0  0  0
 50 51  2  3  0  0  0
 50120  1  0  0  0  0
 51 52  1  0  0  0  0
 51121  1  0  0  0  0
 52 53  2  3  0  0  0
 52122  1  0  0  0  0
 53 54  1  0  0  0  0
 53123  1  0  0  0  0
 54 55  2  3  0  0  0
 54124  1  0  0  0  0
 55 56  1  0  0  0  0
 55125  1  0  0  0  0
 56 57  2  3  0  0  0
 56126  1  0  0  0  0
 57 58  1  0  0  0  0
 57127  1  0  0  0  0
 58 59  2  3  0  0  0
 58128  1  0  0  0  0
 59 60  1  0  0  0  0
 59129  1  0  0  0  0
 60 61  2  3  0  0  0
 60130  1  0  0  0  0
 61 62  1  0  0  0  0
 61131  1  0  0  0  0
 62 63  2  3  0  0  0
 62132  1  0  0  0  0
 63 64  1  0  0  0  0
 63133  1  0  0  0  0
 64 65  2  3  0  0  0
 64134  1  0  0  0  0
 65 66  1  0  0  0  0
 65135  1  0  0  0  0
 66 67  2  3  0  0  0
 66136  1  0  0  0  0
 67137  1  0  0  0  0
M  END
$$$$
