
 OpenBabel04232216463D

 58 59  0  0  1  0  0  0  0  0999 V2000
    0.5878    0.1105    0.1336 C   0  0  0  0  0  0  0  0  0  0  0  0
    2.0018    0.4127   -0.0411 C   0  0  3  0  0  3  0  0  0  0  0  0
    2.9785    1.3198    0.5143 C   0  0  0  0  0  0  0  0  0  0  0  0
    3.9817    0.9905   -0.6133 C   0  0  0  0  0  0  0  0  0  0  0  0
    4.3825    2.2078   -1.4686 C   0  0  0  0  0  0  0  0  0  0  0  0
    3.2792    3.2234   -1.7814 C   0  0  0  0  0  0  0  0  0  0  0  0
    3.6582    4.1818   -2.9254 C   0  0  0  0  0  0  0  0  0  0  0  0
    4.0484    3.4562   -4.2241 C   0  0  0  0  0  0  0  0  0  0  0  0
    5.4984    3.6467   -4.7665 C   0  0  3  0  0  0  0  0  0  0  0  0
    6.6283    3.6355   -3.7092 C   0  0  0  0  0  0  0  0  0  0  0  0
    8.0429    4.0075   -4.1948 C   0  0  0  0  0  0  0  0  0  0  0  0
    8.1184    5.3881   -4.7714 C   0  0  0  0  0  0  0  0  0  0  0  0
    8.4699    5.6232   -5.9335 O   0  0  0  0  0  0  0  0  0  0  0  0
    5.2653    0.2041   -0.2010 C   0  0  0  0  0  0  0  0  0  0  0  0
    5.7069   -0.8181   -1.2747 C   0  0  0  0  0  0  0  0  0  0  0  0
    6.8197   -0.4051   -2.2397 C   0  0  0  0  0  0  0  0  0  0  0  0
    6.8778   -1.4039   -3.4197 C   0  0  0  0  0  0  0  0  0  0  0  0
    7.1091   -0.7547   -4.7853 C   0  0  0  0  0  0  0  0  0  0  0  0
    5.9851    0.2168   -5.2161 C   0  0  0  0  0  0  0  0  0  0  0  0
    6.6005    1.4607   -5.8536 C   0  0  0  0  0  0  0  0  0  0  0  0
    5.6979    2.6941   -5.9894 C   0  0  0  0  0  0  0  0  0  0  0  0
    2.8525    0.0199   -1.1343 C   0  0  0  0  0  0  0  0  0  0  0  0
    0.0982    0.8469    0.7792 H   0  0  0  0  0  0  0  0  0  0  0  0
    0.4601   -0.8823    0.5792 H   0  0  0  0  0  0  0  0  0  0  0  0
    0.0759    0.1095   -0.8313 H   0  0  0  0  0  0  0  0  0  0  0  0
    2.9217    2.1003    1.2676 H   0  0  0  0  0  0  0  0  0  0  0  0
    4.7987    1.8160   -2.3919 H   0  0  0  0  0  0  0  0  0  0  0  0
    5.1932    2.7595   -0.9664 H   0  0  0  0  0  0  0  0  0  0  0  0
    3.0658    3.8221   -0.8876 H   0  0  0  0  0  0  0  0  0  0  0  0
    2.3437    2.7166   -2.0438 H   0  0  0  0  0  0  0  0  0  0  0  0
    4.4227    4.8909   -2.5946 H   0  0  0  0  0  0  0  0  0  0  0  0
    2.7714    4.8008   -3.1293 H   0  0  0  0  0  0  0  0  0  0  0  0
    3.3733    3.8318   -5.0071 H   0  0  0  0  0  0  0  0  0  0  0  0
    3.8079    2.3896   -4.1527 H   0  0  0  0  0  0  0  0  0  0  0  0
    5.4928    4.6670   -5.1769 H   0  0  0  0  0  0  0  0  0  0  0  0
    6.6771    2.6514   -3.2352 H   0  0  0  0  0  0  0  0  0  0  0  0
    6.3861    4.3405   -2.9068 H   0  0  0  0  0  0  0  0  0  0  0  0
    8.4470    3.3110   -4.9247 H   0  0  0  0  0  0  0  0  0  0  0  0
    8.7226    3.9700   -3.3322 H   0  0  0  0  0  0  0  0  0  0  0  0
    7.8367    6.2121   -4.1002 H   0  0  0  0  0  0  0  0  0  0  0  0
    5.0541   -0.3546    0.7196 H   0  0  0  0  0  0  0  0  0  0  0  0
    6.0857    0.8911    0.0409 H   0  0  0  0  0  0  0  0  0  0  0  0
    4.8578   -1.1068   -1.8948 H   0  0  0  0  0  0  0  0  0  0  0  0
    6.0339   -1.7312   -0.7621 H   0  0  0  0  0  0  0  0  0  0  0  0
    7.7841   -0.3991   -1.7169 H   0  0  0  0  0  0  0  0  0  0  0  0
    6.6608    0.6116   -2.5951 H   0  0  0  0  0  0  0  0  0  0  0  0
    5.9592   -1.9990   -3.4856 H   0  0  0  0  0  0  0  0  0  0  0  0
    7.6871   -2.1195   -3.2284 H   0  0  0  0  0  0  0  0  0  0  0  0
    7.1889   -1.5486   -5.5403 H   0  0  0  0  0  0  0  0  0  0  0  0
    8.0879   -0.2617   -4.7665 H   0  0  0  0  0  0  0  0  0  0  0  0
    5.3422    0.4867   -4.3762 H   0  0  0  0  0  0  0  0  0  0  0  0
    5.3409   -0.2833   -5.9507 H   0  0  0  0  0  0  0  0  0  0  0  0
    6.9463    1.1851   -6.8584 H   0  0  0  0  0  0  0  0  0  0  0  0
    7.4994    1.7073   -5.3017 H   0  0  0  0  0  0  0  0  0  0  0  0
    4.7234    2.3766   -6.3835 H   0  0  0  0  0  0  0  0  0  0  0  0
    6.1374    3.3123   -6.7832 H   0  0  0  0  0  0  0  0  0  0  0  0
    3.0498   -1.0578   -1.0687 H   0  0  0  0  0  0  0  0  0  0  0  0
    2.4629    0.2349   -2.1319 H   0  0  0  0  0  0  0  0  0  0  0  0
  1  2  1  0  0  0  0
  1 23  1  0  0  0  0
  1 24  1  0  0  0  0
  1 25  1  0  0  0  0
  2  3  1  0  0  0  0
  2 22  1  0  0  0  0
  3  4  2  0  0  0  0
  3 26  1  0  0  0  0
  4  5  1  0  0  0  0
  4 14  1  0  0  0  0
  4 22  1  0  0  0  0
  5  6  1  0  0  0  0
  5 27  1  0  0  0  0
  5 28  1  0  0  0  0
  6  7  1  0  0  0  0
  6 29  1  0  0  0  0
  6 30  1  0  0  0  0
  7  8  1  0  0  0  0
  7 31  1  0  0  0  0
  7 32  1  0  0  0  0
  8  9  1  0  0  0  0
  8 33  1  0  0  0  0
  8 34  1  0  0  0  0
  9 10  1  0  0  0  0
  9 21  1  0  0  0  0
  9 35  1  0  0  0  0
 10 11  1  0  0  0  0
 10 36  1  0  0  0  0
 10 37  1  0  0  0  0
 11 12  1  0  0  0  0
 11 38  1  0  0  0  0
 11 39  1  0  0  0  0
 12 13  2  0  0  0  0
 12 40  1  0  0  0  0
 14 15  1  0  0  0  0
 14 41  1  0  0  0  0
 14 42  1  0  0  0  0
 15 16  1  0  0  0  0
 15 43  1  0  0  0  0
 15 44  1  0  0  0  0
 16 17  1  0  0  0  0
 16 45  1  0  0  0  0
 16 46  1  0  0  0  0
 17 18  1  0  0  0  0
 17 47  1  0  0  0  0
 17 48  1  0  0  0  0
 18 19  1  0  0  0  0
 18 49  1  0  0  0  0
 18 50  1  0  0  0  0
 19 20  1  0  0  0  0
 19 51  1  0  0  0  0
 19 52  1  0  0  0  0
 20 21  1  0  0  0  0
 20 53  1  0  0  0  0
 20 54  1  0  0  0  0
 21 55  1  0  0  0  0
 21 56  1  0  0  0  0
 22 57  1  0  0  0  0
 22 58  1  0  0  0  0
M  END
$$$$
