
 OpenBabel04232216393D

 42 44  0  0  0  0  0  0  0  0999 V2000
    6.6022   -1.0736   -1.2266 C   0  0  0  0  0  0  0  0  0  0  0  0
    6.6454    0.0318   -2.0070 C   0  0  0  0  0  0  0  0  0  0  0  0
    5.2765    0.7220   -2.2045 N   0  0  0  0  0  0  0  0  0  0  0  0
    5.4187    2.0417   -2.1492 C   0  0  0  0  0  0  0  0  0  0  0  0
    5.7283    1.9347   -3.4428 N   0  0  0  0  0  0  0  0  0  0  0  0
    4.7423    1.1149   -3.3829 C   0  0  0  0  0  0  0  0  0  0  0  0
    3.5407    1.6838   -3.8357 C   0  0  0  0  0  0  0  0  0  0  0  0
    3.6579    3.1742   -4.3605 C   0  0  0  0  0  0  0  0  0  0  0  0
    4.8536    3.6810   -4.8063 C   0  0  0  0  0  0  0  0  0  0  0  0
    5.7564    4.9608   -3.8861 S   0  0  0  0  0  0  0  0  0  0  0  0
    5.5951    3.0746   -1.2769 C   0  0  0  0  0  0  0  0  0  0  0  0
    6.9465    3.6290   -1.5902 C   0  0  0  0  0  0  0  0  0  0  0  0
    7.7238    2.9037   -0.4470 C   0  0  0  0  0  0  0  0  0  0  0  0
    7.1434    3.9811   -2.9207 C   0  0  0  0  0  0  0  0  0  0  0  0
    8.3174    3.6122   -3.5410 N   0  0  0  0  0  0  0  0  0  0  0  0
    8.3773    3.5804   -4.7876 N   0  0  0  0  0  0  0  0  0  0  0  0
    9.4637    4.3095   -5.1890 C   0  0  0  0  0  0  0  0  0  0  0  0
   10.5502    3.8958   -5.8639 C   0  0  0  0  0  0  0  0  0  0  0  0
   10.9646    2.5348   -5.5666 C   0  0  0  0  0  0  0  0  0  0  0  0
   11.7877    2.4926   -4.5101 C   0  0  0  0  0  0  0  0  0  0  0  0
   11.7156    1.5161   -3.4610 C   0  0  0  0  0  0  0  0  0  0  0  0
   10.7046    0.9451   -2.7605 C   0  0  0  0  0  0  0  0  0  0  0  0
    9.1877    1.0422   -2.5378 C   0  0  0  0  0  0  0  0  0  0  0  0
    8.0827    0.2713   -2.7888 C   0  0  0  0  0  0  0  0  0  0  0  0
    5.6562   -1.6278   -1.3213 H   0  0  0  0  0  0  0  0  0  0  0  0
    6.5135   -0.8643   -0.1481 H   0  0  0  0  0  0  0  0  0  0  0  0
    6.6120    1.5846   -3.6877 H   0  0  0  0  0  0  0  0  0  0  0  0
    2.5736    1.4491   -3.3767 H   0  0  0  0  0  0  0  0  0  0  0  0
    2.9586    3.8409   -3.8576 H   0  0  0  0  0  0  0  0  0  0  0  0
    5.5250    3.0112   -5.3490 H   0  0  0  0  0  0  0  0  0  0  0  0
    4.9622    3.9705   -1.3881 H   0  0  0  0  0  0  0  0  0  0  0  0
    7.0375    2.5844    0.3584 H   0  0  0  0  0  0  0  0  0  0  0  0
    8.4748    3.5254    0.0294 H   0  0  0  0  0  0  0  0  0  0  0  0
    8.1262    1.9103   -0.6225 H   0  0  0  0  0  0  0  0  0  0  0  0
    9.5976    5.2202   -4.6082 H   0  0  0  0  0  0  0  0  0  0  0  0
   11.3430    4.6369   -5.9778 H   0  0  0  0  0  0  0  0  0  0  0  0
   10.2917    1.7224   -5.8001 H   0  0  0  0  0  0  0  0  0  0  0  0
   12.4705    3.3260   -4.3311 H   0  0  0  0  0  0  0  0  0  0  0  0
   12.7198    1.4323   -3.0014 H   0  0  0  0  0  0  0  0  0  0  0  0
   11.1127    0.5800   -1.8057 H   0  0  0  0  0  0  0  0  0  0  0  0
    9.2190    1.9096   -1.9132 H   0  0  0  0  0  0  0  0  0  0  0  0
    8.1320   -0.4074   -3.6286 H   0  0  0  0  0  0  0  0  0  0  0  0
  1  2  2  0  0  0  0
  1 25  1  0  0  0  0
  1 26  1  0  0  0  0
  2  3  1  0  0  0  0
  2 24  1  0  0  0  0
  3  4  1  0  0  0  0
  3  6  1  0  0  0  0
  4  5  1  0  0  0  0
  4 11  2  3  0  0  0
  5  6  1  0  0  0  0
  5 27  1  0  0  0  0
  6  7  2  3  0  0  0
  7  8  1  0  0  0  0
  7 28  1  0  0  0  0
  8  9  2  3  0  0  0
  8 29  1  0  0  0  0
  9 10  1  0  0  0  0
  9 30  1  0  0  0  0
 10 14  1  0  0  0  0
 11 12  1  0  0  0  0
 11 31  1  0  0  0  0
 12 13  1  0  0  0  0
 12 14  2  3  0  0  0
 13 32  1  0  0  0  0
 13 33  1  0  0  0  0
 13 34  1  0  0  0  0
 14 15  1  0  0  0  0
 15 16  2  3  0  0  0
 16 17  1  0  0  0  0
 17 18  2  3  0  0  0
 17 35  1  0  0  0  0
 18 19  1  0  0  0  0
 18 36  1  0  0  0  0
 19 20  2  3  0  0  0
 19 37  1  0  0  0  0
 20 21  1  0  0  0  0
 20 38  1  0  0  0  0
 21 22  2  3  0  0  0
 21 39  1  0  0  0  0
 22 23  1  0  0  0  0
 22 40  1  0  0  0  0
 23 24  2  3  0  0  0
 23 41  1  0  0  0  0
 24 42  1  0  0  0  0
M  END
$$$$
