
 OpenBabel04232216593D

236235  0  0  0  0  0  0  0  0999 V2000
    2.8015   -0.3791    1.1032 O   0  0  0  0  0  0  0  0  0  0  0  0
    2.2802    0.0595    0.0932 C   0  0  0  0  0  0  0  0  0  0  0  0
    3.0544    0.5601   -1.1031 C   0  0  0  0  0  0  0  0  0  0  0  0
    4.5534    0.4499   -0.8599 C   0  0  0  0  0  0  0  0  0  0  0  0
    5.3341    0.9593   -2.0640 C   0  0  0  0  0  0  0  0  0  0  0  0
    6.8353    0.8516   -1.8269 C   0  0  0  0  0  0  0  0  0  0  0  0
    7.6080    1.3669   -3.0400 C   0  0  0  0  0  0  0  0  0  0  0  0
    9.1112    1.2619   -2.8041 C   0  0  0  0  0  0  0  0  0  0  0  0
    9.9140    1.7708   -4.0023 C   0  0  0  0  0  0  0  0  0  0  0  0
   11.6742    1.5875   -3.5788 S   0  0  0  0  0  0  0  0  0  0  0  0
   12.4669    2.2257   -5.0866 C   0  0  0  0  0  0  0  0  0  0  0  0
   13.9768    2.1289   -4.8711 C   0  0  0  0  0  0  0  0  0  0  0  0
   14.7532    2.6414   -6.0780 C   0  0  0  0  0  0  0  0  0  0  0  0
   16.2539    2.5291   -5.8310 C   0  0  0  0  0  0  0  0  0  0  0  0
   17.0283    3.0406   -7.0357 C   0  0  0  0  0  0  0  0  0  0  0  0
   18.5237    2.9303   -6.7885 C   0  0  0  0  0  0  0  0  0  0  0  0
   19.2900    3.4410   -7.9962 C   0  0  0  0  0  0  0  0  0  0  0  0
   20.7832    3.3288   -7.7495 C   0  0  0  0  0  0  0  0  0  0  0  0
   21.5471    3.8411   -8.9559 C   0  0  0  0  0  0  0  0  0  0  0  0
   23.0395    3.7306   -8.7080 C   0  0  0  0  0  0  0  0  0  0  0  0
   23.8023    4.2450   -9.9143 C   0  0  0  0  0  0  0  0  0  0  0  0
   25.2945    4.1361   -9.6648 C   0  0  0  0  0  0  0  0  0  0  0  0
   26.0571    4.6486  -10.8716 C   0  0  0  0  0  0  0  0  0  0  0  0
   27.5490    4.5413  -10.6210 C   0  0  0  0  0  0  0  0  0  0  0  0
   28.3115    5.0537  -11.8278 C   0  0  0  0  0  0  0  0  0  0  0  0
   29.8034    4.9447  -11.5782 C   0  0  0  0  0  0  0  0  0  0  0  0
   30.5659    5.4571  -12.7849 C   0  0  0  0  0  0  0  0  0  0  0  0
   32.0579    5.3481  -12.5352 C   0  0  0  0  0  0  0  0  0  0  0  0
   32.8203    5.8605  -13.7420 C   0  0  0  0  0  0  0  0  0  0  0  0
   34.3123    5.7514  -13.4923 C   0  0  0  0  0  0  0  0  0  0  0  0
   35.0747    6.2639  -14.6992 C   0  0  0  0  0  0  0  0  0  0  0  0
   36.5667    6.1549  -14.4495 C   0  0  0  0  0  0  0  0  0  0  0  0
   37.3292    6.6691  -15.6554 C   0  0  0  0  0  0  0  0  0  0  0  0
   38.8210    6.5601  -15.4059 C   0  0  0  0  0  0  0  0  0  0  0  0
   39.5836    7.0744  -16.6116 C   0  0  0  0  0  0  0  0  0  0  0  0
   41.0755    6.9653  -16.3622 C   0  0  0  0  0  0  0  0  0  0  0  0
   41.8380    7.4815  -17.5672 C   0  0  0  0  0  0  0  0  0  0  0  0
   43.3299    7.3706  -17.3185 C   0  0  0  0  0  0  0  0  0  0  0  0
   44.0925    7.8885  -18.5227 C   0  0  0  0  0  0  0  0  0  0  0  0
   45.5843    7.7795  -18.2732 C   0  0  0  0  0  0  0  0  0  0  0  0
   46.3469    8.2957  -19.4782 C   0  0  0  0  0  0  0  0  0  0  0  0
   47.8387    8.1885  -19.2279 C   0  0  0  0  0  0  0  0  0  0  0  0
   48.6013    8.7046  -20.4329 C   0  0  0  0  0  0  0  0  0  0  0  0
   50.0932    8.5974  -20.1826 C   0  0  0  0  0  0  0  0  0  0  0  0
   50.8557    9.1136  -21.3876 C   0  0  0  0  0  0  0  0  0  0  0  0
   52.3476    9.0063  -21.1373 C   0  0  0  0  0  0  0  0  0  0  0  0
   53.1101    9.5225  -22.3423 C   0  0  0  0  0  0  0  0  0  0  0  0
   54.6020    9.4135  -22.0928 C   0  0  0  0  0  0  0  0  0  0  0  0
   55.3645    9.9314  -23.2970 C   0  0  0  0  0  0  0  0  0  0  0  0
   56.8564    9.8242  -23.0468 C   0  0  0  0  0  0  0  0  0  0  0  0
   57.6189   10.3422  -24.2509 C   0  0  0  0  0  0  0  0  0  0  0  0
   59.1108   10.2332  -24.0014 C   0  0  0  0  0  0  0  0  0  0  0  0
   59.8733   10.7530  -25.2048 C   0  0  0  0  0  0  0  0  0  0  0  0
   61.3652   10.6458  -24.9546 C   0  0  0  0  0  0  0  0  0  0  0  0
   62.1277   11.1638  -26.1587 C   0  0  0  0  0  0  0  0  0  0  0  0
   63.6196   11.0548  -25.9093 C   0  0  0  0  0  0  0  0  0  0  0  0
   64.3821   11.5746  -27.1127 C   0  0  0  0  0  0  0  0  0  0  0  0
   65.8741   11.4655  -26.8632 C   0  0  0  0  0  0  0  0  0  0  0  0
   66.6366   11.9872  -28.0658 C   0  0  0  0  0  0  0  0  0  0  0  0
   68.1285   11.8782  -27.8163 C   0  0  0  0  0  0  0  0  0  0  0  0
   68.8910   12.3998  -29.0189 C   0  0  0  0  0  0  0  0  0  0  0  0
   70.3829   12.2908  -28.7693 C   0  0  0  0  0  0  0  0  0  0  0  0
   71.1454   12.8125  -29.9721 C   0  0  0  0  0  0  0  0  0  0  0  0
   72.6374   12.7034  -29.7224 C   0  0  0  0  0  0  0  0  0  0  0  0
   73.3998   13.2252  -30.9252 C   0  0  0  0  0  0  0  0  0  0  0  0
   74.8918   13.1161  -30.6755 C   0  0  0  0  0  0  0  0  0  0  0  0
   75.6542   13.6378  -31.8782 C   0  0  0  0  0  0  0  0  0  0  0  0
   77.1461   13.5287  -31.6286 C   0  0  0  0  0  0  0  0  0  0  0  0
   77.9087   14.0486  -32.8321 C   0  0  0  0  0  0  0  0  0  0  0  0
   79.4007   13.9394  -32.5823 C   0  0  0  0  0  0  0  0  0  0  0  0
   80.1632   14.4594  -33.7861 C   0  0  0  0  0  0  0  0  0  0  0  0
   81.6555   14.3504  -33.5368 C   0  0  0  0  0  0  0  0  0  0  0  0
   82.4184   14.8704  -34.7406 C   0  0  0  0  0  0  0  0  0  0  0  0
   83.9111   14.7616  -34.4915 C   0  0  0  0  0  0  0  0  0  0  0  0
   84.6750   15.2834  -35.6945 C   0  0  0  0  0  0  0  0  0  0  0  0
   86.1690   15.1754  -35.4472 C   0  0  0  0  0  0  0  0  0  0  0  0
   86.9353   15.6975  -36.6510 C   0  0  0  0  0  0  0  0  0  0  0  0
   88.4316   15.5922  -36.4051 C   0  0  0  0  0  0  0  0  0  0  0  0
   89.2092   16.1110  -37.6060 C   0  0  0  0  0  0  0  0  0  0  0  0
   90.7012   16.0062  -37.3598 C   0  0  0  0  0  0  0  0  0  0  0  0
    1.1836    0.1065    0.0020 H   0  0  0  0  0  0  0  0  0  0  0  0
    2.7689    1.6029   -1.2802 H   0  0  0  0  0  0  0  0  0  0  0  0
    2.7610   -0.0353   -1.9755 H   0  0  0  0  0  0  0  0  0  0  0  0
    4.8209   -0.5946   -0.6553 H   0  0  0  0  0  0  0  0  0  0  0  0
    4.8281    1.0243    0.0341 H   0  0  0  0  0  0  0  0  0  0  0  0
    5.0649    2.0036   -2.2600 H   0  0  0  0  0  0  0  0  0  0  0  0
    5.0575    0.3793   -2.9519 H   0  0  0  0  0  0  0  0  0  0  0  0
    7.1046   -0.1936   -1.6293 H   0  0  0  0  0  0  0  0  0  0  0  0
    7.1116    1.4289   -0.9356 H   0  0  0  0  0  0  0  0  0  0  0  0
    7.3347    2.4110   -3.2335 H   0  0  0  0  0  0  0  0  0  0  0  0
    7.3298    0.7857   -3.9271 H   0  0  0  0  0  0  0  0  0  0  0  0
    9.3641    0.2129   -2.6000 H   0  0  0  0  0  0  0  0  0  0  0  0
    9.3688    1.8389   -1.9061 H   0  0  0  0  0  0  0  0  0  0  0  0
    9.6817    2.8229   -4.1977 H   0  0  0  0  0  0  0  0  0  0  0  0
    9.6789    1.1833   -4.8959 H   0  0  0  0  0  0  0  0  0  0  0  0
   12.1730    3.2668   -5.2558 H   0  0  0  0  0  0  0  0  0  0  0  0
   12.1675    1.6267   -5.9529 H   0  0  0  0  0  0  0  0  0  0  0  0
   14.2658    1.0864   -4.6822 H   0  0  0  0  0  0  0  0  0  0  0  0
   14.2711    2.7125   -3.9886 H   0  0  0  0  0  0  0  0  0  0  0  0
   14.4905    3.6876   -6.2744 H   0  0  0  0  0  0  0  0  0  0  0  0
   14.4832    2.0624   -6.9691 H   0  0  0  0  0  0  0  0  0  0  0  0
   16.5253    1.4843   -5.6346 H   0  0  0  0  0  0  0  0  0  0  0  0
   16.5325    3.1069   -4.9408 H   0  0  0  0  0  0  0  0  0  0  0  0
   16.7619    4.0860   -7.2339 H   0  0  0  0  0  0  0  0  0  0  0  0
   16.7566    2.4616   -7.9268 H   0  0  0  0  0  0  0  0  0  0  0  0
   18.7949    1.8860   -6.5907 H   0  0  0  0  0  0  0  0  0  0  0  0
   18.8005    3.5111   -5.9000 H   0  0  0  0  0  0  0  0  0  0  0  0
   19.0227    4.4863   -8.1944 H   0  0  0  0  0  0  0  0  0  0  0  0
   19.0151    2.8617   -8.8863 H   0  0  0  0  0  0  0  0  0  0  0  0
   21.0530    2.2835   -7.5537 H   0  0  0  0  0  0  0  0  0  0  0  0
   21.0603    3.9076   -6.8595 H   0  0  0  0  0  0  0  0  0  0  0  0
   21.2784    4.8865   -9.1534 H   0  0  0  0  0  0  0  0  0  0  0  0
   21.2732    3.2618   -9.8467 H   0  0  0  0  0  0  0  0  0  0  0  0
   23.3103    2.6853   -8.5124 H   0  0  0  0  0  0  0  0  0  0  0  0
   23.3150    4.3090   -7.8171 H   0  0  0  0  0  0  0  0  0  0  0  0
   23.5311    5.2897  -10.1107 H   0  0  0  0  0  0  0  0  0  0  0  0
   23.5285    3.6658  -10.8048 H   0  0  0  0  0  0  0  0  0  0  0  0
   25.5651    3.0915   -9.4669 H   0  0  0  0  0  0  0  0  0  0  0  0
   25.5679    4.7165   -8.7750 H   0  0  0  0  0  0  0  0  0  0  0  0
   25.7851    5.6925  -11.0701 H   0  0  0  0  0  0  0  0  0  0  0  0
   25.7842    4.0671  -11.7608 H   0  0  0  0  0  0  0  0  0  0  0  0
   27.8209    3.4973  -10.4224 H   0  0  0  0  0  0  0  0  0  0  0  0
   27.8218    5.1227   -9.7317 H   0  0  0  0  0  0  0  0  0  0  0  0
   28.0406    6.0982  -12.0256 H   0  0  0  0  0  0  0  0  0  0  0  0
   28.0377    4.4733  -12.7175 H   0  0  0  0  0  0  0  0  0  0  0  0
   30.0744    3.9002  -11.3805 H   0  0  0  0  0  0  0  0  0  0  0  0
   30.0774    5.5252  -10.6885 H   0  0  0  0  0  0  0  0  0  0  0  0
   30.2952    6.5016  -12.9827 H   0  0  0  0  0  0  0  0  0  0  0  0
   30.2922    4.8767  -13.6746 H   0  0  0  0  0  0  0  0  0  0  0  0
   32.3288    4.3035  -12.3375 H   0  0  0  0  0  0  0  0  0  0  0  0
   32.3318    5.9285  -11.6455 H   0  0  0  0  0  0  0  0  0  0  0  0
   32.5494    6.9050  -13.9397 H   0  0  0  0  0  0  0  0  0  0  0  0
   32.5465    5.2800  -14.6317 H   0  0  0  0  0  0  0  0  0  0  0  0
   34.5831    4.7069  -13.2946 H   0  0  0  0  0  0  0  0  0  0  0  0
   34.5861    6.3319  -12.6027 H   0  0  0  0  0  0  0  0  0  0  0  0
   34.8037    7.3084  -14.8968 H   0  0  0  0  0  0  0  0  0  0  0  0
   34.8008    5.6834  -15.5888 H   0  0  0  0  0  0  0  0  0  0  0  0
   36.8376    5.1100  -14.2531 H   0  0  0  0  0  0  0  0  0  0  0  0
   36.8402    6.7341  -13.5589 H   0  0  0  0  0  0  0  0  0  0  0  0
   37.0580    7.7139  -15.8516 H   0  0  0  0  0  0  0  0  0  0  0  0
   37.0554    6.0898  -16.5459 H   0  0  0  0  0  0  0  0  0  0  0  0
   39.0921    5.5152  -15.2096 H   0  0  0  0  0  0  0  0  0  0  0  0
   39.0947    7.1394  -14.5152 H   0  0  0  0  0  0  0  0  0  0  0  0
   39.3125    8.1193  -16.8080 H   0  0  0  0  0  0  0  0  0  0  0  0
   39.3099    6.4951  -17.5024 H   0  0  0  0  0  0  0  0  0  0  0  0
   41.3468    5.9202  -16.1673 H   0  0  0  0  0  0  0  0  0  0  0  0
   41.3490    7.5435  -15.4707 H   0  0  0  0  0  0  0  0  0  0  0  0
   41.5677    8.5270  -17.7612 H   0  0  0  0  0  0  0  0  0  0  0  0
   41.5635    6.9043  -18.4591 H   0  0  0  0  0  0  0  0  0  0  0  0
   43.6004    6.3248  -17.1259 H   0  0  0  0  0  0  0  0  0  0  0  0
   43.6043    7.9466  -16.4258 H   0  0  0  0  0  0  0  0  0  0  0  0
   43.8210    8.9339  -18.7162 H   0  0  0  0  0  0  0  0  0  0  0  0
   43.8191    7.3116  -19.4151 H   0  0  0  0  0  0  0  0  0  0  0  0
   45.8557    6.7344  -18.0783 H   0  0  0  0  0  0  0  0  0  0  0  0
   45.8578    8.3576  -17.3816 H   0  0  0  0  0  0  0  0  0  0  0  0
   46.0745    9.3404  -19.6739 H   0  0  0  0  0  0  0  0  0  0  0  0
   46.0744    7.7166  -20.3695 H   0  0  0  0  0  0  0  0  0  0  0  0
   48.1111    7.1438  -19.0322 H   0  0  0  0  0  0  0  0  0  0  0  0
   48.1111    8.7675  -18.3367 H   0  0  0  0  0  0  0  0  0  0  0  0
   48.3289    9.7493  -20.6287 H   0  0  0  0  0  0  0  0  0  0  0  0
   48.3289    8.1255  -21.3242 H   0  0  0  0  0  0  0  0  0  0  0  0
   50.3656    7.5527  -19.9869 H   0  0  0  0  0  0  0  0  0  0  0  0
   50.3655    9.1765  -19.2913 H   0  0  0  0  0  0  0  0  0  0  0  0
   50.5833   10.1582  -21.5834 H   0  0  0  0  0  0  0  0  0  0  0  0
   50.5833    8.5345  -22.2789 H   0  0  0  0  0  0  0  0  0  0  0  0
   52.6199    7.9616  -20.9416 H   0  0  0  0  0  0  0  0  0  0  0  0
   52.6200    9.5854  -20.2461 H   0  0  0  0  0  0  0  0  0  0  0  0
   52.8387   10.5676  -22.5372 H   0  0  0  0  0  0  0  0  0  0  0  0
   52.8367    8.9444  -23.2339 H   0  0  0  0  0  0  0  0  0  0  0  0
   54.8735    8.3681  -21.8994 H   0  0  0  0  0  0  0  0  0  0  0  0
   54.8752    9.9904  -21.2004 H   0  0  0  0  0  0  0  0  0  0  0  0
   55.0919   10.9763  -23.4914 H   0  0  0  0  0  0  0  0  0  0  0  0
   55.0923    9.3535  -24.1891 H   0  0  0  0  0  0  0  0  0  0  0  0
   57.1290    8.7793  -22.8524 H   0  0  0  0  0  0  0  0  0  0  0  0
   57.1286   10.4021  -22.1547 H   0  0  0  0  0  0  0  0  0  0  0  0
   57.3473   11.3875  -24.4444 H   0  0  0  0  0  0  0  0  0  0  0  0
   57.3457    9.7653  -25.1434 H   0  0  0  0  0  0  0  0  0  0  0  0
   59.3826    9.1876  -23.8094 H   0  0  0  0  0  0  0  0  0  0  0  0
   59.3838   10.8090  -23.1082 H   0  0  0  0  0  0  0  0  0  0  0  0
   59.6005   11.7981  -25.3978 H   0  0  0  0  0  0  0  0  0  0  0  0
   59.6013   10.1763  -26.0977 H   0  0  0  0  0  0  0  0  0  0  0  0
   61.6378    9.6009  -24.7602 H   0  0  0  0  0  0  0  0  0  0  0  0
   61.6374   11.2237  -24.0625 H   0  0  0  0  0  0  0  0  0  0  0  0
   61.8561   12.2091  -26.3522 H   0  0  0  0  0  0  0  0  0  0  0  0
   61.8545   10.5869  -27.0511 H   0  0  0  0  0  0  0  0  0  0  0  0
   63.8913   10.0092  -25.7172 H   0  0  0  0  0  0  0  0  0  0  0  0
   63.8926   11.6305  -25.0161 H   0  0  0  0  0  0  0  0  0  0  0  0
   64.1103   12.6201  -27.3046 H   0  0  0  0  0  0  0  0  0  0  0  0
   64.1091   10.9988  -28.0059 H   0  0  0  0  0  0  0  0  0  0  0  0
   66.1460   10.4198  -26.6725 H   0  0  0  0  0  0  0  0  0  0  0  0
   66.1468   12.0401  -25.9691 H   0  0  0  0  0  0  0  0  0  0  0  0
   66.3646   13.0330  -28.2564 H   0  0  0  0  0  0  0  0  0  0  0  0
   66.3638   11.4126  -28.9598 H   0  0  0  0  0  0  0  0  0  0  0  0
   68.4005   10.8325  -27.6257 H   0  0  0  0  0  0  0  0  0  0  0  0
   68.4013   12.4528  -26.9223 H   0  0  0  0  0  0  0  0  0  0  0  0
   68.6192   13.4455  -29.2096 H   0  0  0  0  0  0  0  0  0  0  0  0
   68.6184   11.8253  -29.9129 H   0  0  0  0  0  0  0  0  0  0  0  0
   70.6550   11.2452  -28.5787 H   0  0  0  0  0  0  0  0  0  0  0  0
   70.6558   12.8654  -27.8755 H   0  0  0  0  0  0  0  0  0  0  0  0
   70.8735   13.8581  -30.1627 H   0  0  0  0  0  0  0  0  0  0  0  0
   70.8728   12.2380  -30.8659 H   0  0  0  0  0  0  0  0  0  0  0  0
   72.9094   11.6579  -29.5318 H   0  0  0  0  0  0  0  0  0  0  0  0
   72.9101   13.2780  -28.8286 H   0  0  0  0  0  0  0  0  0  0  0  0
   73.1279   14.2707  -31.1158 H   0  0  0  0  0  0  0  0  0  0  0  0
   73.1271   12.6506  -31.8190 H   0  0  0  0  0  0  0  0  0  0  0  0
   75.1637   12.0706  -30.4848 H   0  0  0  0  0  0  0  0  0  0  0  0
   75.1645   13.6906  -29.7816 H   0  0  0  0  0  0  0  0  0  0  0  0
   75.3823   14.6833  -32.0689 H   0  0  0  0  0  0  0  0  0  0  0  0
   75.3815   13.0632  -32.7721 H   0  0  0  0  0  0  0  0  0  0  0  0
   77.4179   12.4834  -31.4366 H   0  0  0  0  0  0  0  0  0  0  0  0
   77.4191   14.1044  -30.7355 H   0  0  0  0  0  0  0  0  0  0  0  0
   77.6369   15.0939  -33.0242 H   0  0  0  0  0  0  0  0  0  0  0  0
   77.6357   13.4728  -33.7251 H   0  0  0  0  0  0  0  0  0  0  0  0
   79.6723   12.8941  -32.3902 H   0  0  0  0  0  0  0  0  0  0  0  0
   79.6736   14.5152  -31.6893 H   0  0  0  0  0  0  0  0  0  0  0  0
   79.8911   15.5047  -33.9780 H   0  0  0  0  0  0  0  0  0  0  0  0
   79.8899   13.8835  -34.6790 H   0  0  0  0  0  0  0  0  0  0  0  0
   81.9270   13.3050  -33.3447 H   0  0  0  0  0  0  0  0  0  0  0  0
   81.9282   14.9262  -32.6437 H   0  0  0  0  0  0  0  0  0  0  0  0
   82.1462   15.9156  -34.9325 H   0  0  0  0  0  0  0  0  0  0  0  0
   82.1451   14.2946  -35.6334 H   0  0  0  0  0  0  0  0  0  0  0  0
   84.1825   13.7159  -34.3004 H   0  0  0  0  0  0  0  0  0  0  0  0
   84.1833   15.3359  -33.5973 H   0  0  0  0  0  0  0  0  0  0  0  0
   84.4019   16.3286  -35.8847 H   0  0  0  0  0  0  0  0  0  0  0  0
   84.4011   14.7086  -36.5878 H   0  0  0  0  0  0  0  0  0  0  0  0
   86.4397   14.1297  -35.2557 H   0  0  0  0  0  0  0  0  0  0  0  0
   86.4404   15.7495  -34.5527 H   0  0  0  0  0  0  0  0  0  0  0  0
   86.6599   16.7421  -36.8415 H   0  0  0  0  0  0  0  0  0  0  0  0
   86.6612   15.1216  -37.5435 H   0  0  0  0  0  0  0  0  0  0  0  0
   88.7008   14.5466  -36.2093 H   0  0  0  0  0  0  0  0  0  0  0  0
   88.6997   16.1672  -35.5098 H   0  0  0  0  0  0  0  0  0  0  0  0
   88.9402   17.1566  -37.8011 H   0  0  0  0  0  0  0  0  0  0  0  0
   88.9420   15.5346  -38.5006 H   0  0  0  0  0  0  0  0  0  0  0  0
   90.9906   16.5951  -36.4820 H   0  0  0  0  0  0  0  0  0  0  0  0
   91.2555   16.3798  -38.2243 H   0  0  0  0  0  0  0  0  0  0  0  0
   90.9926   14.9650  -37.1848 H   0  0  0  0  0  0  0  0  0  0  0  0
  1  2  2  0  0  0  0
  2  3  1  0  0  0  0
  2 81  1  0  0  0  0
  3  4  1  0  0  0  0
  3 82  1  0  0  0  0
  3 83  1  0  0  0  0
  4  5  1  0  0  0  0
  4 84  1  0  0  0  0
  4 85  1  0  0  0  0
  5  6  1  0  0  0  0
  5 86  1  0  0  0  0
  5 87  1  0  0  0  0
  6  7  1  0  0  0  0
  6 88  1  0  0  0  0
  6 89  1  0  0  0  0
  7  8  1  0  0  0  0
  7 90  1  0  0  0  0
  7 91  1  0  0  0  0
  8  9  1  0  0  0  0
  8 92  1  0  0  0  0
  8 93  1  0  0  0  0
  9 10  1  0  0  0  0
  9 94  1  0  0  0  0
  9 95  1  0  0  0  0
 10 11  1  0  0  0  0
 11 12  1  0  0  0  0
 11 96  1  0  0  0  0
 11 97  1  0  0  0  0
 12 13  1  0  0  0  0
 12 98  1  0  0  0  0
 12 99  1  0  0  0  0
 13 14  1  0  0  0  0
 13100  1  0  0  0  0
 13101  1  0  0  0  0
 14 15  1  0  0  0  0
 14102  1  0  0  0  0
 14103  1  0  0  0  0
 15 16  1  0  0  0  0
 15104  1  0  0  0  0
 15105  1  0  0  0  0
 16 17  1  0  0  0  0
 16106  1  0  0  0  0
 16107  1  0  0  0  0
 17 18  1  0  0  0  0
 17108  1  0  0  0  0
 17109  1  0  0  0  0
 18 19  1  0  0  0  0
 18110  1  0  0  0  0
 18111  1  0  0  0  0
 19 20  1  0  0  0  0
 19112  1  0  0  0  0
 19113  1  0  0  0  0
 20 21  1  0  0  0  0
 20114  1  0  0  0  0
 20115  1  0  0  0  0
 21 22  1  0  0  0  0
 21116  1  0  0  0  0
 21117  1  0  0  0  0
 22 23  1  0  0  0  0
 22118  1  0  0  0  0
 22119  1  0  0  0  0
 23 24  1  0  0  0  0
 23120  1  0  0  0  0
 23121  1  0  0  0  0
 24 25  1  0  0  0  0
 24122  1  0  0  0  0
 24123  1  0  0  0  0
 25 26  1  0  0  0  0
 25124  1  0  0  0  0
 25125  1  0  0  0  0
 26 27  1  0  0  0  0
 26126  1  0  0  0  0
 26127  1  0  0  0  0
 27 28  1  0  0  0  0
 27128  1  0  0  0  0
 27129  1  0  0  0  0
 28 29  1  0  0  0  0
 28130  1  0  0  0  0
 28131  1  0  0  0  0
 29 30  1  0  0  0  0
 29132  1  0  0  0  0
 29133  1  0  0  0  0
 30 31  1  0  0  0  0
 30134  1  0  0  0  0
 30135  1  0  0  0  0
 31 32  1  0  0  0  0
 31136  1  0  0  0  0
 31137  1  0  0  0  0
 32 33  1  0  0  0  0
 32138  1  0  0  0  0
 32139  1  0  0  0  0
 33 34  1  0  0  0  0
 33140  1  0  0  0  0
 33141  1  0  0  0  0
 34 35  1  0  0  0  0
 34142  1  0  0  0  0
 34143  1  0  0  0  0
 35 36  1  0  0  0  0
 35144  1  0  0  0  0
 35145  1  0  0  0  0
 36 37  1  0  0  0  0
 36146  1  0  0  0  0
 36147  1  0  0  0  0
 37 38  1  0  0  0  0
 37148  1  0  0  0  0
 37149  1  0  0  0  0
 38 39  1  0  0  0  0
 38150  1  0  0  0  0
 38151  1  0  0  0  0
 39 40  1  0  0  0  0
 39152  1  0  0  0  0
 39153  1  0  0  0  0
 40 41  1  0  0  0  0
 40154  1  0  0  0  0
 40155  1  0  0  0  0
 41 42  1  0  0  0  0
 41156  1  0  0  0  0
 41157  1  0  0  0  0
 42 43  1  0  0  0  0
 42158  1  0  0  0  0
 42159  1  0  0  0  0
 43 44  1  0  0  0  0
 43160  1  0  0  0  0
 43161  1  0  0  0  0
 44 45  1  0  0  0  0
 44162  1  0  0  0  0
 44163  1  0  0  0  0
 45 46  1  0  0  0  0
 45164  1  0  0  0  0
 45165  1  0  0  0  0
 46 47  1  0  0  0  0
 46166  1  0  0  0  0
 46167  1  0  0  0  0
 47 48  1  0  0  0  0
 47168  1  0  0  0  0
 47169  1  0  0  0  0
 48 49  1  0  0  0  0
 48170  1  0  0  0  0
 48171  1  0  0  0  0
 49 50  1  0  0  0  0
 49172  1  0  0  0  0
 49173  1  0  0  0  0
 50 51  1  0  0  0  0
 50174  1  0  0  0  0
 50175  1  0  0  0  0
 51 52  1  0  0  0  0
 51176  1  0  0  0  0
 51177  1  0  0  0  0
 52 53  1  0  0  0  0
 52178  1  0  0  0  0
 52179  1  0  0  0  0
 53 54  1  0  0  0  0
 53180  1  0  0  0  0
 53181  1  0  0  0  0
 54 55  1  0  0  0  0
 54182  1  0  0  0  0
 54183  1  0  0  0  0
 55 56  1  0  0  0  0
 55184  1  0  0  0  0
 55185  1  0  0  0  0
 56 57  1  0  0  0  0
 56186  1  0  0  0  0
 56187  1  0  0  0  0
 57 58  1  0  0  0  0
 57188  1  0  0  0  0
 57189  1  0  0  0  0
 58 59  1  0  0  0  0
 58190  1  0  0  0  0
 58191  1  0  0  0  0
 59 60  1  0  0  0  0
 59192  1  0  0  0  0
 59193  1  0  0  0  0
 60 61  1  0  0  0  0
 60194  1  0  0  0  0
 60195  1  0  0  0  0
 61 62  1  0  0  0  0
 61196  1  0  0  0  0
 61197  1  0  0  0  0
 62 63  1  0  0  0  0
 62198  1  0  0  0  0
 62199  1  0  0  0  0
 63 64  1  0  0  0  0
 63200  1  0  0  0  0
 63201  1  0  0  0  0
 64 65  1  0  0  0  0
 64202  1  0  0  0  0
 64203  1  0  0  0  0
 65 66  1  0  0  0  0
 65204  1  0  0  0  0
 65205  1  0  0  0  0
 66 67  1  0  0  0  0
 66206  1  0  0  0  0
 66207  1  0  0  0  0
 67 68  1  0  0  0  0
 67208  1  0  0  0  0
 67209  1  0  0  0  0
 68 69  1  0  0  0  0
 68210  1  0  0  0  0
 68211  1  0  0  0  0
 69 70  1  0  0  0  0
 69212  1  0  0  0  0
 69213  1  0  0  0  0
 70 71  1  0  0  0  0
 70214  1  0  0  0  0
 70215  1  0  0  0  0
 71 72  1  0  0  0  0
 71216  1  0  0  0  0
 71217  1  0  0  0  0
 72 73  1  0  0  0  0
 72218  1  0  0  0  0
 72219  1  0  0  0  0
 73 74  1  0  0  0  0
 73220  1  0  0  0  0
 73221  1  0  0  0  0
 74 75  1  0  0  0  0
 74222  1  0  0  0  0
 74223  1  0  0  0  0
 75 76  1  0  0  0  0
 75224  1  0  0  0  0
 75225  1  0  0  0  0
 76 77  1  0  0  0  0
 76226  1  0  0  0  0
 76227  1  0  0  0  0
 77 78  1  0  0  0  0
 77228  1  0  0  0  0
 77229  1  0  0  0  0
 78 79  1  0  0  0  0
 78230  1  0  0  0  0
 78231  1  0  0  0  0
 79 80  1  0  0  0  0
 79232  1  0  0  0  0
 79233  1  0  0  0  0
 80234  1  0  0  0  0
 80235  1  0  0  0  0
 80236  1  0  0  0  0
M  END
$$$$
