
 OpenBabel04232216523D

 72 72  0  0  0  0  0  0  0  0999 V2000
    0.8883    0.0107   -0.1001 C   0  0  0  0  0  0  0  0  0  0  0  0
    2.4068   -0.0004   -0.0890 C   0  0  0  0  0  0  0  0  0  0  0  0
    2.9394   -1.2757    0.5567 C   0  0  0  0  0  0  0  0  0  0  0  0
    4.4644   -1.2889    0.5672 C   0  0  0  0  0  0  0  0  0  0  0  0
    4.9874   -2.5666    1.2141 C   0  0  0  0  0  0  0  0  0  0  0  0
    6.5109   -2.5805    1.2249 C   0  0  0  0  0  0  0  0  0  0  0  0
    7.0324   -3.8576    1.8716 C   0  0  0  0  0  0  0  0  0  0  0  0
    8.5557   -3.8684    1.8803 C   0  0  0  0  0  0  0  0  0  0  0  0
    9.0818   -5.1435    2.5263 C   0  0  0  0  0  0  0  0  0  0  0  0
   10.6064   -5.1517    2.5339 C   0  0  0  0  0  0  0  0  0  0  0  0
   11.1309   -6.4279    3.1805 C   0  0  0  0  0  0  0  0  0  0  0  0
   12.6559   -6.4533    3.1960 C   0  0  0  0  0  0  0  0  0  0  0  0
   13.1599   -7.7402    3.8458 C   0  0  0  0  0  0  0  0  0  0  0  0
   14.6803   -7.7818    3.8687 C   0  0  0  0  0  0  0  0  0  0  0  0
   15.1892   -9.0567    4.5163 C   0  0  0  0  0  0  0  0  0  0  0  0
   14.8887  -10.1515    4.0386 O   0  0  0  0  0  0  0  0  0  0  0  0
   16.0586   -8.8546    5.6997 C   0  0  0  0  0  0  0  0  0  0  0  0
   16.9464   -9.7090    6.2472 C   0  0  0  0  0  0  0  0  0  0  0  0
   17.3984  -11.1222    5.9067 C   0  0  0  0  0  0  0  0  0  0  0  0
   17.8682  -11.8751    7.1424 C   0  0  0  0  0  0  0  0  0  0  0  0
   18.3436  -13.2877    6.8052 C   0  0  0  0  0  0  0  0  0  0  0  0
   18.7754  -14.0266    8.0730 C   0  0  0  0  0  0  0  0  0  0  0  0
   19.2574  -15.4421    7.7632 C   0  0  0  0  0  0  0  0  0  0  0  0
   19.6860  -16.1677    9.0288 C   0  0  0  0  0  0  0  0  0  0  0  0
   17.3400   -8.7121    7.3288 C   0  0  0  0  0  0  0  0  0  0  0  0
   16.3184   -7.7525    6.6828 C   0  0  0  0  0  0  0  0  0  0  0  0
    0.5193    0.9287   -0.5665 H   0  0  0  0  0  0  0  0  0  0  0  0
    0.4905   -0.0395    0.9186 H   0  0  0  0  0  0  0  0  0  0  0  0
    0.4961   -0.8415   -0.6642 H   0  0  0  0  0  0  0  0  0  0  0  0
    2.7729    0.8758    0.4587 H   0  0  0  0  0  0  0  0  0  0  0  0
    2.7784    0.0801   -1.1172 H   0  0  0  0  0  0  0  0  0  0  0  0
    2.5683   -2.1507    0.0091 H   0  0  0  0  0  0  0  0  0  0  0  0
    2.5642   -1.3549    1.5844 H   0  0  0  0  0  0  0  0  0  0  0  0
    4.8397   -0.4168    1.1165 H   0  0  0  0  0  0  0  0  0  0  0  0
    4.8436   -1.2131   -0.4592 H   0  0  0  0  0  0  0  0  0  0  0  0
    4.6141   -3.4401    0.6655 H   0  0  0  0  0  0  0  0  0  0  0  0
    4.6101   -2.6440    2.2412 H   0  0  0  0  0  0  0  0  0  0  0  0
    6.8859   -1.7081    1.7740 H   0  0  0  0  0  0  0  0  0  0  0  0
    6.8897   -2.5045    0.1983 H   0  0  0  0  0  0  0  0  0  0  0  0
    6.6584   -4.7309    1.3233 H   0  0  0  0  0  0  0  0  0  0  0  0
    6.6551   -3.9343    2.8988 H   0  0  0  0  0  0  0  0  0  0  0  0
    8.9288   -2.9946    2.4283 H   0  0  0  0  0  0  0  0  0  0  0  0
    8.9320   -3.7915    0.8528 H   0  0  0  0  0  0  0  0  0  0  0  0
    8.7082   -6.0174    1.9785 H   0  0  0  0  0  0  0  0  0  0  0  0
    8.7048   -5.2207    3.5536 H   0  0  0  0  0  0  0  0  0  0  0  0
   10.9780   -4.2772    3.0818 H   0  0  0  0  0  0  0  0  0  0  0  0
   10.9814   -5.0742    1.5061 H   0  0  0  0  0  0  0  0  0  0  0  0
   10.7539   -7.2992    2.6311 H   0  0  0  0  0  0  0  0  0  0  0  0
   10.7507   -6.5030    4.2065 H   0  0  0  0  0  0  0  0  0  0  0  0
   13.0354   -5.5825    3.7450 H   0  0  0  0  0  0  0  0  0  0  0  0
   13.0378   -6.3796    2.1703 H   0  0  0  0  0  0  0  0  0  0  0  0
   12.7693   -8.6055    3.2968 H   0  0  0  0  0  0  0  0  0  0  0  0
   12.7713   -7.8152    4.8695 H   0  0  0  0  0  0  0  0  0  0  0  0
   15.0679   -6.9076    4.4010 H   0  0  0  0  0  0  0  0  0  0  0  0
   15.0891   -7.7472    2.8532 H   0  0  0  0  0  0  0  0  0  0  0  0
   18.2377  -11.0320    5.2030 H   0  0  0  0  0  0  0  0  0  0  0  0
   16.6191  -11.6535    5.3514 H   0  0  0  0  0  0  0  0  0  0  0  0
   17.0411  -11.9322    7.8611 H   0  0  0  0  0  0  0  0  0  0  0  0
   18.6783  -11.3238    7.6361 H   0  0  0  0  0  0  0  0  0  0  0  0
   19.1829  -13.2375    6.1010 H   0  0  0  0  0  0  0  0  0  0  0  0
   17.5368  -13.8420    6.3108 H   0  0  0  0  0  0  0  0  0  0  0  0
   17.9337  -14.0713    8.7752 H   0  0  0  0  0  0  0  0  0  0  0  0
   19.5778  -13.4659    8.5682 H   0  0  0  0  0  0  0  0  0  0  0  0
   20.1019  -15.4039    7.0657 H   0  0  0  0  0  0  0  0  0  0  0  0
   18.4570  -16.0101    7.2752 H   0  0  0  0  0  0  0  0  0  0  0  0
   20.5075  -15.6401    9.5241 H   0  0  0  0  0  0  0  0  0  0  0  0
   20.0272  -17.1795    8.7892 H   0  0  0  0  0  0  0  0  0  0  0  0
   18.8540  -16.2477    9.7359 H   0  0  0  0  0  0  0  0  0  0  0  0
   18.3743   -8.3518    7.2997 H   0  0  0  0  0  0  0  0  0  0  0  0
   17.1013   -9.0004    8.3583 H   0  0  0  0  0  0  0  0  0  0  0  0
   16.7537   -6.8338    6.2757 H   0  0  0  0  0  0  0  0  0  0  0  0
   15.4812   -7.4802    7.3354 H   0  0  0  0  0  0  0  0  0  0  0  0
  1  2  1  0  0  0  0
  1 27  1  0  0  0  0
  1 28  1  0  0  0  0
  1 29  1  0  0  0  0
  2  3  1  0  0  0  0
  2 30  1  0  0  0  0
  2 31  1  0  0  0  0
  3  4  1  0  0  0  0
  3 32  1  0  0  0  0
  3 33  1  0  0  0  0
  4  5  1  0  0  0  0
  4 34  1  0  0  0  0
  4 35  1  0  0  0  0
  5  6  1  0  0  0  0
  5 36  1  0  0  0  0
  5 37  1  0  0  0  0
  6  7  1  0  0  0  0
  6 38  1  0  0  0  0
  6 39  1  0  0  0  0
  7  8  1  0  0  0  0
  7 40  1  0  0  0  0
  7 41  1  0  0  0  0
  8  9  1  0  0  0  0
  8 42  1  0  0  0  0
  8 43  1  0  0  0  0
  9 10  1  0  0  0  0
  9 44  1  0  0  0  0
  9 45  1  0  0  0  0
 10 11  1  0  0  0  0
 10 46  1  0  0  0  0
 10 47  1  0  0  0  0
 11 12  1  0  0  0  0
 11 48  1  0  0  0  0
 11 49  1  0  0  0  0
 12 13  1  0  0  0  0
 12 50  1  0  0  0  0
 12 51  1  0  0  0  0
 13 14  1  0  0  0  0
 13 52  1  0  0  0  0
 13 53  1  0  0  0  0
 14 15  1  0  0  0  0
 14 54  1  0  0  0  0
 14 55  1  0  0  0  0
 15 16  2  0  0  0  0
 15 17  1  0  0  0  0
 17 18  2  0  0  0  0
 17 26  1  0  0  0  0
 18 19  1  0  0  0  0
 18 25  1  0  0  0  0
 19 20  1  0  0  0  0
 19 56  1  0  0  0  0
 19 57  1  0  0  0  0
 20 21  1  0  0  0  0
 20 58  1  0  0  0  0
 20 59  1  0  0  0  0
 21 22  1  0  0  0  0
 21 60  1  0  0  0  0
 21 61  1  0  0  0  0
 22 23  1  0  0  0  0
 22 62  1  0  0  0  0
 22 63  1  0  0  0  0
 23 24  1  0  0  0  0
 23 64  1  0  0  0  0
 23 65  1  0  0  0  0
 24 66  1  0  0  0  0
 24 67  1  0  0  0  0
 24 68  1  0  0  0  0
 25 26  1  0  0  0  0
 25 69  1  0  0  0  0
 25 70  1  0  0  0  0
 26 71  1  0  0  0  0
 26 72  1  0  0  0  0
M  END
$$$$
