
 OpenBabel04232216583D

138137  0  0  0  0  0  0  0  0999 V2000
   44.6574    8.5248    9.3154 N   0  0  0  0  0  0  0  0  0  0  0  0
   43.8946    9.6620    8.8914 N   0  0  0  0  0  0  0  0  0  0  0  0
   42.4650    9.3711    9.0459 C   0  0  0  0  0  0  0  0  0  0  0  0
   42.0109    9.1361   10.4962 C   0  0  0  0  0  0  0  0  0  0  0  0
   42.3239   10.3367   11.3826 C   0  0  0  0  0  0  0  0  0  0  0  0
   41.8587   10.0793   12.7272 N   0  0  0  0  0  0  0  0  0  0  0  0
   42.0367   11.2674   13.4495 N   0  0  0  0  0  0  0  0  0  0  0  0
   41.6713   11.0045   14.7736 N   0  0  0  0  0  0  0  0  0  0  0  0
   42.0003   12.0976   15.6039 N   0  0  0  0  0  0  0  0  0  0  0  0
   41.2485   13.2755   15.2985 N   0  0  0  0  0  0  0  0  0  0  0  0
   39.8398   13.1540   15.4911 N   0  0  0  0  0  0  0  0  0  0  0  0
   39.5581   12.6405   16.7852 N   0  0  0  0  0  0  0  0  0  0  0  0
   39.4838   13.6774   17.7319 N   0  0  0  0  0  0  0  0  0  0  0  0
   38.5461   14.6511   17.3649 N   0  0  0  0  0  0  0  0  0  0  0  0
   37.2134   14.2388   17.1054 N   0  0  0  0  0  0  0  0  0  0  0  0
   36.6509   13.3866   18.1037 N   0  0  0  0  0  0  0  0  0  0  0  0
   36.3378   14.1273   19.2887 N   0  0  0  0  0  0  0  0  0  0  0  0
   35.6612   15.3544   18.9726 N   0  0  0  0  0  0  0  0  0  0  0  0
   34.3265   15.3968   19.2098 N   0  0  0  0  0  0  0  0  0  0  0  0
   34.0755   15.5663   20.5857 N   0  0  0  0  0  0  0  0  0  0  0  0
   34.6613   16.7858   21.1505 N   0  0  0  0  0  0  0  0  0  0  0  0
   34.2198   18.0635   20.6592 N   0  0  0  0  0  0  0  0  0  0  0  0
   32.8149   18.1949   20.5113 N   0  0  0  0  0  0  0  0  0  0  0  0
   32.4725   17.4895   19.3433 N   0  0  0  0  0  0  0  0  0  0  0  0
   30.8585   17.2182   19.2278 S   0  0  0  0  0  0  0  0  0  0  0  0
   30.2343   18.7240   18.9271 N   0  0  0  0  0  0  0  0  0  0  0  0
   30.6980   19.3833   17.4727 S   0  0  0  0  0  0  0  0  0  0  0  0
   30.5852   18.1988   16.3309 N   0  0  0  0  0  0  0  0  0  0  0  0
   30.9767   18.7150   14.8163 S   0  0  0  0  0  0  0  0  0  0  0  0
   32.6099   18.9855   14.8288 N   0  0  0  0  0  0  0  0  0  0  0  0
   33.4676   17.5751   14.8966 S   0  0  0  0  0  0  0  0  0  0  0  0
   35.0030   17.9784   15.2706 N   0  0  0  0  0  0  0  0  0  0  0  0
   35.2436   19.0411   16.5020 S   0  0  0  0  0  0  0  0  0  0  0  0
   35.7427   18.1270   17.8032 N   0  0  0  0  0  0  0  0  0  0  0  0
   37.0623   17.2529   17.3554 S   0  0  0  0  0  0  0  0  0  0  0  0
   38.2234   17.2044   18.4990 N   0  0  0  0  0  0  0  0  0  0  0  0
   38.3514   16.3041   19.8396 S   0  0  0  0  0  0  0  0  0  0  0  0
   37.3962   16.6791   21.0842 N   0  0  0  0  0  0  0  0  0  0  0  0
   37.6305   15.6242   22.3454 S   0  0  0  0  0  0  0  0  0  0  0  0
   39.2666   15.4517   22.5370 N   0  0  0  0  0  0  0  0  0  0  0  0
   39.8889   16.7250   23.3766 S   0  0  0  0  0  0  0  0  0  0  0  0
   39.7193   16.2919   24.9588 N   0  0  0  0  0  0  0  0  0  0  0  0
   40.7312   17.1249   25.9614 S   0  0  0  0  0  0  0  0  0  0  0  0
   40.5378   18.7211   25.5862 N   0  0  0  0  0  0  0  0  0  0  0  0
   41.3251   19.7486   26.6021 S   0  0  0  0  0  0  0  0  0  0  0  0
   42.9379   19.4012   26.5555 N   0  0  0  0  0  0  0  0  0  0  0  0
   43.6285   19.6516   25.0777 S   0  0  0  0  0  0  0  0  0  0  0  0
   45.2372   19.3370   25.3317 N   0  0  0  0  0  0  0  0  0  0  0  0
   45.5526   17.8115   25.8939 S   0  0  0  0  0  0  0  0  0  0  0  0
   45.0752   16.7582   24.7224 N   0  0  0  0  0  0  0  0  0  0  0  0
   45.2916   15.2047   25.2396 S   0  0  0  0  0  0  0  0  0  0  0  0
   44.9724   14.2433   23.9327 N   0  0  0  0  0  0  0  0  0  0  0  0
   43.3683   14.1935   23.5296 S   0  0  0  0  0  0  0  0  0  0  0  0
   42.9415   15.7045   23.0262 N   0  0  0  0  0  0  0  0  0  0  0  0
   43.5607   16.1954   21.5775 S   0  0  0  0  0  0  0  0  0  0  0  0
   43.1104   15.1236   20.4113 N   0  0  0  0  0  0  0  0  0  0  0  0
   41.8000   15.4795   19.4848 S   0  0  0  0  0  0  0  0  0  0  0  0
   41.5109   17.0992   19.4395 N   0  0  0  0  0  0  0  0  0  0  0  0
   41.1646   17.6750   17.9324 S   0  0  0  0  0  0  0  0  0  0  0  0
   41.0085   19.2958   18.2150 N   0  0  0  0  0  0  0  0  0  0  0  0
   39.5675   20.0445   17.9288 S   0  0  0  0  0  0  0  0  0  0  0  0
   38.4323   19.6286   19.0180 N   0  0  0  0  0  0  0  0  0  0  0  0
   38.5355   20.0791   20.5665 S   0  0  0  0  0  0  0  0  0  0  0  0
   37.5678   21.3821   20.5490 N   0  0  0  0  0  0  0  0  0  0  0  0
   35.9504   21.1364   20.7356 S   0  0  0  0  0  0  0  0  0  0  0  0
   35.3565   22.6173   20.2752 N   0  0  0  0  0  0  0  0  0  0  0  0
   35.5658   23.8075   21.4109 S   0  0  0  0  0  0  0  0  0  0  0  0
   37.1770   23.8082   21.8291 N   0  0  0  0  0  0  0  0  0  0  0  0
   38.2022   24.3791   20.6468 S   0  0  0  0  0  0  0  0  0  0  0  0
   37.7016   25.8876   20.2801 N   0  0  0  0  0  0  0  0  0  0  0  0
   38.2614   26.9618   21.3971 S   0  0  0  0  0  0  0  0  0  0  0  0
   37.5415   28.3789   20.9769 N   0  0  0  0  0  0  0  0  0  0  0  0
   38.3638   29.1688   19.7759 S   0  0  0  0  0  0  0  0  0  0  0  0
   38.1221   28.3078   18.3739 N   0  0  0  0  0  0  0  0  0  0  0  0
   36.5324   28.2289   17.9157 S   0  0  0  0  0  0  0  0  0  0  0  0
   36.0586   29.7683   17.5649 N   0  0  0  0  0  0  0  0  0  0  0  0
   34.5359   29.7421   16.9283 S   0  0  0  0  0  0  0  0  0  0  0  0
   34.0943   31.3211   16.7825 N   0  0  0  0  0  0  0  0  0  0  0  0
   34.9852   32.0975   15.6284 S   0  0  0  0  0  0  0  0  0  0  0  0
   34.2842   33.5737   15.4595 N   0  0  0  0  0  0  0  0  0  0  0  0
   34.5022   34.5283   16.7915 S   0  0  0  0  0  0  0  0  0  0  0  0
   45.6564    8.7308    9.3484 H   0  0  0  0  0  0  0  0  0  0  0  0
   44.5157    7.7112    8.7185 H   0  0  0  0  0  0  0  0  0  0  0  0
   44.0747    9.9153    7.9167 H   0  0  0  0  0  0  0  0  0  0  0  0
   42.1854    8.5042    8.4371 H   0  0  0  0  0  0  0  0  0  0  0  0
   41.9055   10.2249    8.6421 H   0  0  0  0  0  0  0  0  0  0  0  0
   42.4732    8.2281   10.9020 H   0  0  0  0  0  0  0  0  0  0  0  0
   40.9261    8.9573   10.4891 H   0  0  0  0  0  0  0  0  0  0  0  0
   41.8141   11.2145   10.9585 H   0  0  0  0  0  0  0  0  0  0  0  0
   43.3983   10.5467   11.3871 H   0  0  0  0  0  0  0  0  0  0  0  0
   42.3700    9.3493   13.2124 H   0  0  0  0  0  0  0  0  0  0  0  0
   41.4096   11.9810   13.0776 H   0  0  0  0  0  0  0  0  0  0  0  0
   42.1301   10.1472   15.0880 H   0  0  0  0  0  0  0  0  0  0  0  0
   43.0035   12.2940   15.5304 H   0  0  0  0  0  0  0  0  0  0  0  0
   41.4571   13.6069   14.3552 H   0  0  0  0  0  0  0  0  0  0  0  0
   39.3698   12.5530   14.8095 H   0  0  0  0  0  0  0  0  0  0  0  0
   40.3273   12.0187   17.0290 H   0  0  0  0  0  0  0  0  0  0  0  0
   40.4061   14.1337   17.7855 H   0  0  0  0  0  0  0  0  0  0  0  0
   38.8453   15.1392   16.5244 H   0  0  0  0  0  0  0  0  0  0  0  0
   37.2366   13.8078   16.1894 H   0  0  0  0  0  0  0  0  0  0  0  0
   37.4093   12.7316   18.3029 H   0  0  0  0  0  0  0  0  0  0  0  0
   37.2687   14.4183   19.6435 H   0  0  0  0  0  0  0  0  0  0  0  0
   36.0907   16.1522   19.4743 H   0  0  0  0  0  0  0  0  0  0  0  0
   33.9231   14.5733   18.7654 H   0  0  0  0  0  0  0  0  0  0  0  0
   34.5414   14.7792   21.0476 H   0  0  0  0  0  0  0  0  0  0  0  0
   35.6838   16.7279   20.9973 H   0  0  0  0  0  0  0  0  0  0  0  0
   34.7096   18.2847   19.7846 H   0  0  0  0  0  0  0  0  0  0  0  0
   32.5224   19.1609   20.3925 H   0  0  0  0  0  0  0  0  0  0  0  0
   33.0201   16.6174   19.4247 H   0  0  0  0  0  0  0  0  0  0  0  0
   30.6023   19.3081   19.6781 H   0  0  0  0  0  0  0  0  0  0  0  0
   29.6704   17.7583   16.3622 H   0  0  0  0  0  0  0  0  0  0  0  0
   32.8358   19.5109   15.6714 H   0  0  0  0  0  0  0  0  0  0  0  0
   35.6886   17.9839   14.5196 H   0  0  0  0  0  0  0  0  0  0  0  0
   35.0004   17.4391   18.0034 H   0  0  0  0  0  0  0  0  0  0  0  0
   39.0545   16.9037   17.9799 H   0  0  0  0  0  0  0  0  0  0  0  0
   37.3566   17.6477   21.3877 H   0  0  0  0  0  0  0  0  0  0  0  0
   39.6973   15.4020   21.6148 H   0  0  0  0  0  0  0  0  0  0  0  0
   39.8851   15.2870   25.0333 H   0  0  0  0  0  0  0  0  0  0  0  0
   39.5454   18.9471   25.5108 H   0  0  0  0  0  0  0  0  0  0  0  0
   43.1073   18.4267   26.8018 H   0  0  0  0  0  0  0  0  0  0  0  0
   45.5531   20.0057   26.0309 H   0  0  0  0  0  0  0  0  0  0  0  0
   45.5833   16.9418   23.8586 H   0  0  0  0  0  0  0  0  0  0  0  0
   45.2707   13.2928   24.1527 H   0  0  0  0  0  0  0  0  0  0  0  0
   43.1313   16.3870   23.7648 H   0  0  0  0  0  0  0  0  0  0  0  0
   43.0174   14.1921   20.8105 H   0  0  0  0  0  0  0  0  0  0  0  0
   40.6869   17.3085   20.0043 H   0  0  0  0  0  0  0  0  0  0  0  0
   41.6399   19.7043   17.5447 H   0  0  0  0  0  0  0  0  0  0  0  0
   38.0455   18.6810   18.8908 H   0  0  0  0  0  0  0  0  0  0  0  0
   37.6968   21.8410   19.6466 H   0  0  0  0  0  0  0  0  0  0  0  0
   34.3757   22.5537   20.0224 H   0  0  0  0  0  0  0  0  0  0  0  0
   37.4180   22.8213   21.9701 H   0  0  0  0  0  0  0  0  0  0  0  0
   36.6815   25.8905   20.2338 H   0  0  0  0  0  0  0  0  0  0  0  0
   37.4704   28.9729   21.7992 H   0  0  0  0  0  0  0  0  0  0  0  0
   38.4583   27.3521   18.5368 H   0  0  0  0  0  0  0  0  0  0  0  0
   36.7132   30.1767   16.9000 H   0  0  0  0  0  0  0  0  0  0  0  0
   34.1824   31.7937   17.6820 H   0  0  0  0  0  0  0  0  0  0  0  0
   33.2982   33.4748   15.2166 H   0  0  0  0  0  0  0  0  0  0  0  0
   35.8443   34.5619   16.7978 H   0  0  0  0  0  0  0  0  0  0  0  0
  1  2  1  0  0  0  0
  1 82  1  0  0  0  0
  1 83  1  0  0  0  0
  2  3  1  0  0  0  0
  2 84  1  0  0  0  0
  3  4  1  0  0  0  0
  3 85  1  0  0  0  0
  3 86  1  0  0  0  0
  4  5  1  0  0  0  0
  4 87  1  0  0  0  0
  4 88  1  0  0  0  0
  5  6  1  0  0  0  0
  5 89  1  0  0  0  0
  5 90  1  0  0  0  0
  6  7  1  0  0  0  0
  6 91  1  0  0  0  0
  7  8  1  0  0  0  0
  7 92  1  0  0  0  0
  8  9  1  0  0  0  0
  8 93  1  0  0  0  0
  9 10  1  0  0  0  0
  9 94  1  0  0  0  0
 10 11  1  0  0  0  0
 10 95  1  0  0  0  0
 11 12  1  0  0  0  0
 11 96  1  0  0  0  0
 12 13  1  0  0  0  0
 12 97  1  0  0  0  0
 13 14  1  0  0  0  0
 13 98  1  0  0  0  0
 14 15  1  0  0  0  0
 14 99  1  0  0  0  0
 15 16  1  0  0  0  0
 15100  1  0  0  0  0
 16 17  1  0  0  0  0
 16101  1  0  0  0  0
 17 18  1  0  0  0  0
 17102  1  0  0  0  0
 18 19  1  0  0  0  0
 18103  1  0  0  0  0
 19 20  1  0  0  0  0
 19104  1  0  0  0  0
 20 21  1  0  0  0  0
 20105  1  0  0  0  0
 21 22  1  0  0  0  0
 21106  1  0  0  0  0
 22 23  1  0  0  0  0
 22107  1  0  0  0  0
 23 24  1  0  0  0  0
 23108  1  0  0  0  0
 24 25  1  0  0  0  0
 24109  1  0  0  0  0
 25 26  1  0  0  0  0
 26 27  1  0  0  0  0
 26110  1  0  0  0  0
 27 28  1  0  0  0  0
 28 29  1  0  0  0  0
 28111  1  0  0  0  0
 29 30  1  0  0  0  0
 30 31  1  0  0  0  0
 30112  1  0  0  0  0
 31 32  1  0  0  0  0
 32 33  1  0  0  0  0
 32113  1  0  0  0  0
 33 34  1  0  0  0  0
 34 35  1  0  0  0  0
 34114  1  0  0  0  0
 35 36  1  0  0  0  0
 36 37  1  0  0  0  0
 36115  1  0  0  0  0
 37 38  1  0  0  0  0
 38 39  1  0  0  0  0
 38116  1  0  0  0  0
 39 40  1  0  0  0  0
 40 41  1  0  0  0  0
 40117  1  0  0  0  0
 41 42  1  0  0  0  0
 42 43  1  0  0  0  0
 42118  1  0  0  0  0
 43 44  1  0  0  0  0
 44 45  1  0  0  0  0
 44119  1  0  0  0  0
 45 46  1  0  0  0  0
 46 47  1  0  0  0  0
 46120  1  0  0  0  0
 47 48  1  0  0  0  0
 48 49  1  0  0  0  0
 48121  1  0  0  0  0
 49 50  1  0  0  0  0
 50 51  1  0  0  0  0
 50122  1  0  0  0  0
 51 52  1  0  0  0  0
 52 53  1  0  0  0  0
 52123  1  0  0  0  0
 53 54  1  0  0  0  0
 54 55  1  0  0  0  0
 54124  1  0  0  0  0
 55 56  1  0  0  0  0
 56 57  1  0  0  0  0
 56125  1  0  0  0  0
 57 58  1  0  0  0  0
 58 59  1  0  0  0  0
 58126  1  0  0  0  0
 59 60  1  0  0  0  0
 60 61  1  0  0  0  0
 60127  1  0  0  0  0
 61 62  1  0  0  0  0
 62 63  1  0  0  0  0
 62128  1  0  0  0  0
 63 64  1  0  0  0  0
 64 65  1  0  0  0  0
 64129  1  0  0  0  0
 65 66  1  0  0  0  0
 66 67  1  0  0  0  0
 66130  1  0  0  0  0
 67 68  1  0  0  0  0
 68 69  1  0  0  0  0
 68131  1  0  0  0  0
 69 70  1  0  0  0  0
 70 71  1  0  0  0  0
 70132  1  0  0  0  0
 71 72  1  0  0  0  0
 72 73  1  0  0  0  0
 72133  1  0  0  0  0
 73 74  1  0  0  0  0
 74 75  1  0  0  0  0
 74134  1  0  0  0  0
 75 76  1  0  0  0  0
 76 77  1  0  0  0  0
 76135  1  0  0  0  0
 77 78  1  0  0  0  0
 78 79  1  0  0  0  0
 78136  1  0  0  0  0
 79 80  1  0  0  0  0
 80 81  1  0  0  0  0
 80137  1  0  0  0  0
 81138  1  0  0  0  0
M  END
$$$$
