
 OpenBabel04232216563D

 69 70  0  0  0  0  0  0  0  0999 V2000
    3.4946   -3.4268   -0.8680 C   0  0  0  0  0  0  0  0  0  0  0  0
    5.0747   -3.8944   -0.0173 N   0  0  0  0  0  0  0  0  0  0  0  0
    4.7121   -1.8481    0.3014 O   0  0  3  0  0  0  0  0  0  0  0  0
    3.9719   -0.7132   -0.8884 C   0  0  0  0  0  0  0  0  0  0  0  0
    3.7886   -0.6084    1.3591 C   0  0  0  0  0  0  0  0  0  0  0  0
    2.1632    0.4054    1.3382 C   0  0  0  0  0  0  0  0  0  0  0  0
    1.6488   -0.0358    2.6874 C   0  0  0  0  0  0  0  0  0  0  0  0
    2.5916   -1.6105    3.1740 C   0  0  0  0  0  0  0  0  0  0  0  0
    3.6389   -3.1580    2.3573 C   0  0  0  0  0  0  0  0  0  0  0  0
    4.5441   -5.0023    1.9991 C   0  0  0  0  0  0  0  0  0  0  0  0
    3.2788   -5.5682    2.0873 C   0  0  0  0  0  0  0  0  0  0  0  0
    2.4736   -5.1403    0.9426 C   0  0  0  0  0  0  0  0  0  0  0  0
    2.0882   -6.0941    0.1382 C   0  0  0  0  0  0  0  0  0  0  0  0
    3.2013   -6.8168   -0.3783 C   0  0  0  0  0  0  0  0  0  0  0  0
    3.5492   -7.8907    0.3258 C   0  0  0  0  0  0  0  0  0  0  0  0
    4.4827   -8.6767   -0.3457 C   0  0  0  0  0  0  0  0  0  0  0  0
    4.5318   -9.9699   -0.1201 C   0  0  0  0  0  0  0  0  0  0  0  0
    5.3497  -10.7463   -0.9606 C   0  0  0  0  0  0  0  0  0  0  0  0
    5.5658  -12.0122   -0.6463 C   0  0  0  0  0  0  0  0  0  0  0  0
    6.4421  -12.6885   -1.5238 C   0  0  0  0  0  0  0  0  0  0  0  0
    6.6482  -13.9947   -1.4756 C   0  0  0  0  0  0  0  0  0  0  0  0
    7.5632  -14.4841   -2.4538 C   0  0  0  0  0  0  0  0  0  0  0  0
    7.8172  -15.7697   -2.6480 C   0  0  0  0  0  0  0  0  0  0  0  0
    8.9944  -16.1412   -3.4322 C   0  0  0  0  0  0  0  0  0  0  0  0
    9.5097  -17.1763   -2.7716 C   0  0  0  0  0  0  0  0  0  0  0  0
   10.4157  -16.2499   -1.6830 C   0  0  0  0  0  0  0  0  0  0  0  0
    9.6056  -14.9630   -0.8543 C   0  0  0  0  0  0  0  0  0  0  0  0
    9.3146  -13.0438   -0.6364 C   0  0  0  0  0  0  0  0  0  0  0  0
    8.5979  -11.3771   -0.2131 C   0  0  0  0  0  0  0  0  0  0  0  0
    7.4900   -9.6178    0.3494 C   0  0  0  0  0  0  0  0  0  0  0  0
    6.7644   -7.7784    0.3662 C   0  0  0  0  0  0  0  0  0  0  0  0
    5.7075   -5.8684    0.6994 N   0  0  0  0  0  0  0  0  0  0  0  0
    3.5569   -2.6461   -1.6403 H   0  0  0  0  0  0  0  0  0  0  0  0
    3.0716   -2.6086   -0.1735 H   0  0  0  0  0  0  0  0  0  0  0  0
    2.3900   -3.6271   -0.6704 H   0  0  0  0  0  0  0  0  0  0  0  0
    3.7742   -0.6825   -1.9645 H   0  0  0  0  0  0  0  0  0  0  0  0
    4.2645    0.3861   -0.7066 H   0  0  0  0  0  0  0  0  0  0  0  0
    2.8877   -0.4915   -0.5602 H   0  0  0  0  0  0  0  0  0  0  0  0
    4.1400    0.3700    0.9330 H   0  0  0  0  0  0  0  0  0  0  0  0
    4.3133   -0.2931    2.2640 H   0  0  0  0  0  0  0  0  0  0  0  0
    1.2983    0.4440    0.5927 H   0  0  0  0  0  0  0  0  0  0  0  0
    2.1972    1.5789    1.4425 H   0  0  0  0  0  0  0  0  0  0  0  0
    0.5152    0.1370    2.8119 H   0  0  0  0  0  0  0  0  0  0  0  0
    1.8749    0.8396    3.3929 H   0  0  0  0  0  0  0  0  0  0  0  0
    1.7954   -1.9185    3.8561 H   0  0  0  0  0  0  0  0  0  0  0  0
    3.3378   -1.0022    3.6966 H   0  0  0  0  0  0  0  0  0  0  0  0
    3.0943   -2.8915    1.4646 H   0  0  0  0  0  0  0  0  0  0  0  0
    2.7113   -3.5595    2.7924 H   0  0  0  0  0  0  0  0  0  0  0  0
    2.4179   -5.2000    2.6804 H   0  0  0  0  0  0  0  0  0  0  0  0
    3.1292   -4.4184    0.6110 H   0  0  0  0  0  0  0  0  0  0  0  0
    1.4917   -6.6552    0.8507 H   0  0  0  0  0  0  0  0  0  0  0  0
    3.8714   -6.4441   -1.1588 H   0  0  0  0  0  0  0  0  0  0  0  0
    3.0683   -8.1904    1.2573 H   0  0  0  0  0  0  0  0  0  0  0  0
    5.1145   -8.1906   -1.0889 H   0  0  0  0  0  0  0  0  0  0  0  0
    3.9486  -10.4137    0.6700 H   0  0  0  0  0  0  0  0  0  0  0  0
    5.8988  -10.2891   -1.7916 H   0  0  0  0  0  0  0  0  0  0  0  0
    5.1566  -12.4554    0.2544 H   0  0  0  0  0  0  0  0  0  0  0  0
    7.1037  -12.0721   -2.1480 H   0  0  0  0  0  0  0  0  0  0  0  0
    6.1909  -14.5931   -0.6955 H   0  0  0  0  0  0  0  0  0  0  0  0
    8.2724  -13.7828   -2.9005 H   0  0  0  0  0  0  0  0  0  0  0  0
    7.4921  -16.4454   -1.8363 H   0  0  0  0  0  0  0  0  0  0  0  0
    9.7902  -15.3667   -3.5729 H   0  0  0  0  0  0  0  0  0  0  0  0
    8.8060  -18.0108   -2.5538 H   0  0  0  0  0  0  0  0  0  0  0  0
   11.2340  -16.8135   -2.4669 H   0  0  0  0  0  0  0  0  0  0  0  0
    9.2839  -16.0674   -0.2966 H   0  0  0  0  0  0  0  0  0  0  0  0
   10.4603  -13.4177   -0.7287 H   0  0  0  0  0  0  0  0  0  0  0  0
    7.8462  -12.2538    0.1520 H   0  0  0  0  0  0  0  0  0  0  0  0
    8.3453   -9.5827   -0.5843 H   0  0  0  0  0  0  0  0  0  0  0  0
    7.7406   -7.2226    0.2355 H   0  0  0  0  0  0  0  0  0  0  0  0
  1  2  1  0  0  0  0
  1 33  1  0  0  0  0
  1 34  1  0  0  0  0
  1 35  1  0  0  0  0
  2  3  1  0  0  0  0
  2 32  1  0  0  0  0
  3  4  1  0  0  0  0
  3  5  1  0  0  0  0
  4 36  1  0  0  0  0
  4 37  1  0  0  0  0
  4 38  1  0  0  0  0
  5  6  1  0  0  0  0
  5 39  1  0  0  0  0
  5 40  1  0  0  0  0
  6  7  1  0  0  0  0
  6 41  1  0  0  0  0
  6 42  1  0  0  0  0
  7  8  1  0  0  0  0
  7 43  1  0  0  0  0
  7 44  1  0  0  0  0
  8  9  1  0  0  0  0
  8 45  1  0  0  0  0
  8 46  1  0  0  0  0
  9 10  1  0  0  0  0
  9 47  1  0  0  0  0
  9 48  1  0  0  0  0
 10 11  2  3  0  0  0
 10 32  1  0  0  0  0
 11 12  1  0  0  0  0
 11 49  1  0  0  0  0
 12 13  2  3  0  0  0
 12 50  1  0  0  0  0
 13 14  1  0  0  0  0
 13 51  1  0  0  0  0
 14 15  2  3  0  0  0
 14 52  1  0  0  0  0
 15 16  1  0  0  0  0
 15 53  1  0  0  0  0
 16 17  2  3  0  0  0
 16 54  1  0  0  0  0
 17 18  1  0  0  0  0
 17 55  1  0  0  0  0
 18 19  2  3  0  0  0
 18 56  1  0  0  0  0
 19 20  1  0  0  0  0
 19 57  1  0  0  0  0
 20 21  2  3  0  0  0
 20 58  1  0  0  0  0
 21 22  1  0  0  0  0
 21 59  1  0  0  0  0
 22 23  2  3  0  0  0
 22 60  1  0  0  0  0
 23 24  1  0  0  0  0
 23 61  1  0  0  0  0
 24 25  2  3  0  0  0
 24 62  1  0  0  0  0
 25 26  1  0  0  0  0
 25 63  1  0  0  0  0
 26 27  2  3  0  0  0
 26 64  1  0  0  0  0
 27 28  1  0  0  0  0
 27 65  1  0  0  0  0
 28 29  2  3  0  0  0
 28 66  1  0  0  0  0
 29 30  1  0  0  0  0
 29 67  1  0  0  0  0
 30 31  2  3  0  0  0
 30 68  1  0  0  0  0
 31 32  1  0  0  0  0
 31 69  1  0  0  0  0
M  END
$$$$
