
 OpenBabel04232216443D

 52 53  0  0  0  0  0  0  0  0999 V2000
    2.5452    0.4037    1.4230 C   0  0  0  0  0  0  0  0  0  0  0  0
    3.9596   -0.1249    1.2427 C   0  0  0  0  0  0  0  0  0  0  0  0
    4.0651   -1.3183    0.5963 C   0  0  0  0  0  0  0  0  0  0  0  0
    2.9894   -2.3624    0.8795 C   0  0  0  0  0  0  0  0  0  0  0  0
    5.2338   -1.6667   -0.2504 C   0  0  0  0  0  0  0  0  0  0  0  0
    5.9115   -0.4807   -0.9530 C   0  0  0  0  0  0  0  0  0  0  0  0
    6.5731   -0.5781   -2.3353 C   0  0  0  0  0  0  0  0  0  0  0  0
    5.7307   -2.9222   -0.1989 C   0  0  0  0  0  0  0  0  0  0  0  0
    7.1291   -3.1841   -0.4445 C   0  0  0  0  0  0  0  0  0  0  0  0
    7.7614   -3.8729    0.5263 C   0  0  0  0  0  0  0  0  0  0  0  0
    8.7773   -3.1429    1.2923 C   0  0  0  0  0  0  0  0  0  0  0  0
    9.8713   -2.6142    0.7289 C   0  0  0  0  0  0  0  0  0  0  0  0
    8.4156   -2.9535    2.6466 N   0  0  0  0  0  0  0  0  0  0  0  0
    8.5659   -4.2311    3.4245 C   0  0  0  0  0  0  0  0  0  0  0  0
    7.1300   -2.1726    2.8404 N   0  0  0  0  0  0  0  0  0  0  0  0
    7.2181   -0.9566    2.4327 C   0  0  0  0  0  0  0  0  0  0  0  0
    6.2909    0.3262    2.1419 C   0  0  0  0  0  0  0  0  0  0  0  0
    5.0916    0.7626    1.6082 C   0  0  0  0  0  0  0  0  0  0  0  0
    4.8910    2.3648    1.3147 C   0  0  0  0  0  0  0  0  0  0  0  0
    3.8503    2.8831    0.2423 C   0  0  0  0  0  0  0  0  0  0  0  0
    3.6618    4.3649   -0.2423 C   0  0  0  0  0  0  0  0  0  0  0  0
    3.8254    5.0325   -1.4876 C   0  0  0  0  0  0  0  0  0  0  0  0
    3.0545    6.0592   -1.0636 C   0  0  0  0  0  0  0  0  0  0  0  0
    2.9109    5.4011    0.1994 C   0  0  0  0  0  0  0  0  0  0  0  0
    1.8264   -0.3172    1.8153 H   0  0  0  0  0  0  0  0  0  0  0  0
    2.1784    0.6863    0.4177 H   0  0  0  0  0  0  0  0  0  0  0  0
    2.4805    1.2783    2.0702 H   0  0  0  0  0  0  0  0  0  0  0  0
    2.0091   -2.0690    0.4986 H   0  0  0  0  0  0  0  0  0  0  0  0
    2.9062   -2.4909    1.9729 H   0  0  0  0  0  0  0  0  0  0  0  0
    3.1956   -3.3572    0.4845 H   0  0  0  0  0  0  0  0  0  0  0  0
    6.6956   -0.1085   -0.2969 H   0  0  0  0  0  0  0  0  0  0  0  0
    5.1821    0.3213   -1.0822 H   0  0  0  0  0  0  0  0  0  0  0  0
    7.0840   -1.5169   -2.5460 H   0  0  0  0  0  0  0  0  0  0  0  0
    7.3242    0.2214   -2.4019 H   0  0  0  0  0  0  0  0  0  0  0  0
    5.8463   -0.4053   -3.1325 H   0  0  0  0  0  0  0  0  0  0  0  0
    5.2255   -3.6712    0.4098 H   0  0  0  0  0  0  0  0  0  0  0  0
    7.7029   -2.3856   -0.8955 H   0  0  0  0  0  0  0  0  0  0  0  0
    7.1815   -4.5657    1.1349 H   0  0  0  0  0  0  0  0  0  0  0  0
   10.0477   -2.6846   -0.3395 H   0  0  0  0  0  0  0  0  0  0  0  0
   10.5786   -2.0447    1.3174 H   0  0  0  0  0  0  0  0  0  0  0  0
    7.6142   -4.7493    3.5708 H   0  0  0  0  0  0  0  0  0  0  0  0
    9.0758   -4.0770    4.3795 H   0  0  0  0  0  0  0  0  0  0  0  0
    9.2142   -4.9408    2.8740 H   0  0  0  0  0  0  0  0  0  0  0  0
    8.2638   -0.6388    2.2356 H   0  0  0  0  0  0  0  0  0  0  0  0
    6.9882    1.1491    2.3264 H   0  0  0  0  0  0  0  0  0  0  0  0
    5.8729    2.7550    1.0126 H   0  0  0  0  0  0  0  0  0  0  0  0
    4.6513    2.8369    2.2757 H   0  0  0  0  0  0  0  0  0  0  0  0
    2.8724    2.7237    0.7017 H   0  0  0  0  0  0  0  0  0  0  0  0
    3.9642    2.2858   -0.6648 H   0  0  0  0  0  0  0  0  0  0  0  0
    4.3242    4.8165   -2.4317 H   0  0  0  0  0  0  0  0  0  0  0  0
    2.6547    6.9659   -1.4977 H   0  0  0  0  0  0  0  0  0  0  0  0
    2.2810    5.6175    1.0625 H   0  0  0  0  0  0  0  0  0  0  0  0
  1  2  1  0  0  0  0
  1 25  1  0  0  0  0
  1 26  1  0  0  0  0
  1 27  1  0  0  0  0
  2  3  2  3  0  0  0
  2 18  1  0  0  0  0
  3  4  1  0  0  0  0
  3  5  1  0  0  0  0
  4 28  1  0  0  0  0
  4 29  1  0  0  0  0
  4 30  1  0  0  0  0
  5  6  1  0  0  0  0
  5  8  2  3  0  0  0
  6  7  1  0  0  0  0
  6 31  1  0  0  0  0
  6 32  1  0  0  0  0
  7 33  1  0  0  0  0
  7 34  1  0  0  0  0
  7 35  1  0  0  0  0
  8  9  1  0  0  0  0
  8 36  1  0  0  0  0
  9 10  2  3  0  0  0
  9 37  1  0  0  0  0
 10 11  1  0  0  0  0
 10 38  1  0  0  0  0
 11 12  2  0  0  0  0
 11 13  1  0  0  0  0
 12 39  1  0  0  0  0
 12 40  1  0  0  0  0
 13 14  1  0  0  0  0
 13 15  1  0  0  0  0
 14 41  1  0  0  0  0
 14 42  1  0  0  0  0
 14 43  1  0  0  0  0
 15 16  2  3  0  0  0
 16 17  1  0  0  0  0
 16 44  1  0  0  0  0
 17 18  2  3  0  0  0
 17 45  1  0  0  0  0
 18 19  1  0  0  0  0
 19 20  1  0  0  0  0
 19 46  1  0  0  0  0
 19 47  1  0  0  0  0
 20 21  1  0  0  0  0
 20 48  1  0  0  0  0
 20 49  1  0  0  0  0
 21 22  1  0  0  0  0
 21 24  2  0  0  0  0
 22 23  2  0  0  0  0
 22 50  1  0  0  0  0
 23 24  1  0  0  0  0
 23 51  1  0  0  0  0
 24 52  1  0  0  0  0
M  END
$$$$
