
 OpenBabel04232216453D

 49 50  0  0  0  0  0  0  0  0999 V2000
    9.5486    0.4473    3.1603 C   0  0  0  0  0  0  0  0  0  0  0  0
   10.4567    1.5154    2.3595 C   0  0  0  0  0  0  0  0  0  0  0  0
    9.1482    1.6749    1.1289 C   0  0  0  0  0  0  0  0  0  0  0  0
    7.7441    1.4058    0.8489 C   0  0  0  0  0  0  0  0  0  0  0  0
    6.9978    0.4137   -0.1204 C   0  0  0  0  0  0  0  0  0  0  0  0
    6.4687    2.4057    1.1871 C   0  0  0  0  0  0  0  0  0  0  0  0
    6.7998    3.7488    1.7754 C   0  0  0  0  0  0  0  0  0  0  0  0
    7.3820    4.7560    2.7736 C   0  0  0  0  0  0  0  0  0  0  0  0
    8.8484    4.4468    2.8453 C   0  0  0  0  0  0  0  0  0  0  0  0
    9.9257    5.4439    2.6475 C   0  0  0  0  0  0  0  0  0  0  0  0
   10.9999    4.6604    1.8698 C   0  0  0  0  0  0  0  0  0  0  0  0
   11.6673    3.9193    2.8898 N   0  0  0  0  0  0  0  0  0  0  0  0
   12.8343    4.6583    3.1139 N   0  0  0  0  0  0  0  0  0  0  0  0
   12.7566    5.7643    3.7235 N   0  0  0  0  0  0  0  0  0  0  0  0
   13.8917    6.4895    3.3326 N   0  0  0  0  0  0  0  0  0  0  0  0
   14.6724    6.9356    4.2263 C   0  0  0  0  0  0  0  0  0  0  0  0
   16.1521    7.0860    3.8021 C   0  0  0  0  0  0  0  0  0  0  0  0
   16.7308    6.1307    4.5580 C   0  0  0  0  0  0  0  0  0  0  0  0
   16.6809    4.6540    4.2683 C   0  0  0  0  0  0  0  0  0  0  0  0
   15.6512    3.7723    4.7007 C   0  0  0  0  0  0  0  0  0  0  0  0
   14.2583    3.0483    4.0442 C   0  0  0  0  0  0  0  0  0  0  0  0
   13.3171    2.1574    3.3465 C   0  0  0  0  0  0  0  0  0  0  0  0
   11.6237    2.4442    2.9306 C   0  0  0  0  0  0  0  0  0  0  0  0
    8.4642    0.7021    3.0679 H   0  0  0  0  0  0  0  0  0  0  0  0
    9.6318    0.4071    4.2420 H   0  0  0  0  0  0  0  0  0  0  0  0
    9.5695   -0.5531    2.6957 H   0  0  0  0  0  0  0  0  0  0  0  0
    8.9405    2.5072    1.7252 H   0  0  0  0  0  0  0  0  0  0  0  0
    5.8914    0.5751   -0.0699 H   0  0  0  0  0  0  0  0  0  0  0  0
    7.0750   -0.6295    0.1836 H   0  0  0  0  0  0  0  0  0  0  0  0
    7.1891    0.5623   -1.1886 H   0  0  0  0  0  0  0  0  0  0  0  0
    5.6903    1.9063    1.7930 H   0  0  0  0  0  0  0  0  0  0  0  0
    5.9212    2.6648    0.2549 H   0  0  0  0  0  0  0  0  0  0  0  0
    7.4070    4.0435    0.8982 H   0  0  0  0  0  0  0  0  0  0  0  0
    7.1734    3.0426    2.5407 H   0  0  0  0  0  0  0  0  0  0  0  0
    6.9099    4.6679    3.7541 H   0  0  0  0  0  0  0  0  0  0  0  0
    7.2257    5.7635    2.3907 H   0  0  0  0  0  0  0  0  0  0  0  0
    8.9826    4.0601    1.8565 H   0  0  0  0  0  0  0  0  0  0  0  0
    9.0742    3.6563    3.5802 H   0  0  0  0  0  0  0  0  0  0  0  0
   10.2472    5.7798    3.6372 H   0  0  0  0  0  0  0  0  0  0  0  0
    9.5902    6.2858    2.0544 H   0  0  0  0  0  0  0  0  0  0  0  0
   11.6965    5.3258    1.3430 H   0  0  0  0  0  0  0  0  0  0  0  0
   10.6981    3.9564    1.0887 H   0  0  0  0  0  0  0  0  0  0  0  0
   14.4666    7.1230    5.2469 H   0  0  0  0  0  0  0  0  0  0  0  0
   16.1427    6.9387    2.7145 H   0  0  0  0  0  0  0  0  0  0  0  0
   17.4912    6.5040    5.2597 H   0  0  0  0  0  0  0  0  0  0  0  0
   17.6434    4.4115    4.6999 H   0  0  0  0  0  0  0  0  0  0  0  0
   15.4289    3.9914    5.7589 H   0  0  0  0  0  0  0  0  0  0  0  0
   14.8495    3.3221    3.1220 H   0  0  0  0  0  0  0  0  0  0  0  0
   13.7506    1.8071    2.3932 H   0  0  0  0  0  0  0  0  0  0  0  0
  1  2  1  0  0  0  0
  1 24  1  0  0  0  0
  1 25  1  0  0  0  0
  1 26  1  0  0  0  0
  2  3  1  0  0  0  0
  2 23  2  3  0  0  0
  3  4  2  3  0  0  0
  3 27  1  0  0  0  0
  4  5  1  0  0  0  0
  4  6  1  0  0  0  0
  5 28  1  0  0  0  0
  5 29  1  0  0  0  0
  5 30  1  0  0  0  0
  6  7  1  0  0  0  0
  6 31  1  0  0  0  0
  6 32  1  0  0  0  0
  7  8  1  0  0  0  0
  7 33  1  0  0  0  0
  7 34  1  0  0  0  0
  8  9  1  0  0  0  0
  8 35  1  0  0  0  0
  8 36  1  0  0  0  0
  9 10  1  0  0  0  0
  9 37  1  0  0  0  0
  9 38  1  0  0  0  0
 10 11  1  0  0  0  0
 10 39  1  0  0  0  0
 10 40  1  0  0  0  0
 11 12  1  0  0  0  0
 11 41  1  0  0  0  0
 11 42  1  0  0  0  0
 12 13  1  0  0  0  0
 12 23  1  0  0  0  0
 13 14  2  3  0  0  0
 14 15  1  0  0  0  0
 15 16  2  3  0  0  0
 16 17  1  0  0  0  0
 16 43  1  0  0  0  0
 17 18  2  3  0  0  0
 17 44  1  0  0  0  0
 18 19  1  0  0  0  0
 18 45  1  0  0  0  0
 19 20  2  3  0  0  0
 19 46  1  0  0  0  0
 20 21  1  0  0  0  0
 20 47  1  0  0  0  0
 21 22  2  3  0  0  0
 21 48  1  0  0  0  0
 22 23  1  0  0  0  0
 22 49  1  0  0  0  0
M  END
$$$$
