
 OpenBabel04232216423D

 50 53  0  0  0  0  0  0  0  0999 V2000
    2.2722    1.0089   -0.0412 C   0  0  0  0  0  0  0  0  0  0  0  0
    2.7691   -0.2361   -0.2243 C   0  0  0  0  0  0  0  0  0  0  0  0
    3.6214   -1.0060    0.5825 N   0  0  0  0  0  0  0  0  0  0  0  0
    4.4994   -0.3570    1.4857 C   0  0  0  0  0  0  0  0  0  0  0  0
    5.4536    0.6032    0.7422 C   0  0  0  0  0  0  0  0  0  0  0  0
    4.9455   -1.0378    2.5946 C   0  0  0  0  0  0  0  0  0  0  0  0
    4.1443   -2.1558    3.3768 C   0  0  0  0  0  0  0  0  0  0  0  0
    3.6450   -2.0076    4.7655 C   0  0  0  0  0  0  0  0  0  0  0  0
    2.6369   -1.0701    4.9906 C   0  0  0  0  0  0  0  0  0  0  0  0
    1.8361   -1.1998    6.1190 C   0  0  0  0  0  0  0  0  0  0  0  0
    2.0444   -2.2341    7.0221 C   0  0  0  0  0  0  0  0  0  0  0  0
    3.0667   -3.1626    6.8149 C   0  0  0  0  0  0  0  0  0  0  0  0
    3.8616   -3.0502    5.6903 C   0  0  0  0  0  0  0  0  0  0  0  0
    6.0814   -1.8443    2.0366 C   0  0  0  0  0  0  0  0  0  0  0  0
    6.9591   -2.6109    2.8205 C   0  0  0  0  0  0  0  0  0  0  0  0
    7.1003   -3.4933    1.8086 C   0  0  0  0  0  0  0  0  0  0  0  0
    8.5389   -4.0466    1.6206 C   0  0  0  0  0  0  0  0  0  0  0  0
    8.7792   -5.5340    1.6189 C   0  0  0  0  0  0  0  0  0  0  0  0
    5.9152   -2.8631    1.1472 C   0  0  0  0  0  0  0  0  0  0  0  0
    4.5441   -3.3390    0.7257 N   0  0  0  0  0  0  0  0  0  0  0  0
    3.5291   -2.4554    0.6401 C   0  0  0  0  0  0  0  0  0  0  0  0
    1.9859   -2.7765    0.8175 C   0  0  0  0  0  0  0  0  0  0  0  0
    1.1584   -3.7098    1.6955 C   0  0  0  0  0  0  0  0  0  0  0  0
    1.2788   -4.9414    2.4140 C   0  0  0  0  0  0  0  0  0  0  0  0
    0.0200   -4.7987    2.8932 C   0  0  0  0  0  0  0  0  0  0  0  0
   -0.0935   -3.5665    2.2007 C   0  0  0  0  0  0  0  0  0  0  0  0
    1.6346    1.4711   -0.7802 H   0  0  0  0  0  0  0  0  0  0  0  0
    2.4912    1.5767    0.8548 H   0  0  0  0  0  0  0  0  0  0  0  0
    2.4888   -0.7634   -1.1322 H   0  0  0  0  0  0  0  0  0  0  0  0
    4.9337    1.4907    0.3650 H   0  0  0  0  0  0  0  0  0  0  0  0
    5.8847    0.0961   -0.1372 H   0  0  0  0  0  0  0  0  0  0  0  0
    6.2801    0.9468    1.3647 H   0  0  0  0  0  0  0  0  0  0  0  0
    4.6753   -3.1233    3.3742 H   0  0  0  0  0  0  0  0  0  0  0  0
    3.2322   -2.4023    2.8518 H   0  0  0  0  0  0  0  0  0  0  0  0
    2.4096   -0.3402    4.2248 H   0  0  0  0  0  0  0  0  0  0  0  0
    1.0006   -0.5133    6.2453 H   0  0  0  0  0  0  0  0  0  0  0  0
    1.3815   -2.3497    7.8769 H   0  0  0  0  0  0  0  0  0  0  0  0
    3.1957   -4.0023    7.4950 H   0  0  0  0  0  0  0  0  0  0  0  0
    4.5812   -3.8458    5.4702 H   0  0  0  0  0  0  0  0  0  0  0  0
    7.5357   -2.3387    3.7047 H   0  0  0  0  0  0  0  0  0  0  0  0
    9.1032   -3.7052    2.5120 H   0  0  0  0  0  0  0  0  0  0  0  0
    9.0295   -3.5818    0.7593 H   0  0  0  0  0  0  0  0  0  0  0  0
    8.1901   -6.0483    2.3826 H   0  0  0  0  0  0  0  0  0  0  0  0
    9.8385   -5.7275    1.8441 H   0  0  0  0  0  0  0  0  0  0  0  0
    8.5702   -5.9646    0.6386 H   0  0  0  0  0  0  0  0  0  0  0  0
    1.4647   -2.6583   -0.1420 H   0  0  0  0  0  0  0  0  0  0  0  0
    1.6191   -1.8416    1.3002 H   0  0  0  0  0  0  0  0  0  0  0  0
    2.0426   -5.6933    2.5311 H   0  0  0  0  0  0  0  0  0  0  0  0
   -0.6383   -5.3635    3.5496 H   0  0  0  0  0  0  0  0  0  0  0  0
   -0.8820   -2.8120    2.1620 H   0  0  0  0  0  0  0  0  0  0  0  0
  1  2  2  0  0  0  0
  1 27  1  0  0  0  0
  1 28  1  0  0  0  0
  2  3  1  0  0  0  0
  2 29  1  0  0  0  0
  3  4  1  0  0  0  0
  3 21  1  0  0  0  0
  4  5  1  0  0  0  0
  4  6  2  0  0  0  0
  5 30  1  0  0  0  0
  5 31  1  0  0  0  0
  5 32  1  0  0  0  0
  6  7  1  0  0  0  0
  6 14  1  0  0  0  0
  7  8  1  0  0  0  0
  7 33  1  0  0  0  0
  7 34  1  0  0  0  0
  8  9  1  0  0  0  0
  8 13  2  0  0  0  0
  9 10  2  0  0  0  0
  9 35  1  0  0  0  0
 10 11  1  0  0  0  0
 10 36  1  0  0  0  0
 11 12  2  0  0  0  0
 11 37  1  0  0  0  0
 12 13  1  0  0  0  0
 12 38  1  0  0  0  0
 13 39  1  0  0  0  0
 14 15  1  0  0  0  0
 14 19  2  0  0  0  0
 15 16  2  0  0  0  0
 15 40  1  0  0  0  0
 16 17  1  0  0  0  0
 16 19  1  0  0  0  0
 17 18  1  0  0  0  0
 17 41  1  0  0  0  0
 17 42  1  0  0  0  0
 18 43  1  0  0  0  0
 18 44  1  0  0  0  0
 18 45  1  0  0  0  0
 19 20  1  0  0  0  0
 20 21  2  0  0  0  0
 21 22  1  0  0  0  0
 22 23  1  0  0  0  0
 22 46  1  0  0  0  0
 22 47  1  0  0  0  0
 23 24  1  0  0  0  0
 23 26  2  0  0  0  0
 24 25  2  0  0  0  0
 24 48  1  0  0  0  0
 25 26  1  0  0  0  0
 25 49  1  0  0  0  0
 26 50  1  0  0  0  0
M  END
$$$$
