
 OpenBabel04232216463D

 39 39  0  0  0  0  0  0  0  0999 V2000
    6.5459   -3.7160   -0.5331 C   0  0  0  0  0  0  0  0  0  0  0  0
    7.2801   -3.6748    0.7876 C   0  0  0  0  0  0  0  0  0  0  0  0
    6.5786   -2.7920    1.7916 C   0  0  0  0  0  0  0  0  0  0  0  0
    6.0241   -1.5338    1.7759 C   0  0  0  0  0  0  0  0  0  0  0  0
    5.4407   -0.6301    0.7168 C   0  0  0  0  0  0  0  0  0  0  0  0
    6.4172   -0.8539    2.9107 N   0  0  0  0  0  0  0  0  0  0  0  0
    7.7013   -0.5215    2.8162 C   0  0  0  0  0  0  0  0  0  0  0  0
    8.3492   -0.0610    1.5186 C   0  0  0  0  0  0  0  0  0  0  0  0
    8.4179   -1.0005    3.8939 N   0  0  0  0  0  0  0  0  0  0  0  0
    9.4824   -1.7120    3.6908 C   0  0  0  0  0  0  0  0  0  0  0  0
   10.6094   -1.3778    2.7282 C   0  0  0  0  0  0  0  0  0  0  0  0
    9.5101   -2.9437    4.3046 N   0  0  0  0  0  0  0  0  0  0  0  0
   10.6065   -3.2825    4.8818 C   0  0  0  0  0  0  0  0  0  0  0  0
   10.8422   -4.5761    5.2929 N   0  0  0  0  0  0  0  0  0  0  0  0
   12.0570   -4.6305    5.5362 N   0  0  0  0  0  0  0  0  0  0  0  0
   12.6500   -5.8246    5.3102 N   0  0  0  0  0  0  0  0  0  0  0  0
   12.9771   -6.0169    4.0547 C   0  0  0  0  0  0  0  0  0  0  0  0
   14.1467   -6.6124    3.8493 F   0  0  0  0  0  0  0  0  0  0  0  0
   12.4072   -5.4007    2.9242 N   0  0  0  0  0  0  0  0  0  0  0  0
   11.1748   -5.5737    2.6881 N   0  0  0  0  0  0  0  0  0  0  0  0
   10.7306   -4.6573    1.7166 C   0  0  0  0  0  0  0  0  0  0  0  0
    9.5714   -4.2374    1.1444 C   0  0  0  0  0  0  0  0  0  0  0  0
    8.2010   -4.5657    1.1498 N   0  0  0  0  0  0  0  0  0  0  0  0
    5.9764   -4.6460   -0.5805 H   0  0  0  0  0  0  0  0  0  0  0  0
    7.2191   -3.6056   -1.3789 H   0  0  0  0  0  0  0  0  0  0  0  0
    5.8109   -2.9078   -0.5940 H   0  0  0  0  0  0  0  0  0  0  0  0
    6.6293   -3.2528    2.7784 H   0  0  0  0  0  0  0  0  0  0  0  0
    4.3465   -0.7131    0.6979 H   0  0  0  0  0  0  0  0  0  0  0  0
    5.8417   -0.7746   -0.2778 H   0  0  0  0  0  0  0  0  0  0  0  0
    5.6041    0.4427    0.9692 H   0  0  0  0  0  0  0  0  0  0  0  0
    7.6578    0.4501    0.8513 H   0  0  0  0  0  0  0  0  0  0  0  0
    8.7394   -0.9139    0.9608 H   0  0  0  0  0  0  0  0  0  0  0  0
    9.1282    0.6753    1.7066 H   0  0  0  0  0  0  0  0  0  0  0  0
   10.6220   -0.3198    2.4855 H   0  0  0  0  0  0  0  0  0  0  0  0
   10.5431   -1.9418    1.8043 H   0  0  0  0  0  0  0  0  0  0  0  0
   11.5890   -1.5794    3.1653 H   0  0  0  0  0  0  0  0  0  0  0  0
   11.4474   -2.5709    4.9674 H   0  0  0  0  0  0  0  0  0  0  0  0
   11.5795   -4.0480    1.3828 H   0  0  0  0  0  0  0  0  0  0  0  0
    9.7657   -3.4086    0.4393 H   0  0  0  0  0  0  0  0  0  0  0  0
  1  2  1  0  0  0  0
  1 24  1  0  0  0  0
  1 25  1  0  0  0  0
  1 26  1  0  0  0  0
  2  3  1  0  0  0  0
  2 23  2  3  0  0  0
  3  4  2  3  0  0  0
  3 27  1  0  0  0  0
  4  5  1  0  0  0  0
  4  6  1  0  0  0  0
  5 28  1  0  0  0  0
  5 29  1  0  0  0  0
  5 30  1  0  0  0  0
  6  7  2  3  0  0  0
  7  8  1  0  0  0  0
  7  9  1  0  0  0  0
  8 31  1  0  0  0  0
  8 32  1  0  0  0  0
  8 33  1  0  0  0  0
  9 10  2  3  0  0  0
 10 11  1  0  0  0  0
 10 12  1  0  0  0  0
 11 34  1  0  0  0  0
 11 35  1  0  0  0  0
 11 36  1  0  0  0  0
 12 13  2  3  0  0  0
 13 14  1  0  0  0  0
 13 37  1  0  0  0  0
 14 15  2  3  0  0  0
 15 16  1  0  0  0  0
 16 17  2  3  0  0  0
 17 18  1  0  0  0  0
 17 19  1  0  0  0  0
 19 20  2  3  0  0  0
 20 21  1  0  0  0  0
 21 22  2  3  0  0  0
 21 38  1  0  0  0  0
 22 23  1  0  0  0  0
 22 39  1  0  0  0  0
M  END
$$$$
