
 OpenBabel04232216523D

 71 72  0  0  1  0  0  0  0  0999 V2000
   11.3259  -19.6475   -5.4692 C   0  0  0  0  0  0  0  0  0  0  0  0
   10.6655  -18.2847   -5.5949 C   0  0  0  0  0  0  0  0  0  0  0  0
   11.7123  -17.1806   -5.7199 C   0  0  0  0  0  0  0  0  0  0  0  0
   11.0639  -15.8046   -5.8438 C   0  0  0  0  0  0  0  0  0  0  0  0
   12.1291  -14.7164   -5.9704 C   0  0  0  0  0  0  0  0  0  0  0  0
   11.4886  -13.3395   -6.1079 C   0  0  0  0  0  0  0  0  0  0  0  0
   12.5476  -12.2461   -6.2575 C   0  0  0  0  0  0  0  0  0  0  0  0
   11.8707  -10.8841   -6.3813 C   0  0  0  0  0  0  0  0  0  0  0  0
   12.8766   -9.7351   -6.5103 C   0  0  0  0  0  0  0  0  0  0  0  0
   12.1993   -8.3563   -6.6235 C   0  0  0  0  0  0  0  0  0  0  0  0
   11.3679   -8.0699   -5.3794 C   0  0  0  0  0  0  0  0  0  0  0  0
   10.5965   -6.7454   -5.3354 C   0  0  3  0  0  0  0  0  0  0  0  0
   11.3748   -5.4421   -5.4293 C   0  0  0  0  0  0  0  0  0  0  0  0
   12.6239   -5.3820   -4.6036 C   0  0  0  0  0  0  0  0  0  0  0  0
   13.6989   -5.1422   -5.1708 O   0  0  0  0  0  0  0  0  0  0  0  0
   12.6168   -5.6228   -3.1260 C   0  0  0  0  0  0  0  0  0  0  0  0
   11.6396   -6.2972   -2.4876 C   0  0  0  0  0  0  0  0  0  0  0  0
   10.2701   -6.6399   -2.8197 C   0  0  0  0  0  0  0  0  0  0  0  0
    9.2718   -6.9245   -1.6844 C   0  0  0  0  0  0  0  0  0  0  0  0
    9.7349   -7.4059   -0.2973 C   0  0  0  0  0  0  0  0  0  0  0  0
   10.1129   -6.2961    0.6857 C   0  0  0  0  0  0  0  0  0  0  0  0
   11.6202   -6.0725    0.8538 C   0  0  0  0  0  0  0  0  0  0  0  0
   12.0151   -4.6654    0.3971 C   0  0  0  0  0  0  0  0  0  0  0  0
   13.5055   -4.5399    0.0851 C   0  0  0  0  0  0  0  0  0  0  0  0
   13.7814   -4.0704   -1.3502 C   0  0  0  0  0  0  0  0  0  0  0  0
   13.8989   -5.2004   -2.4047 C   0  0  0  0  0  0  0  0  0  0  0  0
    9.7879   -6.7783   -4.0650 C   0  0  0  0  0  0  0  0  0  0  0  0
   10.5678  -20.4316   -5.3849 H   0  0  0  0  0  0  0  0  0  0  0  0
   11.9634  -19.6916   -4.5803 H   0  0  0  0  0  0  0  0  0  0  0  0
   11.9450  -19.8637   -6.3459 H   0  0  0  0  0  0  0  0  0  0  0  0
   10.0347  -18.1049   -4.7166 H   0  0  0  0  0  0  0  0  0  0  0  0
   10.0096  -18.2789   -6.4733 H   0  0  0  0  0  0  0  0  0  0  0  0
   12.3408  -17.3688   -6.5990 H   0  0  0  0  0  0  0  0  0  0  0  0
   12.3710  -17.1975   -4.8427 H   0  0  0  0  0  0  0  0  0  0  0  0
   10.4362  -15.6088   -4.9657 H   0  0  0  0  0  0  0  0  0  0  0  0
   10.4070  -15.7824   -6.7220 H   0  0  0  0  0  0  0  0  0  0  0  0
   12.7606  -14.9165   -6.8432 H   0  0  0  0  0  0  0  0  0  0  0  0
   12.7795  -14.7323   -5.0871 H   0  0  0  0  0  0  0  0  0  0  0  0
   10.8671  -13.1360   -5.2275 H   0  0  0  0  0  0  0  0  0  0  0  0
   10.8237  -13.3268   -6.9801 H   0  0  0  0  0  0  0  0  0  0  0  0
   13.1690  -12.4375   -7.1369 H   0  0  0  0  0  0  0  0  0  0  0  0
   13.2064  -12.2502   -5.3793 H   0  0  0  0  0  0  0  0  0  0  0  0
   11.2502  -10.7531   -5.4900 H   0  0  0  0  0  0  0  0  0  0  0  0
   11.1985  -10.8783   -7.2480 H   0  0  0  0  0  0  0  0  0  0  0  0
   13.5038   -9.8955   -7.3952 H   0  0  0  0  0  0  0  0  0  0  0  0
   13.5461   -9.7389   -5.6412 H   0  0  0  0  0  0  0  0  0  0  0  0
   11.5667   -8.3231   -7.5162 H   0  0  0  0  0  0  0  0  0  0  0  0
   12.9748   -7.5921   -6.7398 H   0  0  0  0  0  0  0  0  0  0  0  0
   12.0213   -8.1816   -4.5042 H   0  0  0  0  0  0  0  0  0  0  0  0
   10.6071   -8.8545   -5.2815 H   0  0  0  0  0  0  0  0  0  0  0  0
    9.8814   -6.7428   -6.1629 H   0  0  0  0  0  0  0  0  0  0  0  0
   10.7541   -4.5770   -5.1737 H   0  0  0  0  0  0  0  0  0  0  0  0
   11.6717   -5.2993   -6.4800 H   0  0  0  0  0  0  0  0  0  0  0  0
   11.9343   -6.6870   -1.5283 H   0  0  0  0  0  0  0  0  0  0  0  0
    8.5963   -7.7167   -2.0481 H   0  0  0  0  0  0  0  0  0  0  0  0
    8.6342   -6.0308   -1.5555 H   0  0  0  0  0  0  0  0  0  0  0  0
   10.5024   -8.1884   -0.3740 H   0  0  0  0  0  0  0  0  0  0  0  0
    8.8578   -7.9172    0.1467 H   0  0  0  0  0  0  0  0  0  0  0  0
    9.7209   -6.5720    1.6723 H   0  0  0  0  0  0  0  0  0  0  0  0
    9.5973   -5.3672    0.4146 H   0  0  0  0  0  0  0  0  0  0  0  0
   12.2034   -6.8483    0.3503 H   0  0  0  0  0  0  0  0  0  0  0  0
   11.8900   -6.1841    1.9103 H   0  0  0  0  0  0  0  0  0  0  0  0
   11.7579   -3.9681    1.2052 H   0  0  0  0  0  0  0  0  0  0  0  0
   11.4187   -4.3499   -0.4655 H   0  0  0  0  0  0  0  0  0  0  0  0
   14.0536   -5.4648    0.2947 H   0  0  0  0  0  0  0  0  0  0  0  0
   13.9204   -3.7863    0.7696 H   0  0  0  0  0  0  0  0  0  0  0  0
   14.7560   -3.5618   -1.3212 H   0  0  0  0  0  0  0  0  0  0  0  0
   13.0614   -3.3033   -1.6607 H   0  0  0  0  0  0  0  0  0  0  0  0
   14.4046   -6.0713   -1.9825 H   0  0  0  0  0  0  0  0  0  0  0  0
   14.6019   -4.7957   -3.1439 H   0  0  0  0  0  0  0  0  0  0  0  0
    8.7506   -7.0464   -4.2171 H   0  0  0  0  0  0  0  0  0  0  0  0
  1  2  1  0  0  0  0
  1 28  1  0  0  0  0
  1 29  1  0  0  0  0
  1 30  1  0  0  0  0
  2  3  1  0  0  0  0
  2 31  1  0  0  0  0
  2 32  1  0  0  0  0
  3  4  1  0  0  0  0
  3 33  1  0  0  0  0
  3 34  1  0  0  0  0
  4  5  1  0  0  0  0
  4 35  1  0  0  0  0
  4 36  1  0  0  0  0
  5  6  1  0  0  0  0
  5 37  1  0  0  0  0
  5 38  1  0  0  0  0
  6  7  1  0  0  0  0
  6 39  1  0  0  0  0
  6 40  1  0  0  0  0
  7  8  1  0  0  0  0
  7 41  1  0  0  0  0
  7 42  1  0  0  0  0
  8  9  1  0  0  0  0
  8 43  1  0  0  0  0
  8 44  1  0  0  0  0
  9 10  1  0  0  0  0
  9 45  1  0  0  0  0
  9 46  1  0  0  0  0
 10 11  1  0  0  0  0
 10 47  1  0  0  0  0
 10 48  1  0  0  0  0
 11 12  1  0  0  0  0
 11 49  1  0  0  0  0
 11 50  1  0  0  0  0
 12 13  1  0  0  0  0
 12 27  1  0  0  0  0
 12 51  1  0  0  0  0
 13 14  1  0  0  0  0
 13 52  1  0  0  0  0
 13 53  1  0  0  0  0
 14 15  2  0  0  0  0
 14 16  1  0  0  0  0
 16 17  2  0  0  0  0
 16 26  1  0  0  0  0
 17 18  1  0  0  0  0
 17 54  1  0  0  0  0
 18 19  1  0  0  0  0
 18 27  2  0  0  0  0
 19 20  1  0  0  0  0
 19 55  1  0  0  0  0
 19 56  1  0  0  0  0
 20 21  1  0  0  0  0
 20 57  1  0  0  0  0
 20 58  1  0  0  0  0
 21 22  1  0  0  0  0
 21 59  1  0  0  0  0
 21 60  1  0  0  0  0
 22 23  1  0  0  0  0
 22 61  1  0  0  0  0
 22 62  1  0  0  0  0
 23 24  1  0  0  0  0
 23 63  1  0  0  0  0
 23 64  1  0  0  0  0
 24 25  1  0  0  0  0
 24 65  1  0  0  0  0
 24 66  1  0  0  0  0
 25 26  1  0  0  0  0
 25 67  1  0  0  0  0
 25 68  1  0  0  0  0
 26 69  1  0  0  0  0
 26 70  1  0  0  0  0
 27 71  1  0  0  0  0
M  END
$$$$
