
 OpenBabel04232216543D

193192  0  0  0  0  0  0  0  0999 V2000
   33.9118  -15.0031  -42.7081 C   0  0  0  0  0  0  0  0  0  0  0  0
   33.3975  -13.6049  -42.4513 C   0  0  0  0  0  0  0  0  0  0  0  0
   33.8663  -13.1153  -41.0908 C   0  0  0  0  0  0  0  0  0  0  0  0
   33.3505  -11.7132  -40.8293 C   0  0  0  0  0  0  0  0  0  0  0  0
   33.8054  -11.2563  -39.5211 N   0  0  0  0  0  0  0  0  0  0  0  0
   33.3054   -9.9076  -39.2810 C   0  0  0  0  0  0  0  0  0  0  0  0
   33.7725   -9.4222  -37.9220 C   0  0  0  0  0  0  0  0  0  0  0  0
   33.2575   -8.0179  -37.6607 C   0  0  0  0  0  0  0  0  0  0  0  0
   33.7239   -7.5320  -36.3033 C   0  0  0  0  0  0  0  0  0  0  0  0
   33.2079   -6.1319  -36.0434 C   0  0  0  0  0  0  0  0  0  0  0  0
   33.6733   -5.6488  -34.6858 C   0  0  0  0  0  0  0  0  0  0  0  0
   33.1557   -4.2499  -34.4253 C   0  0  0  0  0  0  0  0  0  0  0  0
   33.6227   -3.7662  -33.0687 C   0  0  0  0  0  0  0  0  0  0  0  0
   33.1035   -2.3682  -32.8075 C   0  0  0  0  0  0  0  0  0  0  0  0
   33.5705   -1.8845  -31.4509 C   0  0  0  0  0  0  0  0  0  0  0  0
   33.0529   -0.4857  -31.1904 C   0  0  0  0  0  0  0  0  0  0  0  0
   33.5215   -0.0012  -29.8347 C   0  0  0  0  0  0  0  0  0  0  0  0
   33.0023    1.3968  -29.5734 C   0  0  0  0  0  0  0  0  0  0  0  0
   33.4726    1.8820  -28.2185 C   0  0  0  0  0  0  0  0  0  0  0  0
   32.9550    3.2808  -27.9581 C   0  0  0  0  0  0  0  0  0  0  0  0
   33.4237    3.7653  -26.6024 C   0  0  0  0  0  0  0  0  0  0  0  0
   32.9077    5.1649  -26.3428 C   0  0  0  0  0  0  0  0  0  0  0  0
   33.3747    5.6486  -24.9862 C   0  0  0  0  0  0  0  0  0  0  0  0
   32.8604    7.0491  -24.7273 C   0  0  0  0  0  0  0  0  0  0  0  0
   33.3275    7.5332  -23.3702 C   0  0  0  0  0  0  0  0  0  0  0  0
   32.8121    8.9340  -23.1083 C   0  0  0  0  0  0  0  0  0  0  0  0
   33.2791    9.4205  -21.7471 C   0  0  0  0  0  0  0  0  0  0  0  0
   32.7569   10.8209  -21.4844 C   0  0  0  0  0  0  0  0  0  0  0  0
   33.2079   11.2922  -20.1612 N   0  0  0  0  0  0  0  0  0  0  0  0
   32.7125   12.6332  -19.9310 C   0  0  0  0  0  0  0  0  0  0  0  0
   33.0960   13.0539  -18.5966 N   0  0  0  0  0  0  0  0  0  0  0  0
   32.6652   14.4333  -18.3688 C   0  0  0  0  0  0  0  0  0  0  0  0
   33.0904   14.9138  -17.0401 N   0  0  0  0  0  0  0  0  0  0  0  0
   34.5289   14.9176  -17.0168 N   0  0  0  0  0  0  0  0  0  0  0  0
   35.0655   15.8125  -18.0136 N   0  0  0  0  0  0  0  0  0  0  0  0
   36.4878   15.8065  -18.0551 N   0  0  0  0  0  0  0  0  0  0  0  0
   36.9933   14.4873  -18.3114 N   0  0  0  0  0  0  0  0  0  0  0  0
   36.5347   14.0074  -19.6272 N   0  0  0  0  0  0  0  0  0  0  0  0
   36.9653   14.9227  -20.6469 N   0  0  0  0  0  0  0  0  0  0  0  0
   38.4052   14.9497  -20.6681 N   0  0  0  0  0  0  0  0  0  0  0  0
   38.9136   13.6279  -20.8692 N   0  0  0  0  0  0  0  0  0  0  0  0
   38.4444   13.1526  -22.1403 N   0  0  0  0  0  0  0  0  0  0  0  0
   38.8522   14.0539  -23.1718 N   0  0  0  0  0  0  0  0  0  0  0  0
   40.2822   14.0967  -23.1972 N   0  0  0  0  0  0  0  0  0  0  0  0
   40.7992   12.7907  -23.3772 N   0  0  0  0  0  0  0  0  0  0  0  0
   40.3486   12.2739  -24.6542 N   0  0  0  0  0  0  0  0  0  0  0  0
   40.7228   13.1713  -25.6841 N   0  0  0  0  0  0  0  0  0  0  0  0
   42.1658   13.2451  -25.7161 N   0  0  0  0  0  0  0  0  0  0  0  0
   42.7071   11.9363  -25.9061 N   0  0  0  0  0  0  0  0  0  0  0  0
   42.2195   11.4221  -27.1391 N   0  0  0  0  0  0  0  0  0  0  0  0
   42.6435   12.2850  -28.2342 N   0  0  0  0  0  0  0  0  0  0  0  0
   44.0796   12.3803  -28.2714 N   0  0  0  0  0  0  0  0  0  0  0  0
   44.6432   11.1020  -28.4729 N   0  0  0  0  0  0  0  0  0  0  0  0
   44.1760   10.5437  -29.7052 N   0  0  0  0  0  0  0  0  0  0  0  0
   44.5457   11.4167  -30.7857 N   0  0  0  0  0  0  0  0  0  0  0  0
   45.9799   11.5592  -30.8488 N   0  0  0  0  0  0  0  0  0  0  0  0
   46.5592   10.2779  -31.0158 N   0  0  0  0  0  0  0  0  0  0  0  0
   46.0821    9.7208  -32.2271 N   0  0  0  0  0  0  0  0  0  0  0  0
   46.4095   10.5793  -33.3025 N   0  0  0  0  0  0  0  0  0  0  0  0
   47.8288   10.7290  -33.3811 N   0  0  0  0  0  0  0  0  0  0  0  0
   48.4398    9.4495  -33.5588 N   0  0  0  0  0  0  0  0  0  0  0  0
   47.9627    8.8604  -34.7707 N   0  0  0  0  0  0  0  0  0  0  0  0
   48.2781    9.7077  -35.8728 N   0  0  0  0  0  0  0  0  0  0  0  0
   49.7043    9.8877  -35.9404 N   0  0  0  0  0  0  0  0  0  0  0  0
   50.3351    8.6075  -36.1315 N   0  0  0  0  0  0  0  0  0  0  0  0
   49.8688    7.9928  -37.3368 N   0  0  0  0  0  0  0  0  0  0  0  0
   50.1703    8.8103  -38.4594 N   0  0  0  0  0  0  0  0  0  0  0  0
   51.5697    9.0135  -38.5485 N   0  0  0  0  0  0  0  0  0  0  0  0
   52.2177    7.7492  -38.6763 N   0  0  0  0  0  0  0  0  0  0  0  0
   51.7526    7.0911  -39.8767 N   0  0  0  0  0  0  0  0  0  0  0  0
   52.0206    7.9323  -41.0109 N   0  0  0  0  0  0  0  0  0  0  0  0
   53.4446    8.1435  -41.0827 N   0  0  0  0  0  0  0  0  0  0  0  0
   54.1130    6.8696  -41.2390 N   0  0  0  0  0  0  0  0  0  0  0  0
   53.6568    6.1971  -42.4109 N   0  0  0  0  0  0  0  0  0  0  0  0
   53.9159    6.9963  -43.5592 N   0  0  0  0  0  0  0  0  0  0  0  0
   55.3231    7.2369  -43.6524 N   0  0  0  0  0  0  0  0  0  0  0  0
   56.0158    5.9920  -43.7462 N   0  0  0  0  0  0  0  0  0  0  0  0
   55.5564    5.2818  -44.9169 N   0  0  0  0  0  0  0  0  0  0  0  0
   55.8270    6.0910  -46.0817 N   0  0  0  0  0  0  0  0  0  0  0  0
   57.2453    6.3678  -46.2043 N   0  0  0  0  0  0  0  0  0  0  0  0
   57.9865    5.1260  -46.3185 N   0  0  0  0  0  0  0  0  0  0  0  0
   33.5757  -15.3563  -43.6855 H   0  0  0  0  0  0  0  0  0  0  0  0
   33.5416  -15.6892  -41.9407 H   0  0  0  0  0  0  0  0  0  0  0  0
   35.0055  -15.0135  -42.6881 H   0  0  0  0  0  0  0  0  0  0  0  0
   32.3032  -13.6071  -42.4883 H   0  0  0  0  0  0  0  0  0  0  0  0
   33.7640  -12.9328  -43.2341 H   0  0  0  0  0  0  0  0  0  0  0  0
   34.9617  -13.1213  -41.0622 H   0  0  0  0  0  0  0  0  0  0  0  0
   33.5012  -13.7976  -40.3148 H   0  0  0  0  0  0  0  0  0  0  0  0
   32.2557  -11.7219  -40.8655 H   0  0  0  0  0  0  0  0  0  0  0  0
   33.7183  -11.0427  -41.6138 H   0  0  0  0  0  0  0  0  0  0  0  0
   34.8252  -11.2516  -39.4967 H   0  0  0  0  0  0  0  0  0  0  0  0
   32.2102   -9.9017  -39.3065 H   0  0  0  0  0  0  0  0  0  0  0  0
   33.6739   -9.2237  -40.0535 H   0  0  0  0  0  0  0  0  0  0  0  0
   34.8674   -9.4188  -37.8827 H   0  0  0  0  0  0  0  0  0  0  0  0
   33.4043  -10.0944  -37.1389 H   0  0  0  0  0  0  0  0  0  0  0  0
   32.1624   -8.0129  -37.6950 H   0  0  0  0  0  0  0  0  0  0  0  0
   33.6240   -7.3386  -38.4385 H   0  0  0  0  0  0  0  0  0  0  0  0
   34.8188   -7.5328  -36.2680 H   0  0  0  0  0  0  0  0  0  0  0  0
   33.3580   -8.2093  -35.5239 H   0  0  0  0  0  0  0  0  0  0  0  0
   32.1131   -6.1299  -36.0794 H   0  0  0  0  0  0  0  0  0  0  0  0
   33.5749   -5.4535  -36.8213 H   0  0  0  0  0  0  0  0  0  0  0  0
   34.7682   -5.6491  -34.6500 H   0  0  0  0  0  0  0  0  0  0  0  0
   33.3075   -6.3277  -33.9077 H   0  0  0  0  0  0  0  0  0  0  0  0
   32.0608   -4.2498  -34.4597 H   0  0  0  0  0  0  0  0  0  0  0  0
   33.5203   -3.5711  -35.2040 H   0  0  0  0  0  0  0  0  0  0  0  0
   34.7177   -3.7649  -33.0349 H   0  0  0  0  0  0  0  0  0  0  0  0
   33.2593   -4.4457  -32.2901 H   0  0  0  0  0  0  0  0  0  0  0  0
   32.0085   -2.3694  -32.8413 H   0  0  0  0  0  0  0  0  0  0  0  0
   33.4669   -1.6887  -33.5861 H   0  0  0  0  0  0  0  0  0  0  0  0
   34.6654   -1.8845  -31.4165 H   0  0  0  0  0  0  0  0  0  0  0  0
   33.2059   -2.5632  -30.6721 H   0  0  0  0  0  0  0  0  0  0  0  0
   31.9579   -0.4859  -31.2234 H   0  0  0  0  0  0  0  0  0  0  0  0
   33.4163    0.1928  -31.9700 H   0  0  0  0  0  0  0  0  0  0  0  0
   34.6165    0.0003  -29.8023 H   0  0  0  0  0  0  0  0  0  0  0  0
   33.1593   -0.6804  -29.0552 H   0  0  0  0  0  0  0  0  0  0  0  0
   31.9073    1.3950  -29.6044 H   0  0  0  0  0  0  0  0  0  0  0  0
   33.3633    2.0758  -30.3537 H   0  0  0  0  0  0  0  0  0  0  0  0
   34.5676    1.8826  -28.1870 H   0  0  0  0  0  0  0  0  0  0  0  0
   33.1104    1.2039  -27.4382 H   0  0  0  0  0  0  0  0  0  0  0  0
   31.8600    3.2806  -27.9910 H   0  0  0  0  0  0  0  0  0  0  0  0
   33.3184    3.9593  -28.7377 H   0  0  0  0  0  0  0  0  0  0  0  0
   34.5186    3.7642  -26.5689 H   0  0  0  0  0  0  0  0  0  0  0  0
   33.0590    3.0876  -25.8227 H   0  0  0  0  0  0  0  0  0  0  0  0
   31.8128    5.1663  -26.3776 H   0  0  0  0  0  0  0  0  0  0  0  0
   33.2735    5.8428  -27.1217 H   0  0  0  0  0  0  0  0  0  0  0  0
   34.4696    5.6458  -24.9509 H   0  0  0  0  0  0  0  0  0  0  0  0
   33.0077    4.9714  -24.2072 H   0  0  0  0  0  0  0  0  0  0  0  0
   31.7655    7.0517  -24.7628 H   0  0  0  0  0  0  0  0  0  0  0  0
   33.2274    7.7261  -25.5064 H   0  0  0  0  0  0  0  0  0  0  0  0
   34.4224    7.5312  -23.3360 H   0  0  0  0  0  0  0  0  0  0  0  0
   32.9616    6.8548  -22.5919 H   0  0  0  0  0  0  0  0  0  0  0  0
   31.7170    8.9340  -23.1454 H   0  0  0  0  0  0  0  0  0  0  0  0
   33.1774    9.6104  -23.8892 H   0  0  0  0  0  0  0  0  0  0  0  0
   34.3747    9.4145  -21.7186 H   0  0  0  0  0  0  0  0  0  0  0  0
   32.9125    8.7381  -20.9732 H   0  0  0  0  0  0  0  0  0  0  0  0
   31.6657   10.8165  -21.5271 H   0  0  0  0  0  0  0  0  0  0  0  0
   33.1349   11.4929  -22.2671 H   0  0  0  0  0  0  0  0  0  0  0  0
   34.2193   11.2351  -20.1669 H   0  0  0  0  0  0  0  0  0  0  0  0
   31.6208   12.6280  -19.9619 H   0  0  0  0  0  0  0  0  0  0  0  0
   33.0861   13.3129  -20.7077 H   0  0  0  0  0  0  0  0  0  0  0  0
   34.1240   13.0834  -18.5962 H   0  0  0  0  0  0  0  0  0  0  0  0
   31.5761   14.4556  -18.3870 H   0  0  0  0  0  0  0  0  0  0  0  0
   33.0157   15.1274  -19.1512 H   0  0  0  0  0  0  0  0  0  0  0  0
   32.7981   14.2432  -16.3383 H   0  0  0  0  0  0  0  0  0  0  0  0
   34.8338   13.9496  -17.1829 H   0  0  0  0  0  0  0  0  0  0  0  0
   34.7147   16.7520  -17.8866 H   0  0  0  0  0  0  0  0  0  0  0  0
   36.8411   16.1347  -17.1610 H   0  0  0  0  0  0  0  0  0  0  0  0
   36.6849   13.8524  -17.5668 H   0  0  0  0  0  0  0  0  0  0  0  0
   35.4978   14.0056  -19.6144 H   0  0  0  0  0  0  0  0  0  0  0  0
   36.5747   15.8614  -20.4586 H   0  0  0  0  0  0  0  0  0  0  0  0
   38.7499   15.2790  -19.7619 H   0  0  0  0  0  0  0  0  0  0  0  0
   38.5845   13.0240  -20.1009 H   0  0  0  0  0  0  0  0  0  0  0  0
   37.4196   13.1254  -22.1290 H   0  0  0  0  0  0  0  0  0  0  0  0
   38.4801   14.9955  -22.9892 H   0  0  0  0  0  0  0  0  0  0  0  0
   40.6221   14.4386  -22.2968 H   0  0  0  0  0  0  0  0  0  0  0  0
   40.5002   12.1809  -22.6137 H   0  0  0  0  0  0  0  0  0  0  0  0
   39.3231   12.2276  -24.6346 H   0  0  0  0  0  0  0  0  0  0  0  0
   40.3402   14.1085  -25.5247 H   0  0  0  0  0  0  0  0  0  0  0  0
   42.5126   13.5895  -24.8266 H   0  0  0  0  0  0  0  0  0  0  0  0
   42.4147   11.3218  -25.1390 H   0  0  0  0  0  0  0  0  0  0  0  0
   41.1992   11.3647  -27.1282 H   0  0  0  0  0  0  0  0  0  0  0  0
   42.2915   13.2284  -28.1068 H   0  0  0  0  0  0  0  0  0  0  0  0
   44.4170   12.7675  -27.3785 H   0  0  0  0  0  0  0  0  0  0  0  0
   44.3813   10.4613  -27.7331 H   0  0  0  0  0  0  0  0  0  0  0  0
   43.1525   10.4707  -29.6521 H   0  0  0  0  0  0  0  0  0  0  0  0
   44.1095   12.3343  -30.6142 H   0  0  0  0  0  0  0  0  0  0  0  0
   46.3124   11.9301  -29.9646 H   0  0  0  0  0  0  0  0  0  0  0  0
   46.2840    9.6910  -30.2194 H   0  0  0  0  0  0  0  0  0  0  0  0
   45.0719    9.6430  -32.2106 H   0  0  0  0  0  0  0  0  0  0  0  0
   46.0114   11.4958  -33.1602 H   0  0  0  0  0  0  0  0  0  0  0  0
   48.1313   11.1150  -32.4839 H   0  0  0  0  0  0  0  0  0  0  0  0
   48.1767    8.8645  -32.7517 H   0  0  0  0  0  0  0  0  0  0  0  0
   46.9440    8.7460  -34.7008 H   0  0  0  0  0  0  0  0  0  0  0  0
   47.8776   10.6256  -35.7384 H   0  0  0  0  0  0  0  0  0  0  0  0
   50.0080   10.3065  -35.0548 H   0  0  0  0  0  0  0  0  0  0  0  0
   50.0953    7.9950  -35.3511 H   0  0  0  0  0  0  0  0  0  0  0  0
   48.8580    7.8742  -37.3030 H   0  0  0  0  0  0  0  0  0  0  0  0
   49.7197    9.7114  -38.3330 H   0  0  0  0  0  0  0  0  0  0  0  0
   51.8882    9.4358  -37.6794 H   0  0  0  0  0  0  0  0  0  0  0  0
   51.9682    7.2004  -37.8380 H   0  0  0  0  0  0  0  0  0  0  0  0
   50.7283    6.9797  -39.7562 H   0  0  0  0  0  0  0  0  0  0  0  0
   51.5486    8.8346  -40.8547 H   0  0  0  0  0  0  0  0  0  0  0  0
   53.7602    8.6038  -40.2179 H   0  0  0  0  0  0  0  0  0  0  0  0
   53.9124    6.2800  -40.4251 H   0  0  0  0  0  0  0  0  0  0  0  0
   52.6517    6.0396  -42.3619 H   0  0  0  0  0  0  0  0  0  0  0  0
   53.4498    7.8889  -43.4525 H   0  0  0  0  0  0  0  0  0  0  0  0
   55.6043    7.7164  -42.7869 H   0  0  0  0  0  0  0  0  0  0  0  0
   55.7950    5.4500  -42.8968 H   0  0  0  0  0  0  0  0  0  0  0  0
   54.5381    5.1284  -44.8149 H   0  0  0  0  0  0  0  0  0  0  0  0
   55.3087    6.9856  -45.9762 H   0  0  0  0  0  0  0  0  0  0  0  0
   57.5350    6.8661  -45.3453 H   0  0  0  0  0  0  0  0  0  0  0  0
   57.5870    4.6233  -47.1099 H   0  0  0  0  0  0  0  0  0  0  0  0
   57.7382    4.5644  -45.4891 H   0  0  0  0  0  0  0  0  0  0  0  0
  1  2  1  0  0  0  0
  1 82  1  0  0  0  0
  1 83  1  0  0  0  0
  1 84  1  0  0  0  0
  2  3  1  0  0  0  0
  2 85  1  0  0  0  0
  2 86  1  0  0  0  0
  3  4  1  0  0  0  0
  3 87  1  0  0  0  0
  3 88  1  0  0  0  0
  4  5  1  0  0  0  0
  4 89  1  0  0  0  0
  4 90  1  0  0  0  0
  5  6  1  0  0  0  0
  5 91  1  0  0  0  0
  6  7  1  0  0  0  0
  6 92  1  0  0  0  0
  6 93  1  0  0  0  0
  7  8  1  0  0  0  0
  7 94  1  0  0  0  0
  7 95  1  0  0  0  0
  8  9  1  0  0  0  0
  8 96  1  0  0  0  0
  8 97  1  0  0  0  0
  9 10  1  0  0  0  0
  9 98  1  0  0  0  0
  9 99  1  0  0  0  0
 10 11  1  0  0  0  0
 10100  1  0  0  0  0
 10101  1  0  0  0  0
 11 12  1  0  0  0  0
 11102  1  0  0  0  0
 11103  1  0  0  0  0
 12 13  1  0  0  0  0
 12104  1  0  0  0  0
 12105  1  0  0  0  0
 13 14  1  0  0  0  0
 13106  1  0  0  0  0
 13107  1  0  0  0  0
 14 15  1  0  0  0  0
 14108  1  0  0  0  0
 14109  1  0  0  0  0
 15 16  1  0  0  0  0
 15110  1  0  0  0  0
 15111  1  0  0  0  0
 16 17  1  0  0  0  0
 16112  1  0  0  0  0
 16113  1  0  0  0  0
 17 18  1  0  0  0  0
 17114  1  0  0  0  0
 17115  1  0  0  0  0
 18 19  1  0  0  0  0
 18116  1  0  0  0  0
 18117  1  0  0  0  0
 19 20  1  0  0  0  0
 19118  1  0  0  0  0
 19119  1  0  0  0  0
 20 21  1  0  0  0  0
 20120  1  0  0  0  0
 20121  1  0  0  0  0
 21 22  1  0  0  0  0
 21122  1  0  0  0  0
 21123  1  0  0  0  0
 22 23  1  0  0  0  0
 22124  1  0  0  0  0
 22125  1  0  0  0  0
 23 24  1  0  0  0  0
 23126  1  0  0  0  0
 23127  1  0  0  0  0
 24 25  1  0  0  0  0
 24128  1  0  0  0  0
 24129  1  0  0  0  0
 25 26  1  0  0  0  0
 25130  1  0  0  0  0
 25131  1  0  0  0  0
 26 27  1  0  0  0  0
 26132  1  0  0  0  0
 26133  1  0  0  0  0
 27 28  1  0  0  0  0
 27134  1  0  0  0  0
 27135  1  0  0  0  0
 28 29  1  0  0  0  0
 28136  1  0  0  0  0
 28137  1  0  0  0  0
 29 30  1  0  0  0  0
 29138  1  0  0  0  0
 30 31  1  0  0  0  0
 30139  1  0  0  0  0
 30140  1  0  0  0  0
 31 32  1  0  0  0  0
 31141  1  0  0  0  0
 32 33  1  0  0  0  0
 32142  1  0  0  0  0
 32143  1  0  0  0  0
 33 34  1  0  0  0  0
 33144  1  0  0  0  0
 34 35  1  0  0  0  0
 34145  1  0  0  0  0
 35 36  1  0  0  0  0
 35146  1  0  0  0  0
 36 37  1  0  0  0  0
 36147  1  0  0  0  0
 37 38  1  0  0  0  0
 37148  1  0  0  0  0
 38 39  1  0  0  0  0
 38149  1  0  0  0  0
 39 40  1  0  0  0  0
 39150  1  0  0  0  0
 40 41  1  0  0  0  0
 40151  1  0  0  0  0
 41 42  1  0  0  0  0
 41152  1  0  0  0  0
 42 43  1  0  0  0  0
 42153  1  0  0  0  0
 43 44  1  0  0  0  0
 43154  1  0  0  0  0
 44 45  1  0  0  0  0
 44155  1  0  0  0  0
 45 46  1  0  0  0  0
 45156  1  0  0  0  0
 46 47  1  0  0  0  0
 46157  1  0  0  0  0
 47 48  1  0  0  0  0
 47158  1  0  0  0  0
 48 49  1  0  0  0  0
 48159  1  0  0  0  0
 49 50  1  0  0  0  0
 49160  1  0  0  0  0
 50 51  1  0  0  0  0
 50161  1  0  0  0  0
 51 52  1  0  0  0  0
 51162  1  0  0  0  0
 52 53  1  0  0  0  0
 52163  1  0  0  0  0
 53 54  1  0  0  0  0
 53164  1  0  0  0  0
 54 55  1  0  0  0  0
 54165  1  0  0  0  0
 55 56  1  0  0  0  0
 55166  1  0  0  0  0
 56 57  1  0  0  0  0
 56167  1  0  0  0  0
 57 58  1  0  0  0  0
 57168  1  0  0  0  0
 58 59  1  0  0  0  0
 58169  1  0  0  0  0
 59 60  1  0  0  0  0
 59170  1  0  0  0  0
 60 61  1  0  0  0  0
 60171  1  0  0  0  0
 61 62  1  0  0  0  0
 61172  1  0  0  0  0
 62 63  1  0  0  0  0
 62173  1  0  0  0  0
 63 64  1  0  0  0  0
 63174  1  0  0  0  0
 64 65  1  0  0  0  0
 64175  1  0  0  0  0
 65 66  1  0  0  0  0
 65176  1  0  0  0  0
 66 67  1  0  0  0  0
 66177  1  0  0  0  0
 67 68  1  0  0  0  0
 67178  1  0  0  0  0
 68 69  1  0  0  0  0
 68179  1  0  0  0  0
 69 70  1  0  0  0  0
 69180  1  0  0  0  0
 70 71  1  0  0  0  0
 70181  1  0  0  0  0
 71 72  1  0  0  0  0
 71182  1  0  0  0  0
 72 73  1  0  0  0  0
 72183  1  0  0  0  0
 73 74  1  0  0  0  0
 73184  1  0  0  0  0
 74 75  1  0  0  0  0
 74185  1  0  0  0  0
 75 76  1  0  0  0  0
 75186  1  0  0  0  0
 76 77  1  0  0  0  0
 76187  1  0  0  0  0
 77 78  1  0  0  0  0
 77188  1  0  0  0  0
 78 79  1  0  0  0  0
 78189  1  0  0  0  0
 79 80  1  0  0  0  0
 79190  1  0  0  0  0
 80 81  1  0  0  0  0
 80191  1  0  0  0  0
 81192  1  0  0  0  0
 81193  1  0  0  0  0
M  END
$$$$
