
 OpenBabel04232216583D

 45 44  0  0  0  0  0  0  0  0999 V2000
    6.4229    2.6883    5.7189 N   0  0  0  0  0  0  0  0  0  0  0  0
    5.9693    3.2467    4.4975 N   0  0  0  0  0  0  0  0  0  0  0  0
    6.5065    4.5412    4.2940 N   0  0  0  0  0  0  0  0  0  0  0  0
    7.9394    4.5130    4.2283 N   0  0  0  0  0  0  0  0  0  0  0  0
    8.3926    3.7473    3.0988 N   0  0  0  0  0  0  0  0  0  0  0  0
    7.9463    4.3186    1.8607 N   0  0  0  0  0  0  0  0  0  0  0  0
    8.4718    5.6414    1.6829 N   0  0  0  0  0  0  0  0  0  0  0  0
    9.9108    5.6265    1.6539 N   0  0  0  0  0  0  0  0  0  0  0  0
   10.3940    4.8045    0.5797 N   0  0  0  0  0  0  0  0  0  0  0  0
    9.9551    5.3145   -0.6916 N   0  0  0  0  0  0  0  0  0  0  0  0
   10.4380    6.6482   -0.8976 N   0  0  0  0  0  0  0  0  0  0  0  0
   11.8780    6.6733   -0.8878 N   0  0  0  0  0  0  0  0  0  0  0  0
   12.4260    5.9578   -2.0092 N   0  0  0  0  0  0  0  0  0  0  0  0
   11.8954    6.4864   -3.2441 N   0  0  0  0  0  0  0  0  0  0  0  0
   12.4087    7.8415   -3.4381 C   0  0  0  0  0  0  0  0  0  0  0  0
   11.8200    8.4182   -4.7177 C   0  0  0  0  0  0  0  0  0  0  0  0
   12.2801    9.8613   -4.8750 C   0  0  0  0  0  0  0  0  0  0  0  0
   11.7676   10.4714   -6.1735 C   0  0  0  0  0  0  0  0  0  0  0  0
   12.2630   11.8982   -6.3249 C   0  0  0  0  0  0  0  0  0  0  0  0
    6.1632    1.7019    5.7882 H   0  0  0  0  0  0  0  0  0  0  0  0
    6.0117    3.1520    6.5320 H   0  0  0  0  0  0  0  0  0  0  0  0
    4.9464    3.2467    4.3849 H   0  0  0  0  0  0  0  0  0  0  0  0
    6.2065    5.2016    5.0164 H   0  0  0  0  0  0  0  0  0  0  0  0
    8.2791    4.0511    5.0816 H   0  0  0  0  0  0  0  0  0  0  0  0
    8.0011    2.8021    3.1910 H   0  0  0  0  0  0  0  0  0  0  0  0
    6.9212    4.3688    1.8903 H   0  0  0  0  0  0  0  0  0  0  0  0
    8.1654    6.2049    2.4841 H   0  0  0  0  0  0  0  0  0  0  0  0
   10.2253    5.2199    2.5418 H   0  0  0  0  0  0  0  0  0  0  0  0
    9.9981    3.8669    0.7116 H   0  0  0  0  0  0  0  0  0  0  0  0
    8.9277    5.3385   -0.6688 H   0  0  0  0  0  0  0  0  0  0  0  0
   10.1031    7.2165   -0.1081 H   0  0  0  0  0  0  0  0  0  0  0  0
   12.1807    6.2219   -0.0160 H   0  0  0  0  0  0  0  0  0  0  0  0
   12.1210    4.9813   -1.9124 H   0  0  0  0  0  0  0  0  0  0  0  0
   10.8805    6.5531   -3.1073 H   0  0  0  0  0  0  0  0  0  0  0  0
   13.5026    7.8306   -3.4962 H   0  0  0  0  0  0  0  0  0  0  0  0
   12.1222    8.4997   -2.6057 H   0  0  0  0  0  0  0  0  0  0  0  0
   10.7221    8.3844   -4.6858 H   0  0  0  0  0  0  0  0  0  0  0  0
   12.1407    7.8184   -5.5797 H   0  0  0  0  0  0  0  0  0  0  0  0
   13.3780    9.8989   -4.8575 H   0  0  0  0  0  0  0  0  0  0  0  0
   11.9268   10.4558   -4.0233 H   0  0  0  0  0  0  0  0  0  0  0  0
   10.6727   10.4609   -6.1831 H   0  0  0  0  0  0  0  0  0  0  0  0
   12.1080    9.8784   -7.0284 H   0  0  0  0  0  0  0  0  0  0  0  0
   11.9073   12.5249   -5.4990 H   0  0  0  0  0  0  0  0  0  0  0  0
   11.8980   12.3290   -7.2640 H   0  0  0  0  0  0  0  0  0  0  0  0
   13.3571   11.9317   -6.3330 H   0  0  0  0  0  0  0  0  0  0  0  0
  1  2  1  0  0  0  0
  1 20  1  0  0  0  0
  1 21  1  0  0  0  0
  2  3  1  0  0  0  0
  2 22  1  0  0  0  0
  3  4  1  0  0  0  0
  3 23  1  0  0  0  0
  4  5  1  0  0  0  0
  4 24  1  0  0  0  0
  5  6  1  0  0  0  0
  5 25  1  0  0  0  0
  6  7  1  0  0  0  0
  6 26  1  0  0  0  0
  7  8  1  0  0  0  0
  7 27  1  0  0  0  0
  8  9  1  0  0  0  0
  8 28  1  0  0  0  0
  9 10  1  0  0  0  0
  9 29  1  0  0  0  0
 10 11  1  0  0  0  0
 10 30  1  0  0  0  0
 11 12  1  0  0  0  0
 11 31  1  0  0  0  0
 12 13  1  0  0  0  0
 12 32  1  0  0  0  0
 13 14  1  0  0  0  0
 13 33  1  0  0  0  0
 14 15  1  0  0  0  0
 14 34  1  0  0  0  0
 15 16  1  0  0  0  0
 15 35  1  0  0  0  0
 15 36  1  0  0  0  0
 16 17  1  0  0  0  0
 16 37  1  0  0  0  0
 16 38  1  0  0  0  0
 17 18  1  0  0  0  0
 17 39  1  0  0  0  0
 17 40  1  0  0  0  0
 18 19  1  0  0  0  0
 18 41  1  0  0  0  0
 18 42  1  0  0  0  0
 19 43  1  0  0  0  0
 19 44  1  0  0  0  0
 19 45  1  0  0  0  0
M  END
$$$$
