
 OpenBabel04232216463D

 60 60  0  0  0  0  0  0  0  0999 V2000
    7.4925   -1.2747   -5.6706 C   0  0  0  0  0  0  0  0  0  0  0  0
    8.7982   -0.2960   -5.7498 C   0  0  0  0  0  0  0  0  0  0  0  0
    8.3232    0.1923   -4.2367 C   0  0  0  0  0  0  0  0  0  0  0  0
    6.9506    0.2224   -2.9316 C   0  0  0  0  0  0  0  0  0  0  0  0
    6.4874   -0.2938   -1.1924 C   0  0  0  0  0  0  0  0  0  0  0  0
    5.3101    0.1550    0.1498 C   0  0  0  0  0  0  0  0  0  0  0  0
    6.3559    1.4800   -2.8041 C   0  0  0  0  0  0  0  0  0  0  0  0
    7.3170    2.5179   -2.4266 C   0  0  0  0  0  0  0  0  0  0  0  0
    8.2873    2.7625   -3.3201 C   0  0  0  0  0  0  0  0  0  0  0  0
    9.5836    2.1493   -3.0350 C   0  0  0  0  0  0  0  0  0  0  0  0
   10.4126    1.9266   -4.0527 C   0  0  0  0  0  0  0  0  0  0  0  0
   11.7371    1.3011   -3.9275 C   0  0  0  0  0  0  0  0  0  0  0  0
   12.3577    1.6037   -5.2399 C   0  0  0  0  0  0  0  0  0  0  0  0
   13.8347    1.5646   -5.1232 C   0  0  0  0  0  0  0  0  0  0  0  0
   14.2718    1.6220   -6.5306 C   0  0  0  0  0  0  0  0  0  0  0  0
   15.7126    1.9351   -6.6973 C   0  0  0  0  0  0  0  0  0  0  0  0
   15.7758    2.8885   -7.8205 C   0  0  0  0  0  0  0  0  0  0  0  0
   16.9248    3.2718   -8.3712 C   0  0  0  0  0  0  0  0  0  0  0  0
   16.8087    3.9162   -9.6680 C   0  0  0  0  0  0  0  0  0  0  0  0
   17.5376    3.2599  -10.5682 C   0  0  0  0  0  0  0  0  0  0  0  0
   16.6820    2.0955  -11.1737 C   0  0  0  0  0  0  0  0  0  0  0  0
   16.0238    1.2074  -10.2501 C   0  0  0  0  0  0  0  0  0  0  0  0
   14.3537    0.5221   -9.9896 C   0  0  0  0  0  0  0  0  0  0  0  0
   12.9862    0.2955   -9.1609 C   0  0  0  0  0  0  0  0  0  0  0  0
   11.4756    0.3834   -7.9796 C   0  0  0  0  0  0  0  0  0  0  0  0
   10.4452   -0.2661   -6.8041 C   0  0  0  0  0  0  0  0  0  0  0  0
    6.7393   -1.1767   -6.4592 H   0  0  0  0  0  0  0  0  0  0  0  0
    6.6904   -0.9522   -4.9249 H   0  0  0  0  0  0  0  0  0  0  0  0
    7.6531   -2.1949   -5.0772 H   0  0  0  0  0  0  0  0  0  0  0  0
    7.4689    0.7802   -4.7104 H   0  0  0  0  0  0  0  0  0  0  0  0
    7.3836   -0.1889   -0.5716 H   0  0  0  0  0  0  0  0  0  0  0  0
    6.1466   -1.3345   -1.2520 H   0  0  0  0  0  0  0  0  0  0  0  0
    5.3970    1.1485    0.6415 H   0  0  0  0  0  0  0  0  0  0  0  0
    5.5027   -0.5214    1.0331 H   0  0  0  0  0  0  0  0  0  0  0  0
    4.2230   -0.0378    0.0002 H   0  0  0  0  0  0  0  0  0  0  0  0
    5.5133    1.8027   -3.4102 H   0  0  0  0  0  0  0  0  0  0  0  0
    7.6426    2.3931   -1.3907 H   0  0  0  0  0  0  0  0  0  0  0  0
    8.0238    2.7731   -4.3871 H   0  0  0  0  0  0  0  0  0  0  0  0
    9.7330    1.5314   -2.1428 H   0  0  0  0  0  0  0  0  0  0  0  0
   10.0657    2.1758   -5.0595 H   0  0  0  0  0  0  0  0  0  0  0  0
   11.7680    0.2123   -3.7767 H   0  0  0  0  0  0  0  0  0  0  0  0
   12.2978    1.8069   -3.1458 H   0  0  0  0  0  0  0  0  0  0  0  0
   11.9846    2.5086   -5.7536 H   0  0  0  0  0  0  0  0  0  0  0  0
   12.1128    0.7761   -5.8752 H   0  0  0  0  0  0  0  0  0  0  0  0
   14.1411    0.5948   -4.7236 H   0  0  0  0  0  0  0  0  0  0  0  0
   14.2053    2.3878   -4.5226 H   0  0  0  0  0  0  0  0  0  0  0  0
   13.6102    2.3030   -7.1026 H   0  0  0  0  0  0  0  0  0  0  0  0
   14.1284    0.5857   -6.8462 H   0  0  0  0  0  0  0  0  0  0  0  0
   16.2411    0.9941   -6.8951 H   0  0  0  0  0  0  0  0  0  0  0  0
   16.1131    2.4182   -5.8109 H   0  0  0  0  0  0  0  0  0  0  0  0
   14.8532    3.1789   -8.3309 H   0  0  0  0  0  0  0  0  0  0  0  0
   17.8376    2.7606   -8.0627 H   0  0  0  0  0  0  0  0  0  0  0  0
   15.7706    4.0247  -10.0093 H   0  0  0  0  0  0  0  0  0  0  0  0
   18.6156    3.1411  -10.3377 H   0  0  0  0  0  0  0  0  0  0  0  0
   17.5974    1.8378  -11.7980 H   0  0  0  0  0  0  0  0  0  0  0  0
   16.8256    0.4517  -10.0157 H   0  0  0  0  0  0  0  0  0  0  0  0
   14.4101   -0.0106  -10.9678 H   0  0  0  0  0  0  0  0  0  0  0  0
   13.5170    0.8626   -8.4093 H   0  0  0  0  0  0  0  0  0  0  0  0
   11.2431    1.4110   -8.2352 H   0  0  0  0  0  0  0  0  0  0  0  0
   10.8881   -1.1464   -6.3441 H   0  0  0  0  0  0  0  0  0  0  0  0
  1  2  1  0  0  0  0
  1 27  1  0  0  0  0
  1 28  1  0  0  0  0
  1 29  1  0  0  0  0
  2  3  2  3  0  0  0
  2 26  1  0  0  0  0
  3  4  1  0  0  0  0
  3 30  1  0  0  0  0
  4  5  1  0  0  0  0
  4  7  2  3  0  0  0
  5  6  1  0  0  0  0
  5 31  1  0  0  0  0
  5 32  1  0  0  0  0
  6 33  1  0  0  0  0
  6 34  1  0  0  0  0
  6 35  1  0  0  0  0
  7  8  1  0  0  0  0
  7 36  1  0  0  0  0
  8  9  2  3  0  0  0
  8 37  1  0  0  0  0
  9 10  1  0  0  0  0
  9 38  1  0  0  0  0
 10 11  2  3  0  0  0
 10 39  1  0  0  0  0
 11 12  1  0  0  0  0
 11 40  1  0  0  0  0
 12 13  1  0  0  0  0
 12 41  1  0  0  0  0
 12 42  1  0  0  0  0
 13 14  1  0  0  0  0
 13 43  1  0  0  0  0
 13 44  1  0  0  0  0
 14 15  1  0  0  0  0
 14 45  1  0  0  0  0
 14 46  1  0  0  0  0
 15 16  1  0  0  0  0
 15 47  1  0  0  0  0
 15 48  1  0  0  0  0
 16 17  1  0  0  0  0
 16 49  1  0  0  0  0
 16 50  1  0  0  0  0
 17 18  2  3  0  0  0
 17 51  1  0  0  0  0
 18 19  1  0  0  0  0
 18 52  1  0  0  0  0
 19 20  2  3  0  0  0
 19 53  1  0  0  0  0
 20 21  1  0  0  0  0
 20 54  1  0  0  0  0
 21 22  2  3  0  0  0
 21 55  1  0  0  0  0
 22 23  1  0  0  0  0
 22 56  1  0  0  0  0
 23 24  2  3  0  0  0
 23 57  1  0  0  0  0
 24 25  1  0  0  0  0
 24 58  1  0  0  0  0
 25 26  2  3  0  0  0
 25 59  1  0  0  0  0
 26 60  1  0  0  0  0
M  END
$$$$
