
 OpenBabel04232216553D

 51 53  0  0  1  0  0  0  0  0999 V2000
    1.3772   -0.1963   -0.1525 C   0  0  0  0  0  0  0  0  0  0  0  0
    2.7487   -0.6794    0.0565 N   0  0  0  0  0  0  0  0  0  0  0  0
    3.3754   -0.1794    1.2041 C   0  0  0  0  0  0  0  0  0  0  0  0
    2.7219    0.0961    2.2155 O   0  0  0  0  0  0  0  0  0  0  0  0
    4.7545   -0.0096    1.2058 N   0  0  0  0  0  0  0  0  0  0  0  0
    5.5209    0.4100    0.0097 C   0  0  0  0  0  0  0  0  0  0  0  0
    5.6590    1.9389   -0.0934 C   0  0  0  0  0  0  0  0  0  0  0  0
    7.0247    2.5528   -0.5097 C   0  0  0  0  0  0  0  0  0  0  0  0
    8.2934    1.7143   -0.4469 C   0  0  0  0  0  0  0  0  0  0  0  0
    5.4441   -0.4100    2.4666 C   0  0  3  0  0  0  0  0  0  0  0  0
    6.2532    0.7211    3.0771 C   0  0  0  0  0  0  0  0  0  0  0  0
    7.4089    1.1170    2.5593 C   0  0  0  0  0  0  0  0  0  0  0  0
    8.4806    2.0826    2.9491 C   0  0  0  0  0  0  0  0  0  0  0  0
    9.1623    2.7214    1.7205 C   0  0  0  0  0  0  0  0  0  0  0  0
    9.2397    1.7695    0.5233 C   0  0  0  0  0  0  0  0  0  0  0  0
   10.3805    0.8635    0.6407 C   0  0  0  0  0  0  0  0  0  0  0  0
   10.4261   -0.4266    1.0340 C   0  0  0  0  0  0  0  0  0  0  0  0
    9.3235   -1.3399    1.2454 C   0  0  0  0  0  0  0  0  0  0  0  0
    8.5969   -1.5406    2.3641 C   0  0  0  0  0  0  0  0  0  0  0  0
    7.3593   -2.2966    2.2746 C   0  0  0  0  0  0  0  0  0  0  0  0
    6.0933   -1.8181    2.2333 C   0  0  0  0  0  0  0  0  0  0  0  0
    5.0520   -2.6961    1.6528 C   0  0  0  0  0  0  0  0  0  0  0  0
    5.1237   -2.8664    0.3233 C   0  0  0  0  0  0  0  0  0  0  0  0
    4.0053   -2.7814   -0.5778 C   0  0  0  0  0  0  0  0  0  0  0  0
    3.0713   -1.8210   -0.6949 C   0  0  0  0  0  0  0  0  0  0  0  0
    0.9410    0.2292    0.7548 H   0  0  0  0  0  0  0  0  0  0  0  0
    0.7195   -1.0078   -0.4848 H   0  0  0  0  0  0  0  0  0  0  0  0
    1.4080    0.5822   -0.9214 H   0  0  0  0  0  0  0  0  0  0  0  0
    4.9964    0.0826   -0.8921 H   0  0  0  0  0  0  0  0  0  0  0  0
    6.4768   -0.1131    0.0037 H   0  0  0  0  0  0  0  0  0  0  0  0
    5.3493    2.4085    0.8517 H   0  0  0  0  0  0  0  0  0  0  0  0
    4.9076    2.2966   -0.8153 H   0  0  0  0  0  0  0  0  0  0  0  0
    7.1417    3.4611    0.0929 H   0  0  0  0  0  0  0  0  0  0  0  0
    6.9332    2.9395   -1.5334 H   0  0  0  0  0  0  0  0  0  0  0  0
    8.3975    0.9865   -1.2540 H   0  0  0  0  0  0  0  0  0  0  0  0
    4.6799   -0.6069    3.2347 H   0  0  0  0  0  0  0  0  0  0  0  0
    5.8718    1.1721    3.9851 H   0  0  0  0  0  0  0  0  0  0  0  0
    7.6515    0.5599    1.6680 H   0  0  0  0  0  0  0  0  0  0  0  0
    9.2418    1.5182    3.4970 H   0  0  0  0  0  0  0  0  0  0  0  0
    8.1071    2.8613    3.6277 H   0  0  0  0  0  0  0  0  0  0  0  0
   10.1790    3.0366    1.9946 H   0  0  0  0  0  0  0  0  0  0  0  0
    8.6543    3.6484    1.4507 H   0  0  0  0  0  0  0  0  0  0  0  0
   11.3426    1.3629    0.4863 H   0  0  0  0  0  0  0  0  0  0  0  0
   11.4076   -0.8832    1.1642 H   0  0  0  0  0  0  0  0  0  0  0  0
    9.0527   -1.8830    0.3419 H   0  0  0  0  0  0  0  0  0  0  0  0
    8.8125   -1.0359    3.3018 H   0  0  0  0  0  0  0  0  0  0  0  0
    7.5248   -3.3439    2.0146 H   0  0  0  0  0  0  0  0  0  0  0  0
    4.0835   -2.6885    2.1558 H   0  0  0  0  0  0  0  0  0  0  0  0
    6.0833   -2.8165   -0.1876 H   0  0  0  0  0  0  0  0  0  0  0  0
    4.0026   -3.5698   -1.3335 H   0  0  0  0  0  0  0  0  0  0  0  0
    2.3778   -1.9780   -1.5268 H   0  0  0  0  0  0  0  0  0  0  0  0
  1  2  1  0  0  0  0
  1 26  1  0  0  0  0
  1 27  1  0  0  0  0
  1 28  1  0  0  0  0
  2  3  1  0  0  0  0
  2 25  1  0  0  0  0
  3  4  2  0  0  0  0
  3  5  1  0  0  0  0
  5  6  1  0  0  0  0
  5 10  1  0  0  0  0
  6  7  1  0  0  0  0
  6 29  1  0  0  0  0
  6 30  1  0  0  0  0
  7  8  1  0  0  0  0
  7 31  1  0  0  0  0
  7 32  1  0  0  0  0
  8  9  1  0  0  0  0
  8 33  1  0  0  0  0
  8 34  1  0  0  0  0
  9 15  2  3  0  0  0
  9 35  1  0  0  0  0
 10 11  1  0  0  0  0
 10 21  1  0  0  0  0
 10 36  1  0  0  0  0
 11 12  2  3  0  0  0
 11 37  1  0  0  0  0
 12 13  1  0  0  0  0
 12 38  1  0  0  0  0
 13 14  1  0  0  0  0
 13 39  1  0  0  0  0
 13 40  1  0  0  0  0
 14 15  1  0  0  0  0
 14 41  1  0  0  0  0
 14 42  1  0  0  0  0
 15 16  1  0  0  0  0
 16 17  2  3  0  0  0
 16 43  1  0  0  0  0
 17 18  1  0  0  0  0
 17 44  1  0  0  0  0
 18 19  2  3  0  0  0
 18 45  1  0  0  0  0
 19 20  1  0  0  0  0
 19 46  1  0  0  0  0
 20 21  2  3  0  0  0
 20 47  1  0  0  0  0
 21 22  1  0  0  0  0
 22 23  2  3  0  0  0
 22 48  1  0  0  0  0
 23 24  1  0  0  0  0
 23 49  1  0  0  0  0
 24 25  2  3  0  0  0
 24 50  1  0  0  0  0
 25 51  1  0  0  0  0
M  END
$$$$
