
 OpenBabel04232217013D

234233  0  0  0  0  0  0  0  0999 V2000
    0.9758   -0.0261   -0.1255 O   0  0  0  0  0  0  0  0  0  0  0  0
    2.4317    0.0940   -0.1187 N   0  0  0  0  0  0  0  0  0  0  0  0
    2.8144    0.2242    1.2964 C   0  0  0  0  0  0  0  0  0  0  0  0
    2.2096    1.4791    1.9168 C   0  0  0  0  0  0  0  0  0  0  0  0
    2.9147   -1.1800   -0.6593 C   0  0  0  0  0  0  0  0  0  0  0  0
    4.3373   -1.2246   -0.6722 O   0  0  0  0  0  0  0  0  0  0  0  0
    4.7968   -2.4745   -1.1743 C   0  0  0  0  0  0  0  0  0  0  0  0
    6.3119   -2.4626   -1.1645 C   0  0  0  0  0  0  0  0  0  0  0  0
    6.8526   -3.7847   -1.6914 C   0  0  0  0  0  0  0  0  0  0  0  0
    8.3709   -3.7916   -1.6884 C   0  0  0  0  0  0  0  0  0  0  0  0
    8.8833   -5.1204   -2.2176 C   0  0  0  0  0  0  0  0  0  0  0  0
   10.4036   -5.1278   -2.2206 C   0  0  0  0  0  0  0  0  0  0  0  0
   10.9111   -6.4589   -2.7553 C   0  0  0  0  0  0  0  0  0  0  0  0
   12.4329   -6.4628   -2.7534 C   0  0  0  0  0  0  0  0  0  0  0  0
   12.9424   -7.7899   -3.2887 C   0  0  0  0  0  0  0  0  0  0  0  0
   14.4585   -7.7950   -3.2856 C   0  0  0  0  0  0  0  0  0  0  0  0
   14.9691   -9.1205   -3.8222 C   0  0  0  0  0  0  0  0  0  0  0  0
   16.4852   -9.1247   -3.8225 C   0  0  0  0  0  0  0  0  0  0  0  0
   16.9957  -10.4490   -4.3567 C   0  0  0  0  0  0  0  0  0  0  0  0
   18.5125  -10.4536   -4.3582 C   0  0  0  0  0  0  0  0  0  0  0  0
   19.0225  -11.7790   -4.8908 C   0  0  0  0  0  0  0  0  0  0  0  0
   20.5398  -11.7839   -4.8907 C   0  0  0  0  0  0  0  0  0  0  0  0
   21.0499  -13.1093   -5.4242 C   0  0  0  0  0  0  0  0  0  0  0  0
   22.5680  -13.1130   -5.4254 C   0  0  0  0  0  0  0  0  0  0  0  0
   23.0759  -14.4378   -5.9635 C   0  0  0  0  0  0  0  0  0  0  0  0
   24.5933  -14.4412   -5.9648 C   0  0  0  0  0  0  0  0  0  0  0  0
   25.1033  -15.7645   -6.5032 C   0  0  0  0  0  0  0  0  0  0  0  0
   26.6200  -15.7686   -6.5047 C   0  0  0  0  0  0  0  0  0  0  0  0
   27.1298  -17.0917   -7.0430 C   0  0  0  0  0  0  0  0  0  0  0  0
   28.6465  -17.0961   -7.0451 C   0  0  0  0  0  0  0  0  0  0  0  0
   29.1562  -18.4192   -7.5832 C   0  0  0  0  0  0  0  0  0  0  0  0
   30.6728  -18.4230   -7.5868 C   0  0  0  0  0  0  0  0  0  0  0  0
   31.1828  -19.7461   -8.1249 C   0  0  0  0  0  0  0  0  0  0  0  0
   32.6994  -19.7496   -8.1287 C   0  0  0  0  0  0  0  0  0  0  0  0
   33.2096  -21.0725   -8.6670 C   0  0  0  0  0  0  0  0  0  0  0  0
   34.7262  -21.0761   -8.6701 C   0  0  0  0  0  0  0  0  0  0  0  0
   35.2360  -22.3985   -9.2102 C   0  0  0  0  0  0  0  0  0  0  0  0
   36.7526  -22.4030   -9.2123 C   0  0  0  0  0  0  0  0  0  0  0  0
   37.2616  -23.7277   -9.7529 C   0  0  0  0  0  0  0  0  0  0  0  0
   38.7794  -23.7297   -9.7540 C   0  0  0  0  0  0  0  0  0  0  0  0
   39.2893  -25.0520  -10.2941 C   0  0  0  0  0  0  0  0  0  0  0  0
   40.8059  -25.0564  -10.2959 C   0  0  0  0  0  0  0  0  0  0  0  0
   41.3161  -26.3788  -10.8358 C   0  0  0  0  0  0  0  0  0  0  0  0
   42.8327  -26.3831  -10.8377 C   0  0  0  0  0  0  0  0  0  0  0  0
   43.3427  -27.7054  -11.3777 C   0  0  0  0  0  0  0  0  0  0  0  0
   44.8594  -27.7097  -11.3797 C   0  0  0  0  0  0  0  0  0  0  0  0
   45.3695  -29.0320  -11.9197 C   0  0  0  0  0  0  0  0  0  0  0  0
   46.8864  -29.0357  -11.9229 C   0  0  0  0  0  0  0  0  0  0  0  0
   47.3959  -30.3590  -12.4611 C   0  0  0  0  0  0  0  0  0  0  0  0
   48.9127  -30.3629  -12.4629 C   0  0  0  0  0  0  0  0  0  0  0  0
   49.4223  -31.6863  -13.0023 C   0  0  0  0  0  0  0  0  0  0  0  0
   50.9385  -31.6891  -13.0065 C   0  0  0  0  0  0  0  0  0  0  0  0
   51.4498  -33.0112  -13.5461 C   0  0  0  0  0  0  0  0  0  0  0  0
   52.9656  -33.0131  -13.5516 C   0  0  0  0  0  0  0  0  0  0  0  0
   53.4746  -34.3357  -14.0913 C   0  0  0  0  0  0  0  0  0  0  0  0
   54.9912  -34.3415  -14.0907 C   0  0  0  0  0  0  0  0  0  0  0  0
   55.5014  -35.6638  -14.6308 C   0  0  0  0  0  0  0  0  0  0  0  0
   57.0182  -35.6681  -14.6347 C   0  0  0  0  0  0  0  0  0  0  0  0
   57.5289  -36.9901  -15.1754 C   0  0  0  0  0  0  0  0  0  0  0  0
   59.0457  -36.9935  -15.1794 C   0  0  0  0  0  0  0  0  0  0  0  0
   59.5559  -38.3158  -15.7195 C   0  0  0  0  0  0  0  0  0  0  0  0
   61.0724  -38.3193  -15.7230 C   0  0  0  0  0  0  0  0  0  0  0  0
   61.5829  -39.6418  -16.2631 C   0  0  0  0  0  0  0  0  0  0  0  0
   63.0996  -39.6451  -16.2667 C   0  0  0  0  0  0  0  0  0  0  0  0
   63.6095  -40.9678  -16.8059 C   0  0  0  0  0  0  0  0  0  0  0  0
   65.1260  -40.9722  -16.8099 C   0  0  0  0  0  0  0  0  0  0  0  0
   65.6362  -42.2945  -17.3504 C   0  0  0  0  0  0  0  0  0  0  0  0
   67.1529  -42.2970  -17.3562 C   0  0  0  0  0  0  0  0  0  0  0  0
   67.6633  -43.6192  -17.8962 C   0  0  0  0  0  0  0  0  0  0  0  0
   69.1802  -43.6223  -17.9019 C   0  0  0  0  0  0  0  0  0  0  0  0
   69.6910  -44.9463  -18.4427 C   0  0  0  0  0  0  0  0  0  0  0  0
   71.2082  -44.9483  -18.4478 C   0  0  0  0  0  0  0  0  0  0  0  0
   71.7214  -46.2715  -18.9883 C   0  0  0  0  0  0  0  0  0  0  0  0
   73.2399  -46.2760  -18.9927 C   0  0  0  0  0  0  0  0  0  0  0  0
   73.7569  -47.5986  -19.5323 C   0  0  0  0  0  0  0  0  0  0  0  0
   75.2781  -47.6062  -19.5377 C   0  0  0  0  0  0  0  0  0  0  0  0
   75.7949  -48.9320  -20.0770 C   0  0  0  0  0  0  0  0  0  0  0  0
   77.3177  -48.9548  -20.0905 C   0  0  0  0  0  0  0  0  0  0  0  0
   77.8271  -50.2786  -20.6289 C   0  0  0  0  0  0  0  0  0  0  0  0
    0.7157    0.9047   -0.2675 H   0  0  0  0  0  0  0  0  0  0  0  0
    3.9060    0.3006    1.3752 H   0  0  0  0  0  0  0  0  0  0  0  0
    2.4996   -0.6526    1.8741 H   0  0  0  0  0  0  0  0  0  0  0  0
    2.5031    2.3755    1.3605 H   0  0  0  0  0  0  0  0  0  0  0  0
    2.5496    1.5894    2.9501 H   0  0  0  0  0  0  0  0  0  0  0  0
    1.1152    1.4314    1.9358 H   0  0  0  0  0  0  0  0  0  0  0  0
    2.5579   -1.2885   -1.6911 H   0  0  0  0  0  0  0  0  0  0  0  0
    2.5285   -2.0237   -0.0722 H   0  0  0  0  0  0  0  0  0  0  0  0
    4.4269   -2.6237   -2.1936 H   0  0  0  0  0  0  0  0  0  0  0  0
    4.4245   -3.2874   -0.5383 H   0  0  0  0  0  0  0  0  0  0  0  0
    6.6774   -2.2816   -0.1446 H   0  0  0  0  0  0  0  0  0  0  0  0
    6.6838   -1.6280   -1.7705 H   0  0  0  0  0  0  0  0  0  0  0  0
    6.4838   -3.9531   -2.7115 H   0  0  0  0  0  0  0  0  0  0  0  0
    6.4777   -4.6107   -1.0731 H   0  0  0  0  0  0  0  0  0  0  0  0
    8.7447   -3.6280   -0.6695 H   0  0  0  0  0  0  0  0  0  0  0  0
    8.7506   -2.9707   -2.3095 H   0  0  0  0  0  0  0  0  0  0  0  0
    8.5116   -5.2855   -3.2366 H   0  0  0  0  0  0  0  0  0  0  0  0
    8.5083   -5.9422   -1.5976 H   0  0  0  0  0  0  0  0  0  0  0  0
   10.7795   -4.9684   -1.2040 H   0  0  0  0  0  0  0  0  0  0  0  0
   10.7840   -4.3072   -2.8456 H   0  0  0  0  0  0  0  0  0  0  0  0
   10.5406   -6.6208   -3.7719 H   0  0  0  0  0  0  0  0  0  0  0  0
   10.5345   -7.2796   -2.1344 H   0  0  0  0  0  0  0  0  0  0  0  0
   12.8042   -6.3041   -1.7319 H   0  0  0  0  0  0  0  0  0  0  0  0
   12.8065   -5.6425   -3.3698 H   0  0  0  0  0  0  0  0  0  0  0  0
   12.5681   -7.9489   -4.3064 H   0  0  0  0  0  0  0  0  0  0  0  0
   12.5635   -8.6132   -2.6684 H   0  0  0  0  0  0  0  0  0  0  0  0
   14.8321   -7.6354   -2.2668 H   0  0  0  0  0  0  0  0  0  0  0  0
   14.8376   -6.9716   -3.9032 H   0  0  0  0  0  0  0  0  0  0  0  0
   14.5940   -9.2796   -4.8404 H   0  0  0  0  0  0  0  0  0  0  0  0
   14.5916   -9.9436   -3.2040 H   0  0  0  0  0  0  0  0  0  0  0  0
   16.8602   -8.9627   -2.8042 H   0  0  0  0  0  0  0  0  0  0  0  0
   16.8622   -8.3011   -4.4416 H   0  0  0  0  0  0  0  0  0  0  0  0
   16.6202  -10.6118   -5.3745 H   0  0  0  0  0  0  0  0  0  0  0  0
   16.6199  -11.2723   -3.7365 H   0  0  0  0  0  0  0  0  0  0  0  0
   18.8882  -10.2899   -3.3407 H   0  0  0  0  0  0  0  0  0  0  0  0
   18.8884   -9.6313   -4.9793 H   0  0  0  0  0  0  0  0  0  0  0  0
   18.6479  -11.9421   -5.9088 H   0  0  0  0  0  0  0  0  0  0  0  0
   18.6459  -12.6016   -4.2704 H   0  0  0  0  0  0  0  0  0  0  0  0
   20.9141  -11.6219   -3.8726 H   0  0  0  0  0  0  0  0  0  0  0  0
   20.9161  -10.9610   -5.5103 H   0  0  0  0  0  0  0  0  0  0  0  0
   20.6750  -13.2713   -6.4425 H   0  0  0  0  0  0  0  0  0  0  0  0
   20.6745  -13.9318   -4.8045 H   0  0  0  0  0  0  0  0  0  0  0  0
   22.9430  -12.9529   -4.4081 H   0  0  0  0  0  0  0  0  0  0  0  0
   22.9423  -12.2905   -6.0449 H   0  0  0  0  0  0  0  0  0  0  0  0
   22.7010  -14.5976   -6.9811 H   0  0  0  0  0  0  0  0  0  0  0  0
   22.7007  -15.2622   -5.3451 H   0  0  0  0  0  0  0  0  0  0  0  0
   24.9686  -14.2818   -4.9470 H   0  0  0  0  0  0  0  0  0  0  0  0
   24.9679  -13.6159   -6.5838 H   0  0  0  0  0  0  0  0  0  0  0  0
   24.7277  -15.9237   -7.5216 H   0  0  0  0  0  0  0  0  0  0  0  0
   24.7274  -16.5894   -5.8858 H   0  0  0  0  0  0  0  0  0  0  0  0
   26.9959  -15.6089   -5.4867 H   0  0  0  0  0  0  0  0  0  0  0  0
   26.9958  -14.9436   -7.1226 H   0  0  0  0  0  0  0  0  0  0  0  0
   26.7541  -17.2510   -8.0613 H   0  0  0  0  0  0  0  0  0  0  0  0
   26.7541  -17.9166   -6.4252 H   0  0  0  0  0  0  0  0  0  0  0  0
   29.0227  -16.9365   -6.0270 H   0  0  0  0  0  0  0  0  0  0  0  0
   29.0221  -16.2711   -7.6629 H   0  0  0  0  0  0  0  0  0  0  0  0
   28.7793  -18.5794   -8.6009 H   0  0  0  0  0  0  0  0  0  0  0  0
   28.7815  -19.2440   -6.9647 H   0  0  0  0  0  0  0  0  0  0  0  0
   31.0497  -18.2628   -6.5691 H   0  0  0  0  0  0  0  0  0  0  0  0
   31.0475  -17.5982   -8.2053 H   0  0  0  0  0  0  0  0  0  0  0  0
   30.8058  -19.9063   -9.1426 H   0  0  0  0  0  0  0  0  0  0  0  0
   30.8081  -20.5710   -7.5063 H   0  0  0  0  0  0  0  0  0  0  0  0
   33.0763  -19.5895   -7.1110 H   0  0  0  0  0  0  0  0  0  0  0  0
   33.0739  -18.9246   -8.7471 H   0  0  0  0  0  0  0  0  0  0  0  0
   32.8332  -21.2325   -9.6849 H   0  0  0  0  0  0  0  0  0  0  0  0
   32.8348  -21.8976   -8.0488 H   0  0  0  0  0  0  0  0  0  0  0  0
   35.1028  -20.9174   -7.6521 H   0  0  0  0  0  0  0  0  0  0  0  0
   35.1010  -20.2504   -9.2875 H   0  0  0  0  0  0  0  0  0  0  0  0
   34.8601  -22.5564  -10.2288 H   0  0  0  0  0  0  0  0  0  0  0  0
   34.8601  -23.2243   -8.5939 H   0  0  0  0  0  0  0  0  0  0  0  0
   37.1282  -22.2460   -8.1934 H   0  0  0  0  0  0  0  0  0  0  0  0
   37.1285  -21.5765   -9.8277 H   0  0  0  0  0  0  0  0  0  0  0  0
   36.8876  -23.8808  -10.7730 H   0  0  0  0  0  0  0  0  0  0  0  0
   36.8851  -24.5513   -9.1392 H   0  0  0  0  0  0  0  0  0  0  0  0
   39.1540  -23.5727   -8.7348 H   0  0  0  0  0  0  0  0  0  0  0  0
   39.1557  -22.9043  -10.3694 H   0  0  0  0  0  0  0  0  0  0  0  0
   38.9136  -25.2101  -11.3127 H   0  0  0  0  0  0  0  0  0  0  0  0
   38.9134  -25.8781   -9.6777 H   0  0  0  0  0  0  0  0  0  0  0  0
   41.1818  -24.8984   -9.2773 H   0  0  0  0  0  0  0  0  0  0  0  0
   41.1818  -24.2306  -10.9122 H   0  0  0  0  0  0  0  0  0  0  0  0
   40.9403  -26.5369  -11.8543 H   0  0  0  0  0  0  0  0  0  0  0  0
   40.9403  -27.2046  -10.2193 H   0  0  0  0  0  0  0  0  0  0  0  0
   43.2085  -26.2251   -9.8192 H   0  0  0  0  0  0  0  0  0  0  0  0
   43.2085  -25.5573  -11.4542 H   0  0  0  0  0  0  0  0  0  0  0  0
   42.9669  -27.8636  -12.3961 H   0  0  0  0  0  0  0  0  0  0  0  0
   42.9671  -28.5313  -10.7611 H   0  0  0  0  0  0  0  0  0  0  0  0
   45.2353  -27.5515  -10.3614 H   0  0  0  0  0  0  0  0  0  0  0  0
   45.2351  -26.8839  -11.9964 H   0  0  0  0  0  0  0  0  0  0  0  0
   44.9926  -29.1910  -12.9376 H   0  0  0  0  0  0  0  0  0  0  0  0
   44.9947  -29.8575  -11.3022 H   0  0  0  0  0  0  0  0  0  0  0  0
   47.2629  -28.8757  -10.9052 H   0  0  0  0  0  0  0  0  0  0  0  0
   47.2611  -28.2110  -12.5416 H   0  0  0  0  0  0  0  0  0  0  0  0
   47.0203  -30.5183  -13.4795 H   0  0  0  0  0  0  0  0  0  0  0  0
   47.0205  -31.1838  -11.8437 H   0  0  0  0  0  0  0  0  0  0  0  0
   49.2885  -30.2050  -11.4447 H   0  0  0  0  0  0  0  0  0  0  0  0
   49.2884  -29.5374  -13.0795 H   0  0  0  0  0  0  0  0  0  0  0  0
   49.0464  -31.8436  -14.0214 H   0  0  0  0  0  0  0  0  0  0  0  0
   49.0468  -32.5120  -12.3862 H   0  0  0  0  0  0  0  0  0  0  0  0
   51.3154  -31.5324  -11.9861 H   0  0  0  0  0  0  0  0  0  0  0  0
   51.3133  -30.8636  -13.6213 H   0  0  0  0  0  0  0  0  0  0  0  0
   51.0718  -33.1688  -14.5649 H   0  0  0  0  0  0  0  0  0  0  0  0
   51.0762  -33.8370  -12.9301 H   0  0  0  0  0  0  0  0  0  0  0  0
   53.3428  -32.8544  -12.5341 H   0  0  0  0  0  0  0  0  0  0  0  0
   53.3403  -32.1874  -14.1698 H   0  0  0  0  0  0  0  0  0  0  0  0
   53.1002  -34.4944  -15.1098 H   0  0  0  0  0  0  0  0  0  0  0  0
   53.0962  -35.1604  -13.4745 H   0  0  0  0  0  0  0  0  0  0  0  0
   55.3656  -34.1833  -13.0718 H   0  0  0  0  0  0  0  0  0  0  0  0
   55.3679  -33.5154  -14.7063 H   0  0  0  0  0  0  0  0  0  0  0  0
   55.1246  -35.8219  -15.6489 H   0  0  0  0  0  0  0  0  0  0  0  0
   55.1261  -36.4896  -14.0139 H   0  0  0  0  0  0  0  0  0  0  0  0
   57.3954  -35.5094  -13.6170 H   0  0  0  0  0  0  0  0  0  0  0  0
   57.3927  -34.8422  -15.2521 H   0  0  0  0  0  0  0  0  0  0  0  0
   57.1519  -37.1486  -16.1933 H   0  0  0  0  0  0  0  0  0  0  0  0
   57.1548  -37.8164  -14.5583 H   0  0  0  0  0  0  0  0  0  0  0  0
   59.4228  -36.8347  -14.1616 H   0  0  0  0  0  0  0  0  0  0  0  0
   59.4201  -36.1678  -15.7969 H   0  0  0  0  0  0  0  0  0  0  0  0
   59.1789  -38.4746  -16.7372 H   0  0  0  0  0  0  0  0  0  0  0  0
   59.1813  -39.1417  -15.1021 H   0  0  0  0  0  0  0  0  0  0  0  0
   61.4495  -38.1603  -14.7051 H   0  0  0  0  0  0  0  0  0  0  0  0
   61.4472  -37.4938  -16.3406 H   0  0  0  0  0  0  0  0  0  0  0  0
   61.2061  -39.8005  -17.2808 H   0  0  0  0  0  0  0  0  0  0  0  0
   61.2081  -40.4675  -15.6456 H   0  0  0  0  0  0  0  0  0  0  0  0
   63.4761  -39.4863  -15.2481 H   0  0  0  0  0  0  0  0  0  0  0  0
   63.4744  -38.8196  -16.8839 H   0  0  0  0  0  0  0  0  0  0  0  0
   63.2325  -41.1256  -17.8240 H   0  0  0  0  0  0  0  0  0  0  0  0
   63.2342  -41.7937  -16.1890 H   0  0  0  0  0  0  0  0  0  0  0  0
   65.5036  -40.8131  -15.7924 H   0  0  0  0  0  0  0  0  0  0  0  0
   65.5004  -40.1465  -17.4281 H   0  0  0  0  0  0  0  0  0  0  0  0
   65.2579  -42.4536  -18.3677 H   0  0  0  0  0  0  0  0  0  0  0  0
   65.2629  -43.1203  -16.7323 H   0  0  0  0  0  0  0  0  0  0  0  0
   67.5312  -42.1375  -16.3389 H   0  0  0  0  0  0  0  0  0  0  0  0
   67.5263  -41.4714  -17.9745 H   0  0  0  0  0  0  0  0  0  0  0  0
   67.2852  -43.7788  -18.9136 H   0  0  0  0  0  0  0  0  0  0  0  0
   67.2899  -44.4449  -17.2780 H   0  0  0  0  0  0  0  0  0  0  0  0
   69.5582  -43.4627  -16.8844 H   0  0  0  0  0  0  0  0  0  0  0  0
   69.5534  -42.7965  -18.5201 H   0  0  0  0  0  0  0  0  0  0  0  0
   69.3126  -45.1038  -19.4592 H   0  0  0  0  0  0  0  0  0  0  0  0
   69.3173  -45.7700  -17.8236 H   0  0  0  0  0  0  0  0  0  0  0  0
   71.5860  -44.7887  -17.4304 H   0  0  0  0  0  0  0  0  0  0  0  0
   71.5814  -44.1225  -19.0659 H   0  0  0  0  0  0  0  0  0  0  0  0
   71.3433  -46.4297  -20.0061 H   0  0  0  0  0  0  0  0  0  0  0  0
   71.3461  -47.0966  -18.3707 H   0  0  0  0  0  0  0  0  0  0  0  0
   73.6151  -46.1161  -17.9744 H   0  0  0  0  0  0  0  0  0  0  0  0
   73.6127  -45.4492  -19.6095 H   0  0  0  0  0  0  0  0  0  0  0  0
   73.3787  -47.7574  -20.5499 H   0  0  0  0  0  0  0  0  0  0  0  0
   73.3812  -48.4236  -18.9149 H   0  0  0  0  0  0  0  0  0  0  0  0
   75.6528  -47.4445  -18.5196 H   0  0  0  0  0  0  0  0  0  0  0  0
   75.6503  -46.7798  -20.1557 H   0  0  0  0  0  0  0  0  0  0  0  0
   75.4112  -49.0903  -21.0925 H   0  0  0  0  0  0  0  0  0  0  0  0
   75.4157  -49.7536  -19.4569 H   0  0  0  0  0  0  0  0  0  0  0  0
   77.7022  -48.7992  -19.0757 H   0  0  0  0  0  0  0  0  0  0  0  0
   77.6976  -48.1355  -20.7120 H   0  0  0  0  0  0  0  0  0  0  0  0
   77.4786  -51.1101  -20.0080 H   0  0  0  0  0  0  0  0  0  0  0  0
   78.9204  -50.2896  -20.6365 H   0  0  0  0  0  0  0  0  0  0  0  0
   77.4739  -50.4433  -21.6519 H   0  0  0  0  0  0  0  0  0  0  0  0
  1  2  1  0  0  0  0
  1 80  1  0  0  0  0
  2  3  1  0  0  0  0
  2  5  1  0  0  0  0
  3  4  1  0  0  0  0
  3 81  1  0  0  0  0
  3 82  1  0  0  0  0
  4 83  1  0  0  0  0
  4 84  1  0  0  0  0
  4 85  1  0  0  0  0
  5  6  1  0  0  0  0
  5 86  1  0  0  0  0
  5 87  1  0  0  0  0
  6  7  1  0  0  0  0
  7  8  1  0  0  0  0
  7 88  1  0  0  0  0
  7 89  1  0  0  0  0
  8  9  1  0  0  0  0
  8 90  1  0  0  0  0
  8 91  1  0  0  0  0
  9 10  1  0  0  0  0
  9 92  1  0  0  0  0
  9 93  1  0  0  0  0
 10 11  1  0  0  0  0
 10 94  1  0  0  0  0
 10 95  1  0  0  0  0
 11 12  1  0  0  0  0
 11 96  1  0  0  0  0
 11 97  1  0  0  0  0
 12 13  1  0  0  0  0
 12 98  1  0  0  0  0
 12 99  1  0  0  0  0
 13 14  1  0  0  0  0
 13100  1  0  0  0  0
 13101  1  0  0  0  0
 14 15  1  0  0  0  0
 14102  1  0  0  0  0
 14103  1  0  0  0  0
 15 16  1  0  0  0  0
 15104  1  0  0  0  0
 15105  1  0  0  0  0
 16 17  1  0  0  0  0
 16106  1  0  0  0  0
 16107  1  0  0  0  0
 17 18  1  0  0  0  0
 17108  1  0  0  0  0
 17109  1  0  0  0  0
 18 19  1  0  0  0  0
 18110  1  0  0  0  0
 18111  1  0  0  0  0
 19 20  1  0  0  0  0
 19112  1  0  0  0  0
 19113  1  0  0  0  0
 20 21  1  0  0  0  0
 20114  1  0  0  0  0
 20115  1  0  0  0  0
 21 22  1  0  0  0  0
 21116  1  0  0  0  0
 21117  1  0  0  0  0
 22 23  1  0  0  0  0
 22118  1  0  0  0  0
 22119  1  0  0  0  0
 23 24  1  0  0  0  0
 23120  1  0  0  0  0
 23121  1  0  0  0  0
 24 25  1  0  0  0  0
 24122  1  0  0  0  0
 24123  1  0  0  0  0
 25 26  1  0  0  0  0
 25124  1  0  0  0  0
 25125  1  0  0  0  0
 26 27  1  0  0  0  0
 26126  1  0  0  0  0
 26127  1  0  0  0  0
 27 28  1  0  0  0  0
 27128  1  0  0  0  0
 27129  1  0  0  0  0
 28 29  1  0  0  0  0
 28130  1  0  0  0  0
 28131  1  0  0  0  0
 29 30  1  0  0  0  0
 29132  1  0  0  0  0
 29133  1  0  0  0  0
 30 31  1  0  0  0  0
 30134  1  0  0  0  0
 30135  1  0  0  0  0
 31 32  1  0  0  0  0
 31136  1  0  0  0  0
 31137  1  0  0  0  0
 32 33  1  0  0  0  0
 32138  1  0  0  0  0
 32139  1  0  0  0  0
 33 34  1  0  0  0  0
 33140  1  0  0  0  0
 33141  1  0  0  0  0
 34 35  1  0  0  0  0
 34142  1  0  0  0  0
 34143  1  0  0  0  0
 35 36  1  0  0  0  0
 35144  1  0  0  0  0
 35145  1  0  0  0  0
 36 37  1  0  0  0  0
 36146  1  0  0  0  0
 36147  1  0  0  0  0
 37 38  1  0  0  0  0
 37148  1  0  0  0  0
 37149  1  0  0  0  0
 38 39  1  0  0  0  0
 38150  1  0  0  0  0
 38151  1  0  0  0  0
 39 40  1  0  0  0  0
 39152  1  0  0  0  0
 39153  1  0  0  0  0
 40 41  1  0  0  0  0
 40154  1  0  0  0  0
 40155  1  0  0  0  0
 41 42  1  0  0  0  0
 41156  1  0  0  0  0
 41157  1  0  0  0  0
 42 43  1  0  0  0  0
 42158  1  0  0  0  0
 42159  1  0  0  0  0
 43 44  1  0  0  0  0
 43160  1  0  0  0  0
 43161  1  0  0  0  0
 44 45  1  0  0  0  0
 44162  1  0  0  0  0
 44163  1  0  0  0  0
 45 46  1  0  0  0  0
 45164  1  0  0  0  0
 45165  1  0  0  0  0
 46 47  1  0  0  0  0
 46166  1  0  0  0  0
 46167  1  0  0  0  0
 47 48  1  0  0  0  0
 47168  1  0  0  0  0
 47169  1  0  0  0  0
 48 49  1  0  0  0  0
 48170  1  0  0  0  0
 48171  1  0  0  0  0
 49 50  1  0  0  0  0
 49172  1  0  0  0  0
 49173  1  0  0  0  0
 50 51  1  0  0  0  0
 50174  1  0  0  0  0
 50175  1  0  0  0  0
 51 52  1  0  0  0  0
 51176  1  0  0  0  0
 51177  1  0  0  0  0
 52 53  1  0  0  0  0
 52178  1  0  0  0  0
 52179  1  0  0  0  0
 53 54  1  0  0  0  0
 53180  1  0  0  0  0
 53181  1  0  0  0  0
 54 55  1  0  0  0  0
 54182  1  0  0  0  0
 54183  1  0  0  0  0
 55 56  1  0  0  0  0
 55184  1  0  0  0  0
 55185  1  0  0  0  0
 56 57  1  0  0  0  0
 56186  1  0  0  0  0
 56187  1  0  0  0  0
 57 58  1  0  0  0  0
 57188  1  0  0  0  0
 57189  1  0  0  0  0
 58 59  1  0  0  0  0
 58190  1  0  0  0  0
 58191  1  0  0  0  0
 59 60  1  0  0  0  0
 59192  1  0  0  0  0
 59193  1  0  0  0  0
 60 61  1  0  0  0  0
 60194  1  0  0  0  0
 60195  1  0  0  0  0
 61 62  1  0  0  0  0
 61196  1  0  0  0  0
 61197  1  0  0  0  0
 62 63  1  0  0  0  0
 62198  1  0  0  0  0
 62199  1  0  0  0  0
 63 64  1  0  0  0  0
 63200  1  0  0  0  0
 63201  1  0  0  0  0
 64 65  1  0  0  0  0
 64202  1  0  0  0  0
 64203  1  0  0  0  0
 65 66  1  0  0  0  0
 65204  1  0  0  0  0
 65205  1  0  0  0  0
 66 67  1  0  0  0  0
 66206  1  0  0  0  0
 66207  1  0  0  0  0
 67 68  1  0  0  0  0
 67208  1  0  0  0  0
 67209  1  0  0  0  0
 68 69  1  0  0  0  0
 68210  1  0  0  0  0
 68211  1  0  0  0  0
 69 70  1  0  0  0  0
 69212  1  0  0  0  0
 69213  1  0  0  0  0
 70 71  1  0  0  0  0
 70214  1  0  0  0  0
 70215  1  0  0  0  0
 71 72  1  0  0  0  0
 71216  1  0  0  0  0
 71217  1  0  0  0  0
 72 73  1  0  0  0  0
 72218  1  0  0  0  0
 72219  1  0  0  0  0
 73 74  1  0  0  0  0
 73220  1  0  0  0  0
 73221  1  0  0  0  0
 74 75  1  0  0  0  0
 74222  1  0  0  0  0
 74223  1  0  0  0  0
 75 76  1  0  0  0  0
 75224  1  0  0  0  0
 75225  1  0  0  0  0
 76 77  1  0  0  0  0
 76226  1  0  0  0  0
 76227  1  0  0  0  0
 77 78  1  0  0  0  0
 77228  1  0  0  0  0
 77229  1  0  0  0  0
 78 79  1  0  0  0  0
 78230  1  0  0  0  0
 78231  1  0  0  0  0
 79232  1  0  0  0  0
 79233  1  0  0  0  0
 79234  1  0  0  0  0
M  END
$$$$
