
 OpenBabel04232217033D

 85 84  0  0  0  0  0  0  0  0999 V2000
   12.9272   -1.6001    4.3129 S   0  0  0  0  0  0  0  0  0  0  0  0
   12.2717   -1.9649    5.8093 O   0  0  0  0  0  0  0  0  0  0  0  0
   12.7216   -1.0290    6.8217 O   0  0  0  0  0  0  0  0  0  0  0  0
   11.9951   -1.3382    8.2805 S   0  0  0  0  0  0  0  0  0  0  0  0
   12.8632    0.1919    9.3666 S   0  0  0  0  0  0  0  0  0  0  0  0
   12.0548    1.9691    8.6479 S   0  0  0  0  0  0  0  0  0  0  0  0
   12.7268    2.0104    7.1229 N   0  0  0  0  0  0  0  0  0  0  0  0
   12.3258    3.2408    6.4224 N   0  0  0  0  0  0  0  0  0  0  0  0
   13.0000    3.2638    4.8770 S   0  0  0  0  0  0  0  0  0  0  0  0
   12.3058    5.0690    4.1317 S   0  0  0  0  0  0  0  0  0  0  0  0
   13.0323    6.6352    5.2998 S   0  0  0  0  0  0  0  0  0  0  0  0
   15.1130    6.6715    5.2246 S   0  0  0  0  0  0  0  0  0  0  0  0
   15.7747    8.2365    6.4675 S   0  0  0  0  0  0  0  0  0  0  0  0
   17.8869    8.2368    6.4669 S   0  0  0  0  0  0  0  0  0  0  0  0
   18.5781    9.8163    7.6874 S   0  0  0  0  0  0  0  0  0  0  0  0
   20.6901    9.8079    7.6812 S   0  0  0  0  0  0  0  0  0  0  0  0
   21.3827   11.3852    8.9008 S   0  0  0  0  0  0  0  0  0  0  0  0
   23.4930   11.3729    8.8912 S   0  0  0  0  0  0  0  0  0  0  0  0
   24.1866   12.9488   10.1098 S   0  0  0  0  0  0  0  0  0  0  0  0
   26.2967   12.9370   10.1011 S   0  0  0  0  0  0  0  0  0  0  0  0
   26.9846   14.5148   11.3205 S   0  0  0  0  0  0  0  0  0  0  0  0
   29.0947   14.5076   11.3151 S   0  0  0  0  0  0  0  0  0  0  0  0
   29.7836   16.0852   12.5350 S   0  0  0  0  0  0  0  0  0  0  0  0
   31.8935   16.0745   12.5267 S   0  0  0  0  0  0  0  0  0  0  0  0
   32.5836   17.6515   13.7460 S   0  0  0  0  0  0  0  0  0  0  0  0
   34.6946   17.6420   13.7388 S   0  0  0  0  0  0  0  0  0  0  0  0
   35.3827   19.2194   14.9584 S   0  0  0  0  0  0  0  0  0  0  0  0
   37.4949   19.2085   14.9500 S   0  0  0  0  0  0  0  0  0  0  0  0
   38.1850   20.7874   16.1711 S   0  0  0  0  0  0  0  0  0  0  0  0
   40.2943   20.7758   16.1620 S   0  0  0  0  0  0  0  0  0  0  0  0
   40.9851   22.3560   17.3838 S   0  0  0  0  0  0  0  0  0  0  0  0
   43.0949   22.3419   17.3729 S   0  0  0  0  0  0  0  0  0  0  0  0
   43.7867   23.9185   18.5920 S   0  0  0  0  0  0  0  0  0  0  0  0
   45.8968   23.9063   18.5826 S   0  0  0  0  0  0  0  0  0  0  0  0
   46.5870   25.4832   19.8019 S   0  0  0  0  0  0  0  0  0  0  0  0
   48.6958   25.4727   19.7938 S   0  0  0  0  0  0  0  0  0  0  0  0
   49.3867   27.0496   21.0131 S   0  0  0  0  0  0  0  0  0  0  0  0
   51.4961   27.0391   21.0050 S   0  0  0  0  0  0  0  0  0  0  0  0
   52.1867   28.6158   22.2242 S   0  0  0  0  0  0  0  0  0  0  0  0
   54.2961   28.6054   22.2161 S   0  0  0  0  0  0  0  0  0  0  0  0
   54.9867   30.1821   23.4353 S   0  0  0  0  0  0  0  0  0  0  0  0
   57.0961   30.1716   23.4272 S   0  0  0  0  0  0  0  0  0  0  0  0
   57.7867   31.7484   24.6464 S   0  0  0  0  0  0  0  0  0  0  0  0
   59.8961   31.7379   24.6383 S   0  0  0  0  0  0  0  0  0  0  0  0
   60.5867   33.3147   25.8575 S   0  0  0  0  0  0  0  0  0  0  0  0
   62.6961   33.3042   25.8494 S   0  0  0  0  0  0  0  0  0  0  0  0
   63.3867   34.8810   27.0686 S   0  0  0  0  0  0  0  0  0  0  0  0
   65.4961   34.8705   27.0605 S   0  0  0  0  0  0  0  0  0  0  0  0
   66.1867   36.4472   28.2797 S   0  0  0  0  0  0  0  0  0  0  0  0
   68.2961   36.4368   28.2716 S   0  0  0  0  0  0  0  0  0  0  0  0
   68.9867   38.0135   29.4908 S   0  0  0  0  0  0  0  0  0  0  0  0
   71.0961   38.0030   29.4827 S   0  0  0  0  0  0  0  0  0  0  0  0
   71.7867   39.5798   30.7019 S   0  0  0  0  0  0  0  0  0  0  0  0
   73.8960   39.5693   30.6938 S   0  0  0  0  0  0  0  0  0  0  0  0
   74.5867   41.1461   31.9130 S   0  0  0  0  0  0  0  0  0  0  0  0
   76.6960   41.1356   31.9049 S   0  0  0  0  0  0  0  0  0  0  0  0
   77.3867   42.7124   33.1241 S   0  0  0  0  0  0  0  0  0  0  0  0
   79.4960   42.7019   33.1160 S   0  0  0  0  0  0  0  0  0  0  0  0
   80.1867   44.2786   34.3352 S   0  0  0  0  0  0  0  0  0  0  0  0
   82.2960   44.2682   34.3271 S   0  0  0  0  0  0  0  0  0  0  0  0
   82.9866   45.8449   35.5463 S   0  0  0  0  0  0  0  0  0  0  0  0
   85.0960   45.8344   35.5382 S   0  0  0  0  0  0  0  0  0  0  0  0
   85.7866   47.4112   36.7575 S   0  0  0  0  0  0  0  0  0  0  0  0
   87.8960   47.4007   36.7493 S   0  0  0  0  0  0  0  0  0  0  0  0
   88.5866   48.9775   37.9686 S   0  0  0  0  0  0  0  0  0  0  0  0
   90.6960   48.9670   37.9605 S   0  0  0  0  0  0  0  0  0  0  0  0
   91.3866   50.5438   39.1797 S   0  0  0  0  0  0  0  0  0  0  0  0
   93.4960   50.5333   39.1715 S   0  0  0  0  0  0  0  0  0  0  0  0
   94.1866   52.1100   40.3907 S   0  0  0  0  0  0  0  0  0  0  0  0
   96.2958   52.0995   40.3826 S   0  0  0  0  0  0  0  0  0  0  0  0
   96.9862   53.6761   41.6017 S   0  0  0  0  0  0  0  0  0  0  0  0
   99.0949   53.6653   41.5934 S   0  0  0  0  0  0  0  0  0  0  0  0
   99.7843   55.2415   42.8121 S   0  0  0  0  0  0  0  0  0  0  0  0
  101.8914   55.2296   42.8029 S   0  0  0  0  0  0  0  0  0  0  0  0
  102.5782   56.8041   44.0202 S   0  0  0  0  0  0  0  0  0  0  0  0
  104.6798   56.7875   44.0083 S   0  0  0  0  0  0  0  0  0  0  0  0
  105.3571   58.3577   45.2216 S   0  0  0  0  0  0  0  0  0  0  0  0
  107.4444   58.3418   45.1765 S   0  0  0  0  0  0  0  0  0  0  0  0
  108.1139   59.8517   46.4418 S   0  0  0  0  0  0  0  0  0  0  0  0
  110.1813   59.8525   46.3560 S   0  0  0  0  0  0  0  0  0  0  0  0
  110.7788   58.0548   47.1810 S   0  0  0  0  0  0  0  0  0  0  0  0
   12.3959   -2.6073    3.5939 H   0  0  0  0  0  0  0  0  0  0  0  0
   12.3864    1.2085    6.6153 H   0  0  0  0  0  0  0  0  0  0  0  0
   12.7006    4.0118    6.9067 H   0  0  0  0  0  0  0  0  0  0  0  0
  112.1201   58.1544   47.0973 H   0  0  0  0  0  0  0  0  0  0  0  0
  1  2  1  0  0  0  0
  1 82  1  0  0  0  0
  2  3  1  0  0  0  0
  3  4  1  0  0  0  0
  4  5  1  0  0  0  0
  5  6  1  0  0  0  0
  6  7  1  0  0  0  0
  7  8  1  0  0  0  0
  7 83  1  0  0  0  0
  8  9  1  0  0  0  0
  8 84  1  0  0  0  0
  9 10  1  0  0  0  0
 10 11  1  0  0  0  0
 11 12  1  0  0  0  0
 12 13  1  0  0  0  0
 13 14  1  0  0  0  0
 14 15  1  0  0  0  0
 15 16  1  0  0  0  0
 16 17  1  0  0  0  0
 17 18  1  0  0  0  0
 18 19  1  0  0  0  0
 19 20  1  0  0  0  0
 20 21  1  0  0  0  0
 21 22  1  0  0  0  0
 22 23  1  0  0  0  0
 23 24  1  0  0  0  0
 24 25  1  0  0  0  0
 25 26  1  0  0  0  0
 26 27  1  0  0  0  0
 27 28  1  0  0  0  0
 28 29  1  0  0  0  0
 29 30  1  0  0  0  0
 30 31  1  0  0  0  0
 31 32  1  0  0  0  0
 32 33  1  0  0  0  0
 33 34  1  0  0  0  0
 34 35  1  0  0  0  0
 35 36  1  0  0  0  0
 36 37  1  0  0  0  0
 37 38  1  0  0  0  0
 38 39  1  0  0  0  0
 39 40  1  0  0  0  0
 40 41  1  0  0  0  0
 41 42  1  0  0  0  0
 42 43  1  0  0  0  0
 43 44  1  0  0  0  0
 44 45  1  0  0  0  0
 45 46  1  0  0  0  0
 46 47  1  0  0  0  0
 47 48  1  0  0  0  0
 48 49  1  0  0  0  0
 49 50  1  0  0  0  0
 50 51  1  0  0  0  0
 51 52  1  0  0  0  0
 52 53  1  0  0  0  0
 53 54  1  0  0  0  0
 54 55  1  0  0  0  0
 55 56  1  0  0  0  0
 56 57  1  0  0  0  0
 57 58  1  0  0  0  0
 58 59  1  0  0  0  0
 59 60  1  0  0  0  0
 60 61  1  0  0  0  0
 61 62  1  0  0  0  0
 62 63  1  0  0  0  0
 63 64  1  0  0  0  0
 64 65  1  0  0  0  0
 65 66  1  0  0  0  0
 66 67  1  0  0  0  0
 67 68  1  0  0  0  0
 68 69  1  0  0  0  0
 69 70  1  0  0  0  0
 70 71  1  0  0  0  0
 71 72  1  0  0  0  0
 72 73  1  0  0  0  0
 73 74  1  0  0  0  0
 74 75  1  0  0  0  0
 75 76  1  0  0  0  0
 76 77  1  0  0  0  0
 77 78  1  0  0  0  0
 78 79  1  0  0  0  0
 79 80  1  0  0  0  0
 80 81  1  0  0  0  0
 81 85  1  0  0  0  0
M  END
$$$$
