
 OpenBabel04232216423D

 25 25  0  0  0  0  0  0  0  0999 V2000
    0.0822   -1.8391    0.1614 C   0  0  0  0  0  0  0  0  0  0  0  0
    1.2608   -1.2708   -0.1214 C   0  0  0  0  0  0  0  0  0  0  0  0
    1.6614    0.0863   -0.4241 C   0  0  0  0  0  0  0  0  0  0  0  0
    1.1338    1.2554   -0.0083 C   0  0  0  0  0  0  0  0  0  0  0  0
    1.7557    2.6153   -0.3131 C   0  0  0  0  0  0  0  0  0  0  0  0
    3.0393    2.6491   -1.1344 C   0  0  0  0  0  0  0  0  0  0  0  0
   -0.1274    1.3622    0.8136 C   0  0  0  0  0  0  0  0  0  0  0  0
   -1.3694    1.2781   -0.0716 C   0  0  0  0  0  0  0  0  0  0  0  0
   -1.6856   -0.1067   -0.6249 C   0  0  0  0  0  0  0  0  0  0  0  0
   -1.2800   -1.2561    0.2654 C   0  0  0  0  0  0  0  0  0  0  0  0
   -2.0757   -1.7746    1.0474 O   0  0  0  0  0  0  0  0  0  0  0  0
    0.0794   -2.9003    0.3991 H   0  0  0  0  0  0  0  0  0  0  0  0
    2.1166   -1.9520   -0.1294 H   0  0  0  0  0  0  0  0  0  0  0  0
    2.5778    0.1085   -1.0029 H   0  0  0  0  0  0  0  0  0  0  0  0
    1.9616    3.1142    0.6391 H   0  0  0  0  0  0  0  0  0  0  0  0
    1.0052    3.2250   -0.8353 H   0  0  0  0  0  0  0  0  0  0  0  0
    3.8470    2.1087   -0.6304 H   0  0  0  0  0  0  0  0  0  0  0  0
    3.3668    3.6856   -1.2655 H   0  0  0  0  0  0  0  0  0  0  0  0
    2.8894    2.2183   -2.1278 H   0  0  0  0  0  0  0  0  0  0  0  0
   -0.1400    2.3299    1.3348 H   0  0  0  0  0  0  0  0  0  0  0  0
   -0.1433    0.6236    1.6223 H   0  0  0  0  0  0  0  0  0  0  0  0
   -1.2777    1.9681   -0.9175 H   0  0  0  0  0  0  0  0  0  0  0  0
   -2.2318    1.6342    0.5088 H   0  0  0  0  0  0  0  0  0  0  0  0
   -1.2501   -0.2540   -1.6183 H   0  0  0  0  0  0  0  0  0  0  0  0
   -2.7725   -0.1842   -0.7728 H   0  0  0  0  0  0  0  0  0  0  0  0
  1  2  2  0  0  0  0
  1 10  1  0  0  0  0
  1 12  1  0  0  0  0
  2  3  1  0  0  0  0
  2 13  1  0  0  0  0
  3  4  2  0  0  0  0
  3 14  1  0  0  0  0
  4  5  1  0  0  0  0
  4  7  1  0  0  0  0
  5  6  1  0  0  0  0
  5 15  1  0  0  0  0
  5 16  1  0  0  0  0
  6 17  1  0  0  0  0
  6 18  1  0  0  0  0
  6 19  1  0  0  0  0
  7  8  1  0  0  0  0
  7 20  1  0  0  0  0
  7 21  1  0  0  0  0
  8  9  1  0  0  0  0
  8 22  1  0  0  0  0
  8 23  1  0  0  0  0
  9 10  1  0  0  0  0
  9 24  1  0  0  0  0
  9 25  1  0  0  0  0
 10 11  2  0  0  0  0
M  END
$$$$
