
 OpenBabel04232216473D

113113  0  0  1  0  0  0  0  0999 V2000
   16.3319   27.7074   -8.6282 C   0  0  0  0  0  0  0  0  0  0  0  0
   14.8535   27.8273   -8.5093 C   0  0  3  0  0  0  0  0  0  0  0  0
   13.9274   26.9736   -9.3359 C   0  0  0  0  0  0  0  0  0  0  0  0
   14.0742   26.7130   -7.8626 C   0  0  3  0  0  0  0  0  0  0  0  0
   12.9793   27.1391   -7.0396 O   0  0  0  0  0  0  0  0  0  0  0  0
   13.4182   26.8693   -5.6829 O   0  0  0  0  0  0  0  0  0  0  0  0
   12.3844   27.2384   -4.7401 O   0  0  0  0  0  0  0  0  0  0  0  0
   11.2008   26.4319   -4.9626 O   0  0  0  0  0  0  0  0  0  0  0  0
   10.2243   26.9437   -4.0700 C   0  0  0  0  0  0  0  0  0  0  0  0
    8.9711   26.3682   -4.3893 O   0  0  0  0  0  0  0  0  0  0  0  0
    7.9794   26.6930   -3.4339 C   0  0  0  0  0  0  0  0  0  0  0  0
    6.7784   26.0050   -3.7394 O   0  0  0  0  0  0  0  0  0  0  0  0
    6.9814   24.5939   -3.7044 C   0  0  0  0  0  0  0  0  0  0  0  0
    5.7535   23.9191   -3.9640 O   0  0  0  0  0  0  0  0  0  0  0  0
    5.9153   22.5058   -3.8889 C   0  0  0  0  0  0  0  0  0  0  0  0
    6.3671   22.0988   -2.6106 O   0  0  0  0  0  0  0  0  0  0  0  0
    5.4283   22.4012   -1.5804 C   0  0  0  0  0  0  0  0  0  0  0  0
    5.9491   22.0518   -0.3038 O   0  0  0  0  0  0  0  0  0  0  0  0
    7.0777   22.8490    0.0422 C   0  0  0  0  0  0  0  0  0  0  0  0
    7.4920   22.5377    1.3576 O   0  0  0  0  0  0  0  0  0  0  0  0
    8.6876   23.2324    1.6833 C   0  0  0  0  0  0  0  0  0  0  0  0
    8.4873   24.6354    1.5627 O   0  0  0  0  0  0  0  0  0  0  0  0
    9.6672   25.3678    1.8684 C   0  0  0  0  0  0  0  0  0  0  0  0
   10.6411   25.1948    0.8502 O   0  0  0  0  0  0  0  0  0  0  0  0
   11.8705   25.7754    1.2312 C   0  0  0  0  0  0  0  0  0  0  0  0
   12.8449   25.4030    0.2713 O   0  0  0  0  0  0  0  0  0  0  0  0
   14.0943   25.9866    0.6121 C   0  0  0  0  0  0  0  0  0  0  0  0
   14.5096   25.5076    1.8835 O   0  0  0  0  0  0  0  0  0  0  0  0
   15.7061   26.2334    2.2966 C   0  0  0  0  0  0  0  0  0  0  0  0
   15.4047   27.5602    2.3925 O   0  0  0  0  0  0  0  0  0  0  0  0
   16.6026   28.2664    2.6288 C   0  0  0  0  0  0  0  0  0  0  0  0
   16.2565   29.5999    2.4309 O   0  0  0  0  0  0  0  0  0  0  0  0
   17.3414   30.4090    2.7595 C   0  0  0  0  0  0  0  0  0  0  0  0
   16.9669   31.7399    2.6152 O   0  0  0  0  0  0  0  0  0  0  0  0
   18.0747   32.3816    3.1360 O   0  0  0  0  0  0  0  0  0  0  0  0
   17.8775   33.7730    3.1124 O   0  0  0  0  0  0  0  0  0  0  0  0
   19.1466   34.3840    3.1167 O   0  0  0  0  0  0  0  0  0  0  0  0
   18.9017   35.7536    3.1294 O   0  0  0  0  0  0  0  0  0  0  0  0
   20.0012   36.3901    3.6995 O   0  0  0  0  0  0  0  0  0  0  0  0
   19.8008   37.7470    3.4657 O   0  0  0  0  0  0  0  0  0  0  0  0
   20.9895   38.4048    3.7384 O   0  0  0  0  0  0  0  0  0  0  0  0
   20.6545   39.7430    3.9175 O   0  0  0  0  0  0  0  0  0  0  0  0
   21.8429   40.4085    4.1642 O   0  0  0  0  0  0  0  0  0  0  0  0
   21.6337   41.7449    3.8570 O   0  0  0  0  0  0  0  0  0  0  0  0
   22.7614   42.4009    4.3117 O   0  0  0  0  0  0  0  0  0  0  0  0
   22.4216   43.7256    4.4831 O   0  0  0  0  0  0  0  0  0  0  0  0
   23.6185   44.4190    4.4744 O   0  0  0  0  0  0  0  0  0  0  0  0
   23.2758   45.7551    4.4983 O   0  0  0  0  0  0  0  0  0  0  0  0
   24.3766   46.4249    4.9846 O   0  0  0  0  0  0  0  0  0  0  0  0
   24.1668   47.7468    4.6576 O   0  0  0  0  0  0  0  0  0  0  0  0
   25.3207   48.4015    5.0135 O   0  0  0  0  0  0  0  0  0  0  0  0
   25.0097   49.7427    5.0225 O   0  0  0  0  0  0  0  0  0  0  0  0
   26.2063   50.3883    5.2302 O   0  0  0  0  0  0  0  0  0  0  0  0
   25.8862   51.7151    5.4091 O   0  0  0  0  0  0  0  0  0  0  0  0
   27.0777   52.3495    5.6774 O   0  0  0  0  0  0  0  0  0  0  0  0
   26.9004   53.6701    5.3058 O   0  0  0  0  0  0  0  0  0  0  0  0
   28.0100   54.3296    5.7905 O   0  0  0  0  0  0  0  0  0  0  0  0
   27.6487   55.6503    5.9832 O   0  0  0  0  0  0  0  0  0  0  0  0
   28.8459   56.3204    6.1513 O   0  0  0  0  0  0  0  0  0  0  0  0
   28.6315   57.6454    5.8176 O   0  0  0  0  0  0  0  0  0  0  0  0
   29.7489   58.3214    6.2767 O   0  0  0  0  0  0  0  0  0  0  0  0
   29.3930   59.6550    6.4173 O   0  0  0  0  0  0  0  0  0  0  0  0
   30.5750   60.3288    6.6851 O   0  0  0  0  0  0  0  0  0  0  0  0
   30.3879   61.6693    6.3564 O   0  0  0  0  0  0  0  0  0  0  0  0
   31.5239   62.3188    6.8283 O   0  0  0  0  0  0  0  0  0  0  0  0
   31.2397   63.6731    7.0017 O   0  0  0  0  0  0  0  0  0  0  0  0
   32.4860   64.3154    7.0133 O   0  0  0  0  0  0  0  0  0  0  0  0
   32.2844   65.6900    6.8671 O   0  0  0  0  0  0  0  0  0  0  0  0
   33.2963   66.3561    7.5954 O   0  0  0  0  0  0  0  0  0  0  0  0
   33.0440   67.7328    7.4667 O   0  0  0  0  0  0  0  0  0  0  0  0
   34.2545   68.4566    7.3334 O   0  0  0  0  0  0  0  0  0  0  0  0
   33.8958   69.8228    7.5427 O   0  0  0  0  0  0  0  0  0  0  0  0
   34.9210   70.5347    8.2141 O   0  0  0  0  0  0  0  0  0  0  0  0
   34.9666   71.8371    7.6115 O   0  0  0  0  0  0  0  0  0  0  0  0
   36.1847   72.4995    7.9402 O   0  0  0  0  0  0  0  0  0  0  0  0
   35.8922   73.7461    8.5989 O   0  0  0  0  0  0  0  0  0  0  0  0
   37.0586   74.5926    8.5559 O   0  0  0  0  0  0  0  0  0  0  0  0
   36.6921   75.9599    8.2699 O   0  0  0  0  0  0  0  0  0  0  0  0
   36.3218   76.1149    6.8790 O   0  0  0  0  0  0  0  0  0  0  0  0
   16.7379   28.5763   -9.1551 H   0  0  0  0  0  0  0  0  0  0  0  0
   16.6294   26.8073   -9.1751 H   0  0  0  0  0  0  0  0  0  0  0  0
   16.7876   27.6709   -7.6335 H   0  0  0  0  0  0  0  0  0  0  0  0
   14.5480   28.8432   -8.2833 H   0  0  0  0  0  0  0  0  0  0  0  0
   14.3509   26.2415  -10.0136 H   0  0  0  0  0  0  0  0  0  0  0  0
   12.9954   27.4073   -9.6805 H   0  0  0  0  0  0  0  0  0  0  0  0
   14.5879   25.7968   -7.5890 H   0  0  0  0  0  0  0  0  0  0  0  0
   10.1555   28.0328   -4.1687 H   0  0  0  0  0  0  0  0  0  0  0  0
   10.5197   26.6720   -3.0511 H   0  0  0  0  0  0  0  0  0  0  0  0
    7.7715   27.7673   -3.4657 H   0  0  0  0  0  0  0  0  0  0  0  0
    8.3056   26.4300   -2.4191 H   0  0  0  0  0  0  0  0  0  0  0  0
    7.3519   24.3255   -2.7087 H   0  0  0  0  0  0  0  0  0  0  0  0
    7.7143   24.2981   -4.4630 H   0  0  0  0  0  0  0  0  0  0  0  0
    6.6550   22.1828   -4.6310 H   0  0  0  0  0  0  0  0  0  0  0  0
    4.9662   22.0183   -4.1328 H   0  0  0  0  0  0  0  0  0  0  0  0
    4.5097   21.8291   -1.7421 H   0  0  0  0  0  0  0  0  0  0  0  0
    5.1719   23.4687   -1.5829 H   0  0  0  0  0  0  0  0  0  0  0  0
    6.8065   23.9092   -0.0279 H   0  0  0  0  0  0  0  0  0  0  0  0
    7.8925   22.6296   -0.6584 H   0  0  0  0  0  0  0  0  0  0  0  0
    9.4922   22.8951    1.0165 H   0  0  0  0  0  0  0  0  0  0  0  0
    8.9575   22.9770    2.7125 H   0  0  0  0  0  0  0  0  0  0  0  0
   10.0435   25.0703    2.8552 H   0  0  0  0  0  0  0  0  0  0  0  0
    9.3935   26.4271    1.9036 H   0  0  0  0  0  0  0  0  0  0  0  0
   12.1572   25.4150    2.2269 H   0  0  0  0  0  0  0  0  0  0  0  0
   11.7570   26.8656    1.2472 H   0  0  0  0  0  0  0  0  0  0  0  0
   13.9713   27.0857    0.5973 H   0  0  0  0  0  0  0  0  0  0  0  0
   14.8287   25.7156   -0.1438 H   0  0  0  0  0  0  0  0  0  0  0  0
   16.4952   25.9714    1.6240 H   0  0  0  0  0  0  0  0  0  0  0  0
   15.9404   25.8252    3.3105 H   0  0  0  0  0  0  0  0  0  0  0  0
   17.3753   27.9912    1.8968 H   0  0  0  0  0  0  0  0  0  0  0  0
   16.9330   28.0757    3.6583 H   0  0  0  0  0  0  0  0  0  0  0  0
   18.1997   30.2091    2.0874 H   0  0  0  0  0  0  0  0  0  0  0  0
   17.6658   30.2272    3.8008 H   0  0  0  0  0  0  0  0  0  0  0  0
   35.8706   76.9670    7.0016 H   0  0  0  0  0  0  0  0  0  0  0  0
  1  2  1  0  0  0  0
  1 80  1  0  0  0  0
  1 81  1  0  0  0  0
  1 82  1  0  0  0  0
  2  3  1  0  0  0  0
  2  4  1  0  0  0  0
  2 83  1  0  0  0  0
  3  4  1  0  0  0  0
  3 84  1  0  0  0  0
  3 85  1  0  0  0  0
  4  5  1  0  0  0  0
  4 86  1  0  0  0  0
  5  6  1  0  0  0  0
  6  7  1  0  0  0  0
  7  8  1  0  0  0  0
  8  9  1  0  0  0  0
  9 10  1  0  0  0  0
  9 87  1  0  0  0  0
  9 88  1  0  0  0  0
 10 11  1  0  0  0  0
 11 12  1  0  0  0  0
 11 89  1  0  0  0  0
 11 90  1  0  0  0  0
 12 13  1  0  0  0  0
 13 14  1  0  0  0  0
 13 91  1  0  0  0  0
 13 92  1  0  0  0  0
 14 15  1  0  0  0  0
 15 16  1  0  0  0  0
 15 93  1  0  0  0  0
 15 94  1  0  0  0  0
 16 17  1  0  0  0  0
 17 18  1  0  0  0  0
 17 95  1  0  0  0  0
 17 96  1  0  0  0  0
 18 19  1  0  0  0  0
 19 20  1  0  0  0  0
 19 97  1  0  0  0  0
 19 98  1  0  0  0  0
 20 21  1  0  0  0  0
 21 22  1  0  0  0  0
 21 99  1  0  0  0  0
 21100  1  0  0  0  0
 22 23  1  0  0  0  0
 23 24  1  0  0  0  0
 23101  1  0  0  0  0
 23102  1  0  0  0  0
 24 25  1  0  0  0  0
 25 26  1  0  0  0  0
 25103  1  0  0  0  0
 25104  1  0  0  0  0
 26 27  1  0  0  0  0
 27 28  1  0  0  0  0
 27105  1  0  0  0  0
 27106  1  0  0  0  0
 28 29  1  0  0  0  0
 29 30  1  0  0  0  0
 29107  1  0  0  0  0
 29108  1  0  0  0  0
 30 31  1  0  0  0  0
 31 32  1  0  0  0  0
 31109  1  0  0  0  0
 31110  1  0  0  0  0
 32 33  1  0  0  0  0
 33 34  1  0  0  0  0
 33111  1  0  0  0  0
 33112  1  0  0  0  0
 34 35  1  0  0  0  0
 35 36  1  0  0  0  0
 36 37  1  0  0  0  0
 37 38  1  0  0  0  0
 38 39  1  0  0  0  0
 39 40  1  0  0  0  0
 40 41  1  0  0  0  0
 41 42  1  0  0  0  0
 42 43  1  0  0  0  0
 43 44  1  0  0  0  0
 44 45  1  0  0  0  0
 45 46  1  0  0  0  0
 46 47  1  0  0  0  0
 47 48  1  0  0  0  0
 48 49  1  0  0  0  0
 49 50  1  0  0  0  0
 50 51  1  0  0  0  0
 51 52  1  0  0  0  0
 52 53  1  0  0  0  0
 53 54  1  0  0  0  0
 54 55  1  0  0  0  0
 55 56  1  0  0  0  0
 56 57  1  0  0  0  0
 57 58  1  0  0  0  0
 58 59  1  0  0  0  0
 59 60  1  0  0  0  0
 60 61  1  0  0  0  0
 61 62  1  0  0  0  0
 62 63  1  0  0  0  0
 63 64  1  0  0  0  0
 64 65  1  0  0  0  0
 65 66  1  0  0  0  0
 66 67  1  0  0  0  0
 67 68  1  0  0  0  0
 68 69  1  0  0  0  0
 69 70  1  0  0  0  0
 70 71  1  0  0  0  0
 71 72  1  0  0  0  0
 72 73  1  0  0  0  0
 73 74  1  0  0  0  0
 74 75  1  0  0  0  0
 75 76  1  0  0  0  0
 76 77  1  0  0  0  0
 77 78  1  0  0  0  0
 78 79  1  0  0  0  0
 79113  1  0  0  0  0
M  END
$$$$
