
 OpenBabel04232216433D

147146  0  0  1  0  0  0  0  0999 V2000
   37.8462  -12.5726   22.0130 C   0  0  0  0  0  0  0  0  0  0  0  0
   37.3380  -11.2726   21.3778 C   0  0  3  0  0  0  0  0  0  0  0  0
   37.8812  -10.0347   22.1192 C   0  0  0  0  0  0  0  0  0  0  0  0
   37.4845   -9.9753   23.5886 C   0  0  0  0  0  0  0  0  0  0  0  0
   37.7557  -11.3261   19.9547 N   0  0  0  0  0  0  0  0  0  0  0  0
   37.3381  -10.1748   19.2454 N   0  0  0  0  0  0  0  0  0  0  0  0
   37.6090  -10.3311   17.8514 N   0  0  0  0  0  0  0  0  0  0  0  0
   37.0603  -11.5341   17.3339 N   0  0  0  0  0  0  0  0  0  0  0  0
   35.6256  -11.4812   17.4457 N   0  0  0  0  0  0  0  0  0  0  0  0
   35.2371  -10.1936   16.9059 N   0  0  0  0  0  0  0  0  0  0  0  0
   35.5575  -10.1072   15.4907 N   0  0  0  0  0  0  0  0  0  0  0  0
   35.0485  -11.2299   14.7697 N   0  0  0  0  0  0  0  0  0  0  0  0
   33.6342  -11.2965   14.8295 N   0  0  0  0  0  0  0  0  0  0  0  0
   33.0893  -10.1733   14.1392 N   0  0  0  0  0  0  0  0  0  0  0  0
   33.6391  -10.1486   12.8042 N   0  0  0  0  0  0  0  0  0  0  0  0
   33.2161  -11.3315   12.1119 N   0  0  0  0  0  0  0  0  0  0  0  0
   31.7705  -11.3814   12.0695 N   0  0  0  0  0  0  0  0  0  0  0  0
   31.1753  -10.1570   11.6053 N   0  0  0  0  0  0  0  0  0  0  0  0
   31.3412   -9.9868   10.1847 N   0  0  0  0  0  0  0  0  0  0  0  0
   30.8825  -11.1631    9.5314 N   0  0  0  0  0  0  0  0  0  0  0  0
   29.4486  -11.2287    9.6000 N   0  0  0  0  0  0  0  0  0  0  0  0
   28.8363  -10.0735    9.0179 N   0  0  0  0  0  0  0  0  0  0  0  0
   29.3547   -9.8427    7.7042 N   0  0  0  0  0  0  0  0  0  0  0  0
   28.8526  -10.8046    6.7992 N   0  0  0  0  0  0  0  0  0  0  0  0
   27.4463  -10.9103    6.8852 N   0  0  0  0  0  0  0  0  0  0  0  0
   27.0709  -11.9530    6.0705 N   0  0  0  0  0  0  0  0  0  0  0  0
   27.6053  -13.1178    6.6564 N   0  0  0  0  0  0  0  0  0  0  0  0
   26.9823  -14.2497    6.1673 N   0  0  0  0  0  0  0  0  0  0  0  0
   27.6768  -15.3705    6.6686 N   0  0  0  0  0  0  0  0  0  0  0  0
   27.2782  -15.6139    8.0086 N   0  0  0  0  0  0  0  0  0  0  0  0
   27.6602  -16.9298    8.4096 N   0  0  0  0  0  0  0  0  0  0  0  0
   29.1013  -16.9296    8.5102 N   0  0  0  0  0  0  0  0  0  0  0  0
   29.6102  -18.0599    9.1884 N   0  0  0  0  0  0  0  0  0  0  0  0
   31.0121  -18.0738    9.0731 N   0  0  0  0  0  0  0  0  0  0  0  0
   31.4734  -19.3326    9.4792 N   0  0  0  0  0  0  0  0  0  0  0  0
   32.8874  -19.2636    9.5060 N   0  0  0  0  0  0  0  0  0  0  0  0
   33.3336  -20.5243   10.0952 C   0  0  0  0  0  0  0  0  0  0  0  0
   34.8667  -20.5205   10.0373 C   0  0  0  0  0  0  0  0  0  0  0  0
   35.3516  -21.8414   10.6271 C   0  0  0  0  0  0  0  0  0  0  0  0
   36.8648  -21.8666   10.5928 C   0  0  0  0  0  0  0  0  0  0  0  0
   37.3635  -23.1543   11.1945 C   0  0  0  0  0  0  0  0  0  0  0  0
   38.8559  -23.1529   11.1548 C   0  0  0  0  0  0  0  0  0  0  0  0
   39.3376  -24.4446   11.7598 C   0  0  0  0  0  0  0  0  0  0  0  0
   40.8524  -24.4466   11.7195 C   0  0  0  0  0  0  0  0  0  0  0  0
   41.3285  -25.7287   12.3263 C   0  0  0  0  0  0  0  0  0  0  0  0
   42.8130  -25.7438   12.2737 C   0  0  0  0  0  0  0  0  0  0  0  0
   43.2706  -27.0476   12.8746 C   0  0  0  0  0  0  0  0  0  0  0  0
   44.7467  -27.0550   12.8209 C   0  0  0  0  0  0  0  0  0  0  0  0
   45.2055  -28.3449   13.4151 C   0  0  0  0  0  0  0  0  0  0  0  0
   46.6014  -28.2764   13.2706 O   0  0  0  0  0  0  0  0  0  0  0  0
   47.1027  -29.3094   14.1095 O   0  0  0  0  0  0  0  0  0  0  0  0
   48.4835  -29.3729   13.8402 O   0  0  0  0  0  0  0  0  0  0  0  0
   48.9946  -30.6788   14.0228 O   0  0  0  0  0  0  0  0  0  0  0  0
   50.2910  -30.4872   14.5682 O   0  0  0  0  0  0  0  0  0  0  0  0
   50.7659  -31.6529   15.2155 O   0  0  0  0  0  0  0  0  0  0  0  0
   52.0142  -31.9684   14.6023 O   0  0  0  0  0  0  0  0  0  0  0  0
   52.5517  -33.1658   15.1441 O   0  0  0  0  0  0  0  0  0  0  0  0
   53.8339  -32.8549   15.6902 O   0  0  0  0  0  0  0  0  0  0  0  0
   54.4012  -34.0073   16.3045 O   0  0  0  0  0  0  0  0  0  0  0  0
   55.6421  -34.2822   15.6546 O   0  0  0  0  0  0  0  0  0  0  0  0
   56.1706  -35.5257   16.1024 O   0  0  0  0  0  0  0  0  0  0  0  0
   57.4962  -35.2897   16.5687 O   0  0  0  0  0  0  0  0  0  0  0  0
   57.9752  -36.4196   17.2845 O   0  0  0  0  0  0  0  0  0  0  0  0
   59.3606  -36.5652   16.9939 O   0  0  0  0  0  0  0  0  0  0  0  0
   59.8091  -37.8423   17.4234 O   0  0  0  0  0  0  0  0  0  0  0  0
   61.2210  -37.9067   17.2471 O   0  0  0  0  0  0  0  0  0  0  0  0
   61.7207  -39.0810   17.8778 O   0  0  0  0  0  0  0  0  0  0  0  0
   63.0836  -38.8682   18.2485 O   0  0  0  0  0  0  0  0  0  0  0  0
   63.6221  -40.0789   18.7835 O   0  0  0  0  0  0  0  0  0  0  0  0
   64.9505  -40.2736   18.2822 O   0  0  0  0  0  0  0  0  0  0  0  0
   65.4964  -41.4832   18.8250 O   0  0  0  0  0  0  0  0  0  0  0  0
   66.8514  -41.2579   19.2499 O   0  0  0  0  0  0  0  0  0  0  0  0
   67.3772  -42.4547   19.8473 O   0  0  0  0  0  0  0  0  0  0  0  0
   68.6935  -42.7376   19.3302 O   0  0  0  0  0  0  0  0  0  0  0  0
   69.1839  -43.9601   19.9146 O   0  0  0  0  0  0  0  0  0  0  0  0
   70.4957  -43.7732   20.4906 O   0  0  0  0  0  0  0  0  0  0  0  0
   71.0928  -45.0692   20.7394 O   0  0  0  0  0  0  0  0  0  0  0  0
   72.5254  -45.0277   20.5487 O   0  0  0  0  0  0  0  0  0  0  0  0
   72.8585  -45.0530   19.1398 O   0  0  0  0  0  0  0  0  0  0  0  0
   37.5027  -12.6824   23.0458 H   0  0  0  0  0  0  0  0  0  0  0  0
   38.9446  -12.6111   22.0154 H   0  0  0  0  0  0  0  0  0  0  0  0
   37.4858  -13.4528   21.4672 H   0  0  0  0  0  0  0  0  0  0  0  0
   36.2397  -11.2743   21.4297 H   0  0  0  0  0  0  0  0  0  0  0  0
   37.4939   -9.1203   21.6547 H   0  0  0  0  0  0  0  0  0  0  0  0
   38.9755   -9.9942   22.0386 H   0  0  0  0  0  0  0  0  0  0  0  0
   36.3989  -10.0564   23.7037 H   0  0  0  0  0  0  0  0  0  0  0  0
   37.8001   -9.0200   24.0198 H   0  0  0  0  0  0  0  0  0  0  0  0
   37.9597  -10.7707   24.1684 H   0  0  0  0  0  0  0  0  0  0  0  0
   37.3581  -12.1914   19.5995 H   0  0  0  0  0  0  0  0  0  0  0  0
   37.7998   -9.3240   19.6085 H   0  0  0  0  0  0  0  0  0  0  0  0
   38.6059  -10.3205   17.6515 H   0  0  0  0  0  0  0  0  0  0  0  0
   37.4997  -12.3425   17.7736 H   0  0  0  0  0  0  0  0  0  0  0  0
   35.4207  -11.4536   18.4557 H   0  0  0  0  0  0  0  0  0  0  0  0
   35.8392   -9.5120   17.3998 H   0  0  0  0  0  0  0  0  0  0  0  0
   36.5643  -10.0849   15.3387 H   0  0  0  0  0  0  0  0  0  0  0  0
   35.4136  -12.0983   15.1521 H   0  0  0  0  0  0  0  0  0  0  0  0
   33.3551  -11.3369   15.8208 H   0  0  0  0  0  0  0  0  0  0  0  0
   33.4034   -9.3290   14.6338 H   0  0  0  0  0  0  0  0  0  0  0  0
   34.6685  -10.2039   12.9233 H   0  0  0  0  0  0  0  0  0  0  0  0
   33.5477  -12.1516   12.6447 H   0  0  0  0  0  0  0  0  0  0  0  0
   31.4152  -11.4992   13.0139 H   0  0  0  0  0  0  0  0  0  0  0  0
   31.5850   -9.3815   12.1430 H   0  0  0  0  0  0  0  0  0  0  0  0
   32.3480   -9.8698   10.0189 H   0  0  0  0  0  0  0  0  0  0  0  0
   31.2660  -11.9462   10.0779 H   0  0  0  0  0  0  0  0  0  0  0  0
   29.1796  -11.2834   10.5883 H   0  0  0  0  0  0  0  0  0  0  0  0
   29.1270   -9.2641    9.5962 H   0  0  0  0  0  0  0  0  0  0  0  0
   30.3733   -9.9776    7.7827 H   0  0  0  0  0  0  0  0  0  0  0  0
   29.1273  -11.7635    7.0914 H   0  0  0  0  0  0  0  0  0  0  0  0
   27.0338  -10.0461    6.5713 H   0  0  0  0  0  0  0  0  0  0  0  0
   27.5146  -11.7933    5.1746 H   0  0  0  0  0  0  0  0  0  0  0  0
   27.5446  -12.9854    7.6783 H   0  0  0  0  0  0  0  0  0  0  0  0
   27.0332  -14.2280    5.1513 H   0  0  0  0  0  0  0  0  0  0  0  0
   28.6803  -15.1697    6.6165 H   0  0  0  0  0  0  0  0  0  0  0  0
   26.2664  -15.4625    8.0832 H   0  0  0  0  0  0  0  0  0  0  0  0
   27.3472  -17.5939    7.6947 H   0  0  0  0  0  0  0  0  0  0  0  0
   29.3879  -16.0691    8.9848 H   0  0  0  0  0  0  0  0  0  0  0  0
   29.2529  -18.9160    8.7541 H   0  0  0  0  0  0  0  0  0  0  0  0
   31.4658  -17.3750    9.6679 H   0  0  0  0  0  0  0  0  0  0  0  0
   31.1849  -20.0397    8.7980 H   0  0  0  0  0  0  0  0  0  0  0  0
   33.1917  -18.4784   10.0994 H   0  0  0  0  0  0  0  0  0  0  0  0
   32.9703  -21.3751    9.5116 H   0  0  0  0  0  0  0  0  0  0  0  0
   32.9838  -20.6272   11.1266 H   0  0  0  0  0  0  0  0  0  0  0  0
   35.2645  -19.6882   10.6208 H   0  0  0  0  0  0  0  0  0  0  0  0
   35.2132  -20.4193    9.0146 H   0  0  0  0  0  0  0  0  0  0  0  0
   34.9505  -22.6849   10.0566 H   0  0  0  0  0  0  0  0  0  0  0  0
   34.9986  -21.9486   11.6607 H   0  0  0  0  0  0  0  0  0  0  0  0
   37.2628  -21.0100   11.1467 H   0  0  0  0  0  0  0  0  0  0  0  0
   37.2165  -21.7746    9.5556 H   0  0  0  0  0  0  0  0  0  0  0  0
   36.9577  -24.0291   10.6507 H   0  0  0  0  0  0  0  0  0  0  0  0
   37.0045  -23.2383   12.2323 H   0  0  0  0  0  0  0  0  0  0  0  0
   39.2605  -22.3052   11.7099 H   0  0  0  0  0  0  0  0  0  0  0  0
   39.2185  -23.0715   10.1170 H   0  0  0  0  0  0  0  0  0  0  0  0
   38.9524  -25.3044   11.2088 H   0  0  0  0  0  0  0  0  0  0  0  0
   38.9956  -24.5317   12.7988 H   0  0  0  0  0  0  0  0  0  0  0  0
   41.2458  -23.5748   12.2720 H   0  0  0  0  0  0  0  0  0  0  0  0
   41.1989  -24.3514   10.6820 H   0  0  0  0  0  0  0  0  0  0  0  0
   40.9019  -26.5896   11.7560 H   0  0  0  0  0  0  0  0  0  0  0  0
   40.9579  -25.8268   13.3585 H   0  0  0  0  0  0  0  0  0  0  0  0
   43.2146  -24.9046   12.8318 H   0  0  0  0  0  0  0  0  0  0  0  0
   43.1617  -25.6634   11.2465 H   0  0  0  0  0  0  0  0  0  0  0  0
   42.8573  -27.8983   12.3191 H   0  0  0  0  0  0  0  0  0  0  0  0
   42.9237  -27.1363   13.9153 H   0  0  0  0  0  0  0  0  0  0  0  0
   45.1847  -26.2123   13.3779 H   0  0  0  0  0  0  0  0  0  0  0  0
   45.1187  -26.9595   11.7830 H   0  0  0  0  0  0  0  0  0  0  0  0
   44.8342  -29.2129   12.8679 H   0  0  0  0  0  0  0  0  0  0  0  0
   44.9350  -28.4170   14.4694 H   0  0  0  0  0  0  0  0  0  0  0  0
   73.7776  -44.7602   19.2594 H   0  0  0  0  0  0  0  0  0  0  0  0
  1  2  1  0  0  0  0
  1 80  1  0  0  0  0
  1 81  1  0  0  0  0
  1 82  1  0  0  0  0
  2  3  1  0  0  0  0
  2  5  1  0  0  0  0
  2 83  1  0  0  0  0
  3  4  1  0  0  0  0
  3 84  1  0  0  0  0
  3 85  1  0  0  0  0
  4 86  1  0  0  0  0
  4 87  1  0  0  0  0
  4 88  1  0  0  0  0
  5  6  1  0  0  0  0
  5 89  1  0  0  0  0
  6  7  1  0  0  0  0
  6 90  1  0  0  0  0
  7  8  1  0  0  0  0
  7 91  1  0  0  0  0
  8  9  1  0  0  0  0
  8 92  1  0  0  0  0
  9 10  1  0  0  0  0
  9 93  1  0  0  0  0
 10 11  1  0  0  0  0
 10 94  1  0  0  0  0
 11 12  1  0  0  0  0
 11 95  1  0  0  0  0
 12 13  1  0  0  0  0
 12 96  1  0  0  0  0
 13 14  1  0  0  0  0
 13 97  1  0  0  0  0
 14 15  1  0  0  0  0
 14 98  1  0  0  0  0
 15 16  1  0  0  0  0
 15 99  1  0  0  0  0
 16 17  1  0  0  0  0
 16100  1  0  0  0  0
 17 18  1  0  0  0  0
 17101  1  0  0  0  0
 18 19  1  0  0  0  0
 18102  1  0  0  0  0
 19 20  1  0  0  0  0
 19103  1  0  0  0  0
 20 21  1  0  0  0  0
 20104  1  0  0  0  0
 21 22  1  0  0  0  0
 21105  1  0  0  0  0
 22 23  1  0  0  0  0
 22106  1  0  0  0  0
 23 24  1  0  0  0  0
 23107  1  0  0  0  0
 24 25  1  0  0  0  0
 24108  1  0  0  0  0
 25 26  1  0  0  0  0
 25109  1  0  0  0  0
 26 27  1  0  0  0  0
 26110  1  0  0  0  0
 27 28  1  0  0  0  0
 27111  1  0  0  0  0
 28 29  1  0  0  0  0
 28112  1  0  0  0  0
 29 30  1  0  0  0  0
 29113  1  0  0  0  0
 30 31  1  0  0  0  0
 30114  1  0  0  0  0
 31 32  1  0  0  0  0
 31115  1  0  0  0  0
 32 33  1  0  0  0  0
 32116  1  0  0  0  0
 33 34  1  0  0  0  0
 33117  1  0  0  0  0
 34 35  1  0  0  0  0
 34118  1  0  0  0  0
 35 36  1  0  0  0  0
 35119  1  0  0  0  0
 36 37  1  0  0  0  0
 36120  1  0  0  0  0
 37 38  1  0  0  0  0
 37121  1  0  0  0  0
 37122  1  0  0  0  0
 38 39  1  0  0  0  0
 38123  1  0  0  0  0
 38124  1  0  0  0  0
 39 40  1  0  0  0  0
 39125  1  0  0  0  0
 39126  1  0  0  0  0
 40 41  1  0  0  0  0
 40127  1  0  0  0  0
 40128  1  0  0  0  0
 41 42  1  0  0  0  0
 41129  1  0  0  0  0
 41130  1  0  0  0  0
 42 43  1  0  0  0  0
 42131  1  0  0  0  0
 42132  1  0  0  0  0
 43 44  1  0  0  0  0
 43133  1  0  0  0  0
 43134  1  0  0  0  0
 44 45  1  0  0  0  0
 44135  1  0  0  0  0
 44136  1  0  0  0  0
 45 46  1  0  0  0  0
 45137  1  0  0  0  0
 45138  1  0  0  0  0
 46 47  1  0  0  0  0
 46139  1  0  0  0  0
 46140  1  0  0  0  0
 47 48  1  0  0  0  0
 47141  1  0  0  0  0
 47142  1  0  0  0  0
 48 49  1  0  0  0  0
 48143  1  0  0  0  0
 48144  1  0  0  0  0
 49 50  1  0  0  0  0
 49145  1  0  0  0  0
 49146  1  0  0  0  0
 50 51  1  0  0  0  0
 51 52  1  0  0  0  0
 52 53  1  0  0  0  0
 53 54  1  0  0  0  0
 54 55  1  0  0  0  0
 55 56  1  0  0  0  0
 56 57  1  0  0  0  0
 57 58  1  0  0  0  0
 58 59  1  0  0  0  0
 59 60  1  0  0  0  0
 60 61  1  0  0  0  0
 61 62  1  0  0  0  0
 62 63  1  0  0  0  0
 63 64  1  0  0  0  0
 64 65  1  0  0  0  0
 65 66  1  0  0  0  0
 66 67  1  0  0  0  0
 67 68  1  0  0  0  0
 68 69  1  0  0  0  0
 69 70  1  0  0  0  0
 70 71  1  0  0  0  0
 71 72  1  0  0  0  0
 72 73  1  0  0  0  0
 73 74  1  0  0  0  0
 74 75  1  0  0  0  0
 75 76  1  0  0  0  0
 76 77  1  0  0  0  0
 77 78  1  0  0  0  0
 78 79  1  0  0  0  0
 79147  1  0  0  0  0
M  END
$$$$
