
 OpenBabel04232216563D

236235  0  0  1  0  0  0  0  0999 V2000
    5.0588   -3.3053    1.6930 C   0  0  0  0  0  0  0  0  0  0  0  0
    4.5531   -1.9564    1.9191 N   0  0  0  0  0  0  0  0  0  0  0  0
    5.0344   -0.9812    0.9220 C   0  0  3  0  0  0  0  0  0  0  0  0
    4.5431   -1.3224   -0.4934 C   0  0  0  0  0  0  0  0  0  0  0  0
    4.5310    0.4373    1.2771 C   0  0  0  0  0  0  0  0  0  0  0  0
    5.0062    0.9477    2.6313 C   0  0  0  0  0  0  0  0  0  0  0  0
    6.4303    0.9373    2.6610 O   0  0  0  0  0  0  0  0  0  0  0  0
    6.9111    1.3302    3.9406 C   0  0  0  0  0  0  0  0  0  0  0  0
    8.4270    1.3165    3.9112 C   0  0  0  0  0  0  0  0  0  0  0  0
    8.9663    1.7340    5.2697 C   0  0  0  0  0  0  0  0  0  0  0  0
   10.4846    1.7366    5.2741 C   0  0  0  0  0  0  0  0  0  0  0  0
   10.9949    2.1643    6.6407 C   0  0  0  0  0  0  0  0  0  0  0  0
   12.5130    2.1714    6.6518 C   0  0  0  0  0  0  0  0  0  0  0  0
   13.0220    2.5974    8.0178 C   0  0  0  0  0  0  0  0  0  0  0  0
   14.5396    2.6026    8.0258 C   0  0  0  0  0  0  0  0  0  0  0  0
   15.0496    3.0274    9.3902 C   0  0  0  0  0  0  0  0  0  0  0  0
   16.5670    3.0330    9.3950 C   0  0  0  0  0  0  0  0  0  0  0  0
   17.0781    3.4598   10.7581 C   0  0  0  0  0  0  0  0  0  0  0  0
   18.5953    3.4670   10.7610 C   0  0  0  0  0  0  0  0  0  0  0  0
   19.1064    3.8957   12.1233 C   0  0  0  0  0  0  0  0  0  0  0  0
   20.6233    3.9010   12.1270 C   0  0  0  0  0  0  0  0  0  0  0  0
   21.1336    4.3312   13.4891 C   0  0  0  0  0  0  0  0  0  0  0  0
   22.6504    4.3345   13.4937 C   0  0  0  0  0  0  0  0  0  0  0  0
   23.1606    4.7666   14.8553 C   0  0  0  0  0  0  0  0  0  0  0  0
   24.6774    4.7681   14.8603 C   0  0  0  0  0  0  0  0  0  0  0  0
   25.1877    5.2008   16.2216 C   0  0  0  0  0  0  0  0  0  0  0  0
   26.7045    5.2004   16.2270 C   0  0  0  0  0  0  0  0  0  0  0  0
   27.2149    5.6330   17.5882 C   0  0  0  0  0  0  0  0  0  0  0  0
   28.7316    5.6318   17.5937 C   0  0  0  0  0  0  0  0  0  0  0  0
   29.2416    6.0646   18.9548 C   0  0  0  0  0  0  0  0  0  0  0  0
   30.7582    6.0645   18.9596 C   0  0  0  0  0  0  0  0  0  0  0  0
   31.2681    6.4991   20.3201 C   0  0  0  0  0  0  0  0  0  0  0  0
   32.7847    6.4997   20.3247 C   0  0  0  0  0  0  0  0  0  0  0  0
   33.2946    6.9330   21.6856 C   0  0  0  0  0  0  0  0  0  0  0  0
   34.8111    6.9317   21.6906 C   0  0  0  0  0  0  0  0  0  0  0  0
   35.3210    7.3655   23.0514 C   0  0  0  0  0  0  0  0  0  0  0  0
   36.8375    7.3631   23.0574 C   0  0  0  0  0  0  0  0  0  0  0  0
   37.3472    7.7960   24.4187 C   0  0  0  0  0  0  0  0  0  0  0  0
   38.8637    7.7961   24.4238 C   0  0  0  0  0  0  0  0  0  0  0  0
   39.3738    8.2278   25.7852 C   0  0  0  0  0  0  0  0  0  0  0  0
   40.8904    8.2281   25.7897 C   0  0  0  0  0  0  0  0  0  0  0  0
   41.4005    8.6604   27.1509 C   0  0  0  0  0  0  0  0  0  0  0  0
   42.9171    8.6615   27.1552 C   0  0  0  0  0  0  0  0  0  0  0  0
   43.4271    9.0935   28.5166 C   0  0  0  0  0  0  0  0  0  0  0  0
   44.9437    9.0948   28.5211 C   0  0  0  0  0  0  0  0  0  0  0  0
   45.4537    9.5270   29.8825 C   0  0  0  0  0  0  0  0  0  0  0  0
   46.9703    9.5286   29.8871 C   0  0  0  0  0  0  0  0  0  0  0  0
   47.4803    9.9591   31.2490 C   0  0  0  0  0  0  0  0  0  0  0  0
   48.9969    9.9627   31.2529 C   0  0  0  0  0  0  0  0  0  0  0  0
   49.5069   10.3914   32.6153 C   0  0  0  0  0  0  0  0  0  0  0  0
   51.0236   10.3959   32.6190 C   0  0  0  0  0  0  0  0  0  0  0  0
   51.5336   10.8245   33.9815 C   0  0  0  0  0  0  0  0  0  0  0  0
   53.0502   10.8282   33.9856 C   0  0  0  0  0  0  0  0  0  0  0  0
   53.5600   11.2580   35.3477 C   0  0  0  0  0  0  0  0  0  0  0  0
   55.0766   11.2601   35.3520 C   0  0  0  0  0  0  0  0  0  0  0  0
   55.5870   11.6891   36.7144 C   0  0  0  0  0  0  0  0  0  0  0  0
   57.1024   11.6898   36.7197 C   0  0  0  0  0  0  0  0  0  0  0  0
   57.6117   12.1206   38.0808 C   0  0  0  0  0  0  0  0  0  0  0  0
   59.1305   12.1222   38.0851 C   0  0  0  0  0  0  0  0  0  0  0  0
   59.6403   12.5527   39.4469 C   0  0  0  0  0  0  0  0  0  0  0  0
   61.1567   12.5540   39.4513 C   0  0  0  0  0  0  0  0  0  0  0  0
   61.6670   12.9841   40.8133 C   0  0  0  0  0  0  0  0  0  0  0  0
   63.1838   12.9863   40.8178 C   0  0  0  0  0  0  0  0  0  0  0  0
   63.6939   13.4159   42.1802 C   0  0  0  0  0  0  0  0  0  0  0  0
   65.2110   13.4173   42.1853 C   0  0  0  0  0  0  0  0  0  0  0  0
   65.7215   13.8482   43.5474 C   0  0  0  0  0  0  0  0  0  0  0  0
   67.2384   13.8497   43.5524 C   0  0  0  0  0  0  0  0  0  0  0  0
   67.7491   14.2821   44.9144 C   0  0  0  0  0  0  0  0  0  0  0  0
   69.2663   14.2843   44.9205 C   0  0  0  0  0  0  0  0  0  0  0  0
   69.7775   14.7162   46.2830 C   0  0  0  0  0  0  0  0  0  0  0  0
   71.2954   14.7181   46.2892 C   0  0  0  0  0  0  0  0  0  0  0  0
   71.8091   15.1514   47.6513 C   0  0  0  0  0  0  0  0  0  0  0  0
   73.3286   15.1540   47.6593 C   0  0  0  0  0  0  0  0  0  0  0  0
   73.8440   15.5853   49.0225 C   0  0  0  0  0  0  0  0  0  0  0  0
   75.3650   15.5890   49.0342 C   0  0  0  0  0  0  0  0  0  0  0  0
   75.8854   16.0199   50.3988 C   0  0  0  0  0  0  0  0  0  0  0  0
   77.4080   16.0253   50.4099 C   0  0  0  0  0  0  0  0  0  0  0  0
   77.9411   16.4542   51.7728 C   0  0  0  0  0  0  0  0  0  0  0  0
   79.4591   16.4588   51.7809 C   0  0  0  0  0  0  0  0  0  0  0  0
    4.7507   -3.9443    2.5276 H   0  0  0  0  0  0  0  0  0  0  0  0
    6.1522   -3.3235    1.6457 H   0  0  0  0  0  0  0  0  0  0  0  0
    4.6438   -3.7505    0.7856 H   0  0  0  0  0  0  0  0  0  0  0  0
    4.8960   -1.6633    2.8336 H   0  0  0  0  0  0  0  0  0  0  0  0
    6.1296   -0.9775    0.9151 H   0  0  0  0  0  0  0  0  0  0  0  0
    3.4494   -1.3682   -0.5361 H   0  0  0  0  0  0  0  0  0  0  0  0
    4.9399   -2.2816   -0.8426 H   0  0  0  0  0  0  0  0  0  0  0  0
    4.8768   -0.5632   -1.2097 H   0  0  0  0  0  0  0  0  0  0  0  0
    3.4349    0.4684    1.2551 H   0  0  0  0  0  0  0  0  0  0  0  0
    4.8901    1.1312    0.5089 H   0  0  0  0  0  0  0  0  0  0  0  0
    4.6100    0.3333    3.4459 H   0  0  0  0  0  0  0  0  0  0  0  0
    4.6515    1.9740    2.7810 H   0  0  0  0  0  0  0  0  0  0  0  0
    6.5450    0.6276    4.6993 H   0  0  0  0  0  0  0  0  0  0  0  0
    6.5445    2.3355    4.1781 H   0  0  0  0  0  0  0  0  0  0  0  0
    8.7911    1.9917    3.1268 H   0  0  0  0  0  0  0  0  0  0  0  0
    8.7871    0.3168    3.6432 H   0  0  0  0  0  0  0  0  0  0  0  0
    8.5964    1.0475    6.0415 H   0  0  0  0  0  0  0  0  0  0  0  0
    8.5948    2.7346    5.5237 H   0  0  0  0  0  0  0  0  0  0  0  0
   10.8605    2.4226    4.5045 H   0  0  0  0  0  0  0  0  0  0  0  0
   10.8620    0.7357    5.0312 H   0  0  0  0  0  0  0  0  0  0  0  0
   10.6204    1.4799    7.4111 H   0  0  0  0  0  0  0  0  0  0  0  0
   10.6172    3.1647    6.8847 H   0  0  0  0  0  0  0  0  0  0  0  0
   12.8889    2.8573    5.8827 H   0  0  0  0  0  0  0  0  0  0  0  0
   12.8930    1.1711    6.4082 H   0  0  0  0  0  0  0  0  0  0  0  0
   12.6469    1.9115    8.7870 H   0  0  0  0  0  0  0  0  0  0  0  0
   12.6437    3.5974    8.2627 H   0  0  0  0  0  0  0  0  0  0  0  0
   14.9147    3.2889    7.2566 H   0  0  0  0  0  0  0  0  0  0  0  0
   14.9179    1.6025    7.7807 H   0  0  0  0  0  0  0  0  0  0  0  0
   14.6762    2.3408   10.1599 H   0  0  0  0  0  0  0  0  0  0  0  0
   14.6717    4.0274    9.6362 H   0  0  0  0  0  0  0  0  0  0  0  0
   16.9409    3.7186    8.6246 H   0  0  0  0  0  0  0  0  0  0  0  0
   16.9455    2.0328    9.1505 H   0  0  0  0  0  0  0  0  0  0  0  0
   16.7062    2.7735   11.5289 H   0  0  0  0  0  0  0  0  0  0  0  0
   16.6992    4.4596   11.0036 H   0  0  0  0  0  0  0  0  0  0  0  0
   18.9675    4.1525    9.9895 H   0  0  0  0  0  0  0  0  0  0  0  0
   18.9745    2.4671   10.5168 H   0  0  0  0  0  0  0  0  0  0  0  0
   18.7332    3.2112   12.8951 H   0  0  0  0  0  0  0  0  0  0  0  0
   18.7284    4.8963   12.3666 H   0  0  0  0  0  0  0  0  0  0  0  0
   20.9969    4.5847   11.3547 H   0  0  0  0  0  0  0  0  0  0  0  0
   21.0014    2.9002   11.8848 H   0  0  0  0  0  0  0  0  0  0  0  0
   20.7589    3.6486   14.2617 H   0  0  0  0  0  0  0  0  0  0  0  0
   20.7567    5.3328   13.7305 H   0  0  0  0  0  0  0  0  0  0  0  0
   23.0255    5.0161   12.7203 H   0  0  0  0  0  0  0  0  0  0  0  0
   23.0272    3.3325   13.2538 H   0  0  0  0  0  0  0  0  0  0  0  0
   22.7847    4.0858   15.6290 H   0  0  0  0  0  0  0  0  0  0  0  0
   22.7847    5.7690   15.0946 H   0  0  0  0  0  0  0  0  0  0  0  0
   25.0534    5.4486   14.0864 H   0  0  0  0  0  0  0  0  0  0  0  0
   25.0531    3.7655   14.6213 H   0  0  0  0  0  0  0  0  0  0  0  0
   24.8108    4.5210   16.9957 H   0  0  0  0  0  0  0  0  0  0  0  0
   24.8130    6.2039   16.4600 H   0  0  0  0  0  0  0  0  0  0  0  0
   27.0815    5.8801   15.4528 H   0  0  0  0  0  0  0  0  0  0  0  0
   27.0792    4.1973   15.9886 H   0  0  0  0  0  0  0  0  0  0  0  0
   26.8376    4.9536   18.3625 H   0  0  0  0  0  0  0  0  0  0  0  0
   26.8408    6.6364   17.8264 H   0  0  0  0  0  0  0  0  0  0  0  0
   29.1090    6.3112   16.8195 H   0  0  0  0  0  0  0  0  0  0  0  0
   29.1059    4.6285   17.3556 H   0  0  0  0  0  0  0  0  0  0  0  0
   28.8651    5.3848   19.7291 H   0  0  0  0  0  0  0  0  0  0  0  0
   28.8669    7.0676   19.1933 H   0  0  0  0  0  0  0  0  0  0  0  0
   31.1349    6.7433   18.1846 H   0  0  0  0  0  0  0  0  0  0  0  0
   31.1332    5.0612   18.7225 H   0  0  0  0  0  0  0  0  0  0  0  0
   30.8918    5.8201   21.0952 H   0  0  0  0  0  0  0  0  0  0  0  0
   30.8929    7.5023   20.5574 H   0  0  0  0  0  0  0  0  0  0  0  0
   33.1609    7.1794   19.5502 H   0  0  0  0  0  0  0  0  0  0  0  0
   33.1598    5.4967   20.0865 H   0  0  0  0  0  0  0  0  0  0  0  0
   32.9174    6.2538   22.4600 H   0  0  0  0  0  0  0  0  0  0  0  0
   32.9202    7.9363   21.9234 H   0  0  0  0  0  0  0  0  0  0  0  0
   35.1886    7.6104   20.9158 H   0  0  0  0  0  0  0  0  0  0  0  0
   35.1852    5.9281   21.4533 H   0  0  0  0  0  0  0  0  0  0  0  0
   34.9426    6.6874   23.8263 H   0  0  0  0  0  0  0  0  0  0  0  0
   34.9475    8.3695   23.2882 H   0  0  0  0  0  0  0  0  0  0  0  0
   37.2157    8.0418   22.2830 H   0  0  0  0  0  0  0  0  0  0  0  0
   37.2111    6.3593   22.8200 H   0  0  0  0  0  0  0  0  0  0  0  0
   36.9703    7.1161   25.1928 H   0  0  0  0  0  0  0  0  0  0  0  0
   36.9722    8.7990   24.6570 H   0  0  0  0  0  0  0  0  0  0  0  0
   39.2402    8.4767   23.6503 H   0  0  0  0  0  0  0  0  0  0  0  0
   39.2389    6.7934   24.1844 H   0  0  0  0  0  0  0  0  0  0  0  0
   38.9975    7.5474   26.5590 H   0  0  0  0  0  0  0  0  0  0  0  0
   38.9987    9.2306   26.0244 H   0  0  0  0  0  0  0  0  0  0  0  0
   41.2667    8.9084   25.0157 H   0  0  0  0  0  0  0  0  0  0  0  0
   41.2655    7.2253   25.5507 H   0  0  0  0  0  0  0  0  0  0  0  0
   41.0246    7.9797   27.9247 H   0  0  0  0  0  0  0  0  0  0  0  0
   41.0249    9.6630   27.3901 H   0  0  0  0  0  0  0  0  0  0  0  0
   43.2930    9.3424   26.3815 H   0  0  0  0  0  0  0  0  0  0  0  0
   43.2927    7.6590   26.9158 H   0  0  0  0  0  0  0  0  0  0  0  0
   43.0513    8.4125   29.2902 H   0  0  0  0  0  0  0  0  0  0  0  0
   43.0514   10.0959   28.7562 H   0  0  0  0  0  0  0  0  0  0  0  0
   45.3196    9.7756   27.7473 H   0  0  0  0  0  0  0  0  0  0  0  0
   45.3194    8.0923   28.2818 H   0  0  0  0  0  0  0  0  0  0  0  0
   45.0778    8.8461   30.6562 H   0  0  0  0  0  0  0  0  0  0  0  0
   45.0778   10.5294   30.1218 H   0  0  0  0  0  0  0  0  0  0  0  0
   47.3459   10.2105   29.1142 H   0  0  0  0  0  0  0  0  0  0  0  0
   47.3463    8.5266   29.6464 H   0  0  0  0  0  0  0  0  0  0  0  0
   47.1057    9.2762   32.0216 H   0  0  0  0  0  0  0  0  0  0  0  0
   47.1032   10.9605   31.4904 H   0  0  0  0  0  0  0  0  0  0  0  0
   49.3713   10.6464   30.4811 H   0  0  0  0  0  0  0  0  0  0  0  0
   49.3741    8.9615   31.0103 H   0  0  0  0  0  0  0  0  0  0  0  0
   49.1330    9.7072   33.3870 H   0  0  0  0  0  0  0  0  0  0  0  0
   49.1293   11.3922   32.8583 H   0  0  0  0  0  0  0  0  0  0  0  0
   51.3976   11.0801   31.8474 H   0  0  0  0  0  0  0  0  0  0  0  0
   51.4013    9.3950   32.3760 H   0  0  0  0  0  0  0  0  0  0  0  0
   51.1591   10.1408   34.7532 H   0  0  0  0  0  0  0  0  0  0  0  0
   51.1564   11.8257   34.2240 H   0  0  0  0  0  0  0  0  0  0  0  0
   53.4249   11.5110   33.2131 H   0  0  0  0  0  0  0  0  0  0  0  0
   53.4272    9.8267   33.7442 H   0  0  0  0  0  0  0  0  0  0  0  0
   53.1846   10.5755   36.1202 H   0  0  0  0  0  0  0  0  0  0  0  0
   53.1833   12.2598   35.5893 H   0  0  0  0  0  0  0  0  0  0  0  0
   55.4522   11.9423   34.5799 H   0  0  0  0  0  0  0  0  0  0  0  0
   55.4525   10.2581   35.1107 H   0  0  0  0  0  0  0  0  0  0  0  0
   55.2113   11.0067   37.4864 H   0  0  0  0  0  0  0  0  0  0  0  0
   55.2106   12.6916   36.9561 H   0  0  0  0  0  0  0  0  0  0  0  0
   57.4794   12.3726   35.9456 H   0  0  0  0  0  0  0  0  0  0  0  0
   57.4792   10.6883   36.4780 H   0  0  0  0  0  0  0  0  0  0  0  0
   57.2380   11.4396   38.8532 H   0  0  0  0  0  0  0  0  0  0  0  0
   57.2364   13.1233   38.3211 H   0  0  0  0  0  0  0  0  0  0  0  0
   59.5056   12.8045   37.3124 H   0  0  0  0  0  0  0  0  0  0  0  0
   59.5059   11.1206   37.8443 H   0  0  0  0  0  0  0  0  0  0  0  0
   59.2641   11.8710   40.2199 H   0  0  0  0  0  0  0  0  0  0  0  0
   59.2643   13.5552   39.6876 H   0  0  0  0  0  0  0  0  0  0  0  0
   61.5325   13.2357   38.6784 H   0  0  0  0  0  0  0  0  0  0  0  0
   61.5321   11.5516   39.2106 H   0  0  0  0  0  0  0  0  0  0  0  0
   61.2916   12.3017   41.5858 H   0  0  0  0  0  0  0  0  0  0  0  0
   61.2907   13.9859   41.0544 H   0  0  0  0  0  0  0  0  0  0  0  0
   63.5592   13.6688   40.0454 H   0  0  0  0  0  0  0  0  0  0  0  0
   63.5599   11.9845   40.5764 H   0  0  0  0  0  0  0  0  0  0  0  0
   63.3179   12.7335   42.9524 H   0  0  0  0  0  0  0  0  0  0  0  0
   63.3179   14.4178   42.4213 H   0  0  0  0  0  0  0  0  0  0  0  0
   65.5866   14.0990   41.4123 H   0  0  0  0  0  0  0  0  0  0  0  0
   65.5865   12.4151   41.9448 H   0  0  0  0  0  0  0  0  0  0  0  0
   65.3455   13.1665   44.3202 H   0  0  0  0  0  0  0  0  0  0  0  0
   65.3455   14.8501   43.7875 H   0  0  0  0  0  0  0  0  0  0  0  0
   67.6143   14.5306   42.7788 H   0  0  0  0  0  0  0  0  0  0  0  0
   67.6142   12.8473   43.3130 H   0  0  0  0  0  0  0  0  0  0  0  0
   67.3729   13.6010   45.6877 H   0  0  0  0  0  0  0  0  0  0  0  0
   67.3726   15.2844   45.1535 H   0  0  0  0  0  0  0  0  0  0  0  0
   69.6419   14.9655   44.1475 H   0  0  0  0  0  0  0  0  0  0  0  0
   69.6423   13.2822   44.6808 H   0  0  0  0  0  0  0  0  0  0  0  0
   69.4013   14.0353   47.0563 H   0  0  0  0  0  0  0  0  0  0  0  0
   69.4012   15.7186   46.5222 H   0  0  0  0  0  0  0  0  0  0  0  0
   71.6708   15.3979   45.5149 H   0  0  0  0  0  0  0  0  0  0  0  0
   71.6705   13.7152   46.0505 H   0  0  0  0  0  0  0  0  0  0  0  0
   71.4325   14.4710   48.4249 H   0  0  0  0  0  0  0  0  0  0  0  0
   71.4326   16.1537   47.8896 H   0  0  0  0  0  0  0  0  0  0  0  0
   73.7029   15.8351   46.8852 H   0  0  0  0  0  0  0  0  0  0  0  0
   73.7031   14.1516   47.4179 H   0  0  0  0  0  0  0  0  0  0  0  0
   73.4665   14.9035   49.7944 H   0  0  0  0  0  0  0  0  0  0  0  0
   73.4665   16.5871   49.2618 H   0  0  0  0  0  0  0  0  0  0  0  0
   75.7390   16.2701   48.2600 H   0  0  0  0  0  0  0  0  0  0  0  0
   75.7390   14.5866   48.7918 H   0  0  0  0  0  0  0  0  0  0  0  0
   75.5084   15.3369   51.1699 H   0  0  0  0  0  0  0  0  0  0  0  0
   75.5065   17.0209   50.6389 H   0  0  0  0  0  0  0  0  0  0  0  0
   77.7792   16.7074   49.6351 H   0  0  0  0  0  0  0  0  0  0  0  0
   77.7814   15.0235   50.1641 H   0  0  0  0  0  0  0  0  0  0  0  0
   77.5732   15.7718   52.5479 H   0  0  0  0  0  0  0  0  0  0  0  0
   77.5708   17.4562   52.0189 H   0  0  0  0  0  0  0  0  0  0  0  0
   79.8530   15.4617   51.5650 H   0  0  0  0  0  0  0  0  0  0  0  0
   79.8297   16.7681   52.7642 H   0  0  0  0  0  0  0  0  0  0  0  0
   79.8507   17.1545   51.0335 H   0  0  0  0  0  0  0  0  0  0  0  0
  1  2  1  0  0  0  0
  1 80  1  0  0  0  0
  1 81  1  0  0  0  0
  1 82  1  0  0  0  0
  2  3  1  0  0  0  0
  2 83  1  0  0  0  0
  3  4  1  0  0  0  0
  3  5  1  0  0  0  0
  3 84  1  0  0  0  0
  4 85  1  0  0  0  0
  4 86  1  0  0  0  0
  4 87  1  0  0  0  0
  5  6  1  0  0  0  0
  5 88  1  0  0  0  0
  5 89  1  0  0  0  0
  6  7  1  0  0  0  0
  6 90  1  0  0  0  0
  6 91  1  0  0  0  0
  7  8  1  0  0  0  0
  8  9  1  0  0  0  0
  8 92  1  0  0  0  0
  8 93  1  0  0  0  0
  9 10  1  0  0  0  0
  9 94  1  0  0  0  0
  9 95  1  0  0  0  0
 10 11  1  0  0  0  0
 10 96  1  0  0  0  0
 10 97  1  0  0  0  0
 11 12  1  0  0  0  0
 11 98  1  0  0  0  0
 11 99  1  0  0  0  0
 12 13  1  0  0  0  0
 12100  1  0  0  0  0
 12101  1  0  0  0  0
 13 14  1  0  0  0  0
 13102  1  0  0  0  0
 13103  1  0  0  0  0
 14 15  1  0  0  0  0
 14104  1  0  0  0  0
 14105  1  0  0  0  0
 15 16  1  0  0  0  0
 15106  1  0  0  0  0
 15107  1  0  0  0  0
 16 17  1  0  0  0  0
 16108  1  0  0  0  0
 16109  1  0  0  0  0
 17 18  1  0  0  0  0
 17110  1  0  0  0  0
 17111  1  0  0  0  0
 18 19  1  0  0  0  0
 18112  1  0  0  0  0
 18113  1  0  0  0  0
 19 20  1  0  0  0  0
 19114  1  0  0  0  0
 19115  1  0  0  0  0
 20 21  1  0  0  0  0
 20116  1  0  0  0  0
 20117  1  0  0  0  0
 21 22  1  0  0  0  0
 21118  1  0  0  0  0
 21119  1  0  0  0  0
 22 23  1  0  0  0  0
 22120  1  0  0  0  0
 22121  1  0  0  0  0
 23 24  1  0  0  0  0
 23122  1  0  0  0  0
 23123  1  0  0  0  0
 24 25  1  0  0  0  0
 24124  1  0  0  0  0
 24125  1  0  0  0  0
 25 26  1  0  0  0  0
 25126  1  0  0  0  0
 25127  1  0  0  0  0
 26 27  1  0  0  0  0
 26128  1  0  0  0  0
 26129  1  0  0  0  0
 27 28  1  0  0  0  0
 27130  1  0  0  0  0
 27131  1  0  0  0  0
 28 29  1  0  0  0  0
 28132  1  0  0  0  0
 28133  1  0  0  0  0
 29 30  1  0  0  0  0
 29134  1  0  0  0  0
 29135  1  0  0  0  0
 30 31  1  0  0  0  0
 30136  1  0  0  0  0
 30137  1  0  0  0  0
 31 32  1  0  0  0  0
 31138  1  0  0  0  0
 31139  1  0  0  0  0
 32 33  1  0  0  0  0
 32140  1  0  0  0  0
 32141  1  0  0  0  0
 33 34  1  0  0  0  0
 33142  1  0  0  0  0
 33143  1  0  0  0  0
 34 35  1  0  0  0  0
 34144  1  0  0  0  0
 34145  1  0  0  0  0
 35 36  1  0  0  0  0
 35146  1  0  0  0  0
 35147  1  0  0  0  0
 36 37  1  0  0  0  0
 36148  1  0  0  0  0
 36149  1  0  0  0  0
 37 38  1  0  0  0  0
 37150  1  0  0  0  0
 37151  1  0  0  0  0
 38 39  1  0  0  0  0
 38152  1  0  0  0  0
 38153  1  0  0  0  0
 39 40  1  0  0  0  0
 39154  1  0  0  0  0
 39155  1  0  0  0  0
 40 41  1  0  0  0  0
 40156  1  0  0  0  0
 40157  1  0  0  0  0
 41 42  1  0  0  0  0
 41158  1  0  0  0  0
 41159  1  0  0  0  0
 42 43  1  0  0  0  0
 42160  1  0  0  0  0
 42161  1  0  0  0  0
 43 44  1  0  0  0  0
 43162  1  0  0  0  0
 43163  1  0  0  0  0
 44 45  1  0  0  0  0
 44164  1  0  0  0  0
 44165  1  0  0  0  0
 45 46  1  0  0  0  0
 45166  1  0  0  0  0
 45167  1  0  0  0  0
 46 47  1  0  0  0  0
 46168  1  0  0  0  0
 46169  1  0  0  0  0
 47 48  1  0  0  0  0
 47170  1  0  0  0  0
 47171  1  0  0  0  0
 48 49  1  0  0  0  0
 48172  1  0  0  0  0
 48173  1  0  0  0  0
 49 50  1  0  0  0  0
 49174  1  0  0  0  0
 49175  1  0  0  0  0
 50 51  1  0  0  0  0
 50176  1  0  0  0  0
 50177  1  0  0  0  0
 51 52  1  0  0  0  0
 51178  1  0  0  0  0
 51179  1  0  0  0  0
 52 53  1  0  0  0  0
 52180  1  0  0  0  0
 52181  1  0  0  0  0
 53 54  1  0  0  0  0
 53182  1  0  0  0  0
 53183  1  0  0  0  0
 54 55  1  0  0  0  0
 54184  1  0  0  0  0
 54185  1  0  0  0  0
 55 56  1  0  0  0  0
 55186  1  0  0  0  0
 55187  1  0  0  0  0
 56 57  1  0  0  0  0
 56188  1  0  0  0  0
 56189  1  0  0  0  0
 57 58  1  0  0  0  0
 57190  1  0  0  0  0
 57191  1  0  0  0  0
 58 59  1  0  0  0  0
 58192  1  0  0  0  0
 58193  1  0  0  0  0
 59 60  1  0  0  0  0
 59194  1  0  0  0  0
 59195  1  0  0  0  0
 60 61  1  0  0  0  0
 60196  1  0  0  0  0
 60197  1  0  0  0  0
 61 62  1  0  0  0  0
 61198  1  0  0  0  0
 61199  1  0  0  0  0
 62 63  1  0  0  0  0
 62200  1  0  0  0  0
 62201  1  0  0  0  0
 63 64  1  0  0  0  0
 63202  1  0  0  0  0
 63203  1  0  0  0  0
 64 65  1  0  0  0  0
 64204  1  0  0  0  0
 64205  1  0  0  0  0
 65 66  1  0  0  0  0
 65206  1  0  0  0  0
 65207  1  0  0  0  0
 66 67  1  0  0  0  0
 66208  1  0  0  0  0
 66209  1  0  0  0  0
 67 68  1  0  0  0  0
 67210  1  0  0  0  0
 67211  1  0  0  0  0
 68 69  1  0  0  0  0
 68212  1  0  0  0  0
 68213  1  0  0  0  0
 69 70  1  0  0  0  0
 69214  1  0  0  0  0
 69215  1  0  0  0  0
 70 71  1  0  0  0  0
 70216  1  0  0  0  0
 70217  1  0  0  0  0
 71 72  1  0  0  0  0
 71218  1  0  0  0  0
 71219  1  0  0  0  0
 72 73  1  0  0  0  0
 72220  1  0  0  0  0
 72221  1  0  0  0  0
 73 74  1  0  0  0  0
 73222  1  0  0  0  0
 73223  1  0  0  0  0
 74 75  1  0  0  0  0
 74224  1  0  0  0  0
 74225  1  0  0  0  0
 75 76  1  0  0  0  0
 75226  1  0  0  0  0
 75227  1  0  0  0  0
 76 77  1  0  0  0  0
 76228  1  0  0  0  0
 76229  1  0  0  0  0
 77 78  1  0  0  0  0
 77230  1  0  0  0  0
 77231  1  0  0  0  0
 78 79  1  0  0  0  0
 78232  1  0  0  0  0
 78233  1  0  0  0  0
 79234  1  0  0  0  0
 79235  1  0  0  0  0
 79236  1  0  0  0  0
M  END
$$$$
