
 OpenBabel04232216463D

 36 37  0  0  0  0  0  0  0  0999 V2000
    2.4483   -0.0790   -0.0035 C   0  0  0  0  0  0  0  0  0  0  0  0
    0.9522   -0.0309    0.0047 C   0  0  0  0  0  0  0  0  0  0  0  0
    0.2389   -1.2233    0.0128 C   0  0  0  0  0  0  0  0  0  0  0  0
   -1.1287   -1.2149   -0.0053 C   0  0  0  0  0  0  0  0  0  0  0  0
   -1.9976   -2.4378   -0.0205 C   0  0  0  0  0  0  0  0  0  0  0  0
   -1.7290   -3.2693    1.2165 C   0  0  0  0  0  0  0  0  0  0  0  0
   -2.5780   -4.5132    1.2504 C   0  0  0  0  0  0  0  0  0  0  0  0
   -2.2611   -5.2951    2.5067 C   0  0  0  0  0  0  0  0  0  0  0  0
   -1.7048    0.0288   -0.0113 C   0  0  0  0  0  0  0  0  0  0  0  0
   -0.9702    1.2101    0.0016 C   0  0  0  0  0  0  0  0  0  0  0  0
   -1.5845    2.5741    0.0187 C   0  0  0  0  0  0  0  0  0  0  0  0
   -2.8042    2.7064    0.0188 O   0  0  0  0  0  0  0  0  0  0  0  0
   -0.6347    3.7287    0.0288 C   0  0  0  0  0  0  0  0  0  0  0  0
   -1.1956    5.1787   -0.4522 C   0  0  0  0  0  0  0  0  0  0  0  0
   -0.3059    6.2606   -0.4411 C   0  0  0  0  0  0  0  0  0  0  0  0
   -0.8284    7.6163   -0.8877 C   0  0  0  0  0  0  0  0  0  0  0  0
   -2.0220    7.9071   -0.9153 O   0  0  0  0  0  0  0  0  0  0  0  0
    0.6842    3.6915    0.4051 C   0  0  0  0  0  0  0  0  0  0  0  0
    0.3697    1.1783    0.0014 N   0  0  0  0  0  0  0  0  0  0  0  0
    2.8048   -1.1165   -0.0084 H   0  0  0  0  0  0  0  0  0  0  0  0
    2.8300    0.4129    0.8915 H   0  0  0  0  0  0  0  0  0  0  0  0
    2.8198    0.4128   -0.9039 H   0  0  0  0  0  0  0  0  0  0  0  0
    0.7732   -2.1582    0.0284 H   0  0  0  0  0  0  0  0  0  0  0  0
   -1.7928   -3.0296   -0.9217 H   0  0  0  0  0  0  0  0  0  0  0  0
   -3.0581   -2.1459   -0.0509 H   0  0  0  0  0  0  0  0  0  0  0  0
   -1.9355   -2.6660    2.1099 H   0  0  0  0  0  0  0  0  0  0  0  0
   -0.6690   -3.5546    1.2358 H   0  0  0  0  0  0  0  0  0  0  0  0
   -2.3683   -5.1219    0.3660 H   0  0  0  0  0  0  0  0  0  0  0  0
   -3.6352   -4.2326    1.2391 H   0  0  0  0  0  0  0  0  0  0  0  0
   -1.2039   -5.5818    2.5261 H   0  0  0  0  0  0  0  0  0  0  0  0
   -2.8714   -6.1984    2.5414 H   0  0  0  0  0  0  0  0  0  0  0  0
   -2.4695   -4.6934    3.3982 H   0  0  0  0  0  0  0  0  0  0  0  0
   -2.7616   -0.0482   -0.0273 H   0  0  0  0  0  0  0  0  0  0  0  0
   -2.2496    5.2516   -0.7649 H   0  0  0  0  0  0  0  0  0  0  0  0
   -0.0712    8.3553   -1.1967 H   0  0  0  0  0  0  0  0  0  0  0  0
    1.6981    3.6452    0.6988 H   0  0  0  0  0  0  0  0  0  0  0  0
  1  2  1  0  0  0  0
  1 20  1  0  0  0  0
  1 21  1  0  0  0  0
  1 22  1  0  0  0  0
  2  3  1  0  0  0  0
  2 19  2  0  0  0  0
  3  4  2  0  0  0  0
  3 23  1  0  0  0  0
  4  5  1  0  0  0  0
  4  9  1  0  0  0  0
  5  6  1  0  0  0  0
  5 24  1  0  0  0  0
  5 25  1  0  0  0  0
  6  7  1  0  0  0  0
  6 26  1  0  0  0  0
  6 27  1  0  0  0  0
  7  8  1  0  0  0  0
  7 28  1  0  0  0  0
  7 29  1  0  0  0  0
  8 30  1  0  0  0  0
  8 31  1  0  0  0  0
  8 32  1  0  0  0  0
  9 10  2  0  0  0  0
  9 33  1  0  0  0  0
 10 11  1  0  0  0  0
 10 19  1  0  0  0  0
 11 12  2  0  0  0  0
 11 13  1  0  0  0  0
 13 14  1  0  0  0  0
 13 18  2  0  0  0  0
 14 15  2  0  0  0  0
 14 34  1  0  0  0  0
 15 16  1  0  0  0  0
 15 18  1  0  0  0  0
 16 17  2  0  0  0  0
 16 35  1  0  0  0  0
 18 36  1  0  0  0  0
M  END
$$$$
