
 OpenBabel04232216583D

 51 50  0  0  0  0  0  0  0  0999 V2000
    4.9465   -2.7280   -0.6496 N   0  0  0  0  0  0  0  0  0  0  0  0
    4.4294   -1.4162   -0.3665 N   0  0  0  0  0  0  0  0  0  0  0  0
    4.9491   -0.9728    0.9378 C   0  0  0  0  0  0  0  0  0  0  0  0
    4.4824    0.4612    1.2642 C   0  0  0  0  0  0  0  0  0  0  0  0
    4.9152    0.9296    2.5959 N   0  0  0  0  0  0  0  0  0  0  0  0
    6.3599    0.9875    2.6098 N   0  0  0  0  0  0  0  0  0  0  0  0
    6.8262    1.3657    3.9420 C   0  0  0  0  0  0  0  0  0  0  0  0
    8.3521    1.3481    3.9397 C   0  0  0  0  0  0  0  0  0  0  0  0
    8.8921    1.7592    5.3023 C   0  0  0  0  0  0  0  0  0  0  0  0
   10.4176    1.7633    5.3139 C   0  0  0  0  0  0  0  0  0  0  0  0
   10.9214    2.1950    6.6863 C   0  0  0  0  0  0  0  0  0  0  0  0
   12.3808    2.1949    6.6961 N   0  0  0  0  0  0  0  0  0  0  0  0
   12.8745    2.6126    8.0045 C   0  0  0  0  0  0  0  0  0  0  0  0
   14.3994    2.6121    7.9980 C   0  0  0  0  0  0  0  0  0  0  0  0
   14.9348    3.0376    9.3628 C   0  0  0  0  0  0  0  0  0  0  0  0
   16.4598    3.0419    9.3767 C   0  0  0  0  0  0  0  0  0  0  0  0
   16.9930    3.4706   10.7408 C   0  0  0  0  0  0  0  0  0  0  0  0
   18.5119    3.4782   10.7575 C   0  0  0  0  0  0  0  0  0  0  0  0
    4.7452   -3.0150   -1.6092 H   0  0  0  0  0  0  0  0  0  0  0  0
    4.5647   -3.4504   -0.0346 H   0  0  0  0  0  0  0  0  0  0  0  0
    3.4071   -1.3781   -0.3603 H   0  0  0  0  0  0  0  0  0  0  0  0
    6.0459   -1.0080    0.9208 H   0  0  0  0  0  0  0  0  0  0  0  0
    4.6034   -1.6533    1.7265 H   0  0  0  0  0  0  0  0  0  0  0  0
    3.3863    0.4965    1.2494 H   0  0  0  0  0  0  0  0  0  0  0  0
    4.8248    1.1632    0.4929 H   0  0  0  0  0  0  0  0  0  0  0  0
    4.5739    0.2591    3.2921 H   0  0  0  0  0  0  0  0  0  0  0  0
    6.7105    1.6715    1.9307 H   0  0  0  0  0  0  0  0  0  0  0  0
    6.4572    0.6581    4.6946 H   0  0  0  0  0  0  0  0  0  0  0  0
    6.4630    2.3664    4.2056 H   0  0  0  0  0  0  0  0  0  0  0  0
    8.7371    2.0298    3.1714 H   0  0  0  0  0  0  0  0  0  0  0  0
    8.7145    0.3409    3.6880 H   0  0  0  0  0  0  0  0  0  0  0  0
    8.5189    1.0708    6.0703 H   0  0  0  0  0  0  0  0  0  0  0  0
    8.5205    2.7596    5.5559 H   0  0  0  0  0  0  0  0  0  0  0  0
   10.7921    2.4470    4.5418 H   0  0  0  0  0  0  0  0  0  0  0  0
   10.7935    0.7612    5.0716 H   0  0  0  0  0  0  0  0  0  0  0  0
   10.5425    1.5008    7.4460 H   0  0  0  0  0  0  0  0  0  0  0  0
   10.5393    3.1953    6.9194 H   0  0  0  0  0  0  0  0  0  0  0  0
   12.7309    2.8277    5.9768 H   0  0  0  0  0  0  0  0  0  0  0  0
   12.5136    1.9241    8.7780 H   0  0  0  0  0  0  0  0  0  0  0  0
   12.5082    3.6177    8.2467 H   0  0  0  0  0  0  0  0  0  0  0  0
   14.7716    3.2970    7.2256 H   0  0  0  0  0  0  0  0  0  0  0  0
   14.7718    1.6099    7.7503 H   0  0  0  0  0  0  0  0  0  0  0  0
   14.5601    2.3536   10.1343 H   0  0  0  0  0  0  0  0  0  0  0  0
   14.5597    4.0386    9.6088 H   0  0  0  0  0  0  0  0  0  0  0  0
   16.8328    3.7243    8.6027 H   0  0  0  0  0  0  0  0  0  0  0  0
   16.8329    2.0399    9.1316 H   0  0  0  0  0  0  0  0  0  0  0  0
   16.6252    2.7884   11.5160 H   0  0  0  0  0  0  0  0  0  0  0  0
   16.6227    4.4723   10.9880 H   0  0  0  0  0  0  0  0  0  0  0  0
   18.9097    2.4810   10.5436 H   0  0  0  0  0  0  0  0  0  0  0  0
   18.8788    3.7881   11.7402 H   0  0  0  0  0  0  0  0  0  0  0  0
   18.9074    4.1740   10.0106 H   0  0  0  0  0  0  0  0  0  0  0  0
  1  2  1  0  0  0  0
  1 19  1  0  0  0  0
  1 20  1  0  0  0  0
  2  3  1  0  0  0  0
  2 21  1  0  0  0  0
  3  4  1  0  0  0  0
  3 22  1  0  0  0  0
  3 23  1  0  0  0  0
  4  5  1  0  0  0  0
  4 24  1  0  0  0  0
  4 25  1  0  0  0  0
  5  6  1  0  0  0  0
  5 26  1  0  0  0  0
  6  7  1  0  0  0  0
  6 27  1  0  0  0  0
  7  8  1  0  0  0  0
  7 28  1  0  0  0  0
  7 29  1  0  0  0  0
  8  9  1  0  0  0  0
  8 30  1  0  0  0  0
  8 31  1  0  0  0  0
  9 10  1  0  0  0  0
  9 32  1  0  0  0  0
  9 33  1  0  0  0  0
 10 11  1  0  0  0  0
 10 34  1  0  0  0  0
 10 35  1  0  0  0  0
 11 12  1  0  0  0  0
 11 36  1  0  0  0  0
 11 37  1  0  0  0  0
 12 13  1  0  0  0  0
 12 38  1  0  0  0  0
 13 14  1  0  0  0  0
 13 39  1  0  0  0  0
 13 40  1  0  0  0  0
 14 15  1  0  0  0  0
 14 41  1  0  0  0  0
 14 42  1  0  0  0  0
 15 16  1  0  0  0  0
 15 43  1  0  0  0  0
 15 44  1  0  0  0  0
 16 17  1  0  0  0  0
 16 45  1  0  0  0  0
 16 46  1  0  0  0  0
 17 18  1  0  0  0  0
 17 47  1  0  0  0  0
 17 48  1  0  0  0  0
 18 49  1  0  0  0  0
 18 50  1  0  0  0  0
 18 51  1  0  0  0  0
M  END
$$$$
