
 OpenBabel04232216573D

237236  0  0  0  0  0  0  0  0999 V2000
    1.5084   -0.2256    0.8272 N   0  0  0  0  0  0  0  0  0  0  0  0
    2.3298   -0.0126   -0.1481 C   0  0  0  0  0  0  0  0  0  0  0  0
    3.0835   -1.1336   -0.7990 C   0  0  0  0  0  0  0  0  0  0  0  0
    4.5238   -0.8649   -0.6410 N   0  0  0  0  0  0  0  0  0  0  0  0
    5.2527   -1.9486   -1.2669 N   0  0  0  0  0  0  0  0  0  0  0  0
    6.6846   -1.7001   -1.1105 C   0  0  0  0  0  0  0  0  0  0  0  0
    7.4523   -2.8417   -1.7748 C   0  0  0  0  0  0  0  0  0  0  0  0
    8.9540   -2.6232   -1.6424 C   0  0  0  0  0  0  0  0  0  0  0  0
    9.7220   -3.7593   -2.3025 C   0  0  0  0  0  0  0  0  0  0  0  0
   11.2195   -3.5328   -2.1633 C   0  0  0  0  0  0  0  0  0  0  0  0
   11.9878   -4.6655   -2.8237 C   0  0  0  0  0  0  0  0  0  0  0  0
   13.4826   -4.4345   -2.6842 C   0  0  0  0  0  0  0  0  0  0  0  0
   14.2484   -5.5681   -3.3429 C   0  0  0  0  0  0  0  0  0  0  0  0
   15.7418   -5.3351   -3.2045 C   0  0  0  0  0  0  0  0  0  0  0  0
   16.5058   -6.4688   -3.8632 C   0  0  0  0  0  0  0  0  0  0  0  0
   17.9985   -6.2342   -3.7262 C   0  0  0  0  0  0  0  0  0  0  0  0
   18.7616   -7.3688   -4.3832 C   0  0  0  0  0  0  0  0  0  0  0  0
   20.2539   -7.1348   -4.2442 C   0  0  0  0  0  0  0  0  0  0  0  0
   21.0166   -8.2684   -4.9029 C   0  0  0  0  0  0  0  0  0  0  0  0
   22.5087   -8.0333   -4.7656 C   0  0  0  0  0  0  0  0  0  0  0  0
   23.2712   -9.1659   -5.4260 C   0  0  0  0  0  0  0  0  0  0  0  0
   24.7632   -8.9316   -5.2870 C   0  0  0  0  0  0  0  0  0  0  0  0
   25.5257  -10.0632   -5.9491 C   0  0  0  0  0  0  0  0  0  0  0  0
   27.0177   -9.8279   -5.8117 C   0  0  0  0  0  0  0  0  0  0  0  0
   27.7802  -10.9594   -6.4739 C   0  0  0  0  0  0  0  0  0  0  0  0
   29.2721  -10.7232   -6.3382 C   0  0  0  0  0  0  0  0  0  0  0  0
   30.0345  -11.8547   -7.0004 C   0  0  0  0  0  0  0  0  0  0  0  0
   31.5265  -11.6184   -6.8648 C   0  0  0  0  0  0  0  0  0  0  0  0
   32.2890  -12.7500   -7.5269 C   0  0  0  0  0  0  0  0  0  0  0  0
   33.7809  -12.5137   -7.3913 C   0  0  0  0  0  0  0  0  0  0  0  0
   34.5434  -13.6452   -8.0535 C   0  0  0  0  0  0  0  0  0  0  0  0
   36.0354  -13.4089   -7.9178 C   0  0  0  0  0  0  0  0  0  0  0  0
   36.7978  -14.5415   -8.5783 C   0  0  0  0  0  0  0  0  0  0  0  0
   38.2898  -14.3052   -8.4426 C   0  0  0  0  0  0  0  0  0  0  0  0
   39.0522  -15.4378   -9.1030 C   0  0  0  0  0  0  0  0  0  0  0  0
   40.5442  -15.2015   -8.9674 C   0  0  0  0  0  0  0  0  0  0  0  0
   41.3066  -16.3330   -9.6296 C   0  0  0  0  0  0  0  0  0  0  0  0
   42.7985  -16.0957   -9.4958 C   0  0  0  0  0  0  0  0  0  0  0  0
   43.5610  -17.2283  -10.1561 C   0  0  0  0  0  0  0  0  0  0  0  0
   45.0530  -16.9920  -10.0205 C   0  0  0  0  0  0  0  0  0  0  0  0
   45.8154  -18.1235  -10.6826 C   0  0  0  0  0  0  0  0  0  0  0  0
   47.3074  -17.8883  -10.5453 C   0  0  0  0  0  0  0  0  0  0  0  0
   48.0699  -19.0198  -11.2074 C   0  0  0  0  0  0  0  0  0  0  0  0
   49.5618  -18.7845  -11.0700 C   0  0  0  0  0  0  0  0  0  0  0  0
   50.3243  -19.9161  -11.7322 C   0  0  0  0  0  0  0  0  0  0  0  0
   51.8162  -19.6808  -11.5948 C   0  0  0  0  0  0  0  0  0  0  0  0
   52.5787  -20.8123  -12.2571 C   0  0  0  0  0  0  0  0  0  0  0  0
   54.0706  -20.5764  -12.1210 C   0  0  0  0  0  0  0  0  0  0  0  0
   54.8334  -21.7062  -12.7849 C   0  0  0  0  0  0  0  0  0  0  0  0
   56.3248  -21.4718  -12.6486 C   0  0  0  0  0  0  0  0  0  0  0  0
   57.0875  -22.6014  -13.3095 C   0  0  0  0  0  0  0  0  0  0  0  0
   58.5787  -22.3664  -13.1769 C   0  0  0  0  0  0  0  0  0  0  0  0
   59.3421  -23.4966  -13.8386 C   0  0  0  0  0  0  0  0  0  0  0  0
   60.8336  -23.2602  -13.7043 C   0  0  0  0  0  0  0  0  0  0  0  0
   61.5962  -24.3902  -14.3684 C   0  0  0  0  0  0  0  0  0  0  0  0
   63.0881  -24.1524  -14.2364 C   0  0  0  0  0  0  0  0  0  0  0  0
   63.8501  -25.2819  -14.9023 C   0  0  0  0  0  0  0  0  0  0  0  0
   65.3423  -25.0433  -14.7698 C   0  0  0  0  0  0  0  0  0  0  0  0
   66.1045  -26.1736  -15.4341 C   0  0  0  0  0  0  0  0  0  0  0  0
   67.5967  -25.9363  -15.3020 C   0  0  0  0  0  0  0  0  0  0  0  0
   68.3594  -27.0663  -15.9658 C   0  0  0  0  0  0  0  0  0  0  0  0
   69.8514  -26.8278  -15.8334 C   0  0  0  0  0  0  0  0  0  0  0  0
   70.6144  -27.9580  -16.4972 C   0  0  0  0  0  0  0  0  0  0  0  0
   72.1063  -27.7196  -16.3650 C   0  0  0  0  0  0  0  0  0  0  0  0
   72.8691  -28.8498  -17.0292 C   0  0  0  0  0  0  0  0  0  0  0  0
   74.3611  -28.6125  -16.8958 C   0  0  0  0  0  0  0  0  0  0  0  0
   75.1234  -29.7424  -17.5614 C   0  0  0  0  0  0  0  0  0  0  0  0
   76.6154  -29.5051  -17.4291 C   0  0  0  0  0  0  0  0  0  0  0  0
   77.3782  -30.6347  -18.0949 C   0  0  0  0  0  0  0  0  0  0  0  0
   78.8707  -30.3965  -17.9628 C   0  0  0  0  0  0  0  0  0  0  0  0
   79.6347  -31.5258  -18.6284 C   0  0  0  0  0  0  0  0  0  0  0  0
   81.1278  -31.2881  -18.4966 C   0  0  0  0  0  0  0  0  0  0  0  0
   81.8924  -32.4178  -19.1623 C   0  0  0  0  0  0  0  0  0  0  0  0
   83.3867  -32.1818  -19.0316 C   0  0  0  0  0  0  0  0  0  0  0  0
   84.1524  -33.3112  -19.6995 C   0  0  0  0  0  0  0  0  0  0  0  0
   85.6487  -33.0779  -19.5704 C   0  0  0  0  0  0  0  0  0  0  0  0
   86.4188  -34.2075  -20.2384 C   0  0  0  0  0  0  0  0  0  0  0  0
   87.9177  -33.9746  -20.1072 C   0  0  0  0  0  0  0  0  0  0  0  0
   88.7012  -35.1008  -20.7710 C   0  0  0  0  0  0  0  0  0  0  0  0
   90.1941  -34.8660  -20.6386 C   0  0  0  0  0  0  0  0  0  0  0  0
    1.0921    0.6622    1.1164 H   0  0  0  0  0  0  0  0  0  0  0  0
    2.4820    1.0085   -0.5287 H   0  0  0  0  0  0  0  0  0  0  0  0
    2.8147   -1.1559   -1.8586 H   0  0  0  0  0  0  0  0  0  0  0  0
    2.8071   -2.0833   -0.3263 H   0  0  0  0  0  0  0  0  0  0  0  0
    4.7268   -0.8624    0.3621 H   0  0  0  0  0  0  0  0  0  0  0  0
    5.0367   -1.9836   -2.2624 H   0  0  0  0  0  0  0  0  0  0  0  0
    6.9568   -1.6502   -0.0495 H   0  0  0  0  0  0  0  0  0  0  0  0
    6.9641   -0.7491   -1.5810 H   0  0  0  0  0  0  0  0  0  0  0  0
    7.1856   -2.9099   -2.8372 H   0  0  0  0  0  0  0  0  0  0  0  0
    7.1784   -3.7982   -1.3111 H   0  0  0  0  0  0  0  0  0  0  0  0
    9.2286   -2.5594   -0.5824 H   0  0  0  0  0  0  0  0  0  0  0  0
    9.2332   -1.6703   -2.1081 H   0  0  0  0  0  0  0  0  0  0  0  0
    9.4545   -3.8245   -3.3643 H   0  0  0  0  0  0  0  0  0  0  0  0
    9.4474   -4.7152   -1.8398 H   0  0  0  0  0  0  0  0  0  0  0  0
   11.4906   -3.4702   -1.1022 H   0  0  0  0  0  0  0  0  0  0  0  0
   11.4972   -2.5775   -2.6255 H   0  0  0  0  0  0  0  0  0  0  0  0
   11.7193   -4.7302   -3.8853 H   0  0  0  0  0  0  0  0  0  0  0  0
   11.7146   -5.6219   -2.3611 H   0  0  0  0  0  0  0  0  0  0  0  0
   13.7537   -4.3693   -1.6232 H   0  0  0  0  0  0  0  0  0  0  0  0
   13.7585   -3.4796   -3.1485 H   0  0  0  0  0  0  0  0  0  0  0  0
   13.9783   -5.6348   -4.4040 H   0  0  0  0  0  0  0  0  0  0  0  0
   13.9755   -6.5234   -2.8779 H   0  0  0  0  0  0  0  0  0  0  0  0
   16.0135   -5.2689   -2.1437 H   0  0  0  0  0  0  0  0  0  0  0  0
   16.0162   -4.3803   -3.6698 H   0  0  0  0  0  0  0  0  0  0  0  0
   16.2343   -6.5363   -4.9240 H   0  0  0  0  0  0  0  0  0  0  0  0
   16.2335   -7.4238   -3.3971 H   0  0  0  0  0  0  0  0  0  0  0  0
   18.2707   -6.1656   -2.6657 H   0  0  0  0  0  0  0  0  0  0  0  0
   18.2717   -5.2801   -4.1937 H   0  0  0  0  0  0  0  0  0  0  0  0
   18.4910   -7.4367   -5.4441 H   0  0  0  0  0  0  0  0  0  0  0  0
   18.4880   -8.3233   -3.9168 H   0  0  0  0  0  0  0  0  0  0  0  0
   20.5251   -7.0685   -3.1833 H   0  0  0  0  0  0  0  0  0  0  0  0
   20.5278   -6.1799   -4.7095 H   0  0  0  0  0  0  0  0  0  0  0  0
   20.7447   -8.3357   -5.9636 H   0  0  0  0  0  0  0  0  0  0  0  0
   20.7440   -9.2233   -4.4368 H   0  0  0  0  0  0  0  0  0  0  0  0
   22.7810   -7.9675   -3.7049 H   0  0  0  0  0  0  0  0  0  0  0  0
   22.7813   -7.0778   -5.2306 H   0  0  0  0  0  0  0  0  0  0  0  0
   23.0000   -9.2307   -6.4870 H   0  0  0  0  0  0  0  0  0  0  0  0
   22.9978  -10.1216   -4.9620 H   0  0  0  0  0  0  0  0  0  0  0  0
   25.0347   -8.8681   -4.2260 H   0  0  0  0  0  0  0  0  0  0  0  0
   25.0365   -7.9753   -5.7497 H   0  0  0  0  0  0  0  0  0  0  0  0
   25.2533  -10.1276   -7.0098 H   0  0  0  0  0  0  0  0  0  0  0  0
   25.2535  -11.0194   -5.4854 H   0  0  0  0  0  0  0  0  0  0  0  0
   27.2903   -9.7635   -4.7510 H   0  0  0  0  0  0  0  0  0  0  0  0
   27.2899   -8.8717   -6.2754 H   0  0  0  0  0  0  0  0  0  0  0  0
   27.5066  -11.0247   -7.5342 H   0  0  0  0  0  0  0  0  0  0  0  0
   27.5090  -11.9155   -6.0092 H   0  0  0  0  0  0  0  0  0  0  0  0
   29.5457  -10.6579   -5.2779 H   0  0  0  0  0  0  0  0  0  0  0  0
   29.5433   -9.7671   -6.8029 H   0  0  0  0  0  0  0  0  0  0  0  0
   29.7610  -11.9200   -8.0608 H   0  0  0  0  0  0  0  0  0  0  0  0
   29.7634  -12.8108   -6.5358 H   0  0  0  0  0  0  0  0  0  0  0  0
   31.8001  -11.5531   -5.8044 H   0  0  0  0  0  0  0  0  0  0  0  0
   31.7976  -10.6624   -7.3294 H   0  0  0  0  0  0  0  0  0  0  0  0
   32.0154  -12.8153   -8.5873 H   0  0  0  0  0  0  0  0  0  0  0  0
   32.0178  -13.7060   -7.0623 H   0  0  0  0  0  0  0  0  0  0  0  0
   34.0545  -12.4484   -6.3310 H   0  0  0  0  0  0  0  0  0  0  0  0
   34.0521  -11.5576   -7.8560 H   0  0  0  0  0  0  0  0  0  0  0  0
   34.2698  -13.7105   -9.1138 H   0  0  0  0  0  0  0  0  0  0  0  0
   34.2722  -14.6012   -7.5888 H   0  0  0  0  0  0  0  0  0  0  0  0
   36.3087  -13.3422   -6.8575 H   0  0  0  0  0  0  0  0  0  0  0  0
   36.3067  -12.4535   -8.3837 H   0  0  0  0  0  0  0  0  0  0  0  0
   36.5245  -14.6082   -9.6386 H   0  0  0  0  0  0  0  0  0  0  0  0
   36.5265  -15.4969   -8.1123 H   0  0  0  0  0  0  0  0  0  0  0  0
   38.5631  -14.2385   -7.3823 H   0  0  0  0  0  0  0  0  0  0  0  0
   38.5611  -13.3499   -8.9085 H   0  0  0  0  0  0  0  0  0  0  0  0
   38.7789  -15.5045  -10.1633 H   0  0  0  0  0  0  0  0  0  0  0  0
   38.7809  -16.3932   -8.6371 H   0  0  0  0  0  0  0  0  0  0  0  0
   40.8178  -15.1362   -7.9071 H   0  0  0  0  0  0  0  0  0  0  0  0
   40.8153  -14.2454   -9.4320 H   0  0  0  0  0  0  0  0  0  0  0  0
   41.0320  -16.3993  -10.6896 H   0  0  0  0  0  0  0  0  0  0  0  0
   41.0365  -17.2889   -9.1639 H   0  0  0  0  0  0  0  0  0  0  0  0
   43.0730  -16.0281   -8.4357 H   0  0  0  0  0  0  0  0  0  0  0  0
   43.0688  -15.1405   -9.9625 H   0  0  0  0  0  0  0  0  0  0  0  0
   43.2876  -17.2950  -11.2164 H   0  0  0  0  0  0  0  0  0  0  0  0
   43.2897  -18.1837   -9.6902 H   0  0  0  0  0  0  0  0  0  0  0  0
   45.3265  -16.9267   -8.9601 H   0  0  0  0  0  0  0  0  0  0  0  0
   45.3242  -16.0360  -10.4851 H   0  0  0  0  0  0  0  0  0  0  0  0
   45.5429  -18.1879  -11.7433 H   0  0  0  0  0  0  0  0  0  0  0  0
   45.5433  -19.0798  -10.2189 H   0  0  0  0  0  0  0  0  0  0  0  0
   47.5799  -17.8239   -9.4846 H   0  0  0  0  0  0  0  0  0  0  0  0
   47.5796  -16.9320  -11.0089 H   0  0  0  0  0  0  0  0  0  0  0  0
   47.7974  -19.0842  -12.2681 H   0  0  0  0  0  0  0  0  0  0  0  0
   47.7977  -19.9760  -10.7437 H   0  0  0  0  0  0  0  0  0  0  0  0
   49.8343  -18.7201  -10.0094 H   0  0  0  0  0  0  0  0  0  0  0  0
   49.8340  -17.8283  -11.5337 H   0  0  0  0  0  0  0  0  0  0  0  0
   50.0518  -19.9805  -12.7929 H   0  0  0  0  0  0  0  0  0  0  0  0
   50.0521  -20.8723  -11.2685 H   0  0  0  0  0  0  0  0  0  0  0  0
   52.0888  -19.6164  -10.5342 H   0  0  0  0  0  0  0  0  0  0  0  0
   52.0884  -18.7246  -12.0585 H   0  0  0  0  0  0  0  0  0  0  0  0
   52.3053  -20.8774  -13.3174 H   0  0  0  0  0  0  0  0  0  0  0  0
   52.3074  -21.7685  -11.7926 H   0  0  0  0  0  0  0  0  0  0  0  0
   54.3442  -20.5126  -11.0607 H   0  0  0  0  0  0  0  0  0  0  0  0
   54.3418  -19.6192  -12.5842 H   0  0  0  0  0  0  0  0  0  0  0  0
   54.5602  -21.7695  -13.8458 H   0  0  0  0  0  0  0  0  0  0  0  0
   54.5613  -22.6635  -12.3226 H   0  0  0  0  0  0  0  0  0  0  0  0
   56.5980  -21.4079  -11.5866 H   0  0  0  0  0  0  0  0  0  0  0  0
   56.5973  -20.5142  -13.1109 H   0  0  0  0  0  0  0  0  0  0  0  0
   56.8124  -22.6664  -14.3720 H   0  0  0  0  0  0  0  0  0  0  0  0
   56.8161  -23.5587  -12.8472 H   0  0  0  0  0  0  0  0  0  0  0  0
   58.8533  -22.3007  -12.1162 H   0  0  0  0  0  0  0  0  0  0  0  0
   58.8497  -21.4095  -13.6409 H   0  0  0  0  0  0  0  0  0  0  0  0
   59.0675  -23.5633  -14.8990 H   0  0  0  0  0  0  0  0  0  0  0  0
   59.0718  -24.4538  -13.3736 H   0  0  0  0  0  0  0  0  0  0  0  0
   61.1086  -23.1955  -12.6442 H   0  0  0  0  0  0  0  0  0  0  0  0
   61.1039  -22.3029  -14.1682 H   0  0  0  0  0  0  0  0  0  0  0  0
   61.3200  -24.4560  -15.4280 H   0  0  0  0  0  0  0  0  0  0  0  0
   61.3274  -25.3468  -13.9030 H   0  0  0  0  0  0  0  0  0  0  0  0
   63.3645  -24.0881  -13.1768 H   0  0  0  0  0  0  0  0  0  0  0  0
   63.3569  -23.1953  -14.7007 H   0  0  0  0  0  0  0  0  0  0  0  0
   63.5739  -25.3465  -15.9619 H   0  0  0  0  0  0  0  0  0  0  0  0
   63.5819  -26.2389  -14.4378 H   0  0  0  0  0  0  0  0  0  0  0  0
   65.6179  -24.9774  -13.7101 H   0  0  0  0  0  0  0  0  0  0  0  0
   65.6107  -24.0866  -15.2349 H   0  0  0  0  0  0  0  0  0  0  0  0
   65.8285  -26.2388  -16.4935 H   0  0  0  0  0  0  0  0  0  0  0  0
   65.8357  -27.1302  -14.9688 H   0  0  0  0  0  0  0  0  0  0  0  0
   67.8726  -25.8705  -14.2422 H   0  0  0  0  0  0  0  0  0  0  0  0
   67.8656  -24.9797  -15.7673 H   0  0  0  0  0  0  0  0  0  0  0  0
   68.0837  -27.1321  -17.0256 H   0  0  0  0  0  0  0  0  0  0  0  0
   68.0908  -28.0230  -15.5007 H   0  0  0  0  0  0  0  0  0  0  0  0
   70.1272  -26.7620  -14.7736 H   0  0  0  0  0  0  0  0  0  0  0  0
   70.1201  -25.8713  -16.2985 H   0  0  0  0  0  0  0  0  0  0  0  0
   70.3384  -28.0237  -17.5570 H   0  0  0  0  0  0  0  0  0  0  0  0
   70.3456  -28.9145  -16.0320 H   0  0  0  0  0  0  0  0  0  0  0  0
   72.3822  -27.6538  -15.3053 H   0  0  0  0  0  0  0  0  0  0  0  0
   72.3750  -26.7632  -16.8304 H   0  0  0  0  0  0  0  0  0  0  0  0
   72.5937  -28.9147  -18.0890 H   0  0  0  0  0  0  0  0  0  0  0  0
   72.5996  -29.8067  -16.5644 H   0  0  0  0  0  0  0  0  0  0  0  0
   74.6369  -28.5463  -15.8367 H   0  0  0  0  0  0  0  0  0  0  0  0
   74.6307  -27.6553  -17.3610 H   0  0  0  0  0  0  0  0  0  0  0  0
   74.8473  -29.8074  -18.6208 H   0  0  0  0  0  0  0  0  0  0  0  0
   74.8544  -30.6996  -17.0967 H   0  0  0  0  0  0  0  0  0  0  0  0
   76.8914  -29.4411  -16.3693 H   0  0  0  0  0  0  0  0  0  0  0  0
   76.8842  -28.5479  -17.8929 H   0  0  0  0  0  0  0  0  0  0  0  0
   77.1018  -30.6989  -19.1545 H   0  0  0  0  0  0  0  0  0  0  0  0
   77.1095  -31.5917  -17.6308 H   0  0  0  0  0  0  0  0  0  0  0  0
   79.1463  -30.3318  -16.9030 H   0  0  0  0  0  0  0  0  0  0  0  0
   79.1386  -29.4392  -18.4268 H   0  0  0  0  0  0  0  0  0  0  0  0
   79.3583  -31.5898  -19.6880 H   0  0  0  0  0  0  0  0  0  0  0  0
   79.3659  -32.4828  -18.1645 H   0  0  0  0  0  0  0  0  0  0  0  0
   81.4033  -31.2235  -17.4367 H   0  0  0  0  0  0  0  0  0  0  0  0
   81.3956  -30.3308  -18.9605 H   0  0  0  0  0  0  0  0  0  0  0  0
   81.6152  -32.4818  -20.2218 H   0  0  0  0  0  0  0  0  0  0  0  0
   81.6230  -33.3745  -18.6981 H   0  0  0  0  0  0  0  0  0  0  0  0
   83.6621  -32.1185  -17.9716 H   0  0  0  0  0  0  0  0  0  0  0  0
   83.6541  -31.2236  -19.4939 H   0  0  0  0  0  0  0  0  0  0  0  0
   83.8738  -33.3733  -20.7587 H   0  0  0  0  0  0  0  0  0  0  0  0
   83.8820  -34.2680  -19.2363 H   0  0  0  0  0  0  0  0  0  0  0  0
   85.9234  -33.0140  -18.5103 H   0  0  0  0  0  0  0  0  0  0  0  0
   85.9154  -32.1193  -20.0323 H   0  0  0  0  0  0  0  0  0  0  0  0
   86.1413  -34.2683  -21.2977 H   0  0  0  0  0  0  0  0  0  0  0  0
   86.1472  -35.1642  -19.7760 H   0  0  0  0  0  0  0  0  0  0  0  0
   88.1882  -33.9089  -19.0463 H   0  0  0  0  0  0  0  0  0  0  0  0
   88.1826  -33.0154  -20.5685 H   0  0  0  0  0  0  0  0  0  0  0  0
   88.4335  -35.1664  -21.8321 H   0  0  0  0  0  0  0  0  0  0  0  0
   88.4390  -36.0600  -20.3094 H   0  0  0  0  0  0  0  0  0  0  0  0
   90.4838  -33.9243  -21.1156 H   0  0  0  0  0  0  0  0  0  0  0  0
   90.7504  -35.6782  -21.1173 H   0  0  0  0  0  0  0  0  0  0  0  0
   90.4893  -34.8224  -19.5855 H   0  0  0  0  0  0  0  0  0  0  0  0
  1  2  2  0  0  0  0
  1 81  1  0  0  0  0
  2  3  1  0  0  0  0
  2 82  1  0  0  0  0
  3  4  1  0  0  0  0
  3 83  1  0  0  0  0
  3 84  1  0  0  0  0
  4  5  1  0  0  0  0
  4 85  1  0  0  0  0
  5  6  1  0  0  0  0
  5 86  1  0  0  0  0
  6  7  1  0  0  0  0
  6 87  1  0  0  0  0
  6 88  1  0  0  0  0
  7  8  1  0  0  0  0
  7 89  1  0  0  0  0
  7 90  1  0  0  0  0
  8  9  1  0  0  0  0
  8 91  1  0  0  0  0
  8 92  1  0  0  0  0
  9 10  1  0  0  0  0
  9 93  1  0  0  0  0
  9 94  1  0  0  0  0
 10 11  1  0  0  0  0
 10 95  1  0  0  0  0
 10 96  1  0  0  0  0
 11 12  1  0  0  0  0
 11 97  1  0  0  0  0
 11 98  1  0  0  0  0
 12 13  1  0  0  0  0
 12 99  1  0  0  0  0
 12100  1  0  0  0  0
 13 14  1  0  0  0  0
 13101  1  0  0  0  0
 13102  1  0  0  0  0
 14 15  1  0  0  0  0
 14103  1  0  0  0  0
 14104  1  0  0  0  0
 15 16  1  0  0  0  0
 15105  1  0  0  0  0
 15106  1  0  0  0  0
 16 17  1  0  0  0  0
 16107  1  0  0  0  0
 16108  1  0  0  0  0
 17 18  1  0  0  0  0
 17109  1  0  0  0  0
 17110  1  0  0  0  0
 18 19  1  0  0  0  0
 18111  1  0  0  0  0
 18112  1  0  0  0  0
 19 20  1  0  0  0  0
 19113  1  0  0  0  0
 19114  1  0  0  0  0
 20 21  1  0  0  0  0
 20115  1  0  0  0  0
 20116  1  0  0  0  0
 21 22  1  0  0  0  0
 21117  1  0  0  0  0
 21118  1  0  0  0  0
 22 23  1  0  0  0  0
 22119  1  0  0  0  0
 22120  1  0  0  0  0
 23 24  1  0  0  0  0
 23121  1  0  0  0  0
 23122  1  0  0  0  0
 24 25  1  0  0  0  0
 24123  1  0  0  0  0
 24124  1  0  0  0  0
 25 26  1  0  0  0  0
 25125  1  0  0  0  0
 25126  1  0  0  0  0
 26 27  1  0  0  0  0
 26127  1  0  0  0  0
 26128  1  0  0  0  0
 27 28  1  0  0  0  0
 27129  1  0  0  0  0
 27130  1  0  0  0  0
 28 29  1  0  0  0  0
 28131  1  0  0  0  0
 28132  1  0  0  0  0
 29 30  1  0  0  0  0
 29133  1  0  0  0  0
 29134  1  0  0  0  0
 30 31  1  0  0  0  0
 30135  1  0  0  0  0
 30136  1  0  0  0  0
 31 32  1  0  0  0  0
 31137  1  0  0  0  0
 31138  1  0  0  0  0
 32 33  1  0  0  0  0
 32139  1  0  0  0  0
 32140  1  0  0  0  0
 33 34  1  0  0  0  0
 33141  1  0  0  0  0
 33142  1  0  0  0  0
 34 35  1  0  0  0  0
 34143  1  0  0  0  0
 34144  1  0  0  0  0
 35 36  1  0  0  0  0
 35145  1  0  0  0  0
 35146  1  0  0  0  0
 36 37  1  0  0  0  0
 36147  1  0  0  0  0
 36148  1  0  0  0  0
 37 38  1  0  0  0  0
 37149  1  0  0  0  0
 37150  1  0  0  0  0
 38 39  1  0  0  0  0
 38151  1  0  0  0  0
 38152  1  0  0  0  0
 39 40  1  0  0  0  0
 39153  1  0  0  0  0
 39154  1  0  0  0  0
 40 41  1  0  0  0  0
 40155  1  0  0  0  0
 40156  1  0  0  0  0
 41 42  1  0  0  0  0
 41157  1  0  0  0  0
 41158  1  0  0  0  0
 42 43  1  0  0  0  0
 42159  1  0  0  0  0
 42160  1  0  0  0  0
 43 44  1  0  0  0  0
 43161  1  0  0  0  0
 43162  1  0  0  0  0
 44 45  1  0  0  0  0
 44163  1  0  0  0  0
 44164  1  0  0  0  0
 45 46  1  0  0  0  0
 45165  1  0  0  0  0
 45166  1  0  0  0  0
 46 47  1  0  0  0  0
 46167  1  0  0  0  0
 46168  1  0  0  0  0
 47 48  1  0  0  0  0
 47169  1  0  0  0  0
 47170  1  0  0  0  0
 48 49  1  0  0  0  0
 48171  1  0  0  0  0
 48172  1  0  0  0  0
 49 50  1  0  0  0  0
 49173  1  0  0  0  0
 49174  1  0  0  0  0
 50 51  1  0  0  0  0
 50175  1  0  0  0  0
 50176  1  0  0  0  0
 51 52  1  0  0  0  0
 51177  1  0  0  0  0
 51178  1  0  0  0  0
 52 53  1  0  0  0  0
 52179  1  0  0  0  0
 52180  1  0  0  0  0
 53 54  1  0  0  0  0
 53181  1  0  0  0  0
 53182  1  0  0  0  0
 54 55  1  0  0  0  0
 54183  1  0  0  0  0
 54184  1  0  0  0  0
 55 56  1  0  0  0  0
 55185  1  0  0  0  0
 55186  1  0  0  0  0
 56 57  1  0  0  0  0
 56187  1  0  0  0  0
 56188  1  0  0  0  0
 57 58  1  0  0  0  0
 57189  1  0  0  0  0
 57190  1  0  0  0  0
 58 59  1  0  0  0  0
 58191  1  0  0  0  0
 58192  1  0  0  0  0
 59 60  1  0  0  0  0
 59193  1  0  0  0  0
 59194  1  0  0  0  0
 60 61  1  0  0  0  0
 60195  1  0  0  0  0
 60196  1  0  0  0  0
 61 62  1  0  0  0  0
 61197  1  0  0  0  0
 61198  1  0  0  0  0
 62 63  1  0  0  0  0
 62199  1  0  0  0  0
 62200  1  0  0  0  0
 63 64  1  0  0  0  0
 63201  1  0  0  0  0
 63202  1  0  0  0  0
 64 65  1  0  0  0  0
 64203  1  0  0  0  0
 64204  1  0  0  0  0
 65 66  1  0  0  0  0
 65205  1  0  0  0  0
 65206  1  0  0  0  0
 66 67  1  0  0  0  0
 66207  1  0  0  0  0
 66208  1  0  0  0  0
 67 68  1  0  0  0  0
 67209  1  0  0  0  0
 67210  1  0  0  0  0
 68 69  1  0  0  0  0
 68211  1  0  0  0  0
 68212  1  0  0  0  0
 69 70  1  0  0  0  0
 69213  1  0  0  0  0
 69214  1  0  0  0  0
 70 71  1  0  0  0  0
 70215  1  0  0  0  0
 70216  1  0  0  0  0
 71 72  1  0  0  0  0
 71217  1  0  0  0  0
 71218  1  0  0  0  0
 72 73  1  0  0  0  0
 72219  1  0  0  0  0
 72220  1  0  0  0  0
 73 74  1  0  0  0  0
 73221  1  0  0  0  0
 73222  1  0  0  0  0
 74 75  1  0  0  0  0
 74223  1  0  0  0  0
 74224  1  0  0  0  0
 75 76  1  0  0  0  0
 75225  1  0  0  0  0
 75226  1  0  0  0  0
 76 77  1  0  0  0  0
 76227  1  0  0  0  0
 76228  1  0  0  0  0
 77 78  1  0  0  0  0
 77229  1  0  0  0  0
 77230  1  0  0  0  0
 78 79  1  0  0  0  0
 78231  1  0  0  0  0
 78232  1  0  0  0  0
 79 80  1  0  0  0  0
 79233  1  0  0  0  0
 79234  1  0  0  0  0
 80235  1  0  0  0  0
 80236  1  0  0  0  0
 80237  1  0  0  0  0
M  END
$$$$
