
 OpenBabel04232216473D

 49 50  0  0  1  0  0  0  0  0999 V2000
   -2.7436   -3.1646   -6.2401 C   0  0  0  0  0  0  0  0  0  0  0  0
   -3.3197   -2.5007   -5.0274 C   0  0  0  0  0  0  0  0  0  0  0  0
   -3.7518   -3.2453   -3.9249 C   0  0  0  0  0  0  0  0  0  0  0  0
   -4.2884   -2.6017   -2.8053 C   0  0  0  0  0  0  0  0  0  0  0  0
   -4.3885   -1.2077   -2.7603 C   0  0  0  0  0  0  0  0  0  0  0  0
   -4.9833   -0.5693   -1.5766 C   0  0  0  0  0  0  0  0  0  0  0  0
   -4.6812    0.6662   -1.1383 C   0  0  0  0  0  0  0  0  0  0  0  0
   -5.3129    1.2782    0.0809 C   0  0  0  0  0  0  0  0  0  0  0  0
   -6.1629    2.5518   -0.1671 C   0  0  3  0  0  0  0  0  0  0  0  0
   -7.2535    2.3659   -1.2538 C   0  0  0  0  0  0  0  0  0  0  0  0
   -8.2829    1.2644   -0.9922 C   0  0  0  0  0  0  0  0  0  0  0  0
   -9.1940    1.0864   -2.1999 C   0  0  0  0  0  0  0  0  0  0  0  0
   -6.7222    2.9925    1.1661 C   0  0  0  0  0  0  0  0  0  0  0  0
   -6.5338    4.2911    1.4116 C   0  0  0  0  0  0  0  0  0  0  0  0
   -6.8559    4.9390    2.5791 N   0  0  0  0  0  0  0  0  0  0  0  0
   -5.8137    5.2399    3.5703 C   0  0  0  0  0  0  0  0  0  0  0  0
   -6.3735    6.0479    4.7268 C   0  0  0  0  0  0  0  0  0  0  0  0
   -7.4794    6.5828    4.7428 O   0  0  0  0  0  0  0  0  0  0  0  0
   -5.9051    4.9728    0.2341 C   0  0  0  0  0  0  0  0  0  0  0  0
   -5.2950    3.7892   -0.5309 C   0  0  0  0  0  0  0  0  0  0  0  0
   -3.9725   -0.4664   -3.8740 C   0  0  0  0  0  0  0  0  0  0  0  0
   -3.4392   -1.1083   -4.9934 C   0  0  0  0  0  0  0  0  0  0  0  0
   -2.6987   -4.2530   -6.1227 H   0  0  0  0  0  0  0  0  0  0  0  0
   -1.7238   -2.8049   -6.4176 H   0  0  0  0  0  0  0  0  0  0  0  0
   -3.3593   -2.9453   -7.1180 H   0  0  0  0  0  0  0  0  0  0  0  0
   -3.6785   -4.3303   -3.9305 H   0  0  0  0  0  0  0  0  0  0  0  0
   -4.6164   -3.2077   -1.9615 H   0  0  0  0  0  0  0  0  0  0  0  0
   -5.7194   -1.1674   -1.0432 H   0  0  0  0  0  0  0  0  0  0  0  0
   -3.9201    1.2674   -1.6406 H   0  0  0  0  0  0  0  0  0  0  0  0
   -4.5070    1.5042    0.7933 H   0  0  0  0  0  0  0  0  0  0  0  0
   -5.9333    0.5250    0.5875 H   0  0  0  0  0  0  0  0  0  0  0  0
   -6.7610    2.1654   -2.2157 H   0  0  0  0  0  0  0  0  0  0  0  0
   -7.7956    3.3113   -1.3967 H   0  0  0  0  0  0  0  0  0  0  0  0
   -8.8899    1.5170   -0.1162 H   0  0  0  0  0  0  0  0  0  0  0  0
   -7.7939    0.3083   -0.7864 H   0  0  0  0  0  0  0  0  0  0  0  0
   -9.7164    2.0179   -2.4401 H   0  0  0  0  0  0  0  0  0  0  0  0
   -9.9433    0.3141   -2.0029 H   0  0  0  0  0  0  0  0  0  0  0  0
   -8.6178    0.7814   -3.0805 H   0  0  0  0  0  0  0  0  0  0  0  0
   -7.1875    2.3156    1.8700 H   0  0  0  0  0  0  0  0  0  0  0  0
   -7.3898    5.7933    2.4002 H   0  0  0  0  0  0  0  0  0  0  0  0
   -5.0047    5.8264    3.1207 H   0  0  0  0  0  0  0  0  0  0  0  0
   -5.3977    4.3117    3.9761 H   0  0  0  0  0  0  0  0  0  0  0  0
   -5.6774    6.1854    5.5726 H   0  0  0  0  0  0  0  0  0  0  0  0
   -5.1348    5.6968    0.5153 H   0  0  0  0  0  0  0  0  0  0  0  0
   -6.6710    5.4833   -0.3606 H   0  0  0  0  0  0  0  0  0  0  0  0
   -4.2544    3.6521   -0.2097 H   0  0  0  0  0  0  0  0  0  0  0  0
   -5.2685    3.9912   -1.6088 H   0  0  0  0  0  0  0  0  0  0  0  0
   -4.0749    0.6132   -3.8908 H   0  0  0  0  0  0  0  0  0  0  0  0
   -3.1205   -0.5091   -5.8434 H   0  0  0  0  0  0  0  0  0  0  0  0
  1  2  1  0  0  0  0
  1 23  1  0  0  0  0
  1 24  1  0  0  0  0
  1 25  1  0  0  0  0
  2  3  1  0  0  0  0
  2 22  2  0  0  0  0
  3  4  2  0  0  0  0
  3 26  1  0  0  0  0
  4  5  1  0  0  0  0
  4 27  1  0  0  0  0
  5  6  1  0  0  0  0
  5 21  2  0  0  0  0
  6  7  2  3  0  0  0
  6 28  1  0  0  0  0
  7  8  1  0  0  0  0
  7 29  1  0  0  0  0
  8  9  1  0  0  0  0
  8 30  1  0  0  0  0
  8 31  1  0  0  0  0
  9 10  1  0  0  0  0
  9 13  1  0  0  0  0
  9 20  1  0  0  0  0
 10 11  1  0  0  0  0
 10 32  1  0  0  0  0
 10 33  1  0  0  0  0
 11 12  1  0  0  0  0
 11 34  1  0  0  0  0
 11 35  1  0  0  0  0
 12 36  1  0  0  0  0
 12 37  1  0  0  0  0
 12 38  1  0  0  0  0
 13 14  2  0  0  0  0
 13 39  1  0  0  0  0
 14 15  1  0  0  0  0
 14 19  1  0  0  0  0
 15 16  1  0  0  0  0
 15 40  1  0  0  0  0
 16 17  1  0  0  0  0
 16 41  1  0  0  0  0
 16 42  1  0  0  0  0
 17 18  2  0  0  0  0
 17 43  1  0  0  0  0
 19 20  1  0  0  0  0
 19 44  1  0  0  0  0
 19 45  1  0  0  0  0
 20 46  1  0  0  0  0
 20 47  1  0  0  0  0
 21 22  1  0  0  0  0
 21 48  1  0  0  0  0
 22 49  1  0  0  0  0
M  END
$$$$
