
 OpenBabel04232216563D

 80 79  0  0  0  0  0  0  0  0999 V2000
    8.6831    3.9621   -3.7808 C   0  0  0  0  0  0  0  0  0  0  0  0
    8.2046    2.9475   -2.8502 N   0  0  0  0  0  0  0  0  0  0  0  0
    8.6935    1.6313   -3.2566 C   0  0  0  0  0  0  0  0  0  0  0  0
    8.1955    0.5680   -2.2829 C   0  0  0  0  0  0  0  0  0  0  0  0
    8.6925   -0.7302   -2.7107 N   0  0  0  0  0  0  0  0  0  0  0  0
    8.2107   -1.7011   -1.7937 N   0  0  0  0  0  0  0  0  0  0  0  0
    8.6802   -2.9884   -2.1846 N   0  0  0  0  0  0  0  0  0  0  0  0
    8.2214   -3.9921   -1.2830 N   0  0  0  0  0  0  0  0  0  0  0  0
    8.7049   -5.2637   -1.6786 N   0  0  0  0  0  0  0  0  0  0  0  0
   10.1114   -5.2832   -1.6687 N   0  0  0  0  0  0  0  0  0  0  0  0
   10.5852   -6.5446   -2.0753 N   0  0  0  0  0  0  0  0  0  0  0  0
   11.9924   -6.5428   -2.0884 N   0  0  0  0  0  0  0  0  0  0  0  0
   12.4726   -7.8135   -2.4793 N   0  0  0  0  0  0  0  0  0  0  0  0
   13.8898   -7.7971   -2.4757 N   0  0  0  0  0  0  0  0  0  0  0  0
   14.3672   -9.1173   -2.8913 C   0  0  0  0  0  0  0  0  0  0  0  0
   15.8925   -9.1311   -2.8950 C   0  0  0  0  0  0  0  0  0  0  0  0
   16.4111  -10.4963   -3.3244 C   0  0  0  0  0  0  0  0  0  0  0  0
   17.9295  -10.5064   -3.3275 C   0  0  0  0  0  0  0  0  0  0  0  0
   18.4424  -11.8687   -3.7562 C   0  0  0  0  0  0  0  0  0  0  0  0
   19.9596  -11.8759   -3.7563 C   0  0  0  0  0  0  0  0  0  0  0  0
   20.4743  -13.2367   -4.1867 C   0  0  0  0  0  0  0  0  0  0  0  0
   21.9939  -13.2451   -4.1849 C   0  0  0  0  0  0  0  0  0  0  0  0
   22.5030  -14.6083   -4.6141 C   0  0  0  0  0  0  0  0  0  0  0  0
   23.9605  -14.6077   -4.6066 N   0  0  0  0  0  0  0  0  0  0  0  0
   24.4468  -15.9198   -5.0181 C   0  0  0  0  0  0  0  0  0  0  0  0
   25.9655  -15.9283   -5.0147 C   0  0  0  0  0  0  0  0  0  0  0  0
   26.4800  -17.2939   -5.4425 C   0  0  0  0  0  0  0  0  0  0  0  0
   27.9985  -17.3060   -5.4420 C   0  0  0  0  0  0  0  0  0  0  0  0
   28.5140  -18.6683   -5.8706 C   0  0  0  0  0  0  0  0  0  0  0  0
   30.0267  -18.6734   -5.8680 C   0  0  0  0  0  0  0  0  0  0  0  0
    8.3208    4.9527   -3.4836 H   0  0  0  0  0  0  0  0  0  0  0  0
    8.3264    3.7665   -4.7975 H   0  0  0  0  0  0  0  0  0  0  0  0
    9.7770    4.0002   -3.7892 H   0  0  0  0  0  0  0  0  0  0  0  0
    7.1843    2.9529   -2.8538 H   0  0  0  0  0  0  0  0  0  0  0  0
    9.7899    1.6425   -3.2665 H   0  0  0  0  0  0  0  0  0  0  0  0
    8.3396    1.4073   -4.2698 H   0  0  0  0  0  0  0  0  0  0  0  0
    7.0986    0.5785   -2.2777 H   0  0  0  0  0  0  0  0  0  0  0  0
    8.5509    0.8093   -1.2739 H   0  0  0  0  0  0  0  0  0  0  0  0
    9.7116   -0.6801   -2.7109 H   0  0  0  0  0  0  0  0  0  0  0  0
    7.1826   -1.6756   -1.7950 H   0  0  0  0  0  0  0  0  0  0  0  0
    9.7050   -2.9896   -2.1893 H   0  0  0  0  0  0  0  0  0  0  0  0
    7.2051   -4.0300   -1.2897 H   0  0  0  0  0  0  0  0  0  0  0  0
    8.3736   -5.4766   -2.6157 H   0  0  0  0  0  0  0  0  0  0  0  0
   10.4335   -5.0430   -0.7334 H   0  0  0  0  0  0  0  0  0  0  0  0
   10.2156   -6.7320   -3.0080 H   0  0  0  0  0  0  0  0  0  0  0  0
   12.3522   -6.3311   -1.1552 H   0  0  0  0  0  0  0  0  0  0  0  0
   12.1490   -8.0308   -3.4238 H   0  0  0  0  0  0  0  0  0  0  0  0
   14.2563   -7.6161   -1.5420 H   0  0  0  0  0  0  0  0  0  0  0  0
   14.0117   -9.3615   -3.8998 H   0  0  0  0  0  0  0  0  0  0  0  0
   14.0095   -9.8934   -2.2025 H   0  0  0  0  0  0  0  0  0  0  0  0
   16.2754   -8.9001   -1.8931 H   0  0  0  0  0  0  0  0  0  0  0  0
   16.2741   -8.3675   -3.5838 H   0  0  0  0  0  0  0  0  0  0  0  0
   16.0415  -10.7368   -4.3285 H   0  0  0  0  0  0  0  0  0  0  0  0
   16.0414  -11.2684   -2.6388 H   0  0  0  0  0  0  0  0  0  0  0  0
   18.3045  -10.2699   -2.3245 H   0  0  0  0  0  0  0  0  0  0  0  0
   18.3045   -9.7382   -4.0143 H   0  0  0  0  0  0  0  0  0  0  0  0
   18.0706  -12.1059   -4.7601 H   0  0  0  0  0  0  0  0  0  0  0  0
   18.0683  -12.6385   -3.0706 H   0  0  0  0  0  0  0  0  0  0  0  0
   20.3307  -11.6399   -2.7520 H   0  0  0  0  0  0  0  0  0  0  0  0
   20.3332  -11.1051   -4.4407 H   0  0  0  0  0  0  0  0  0  0  0  0
   20.1013  -13.4707   -5.1910 H   0  0  0  0  0  0  0  0  0  0  0  0
   20.0966  -14.0063   -3.5026 H   0  0  0  0  0  0  0  0  0  0  0  0
   22.3586  -13.0069   -3.1784 H   0  0  0  0  0  0  0  0  0  0  0  0
   22.3645  -12.4724   -4.8694 H   0  0  0  0  0  0  0  0  0  0  0  0
   22.1338  -14.8318   -5.6217 H   0  0  0  0  0  0  0  0  0  0  0  0
   22.1221  -15.3729   -3.9277 H   0  0  0  0  0  0  0  0  0  0  0  0
   24.2984  -14.3947   -3.6681 H   0  0  0  0  0  0  0  0  0  0  0  0
   24.0888  -16.1548   -6.0275 H   0  0  0  0  0  0  0  0  0  0  0  0
   24.0793  -16.6929   -4.3331 H   0  0  0  0  0  0  0  0  0  0  0  0
   26.3409  -15.6966   -4.0105 H   0  0  0  0  0  0  0  0  0  0  0  0
   26.3472  -15.1634   -5.7019 H   0  0  0  0  0  0  0  0  0  0  0  0
   26.1111  -17.5334   -6.4470 H   0  0  0  0  0  0  0  0  0  0  0  0
   26.1065  -18.0642   -4.7571 H   0  0  0  0  0  0  0  0  0  0  0  0
   28.3688  -17.0686   -4.4373 H   0  0  0  0  0  0  0  0  0  0  0  0
   28.3735  -16.5354   -6.1263 H   0  0  0  0  0  0  0  0  0  0  0  0
   28.1473  -18.9053   -6.8757 H   0  0  0  0  0  0  0  0  0  0  0  0
   28.1425  -19.4388   -5.1857 H   0  0  0  0  0  0  0  0  0  0  0  0
   30.4114  -17.9176   -6.5598 H   0  0  0  0  0  0  0  0  0  0  0  0
   30.4006  -19.6525   -6.1761 H   0  0  0  0  0  0  0  0  0  0  0  0
   30.4066  -18.4525   -4.8656 H   0  0  0  0  0  0  0  0  0  0  0  0
  1  2  1  0  0  0  0
  1 31  1  0  0  0  0
  1 32  1  0  0  0  0
  1 33  1  0  0  0  0
  2  3  1  0  0  0  0
  2 34  1  0  0  0  0
  3  4  1  0  0  0  0
  3 35  1  0  0  0  0
  3 36  1  0  0  0  0
  4  5  1  0  0  0  0
  4 37  1  0  0  0  0
  4 38  1  0  0  0  0
  5  6  1  0  0  0  0
  5 39  1  0  0  0  0
  6  7  1  0  0  0  0
  6 40  1  0  0  0  0
  7  8  1  0  0  0  0
  7 41  1  0  0  0  0
  8  9  1  0  0  0  0
  8 42  1  0  0  0  0
  9 10  1  0  0  0  0
  9 43  1  0  0  0  0
 10 11  1  0  0  0  0
 10 44  1  0  0  0  0
 11 12  1  0  0  0  0
 11 45  1  0  0  0  0
 12 13  1  0  0  0  0
 12 46  1  0  0  0  0
 13 14  1  0  0  0  0
 13 47  1  0  0  0  0
 14 15  1  0  0  0  0
 14 48  1  0  0  0  0
 15 16  1  0  0  0  0
 15 49  1  0  0  0  0
 15 50  1  0  0  0  0
 16 17  1  0  0  0  0
 16 51  1  0  0  0  0
 16 52  1  0  0  0  0
 17 18  1  0  0  0  0
 17 53  1  0  0  0  0
 17 54  1  0  0  0  0
 18 19  1  0  0  0  0
 18 55  1  0  0  0  0
 18 56  1  0  0  0  0
 19 20  1  0  0  0  0
 19 57  1  0  0  0  0
 19 58  1  0  0  0  0
 20 21  1  0  0  0  0
 20 59  1  0  0  0  0
 20 60  1  0  0  0  0
 21 22  1  0  0  0  0
 21 61  1  0  0  0  0
 21 62  1  0  0  0  0
 22 23  1  0  0  0  0
 22 63  1  0  0  0  0
 22 64  1  0  0  0  0
 23 24  1  0  0  0  0
 23 65  1  0  0  0  0
 23 66  1  0  0  0  0
 24 25  1  0  0  0  0
 24 67  1  0  0  0  0
 25 26  1  0  0  0  0
 25 68  1  0  0  0  0
 25 69  1  0  0  0  0
 26 27  1  0  0  0  0
 26 70  1  0  0  0  0
 26 71  1  0  0  0  0
 27 28  1  0  0  0  0
 27 72  1  0  0  0  0
 27 73  1  0  0  0  0
 28 29  1  0  0  0  0
 28 74  1  0  0  0  0
 28 75  1  0  0  0  0
 29 30  1  0  0  0  0
 29 76  1  0  0  0  0
 29 77  1  0  0  0  0
 30 78  1  0  0  0  0
 30 79  1  0  0  0  0
 30 80  1  0  0  0  0
M  END
$$$$
