
 OpenBabel04232216503D

 53 54  0  0  0  0  0  0  0  0999 V2000
   -6.2930   -0.2284    6.4993 C   0  0  0  0  0  0  0  0  0  0  0  0
   -6.1017    0.2058    5.0667 C   0  0  0  0  0  0  0  0  0  0  0  0
   -5.3992   -0.5526    4.1501 C   0  0  0  0  0  0  0  0  0  0  0  0
   -5.2012   -0.1811    2.8595 N   0  0  0  0  0  0  0  0  0  0  0  0
   -5.7097    1.0137    2.4608 C   0  0  0  0  0  0  0  0  0  0  0  0
   -5.3844    1.5108    1.0616 C   0  0  0  0  0  0  0  0  0  0  0  0
   -6.4428    1.2686   -0.0279 C   0  0  0  0  0  0  0  0  0  0  0  0
   -7.9020    1.8119    0.1259 C   0  0  0  0  0  0  0  0  0  0  0  0
   -8.5295    3.2402   -0.0398 C   0  0  0  0  0  0  0  0  0  0  0  0
   -8.0478    4.4739   -0.3284 C   0  0  0  0  0  0  0  0  0  0  0  0
   -8.7188    5.9255   -0.5149 C   0  0  0  0  0  0  0  0  0  0  0  0
  -10.2233    6.4259   -0.2259 C   0  0  0  0  0  0  0  0  0  0  0  0
  -10.9793    7.7123   -0.9336 C   0  0  0  0  0  0  0  0  0  0  0  0
  -10.4378    8.9484   -0.6155 N   0  0  0  0  0  0  0  0  0  0  0  0
   -9.7887    9.5330   -1.5825 C   0  0  0  0  0  0  0  0  0  0  0  0
  -10.0153   10.9904   -1.9110 C   0  0  0  0  0  0  0  0  0  0  0  0
   -9.7765   12.1101   -0.9550 C   0  0  0  0  0  0  0  0  0  0  0  0
  -10.8464   11.0428   -2.9746 C   0  0  0  0  0  0  0  0  0  0  0  0
  -12.1710   11.6815   -2.7375 C   0  0  0  0  0  0  0  0  0  0  0  0
  -13.1523   11.1075   -2.0933 N   0  0  0  0  0  0  0  0  0  0  0  0
  -12.6791    9.9443   -1.4315 N   0  0  0  0  0  0  0  0  0  0  0  0
  -12.9072    8.7753   -1.9659 C   0  0  0  0  0  0  0  0  0  0  0  0
  -14.0074    8.6765   -3.0432 C   0  0  0  0  0  0  0  0  0  0  0  0
  -12.1440    7.6409   -1.5748 N   0  0  0  0  0  0  0  0  0  0  0  0
   -6.4269    1.8361    3.3274 C   0  0  0  0  0  0  0  0  0  0  0  0
   -6.6177    1.4230    4.6375 C   0  0  0  0  0  0  0  0  0  0  0  0
   -5.8073   -1.1898    6.7115 H   0  0  0  0  0  0  0  0  0  0  0  0
   -7.3593   -0.3380    6.7234 H   0  0  0  0  0  0  0  0  0  0  0  0
   -5.8616    0.5169    7.1797 H   0  0  0  0  0  0  0  0  0  0  0  0
   -4.9377   -1.5000    4.4309 H   0  0  0  0  0  0  0  0  0  0  0  0
   -4.4471    1.0086    0.7473 H   0  0  0  0  0  0  0  0  0  0  0  0
   -5.1389    2.5787    1.1059 H   0  0  0  0  0  0  0  0  0  0  0  0
   -6.5311    0.1686   -0.0963 H   0  0  0  0  0  0  0  0  0  0  0  0
   -6.0266    1.5739   -0.9950 H   0  0  0  0  0  0  0  0  0  0  0  0
   -8.2668    1.4260    1.0870 H   0  0  0  0  0  0  0  0  0  0  0  0
   -8.4483    1.2171   -0.6252 H   0  0  0  0  0  0  0  0  0  0  0  0
   -9.6088    3.1724    0.0865 H   0  0  0  0  0  0  0  0  0  0  0  0
   -6.9626    4.5255   -0.4672 H   0  0  0  0  0  0  0  0  0  0  0  0
   -8.4125    6.2767   -1.5075 H   0  0  0  0  0  0  0  0  0  0  0  0
   -8.1114    6.5170    0.1909 H   0  0  0  0  0  0  0  0  0  0  0  0
  -10.1521    6.7992    0.8096 H   0  0  0  0  0  0  0  0  0  0  0  0
  -10.9143    5.5806   -0.1870 H   0  0  0  0  0  0  0  0  0  0  0  0
   -9.3796    8.9473   -2.4024 H   0  0  0  0  0  0  0  0  0  0  0  0
   -8.9461   11.8871   -0.2808 H   0  0  0  0  0  0  0  0  0  0  0  0
  -10.6537   12.3891   -0.3644 H   0  0  0  0  0  0  0  0  0  0  0  0
   -9.4734   12.9960   -1.5335 H   0  0  0  0  0  0  0  0  0  0  0  0
  -10.9965   10.1650   -3.6017 H   0  0  0  0  0  0  0  0  0  0  0  0
  -12.3520   12.6374   -3.2741 H   0  0  0  0  0  0  0  0  0  0  0  0
  -14.4681    7.6907   -3.1143 H   0  0  0  0  0  0  0  0  0  0  0  0
  -13.6266    8.9830   -4.0245 H   0  0  0  0  0  0  0  0  0  0  0  0
  -14.8237    9.3831   -2.8103 H   0  0  0  0  0  0  0  0  0  0  0  0
   -6.8188    2.7921    2.9778 H   0  0  0  0  0  0  0  0  0  0  0  0
   -7.1762    2.0584    5.3134 H   0  0  0  0  0  0  0  0  0  0  0  0
  1  2  1  0  0  0  0
  1 27  1  0  0  0  0
  1 28  1  0  0  0  0
  1 29  1  0  0  0  0
  2  3  1  0  0  0  0
  2 26  2  0  0  0  0
  3  4  2  0  0  0  0
  3 30  1  0  0  0  0
  4  5  1  0  0  0  0
  5  6  1  0  0  0  0
  5 25  2  0  0  0  0
  6  7  1  0  0  0  0
  6 31  1  0  0  0  0
  6 32  1  0  0  0  0
  7  8  1  0  0  0  0
  7 33  1  0  0  0  0
  7 34  1  0  0  0  0
  8  9  1  0  0  0  0
  8 35  1  0  0  0  0
  8 36  1  0  0  0  0
  9 10  2  3  0  0  0
  9 37  1  0  0  0  0
 10 11  1  0  0  0  0
 10 38  1  0  0  0  0
 11 12  1  0  0  0  0
 11 39  1  0  0  0  0
 11 40  1  0  0  0  0
 12 13  1  0  0  0  0
 12 41  1  0  0  0  0
 12 42  1  0  0  0  0
 13 14  1  0  0  0  0
 13 24  2  0  0  0  0
 14 15  2  0  0  0  0
 15 16  1  0  0  0  0
 15 43  1  0  0  0  0
 16 17  1  0  0  0  0
 16 18  2  0  0  0  0
 17 44  1  0  0  0  0
 17 45  1  0  0  0  0
 17 46  1  0  0  0  0
 18 19  1  0  0  0  0
 18 47  1  0  0  0  0
 19 20  2  0  0  0  0
 19 48  1  0  0  0  0
 20 21  1  0  0  0  0
 21 22  2  0  0  0  0
 22 23  1  0  0  0  0
 22 24  1  0  0  0  0
 23 49  1  0  0  0  0
 23 50  1  0  0  0  0
 23 51  1  0  0  0  0
 25 26  1  0  0  0  0
 25 52  1  0  0  0  0
 26 53  1  0  0  0  0
M  END
$$$$
