
 OpenBabel04232216523D

 28 28  0  0  0  0  0  0  0  0999 V2000
    0.9993   -2.4161   -0.8702 C   0  0  0  0  0  0  0  0  0  0  0  0
    2.5095   -2.4070   -0.8556 C   0  0  0  0  0  0  0  0  0  0  0  0
    3.0007   -0.9632   -1.0662 C   0  0  0  0  0  0  0  0  0  0  0  0
    4.5180   -0.9935   -1.0577 C   0  0  0  0  0  0  0  0  0  0  0  0
    5.3711   -1.8809   -2.1031 C   0  0  0  0  0  0  0  0  0  0  0  0
    6.7315   -1.8809   -2.1031 C   0  0  0  0  0  0  0  0  0  0  0  0
    7.4665   -2.7208   -3.0598 N   0  0  0  0  0  0  0  0  0  0  0  0
    7.8329   -2.1821   -4.3554 C   0  0  0  0  0  0  0  0  0  0  0  0
    7.8749   -3.2931   -5.4050 C   0  0  0  0  0  0  0  0  0  0  0  0
    6.5340   -3.9981   -5.5515 C   0  0  0  0  0  0  0  0  0  0  0  0
    5.2913   -0.2352   -0.2284 C   0  0  0  0  0  0  0  0  0  0  0  0
    0.6389   -3.4324   -0.7074 H   0  0  0  0  0  0  0  0  0  0  0  0
    0.6409   -2.0560   -1.8382 H   0  0  0  0  0  0  0  0  0  0  0  0
    0.6120   -1.7645   -0.0822 H   0  0  0  0  0  0  0  0  0  0  0  0
    2.8897   -3.0806   -1.6198 H   0  0  0  0  0  0  0  0  0  0  0  0
    2.8665   -2.7856    0.1149 H   0  0  0  0  0  0  0  0  0  0  0  0
    2.6474   -0.2880   -0.3234 H   0  0  0  0  0  0  0  0  0  0  0  0
    2.6785   -0.5824   -2.0439 H   0  0  0  0  0  0  0  0  0  0  0  0
    4.7964   -2.4987   -2.8125 H   0  0  0  0  0  0  0  0  0  0  0  0
    7.7655   -3.6608   -2.8142 H   0  0  0  0  0  0  0  0  0  0  0  0
    8.8058   -1.7008   -4.2861 H   0  0  0  0  0  0  0  0  0  0  0  0
    7.0954   -1.4168   -4.6507 H   0  0  0  0  0  0  0  0  0  0  0  0
    8.6436   -4.0299   -5.1367 H   0  0  0  0  0  0  0  0  0  0  0  0
    8.1633   -2.8750   -6.3759 H   0  0  0  0  0  0  0  0  0  0  0  0
    6.2288   -4.4547   -4.6032 H   0  0  0  0  0  0  0  0  0  0  0  0
    6.5982   -4.7862   -6.3034 H   0  0  0  0  0  0  0  0  0  0  0  0
    5.7564   -3.2916   -5.8582 H   0  0  0  0  0  0  0  0  0  0  0  0
    5.9040    0.3448    0.4020 H   0  0  0  0  0  0  0  0  0  0  0  0
  1  2  1  0  0  0  0
  1 12  1  0  0  0  0
  1 13  1  0  0  0  0
  1 14  1  0  0  0  0
  2  3  1  0  0  0  0
  2 15  1  0  0  0  0
  2 16  1  0  0  0  0
  3  4  1  0  0  0  0
  3 17  1  0  0  0  0
  3 18  1  0  0  0  0
  4  5  1  0  0  0  0
  4 11  2  0  0  0  0
  5  6  2  0  0  0  0
  5 19  1  0  0  0  0
  6  7  1  0  0  0  0
  6 11  1  0  0  0  0
  7  8  1  0  0  0  0
  7 20  1  0  0  0  0
  8  9  1  0  0  0  0
  8 21  1  0  0  0  0
  8 22  1  0  0  0  0
  9 10  1  0  0  0  0
  9 23  1  0  0  0  0
  9 24  1  0  0  0  0
 10 25  1  0  0  0  0
 10 26  1  0  0  0  0
 10 27  1  0  0  0  0
 11 28  1  0  0  0  0
M  END
$$$$
