
 OpenBabel04232216433D

 35 35  0  0  0  0  0  0  0  0999 V2000
    6.7259    0.9540    2.8517 C   0  0  0  0  0  0  0  0  0  0  0  0
    5.5091    1.0173    1.9987 C   0  0  0  0  0  0  0  0  0  0  0  0
    4.7311   -0.0024    1.5610 C   0  0  0  0  0  0  0  0  0  0  0  0
    5.3160   -0.8610    0.5015 C   0  0  0  0  0  0  0  0  0  0  0  0
    5.9987   -1.9319    0.9591 C   0  0  0  0  0  0  0  0  0  0  0  0
    7.4137   -1.7694    1.3728 C   0  0  0  0  0  0  0  0  0  0  0  0
    8.3212   -0.9687    0.4631 C   0  0  0  0  0  0  0  0  0  0  0  0
    7.6716   -2.1667    2.6396 C   0  0  0  0  0  0  0  0  0  0  0  0
    8.8850   -2.2268    3.4121 C   0  0  0  0  0  0  0  0  0  0  0  0
    8.8492   -2.3245    4.7537 C   0  0  0  0  0  0  0  0  0  0  0  0
    9.9705   -2.7217    5.5858 C   0  0  0  0  0  0  0  0  0  0  0  0
   11.0178   -1.9720    5.9766 C   0  0  0  0  0  0  0  0  0  0  0  0
   11.5203   -1.0461    4.9643 C   0  0  0  0  0  0  0  0  0  0  0  0
   11.0783    0.2022    5.1541 C   0  0  0  0  0  0  0  0  0  0  0  0
   10.2602    1.0668    4.2981 C   0  0  0  0  0  0  0  0  0  0  0  0
    9.2261    0.7771    3.4673 C   0  0  0  0  0  0  0  0  0  0  0  0
    7.7552    0.8681    3.7297 C   0  0  0  0  0  0  0  0  0  0  0  0
    5.9744    1.1670    3.6612 H   0  0  0  0  0  0  0  0  0  0  0  0
    5.6332    1.8240    1.2775 H   0  0  0  0  0  0  0  0  0  0  0  0
    4.2088   -0.6367    2.2813 H   0  0  0  0  0  0  0  0  0  0  0  0
    5.7362   -0.2643   -0.3058 H   0  0  0  0  0  0  0  0  0  0  0  0
    5.4631   -2.5548    1.6828 H   0  0  0  0  0  0  0  0  0  0  0  0
    7.7806   -0.4898   -0.3614 H   0  0  0  0  0  0  0  0  0  0  0  0
    9.1157   -1.5659    0.0194 H   0  0  0  0  0  0  0  0  0  0  0  0
    8.7700   -0.1222    0.9767 H   0  0  0  0  0  0  0  0  0  0  0  0
    6.8275   -2.5173    3.2377 H   0  0  0  0  0  0  0  0  0  0  0  0
    9.8197   -2.2841    2.8717 H   0  0  0  0  0  0  0  0  0  0  0  0
    7.9170   -2.1733    5.3053 H   0  0  0  0  0  0  0  0  0  0  0  0
   10.2525   -3.7586    5.3973 H   0  0  0  0  0  0  0  0  0  0  0  0
   11.7306   -2.3508    6.7021 H   0  0  0  0  0  0  0  0  0  0  0  0
   11.5649   -1.5656    4.0021 H   0  0  0  0  0  0  0  0  0  0  0  0
   11.4264    0.6633    6.0753 H   0  0  0  0  0  0  0  0  0  0  0  0
   11.0194    1.6953    3.8468 H   0  0  0  0  0  0  0  0  0  0  0  0
    9.5015    0.9153    2.4287 H   0  0  0  0  0  0  0  0  0  0  0  0
    7.5252    0.8556    4.7892 H   0  0  0  0  0  0  0  0  0  0  0  0
  1  2  1  0  0  0  0
  1 17  2  3  0  0  0
  1 18  1  0  0  0  0
  2  3  2  3  0  0  0
  2 19  1  0  0  0  0
  3  4  1  0  0  0  0
  3 20  1  0  0  0  0
  4  5  2  3  0  0  0
  4 21  1  0  0  0  0
  5  6  1  0  0  0  0
  5 22  1  0  0  0  0
  6  7  1  0  0  0  0
  6  8  2  3  0  0  0
  7 23  1  0  0  0  0
  7 24  1  0  0  0  0
  7 25  1  0  0  0  0
  8  9  1  0  0  0  0
  8 26  1  0  0  0  0
  9 10  2  3  0  0  0
  9 27  1  0  0  0  0
 10 11  1  0  0  0  0
 10 28  1  0  0  0  0
 11 12  2  3  0  0  0
 11 29  1  0  0  0  0
 12 13  1  0  0  0  0
 12 30  1  0  0  0  0
 13 14  2  3  0  0  0
 13 31  1  0  0  0  0
 14 15  1  0  0  0  0
 14 32  1  0  0  0  0
 15 16  2  3  0  0  0
 15 33  1  0  0  0  0
 16 17  1  0  0  0  0
 16 34  1  0  0  0  0
 17 35  1  0  0  0  0
M  END
$$$$
