
 OpenBabel04232216513D

 45 45  0  0  0  0  0  0  0  0999 V2000
    4.9990    1.2437   -0.7746 C   0  0  0  0  0  0  0  0  0  0  0  0
    5.3737   -0.2801   -1.0130 C   0  0  0  0  0  0  0  0  0  0  0  0
    6.9834   -0.8077   -1.1339 C   0  0  0  0  0  0  0  0  0  0  0  0
    7.6126   -2.4357   -1.1130 C   0  0  0  0  0  0  0  0  0  0  0  0
    6.6713   -3.4055   -0.8333 C   0  0  0  0  0  0  0  0  0  0  0  0
    5.2235   -3.5517   -0.9496 C   0  0  0  0  0  0  0  0  0  0  0  0
    4.2288   -3.3208   -0.0925 C   0  0  0  0  0  0  0  0  0  0  0  0
    7.2746   -4.6294   -0.3266 C   0  0  0  0  0  0  0  0  0  0  0  0
    6.8271   -5.7964    0.5421 C   0  0  0  0  0  0  0  0  0  0  0  0
    7.9112   -6.0638    1.5187 N   0  0  0  0  0  0  0  0  0  0  0  0
    9.0749   -6.5968    0.9867 C   0  0  0  0  0  0  0  0  0  0  0  0
    9.2261   -7.7606    0.6140 O   0  0  0  0  0  0  0  0  0  0  0  0
    9.9954   -5.5221    0.5468 C   0  0  0  0  0  0  0  0  0  0  0  0
    9.8087   -5.2698   -0.7579 C   0  0  0  0  0  0  0  0  0  0  0  0
   10.0821   -3.8949   -1.2710 C   0  0  0  0  0  0  0  0  0  0  0  0
   11.8326   -4.0928   -1.6624 C   0  0  0  0  0  0  0  0  0  0  0  0
   12.4510   -3.1218   -2.0341 O   0  0  0  0  0  0  0  0  0  0  0  0
   12.6673   -5.7013   -1.5482 C   0  0  0  0  0  0  0  0  0  0  0  0
   14.1503   -6.3711   -2.0121 C   0  0  0  0  0  0  0  0  0  0  0  0
   15.3585   -6.8697   -1.1030 C   0  0  0  0  0  0  0  0  0  0  0  0
    9.2360   -2.7629   -1.3560 N   0  0  0  0  0  0  0  0  0  0  0  0
    3.8989    1.3890   -0.8330 H   0  0  0  0  0  0  0  0  0  0  0  0
    5.4094    1.9348   -1.5184 H   0  0  0  0  0  0  0  0  0  0  0  0
    5.2572    1.6115    0.2278 H   0  0  0  0  0  0  0  0  0  0  0  0
    4.8369   -0.5484   -1.9334 H   0  0  0  0  0  0  0  0  0  0  0  0
    4.8677   -0.7853   -0.1850 H   0  0  0  0  0  0  0  0  0  0  0  0
    7.4474   -0.3402   -0.2556 H   0  0  0  0  0  0  0  0  0  0  0  0
    7.3661   -0.3172   -2.0345 H   0  0  0  0  0  0  0  0  0  0  0  0
    4.9544   -4.2219   -1.7830 H   0  0  0  0  0  0  0  0  0  0  0  0
    4.3220   -2.7757    0.8364 H   0  0  0  0  0  0  0  0  0  0  0  0
    3.2349   -3.7358   -0.3009 H   0  0  0  0  0  0  0  0  0  0  0  0
    8.0103   -4.1420    0.3295 H   0  0  0  0  0  0  0  0  0  0  0  0
    7.6392   -5.0680   -1.2498 H   0  0  0  0  0  0  0  0  0  0  0  0
    6.7323   -6.6747   -0.1037 H   0  0  0  0  0  0  0  0  0  0  0  0
    5.9005   -5.6182    1.0816 H   0  0  0  0  0  0  0  0  0  0  0  0
    8.0890   -5.2089    2.0365 H   0  0  0  0  0  0  0  0  0  0  0  0
   10.3963   -4.8105    1.2578 H   0  0  0  0  0  0  0  0  0  0  0  0
    9.3924   -5.9810   -1.4640 H   0  0  0  0  0  0  0  0  0  0  0  0
   12.0048   -6.3163   -2.2695 H   0  0  0  0  0  0  0  0  0  0  0  0
   12.4446   -6.1515   -0.5644 H   0  0  0  0  0  0  0  0  0  0  0  0
   14.5922   -5.7898   -2.8252 H   0  0  0  0  0  0  0  0  0  0  0  0
   13.8952   -7.3462   -2.4663 H   0  0  0  0  0  0  0  0  0  0  0  0
   15.9366   -6.0810   -0.6092 H   0  0  0  0  0  0  0  0  0  0  0  0
   16.1120   -7.3817   -1.7458 H   0  0  0  0  0  0  0  0  0  0  0  0
   15.1076   -7.6502   -0.3687 H   0  0  0  0  0  0  0  0  0  0  0  0
  1  2  1  0  0  0  0
  1 22  1  0  0  0  0
  1 23  1  0  0  0  0
  1 24  1  0  0  0  0
  2  3  1  0  0  0  0
  2 25  1  0  0  0  0
  2 26  1  0  0  0  0
  3  4  1  0  0  0  0
  3 27  1  0  0  0  0
  3 28  1  0  0  0  0
  4  5  2  3  0  0  0
  4 21  1  0  0  0  0
  5  6  1  0  0  0  0
  5  8  1  0  0  0  0
  6  7  2  0  0  0  0
  6 29  1  0  0  0  0
  7 30  1  0  0  0  0
  7 31  1  0  0  0  0
  8  9  1  0  0  0  0
  8 32  1  0  0  0  0
  8 33  1  0  0  0  0
  9 10  1  0  0  0  0
  9 34  1  0  0  0  0
  9 35  1  0  0  0  0
 10 11  1  0  0  0  0
 10 36  1  0  0  0  0
 11 12  2  0  0  0  0
 11 13  1  0  0  0  0
 13 14  2  3  0  0  0
 13 37  1  0  0  0  0
 14 15  1  0  0  0  0
 14 38  1  0  0  0  0
 15 16  1  0  0  0  0
 15 21  2  3  0  0  0
 16 17  2  0  0  0  0
 16 18  1  0  0  0  0
 18 19  1  0  0  0  0
 18 39  1  0  0  0  0
 18 40  1  0  0  0  0
 19 20  1  0  0  0  0
 19 41  1  0  0  0  0
 19 42  1  0  0  0  0
 20 43  1  0  0  0  0
 20 44  1  0  0  0  0
 20 45  1  0  0  0  0
M  END
$$$$
