
 OpenBabel04232216453D

 53 54  0  0  0  0  0  0  0  0999 V2000
    6.1503    0.4770   -2.4716 C   0  0  0  0  0  0  0  0  0  0  0  0
    7.1769   -0.6483   -2.1742 C   0  0  0  0  0  0  0  0  0  0  0  0
    6.2848   -1.6197   -1.5834 C   0  0  0  0  0  0  0  0  0  0  0  0
    6.0050   -1.7400   -0.2625 C   0  0  0  0  0  0  0  0  0  0  0  0
    6.4456   -0.7721    0.7969 C   0  0  0  0  0  0  0  0  0  0  0  0
    5.7670   -3.1849    0.1500 C   0  0  0  0  0  0  0  0  0  0  0  0
    7.0950   -3.7359   -0.3424 C   0  0  0  0  0  0  0  0  0  0  0  0
    7.5497   -5.1361   -0.1411 C   0  0  0  0  0  0  0  0  0  0  0  0
    9.0352   -4.9309    0.0895 C   0  0  0  0  0  0  0  0  0  0  0  0
    9.8612   -6.1233   -0.2780 C   0  0  0  0  0  0  0  0  0  0  0  0
   11.2688   -5.8108    0.1084 C   0  0  0  0  0  0  0  0  0  0  0  0
   11.5571   -5.4936    1.2590 O   0  0  0  0  0  0  0  0  0  0  0  0
   12.0784   -5.6215   -1.0244 N   0  0  0  0  0  0  0  0  0  0  0  0
   12.3023   -4.2620   -1.2564 C   0  0  0  0  0  0  0  0  0  0  0  0
   11.3776   -3.6429   -2.0489 C   0  0  0  0  0  0  0  0  0  0  0  0
   11.1172   -2.2043   -2.3008 C   0  0  0  0  0  0  0  0  0  0  0  0
   12.5203   -1.6798   -2.8111 C   0  0  0  0  0  0  0  0  0  0  0  0
   13.6386   -1.3611   -1.7796 C   0  0  0  0  0  0  0  0  0  0  0  0
   13.5365   -0.3675   -1.0533 O   0  0  0  0  0  0  0  0  0  0  0  0
   14.8973   -2.2615   -1.6507 C   0  0  0  0  0  0  0  0  0  0  0  0
   14.7439   -3.5143   -0.8098 C   0  0  0  0  0  0  0  0  0  0  0  0
   13.3332   -3.7160   -0.2698 C   0  0  0  0  0  0  0  0  0  0  0  0
    9.8329   -1.6354   -2.2820 C   0  0  0  0  0  0  0  0  0  0  0  0
    8.5621   -0.6695   -2.4289 C   0  0  0  0  0  0  0  0  0  0  0  0
    5.2111    0.0639   -2.8970 H   0  0  0  0  0  0  0  0  0  0  0  0
    6.4839    1.2468   -3.1609 H   0  0  0  0  0  0  0  0  0  0  0  0
    5.8160    0.9625   -1.5389 H   0  0  0  0  0  0  0  0  0  0  0  0
    5.8522   -2.3330   -2.2814 H   0  0  0  0  0  0  0  0  0  0  0  0
    7.3349   -1.1292    1.2850 H   0  0  0  0  0  0  0  0  0  0  0  0
    6.6859    0.2284    0.3890 H   0  0  0  0  0  0  0  0  0  0  0  0
    5.6875   -0.6342    1.5549 H   0  0  0  0  0  0  0  0  0  0  0  0
    4.9019   -3.6463   -0.3383 H   0  0  0  0  0  0  0  0  0  0  0  0
    5.6695   -3.2937    1.2352 H   0  0  0  0  0  0  0  0  0  0  0  0
    7.8460   -3.0493    0.0827 H   0  0  0  0  0  0  0  0  0  0  0  0
    7.1943   -3.6347   -1.4340 H   0  0  0  0  0  0  0  0  0  0  0  0
    7.3763   -5.6922   -1.0694 H   0  0  0  0  0  0  0  0  0  0  0  0
    7.0611   -5.6392    0.6904 H   0  0  0  0  0  0  0  0  0  0  0  0
    9.1884   -4.6087    1.1274 H   0  0  0  0  0  0  0  0  0  0  0  0
    9.3942   -4.0961   -0.5293 H   0  0  0  0  0  0  0  0  0  0  0  0
    9.7621   -6.2528   -1.3736 H   0  0  0  0  0  0  0  0  0  0  0  0
    9.5284   -7.0102    0.2242 H   0  0  0  0  0  0  0  0  0  0  0  0
   11.7013   -6.1182   -1.8246 H   0  0  0  0  0  0  0  0  0  0  0  0
   10.7044   -4.2748   -2.6351 H   0  0  0  0  0  0  0  0  0  0  0  0
   12.9557   -2.4242   -3.5035 H   0  0  0  0  0  0  0  0  0  0  0  0
   12.3971   -0.7894   -3.4337 H   0  0  0  0  0  0  0  0  0  0  0  0
   15.6653   -1.6547   -1.1425 H   0  0  0  0  0  0  0  0  0  0  0  0
   15.3496   -2.4945   -2.6209 H   0  0  0  0  0  0  0  0  0  0  0  0
   15.4229   -3.4439    0.0595 H   0  0  0  0  0  0  0  0  0  0  0  0
   15.1151   -4.4108   -1.3394 H   0  0  0  0  0  0  0  0  0  0  0  0
   12.9590   -2.8176    0.2258 H   0  0  0  0  0  0  0  0  0  0  0  0
   13.4805   -4.4413    0.5463 H   0  0  0  0  0  0  0  0  0  0  0  0
   10.3421   -0.6438   -2.4016 H   0  0  0  0  0  0  0  0  0  0  0  0
    8.8353    0.2747   -2.8859 H   0  0  0  0  0  0  0  0  0  0  0  0
  1  2  1  0  0  0  0
  1 25  1  0  0  0  0
  1 26  1  0  0  0  0
  1 27  1  0  0  0  0
  2  3  1  0  0  0  0
  2 24  2  3  0  0  0
  3  4  2  3  0  0  0
  3 28  1  0  0  0  0
  4  5  1  0  0  0  0
  4  6  1  0  0  0  0
  5 29  1  0  0  0  0
  5 30  1  0  0  0  0
  5 31  1  0  0  0  0
  6  7  1  0  0  0  0
  6 32  1  0  0  0  0
  6 33  1  0  0  0  0
  7  8  1  0  0  0  0
  7 34  1  0  0  0  0
  7 35  1  0  0  0  0
  8  9  1  0  0  0  0
  8 36  1  0  0  0  0
  8 37  1  0  0  0  0
  9 10  1  0  0  0  0
  9 38  1  0  0  0  0
  9 39  1  0  0  0  0
 10 11  1  0  0  0  0
 10 40  1  0  0  0  0
 10 41  1  0  0  0  0
 11 12  2  0  0  0  0
 11 13  1  0  0  0  0
 13 14  1  0  0  0  0
 13 42  1  0  0  0  0
 14 15  2  0  0  0  0
 14 22  1  0  0  0  0
 15 16  1  0  0  0  0
 15 43  1  0  0  0  0
 16 17  1  0  0  0  0
 16 23  2  3  0  0  0
 17 18  1  0  0  0  0
 17 44  1  0  0  0  0
 17 45  1  0  0  0  0
 18 19  2  0  0  0  0
 18 20  1  0  0  0  0
 20 21  1  0  0  0  0
 20 46  1  0  0  0  0
 20 47  1  0  0  0  0
 21 22  1  0  0  0  0
 21 48  1  0  0  0  0
 21 49  1  0  0  0  0
 22 50  1  0  0  0  0
 22 51  1  0  0  0  0
 23 24  1  0  0  0  0
 23 52  1  0  0  0  0
 24 53  1  0  0  0  0
M  END
$$$$
