
 OpenBabel04232216583D

 52 51  0  0  0  0  0  0  0  0999 V2000
    4.7777    1.2741   -2.6749 N   0  0  0  0  0  0  0  0  0  0  0  0
    4.2693    0.6484   -1.4705 N   0  0  0  0  0  0  0  0  0  0  0  0
    4.8146   -0.7229   -1.3561 C   0  0  0  0  0  0  0  0  0  0  0  0
    4.4036   -1.4155   -0.0280 C   0  0  0  0  0  0  0  0  0  0  0  0
    4.8761   -2.8172    0.1341 N   0  0  0  0  0  0  0  0  0  0  0  0
    6.3033   -2.8266    0.1791 N   0  0  0  0  0  0  0  0  0  0  0  0
    6.7774   -4.1547    0.2578 N   0  0  0  0  0  0  0  0  0  0  0  0
    8.1899   -4.1530    0.2405 N   0  0  0  0  0  0  0  0  0  0  0  0
    8.6662   -5.4926    0.3453 N   0  0  0  0  0  0  0  0  0  0  0  0
   10.1327   -5.4698    0.3164 C   0  0  0  0  0  0  0  0  0  0  0  0
   10.6591   -6.9042    0.4275 C   0  0  0  0  0  0  0  0  0  0  0  0
   12.1269   -6.9097    0.4087 N   0  0  0  0  0  0  0  0  0  0  0  0
   12.5753   -8.2524    0.4904 N   0  0  0  0  0  0  0  0  0  0  0  0
   13.9927   -8.2356    0.5069 N   0  0  0  0  0  0  0  0  0  0  0  0
   14.4755   -9.6112    0.6313 C   0  0  0  0  0  0  0  0  0  0  0  0
   16.0014   -9.6129    0.6291 C   0  0  0  0  0  0  0  0  0  0  0  0
   16.5349  -11.0396    0.7361 C   0  0  0  0  0  0  0  0  0  0  0  0
   18.0610  -11.0567    0.7321 C   0  0  0  0  0  0  0  0  0  0  0  0
   18.5949  -12.4831    0.8419 C   0  0  0  0  0  0  0  0  0  0  0  0
   20.1135  -12.5030    0.8395 C   0  0  0  0  0  0  0  0  0  0  0  0
    4.5632    2.2783   -2.7015 H   0  0  0  0  0  0  0  0  0  0  0  0
    4.3878    0.8778   -3.5346 H   0  0  0  0  0  0  0  0  0  0  0  0
    3.2452    0.6416   -1.4369 H   0  0  0  0  0  0  0  0  0  0  0  0
    5.9099   -0.6764   -1.4063 H   0  0  0  0  0  0  0  0  0  0  0  0
    4.4656   -1.3303   -2.2002 H   0  0  0  0  0  0  0  0  0  0  0  0
    3.3085   -1.4419    0.0294 H   0  0  0  0  0  0  0  0  0  0  0  0
    4.7403   -0.8174    0.8291 H   0  0  0  0  0  0  0  0  0  0  0  0
    4.5451   -3.3596   -0.6644 H   0  0  0  0  0  0  0  0  0  0  0  0
    6.6409   -2.2959    0.9903 H   0  0  0  0  0  0  0  0  0  0  0  0
    6.4257   -4.7103   -0.5225 H   0  0  0  0  0  0  0  0  0  0  0  0
    8.5339   -3.5835    1.0211 H   0  0  0  0  0  0  0  0  0  0  0  0
    8.3375   -6.0505   -0.4447 H   0  0  0  0  0  0  0  0  0  0  0  0
   10.5165   -4.8747    1.1550 H   0  0  0  0  0  0  0  0  0  0  0  0
   10.4917   -5.0137   -0.6159 H   0  0  0  0  0  0  0  0  0  0  0  0
   10.2741   -7.4943   -0.4148 H   0  0  0  0  0  0  0  0  0  0  0  0
   10.2914   -7.3612    1.3558 H   0  0  0  0  0  0  0  0  0  0  0  0
   12.4669   -6.3694    1.2052 H   0  0  0  0  0  0  0  0  0  0  0  0
   12.2394   -8.7877   -0.3227 H   0  0  0  0  0  0  0  0  0  0  0  0
   14.3394   -7.6899    1.2959 H   0  0  0  0  0  0  0  0  0  0  0  0
   14.1124  -10.2162   -0.2096 H   0  0  0  0  0  0  0  0  0  0  0  0
   14.1065  -10.0650    1.5595 H   0  0  0  0  0  0  0  0  0  0  0  0
   16.3791   -9.0143    1.4682 H   0  0  0  0  0  0  0  0  0  0  0  0
   16.3735   -9.1489   -0.2940 H   0  0  0  0  0  0  0  0  0  0  0  0
   16.1567  -11.6375   -0.1021 H   0  0  0  0  0  0  0  0  0  0  0  0
   16.1619  -11.5029    1.6579 H   0  0  0  0  0  0  0  0  0  0  0  0
   18.4374  -10.4557    1.5689 H   0  0  0  0  0  0  0  0  0  0  0  0
   18.4311  -10.5938   -0.1908 H   0  0  0  0  0  0  0  0  0  0  0  0
   18.2230  -13.0855    0.0050 H   0  0  0  0  0  0  0  0  0  0  0  0
   18.2280  -12.9477    1.7646 H   0  0  0  0  0  0  0  0  0  0  0  0
   20.5086  -12.0712   -0.0856 H   0  0  0  0  0  0  0  0  0  0  0  0
   20.4793  -13.5311    0.9196 H   0  0  0  0  0  0  0  0  0  0  0  0
   20.5132  -11.9318    1.6835 H   0  0  0  0  0  0  0  0  0  0  0  0
  1  2  1  0  0  0  0
  1 21  1  0  0  0  0
  1 22  1  0  0  0  0
  2  3  1  0  0  0  0
  2 23  1  0  0  0  0
  3  4  1  0  0  0  0
  3 24  1  0  0  0  0
  3 25  1  0  0  0  0
  4  5  1  0  0  0  0
  4 26  1  0  0  0  0
  4 27  1  0  0  0  0
  5  6  1  0  0  0  0
  5 28  1  0  0  0  0
  6  7  1  0  0  0  0
  6 29  1  0  0  0  0
  7  8  1  0  0  0  0
  7 30  1  0  0  0  0
  8  9  1  0  0  0  0
  8 31  1  0  0  0  0
  9 10  1  0  0  0  0
  9 32  1  0  0  0  0
 10 11  1  0  0  0  0
 10 33  1  0  0  0  0
 10 34  1  0  0  0  0
 11 12  1  0  0  0  0
 11 35  1  0  0  0  0
 11 36  1  0  0  0  0
 12 13  1  0  0  0  0
 12 37  1  0  0  0  0
 13 14  1  0  0  0  0
 13 38  1  0  0  0  0
 14 15  1  0  0  0  0
 14 39  1  0  0  0  0
 15 16  1  0  0  0  0
 15 40  1  0  0  0  0
 15 41  1  0  0  0  0
 16 17  1  0  0  0  0
 16 42  1  0  0  0  0
 16 43  1  0  0  0  0
 17 18  1  0  0  0  0
 17 44  1  0  0  0  0
 17 45  1  0  0  0  0
 18 19  1  0  0  0  0
 18 46  1  0  0  0  0
 18 47  1  0  0  0  0
 19 20  1  0  0  0  0
 19 48  1  0  0  0  0
 19 49  1  0  0  0  0
 20 50  1  0  0  0  0
 20 51  1  0  0  0  0
 20 52  1  0  0  0  0
M  END
$$$$
