
 OpenBabel04232217003D

220219  0  0  0  0  0  0  0  0999 V2000
   10.0035    8.4362   -1.2186 O   0  0  0  0  0  0  0  0  0  0  0  0
   10.7750    7.6160   -0.7788 C   0  0  0  0  0  0  0  0  0  0  0  0
   11.5345    6.6635   -1.6569 C   0  0  0  0  0  0  0  0  0  0  0  0
   11.1738    5.2568   -1.2750 C   0  0  0  0  0  0  0  0  0  0  0  0
   11.9212    4.3038   -2.1574 C   0  0  0  0  0  0  0  0  0  0  0  0
   11.5136    3.0379   -1.7167 O   0  0  0  0  0  0  0  0  0  0  0  0
   12.2327    2.1597   -2.5675 O   0  0  0  0  0  0  0  0  0  0  0  0
   11.8981    0.8366   -2.2112 O   0  0  0  0  0  0  0  0  0  0  0  0
   12.6099   -0.0407   -3.0520 O   0  0  0  0  0  0  0  0  0  0  0  0
   12.2658   -1.3551   -2.6818 O   0  0  0  0  0  0  0  0  0  0  0  0
   12.9529   -2.2587   -3.5174 O   0  0  0  0  0  0  0  0  0  0  0  0
   12.5821   -3.5746   -3.1432 O   0  0  0  0  0  0  0  0  0  0  0  0
   13.2986   -4.4846   -3.9662 O   0  0  0  0  0  0  0  0  0  0  0  0
   14.6929   -4.2406   -3.7811 O   0  0  0  0  0  0  0  0  0  0  0  0
   15.2908   -5.1581   -4.6435 C   0  0  0  0  0  0  0  0  0  0  0  0
   16.7523   -4.9327   -4.4540 C   0  0  0  0  0  0  0  0  0  0  0  0
   17.4891   -5.8889   -5.3406 C   0  0  0  0  0  0  0  0  0  0  0  0
   18.9640   -5.6624   -5.1465 C   0  0  0  0  0  0  0  0  0  0  0  0
   19.7131   -6.6229   -6.0343 C   0  0  0  0  0  0  0  0  0  0  0  0
   21.1963   -6.4094   -5.8495 C   0  0  0  0  0  0  0  0  0  0  0  0
   21.9507   -7.3732   -6.7377 C   0  0  0  0  0  0  0  0  0  0  0  0
   23.4390   -7.1661   -6.5560 C   0  0  0  0  0  0  0  0  0  0  0  0
   24.1980   -8.1286   -7.4458 C   0  0  0  0  0  0  0  0  0  0  0  0
   25.6885   -7.9241   -7.2638 C   0  0  0  0  0  0  0  0  0  0  0  0
   26.4498   -8.8867   -8.1537 C   0  0  0  0  0  0  0  0  0  0  0  0
   27.9413   -8.6814   -7.9736 C   0  0  0  0  0  0  0  0  0  0  0  0
   28.7033   -9.6440   -8.8636 C   0  0  0  0  0  0  0  0  0  0  0  0
   30.1951   -9.4390   -8.6839 C   0  0  0  0  0  0  0  0  0  0  0  0
   30.9573  -10.4017   -9.5739 C   0  0  0  0  0  0  0  0  0  0  0  0
   32.4492  -10.1969   -9.3944 C   0  0  0  0  0  0  0  0  0  0  0  0
   33.2114  -11.1597  -10.2845 C   0  0  0  0  0  0  0  0  0  0  0  0
   34.7033  -10.9547  -10.1047 C   0  0  0  0  0  0  0  0  0  0  0  0
   35.4659  -11.9160  -10.9962 C   0  0  0  0  0  0  0  0  0  0  0  0
   36.9578  -11.7109  -10.8164 C   0  0  0  0  0  0  0  0  0  0  0  0
   37.7203  -12.6723  -11.7079 C   0  0  0  0  0  0  0  0  0  0  0  0
   39.2123  -12.4673  -11.5283 C   0  0  0  0  0  0  0  0  0  0  0  0
   39.9747  -13.4300  -12.4183 C   0  0  0  0  0  0  0  0  0  0  0  0
   41.4667  -13.2265  -12.2372 C   0  0  0  0  0  0  0  0  0  0  0  0
   42.2291  -14.1906  -13.1257 C   0  0  0  0  0  0  0  0  0  0  0  0
   43.7211  -13.9884  -12.9430 C   0  0  0  0  0  0  0  0  0  0  0  0
   44.4835  -14.9538  -13.8301 C   0  0  0  0  0  0  0  0  0  0  0  0
   45.9755  -14.7530  -13.6460 C   0  0  0  0  0  0  0  0  0  0  0  0
   46.7379  -15.7184  -14.5330 C   0  0  0  0  0  0  0  0  0  0  0  0
   48.2299  -15.5176  -14.3489 C   0  0  0  0  0  0  0  0  0  0  0  0
   48.9924  -16.4830  -15.2359 C   0  0  0  0  0  0  0  0  0  0  0  0
   50.4843  -16.2822  -15.0518 C   0  0  0  0  0  0  0  0  0  0  0  0
   51.2468  -17.2476  -15.9388 C   0  0  0  0  0  0  0  0  0  0  0  0
   52.7387  -17.0481  -15.7532 C   0  0  0  0  0  0  0  0  0  0  0  0
   53.5012  -18.0149  -16.6388 C   0  0  0  0  0  0  0  0  0  0  0  0
   54.9931  -17.8141  -16.4546 C   0  0  0  0  0  0  0  0  0  0  0  0
   55.7556  -18.7809  -17.3402 C   0  0  0  0  0  0  0  0  0  0  0  0
   57.2475  -18.5814  -17.1546 C   0  0  0  0  0  0  0  0  0  0  0  0
   58.0100  -19.5469  -18.0416 C   0  0  0  0  0  0  0  0  0  0  0  0
   59.5019  -19.3460  -17.8575 C   0  0  0  0  0  0  0  0  0  0  0  0
   60.2644  -20.3128  -18.7431 C   0  0  0  0  0  0  0  0  0  0  0  0
   61.7563  -20.1106  -18.5604 C   0  0  0  0  0  0  0  0  0  0  0  0
   62.5188  -21.0787  -19.4445 C   0  0  0  0  0  0  0  0  0  0  0  0
   64.0107  -20.8765  -19.2619 C   0  0  0  0  0  0  0  0  0  0  0  0
   64.7732  -21.8460  -20.1444 C   0  0  0  0  0  0  0  0  0  0  0  0
   66.2651  -21.6438  -19.9618 C   0  0  0  0  0  0  0  0  0  0  0  0
   67.0275  -22.6134  -20.8444 C   0  0  0  0  0  0  0  0  0  0  0  0
   68.5195  -22.4112  -20.6617 C   0  0  0  0  0  0  0  0  0  0  0  0
   69.2818  -23.3807  -21.5443 C   0  0  0  0  0  0  0  0  0  0  0  0
   70.7738  -23.1786  -21.3617 C   0  0  0  0  0  0  0  0  0  0  0  0
   71.5361  -24.1481  -22.2443 C   0  0  0  0  0  0  0  0  0  0  0  0
   73.0281  -23.9459  -22.0617 C   0  0  0  0  0  0  0  0  0  0  0  0
   73.7907  -24.9154  -22.9442 C   0  0  0  0  0  0  0  0  0  0  0  0
   75.2826  -24.7131  -22.7615 C   0  0  0  0  0  0  0  0  0  0  0  0
   76.0453  -25.6812  -23.6455 C   0  0  0  0  0  0  0  0  0  0  0  0
   77.5373  -25.4790  -23.4629 C   0  0  0  0  0  0  0  0  0  0  0  0
   78.3000  -26.4472  -24.3470 C   0  0  0  0  0  0  0  0  0  0  0  0
   79.7923  -26.2454  -24.1647 C   0  0  0  0  0  0  0  0  0  0  0  0
   80.5555  -27.2136  -25.0489 C   0  0  0  0  0  0  0  0  0  0  0  0
   82.0486  -27.0123  -24.8670 C   0  0  0  0  0  0  0  0  0  0  0  0
   82.8132  -27.9794  -25.7528 C   0  0  0  0  0  0  0  0  0  0  0  0
   84.3080  -27.7799  -25.5727 C   0  0  0  0  0  0  0  0  0  0  0  0
   85.0751  -28.7478  -26.4593 C   0  0  0  0  0  0  0  0  0  0  0  0
   86.5725  -28.5512  -26.2791 C   0  0  0  0  0  0  0  0  0  0  0  0
   87.3513  -29.5147  -27.1644 C   0  0  0  0  0  0  0  0  0  0  0  0
   88.8440  -29.3164  -26.9825 C   0  0  0  0  0  0  0  0  0  0  0  0
   10.9716    7.5279    0.3081 H   0  0  0  0  0  0  0  0  0  0  0  0
   12.6090    6.8286   -1.5312 H   0  0  0  0  0  0  0  0  0  0  0  0
   11.2696    6.8502   -2.7010 H   0  0  0  0  0  0  0  0  0  0  0  0
   10.0946    5.0729   -1.3709 H   0  0  0  0  0  0  0  0  0  0  0  0
   11.4128    5.0451   -0.2238 H   0  0  0  0  0  0  0  0  0  0  0  0
   13.0075    4.3988   -2.0409 H   0  0  0  0  0  0  0  0  0  0  0  0
   11.6582    4.4261   -3.2155 H   0  0  0  0  0  0  0  0  0  0  0  0
   14.9744   -4.9621   -5.6759 H   0  0  0  0  0  0  0  0  0  0  0  0
   14.9901   -6.1731   -4.3564 H   0  0  0  0  0  0  0  0  0  0  0  0
   17.0158   -5.0755   -3.3973 H   0  0  0  0  0  0  0  0  0  0  0  0
   17.0012   -3.8891   -4.6890 H   0  0  0  0  0  0  0  0  0  0  0  0
   17.2051   -5.7239   -6.3871 H   0  0  0  0  0  0  0  0  0  0  0  0
   17.2176   -6.9207   -5.0858 H   0  0  0  0  0  0  0  0  0  0  0  0
   19.2330   -5.8200   -4.0945 H   0  0  0  0  0  0  0  0  0  0  0  0
   19.2210   -4.6256   -5.3967 H   0  0  0  0  0  0  0  0  0  0  0  0
   19.4314   -6.4600   -7.0821 H   0  0  0  0  0  0  0  0  0  0  0  0
   19.4413   -7.6551   -5.7808 H   0  0  0  0  0  0  0  0  0  0  0  0
   21.4690   -6.5681   -4.7988 H   0  0  0  0  0  0  0  0  0  0  0  0
   21.4596   -5.3747   -6.1015 H   0  0  0  0  0  0  0  0  0  0  0  0
   21.6718   -7.2116   -7.7864 H   0  0  0  0  0  0  0  0  0  0  0  0
   21.6791   -8.4056   -6.4847 H   0  0  0  0  0  0  0  0  0  0  0  0
   23.7132   -7.3275   -5.5062 H   0  0  0  0  0  0  0  0  0  0  0  0
   23.7057   -6.1318   -6.8062 H   0  0  0  0  0  0  0  0  0  0  0  0
   23.9216   -7.9653   -8.4948 H   0  0  0  0  0  0  0  0  0  0  0  0
   23.9272   -9.1619   -7.1958 H   0  0  0  0  0  0  0  0  0  0  0  0
   25.9629   -8.0868   -6.2142 H   0  0  0  0  0  0  0  0  0  0  0  0
   25.9573   -6.8902   -7.5132 H   0  0  0  0  0  0  0  0  0  0  0  0
   26.1733   -8.7246   -9.2028 H   0  0  0  0  0  0  0  0  0  0  0  0
   26.1809   -9.9202   -7.9030 H   0  0  0  0  0  0  0  0  0  0  0  0
   28.2172   -8.8432   -6.9243 H   0  0  0  0  0  0  0  0  0  0  0  0
   28.2095   -7.6476   -8.2241 H   0  0  0  0  0  0  0  0  0  0  0  0
   28.4270   -9.4820   -9.9128 H   0  0  0  0  0  0  0  0  0  0  0  0
   28.4347  -10.6776   -8.6130 H   0  0  0  0  0  0  0  0  0  0  0  0
   30.4712   -9.6008   -7.6346 H   0  0  0  0  0  0  0  0  0  0  0  0
   30.4635   -8.4052   -8.9344 H   0  0  0  0  0  0  0  0  0  0  0  0
   30.6809  -10.2398  -10.6231 H   0  0  0  0  0  0  0  0  0  0  0  0
   30.6886  -11.4354   -9.3233 H   0  0  0  0  0  0  0  0  0  0  0  0
   32.7254  -10.3589   -8.3452 H   0  0  0  0  0  0  0  0  0  0  0  0
   32.7178   -9.1633   -9.6449 H   0  0  0  0  0  0  0  0  0  0  0  0
   32.9351  -10.9979  -11.3337 H   0  0  0  0  0  0  0  0  0  0  0  0
   32.9429  -12.1934  -10.0338 H   0  0  0  0  0  0  0  0  0  0  0  0
   34.9796  -11.1181   -9.0558 H   0  0  0  0  0  0  0  0  0  0  0  0
   34.9716   -9.9206  -10.3538 H   0  0  0  0  0  0  0  0  0  0  0  0
   35.1895  -11.7528  -12.0452 H   0  0  0  0  0  0  0  0  0  0  0  0
   35.1976  -12.9501  -10.7470 H   0  0  0  0  0  0  0  0  0  0  0  0
   37.2342  -11.8741   -9.7674 H   0  0  0  0  0  0  0  0  0  0  0  0
   37.2261  -10.6768  -11.0656 H   0  0  0  0  0  0  0  0  0  0  0  0
   37.4439  -12.5090  -12.7569 H   0  0  0  0  0  0  0  0  0  0  0  0
   37.4520  -13.7063  -11.4587 H   0  0  0  0  0  0  0  0  0  0  0  0
   39.4885  -12.6292  -10.4790 H   0  0  0  0  0  0  0  0  0  0  0  0
   39.4808  -11.4336  -11.7787 H   0  0  0  0  0  0  0  0  0  0  0  0
   39.6995  -13.2673  -13.4677 H   0  0  0  0  0  0  0  0  0  0  0  0
   39.7051  -14.4637  -12.1687 H   0  0  0  0  0  0  0  0  0  0  0  0
   41.7416  -13.3879  -11.1875 H   0  0  0  0  0  0  0  0  0  0  0  0
   41.7365  -12.1932  -12.4881 H   0  0  0  0  0  0  0  0  0  0  0  0
   41.9553  -14.0282  -14.1755 H   0  0  0  0  0  0  0  0  0  0  0  0
   41.9582  -15.2238  -12.8757 H   0  0  0  0  0  0  0  0  0  0  0  0
   43.9947  -14.1493  -11.8930 H   0  0  0  0  0  0  0  0  0  0  0  0
   43.9922  -12.9555  -13.1944 H   0  0  0  0  0  0  0  0  0  0  0  0
   44.2110  -14.7919  -14.8803 H   0  0  0  0  0  0  0  0  0  0  0  0
   44.2114  -15.9866  -13.5797 H   0  0  0  0  0  0  0  0  0  0  0  0
   46.2480  -14.9149  -12.5958 H   0  0  0  0  0  0  0  0  0  0  0  0
   46.2477  -13.7202  -13.8963 H   0  0  0  0  0  0  0  0  0  0  0  0
   46.4654  -15.5565  -15.5832 H   0  0  0  0  0  0  0  0  0  0  0  0
   46.4657  -16.7512  -14.2826 H   0  0  0  0  0  0  0  0  0  0  0  0
   48.5025  -15.6795  -13.2987 H   0  0  0  0  0  0  0  0  0  0  0  0
   48.5021  -14.4848  -14.5993 H   0  0  0  0  0  0  0  0  0  0  0  0
   48.7198  -16.3211  -16.2861 H   0  0  0  0  0  0  0  0  0  0  0  0
   48.7201  -17.5158  -14.9855 H   0  0  0  0  0  0  0  0  0  0  0  0
   50.7568  -16.4441  -14.0016 H   0  0  0  0  0  0  0  0  0  0  0  0
   50.7566  -15.2494  -15.3022 H   0  0  0  0  0  0  0  0  0  0  0  0
   50.9753  -17.0847  -16.9892 H   0  0  0  0  0  0  0  0  0  0  0  0
   50.9735  -18.2803  -15.6894 H   0  0  0  0  0  0  0  0  0  0  0  0
   53.0100  -17.2096  -14.7026 H   0  0  0  0  0  0  0  0  0  0  0  0
   53.0122  -16.0158  -16.0040 H   0  0  0  0  0  0  0  0  0  0  0  0
   53.2289  -17.8544  -17.6893 H   0  0  0  0  0  0  0  0  0  0  0  0
   53.2287  -19.0473  -16.3870 H   0  0  0  0  0  0  0  0  0  0  0  0
   55.2654  -17.9746  -15.4041 H   0  0  0  0  0  0  0  0  0  0  0  0
   55.2656  -16.7817  -16.7064 H   0  0  0  0  0  0  0  0  0  0  0  0
   55.4843  -18.6194  -18.3908 H   0  0  0  0  0  0  0  0  0  0  0  0
   55.4821  -19.8133  -17.0894 H   0  0  0  0  0  0  0  0  0  0  0  0
   57.5190  -18.7443  -16.1043 H   0  0  0  0  0  0  0  0  0  0  0  0
   57.5208  -17.5487  -17.4040 H   0  0  0  0  0  0  0  0  0  0  0  0
   57.7375  -19.3849  -19.0919 H   0  0  0  0  0  0  0  0  0  0  0  0
   57.7377  -20.5796  -17.7912 H   0  0  0  0  0  0  0  0  0  0  0  0
   59.7743  -19.5065  -16.8070 H   0  0  0  0  0  0  0  0  0  0  0  0
   59.7743  -18.3136  -18.1093 H   0  0  0  0  0  0  0  0  0  0  0  0
   59.9910  -20.1533  -19.7934 H   0  0  0  0  0  0  0  0  0  0  0  0
   59.9930  -21.3452  -18.4903 H   0  0  0  0  0  0  0  0  0  0  0  0
   62.0295  -20.2687  -17.5098 H   0  0  0  0  0  0  0  0  0  0  0  0
   62.0279  -19.0785  -18.8146 H   0  0  0  0  0  0  0  0  0  0  0  0
   62.2456  -20.9207  -20.4951 H   0  0  0  0  0  0  0  0  0  0  0  0
   62.2472  -22.1108  -19.1904 H   0  0  0  0  0  0  0  0  0  0  0  0
   64.2837  -21.0333  -18.2110 H   0  0  0  0  0  0  0  0  0  0  0  0
   64.2825  -19.8449  -19.5174 H   0  0  0  0  0  0  0  0  0  0  0  0
   64.5002  -21.6894  -21.1953 H   0  0  0  0  0  0  0  0  0  0  0  0
   64.5014  -22.8777  -19.8889 H   0  0  0  0  0  0  0  0  0  0  0  0
   66.5381  -21.8005  -18.9109 H   0  0  0  0  0  0  0  0  0  0  0  0
   66.5369  -20.6122  -20.2173 H   0  0  0  0  0  0  0  0  0  0  0  0
   66.7546  -22.4566  -21.8952 H   0  0  0  0  0  0  0  0  0  0  0  0
   66.7557  -23.6450  -20.5889 H   0  0  0  0  0  0  0  0  0  0  0  0
   68.7924  -22.5679  -19.6108 H   0  0  0  0  0  0  0  0  0  0  0  0
   68.7913  -21.3795  -20.9172 H   0  0  0  0  0  0  0  0  0  0  0  0
   69.0088  -23.2240  -22.5952 H   0  0  0  0  0  0  0  0  0  0  0  0
   69.0100  -24.4123  -21.2888 H   0  0  0  0  0  0  0  0  0  0  0  0
   71.0467  -23.3352  -20.3108 H   0  0  0  0  0  0  0  0  0  0  0  0
   71.0456  -22.1469  -21.6173 H   0  0  0  0  0  0  0  0  0  0  0  0
   71.2631  -23.9914  -23.2952 H   0  0  0  0  0  0  0  0  0  0  0  0
   71.2644  -25.1797  -21.9888 H   0  0  0  0  0  0  0  0  0  0  0  0
   73.3009  -24.1028  -21.0108 H   0  0  0  0  0  0  0  0  0  0  0  0
   73.2999  -22.9143  -22.3171 H   0  0  0  0  0  0  0  0  0  0  0  0
   73.5178  -24.7586  -23.9951 H   0  0  0  0  0  0  0  0  0  0  0  0
   73.5189  -25.9470  -22.6887 H   0  0  0  0  0  0  0  0  0  0  0  0
   75.5557  -24.8712  -21.7109 H   0  0  0  0  0  0  0  0  0  0  0  0
   75.5541  -23.6810  -23.0157 H   0  0  0  0  0  0  0  0  0  0  0  0
   75.7721  -25.5230  -24.6961 H   0  0  0  0  0  0  0  0  0  0  0  0
   75.7737  -26.7132  -23.3914 H   0  0  0  0  0  0  0  0  0  0  0  0
   77.8103  -25.6371  -22.4123 H   0  0  0  0  0  0  0  0  0  0  0  0
   77.8087  -24.4469  -23.7170 H   0  0  0  0  0  0  0  0  0  0  0  0
   78.0265  -26.2890  -25.3976 H   0  0  0  0  0  0  0  0  0  0  0  0
   78.0282  -27.4792  -24.0928 H   0  0  0  0  0  0  0  0  0  0  0  0
   80.0651  -26.4034  -23.1140 H   0  0  0  0  0  0  0  0  0  0  0  0
   80.0635  -25.2132  -24.4188 H   0  0  0  0  0  0  0  0  0  0  0  0
   80.2818  -27.0551  -26.0993 H   0  0  0  0  0  0  0  0  0  0  0  0
   80.2833  -28.2455  -24.7949 H   0  0  0  0  0  0  0  0  0  0  0  0
   82.3212  -27.1714  -23.8164 H   0  0  0  0  0  0  0  0  0  0  0  0
   82.3191  -25.9795  -25.1196 H   0  0  0  0  0  0  0  0  0  0  0  0
   82.5384  -27.8193  -26.8027 H   0  0  0  0  0  0  0  0  0  0  0  0
   82.5404  -29.0112  -25.4996 H   0  0  0  0  0  0  0  0  0  0  0  0
   84.5799  -27.9386  -24.5218 H   0  0  0  0  0  0  0  0  0  0  0  0
   84.5779  -26.7469  -25.8246 H   0  0  0  0  0  0  0  0  0  0  0  0
   84.7998  -28.5861  -27.5087 H   0  0  0  0  0  0  0  0  0  0  0  0
   84.7998  -29.7791  -26.2065 H   0  0  0  0  0  0  0  0  0  0  0  0
   86.8408  -28.7109  -25.2274 H   0  0  0  0  0  0  0  0  0  0  0  0
   86.8406  -27.5168  -26.5273 H   0  0  0  0  0  0  0  0  0  0  0  0
   87.0847  -29.3541  -28.2155 H   0  0  0  0  0  0  0  0  0  0  0  0
   87.0850  -30.5486  -26.9152 H   0  0  0  0  0  0  0  0  0  0  0  0
   89.1345  -28.2951  -27.2490 H   0  0  0  0  0  0  0  0  0  0  0  0
   89.3990  -30.0099  -27.6197 H   0  0  0  0  0  0  0  0  0  0  0  0
   89.1348  -29.4954  -25.9424 H   0  0  0  0  0  0  0  0  0  0  0  0
  1  2  2  0  0  0  0
  2  3  1  0  0  0  0
  2 81  1  0  0  0  0
  3  4  1  0  0  0  0
  3 82  1  0  0  0  0
  3 83  1  0  0  0  0
  4  5  1  0  0  0  0
  4 84  1  0  0  0  0
  4 85  1  0  0  0  0
  5  6  1  0  0  0  0
  5 86  1  0  0  0  0
  5 87  1  0  0  0  0
  6  7  1  0  0  0  0
  7  8  1  0  0  0  0
  8  9  1  0  0  0  0
  9 10  1  0  0  0  0
 10 11  1  0  0  0  0
 11 12  1  0  0  0  0
 12 13  1  0  0  0  0
 13 14  1  0  0  0  0
 14 15  1  0  0  0  0
 15 16  1  0  0  0  0
 15 88  1  0  0  0  0
 15 89  1  0  0  0  0
 16 17  1  0  0  0  0
 16 90  1  0  0  0  0
 16 91  1  0  0  0  0
 17 18  1  0  0  0  0
 17 92  1  0  0  0  0
 17 93  1  0  0  0  0
 18 19  1  0  0  0  0
 18 94  1  0  0  0  0
 18 95  1  0  0  0  0
 19 20  1  0  0  0  0
 19 96  1  0  0  0  0
 19 97  1  0  0  0  0
 20 21  1  0  0  0  0
 20 98  1  0  0  0  0
 20 99  1  0  0  0  0
 21 22  1  0  0  0  0
 21100  1  0  0  0  0
 21101  1  0  0  0  0
 22 23  1  0  0  0  0
 22102  1  0  0  0  0
 22103  1  0  0  0  0
 23 24  1  0  0  0  0
 23104  1  0  0  0  0
 23105  1  0  0  0  0
 24 25  1  0  0  0  0
 24106  1  0  0  0  0
 24107  1  0  0  0  0
 25 26  1  0  0  0  0
 25108  1  0  0  0  0
 25109  1  0  0  0  0
 26 27  1  0  0  0  0
 26110  1  0  0  0  0
 26111  1  0  0  0  0
 27 28  1  0  0  0  0
 27112  1  0  0  0  0
 27113  1  0  0  0  0
 28 29  1  0  0  0  0
 28114  1  0  0  0  0
 28115  1  0  0  0  0
 29 30  1  0  0  0  0
 29116  1  0  0  0  0
 29117  1  0  0  0  0
 30 31  1  0  0  0  0
 30118  1  0  0  0  0
 30119  1  0  0  0  0
 31 32  1  0  0  0  0
 31120  1  0  0  0  0
 31121  1  0  0  0  0
 32 33  1  0  0  0  0
 32122  1  0  0  0  0
 32123  1  0  0  0  0
 33 34  1  0  0  0  0
 33124  1  0  0  0  0
 33125  1  0  0  0  0
 34 35  1  0  0  0  0
 34126  1  0  0  0  0
 34127  1  0  0  0  0
 35 36  1  0  0  0  0
 35128  1  0  0  0  0
 35129  1  0  0  0  0
 36 37  1  0  0  0  0
 36130  1  0  0  0  0
 36131  1  0  0  0  0
 37 38  1  0  0  0  0
 37132  1  0  0  0  0
 37133  1  0  0  0  0
 38 39  1  0  0  0  0
 38134  1  0  0  0  0
 38135  1  0  0  0  0
 39 40  1  0  0  0  0
 39136  1  0  0  0  0
 39137  1  0  0  0  0
 40 41  1  0  0  0  0
 40138  1  0  0  0  0
 40139  1  0  0  0  0
 41 42  1  0  0  0  0
 41140  1  0  0  0  0
 41141  1  0  0  0  0
 42 43  1  0  0  0  0
 42142  1  0  0  0  0
 42143  1  0  0  0  0
 43 44  1  0  0  0  0
 43144  1  0  0  0  0
 43145  1  0  0  0  0
 44 45  1  0  0  0  0
 44146  1  0  0  0  0
 44147  1  0  0  0  0
 45 46  1  0  0  0  0
 45148  1  0  0  0  0
 45149  1  0  0  0  0
 46 47  1  0  0  0  0
 46150  1  0  0  0  0
 46151  1  0  0  0  0
 47 48  1  0  0  0  0
 47152  1  0  0  0  0
 47153  1  0  0  0  0
 48 49  1  0  0  0  0
 48154  1  0  0  0  0
 48155  1  0  0  0  0
 49 50  1  0  0  0  0
 49156  1  0  0  0  0
 49157  1  0  0  0  0
 50 51  1  0  0  0  0
 50158  1  0  0  0  0
 50159  1  0  0  0  0
 51 52  1  0  0  0  0
 51160  1  0  0  0  0
 51161  1  0  0  0  0
 52 53  1  0  0  0  0
 52162  1  0  0  0  0
 52163  1  0  0  0  0
 53 54  1  0  0  0  0
 53164  1  0  0  0  0
 53165  1  0  0  0  0
 54 55  1  0  0  0  0
 54166  1  0  0  0  0
 54167  1  0  0  0  0
 55 56  1  0  0  0  0
 55168  1  0  0  0  0
 55169  1  0  0  0  0
 56 57  1  0  0  0  0
 56170  1  0  0  0  0
 56171  1  0  0  0  0
 57 58  1  0  0  0  0
 57172  1  0  0  0  0
 57173  1  0  0  0  0
 58 59  1  0  0  0  0
 58174  1  0  0  0  0
 58175  1  0  0  0  0
 59 60  1  0  0  0  0
 59176  1  0  0  0  0
 59177  1  0  0  0  0
 60 61  1  0  0  0  0
 60178  1  0  0  0  0
 60179  1  0  0  0  0
 61 62  1  0  0  0  0
 61180  1  0  0  0  0
 61181  1  0  0  0  0
 62 63  1  0  0  0  0
 62182  1  0  0  0  0
 62183  1  0  0  0  0
 63 64  1  0  0  0  0
 63184  1  0  0  0  0
 63185  1  0  0  0  0
 64 65  1  0  0  0  0
 64186  1  0  0  0  0
 64187  1  0  0  0  0
 65 66  1  0  0  0  0
 65188  1  0  0  0  0
 65189  1  0  0  0  0
 66 67  1  0  0  0  0
 66190  1  0  0  0  0
 66191  1  0  0  0  0
 67 68  1  0  0  0  0
 67192  1  0  0  0  0
 67193  1  0  0  0  0
 68 69  1  0  0  0  0
 68194  1  0  0  0  0
 68195  1  0  0  0  0
 69 70  1  0  0  0  0
 69196  1  0  0  0  0
 69197  1  0  0  0  0
 70 71  1  0  0  0  0
 70198  1  0  0  0  0
 70199  1  0  0  0  0
 71 72  1  0  0  0  0
 71200  1  0  0  0  0
 71201  1  0  0  0  0
 72 73  1  0  0  0  0
 72202  1  0  0  0  0
 72203  1  0  0  0  0
 73 74  1  0  0  0  0
 73204  1  0  0  0  0
 73205  1  0  0  0  0
 74 75  1  0  0  0  0
 74206  1  0  0  0  0
 74207  1  0  0  0  0
 75 76  1  0  0  0  0
 75208  1  0  0  0  0
 75209  1  0  0  0  0
 76 77  1  0  0  0  0
 76210  1  0  0  0  0
 76211  1  0  0  0  0
 77 78  1  0  0  0  0
 77212  1  0  0  0  0
 77213  1  0  0  0  0
 78 79  1  0  0  0  0
 78214  1  0  0  0  0
 78215  1  0  0  0  0
 79 80  1  0  0  0  0
 79216  1  0  0  0  0
 79217  1  0  0  0  0
 80218  1  0  0  0  0
 80219  1  0  0  0  0
 80220  1  0  0  0  0
M  END
$$$$
