
 OpenBabel04232216453D

 45 46  0  0  0  0  0  0  0  0999 V2000
    3.9405   -1.7854   -2.0270 C   0  0  0  0  0  0  0  0  0  0  0  0
    4.9015   -0.6304   -2.3301 C   0  0  0  0  0  0  0  0  0  0  0  0
    4.2068    0.6001   -1.8946 C   0  0  0  0  0  0  0  0  0  0  0  0
    4.6106    1.3859   -0.8854 C   0  0  0  0  0  0  0  0  0  0  0  0
    5.0696    0.8199    0.4332 C   0  0  0  0  0  0  0  0  0  0  0  0
    5.1819    2.5843   -1.5113 C   0  0  0  0  0  0  0  0  0  0  0  0
    4.2147    3.3228   -2.4405 C   0  0  0  0  0  0  0  0  0  0  0  0
    6.5288    2.6075   -1.6756 C   0  0  0  0  0  0  0  0  0  0  0  0
    7.5795    1.8114   -0.8532 C   0  0  0  0  0  0  0  0  0  0  0  0
    7.0863    3.0896   -2.9456 C   0  0  0  0  0  0  0  0  0  0  0  0
    6.3394    2.9333   -4.2934 C   0  0  0  0  0  0  0  0  0  0  0  0
    8.4139    3.2423   -2.9478 C   0  0  0  0  0  0  0  0  0  0  0  0
    9.0449    2.7460   -4.1123 C   0  0  0  0  0  0  0  0  0  0  0  0
    9.4494    3.6181   -5.0460 C   0  0  0  0  0  0  0  0  0  0  0  0
    9.1488    5.0801   -5.1125 C   0  0  0  0  0  0  0  0  0  0  0  0
    9.9367    2.7344   -6.1193 C   0  0  0  0  0  0  0  0  0  0  0  0
   10.5200    3.1020   -7.1132 O   0  0  0  0  0  0  0  0  0  0  0  0
    9.6508    1.3361   -5.7300 C   0  0  0  0  0  0  0  0  0  0  0  0
    8.9332    1.3460   -4.5814 C   0  0  0  0  0  0  0  0  0  0  0  0
    8.3187    0.0924   -3.9747 C   0  0  0  0  0  0  0  0  0  0  0  0
    7.2941   -0.6243   -3.4013 C   0  0  0  0  0  0  0  0  0  0  0  0
    6.0426   -0.8963   -2.8822 N   0  0  0  0  0  0  0  0  0  0  0  0
    2.9767   -1.6042   -2.5256 H   0  0  0  0  0  0  0  0  0  0  0  0
    3.7339   -1.7968   -0.9471 H   0  0  0  0  0  0  0  0  0  0  0  0
    4.3314   -2.7530   -2.3289 H   0  0  0  0  0  0  0  0  0  0  0  0
    3.4622    0.9322   -2.6077 H   0  0  0  0  0  0  0  0  0  0  0  0
    4.2032    0.5325    1.0426 H   0  0  0  0  0  0  0  0  0  0  0  0
    5.6311    1.5369    1.0445 H   0  0  0  0  0  0  0  0  0  0  0  0
    5.6632   -0.0953    0.3072 H   0  0  0  0  0  0  0  0  0  0  0  0
    3.2624    3.5231   -1.9522 H   0  0  0  0  0  0  0  0  0  0  0  0
    3.9707    2.7230   -3.3304 H   0  0  0  0  0  0  0  0  0  0  0  0
    4.6199    4.2660   -2.8086 H   0  0  0  0  0  0  0  0  0  0  0  0
    7.2281    1.0797   -0.1448 H   0  0  0  0  0  0  0  0  0  0  0  0
    8.2020    2.5025   -0.2741 H   0  0  0  0  0  0  0  0  0  0  0  0
    8.2453    1.2103   -1.4846 H   0  0  0  0  0  0  0  0  0  0  0  0
    5.6335    2.1026   -4.2996 H   0  0  0  0  0  0  0  0  0  0  0  0
    6.9553    2.7088   -5.1709 H   0  0  0  0  0  0  0  0  0  0  0  0
    5.8700    3.8805   -4.5706 H   0  0  0  0  0  0  0  0  0  0  0  0
    9.0500    3.3464   -2.0737 H   0  0  0  0  0  0  0  0  0  0  0  0
    8.4961    5.4038   -4.2827 H   0  0  0  0  0  0  0  0  0  0  0  0
    8.5675    5.3027   -6.0148 H   0  0  0  0  0  0  0  0  0  0  0  0
   10.0325    5.7182   -5.0760 H   0  0  0  0  0  0  0  0  0  0  0  0
    9.9187    0.5264   -6.3881 H   0  0  0  0  0  0  0  0  0  0  0  0
    9.1665   -0.6069   -4.1050 H   0  0  0  0  0  0  0  0  0  0  0  0
    7.7218   -1.6278   -3.2854 H   0  0  0  0  0  0  0  0  0  0  0  0
  1  2  1  0  0  0  0
  1 23  1  0  0  0  0
  1 24  1  0  0  0  0
  1 25  1  0  0  0  0
  2  3  1  0  0  0  0
  2 22  2  3  0  0  0
  3  4  2  3  0  0  0
  3 26  1  0  0  0  0
  4  5  1  0  0  0  0
  4  6  1  0  0  0  0
  5 27  1  0  0  0  0
  5 28  1  0  0  0  0
  5 29  1  0  0  0  0
  6  7  1  0  0  0  0
  6  8  2  3  0  0  0
  7 30  1  0  0  0  0
  7 31  1  0  0  0  0
  7 32  1  0  0  0  0
  8  9  1  0  0  0  0
  8 10  1  0  0  0  0
  9 33  1  0  0  0  0
  9 34  1  0  0  0  0
  9 35  1  0  0  0  0
 10 11  1  0  0  0  0
 10 12  2  3  0  0  0
 11 36  1  0  0  0  0
 11 37  1  0  0  0  0
 11 38  1  0  0  0  0
 12 13  1  0  0  0  0
 12 39  1  0  0  0  0
 13 14  2  0  0  0  0
 13 19  1  0  0  0  0
 14 15  1  0  0  0  0
 14 16  1  0  0  0  0
 15 40  1  0  0  0  0
 15 41  1  0  0  0  0
 15 42  1  0  0  0  0
 16 17  2  0  0  0  0
 16 18  1  0  0  0  0
 18 19  2  0  0  0  0
 18 43  1  0  0  0  0
 19 20  1  0  0  0  0
 20 21  2  3  0  0  0
 20 44  1  0  0  0  0
 21 22  1  0  0  0  0
 21 45  1  0  0  0  0
M  END
$$$$
