
 OpenBabel04232216413D

221220  0  0  0  0  0  0  0  0999 V2000
   24.6571   -7.5603   -4.4018 C   0  0  0  0  0  0  0  0  0  0  0  0
   24.1559   -8.5893   -5.1092 C   0  0  0  0  0  0  0  0  0  0  0  0
   24.5812   -9.4522   -6.3255 C   0  0  0  0  0  0  0  0  0  0  0  0
   24.0483   -9.3772   -7.7104 N   0  0  0  0  0  0  0  0  0  0  0  0
   22.7308   -9.4229   -8.2704 N   0  0  0  0  0  0  0  0  0  0  0  0
   22.4454   -8.8091   -9.5260 N   0  0  0  0  0  0  0  0  0  0  0  0
   22.8518   -9.4758  -10.6904 N   0  0  0  0  0  0  0  0  0  0  0  0
   22.6008  -10.8602  -10.4498 N   0  0  0  0  0  0  0  0  0  0  0  0
   23.3739  -11.7007  -11.2679 N   0  0  0  0  0  0  0  0  0  0  0  0
   24.8099  -11.6901  -11.0292 N   0  0  0  0  0  0  0  0  0  0  0  0
   25.1598  -12.0809   -9.6763 N   0  0  0  0  0  0  0  0  0  0  0  0
   24.7934  -13.4167   -9.3707 N   0  0  0  0  0  0  0  0  0  0  0  0
   25.1527  -13.7619   -8.0410 N   0  0  0  0  0  0  0  0  0  0  0  0
   24.5671  -12.9439   -7.0299 N   0  0  0  0  0  0  0  0  0  0  0  0
   23.1345  -12.8541   -7.1223 N   0  0  0  0  0  0  0  0  0  0  0  0
   22.6247  -11.9545   -6.0873 N   0  0  0  0  0  0  0  0  0  0  0  0
   21.6879  -10.9912   -6.6545 N   0  0  0  0  0  0  0  0  0  0  0  0
   21.2610   -9.8164   -5.7712 N   0  0  0  0  0  0  0  0  0  0  0  0
   21.6966   -8.3290   -6.0894 N   0  0  0  0  0  0  0  0  0  0  0  0
   21.0486   -7.4022   -7.0078 N   0  0  0  0  0  0  0  0  0  0  0  0
   22.0654   -6.3145   -7.4853 C   0  0  0  0  0  0  0  0  0  0  0  0
   23.5348   -6.6345   -7.3736 N   0  0  0  0  0  0  0  0  0  0  0  0
   24.4953   -6.7973   -8.4587 C   0  0  0  0  0  0  0  0  0  0  0  0
   25.9312   -6.8496   -8.0959 N   0  0  0  0  0  0  0  0  0  0  0  0
   26.6356   -7.8015   -9.0148 C   0  0  0  0  0  0  0  0  0  0  0  0
   28.1299   -7.7624   -8.8096 C   0  0  0  0  0  0  0  0  0  0  0  0
   28.8449   -8.6962   -9.7826 C   0  0  0  0  0  0  0  0  0  0  0  0
   30.3447   -8.5406   -9.5909 C   0  0  0  0  0  0  0  0  0  0  0  0
   31.1020   -9.4237  -10.5634 C   0  0  0  0  0  0  0  0  0  0  0  0
   32.5954   -9.2432  -10.3591 C   0  0  0  0  0  0  0  0  0  0  0  0
   33.3602  -10.1221  -11.3312 C   0  0  0  0  0  0  0  0  0  0  0  0
   34.8524   -9.9409  -11.1272 C   0  0  0  0  0  0  0  0  0  0  0  0
   35.6153  -10.8196  -12.1002 C   0  0  0  0  0  0  0  0  0  0  0  0
   37.1074  -10.6389  -11.8964 C   0  0  0  0  0  0  0  0  0  0  0  0
   37.8699  -11.5175  -12.8695 C   0  0  0  0  0  0  0  0  0  0  0  0
   39.3619  -11.3367  -12.6658 C   0  0  0  0  0  0  0  0  0  0  0  0
   40.1243  -12.2139  -13.6400 C   0  0  0  0  0  0  0  0  0  0  0  0
   41.6163  -12.0317  -13.4377 C   0  0  0  0  0  0  0  0  0  0  0  0
   42.3790  -12.9101  -14.4110 C   0  0  0  0  0  0  0  0  0  0  0  0
   43.8713  -12.7264  -14.2096 C   0  0  0  0  0  0  0  0  0  0  0  0
   44.6353  -13.6032  -15.1838 C   0  0  0  0  0  0  0  0  0  0  0  0
   46.1291  -13.4208  -14.9835 C   0  0  0  0  0  0  0  0  0  0  0  0
   46.8833  -14.2996  -15.9403 C   0  0  0  0  0  0  0  0  0  0  0  0
   48.3776  -14.1342  -15.7633 C   0  0  0  0  0  0  0  0  0  0  0  0
   49.1413  -15.0103  -16.7376 C   0  0  0  0  0  0  0  0  0  0  0  0
   50.6392  -14.8631  -16.4990 C   0  0  0  0  0  0  0  0  0  0  0  0
   51.4173  -15.7147  -17.5040 C   0  0  0  0  0  0  0  0  0  0  0  0
   52.9014  -15.5451  -17.3446 C   0  0  0  0  0  0  0  0  0  0  0  0
   53.6568  -16.4014  -18.2423 C   0  0  0  0  0  0  0  0  0  0  0  0
   55.1645  -16.1908  -18.0849 C   0  0  0  0  0  0  0  0  0  0  0  0
   55.9192  -17.0864  -19.0283 C   0  0  0  0  0  0  0  0  0  0  0  0
   57.4088  -16.8877  -18.8407 C   0  0  0  0  0  0  0  0  0  0  0  0
   58.1627  -17.7660  -19.8173 C   0  0  0  0  0  0  0  0  0  0  0  0
   59.6531  -17.5813  -19.6173 C   0  0  0  0  0  0  0  0  0  0  0  0
   60.4126  -18.4610  -20.5908 C   0  0  0  0  0  0  0  0  0  0  0  0
   61.9044  -18.2760  -20.3939 C   0  0  0  0  0  0  0  0  0  0  0  0
   62.6674  -19.1511  -21.3694 C   0  0  0  0  0  0  0  0  0  0  0  0
   64.1598  -18.9668  -21.1692 C   0  0  0  0  0  0  0  0  0  0  0  0
   64.9224  -19.8452  -22.1421 C   0  0  0  0  0  0  0  0  0  0  0  0
   66.4145  -19.6621  -21.9422 C   0  0  0  0  0  0  0  0  0  0  0  0
   67.1763  -20.5397  -22.9167 C   0  0  0  0  0  0  0  0  0  0  0  0
   68.6688  -20.3486  -22.7207 C   0  0  0  0  0  0  0  0  0  0  0  0
   69.4325  -21.2263  -23.6938 C   0  0  0  0  0  0  0  0  0  0  0  0
   70.9253  -21.0487  -23.4864 C   0  0  0  0  0  0  0  0  0  0  0  0
   71.6866  -21.9290  -24.4592 C   0  0  0  0  0  0  0  0  0  0  0  0
   73.1785  -21.7458  -24.2576 C   0  0  0  0  0  0  0  0  0  0  0  0
   73.9409  -22.6246  -25.2305 C   0  0  0  0  0  0  0  0  0  0  0  0
   75.4330  -22.4413  -25.0289 C   0  0  0  0  0  0  0  0  0  0  0  0
   76.1953  -23.3213  -26.0009 C   0  0  0  0  0  0  0  0  0  0  0  0
   77.6873  -23.1376  -25.7996 C   0  0  0  0  0  0  0  0  0  0  0  0
   78.4499  -24.0177  -26.7714 C   0  0  0  0  0  0  0  0  0  0  0  0
   79.9421  -23.8340  -26.5702 C   0  0  0  0  0  0  0  0  0  0  0  0
   80.7048  -24.7141  -27.5421 C   0  0  0  0  0  0  0  0  0  0  0  0
   82.1975  -24.5307  -27.3414 C   0  0  0  0  0  0  0  0  0  0  0  0
   82.9611  -25.4097  -28.3147 C   0  0  0  0  0  0  0  0  0  0  0  0
   84.4551  -25.2277  -28.1155 C   0  0  0  0  0  0  0  0  0  0  0  0
   85.2209  -26.1072  -29.0896 C   0  0  0  0  0  0  0  0  0  0  0  0
   86.7173  -25.9280  -28.8907 C   0  0  0  0  0  0  0  0  0  0  0  0
   87.4940  -26.8039  -29.8635 C   0  0  0  0  0  0  0  0  0  0  0  0
   88.9860  -26.6232  -29.6629 C   0  0  0  0  0  0  0  0  0  0  0  0
   24.0116   -7.0701   -3.6536 H   0  0  0  0  0  0  0  0  0  0  0  0
   25.6037   -7.1017   -4.6170 H   0  0  0  0  0  0  0  0  0  0  0  0
   23.2368   -8.9187   -4.6401 H   0  0  0  0  0  0  0  0  0  0  0  0
   24.5449  -10.4754   -5.9776 H   0  0  0  0  0  0  0  0  0  0  0  0
   25.6420   -9.2368   -6.4719 H   0  0  0  0  0  0  0  0  0  0  0  0
   24.6427   -9.7791   -8.4223 H   0  0  0  0  0  0  0  0  0  0  0  0
   22.0126   -9.0845   -7.6514 H   0  0  0  0  0  0  0  0  0  0  0  0
   22.6864   -7.8253   -9.5931 H   0  0  0  0  0  0  0  0  0  0  0  0
   23.8439   -9.2693  -10.7935 H   0  0  0  0  0  0  0  0  0  0  0  0
   21.5874  -11.0034  -10.5697 H   0  0  0  0  0  0  0  0  0  0  0  0
   23.1402  -11.5529  -12.2522 H   0  0  0  0  0  0  0  0  0  0  0  0
   25.1816  -10.7492  -11.1525 H   0  0  0  0  0  0  0  0  0  0  0  0
   24.6202  -11.5209   -9.0146 H   0  0  0  0  0  0  0  0  0  0  0  0
   25.2446  -14.0425  -10.0214 H   0  0  0  0  0  0  0  0  0  0  0  0
   26.1729  -13.7078   -7.9700 H   0  0  0  0  0  0  0  0  0  0  0  0
   24.9146  -12.0041   -7.2122 H   0  0  0  0  0  0  0  0  0  0  0  0
   22.7358  -13.8097   -7.1214 H   0  0  0  0  0  0  0  0  0  0  0  0
   22.2138  -12.5234   -5.3278 H   0  0  0  0  0  0  0  0  0  0  0  0
   22.0335  -10.7777   -7.5961 H   0  0  0  0  0  0  0  0  0  0  0  0
   21.6720  -10.0516   -4.8489 H   0  0  0  0  0  0  0  0  0  0  0  0
   22.6563   -8.3589   -6.4147 H   0  0  0  0  0  0  0  0  0  0  0  0
   20.6423   -7.8700   -7.8262 H   0  0  0  0  0  0  0  0  0  0  0  0
   21.8192   -5.4333   -6.8915 H   0  0  0  0  0  0  0  0  0  0  0  0
   21.8210   -6.1121   -8.5345 H   0  0  0  0  0  0  0  0  0  0  0  0
   23.9752   -6.3379   -6.5029 H   0  0  0  0  0  0  0  0  0  0  0  0
   24.2925   -6.3544   -9.4358 H   0  0  0  0  0  0  0  0  0  0  0  0
   24.3630   -7.7927   -8.7155 H   0  0  0  0  0  0  0  0  0  0  0  0
   26.1672   -7.1699   -7.1557 H   0  0  0  0  0  0  0  0  0  0  0  0
   26.3697   -7.6223  -10.0631 H   0  0  0  0  0  0  0  0  0  0  0  0
   26.3404   -8.8444   -8.8140 H   0  0  0  0  0  0  0  0  0  0  0  0
   28.3744   -8.0647   -7.7830 H   0  0  0  0  0  0  0  0  0  0  0  0
   28.4699   -6.7373   -8.9588 H   0  0  0  0  0  0  0  0  0  0  0  0
   28.5740   -8.4499  -10.8167 H   0  0  0  0  0  0  0  0  0  0  0  0
   28.5541   -9.7425   -9.6166 H   0  0  0  0  0  0  0  0  0  0  0  0
   30.6162   -8.8020   -8.5608 H   0  0  0  0  0  0  0  0  0  0  0  0
   30.6267   -7.4928   -9.7451 H   0  0  0  0  0  0  0  0  0  0  0  0
   30.8326   -9.1636  -11.5944 H   0  0  0  0  0  0  0  0  0  0  0  0
   30.8286  -10.4745  -10.4094 H   0  0  0  0  0  0  0  0  0  0  0  0
   32.8677   -9.5011   -9.3287 H   0  0  0  0  0  0  0  0  0  0  0  0
   32.8704   -8.1912  -10.5129 H   0  0  0  0  0  0  0  0  0  0  0  0
   33.0897   -9.8626  -12.3622 H   0  0  0  0  0  0  0  0  0  0  0  0
   33.0868  -11.1731  -11.1780 H   0  0  0  0  0  0  0  0  0  0  0  0
   35.1235  -10.2013  -10.0966 H   0  0  0  0  0  0  0  0  0  0  0  0
   35.1262   -8.8896  -11.2792 H   0  0  0  0  0  0  0  0  0  0  0  0
   35.3444  -10.5591  -13.1308 H   0  0  0  0  0  0  0  0  0  0  0  0
   35.3418  -11.8710  -11.9483 H   0  0  0  0  0  0  0  0  0  0  0  0
   37.3785  -10.8993  -10.8659 H   0  0  0  0  0  0  0  0  0  0  0  0
   37.3810   -9.5875  -12.0484 H   0  0  0  0  0  0  0  0  0  0  0  0
   37.5989  -11.2569  -13.9001 H   0  0  0  0  0  0  0  0  0  0  0  0
   37.5964  -12.5689  -12.7177 H   0  0  0  0  0  0  0  0  0  0  0  0
   39.6332  -11.5983  -11.6356 H   0  0  0  0  0  0  0  0  0  0  0  0
   39.6353  -10.2850  -12.8164 H   0  0  0  0  0  0  0  0  0  0  0  0
   39.8522  -11.9531  -14.6702 H   0  0  0  0  0  0  0  0  0  0  0  0
   39.8519  -13.2657  -13.4885 H   0  0  0  0  0  0  0  0  0  0  0  0
   41.8886  -12.2912  -12.4071 H   0  0  0  0  0  0  0  0  0  0  0  0
   41.8887  -10.9801  -13.5903 H   0  0  0  0  0  0  0  0  0  0  0  0
   42.1056  -12.6514  -15.4414 H   0  0  0  0  0  0  0  0  0  0  0  0
   42.1072  -13.9618  -14.2573 H   0  0  0  0  0  0  0  0  0  0  0  0
   44.1439  -12.9859  -13.1792 H   0  0  0  0  0  0  0  0  0  0  0  0
   44.1420  -11.6744  -14.3621 H   0  0  0  0  0  0  0  0  0  0  0  0
   44.3614  -13.3429  -16.2136 H   0  0  0  0  0  0  0  0  0  0  0  0
   44.3623  -14.6548  -15.0319 H   0  0  0  0  0  0  0  0  0  0  0  0
   46.4000  -13.6805  -13.9526 H   0  0  0  0  0  0  0  0  0  0  0  0
   46.3995  -12.3683  -15.1343 H   0  0  0  0  0  0  0  0  0  0  0  0
   46.6142  -14.0407  -16.9887 H   0  0  0  0  0  0  0  0  0  0  0  0
   46.6080  -15.3512  -15.8029 H   0  0  0  0  0  0  0  0  0  0  0  0
   48.6587  -14.3949  -14.7290 H   0  0  0  0  0  0  0  0  0  0  0  0
   48.6664  -13.0911  -15.9199 H   0  0  0  0  0  0  0  0  0  0  0  0
   48.8821  -14.7271  -17.7672 H   0  0  0  0  0  0  0  0  0  0  0  0
   48.8552  -16.0619  -16.6007 H   0  0  0  0  0  0  0  0  0  0  0  0
   50.8911  -15.1808  -15.4962 H   0  0  0  0  0  0  0  0  0  0  0  0
   50.9250  -13.8056  -16.6087 H   0  0  0  0  0  0  0  0  0  0  0  0
   51.1312  -15.4288  -18.5354 H   0  0  0  0  0  0  0  0  0  0  0  0
   51.1359  -16.7630  -17.3662 H   0  0  0  0  0  0  0  0  0  0  0  0
   53.2333  -15.7822  -16.2695 H   0  0  0  0  0  0  0  0  0  0  0  0
   53.1789  -14.4668  -17.4506 H   0  0  0  0  0  0  0  0  0  0  0  0
   53.3974  -16.1469  -19.3051 H   0  0  0  0  0  0  0  0  0  0  0  0
   53.4356  -17.4499  -18.1201 H   0  0  0  0  0  0  0  0  0  0  0  0
   55.4313  -16.4229  -17.0441 H   0  0  0  0  0  0  0  0  0  0  0  0
   55.4255  -15.1338  -18.2651 H   0  0  0  0  0  0  0  0  0  0  0  0
   55.6353  -16.8636  -20.0684 H   0  0  0  0  0  0  0  0  0  0  0  0
   55.6635  -18.1359  -18.8479 H   0  0  0  0  0  0  0  0  0  0  0  0
   57.6842  -17.1457  -17.8114 H   0  0  0  0  0  0  0  0  0  0  0  0
   57.6682  -15.8346  -18.9938 H   0  0  0  0  0  0  0  0  0  0  0  0
   57.8849  -17.5056  -20.8462 H   0  0  0  0  0  0  0  0  0  0  0  0
   57.8896  -18.8178  -19.6656 H   0  0  0  0  0  0  0  0  0  0  0  0
   59.9264  -17.8384  -18.5856 H   0  0  0  0  0  0  0  0  0  0  0  0
   59.9221  -16.5298  -19.7719 H   0  0  0  0  0  0  0  0  0  0  0  0
   60.1358  -18.2022  -21.6200 H   0  0  0  0  0  0  0  0  0  0  0  0
   60.1395  -19.5111  -20.4338 H   0  0  0  0  0  0  0  0  0  0  0  0
   62.1809  -18.5344  -19.3630 H   0  0  0  0  0  0  0  0  0  0  0  0
   62.1738  -17.2241  -20.5473 H   0  0  0  0  0  0  0  0  0  0  0  0
   62.3936  -18.8900  -22.3993 H   0  0  0  0  0  0  0  0  0  0  0  0
   62.3968  -20.2033  -21.2183 H   0  0  0  0  0  0  0  0  0  0  0  0
   64.4334  -19.2255  -20.1388 H   0  0  0  0  0  0  0  0  0  0  0  0
   64.4314  -17.9148  -21.3224 H   0  0  0  0  0  0  0  0  0  0  0  0
   64.6493  -19.5866  -23.1728 H   0  0  0  0  0  0  0  0  0  0  0  0
   64.6510  -20.8969  -21.9886 H   0  0  0  0  0  0  0  0  0  0  0  0
   66.6893  -19.9207  -20.9119 H   0  0  0  0  0  0  0  0  0  0  0  0
   66.6856  -18.6108  -22.0977 H   0  0  0  0  0  0  0  0  0  0  0  0
   66.8989  -20.2849  -23.9467 H   0  0  0  0  0  0  0  0  0  0  0  0
   66.9084  -21.5919  -22.7592 H   0  0  0  0  0  0  0  0  0  0  0  0
   68.9454  -20.6030  -21.6904 H   0  0  0  0  0  0  0  0  0  0  0  0
   68.9360  -19.2961  -22.8777 H   0  0  0  0  0  0  0  0  0  0  0  0
   69.1635  -20.9638  -24.7244 H   0  0  0  0  0  0  0  0  0  0  0  0
   69.1579  -22.2774  -23.5444 H   0  0  0  0  0  0  0  0  0  0  0  0
   71.1944  -21.3107  -22.4557 H   0  0  0  0  0  0  0  0  0  0  0  0
   71.2012  -19.9975  -23.6361 H   0  0  0  0  0  0  0  0  0  0  0  0
   71.4129  -21.6713  -25.4897 H   0  0  0  0  0  0  0  0  0  0  0  0
   71.4143  -22.9801  -24.3042 H   0  0  0  0  0  0  0  0  0  0  0  0
   73.4510  -22.0047  -23.2273 H   0  0  0  0  0  0  0  0  0  0  0  0
   73.4505  -20.6943  -24.4110 H   0  0  0  0  0  0  0  0  0  0  0  0
   73.6685  -22.3659  -26.2612 H   0  0  0  0  0  0  0  0  0  0  0  0
   73.6691  -23.6763  -25.0772 H   0  0  0  0  0  0  0  0  0  0  0  0
   75.7061  -22.6984  -23.9980 H   0  0  0  0  0  0  0  0  0  0  0  0
   75.7049  -21.3898  -25.1840 H   0  0  0  0  0  0  0  0  0  0  0  0
   75.9223  -23.0640  -27.0316 H   0  0  0  0  0  0  0  0  0  0  0  0
   75.9236  -24.3728  -25.8458 H   0  0  0  0  0  0  0  0  0  0  0  0
   77.9602  -23.3945  -24.7686 H   0  0  0  0  0  0  0  0  0  0  0  0
   77.9590  -22.0860  -25.9548 H   0  0  0  0  0  0  0  0  0  0  0  0
   78.1767  -23.7605  -27.8022 H   0  0  0  0  0  0  0  0  0  0  0  0
   78.1780  -25.0690  -26.6160 H   0  0  0  0  0  0  0  0  0  0  0  0
   80.2147  -24.0910  -25.5392 H   0  0  0  0  0  0  0  0  0  0  0  0
   80.2134  -22.7826  -26.7254 H   0  0  0  0  0  0  0  0  0  0  0  0
   80.4314  -24.4568  -28.5728 H   0  0  0  0  0  0  0  0  0  0  0  0
   80.4328  -25.7654  -27.3867 H   0  0  0  0  0  0  0  0  0  0  0  0
   82.4700  -24.7889  -26.3106 H   0  0  0  0  0  0  0  0  0  0  0  0
   82.4684  -23.4789  -27.4951 H   0  0  0  0  0  0  0  0  0  0  0  0
   82.6868  -25.1508  -29.3448 H   0  0  0  0  0  0  0  0  0  0  0  0
   82.6884  -26.4609  -28.1605 H   0  0  0  0  0  0  0  0  0  0  0  0
   84.7269  -25.4855  -27.0844 H   0  0  0  0  0  0  0  0  0  0  0  0
   84.7253  -24.1756  -28.2685 H   0  0  0  0  0  0  0  0  0  0  0  0
   84.9461  -25.8467  -30.1191 H   0  0  0  0  0  0  0  0  0  0  0  0
   84.9459  -27.1579  -28.9358 H   0  0  0  0  0  0  0  0  0  0  0  0
   86.9856  -26.1867  -27.8589 H   0  0  0  0  0  0  0  0  0  0  0  0
   86.9857  -24.8748  -29.0399 H   0  0  0  0  0  0  0  0  0  0  0  0
   87.2269  -26.5440  -30.8945 H   0  0  0  0  0  0  0  0  0  0  0  0
   87.2268  -27.8564  -29.7131 H   0  0  0  0  0  0  0  0  0  0  0  0
   89.2754  -25.5809  -29.8309 H   0  0  0  0  0  0  0  0  0  0  0  0
   89.5415  -27.2529  -30.3625 H   0  0  0  0  0  0  0  0  0  0  0  0
   89.2754  -26.8995  -28.6439 H   0  0  0  0  0  0  0  0  0  0  0  0
  1  2  2  0  0  0  0
  1 81  1  0  0  0  0
  1 82  1  0  0  0  0
  2  3  1  0  0  0  0
  2 83  1  0  0  0  0
  3  4  1  0  0  0  0
  3 84  1  0  0  0  0
  3 85  1  0  0  0  0
  4  5  1  0  0  0  0
  4 86  1  0  0  0  0
  5  6  1  0  0  0  0
  5 87  1  0  0  0  0
  6  7  1  0  0  0  0
  6 88  1  0  0  0  0
  7  8  1  0  0  0  0
  7 89  1  0  0  0  0
  8  9  1  0  0  0  0
  8 90  1  0  0  0  0
  9 10  1  0  0  0  0
  9 91  1  0  0  0  0
 10 11  1  0  0  0  0
 10 92  1  0  0  0  0
 11 12  1  0  0  0  0
 11 93  1  0  0  0  0
 12 13  1  0  0  0  0
 12 94  1  0  0  0  0
 13 14  1  0  0  0  0
 13 95  1  0  0  0  0
 14 15  1  0  0  0  0
 14 96  1  0  0  0  0
 15 16  1  0  0  0  0
 15 97  1  0  0  0  0
 16 17  1  0  0  0  0
 16 98  1  0  0  0  0
 17 18  1  0  0  0  0
 17 99  1  0  0  0  0
 18 19  1  0  0  0  0
 18100  1  0  0  0  0
 19 20  1  0  0  0  0
 19101  1  0  0  0  0
 20 21  1  0  0  0  0
 20102  1  0  0  0  0
 21 22  1  0  0  0  0
 21103  1  0  0  0  0
 21104  1  0  0  0  0
 22 23  1  0  0  0  0
 22105  1  0  0  0  0
 23 24  1  0  0  0  0
 23106  1  0  0  0  0
 23107  1  0  0  0  0
 24 25  1  0  0  0  0
 24108  1  0  0  0  0
 25 26  1  0  0  0  0
 25109  1  0  0  0  0
 25110  1  0  0  0  0
 26 27  1  0  0  0  0
 26111  1  0  0  0  0
 26112  1  0  0  0  0
 27 28  1  0  0  0  0
 27113  1  0  0  0  0
 27114  1  0  0  0  0
 28 29  1  0  0  0  0
 28115  1  0  0  0  0
 28116  1  0  0  0  0
 29 30  1  0  0  0  0
 29117  1  0  0  0  0
 29118  1  0  0  0  0
 30 31  1  0  0  0  0
 30119  1  0  0  0  0
 30120  1  0  0  0  0
 31 32  1  0  0  0  0
 31121  1  0  0  0  0
 31122  1  0  0  0  0
 32 33  1  0  0  0  0
 32123  1  0  0  0  0
 32124  1  0  0  0  0
 33 34  1  0  0  0  0
 33125  1  0  0  0  0
 33126  1  0  0  0  0
 34 35  1  0  0  0  0
 34127  1  0  0  0  0
 34128  1  0  0  0  0
 35 36  1  0  0  0  0
 35129  1  0  0  0  0
 35130  1  0  0  0  0
 36 37  1  0  0  0  0
 36131  1  0  0  0  0
 36132  1  0  0  0  0
 37 38  1  0  0  0  0
 37133  1  0  0  0  0
 37134  1  0  0  0  0
 38 39  1  0  0  0  0
 38135  1  0  0  0  0
 38136  1  0  0  0  0
 39 40  1  0  0  0  0
 39137  1  0  0  0  0
 39138  1  0  0  0  0
 40 41  1  0  0  0  0
 40139  1  0  0  0  0
 40140  1  0  0  0  0
 41 42  1  0  0  0  0
 41141  1  0  0  0  0
 41142  1  0  0  0  0
 42 43  1  0  0  0  0
 42143  1  0  0  0  0
 42144  1  0  0  0  0
 43 44  1  0  0  0  0
 43145  1  0  0  0  0
 43146  1  0  0  0  0
 44 45  1  0  0  0  0
 44147  1  0  0  0  0
 44148  1  0  0  0  0
 45 46  1  0  0  0  0
 45149  1  0  0  0  0
 45150  1  0  0  0  0
 46 47  1  0  0  0  0
 46151  1  0  0  0  0
 46152  1  0  0  0  0
 47 48  1  0  0  0  0
 47153  1  0  0  0  0
 47154  1  0  0  0  0
 48 49  1  0  0  0  0
 48155  1  0  0  0  0
 48156  1  0  0  0  0
 49 50  1  0  0  0  0
 49157  1  0  0  0  0
 49158  1  0  0  0  0
 50 51  1  0  0  0  0
 50159  1  0  0  0  0
 50160  1  0  0  0  0
 51 52  1  0  0  0  0
 51161  1  0  0  0  0
 51162  1  0  0  0  0
 52 53  1  0  0  0  0
 52163  1  0  0  0  0
 52164  1  0  0  0  0
 53 54  1  0  0  0  0
 53165  1  0  0  0  0
 53166  1  0  0  0  0
 54 55  1  0  0  0  0
 54167  1  0  0  0  0
 54168  1  0  0  0  0
 55 56  1  0  0  0  0
 55169  1  0  0  0  0
 55170  1  0  0  0  0
 56 57  1  0  0  0  0
 56171  1  0  0  0  0
 56172  1  0  0  0  0
 57 58  1  0  0  0  0
 57173  1  0  0  0  0
 57174  1  0  0  0  0
 58 59  1  0  0  0  0
 58175  1  0  0  0  0
 58176  1  0  0  0  0
 59 60  1  0  0  0  0
 59177  1  0  0  0  0
 59178  1  0  0  0  0
 60 61  1  0  0  0  0
 60179  1  0  0  0  0
 60180  1  0  0  0  0
 61 62  1  0  0  0  0
 61181  1  0  0  0  0
 61182  1  0  0  0  0
 62 63  1  0  0  0  0
 62183  1  0  0  0  0
 62184  1  0  0  0  0
 63 64  1  0  0  0  0
 63185  1  0  0  0  0
 63186  1  0  0  0  0
 64 65  1  0  0  0  0
 64187  1  0  0  0  0
 64188  1  0  0  0  0
 65 66  1  0  0  0  0
 65189  1  0  0  0  0
 65190  1  0  0  0  0
 66 67  1  0  0  0  0
 66191  1  0  0  0  0
 66192  1  0  0  0  0
 67 68  1  0  0  0  0
 67193  1  0  0  0  0
 67194  1  0  0  0  0
 68 69  1  0  0  0  0
 68195  1  0  0  0  0
 68196  1  0  0  0  0
 69 70  1  0  0  0  0
 69197  1  0  0  0  0
 69198  1  0  0  0  0
 70 71  1  0  0  0  0
 70199  1  0  0  0  0
 70200  1  0  0  0  0
 71 72  1  0  0  0  0
 71201  1  0  0  0  0
 71202  1  0  0  0  0
 72 73  1  0  0  0  0
 72203  1  0  0  0  0
 72204  1  0  0  0  0
 73 74  1  0  0  0  0
 73205  1  0  0  0  0
 73206  1  0  0  0  0
 74 75  1  0  0  0  0
 74207  1  0  0  0  0
 74208  1  0  0  0  0
 75 76  1  0  0  0  0
 75209  1  0  0  0  0
 75210  1  0  0  0  0
 76 77  1  0  0  0  0
 76211  1  0  0  0  0
 76212  1  0  0  0  0
 77 78  1  0  0  0  0
 77213  1  0  0  0  0
 77214  1  0  0  0  0
 78 79  1  0  0  0  0
 78215  1  0  0  0  0
 78216  1  0  0  0  0
 79 80  1  0  0  0  0
 79217  1  0  0  0  0
 79218  1  0  0  0  0
 80219  1  0  0  0  0
 80220  1  0  0  0  0
 80221  1  0  0  0  0
M  END
$$$$
