
 OpenBabel04232216433D

 19 19  0  0  0  0  0  0  0  0999 V2000
   -0.3912   -1.4153   -0.0016 C   0  0  0  0  0  0  0  0  0  0  0  0
   -1.4102   -0.5508   -0.0008 C   0  0  0  0  0  0  0  0  0  0  0  0
   -1.4394    0.8089    0.0001 N   0  0  0  0  0  0  0  0  0  0  0  0
   -0.3630    1.5120   -0.0001 C   0  0  0  0  0  0  0  0  0  0  0  0
    1.0755    1.1767   -0.0013 C   0  0  0  0  0  0  0  0  0  0  0  0
    1.6501   -0.0390   -0.0016 C   0  0  0  0  0  0  0  0  0  0  0  0
    3.1701   -0.0330   -0.0011 C   0  0  0  0  0  0  0  0  0  0  0  0
    0.9962   -1.2839   -0.0021 N   0  0  0  0  0  0  0  0  0  0  0  0
    1.7519   -2.5570   -0.0036 C   0  0  0  0  0  0  0  0  0  0  0  0
   -0.6828   -2.4658   -0.0019 H   0  0  0  0  0  0  0  0  0  0  0  0
   -2.4103   -0.9845   -0.0006 H   0  0  0  0  0  0  0  0  0  0  0  0
   -0.5331    2.6042    0.0010 H   0  0  0  0  0  0  0  0  0  0  0  0
    1.6948    2.0692   -0.0013 H   0  0  0  0  0  0  0  0  0  0  0  0
    3.5936    0.9779    0.0003 H   0  0  0  0  0  0  0  0  0  0  0  0
    3.5553   -0.5329   -0.8960 H   0  0  0  0  0  0  0  0  0  0  0  0
    3.5541   -0.5346    0.8936 H   0  0  0  0  0  0  0  0  0  0  0  0
    2.8377   -2.4437   -0.0043 H   0  0  0  0  0  0  0  0  0  0  0  0
    1.4938   -3.1421   -0.8940 H   0  0  0  0  0  0  0  0  0  0  0  0
    1.4949   -3.1437    0.8859 H   0  0  0  0  0  0  0  0  0  0  0  0
  1  2  2  0  0  0  0
  1  8  1  0  0  0  0
  1 10  1  0  0  0  0
  2  3  1  0  0  0  0
  2 11  1  0  0  0  0
  3  4  2  0  0  0  0
  4  5  1  0  0  0  0
  4 12  1  0  0  0  0
  5  6  2  0  0  0  0
  5 13  1  0  0  0  0
  6  7  1  0  0  0  0
  6  8  1  0  0  0  0
  7 14  1  0  0  0  0
  7 15  1  0  0  0  0
  7 16  1  0  0  0  0
  8  9  1  0  0  0  0
  9 17  1  0  0  0  0
  9 18  1  0  0  0  0
  9 19  1  0  0  0  0
M  END
$$$$
