
 OpenBabel04232216573D

237236  0  0  1  0  0  0  0  0999 V2000
    0.8653    3.0655   -6.5935 C   0  0  0  0  0  0  0  0  0  0  0  0
    2.2876    3.0489   -6.6101 O   0  0  0  0  0  0  0  0  0  0  0  0
    2.8010    3.1485   -5.2878 C   0  0  0  0  0  0  0  0  0  0  0  0
    4.3224    3.0939   -5.3147 C   0  0  0  0  0  0  0  0  0  0  0  0
    4.8426    3.1370   -3.8809 C   0  0  0  0  0  0  0  0  0  0  0  0
    6.3636    3.1586   -3.8167 C   0  0  0  0  0  0  0  0  0  0  0  0
    6.9094    3.3248   -2.3749 C   0  0  3  0  0  0  0  0  0  0  0  0
    6.4512    2.1810   -1.4428 C   0  0  0  0  0  0  0  0  0  0  0  0
    6.8850    2.3135    0.0263 C   0  0  0  0  0  0  0  0  0  0  0  0
    6.3853    3.5777    0.7332 C   0  0  0  0  0  0  0  0  0  0  0  0
    4.8593    3.6805    0.7561 C   0  0  0  0  0  0  0  0  0  0  0  0
    4.3940    4.9353    1.4729 C   0  0  0  0  0  0  0  0  0  0  0  0
    8.4451    3.3946   -2.3887 C   0  0  0  0  0  0  0  0  0  0  0  0
    8.9805    4.5719   -3.1851 C   0  0  0  0  0  0  0  0  0  0  0  0
   10.4971    4.5735   -3.1500 C   0  0  0  0  0  0  0  0  0  0  0  0
   11.0072    5.7382   -3.9746 C   0  0  0  0  0  0  0  0  0  0  0  0
   12.5205    5.7444   -3.9780 C   0  0  0  0  0  0  0  0  0  0  0  0
   13.0177    6.9136   -4.8038 C   0  0  0  0  0  0  0  0  0  0  0  0
   14.5319    6.9262   -4.8024 C   0  0  0  0  0  0  0  0  0  0  0  0
   15.0353    8.0953   -5.6243 C   0  0  0  0  0  0  0  0  0  0  0  0
   16.5506    8.1025   -5.6210 C   0  0  0  0  0  0  0  0  0  0  0  0
   17.0588    9.2729   -6.4387 C   0  0  0  0  0  0  0  0  0  0  0  0
   18.5746    9.2791   -6.4356 C   0  0  0  0  0  0  0  0  0  0  0  0
   19.0837   10.4502   -7.2528 C   0  0  0  0  0  0  0  0  0  0  0  0
   20.5998   10.4554   -7.2515 C   0  0  0  0  0  0  0  0  0  0  0  0
   21.1098   11.6276   -8.0668 C   0  0  0  0  0  0  0  0  0  0  0  0
   22.6261   11.6343   -8.0633 C   0  0  0  0  0  0  0  0  0  0  0  0
   23.1363   12.8068   -8.8786 C   0  0  0  0  0  0  0  0  0  0  0  0
   24.6527   12.8147   -8.8746 C   0  0  0  0  0  0  0  0  0  0  0  0
   25.1624   13.9864   -9.6914 C   0  0  0  0  0  0  0  0  0  0  0  0
   26.6789   13.9948   -9.6878 C   0  0  0  0  0  0  0  0  0  0  0  0
   27.1886   15.1666  -10.5046 C   0  0  0  0  0  0  0  0  0  0  0  0
   28.7051   15.1740  -10.5023 C   0  0  0  0  0  0  0  0  0  0  0  0
   29.2150   16.3466  -11.3177 C   0  0  0  0  0  0  0  0  0  0  0  0
   30.7316   16.3529  -11.3170 C   0  0  0  0  0  0  0  0  0  0  0  0
   31.2416   17.5265  -12.1310 C   0  0  0  0  0  0  0  0  0  0  0  0
   32.7583   17.5316  -12.1319 C   0  0  0  0  0  0  0  0  0  0  0  0
   33.2683   18.7044  -12.9471 C   0  0  0  0  0  0  0  0  0  0  0  0
   34.7849   18.7086  -12.9495 C   0  0  0  0  0  0  0  0  0  0  0  0
   35.2946   19.8811  -13.7645 C   0  0  0  0  0  0  0  0  0  0  0  0
   36.8116   19.8854  -13.7677 C   0  0  0  0  0  0  0  0  0  0  0  0
   37.3218   21.0579  -14.5831 C   0  0  0  0  0  0  0  0  0  0  0  0
   38.8376   21.0609  -14.5864 C   0  0  0  0  0  0  0  0  0  0  0  0
   39.3499   22.2331  -15.4031 C   0  0  0  0  0  0  0  0  0  0  0  0
   40.8651   22.2355  -15.4092 C   0  0  0  0  0  0  0  0  0  0  0  0
   41.3744   23.4064  -16.2257 C   0  0  0  0  0  0  0  0  0  0  0  0
   42.8915   23.4082  -16.2326 C   0  0  0  0  0  0  0  0  0  0  0  0
   43.4011   24.5766  -17.0546 C   0  0  0  0  0  0  0  0  0  0  0  0
   44.9178   24.5783  -17.0596 C   0  0  0  0  0  0  0  0  0  0  0  0
   45.4284   25.7480  -17.8792 C   0  0  0  0  0  0  0  0  0  0  0  0
   46.9451   25.7492  -17.8843 C   0  0  0  0  0  0  0  0  0  0  0  0
   47.4556   26.9181  -18.7047 C   0  0  0  0  0  0  0  0  0  0  0  0
   48.9722   26.9192  -18.7109 C   0  0  0  0  0  0  0  0  0  0  0  0
   49.4816   28.0888  -19.5309 C   0  0  0  0  0  0  0  0  0  0  0  0
   50.9981   28.0907  -19.5373 C   0  0  0  0  0  0  0  0  0  0  0  0
   51.5068   29.2612  -20.3562 C   0  0  0  0  0  0  0  0  0  0  0  0
   53.0236   29.2626  -20.3638 C   0  0  0  0  0  0  0  0  0  0  0  0
   53.5323   30.4334  -21.1830 C   0  0  0  0  0  0  0  0  0  0  0  0
   55.0485   30.4338  -21.1913 C   0  0  0  0  0  0  0  0  0  0  0  0
   55.5568   31.6042  -22.0105 C   0  0  0  0  0  0  0  0  0  0  0  0
   57.0737   31.6055  -22.0165 C   0  0  0  0  0  0  0  0  0  0  0  0
   57.5833   32.7745  -22.8381 C   0  0  0  0  0  0  0  0  0  0  0  0
   59.0999   32.7754  -22.8442 C   0  0  0  0  0  0  0  0  0  0  0  0
   59.6114   33.9440  -23.6641 C   0  0  0  0  0  0  0  0  0  0  0  0
   61.1284   33.9431  -23.6681 C   0  0  0  0  0  0  0  0  0  0  0  0
   61.6422   35.1113  -24.4870 C   0  0  0  0  0  0  0  0  0  0  0  0
   63.1589   35.1108  -24.4925 C   0  0  0  0  0  0  0  0  0  0  0  0
   63.6703   36.2781  -25.3125 C   0  0  0  0  0  0  0  0  0  0  0  0
   65.1874   36.2799  -25.3206 C   0  0  0  0  0  0  0  0  0  0  0  0
   65.6943   37.4515  -26.1425 C   0  0  0  0  0  0  0  0  0  0  0  0
   67.2128   37.4542  -26.1556 C   0  0  0  0  0  0  0  0  0  0  0  0
   67.7237   38.6219  -26.9778 C   0  0  0  0  0  0  0  0  0  0  0  0
   69.2433   38.6255  -26.9923 C   0  0  0  0  0  0  0  0  0  0  0  0
   69.7598   39.7936  -27.8189 C   0  0  0  0  0  0  0  0  0  0  0  0
   71.2792   39.7996  -27.8272 C   0  0  0  0  0  0  0  0  0  0  0  0
   71.8037   40.9695  -28.6497 C   0  0  0  0  0  0  0  0  0  0  0  0
   73.3269   40.9734  -28.6578 C   0  0  0  0  0  0  0  0  0  0  0  0
   73.8657   42.1401  -29.4791 C   0  0  0  0  0  0  0  0  0  0  0  0
   75.3848   42.1406  -29.4869 C   0  0  0  0  0  0  0  0  0  0  0  0
    0.5038    2.9887   -7.6217 H   0  0  0  0  0  0  0  0  0  0  0  0
    0.4999    4.0019   -6.1597 H   0  0  0  0  0  0  0  0  0  0  0  0
    0.4820    2.2149   -6.0210 H   0  0  0  0  0  0  0  0  0  0  0  0
    2.4121    2.3205   -4.6828 H   0  0  0  0  0  0  0  0  0  0  0  0
    2.4743    4.0954   -4.8416 H   0  0  0  0  0  0  0  0  0  0  0  0
    4.7154    3.9302   -5.9052 H   0  0  0  0  0  0  0  0  0  0  0  0
    4.6576    2.1797   -5.8198 H   0  0  0  0  0  0  0  0  0  0  0  0
    4.4541    2.2619   -3.3521 H   0  0  0  0  0  0  0  0  0  0  0  0
    4.4513    4.0294   -3.3768 H   0  0  0  0  0  0  0  0  0  0  0  0
    6.6970    3.9941   -4.4372 H   0  0  0  0  0  0  0  0  0  0  0  0
    6.7737    2.2439   -4.2672 H   0  0  0  0  0  0  0  0  0  0  0  0
    6.5218    4.2765   -1.9892 H   0  0  0  0  0  0  0  0  0  0  0  0
    6.8340    1.2282   -1.8317 H   0  0  0  0  0  0  0  0  0  0  0  0
    5.3617    2.0915   -1.4594 H   0  0  0  0  0  0  0  0  0  0  0  0
    7.9772    2.2710    0.1053 H   0  0  0  0  0  0  0  0  0  0  0  0
    6.5217    1.4345    0.5720 H   0  0  0  0  0  0  0  0  0  0  0  0
    6.8147    4.4695    0.2630 H   0  0  0  0  0  0  0  0  0  0  0  0
    6.7599    3.5654    1.7645 H   0  0  0  0  0  0  0  0  0  0  0  0
    4.4376    2.7985    1.2518 H   0  0  0  0  0  0  0  0  0  0  0  0
    4.4603    3.7039   -0.2633 H   0  0  0  0  0  0  0  0  0  0  0  0
    4.7167    4.9343    2.5182 H   0  0  0  0  0  0  0  0  0  0  0  0
    3.3014    4.9964    1.4515 H   0  0  0  0  0  0  0  0  0  0  0  0
    4.7931    5.8316    0.9872 H   0  0  0  0  0  0  0  0  0  0  0  0
    8.8529    2.4575   -2.7883 H   0  0  0  0  0  0  0  0  0  0  0  0
    8.8288    3.4969   -1.3686 H   0  0  0  0  0  0  0  0  0  0  0  0
    8.5931    5.5098   -2.7691 H   0  0  0  0  0  0  0  0  0  0  0  0
    8.6651    4.5198   -4.2309 H   0  0  0  0  0  0  0  0  0  0  0  0
   10.8815    3.6300   -3.5575 H   0  0  0  0  0  0  0  0  0  0  0  0
   10.8560    4.6532   -2.1168 H   0  0  0  0  0  0  0  0  0  0  0  0
   10.6276    6.6813   -3.5634 H   0  0  0  0  0  0  0  0  0  0  0  0
   10.6339    5.6601   -5.0039 H   0  0  0  0  0  0  0  0  0  0  0  0
   12.8992    4.8029   -4.3945 H   0  0  0  0  0  0  0  0  0  0  0  0
   12.8975    5.8213   -2.9507 H   0  0  0  0  0  0  0  0  0  0  0  0
   12.6333    7.8549   -4.3916 H   0  0  0  0  0  0  0  0  0  0  0  0
   12.6433    6.8332   -5.8321 H   0  0  0  0  0  0  0  0  0  0  0  0
   14.9140    5.9847   -5.2159 H   0  0  0  0  0  0  0  0  0  0  0  0
   14.9039    7.0038   -3.7733 H   0  0  0  0  0  0  0  0  0  0  0  0
   14.6541    9.0367   -5.2095 H   0  0  0  0  0  0  0  0  0  0  0  0
   14.6622    8.0188   -6.6531 H   0  0  0  0  0  0  0  0  0  0  0  0
   16.9301    7.1611   -6.0375 H   0  0  0  0  0  0  0  0  0  0  0  0
   16.9224    8.1750   -4.5914 H   0  0  0  0  0  0  0  0  0  0  0  0
   16.6791   10.2137   -6.0214 H   0  0  0  0  0  0  0  0  0  0  0  0
   16.6862    9.2002   -7.4679 H   0  0  0  0  0  0  0  0  0  0  0  0
   18.9537    8.3380   -6.8527 H   0  0  0  0  0  0  0  0  0  0  0  0
   18.9466    9.3510   -5.4060 H   0  0  0  0  0  0  0  0  0  0  0  0
   18.7054   11.3910   -6.8343 H   0  0  0  0  0  0  0  0  0  0  0  0
   18.7102   10.3791   -8.2818 H   0  0  0  0  0  0  0  0  0  0  0  0
   20.9776    9.5149   -7.6711 H   0  0  0  0  0  0  0  0  0  0  0  0
   20.9729   10.5247   -6.2222 H   0  0  0  0  0  0  0  0  0  0  0  0
   20.7304   12.5679   -7.6482 H   0  0  0  0  0  0  0  0  0  0  0  0
   20.7379   11.5573   -9.0965 H   0  0  0  0  0  0  0  0  0  0  0  0
   23.0055   10.6940   -8.4819 H   0  0  0  0  0  0  0  0  0  0  0  0
   22.9976   11.7046   -7.0335 H   0  0  0  0  0  0  0  0  0  0  0  0
   22.7560   13.7469   -8.4603 H   0  0  0  0  0  0  0  0  0  0  0  0
   22.7650   12.7360   -9.9084 H   0  0  0  0  0  0  0  0  0  0  0  0
   25.0330   11.8741   -9.2918 H   0  0  0  0  0  0  0  0  0  0  0  0
   25.0238   12.8867   -7.8448 H   0  0  0  0  0  0  0  0  0  0  0  0
   24.7819   14.9270   -9.2743 H   0  0  0  0  0  0  0  0  0  0  0  0
   24.7910   13.9143  -10.7211 H   0  0  0  0  0  0  0  0  0  0  0  0
   27.0591   13.0542  -10.1050 H   0  0  0  0  0  0  0  0  0  0  0  0
   27.0502   14.0668   -8.6581 H   0  0  0  0  0  0  0  0  0  0  0  0
   26.8091   16.1072  -10.0866 H   0  0  0  0  0  0  0  0  0  0  0  0
   26.8163   15.0953  -11.5340 H   0  0  0  0  0  0  0  0  0  0  0  0
   29.0844   14.2337  -10.9213 H   0  0  0  0  0  0  0  0  0  0  0  0
   29.0774   15.2441   -9.4728 H   0  0  0  0  0  0  0  0  0  0  0  0
   28.8367   17.2869  -10.8979 H   0  0  0  0  0  0  0  0  0  0  0  0
   28.8418   16.2773  -12.3469 H   0  0  0  0  0  0  0  0  0  0  0  0
   31.1097   15.4131  -11.7379 H   0  0  0  0  0  0  0  0  0  0  0  0
   31.1051   16.4210  -10.2877 H   0  0  0  0  0  0  0  0  0  0  0  0
   30.8645   18.4664  -11.7093 H   0  0  0  0  0  0  0  0  0  0  0  0
   30.8672   17.4590  -13.1599 H   0  0  0  0  0  0  0  0  0  0  0  0
   33.1353   16.5914  -12.5527 H   0  0  0  0  0  0  0  0  0  0  0  0
   33.1328   17.6000  -11.1030 H   0  0  0  0  0  0  0  0  0  0  0  0
   32.8922   19.6448  -12.5256 H   0  0  0  0  0  0  0  0  0  0  0  0
   32.8928   18.6366  -13.9756 H   0  0  0  0  0  0  0  0  0  0  0  0
   35.1609   17.7682  -13.3710 H   0  0  0  0  0  0  0  0  0  0  0  0
   35.1605   18.7764  -11.9210 H   0  0  0  0  0  0  0  0  0  0  0  0
   34.9191   20.8218  -13.3431 H   0  0  0  0  0  0  0  0  0  0  0  0
   34.9191   19.8136  -14.7932 H   0  0  0  0  0  0  0  0  0  0  0  0
   37.1864   18.9438  -14.1870 H   0  0  0  0  0  0  0  0  0  0  0  0
   37.1875   19.9530  -12.7391 H   0  0  0  0  0  0  0  0  0  0  0  0
   36.9458   21.9981  -14.1618 H   0  0  0  0  0  0  0  0  0  0  0  0
   36.9456   20.9896  -15.6116 H   0  0  0  0  0  0  0  0  0  0  0  0
   39.2147   20.1201  -15.0081 H   0  0  0  0  0  0  0  0  0  0  0  0
   39.2143   21.1310  -13.5582 H   0  0  0  0  0  0  0  0  0  0  0  0
   38.9746   23.1735  -14.9822 H   0  0  0  0  0  0  0  0  0  0  0  0
   38.9708   22.1654  -16.4316 H   0  0  0  0  0  0  0  0  0  0  0  0
   41.2397   21.2941  -15.8293 H   0  0  0  0  0  0  0  0  0  0  0  0
   41.2430   22.3037  -14.3799 H   0  0  0  0  0  0  0  0  0  0  0  0
   41.0015   24.3483  -15.8049 H   0  0  0  0  0  0  0  0  0  0  0  0
   40.9968   23.3386  -17.2536 H   0  0  0  0  0  0  0  0  0  0  0  0
   43.2648   22.4651  -16.6507 H   0  0  0  0  0  0  0  0  0  0  0  0
   43.2695   23.4799  -15.2056 H   0  0  0  0  0  0  0  0  0  0  0  0
   43.0282   25.5191  -16.6348 H   0  0  0  0  0  0  0  0  0  0  0  0
   43.0227   24.5066  -18.0813 H   0  0  0  0  0  0  0  0  0  0  0  0
   45.2918   23.6359  -17.4789 H   0  0  0  0  0  0  0  0  0  0  0  0
   45.2947   24.6490  -16.0322 H   0  0  0  0  0  0  0  0  0  0  0  0
   45.0552   26.6902  -17.4593 H   0  0  0  0  0  0  0  0  0  0  0  0
   45.0507   25.6781  -18.9065 H   0  0  0  0  0  0  0  0  0  0  0  0
   47.3185   24.8067  -18.3032 H   0  0  0  0  0  0  0  0  0  0  0  0
   47.3230   25.8200  -16.8569 H   0  0  0  0  0  0  0  0  0  0  0  0
   47.0828   27.8608  -18.2853 H   0  0  0  0  0  0  0  0  0  0  0  0
   47.0774   26.8479  -19.7320 H   0  0  0  0  0  0  0  0  0  0  0  0
   49.3457   25.9770  -19.1306 H   0  0  0  0  0  0  0  0  0  0  0  0
   49.3505   26.9896  -17.6836 H   0  0  0  0  0  0  0  0  0  0  0  0
   49.1081   29.0310  -19.1111 H   0  0  0  0  0  0  0  0  0  0  0  0
   49.1033   28.0187  -20.5582 H   0  0  0  0  0  0  0  0  0  0  0  0
   51.3716   27.1490  -19.9580 H   0  0  0  0  0  0  0  0  0  0  0  0
   51.3765   28.1601  -18.5099 H   0  0  0  0  0  0  0  0  0  0  0  0
   51.1341   30.2029  -19.9348 H   0  0  0  0  0  0  0  0  0  0  0  0
   51.1278   29.1924  -21.3833 H   0  0  0  0  0  0  0  0  0  0  0  0
   53.3963   28.3209  -20.7849 H   0  0  0  0  0  0  0  0  0  0  0  0
   53.4028   29.3316  -19.3367 H   0  0  0  0  0  0  0  0  0  0  0  0
   53.1596   31.3748  -20.7614 H   0  0  0  0  0  0  0  0  0  0  0  0
   53.1523   30.3643  -22.2098 H   0  0  0  0  0  0  0  0  0  0  0  0
   55.4208   29.4921  -21.6134 H   0  0  0  0  0  0  0  0  0  0  0  0
   55.4283   30.5017  -20.1643 H   0  0  0  0  0  0  0  0  0  0  0  0
   55.1846   32.5462  -21.5886 H   0  0  0  0  0  0  0  0  0  0  0  0
   55.1783   31.5356  -23.0371 H   0  0  0  0  0  0  0  0  0  0  0  0
   57.4472   30.6628  -22.4370 H   0  0  0  0  0  0  0  0  0  0  0  0
   57.4524   31.6763  -20.9913 H   0  0  0  0  0  0  0  0  0  0  0  0
   57.2104   33.7172  -22.4188 H   0  0  0  0  0  0  0  0  0  0  0  0
   57.2052   32.7037  -23.8653 H   0  0  0  0  0  0  0  0  0  0  0  0
   59.4729   31.8324  -23.2634 H   0  0  0  0  0  0  0  0  0  0  0  0
   59.4780   32.8455  -21.8166 H   0  0  0  0  0  0  0  0  0  0  0  0
   59.2386   34.8866  -23.2451 H   0  0  0  0  0  0  0  0  0  0  0  0
   59.2346   33.8738  -24.6921 H   0  0  0  0  0  0  0  0  0  0  0  0
   61.5011   33.0003  -24.0862 H   0  0  0  0  0  0  0  0  0  0  0  0
   61.5048   34.0134  -22.6394 H   0  0  0  0  0  0  0  0  0  0  0  0
   61.2698   36.0544  -24.0685 H   0  0  0  0  0  0  0  0  0  0  0  0
   61.2650   35.0414  -25.5152 H   0  0  0  0  0  0  0  0  0  0  0  0
   63.5312   34.1666  -24.9097 H   0  0  0  0  0  0  0  0  0  0  0  0
   63.5361   35.1807  -23.4638 H   0  0  0  0  0  0  0  0  0  0  0  0
   63.2977   37.2216  -24.8934 H   0  0  0  0  0  0  0  0  0  0  0  0
   63.2938   36.2117  -26.3413 H   0  0  0  0  0  0  0  0  0  0  0  0
   65.5597   35.3374  -25.7403 H   0  0  0  0  0  0  0  0  0  0  0  0
   65.5670   36.3510  -24.2948 H   0  0  0  0  0  0  0  0  0  0  0  0
   65.3240   38.3916  -25.7249 H   0  0  0  0  0  0  0  0  0  0  0  0
   65.3150   37.3777  -27.1698 H   0  0  0  0  0  0  0  0  0  0  0  0
   67.5866   36.5102  -26.5706 H   0  0  0  0  0  0  0  0  0  0  0  0
   67.5937   37.5288  -25.1290 H   0  0  0  0  0  0  0  0  0  0  0  0
   67.3512   39.5648  -26.5598 H   0  0  0  0  0  0  0  0  0  0  0  0
   67.3411   38.5490  -28.0044 H   0  0  0  0  0  0  0  0  0  0  0  0
   69.6128   37.6806  -27.4076 H   0  0  0  0  0  0  0  0  0  0  0  0
   69.6228   38.6985  -25.9647 H   0  0  0  0  0  0  0  0  0  0  0  0
   69.3826   40.7355  -27.4038 H   0  0  0  0  0  0  0  0  0  0  0  0
   69.3795   39.7155  -28.8452 H   0  0  0  0  0  0  0  0  0  0  0  0
   71.6508   38.8555  -28.2435 H   0  0  0  0  0  0  0  0  0  0  0  0
   71.6545   39.8700  -26.7990 H   0  0  0  0  0  0  0  0  0  0  0  0
   71.4298   41.9121  -28.2308 H   0  0  0  0  0  0  0  0  0  0  0  0
   71.4246   40.8981  -29.6768 H   0  0  0  0  0  0  0  0  0  0  0  0
   73.6947   40.0271  -29.0725 H   0  0  0  0  0  0  0  0  0  0  0  0
   73.6995   41.0414  -27.6285 H   0  0  0  0  0  0  0  0  0  0  0  0
   73.5029   43.0872  -29.0632 H   0  0  0  0  0  0  0  0  0  0  0  0
   73.4956   42.0734  -30.5084 H   0  0  0  0  0  0  0  0  0  0  0  0
   75.7782   42.2324  -28.4698 H   0  0  0  0  0  0  0  0  0  0  0  0
   75.7595   42.9796  -30.0774 H   0  0  0  0  0  0  0  0  0  0  0  0
   75.7710   41.2135  -29.9221 H   0  0  0  0  0  0  0  0  0  0  0  0
  1  2  1  0  0  0  0
  1 80  1  0  0  0  0
  1 81  1  0  0  0  0
  1 82  1  0  0  0  0
  2  3  1  0  0  0  0
  3  4  1  0  0  0  0
  3 83  1  0  0  0  0
  3 84  1  0  0  0  0
  4  5  1  0  0  0  0
  4 85  1  0  0  0  0
  4 86  1  0  0  0  0
  5  6  1  0  0  0  0
  5 87  1  0  0  0  0
  5 88  1  0  0  0  0
  6  7  1  0  0  0  0
  6 89  1  0  0  0  0
  6 90  1  0  0  0  0
  7  8  1  0  0  0  0
  7 13  1  0  0  0  0
  7 91  1  0  0  0  0
  8  9  1  0  0  0  0
  8 92  1  0  0  0  0
  8 93  1  0  0  0  0
  9 10  1  0  0  0  0
  9 94  1  0  0  0  0
  9 95  1  0  0  0  0
 10 11  1  0  0  0  0
 10 96  1  0  0  0  0
 10 97  1  0  0  0  0
 11 12  1  0  0  0  0
 11 98  1  0  0  0  0
 11 99  1  0  0  0  0
 12100  1  0  0  0  0
 12101  1  0  0  0  0
 12102  1  0  0  0  0
 13 14  1  0  0  0  0
 13103  1  0  0  0  0
 13104  1  0  0  0  0
 14 15  1  0  0  0  0
 14105  1  0  0  0  0
 14106  1  0  0  0  0
 15 16  1  0  0  0  0
 15107  1  0  0  0  0
 15108  1  0  0  0  0
 16 17  1  0  0  0  0
 16109  1  0  0  0  0
 16110  1  0  0  0  0
 17 18  1  0  0  0  0
 17111  1  0  0  0  0
 17112  1  0  0  0  0
 18 19  1  0  0  0  0
 18113  1  0  0  0  0
 18114  1  0  0  0  0
 19 20  1  0  0  0  0
 19115  1  0  0  0  0
 19116  1  0  0  0  0
 20 21  1  0  0  0  0
 20117  1  0  0  0  0
 20118  1  0  0  0  0
 21 22  1  0  0  0  0
 21119  1  0  0  0  0
 21120  1  0  0  0  0
 22 23  1  0  0  0  0
 22121  1  0  0  0  0
 22122  1  0  0  0  0
 23 24  1  0  0  0  0
 23123  1  0  0  0  0
 23124  1  0  0  0  0
 24 25  1  0  0  0  0
 24125  1  0  0  0  0
 24126  1  0  0  0  0
 25 26  1  0  0  0  0
 25127  1  0  0  0  0
 25128  1  0  0  0  0
 26 27  1  0  0  0  0
 26129  1  0  0  0  0
 26130  1  0  0  0  0
 27 28  1  0  0  0  0
 27131  1  0  0  0  0
 27132  1  0  0  0  0
 28 29  1  0  0  0  0
 28133  1  0  0  0  0
 28134  1  0  0  0  0
 29 30  1  0  0  0  0
 29135  1  0  0  0  0
 29136  1  0  0  0  0
 30 31  1  0  0  0  0
 30137  1  0  0  0  0
 30138  1  0  0  0  0
 31 32  1  0  0  0  0
 31139  1  0  0  0  0
 31140  1  0  0  0  0
 32 33  1  0  0  0  0
 32141  1  0  0  0  0
 32142  1  0  0  0  0
 33 34  1  0  0  0  0
 33143  1  0  0  0  0
 33144  1  0  0  0  0
 34 35  1  0  0  0  0
 34145  1  0  0  0  0
 34146  1  0  0  0  0
 35 36  1  0  0  0  0
 35147  1  0  0  0  0
 35148  1  0  0  0  0
 36 37  1  0  0  0  0
 36149  1  0  0  0  0
 36150  1  0  0  0  0
 37 38  1  0  0  0  0
 37151  1  0  0  0  0
 37152  1  0  0  0  0
 38 39  1  0  0  0  0
 38153  1  0  0  0  0
 38154  1  0  0  0  0
 39 40  1  0  0  0  0
 39155  1  0  0  0  0
 39156  1  0  0  0  0
 40 41  1  0  0  0  0
 40157  1  0  0  0  0
 40158  1  0  0  0  0
 41 42  1  0  0  0  0
 41159  1  0  0  0  0
 41160  1  0  0  0  0
 42 43  1  0  0  0  0
 42161  1  0  0  0  0
 42162  1  0  0  0  0
 43 44  1  0  0  0  0
 43163  1  0  0  0  0
 43164  1  0  0  0  0
 44 45  1  0  0  0  0
 44165  1  0  0  0  0
 44166  1  0  0  0  0
 45 46  1  0  0  0  0
 45167  1  0  0  0  0
 45168  1  0  0  0  0
 46 47  1  0  0  0  0
 46169  1  0  0  0  0
 46170  1  0  0  0  0
 47 48  1  0  0  0  0
 47171  1  0  0  0  0
 47172  1  0  0  0  0
 48 49  1  0  0  0  0
 48173  1  0  0  0  0
 48174  1  0  0  0  0
 49 50  1  0  0  0  0
 49175  1  0  0  0  0
 49176  1  0  0  0  0
 50 51  1  0  0  0  0
 50177  1  0  0  0  0
 50178  1  0  0  0  0
 51 52  1  0  0  0  0
 51179  1  0  0  0  0
 51180  1  0  0  0  0
 52 53  1  0  0  0  0
 52181  1  0  0  0  0
 52182  1  0  0  0  0
 53 54  1  0  0  0  0
 53183  1  0  0  0  0
 53184  1  0  0  0  0
 54 55  1  0  0  0  0
 54185  1  0  0  0  0
 54186  1  0  0  0  0
 55 56  1  0  0  0  0
 55187  1  0  0  0  0
 55188  1  0  0  0  0
 56 57  1  0  0  0  0
 56189  1  0  0  0  0
 56190  1  0  0  0  0
 57 58  1  0  0  0  0
 57191  1  0  0  0  0
 57192  1  0  0  0  0
 58 59  1  0  0  0  0
 58193  1  0  0  0  0
 58194  1  0  0  0  0
 59 60  1  0  0  0  0
 59195  1  0  0  0  0
 59196  1  0  0  0  0
 60 61  1  0  0  0  0
 60197  1  0  0  0  0
 60198  1  0  0  0  0
 61 62  1  0  0  0  0
 61199  1  0  0  0  0
 61200  1  0  0  0  0
 62 63  1  0  0  0  0
 62201  1  0  0  0  0
 62202  1  0  0  0  0
 63 64  1  0  0  0  0
 63203  1  0  0  0  0
 63204  1  0  0  0  0
 64 65  1  0  0  0  0
 64205  1  0  0  0  0
 64206  1  0  0  0  0
 65 66  1  0  0  0  0
 65207  1  0  0  0  0
 65208  1  0  0  0  0
 66 67  1  0  0  0  0
 66209  1  0  0  0  0
 66210  1  0  0  0  0
 67 68  1  0  0  0  0
 67211  1  0  0  0  0
 67212  1  0  0  0  0
 68 69  1  0  0  0  0
 68213  1  0  0  0  0
 68214  1  0  0  0  0
 69 70  1  0  0  0  0
 69215  1  0  0  0  0
 69216  1  0  0  0  0
 70 71  1  0  0  0  0
 70217  1  0  0  0  0
 70218  1  0  0  0  0
 71 72  1  0  0  0  0
 71219  1  0  0  0  0
 71220  1  0  0  0  0
 72 73  1  0  0  0  0
 72221  1  0  0  0  0
 72222  1  0  0  0  0
 73 74  1  0  0  0  0
 73223  1  0  0  0  0
 73224  1  0  0  0  0
 74 75  1  0  0  0  0
 74225  1  0  0  0  0
 74226  1  0  0  0  0
 75 76  1  0  0  0  0
 75227  1  0  0  0  0
 75228  1  0  0  0  0
 76 77  1  0  0  0  0
 76229  1  0  0  0  0
 76230  1  0  0  0  0
 77 78  1  0  0  0  0
 77231  1  0  0  0  0
 77232  1  0  0  0  0
 78 79  1  0  0  0  0
 78233  1  0  0  0  0
 78234  1  0  0  0  0
 79235  1  0  0  0  0
 79236  1  0  0  0  0
 79237  1  0  0  0  0
M  END
$$$$
