
 OpenBabel04232217023D

 94 93  0  0  0  0  0  0  0  0999 V2000
   13.5731   11.2905  -11.8008 O   0  0  0  0  0  0  0  0  0  0  0  0
   12.9573    9.7611  -12.1162 S   0  0  0  0  0  0  0  0  0  0  0  0
   13.6670    8.7906  -10.7285 C   0  0  0  0  0  0  0  0  0  0  0  0
   13.2018    7.3343  -10.8541 C   0  0  0  0  0  0  0  0  0  0  0  0
   13.7354    6.4234   -9.7327 C   0  0  0  0  0  0  0  0  0  0  0  0
   13.2544    5.0359   -9.9281 N   0  0  0  0  0  0  0  0  0  0  0  0
   13.7563    4.1898   -8.8747 N   0  0  0  0  0  0  0  0  0  0  0  0
   13.2962    2.8352   -9.0247 N   0  0  0  0  0  0  0  0  0  0  0  0
   13.8085    2.0252   -7.9742 N   0  0  0  0  0  0  0  0  0  0  0  0
   13.3641    0.6631   -8.0863 N   0  0  0  0  0  0  0  0  0  0  0  0
   14.0420   -0.2414   -6.8615 S   0  0  0  0  0  0  0  0  0  0  0  0
   13.3276   -2.1364   -7.2449 S   0  0  0  0  0  0  0  0  0  0  0  0
   14.0425   -2.7503   -9.0855 S   0  0  0  0  0  0  0  0  0  0  0  0
   16.1168   -2.8037   -9.0589 S   0  0  0  0  0  0  0  0  0  0  0  0
   16.7821   -3.3835  -10.9694 S   0  0  0  0  0  0  0  0  0  0  0  0
   18.8914   -3.3834  -10.9677 S   0  0  0  0  0  0  0  0  0  0  0  0
   19.5811   -3.9860  -12.8695 S   0  0  0  0  0  0  0  0  0  0  0  0
   21.6925   -3.9823  -12.8585 S   0  0  0  0  0  0  0  0  0  0  0  0
   22.3849   -4.5841  -14.7591 S   0  0  0  0  0  0  0  0  0  0  0  0
   24.4951   -4.5802  -14.7467 S   0  0  0  0  0  0  0  0  0  0  0  0
   25.1863   -5.1819  -16.6472 S   0  0  0  0  0  0  0  0  0  0  0  0
   27.2959   -5.1780  -16.6347 S   0  0  0  0  0  0  0  0  0  0  0  0
   27.9866   -5.7796  -18.5350 S   0  0  0  0  0  0  0  0  0  0  0  0
   30.0960   -5.7756  -18.5224 S   0  0  0  0  0  0  0  0  0  0  0  0
   30.7867   -6.3773  -20.4226 S   0  0  0  0  0  0  0  0  0  0  0  0
   32.8960   -6.3733  -20.4100 S   0  0  0  0  0  0  0  0  0  0  0  0
   33.5867   -6.9749  -22.3101 S   0  0  0  0  0  0  0  0  0  0  0  0
   35.6960   -6.9709  -22.2975 S   0  0  0  0  0  0  0  0  0  0  0  0
   36.3867   -7.5725  -24.1977 S   0  0  0  0  0  0  0  0  0  0  0  0
   38.4960   -7.5685  -24.1851 S   0  0  0  0  0  0  0  0  0  0  0  0
   39.1866   -8.1701  -26.0852 S   0  0  0  0  0  0  0  0  0  0  0  0
   41.2960   -8.1661  -26.0726 S   0  0  0  0  0  0  0  0  0  0  0  0
   41.9866   -8.7678  -27.9728 S   0  0  0  0  0  0  0  0  0  0  0  0
   44.0960   -8.7638  -27.9602 S   0  0  0  0  0  0  0  0  0  0  0  0
   44.7866   -9.3654  -29.8604 S   0  0  0  0  0  0  0  0  0  0  0  0
   46.8960   -9.3614  -29.8477 S   0  0  0  0  0  0  0  0  0  0  0  0
   47.5866   -9.9630  -31.7479 S   0  0  0  0  0  0  0  0  0  0  0  0
   49.6960   -9.9590  -31.7353 S   0  0  0  0  0  0  0  0  0  0  0  0
   50.3866  -10.5607  -33.6355 S   0  0  0  0  0  0  0  0  0  0  0  0
   52.4960  -10.5567  -33.6228 S   0  0  0  0  0  0  0  0  0  0  0  0
   53.1866  -11.1583  -35.5230 S   0  0  0  0  0  0  0  0  0  0  0  0
   55.2960  -11.1543  -35.5104 S   0  0  0  0  0  0  0  0  0  0  0  0
   55.9866  -11.7559  -37.4106 S   0  0  0  0  0  0  0  0  0  0  0  0
   58.0960  -11.7519  -37.3979 S   0  0  0  0  0  0  0  0  0  0  0  0
   58.7866  -12.3535  -39.2981 S   0  0  0  0  0  0  0  0  0  0  0  0
   60.8960  -12.3495  -39.2855 S   0  0  0  0  0  0  0  0  0  0  0  0
   61.5866  -12.9512  -41.1857 S   0  0  0  0  0  0  0  0  0  0  0  0
   63.6960  -12.9472  -41.1730 S   0  0  0  0  0  0  0  0  0  0  0  0
   64.3866  -13.5488  -43.0732 S   0  0  0  0  0  0  0  0  0  0  0  0
   66.4959  -13.5448  -43.0606 S   0  0  0  0  0  0  0  0  0  0  0  0
   67.1866  -14.1464  -44.9608 S   0  0  0  0  0  0  0  0  0  0  0  0
   69.2959  -14.1424  -44.9481 S   0  0  0  0  0  0  0  0  0  0  0  0
   69.9866  -14.7440  -46.8483 S   0  0  0  0  0  0  0  0  0  0  0  0
   72.0959  -14.7400  -46.8357 S   0  0  0  0  0  0  0  0  0  0  0  0
   72.7866  -15.3417  -48.7359 S   0  0  0  0  0  0  0  0  0  0  0  0
   74.8959  -15.3377  -48.7232 S   0  0  0  0  0  0  0  0  0  0  0  0
   75.5865  -15.9393  -50.6234 S   0  0  0  0  0  0  0  0  0  0  0  0
   77.6959  -15.9353  -50.6108 S   0  0  0  0  0  0  0  0  0  0  0  0
   78.3865  -16.5369  -52.5110 S   0  0  0  0  0  0  0  0  0  0  0  0
   80.4959  -16.5329  -52.4983 S   0  0  0  0  0  0  0  0  0  0  0  0
   81.1865  -17.1346  -54.3985 S   0  0  0  0  0  0  0  0  0  0  0  0
   83.2959  -17.1306  -54.3859 S   0  0  0  0  0  0  0  0  0  0  0  0
   83.9865  -17.7322  -56.2861 S   0  0  0  0  0  0  0  0  0  0  0  0
   86.0959  -17.7282  -56.2734 S   0  0  0  0  0  0  0  0  0  0  0  0
   86.7865  -18.3298  -58.1736 S   0  0  0  0  0  0  0  0  0  0  0  0
   88.8959  -18.3258  -58.1610 S   0  0  0  0  0  0  0  0  0  0  0  0
   89.5865  -18.9274  -60.0612 S   0  0  0  0  0  0  0  0  0  0  0  0
   91.6959  -18.9234  -60.0485 S   0  0  0  0  0  0  0  0  0  0  0  0
   92.3864  -19.5251  -61.9487 S   0  0  0  0  0  0  0  0  0  0  0  0
   94.4957  -19.5210  -61.9360 S   0  0  0  0  0  0  0  0  0  0  0  0
   95.1861  -20.1226  -63.8360 S   0  0  0  0  0  0  0  0  0  0  0  0
   97.2949  -20.1185  -63.8231 S   0  0  0  0  0  0  0  0  0  0  0  0
   97.9844  -20.7199  -65.7225 S   0  0  0  0  0  0  0  0  0  0  0  0
  100.0915  -20.7154  -65.7083 S   0  0  0  0  0  0  0  0  0  0  0  0
  100.7782  -21.3163  -67.6057 S   0  0  0  0  0  0  0  0  0  0  0  0
  102.8803  -21.3098  -67.5868 S   0  0  0  0  0  0  0  0  0  0  0  0
  103.5581  -21.9091  -69.4787 S   0  0  0  0  0  0  0  0  0  0  0  0
  105.6451  -21.9197  -69.4378 S   0  0  0  0  0  0  0  0  0  0  0  0
  106.3119  -22.4515  -71.3322 S   0  0  0  0  0  0  0  0  0  0  0  0
  108.3837  -22.4867  -71.2689 S   0  0  0  0  0  0  0  0  0  0  0  0
  108.9738  -20.5494  -70.9118 S   0  0  0  0  0  0  0  0  0  0  0  0
   13.2711   11.9233  -12.4529 H   0  0  0  0  0  0  0  0  0  0  0  0
   13.3345    9.2221   -9.7779 H   0  0  0  0  0  0  0  0  0  0  0  0
   14.7608    8.8506  -10.7665 H   0  0  0  0  0  0  0  0  0  0  0  0
   13.5221    6.9312  -11.8239 H   0  0  0  0  0  0  0  0  0  0  0  0
   12.1026    7.3009  -10.8360 H   0  0  0  0  0  0  0  0  0  0  0  0
   13.3949    6.8081   -8.7665 H   0  0  0  0  0  0  0  0  0  0  0  0
   14.8356    6.4463   -9.7421 H   0  0  0  0  0  0  0  0  0  0  0  0
   13.5986    4.7104  -10.8303 H   0  0  0  0  0  0  0  0  0  0  0  0
   13.4104    4.5048   -7.9640 H   0  0  0  0  0  0  0  0  0  0  0  0
   13.6343    2.4372   -9.9018 H   0  0  0  0  0  0  0  0  0  0  0  0
   13.4885    2.4034   -7.0802 H   0  0  0  0  0  0  0  0  0  0  0  0
   13.7022    0.2914   -8.9814 H   0  0  0  0  0  0  0  0  0  0  0  0
  110.3148  -20.6685  -70.9004 H   0  0  0  0  0  0  0  0  0  0  0  0
  1  2  1  0  0  0  0
  1 82  1  0  0  0  0
  2  3  1  0  0  0  0
  3  4  1  0  0  0  0
  3 83  1  0  0  0  0
  3 84  1  0  0  0  0
  4  5  1  0  0  0  0
  4 85  1  0  0  0  0
  4 86  1  0  0  0  0
  5  6  1  0  0  0  0
  5 87  1  0  0  0  0
  5 88  1  0  0  0  0
  6  7  1  0  0  0  0
  6 89  1  0  0  0  0
  7  8  1  0  0  0  0
  7 90  1  0  0  0  0
  8  9  1  0  0  0  0
  8 91  1  0  0  0  0
  9 10  1  0  0  0  0
  9 92  1  0  0  0  0
 10 11  1  0  0  0  0
 10 93  1  0  0  0  0
 11 12  1  0  0  0  0
 12 13  1  0  0  0  0
 13 14  1  0  0  0  0
 14 15  1  0  0  0  0
 15 16  1  0  0  0  0
 16 17  1  0  0  0  0
 17 18  1  0  0  0  0
 18 19  1  0  0  0  0
 19 20  1  0  0  0  0
 20 21  1  0  0  0  0
 21 22  1  0  0  0  0
 22 23  1  0  0  0  0
 23 24  1  0  0  0  0
 24 25  1  0  0  0  0
 25 26  1  0  0  0  0
 26 27  1  0  0  0  0
 27 28  1  0  0  0  0
 28 29  1  0  0  0  0
 29 30  1  0  0  0  0
 30 31  1  0  0  0  0
 31 32  1  0  0  0  0
 32 33  1  0  0  0  0
 33 34  1  0  0  0  0
 34 35  1  0  0  0  0
 35 36  1  0  0  0  0
 36 37  1  0  0  0  0
 37 38  1  0  0  0  0
 38 39  1  0  0  0  0
 39 40  1  0  0  0  0
 40 41  1  0  0  0  0
 41 42  1  0  0  0  0
 42 43  1  0  0  0  0
 43 44  1  0  0  0  0
 44 45  1  0  0  0  0
 45 46  1  0  0  0  0
 46 47  1  0  0  0  0
 47 48  1  0  0  0  0
 48 49  1  0  0  0  0
 49 50  1  0  0  0  0
 50 51  1  0  0  0  0
 51 52  1  0  0  0  0
 52 53  1  0  0  0  0
 53 54  1  0  0  0  0
 54 55  1  0  0  0  0
 55 56  1  0  0  0  0
 56 57  1  0  0  0  0
 57 58  1  0  0  0  0
 58 59  1  0  0  0  0
 59 60  1  0  0  0  0
 60 61  1  0  0  0  0
 61 62  1  0  0  0  0
 62 63  1  0  0  0  0
 63 64  1  0  0  0  0
 64 65  1  0  0  0  0
 65 66  1  0  0  0  0
 66 67  1  0  0  0  0
 67 68  1  0  0  0  0
 68 69  1  0  0  0  0
 69 70  1  0  0  0  0
 70 71  1  0  0  0  0
 71 72  1  0  0  0  0
 72 73  1  0  0  0  0
 73 74  1  0  0  0  0
 74 75  1  0  0  0  0
 75 76  1  0  0  0  0
 76 77  1  0  0  0  0
 77 78  1  0  0  0  0
 78 79  1  0  0  0  0
 79 80  1  0  0  0  0
 80 81  1  0  0  0  0
 81 94  1  0  0  0  0
M  END
$$$$
