
 OpenBabel04232216443D

 58 59  0  0  0  0  0  0  0  0999 V2000
    4.0512    0.4052    1.7349 C   0  0  0  0  0  0  0  0  0  0  0  0
    4.8081    1.6879    1.4499 C   0  0  0  0  0  0  0  0  0  0  0  0
    4.1621    2.3109    0.2451 C   0  0  0  0  0  0  0  0  0  0  0  0
    2.8014    3.0531    0.3365 C   0  0  0  0  0  0  0  0  0  0  0  0
    2.5501    4.0215    1.5165 C   0  0  0  0  0  0  0  0  0  0  0  0
    3.5960    5.1404    1.5344 C   0  0  0  0  0  0  0  0  0  0  0  0
    3.3758    6.2014    0.4603 C   0  0  0  0  0  0  0  0  0  0  0  0
    2.5997    7.4024    0.9872 C   0  0  0  0  0  0  0  0  0  0  0  0
    1.1349    7.1326    1.3208 C   0  0  0  0  0  0  0  0  0  0  0  0
    0.8549    5.9143    2.2080 C   0  0  0  0  0  0  0  0  0  0  0  0
    1.0902    4.5627    1.5063 C   0  0  0  0  0  0  0  0  0  0  0  0
    4.4977    1.7547   -0.8995 N   0  0  0  0  0  0  0  0  0  0  0  0
    5.1187    2.6983   -1.6846 N   0  0  0  0  0  0  0  0  0  0  0  0
    6.4195    2.6241   -1.5585 C   0  0  0  0  0  0  0  0  0  0  0  0
    7.2184    1.3938   -1.0406 C   0  0  0  0  0  0  0  0  0  0  0  0
    7.2238    0.1615   -1.9093 C   0  0  0  0  0  0  0  0  0  0  0  0
    7.9996    0.3296   -3.1901 C   0  0  0  0  0  0  0  0  0  0  0  0
    8.8122    1.2597   -3.3641 O   0  0  0  0  0  0  0  0  0  0  0  0
    7.7979   -0.7111   -4.2415 C   0  0  0  0  0  0  0  0  0  0  0  0
    7.0339    3.9784   -1.4728 C   0  0  0  0  0  0  0  0  0  0  0  0
    8.3835    4.0682   -1.4540 C   0  0  0  0  0  0  0  0  0  0  0  0
    8.9626    4.5280   -0.1906 C   0  0  0  0  0  0  0  0  0  0  0  0
    8.8874    3.5984    0.8032 C   0  0  0  0  0  0  0  0  0  0  0  0
    7.9719    3.7236    1.9286 C   0  0  0  0  0  0  0  0  0  0  0  0
    6.8531    3.1124    2.3683 C   0  0  0  0  0  0  0  0  0  0  0  0
    5.9384    1.9923    2.1342 C   0  0  0  0  0  0  0  0  0  0  0  0
    3.0028    0.6304    1.9531 H   0  0  0  0  0  0  0  0  0  0  0  0
    4.4537   -0.1393    2.5961 H   0  0  0  0  0  0  0  0  0  0  0  0
    4.0826   -0.2635    0.8703 H   0  0  0  0  0  0  0  0  0  0  0  0
    2.0260    2.2733    0.3538 H   0  0  0  0  0  0  0  0  0  0  0  0
    2.6508    3.5837   -0.6126 H   0  0  0  0  0  0  0  0  0  0  0  0
    2.6695    3.4483    2.4454 H   0  0  0  0  0  0  0  0  0  0  0  0
    4.5884    4.7056    1.3995 H   0  0  0  0  0  0  0  0  0  0  0  0
    3.6177    5.5992    2.5309 H   0  0  0  0  0  0  0  0  0  0  0  0
    2.8784    5.7956   -0.4271 H   0  0  0  0  0  0  0  0  0  0  0  0
    4.3591    6.5535    0.1271 H   0  0  0  0  0  0  0  0  0  0  0  0
    2.6381    8.1975    0.2320 H   0  0  0  0  0  0  0  0  0  0  0  0
    3.1078    7.8028    1.8741 H   0  0  0  0  0  0  0  0  0  0  0  0
    0.5632    7.0410    0.3889 H   0  0  0  0  0  0  0  0  0  0  0  0
    0.7422    8.0265    1.8246 H   0  0  0  0  0  0  0  0  0  0  0  0
   -0.2051    5.9689    2.4887 H   0  0  0  0  0  0  0  0  0  0  0  0
    1.4160    5.9786    3.1477 H   0  0  0  0  0  0  0  0  0  0  0  0
    0.7037    4.6274    0.4807 H   0  0  0  0  0  0  0  0  0  0  0  0
    0.4560    3.8175    2.0076 H   0  0  0  0  0  0  0  0  0  0  0  0
    6.8205    1.0941   -0.0830 H   0  0  0  0  0  0  0  0  0  0  0  0
    8.2589    1.6545   -0.8362 H   0  0  0  0  0  0  0  0  0  0  0  0
    6.1979   -0.1667   -2.1420 H   0  0  0  0  0  0  0  0  0  0  0  0
    7.7202   -0.6516   -1.3565 H   0  0  0  0  0  0  0  0  0  0  0  0
    7.1575   -1.5105   -3.8609 H   0  0  0  0  0  0  0  0  0  0  0  0
    8.7626   -1.1425   -4.5214 H   0  0  0  0  0  0  0  0  0  0  0  0
    7.3155   -0.2468   -5.1081 H   0  0  0  0  0  0  0  0  0  0  0  0
    6.4426    4.5954   -0.8008 H   0  0  0  0  0  0  0  0  0  0  0  0
    8.9904    3.3939   -2.0459 H   0  0  0  0  0  0  0  0  0  0  0  0
    8.5974    5.5398    0.0183 H   0  0  0  0  0  0  0  0  0  0  0  0
    9.8974    3.3874    1.1862 H   0  0  0  0  0  0  0  0  0  0  0  0
    8.3979    4.4381    2.6403 H   0  0  0  0  0  0  0  0  0  0  0  0
    6.6111    3.4666    3.3787 H   0  0  0  0  0  0  0  0  0  0  0  0
    6.1953    1.2317    2.8797 H   0  0  0  0  0  0  0  0  0  0  0  0
  1  2  1  0  0  0  0
  1 27  1  0  0  0  0
  1 28  1  0  0  0  0
  1 29  1  0  0  0  0
  2  3  1  0  0  0  0
  2 26  2  3  0  0  0
  3  4  1  0  0  0  0
  3 12  2  3  0  0  0
  4  5  1  0  0  0  0
  4 30  1  0  0  0  0
  4 31  1  0  0  0  0
  5  6  1  0  0  0  0
  5 11  1  0  0  0  0
  5 32  1  0  0  0  0
  6  7  1  0  0  0  0
  6 33  1  0  0  0  0
  6 34  1  0  0  0  0
  7  8  1  0  0  0  0
  7 35  1  0  0  0  0
  7 36  1  0  0  0  0
  8  9  1  0  0  0  0
  8 37  1  0  0  0  0
  8 38  1  0  0  0  0
  9 10  1  0  0  0  0
  9 39  1  0  0  0  0
  9 40  1  0  0  0  0
 10 11  1  0  0  0  0
 10 41  1  0  0  0  0
 10 42  1  0  0  0  0
 11 43  1  0  0  0  0
 11 44  1  0  0  0  0
 12 13  1  0  0  0  0
 13 14  2  3  0  0  0
 14 15  1  0  0  0  0
 14 20  1  0  0  0  0
 15 16  1  0  0  0  0
 15 45  1  0  0  0  0
 15 46  1  0  0  0  0
 16 17  1  0  0  0  0
 16 47  1  0  0  0  0
 16 48  1  0  0  0  0
 17 18  2  0  0  0  0
 17 19  1  0  0  0  0
 19 49  1  0  0  0  0
 19 50  1  0  0  0  0
 19 51  1  0  0  0  0
 20 21  2  3  0  0  0
 20 52  1  0  0  0  0
 21 22  1  0  0  0  0
 21 53  1  0  0  0  0
 22 23  2  3  0  0  0
 22 54  1  0  0  0  0
 23 24  1  0  0  0  0
 23 55  1  0  0  0  0
 24 25  2  3  0  0  0
 24 56  1  0  0  0  0
 25 26  1  0  0  0  0
 25 57  1  0  0  0  0
 26 58  1  0  0  0  0
M  END
$$$$
