
 OpenBabel04232217003D

235235  0  0  1  0  0  0  0  0999 V2000
    3.3739    1.2485   -0.0534 O   0  0  0  0  0  0  0  0  0  0  0  0
    2.4509    0.1747    0.0810 C   0  0  0  0  0  0  0  0  0  0  0  0
    2.9409   -0.9951   -0.7587 C   0  0  3  0  0  0  0  0  0  0  0  0
    4.3234   -1.5480   -0.3395 C   0  0  0  0  0  0  0  0  0  0  0  0
    3.8068   -2.9609   -0.6532 C   0  0  0  0  0  0  0  0  0  0  0  0
    2.3711   -2.4197   -0.4416 C   0  0  3  0  0  0  0  0  0  0  0  0
    1.3275   -2.9727   -1.3996 C   0  0  0  0  0  0  0  0  0  0  0  0
   -0.0267   -2.3579   -1.0790 C   0  0  0  0  0  0  0  0  0  0  0  0
   -1.1031   -2.8814   -2.0074 C   0  0  0  0  0  0  0  0  0  0  0  0
   -2.4342   -2.2444   -1.6449 C   0  0  0  0  0  0  0  0  0  0  0  0
   -3.5115   -2.7632   -2.5744 C   0  0  0  0  0  0  0  0  0  0  0  0
   -4.8475   -2.1385   -2.2279 C   0  0  0  0  0  0  0  0  0  0  0  0
   -5.9136   -2.6679   -3.1672 C   0  0  0  0  0  0  0  0  0  0  0  0
   -7.2542   -2.0483   -2.8249 C   0  0  0  0  0  0  0  0  0  0  0  0
   -8.3198   -2.5776   -3.7649 C   0  0  0  0  0  0  0  0  0  0  0  0
   -9.6606   -1.9576   -3.4223 C   0  0  0  0  0  0  0  0  0  0  0  0
  -10.7268   -2.4865   -4.3619 C   0  0  0  0  0  0  0  0  0  0  0  0
  -12.0674   -1.8649   -4.0205 C   0  0  0  0  0  0  0  0  0  0  0  0
  -13.1338   -2.3939   -4.9602 C   0  0  0  0  0  0  0  0  0  0  0  0
  -14.4744   -1.7723   -4.6189 C   0  0  0  0  0  0  0  0  0  0  0  0
  -15.5409   -2.3012   -5.5585 C   0  0  0  0  0  0  0  0  0  0  0  0
  -16.8815   -1.6797   -5.2172 C   0  0  0  0  0  0  0  0  0  0  0  0
  -17.9480   -2.2086   -6.1568 C   0  0  0  0  0  0  0  0  0  0  0  0
  -19.2886   -1.5870   -5.8155 C   0  0  0  0  0  0  0  0  0  0  0  0
  -20.3552   -2.1159   -6.7552 C   0  0  0  0  0  0  0  0  0  0  0  0
  -21.6958   -1.4943   -6.4139 C   0  0  0  0  0  0  0  0  0  0  0  0
  -22.7623   -2.0232   -7.3535 C   0  0  0  0  0  0  0  0  0  0  0  0
  -24.1033   -1.4032   -7.0109 C   0  0  0  0  0  0  0  0  0  0  0  0
  -25.1699   -1.9321   -7.9506 C   0  0  0  0  0  0  0  0  0  0  0  0
  -26.5105   -1.3105   -7.6092 C   0  0  0  0  0  0  0  0  0  0  0  0
  -27.5770   -1.8394   -8.5489 C   0  0  0  0  0  0  0  0  0  0  0  0
  -28.9173   -1.2164   -8.2089 C   0  0  0  0  0  0  0  0  0  0  0  0
  -29.9838   -1.7453   -9.1485 C   0  0  0  0  0  0  0  0  0  0  0  0
  -31.3245   -1.1237   -8.8072 C   0  0  0  0  0  0  0  0  0  0  0  0
  -32.3906   -1.6511   -9.7481 C   0  0  0  0  0  0  0  0  0  0  0  0
  -33.7309   -1.0280   -9.4081 C   0  0  0  0  0  0  0  0  0  0  0  0
  -34.7970   -1.5554  -10.3490 C   0  0  0  0  0  0  0  0  0  0  0  0
  -36.1373   -0.9323  -10.0090 C   0  0  0  0  0  0  0  0  0  0  0  0
  -37.2034   -1.4597  -10.9499 C   0  0  0  0  0  0  0  0  0  0  0  0
  -38.5437   -0.8366  -10.6099 C   0  0  0  0  0  0  0  0  0  0  0  0
  -39.6098   -1.3640  -11.5508 C   0  0  0  0  0  0  0  0  0  0  0  0
  -40.9497   -0.7394  -11.2120 C   0  0  0  0  0  0  0  0  0  0  0  0
  -42.0155   -1.2653  -12.1542 C   0  0  0  0  0  0  0  0  0  0  0  0
  -43.3558   -0.6422  -11.8142 C   0  0  0  0  0  0  0  0  0  0  0  0
  -44.4212   -1.1666  -12.7577 C   0  0  0  0  0  0  0  0  0  0  0  0
  -45.7618   -0.5450  -12.4164 C   0  0  0  0  0  0  0  0  0  0  0  0
  -46.8276   -1.0709  -13.3586 C   0  0  0  0  0  0  0  0  0  0  0  0
  -48.1678   -0.4478  -13.0186 C   0  0  0  0  0  0  0  0  0  0  0  0
  -49.2336   -0.9737  -13.9608 C   0  0  0  0  0  0  0  0  0  0  0  0
  -50.5739   -0.3506  -13.6207 C   0  0  0  0  0  0  0  0  0  0  0  0
  -51.6396   -0.8765  -14.5630 C   0  0  0  0  0  0  0  0  0  0  0  0
  -52.9795   -0.2519  -14.2242 C   0  0  0  0  0  0  0  0  0  0  0  0
  -54.0453   -0.7778  -15.1664 C   0  0  0  0  0  0  0  0  0  0  0  0
  -55.3855   -0.1547  -14.8264 C   0  0  0  0  0  0  0  0  0  0  0  0
  -56.4513   -0.6806  -15.7686 C   0  0  0  0  0  0  0  0  0  0  0  0
  -57.7919   -0.0590  -15.4273 C   0  0  0  0  0  0  0  0  0  0  0  0
  -58.8577   -0.5849  -16.3695 C   0  0  0  0  0  0  0  0  0  0  0  0
  -60.1987    0.0352  -16.0269 C   0  0  0  0  0  0  0  0  0  0  0  0
  -61.2649   -0.4922  -16.9678 C   0  0  0  0  0  0  0  0  0  0  0  0
  -62.6055    0.1293  -16.6265 C   0  0  0  0  0  0  0  0  0  0  0  0
  -63.6720   -0.3996  -17.5662 C   0  0  0  0  0  0  0  0  0  0  0  0
  -65.0123    0.2235  -17.2262 C   0  0  0  0  0  0  0  0  0  0  0  0
  -66.0784   -0.3039  -18.1671 C   0  0  0  0  0  0  0  0  0  0  0  0
  -67.4183    0.3207  -17.8283 C   0  0  0  0  0  0  0  0  0  0  0  0
  -68.4848   -0.2082  -18.7680 C   0  0  0  0  0  0  0  0  0  0  0  0
  -69.8251    0.4149  -18.4280 C   0  0  0  0  0  0  0  0  0  0  0  0
  -70.8916   -0.1141  -19.3676 C   0  0  0  0  0  0  0  0  0  0  0  0
  -72.2316    0.5105  -19.0289 C   0  0  0  0  0  0  0  0  0  0  0  0
  -73.2986   -0.0199  -19.9673 C   0  0  0  0  0  0  0  0  0  0  0  0
  -74.6383    0.6060  -19.6300 C   0  0  0  0  0  0  0  0  0  0  0  0
  -75.7058    0.0741  -20.5672 C   0  0  0  0  0  0  0  0  0  0  0  0
  -77.0457    0.7018  -20.2321 C   0  0  0  0  0  0  0  0  0  0  0  0
  -78.1142    0.1693  -21.1692 C   0  0  0  0  0  0  0  0  0  0  0  0
  -79.4548    0.7969  -20.8367 C   0  0  0  0  0  0  0  0  0  0  0  0
  -80.5229    0.2599  -21.7797 C   0  0  0  0  0  0  0  0  0  0  0  0
  -81.8665    0.8974  -21.4398 C   0  0  0  0  0  0  0  0  0  0  0  0
  -82.9434    0.3718  -22.3756 C   0  0  0  0  0  0  0  0  0  0  0  0
  -84.2918    0.9955  -22.0500 C   0  0  0  0  0  0  0  0  0  0  0  0
  -85.3597    0.4664  -22.9871 C   0  0  0  0  0  0  0  0  0  0  0  0
    3.0036    2.0102    0.4327 H   0  0  0  0  0  0  0  0  0  0  0  0
    1.4695    0.5236   -0.2554 H   0  0  0  0  0  0  0  0  0  0  0  0
    2.3905   -0.1000    1.1369 H   0  0  0  0  0  0  0  0  0  0  0  0
    2.8857   -0.7602   -1.8330 H   0  0  0  0  0  0  0  0  0  0  0  0
    4.5591   -1.4033    0.7214 H   0  0  0  0  0  0  0  0  0  0  0  0
    5.1696   -1.2012   -0.9386 H   0  0  0  0  0  0  0  0  0  0  0  0
    4.1223   -3.7340    0.0541 H   0  0  0  0  0  0  0  0  0  0  0  0
    4.0275   -3.3013   -1.6708 H   0  0  0  0  0  0  0  0  0  0  0  0
    2.0588   -2.5380    0.6062 H   0  0  0  0  0  0  0  0  0  0  0  0
    1.2671   -4.0634   -1.3030 H   0  0  0  0  0  0  0  0  0  0  0  0
    1.5965   -2.7561   -2.4411 H   0  0  0  0  0  0  0  0  0  0  0  0
    0.0212   -1.2673   -1.1907 H   0  0  0  0  0  0  0  0  0  0  0  0
   -0.2944   -2.5628   -0.0353 H   0  0  0  0  0  0  0  0  0  0  0  0
   -1.1742   -3.9739   -1.9358 H   0  0  0  0  0  0  0  0  0  0  0  0
   -0.8466   -2.6351   -3.0452 H   0  0  0  0  0  0  0  0  0  0  0  0
   -2.3655   -1.1516   -1.7262 H   0  0  0  0  0  0  0  0  0  0  0  0
   -2.6921   -2.4733   -0.6033 H   0  0  0  0  0  0  0  0  0  0  0  0
   -3.5766   -3.8553   -2.4944 H   0  0  0  0  0  0  0  0  0  0  0  0
   -3.2491   -2.5290   -3.6144 H   0  0  0  0  0  0  0  0  0  0  0  0
   -4.7844   -1.0463   -2.3092 H   0  0  0  0  0  0  0  0  0  0  0  0
   -5.1126   -2.3720   -1.1888 H   0  0  0  0  0  0  0  0  0  0  0  0
   -5.9747   -3.7603   -3.0861 H   0  0  0  0  0  0  0  0  0  0  0  0
   -5.6473   -2.4342   -4.2055 H   0  0  0  0  0  0  0  0  0  0  0  0
   -7.1928   -0.9559   -2.9054 H   0  0  0  0  0  0  0  0  0  0  0  0
   -7.5204   -2.2830   -1.7868 H   0  0  0  0  0  0  0  0  0  0  0  0
   -8.3808   -3.6699   -3.6842 H   0  0  0  0  0  0  0  0  0  0  0  0
   -8.0531   -2.3432   -4.8029 H   0  0  0  0  0  0  0  0  0  0  0  0
   -9.5990   -0.8653   -3.5029 H   0  0  0  0  0  0  0  0  0  0  0  0
   -9.9268   -2.1920   -2.3842 H   0  0  0  0  0  0  0  0  0  0  0  0
  -10.7891   -3.5787   -4.2802 H   0  0  0  0  0  0  0  0  0  0  0  0
  -10.4598   -2.2533   -5.4000 H   0  0  0  0  0  0  0  0  0  0  0  0
  -12.0050   -0.7727   -4.1022 H   0  0  0  0  0  0  0  0  0  0  0  0
  -12.3344   -2.0981   -2.9824 H   0  0  0  0  0  0  0  0  0  0  0  0
  -13.1961   -3.4861   -4.8785 H   0  0  0  0  0  0  0  0  0  0  0  0
  -12.8667   -2.1607   -5.9983 H   0  0  0  0  0  0  0  0  0  0  0  0
  -14.4120   -0.6801   -4.7006 H   0  0  0  0  0  0  0  0  0  0  0  0
  -14.7414   -2.0055   -3.5807 H   0  0  0  0  0  0  0  0  0  0  0  0
  -15.6032   -3.3934   -5.4768 H   0  0  0  0  0  0  0  0  0  0  0  0
  -15.2738   -2.0680   -6.5967 H   0  0  0  0  0  0  0  0  0  0  0  0
  -16.8191   -0.5875   -5.2989 H   0  0  0  0  0  0  0  0  0  0  0  0
  -17.1485   -1.9128   -4.1790 H   0  0  0  0  0  0  0  0  0  0  0  0
  -18.0104   -3.3007   -6.0751 H   0  0  0  0  0  0  0  0  0  0  0  0
  -17.6810   -1.9754   -7.1950 H   0  0  0  0  0  0  0  0  0  0  0  0
  -19.2263   -0.4948   -5.8973 H   0  0  0  0  0  0  0  0  0  0  0  0
  -19.5557   -1.8202   -4.7774 H   0  0  0  0  0  0  0  0  0  0  0  0
  -20.4175   -3.2081   -6.6734 H   0  0  0  0  0  0  0  0  0  0  0  0
  -20.0881   -1.8827   -7.7933 H   0  0  0  0  0  0  0  0  0  0  0  0
  -21.6335   -0.4022   -6.4956 H   0  0  0  0  0  0  0  0  0  0  0  0
  -21.9628   -1.7275   -5.3757 H   0  0  0  0  0  0  0  0  0  0  0  0
  -22.8237   -3.1156   -7.2728 H   0  0  0  0  0  0  0  0  0  0  0  0
  -22.4960   -1.7888   -8.3915 H   0  0  0  0  0  0  0  0  0  0  0  0
  -24.0419   -0.3109   -7.0916 H   0  0  0  0  0  0  0  0  0  0  0  0
  -24.3697   -1.6376   -5.9729 H   0  0  0  0  0  0  0  0  0  0  0  0
  -25.2322   -3.0243   -7.8688 H   0  0  0  0  0  0  0  0  0  0  0  0
  -24.9029   -1.6989   -8.9887 H   0  0  0  0  0  0  0  0  0  0  0  0
  -26.4481   -0.2184   -7.6910 H   0  0  0  0  0  0  0  0  0  0  0  0
  -26.7775   -1.5437   -6.5711 H   0  0  0  0  0  0  0  0  0  0  0  0
  -27.6403   -2.9315   -8.4661 H   0  0  0  0  0  0  0  0  0  0  0  0
  -27.3093   -1.6075   -9.5872 H   0  0  0  0  0  0  0  0  0  0  0  0
  -28.8540   -0.1243   -8.2917 H   0  0  0  0  0  0  0  0  0  0  0  0
  -29.1850   -1.4483   -7.1706 H   0  0  0  0  0  0  0  0  0  0  0  0
  -30.0462   -2.8374   -9.0668 H   0  0  0  0  0  0  0  0  0  0  0  0
  -29.7167   -1.5121  -10.1866 H   0  0  0  0  0  0  0  0  0  0  0  0
  -31.2617   -0.0314   -8.8876 H   0  0  0  0  0  0  0  0  0  0  0  0
  -31.5922   -1.3580   -7.7695 H   0  0  0  0  0  0  0  0  0  0  0  0
  -32.4543   -2.7432   -9.6667 H   0  0  0  0  0  0  0  0  0  0  0  0
  -32.1222   -1.4180  -10.7859 H   0  0  0  0  0  0  0  0  0  0  0  0
  -33.6671    0.0641   -9.4895 H   0  0  0  0  0  0  0  0  0  0  0  0
  -33.9993   -1.2611   -8.3703 H   0  0  0  0  0  0  0  0  0  0  0  0
  -34.8608   -2.6475  -10.2676 H   0  0  0  0  0  0  0  0  0  0  0  0
  -34.5286   -1.3223  -11.3868 H   0  0  0  0  0  0  0  0  0  0  0  0
  -36.0735    0.1598  -10.0904 H   0  0  0  0  0  0  0  0  0  0  0  0
  -36.4057   -1.1654   -8.9712 H   0  0  0  0  0  0  0  0  0  0  0  0
  -37.2672   -2.5518  -10.8685 H   0  0  0  0  0  0  0  0  0  0  0  0
  -36.9350   -1.2266  -11.9877 H   0  0  0  0  0  0  0  0  0  0  0  0
  -38.4799    0.2555  -10.6913 H   0  0  0  0  0  0  0  0  0  0  0  0
  -38.8122   -1.0697   -9.5721 H   0  0  0  0  0  0  0  0  0  0  0  0
  -39.6746   -2.4560  -11.4684 H   0  0  0  0  0  0  0  0  0  0  0  0
  -39.3407   -1.1321  -12.5887 H   0  0  0  0  0  0  0  0  0  0  0  0
  -40.8846    0.3527  -11.2931 H   0  0  0  0  0  0  0  0  0  0  0  0
  -41.2195   -0.9725  -10.1746 H   0  0  0  0  0  0  0  0  0  0  0  0
  -42.0797   -2.3575  -12.0743 H   0  0  0  0  0  0  0  0  0  0  0  0
  -41.7464   -1.0310  -13.1916 H   0  0  0  0  0  0  0  0  0  0  0  0
  -43.2913    0.4501  -11.8928 H   0  0  0  0  0  0  0  0  0  0  0  0
  -43.6255   -0.8777  -10.7773 H   0  0  0  0  0  0  0  0  0  0  0  0
  -44.4847   -2.2590  -12.6801 H   0  0  0  0  0  0  0  0  0  0  0  0
  -44.1521   -0.9298  -13.7945 H   0  0  0  0  0  0  0  0  0  0  0  0
  -45.6986    0.5473  -12.4953 H   0  0  0  0  0  0  0  0  0  0  0  0
  -46.0302   -0.7806  -11.3792 H   0  0  0  0  0  0  0  0  0  0  0  0
  -46.8917   -2.1631  -13.2786 H   0  0  0  0  0  0  0  0  0  0  0  0
  -46.5585   -0.8365  -14.3960 H   0  0  0  0  0  0  0  0  0  0  0  0
  -48.1037    0.6444  -13.0986 H   0  0  0  0  0  0  0  0  0  0  0  0
  -48.4369   -0.6821  -11.9812 H   0  0  0  0  0  0  0  0  0  0  0  0
  -49.2977   -2.0659  -13.8808 H   0  0  0  0  0  0  0  0  0  0  0  0
  -48.9645   -0.7394  -14.9981 H   0  0  0  0  0  0  0  0  0  0  0  0
  -50.5097    0.7416  -13.7007 H   0  0  0  0  0  0  0  0  0  0  0  0
  -50.8430   -0.5849  -12.5834 H   0  0  0  0  0  0  0  0  0  0  0  0
  -51.7047   -1.9685  -14.4819 H   0  0  0  0  0  0  0  0  0  0  0  0
  -51.3699   -0.6434  -15.6004 H   0  0  0  0  0  0  0  0  0  0  0  0
  -52.9144    0.8402  -14.3052 H   0  0  0  0  0  0  0  0  0  0  0  0
  -53.2493   -0.4850  -13.1867 H   0  0  0  0  0  0  0  0  0  0  0  0
  -54.1094   -1.8700  -15.0864 H   0  0  0  0  0  0  0  0  0  0  0  0
  -53.7762   -0.5435  -16.2038 H   0  0  0  0  0  0  0  0  0  0  0  0
  -55.3214    0.9375  -14.9064 H   0  0  0  0  0  0  0  0  0  0  0  0
  -55.6546   -0.3890  -13.7890 H   0  0  0  0  0  0  0  0  0  0  0  0
  -56.5145   -1.7729  -15.6896 H   0  0  0  0  0  0  0  0  0  0  0  0
  -56.1829   -0.4450  -16.8058 H   0  0  0  0  0  0  0  0  0  0  0  0
  -57.7288    1.0334  -15.5062 H   0  0  0  0  0  0  0  0  0  0  0  0
  -58.0603   -0.2946  -14.3900 H   0  0  0  0  0  0  0  0  0  0  0  0
  -58.9199   -1.6774  -16.2916 H   0  0  0  0  0  0  0  0  0  0  0  0
  -58.5900   -0.3481  -17.4066 H   0  0  0  0  0  0  0  0  0  0  0  0
  -60.1369    1.1276  -16.1062 H   0  0  0  0  0  0  0  0  0  0  0  0
  -60.4658   -0.2005  -14.9893 H   0  0  0  0  0  0  0  0  0  0  0  0
  -61.3276   -1.5845  -16.8875 H   0  0  0  0  0  0  0  0  0  0  0  0
  -60.9972   -0.2579  -18.0055 H   0  0  0  0  0  0  0  0  0  0  0  0
  -62.5431    1.2215  -16.7082 H   0  0  0  0  0  0  0  0  0  0  0  0
  -62.8726   -0.1038  -15.5884 H   0  0  0  0  0  0  0  0  0  0  0  0
  -63.7354   -1.4916  -17.4834 H   0  0  0  0  0  0  0  0  0  0  0  0
  -63.4043   -0.1677  -18.6044 H   0  0  0  0  0  0  0  0  0  0  0  0
  -64.9486    1.3156  -17.3076 H   0  0  0  0  0  0  0  0  0  0  0  0
  -65.2807   -0.0096  -16.1883 H   0  0  0  0  0  0  0  0  0  0  0  0
  -66.1431   -1.3959  -18.0846 H   0  0  0  0  0  0  0  0  0  0  0  0
  -65.8094   -0.0720  -19.2050 H   0  0  0  0  0  0  0  0  0  0  0  0
  -67.3540    1.4126  -17.9121 H   0  0  0  0  0  0  0  0  0  0  0  0
  -67.6868    0.0900  -16.7900 H   0  0  0  0  0  0  0  0  0  0  0  0
  -68.5482   -1.3003  -18.6852 H   0  0  0  0  0  0  0  0  0  0  0  0
  -68.2170    0.0237  -19.8062 H   0  0  0  0  0  0  0  0  0  0  0  0
  -69.7617    1.5069  -18.5107 H   0  0  0  0  0  0  0  0  0  0  0  0
  -70.0929    0.1829  -17.3898 H   0  0  0  0  0  0  0  0  0  0  0  0
  -70.9559   -1.2060  -19.2838 H   0  0  0  0  0  0  0  0  0  0  0  0
  -70.6232    0.1166  -20.4060 H   0  0  0  0  0  0  0  0  0  0  0  0
  -72.1676    1.6023  -19.1141 H   0  0  0  0  0  0  0  0  0  0  0  0
  -72.4994    0.2810  -17.9901 H   0  0  0  0  0  0  0  0  0  0  0  0
  -73.3634   -1.1116  -19.8810 H   0  0  0  0  0  0  0  0  0  0  0  0
  -73.0300    0.2083  -21.0062 H   0  0  0  0  0  0  0  0  0  0  0  0
  -74.5736    1.6977  -19.7176 H   0  0  0  0  0  0  0  0  0  0  0  0
  -74.9061    0.3791  -18.5907 H   0  0  0  0  0  0  0  0  0  0  0  0
  -75.7713   -1.0173  -20.4781 H   0  0  0  0  0  0  0  0  0  0  0  0
  -75.4368    0.2994  -21.6066 H   0  0  0  0  0  0  0  0  0  0  0  0
  -76.9796    1.7931  -20.3214 H   0  0  0  0  0  0  0  0  0  0  0  0
  -77.3139    0.4770  -19.1922 H   0  0  0  0  0  0  0  0  0  0  0  0
  -78.1796   -0.9221  -21.0788 H   0  0  0  0  0  0  0  0  0  0  0  0
  -77.8440    0.3935  -22.2086 H   0  0  0  0  0  0  0  0  0  0  0  0
  -79.3871    1.8885  -20.9232 H   0  0  0  0  0  0  0  0  0  0  0  0
  -79.7236    0.5727  -19.7969 H   0  0  0  0  0  0  0  0  0  0  0  0
  -80.5941   -0.8244  -21.6858 H   0  0  0  0  0  0  0  0  0  0  0  0
  -80.2569    0.4948  -22.8148 H   0  0  0  0  0  0  0  0  0  0  0  0
  -81.7963    1.9891  -21.5263 H   0  0  0  0  0  0  0  0  0  0  0  0
  -82.1329    0.6725  -20.3994 H   0  0  0  0  0  0  0  0  0  0  0  0
  -83.0051   -0.7203  -22.2871 H   0  0  0  0  0  0  0  0  0  0  0  0
  -82.6684    0.5961  -23.4141 H   0  0  0  0  0  0  0  0  0  0  0  0
  -84.2307    2.0867  -22.1401 H   0  0  0  0  0  0  0  0  0  0  0  0
  -84.5675    0.7698  -21.0127 H   0  0  0  0  0  0  0  0  0  0  0  0
  -85.1130    0.7024  -24.0272 H   0  0  0  0  0  0  0  0  0  0  0  0
  -86.3284    0.9154  -22.7519 H   0  0  0  0  0  0  0  0  0  0  0  0
  -85.4514   -0.6206  -22.8946 H   0  0  0  0  0  0  0  0  0  0  0  0
  1  2  1  0  0  0  0
  1 80  1  0  0  0  0
  2  3  1  0  0  0  0
  2 81  1  0  0  0  0
  2 82  1  0  0  0  0
  3  4  1  0  0  0  0
  3  6  1  0  0  0  0
  3 83  1  0  0  0  0
  4  5  1  0  0  0  0
  4 84  1  0  0  0  0
  4 85  1  0  0  0  0
  5  6  1  0  0  0  0
  5 86  1  0  0  0  0
  5 87  1  0  0  0  0
  6  7  1  0  0  0  0
  6 88  1  0  0  0  0
  7  8  1  0  0  0  0
  7 89  1  0  0  0  0
  7 90  1  0  0  0  0
  8  9  1  0  0  0  0
  8 91  1  0  0  0  0
  8 92  1  0  0  0  0
  9 10  1  0  0  0  0
  9 93  1  0  0  0  0
  9 94  1  0  0  0  0
 10 11  1  0  0  0  0
 10 95  1  0  0  0  0
 10 96  1  0  0  0  0
 11 12  1  0  0  0  0
 11 97  1  0  0  0  0
 11 98  1  0  0  0  0
 12 13  1  0  0  0  0
 12 99  1  0  0  0  0
 12100  1  0  0  0  0
 13 14  1  0  0  0  0
 13101  1  0  0  0  0
 13102  1  0  0  0  0
 14 15  1  0  0  0  0
 14103  1  0  0  0  0
 14104  1  0  0  0  0
 15 16  1  0  0  0  0
 15105  1  0  0  0  0
 15106  1  0  0  0  0
 16 17  1  0  0  0  0
 16107  1  0  0  0  0
 16108  1  0  0  0  0
 17 18  1  0  0  0  0
 17109  1  0  0  0  0
 17110  1  0  0  0  0
 18 19  1  0  0  0  0
 18111  1  0  0  0  0
 18112  1  0  0  0  0
 19 20  1  0  0  0  0
 19113  1  0  0  0  0
 19114  1  0  0  0  0
 20 21  1  0  0  0  0
 20115  1  0  0  0  0
 20116  1  0  0  0  0
 21 22  1  0  0  0  0
 21117  1  0  0  0  0
 21118  1  0  0  0  0
 22 23  1  0  0  0  0
 22119  1  0  0  0  0
 22120  1  0  0  0  0
 23 24  1  0  0  0  0
 23121  1  0  0  0  0
 23122  1  0  0  0  0
 24 25  1  0  0  0  0
 24123  1  0  0  0  0
 24124  1  0  0  0  0
 25 26  1  0  0  0  0
 25125  1  0  0  0  0
 25126  1  0  0  0  0
 26 27  1  0  0  0  0
 26127  1  0  0  0  0
 26128  1  0  0  0  0
 27 28  1  0  0  0  0
 27129  1  0  0  0  0
 27130  1  0  0  0  0
 28 29  1  0  0  0  0
 28131  1  0  0  0  0
 28132  1  0  0  0  0
 29 30  1  0  0  0  0
 29133  1  0  0  0  0
 29134  1  0  0  0  0
 30 31  1  0  0  0  0
 30135  1  0  0  0  0
 30136  1  0  0  0  0
 31 32  1  0  0  0  0
 31137  1  0  0  0  0
 31138  1  0  0  0  0
 32 33  1  0  0  0  0
 32139  1  0  0  0  0
 32140  1  0  0  0  0
 33 34  1  0  0  0  0
 33141  1  0  0  0  0
 33142  1  0  0  0  0
 34 35  1  0  0  0  0
 34143  1  0  0  0  0
 34144  1  0  0  0  0
 35 36  1  0  0  0  0
 35145  1  0  0  0  0
 35146  1  0  0  0  0
 36 37  1  0  0  0  0
 36147  1  0  0  0  0
 36148  1  0  0  0  0
 37 38  1  0  0  0  0
 37149  1  0  0  0  0
 37150  1  0  0  0  0
 38 39  1  0  0  0  0
 38151  1  0  0  0  0
 38152  1  0  0  0  0
 39 40  1  0  0  0  0
 39153  1  0  0  0  0
 39154  1  0  0  0  0
 40 41  1  0  0  0  0
 40155  1  0  0  0  0
 40156  1  0  0  0  0
 41 42  1  0  0  0  0
 41157  1  0  0  0  0
 41158  1  0  0  0  0
 42 43  1  0  0  0  0
 42159  1  0  0  0  0
 42160  1  0  0  0  0
 43 44  1  0  0  0  0
 43161  1  0  0  0  0
 43162  1  0  0  0  0
 44 45  1  0  0  0  0
 44163  1  0  0  0  0
 44164  1  0  0  0  0
 45 46  1  0  0  0  0
 45165  1  0  0  0  0
 45166  1  0  0  0  0
 46 47  1  0  0  0  0
 46167  1  0  0  0  0
 46168  1  0  0  0  0
 47 48  1  0  0  0  0
 47169  1  0  0  0  0
 47170  1  0  0  0  0
 48 49  1  0  0  0  0
 48171  1  0  0  0  0
 48172  1  0  0  0  0
 49 50  1  0  0  0  0
 49173  1  0  0  0  0
 49174  1  0  0  0  0
 50 51  1  0  0  0  0
 50175  1  0  0  0  0
 50176  1  0  0  0  0
 51 52  1  0  0  0  0
 51177  1  0  0  0  0
 51178  1  0  0  0  0
 52 53  1  0  0  0  0
 52179  1  0  0  0  0
 52180  1  0  0  0  0
 53 54  1  0  0  0  0
 53181  1  0  0  0  0
 53182  1  0  0  0  0
 54 55  1  0  0  0  0
 54183  1  0  0  0  0
 54184  1  0  0  0  0
 55 56  1  0  0  0  0
 55185  1  0  0  0  0
 55186  1  0  0  0  0
 56 57  1  0  0  0  0
 56187  1  0  0  0  0
 56188  1  0  0  0  0
 57 58  1  0  0  0  0
 57189  1  0  0  0  0
 57190  1  0  0  0  0
 58 59  1  0  0  0  0
 58191  1  0  0  0  0
 58192  1  0  0  0  0
 59 60  1  0  0  0  0
 59193  1  0  0  0  0
 59194  1  0  0  0  0
 60 61  1  0  0  0  0
 60195  1  0  0  0  0
 60196  1  0  0  0  0
 61 62  1  0  0  0  0
 61197  1  0  0  0  0
 61198  1  0  0  0  0
 62 63  1  0  0  0  0
 62199  1  0  0  0  0
 62200  1  0  0  0  0
 63 64  1  0  0  0  0
 63201  1  0  0  0  0
 63202  1  0  0  0  0
 64 65  1  0  0  0  0
 64203  1  0  0  0  0
 64204  1  0  0  0  0
 65 66  1  0  0  0  0
 65205  1  0  0  0  0
 65206  1  0  0  0  0
 66 67  1  0  0  0  0
 66207  1  0  0  0  0
 66208  1  0  0  0  0
 67 68  1  0  0  0  0
 67209  1  0  0  0  0
 67210  1  0  0  0  0
 68 69  1  0  0  0  0
 68211  1  0  0  0  0
 68212  1  0  0  0  0
 69 70  1  0  0  0  0
 69213  1  0  0  0  0
 69214  1  0  0  0  0
 70 71  1  0  0  0  0
 70215  1  0  0  0  0
 70216  1  0  0  0  0
 71 72  1  0  0  0  0
 71217  1  0  0  0  0
 71218  1  0  0  0  0
 72 73  1  0  0  0  0
 72219  1  0  0  0  0
 72220  1  0  0  0  0
 73 74  1  0  0  0  0
 73221  1  0  0  0  0
 73222  1  0  0  0  0
 74 75  1  0  0  0  0
 74223  1  0  0  0  0
 74224  1  0  0  0  0
 75 76  1  0  0  0  0
 75225  1  0  0  0  0
 75226  1  0  0  0  0
 76 77  1  0  0  0  0
 76227  1  0  0  0  0
 76228  1  0  0  0  0
 77 78  1  0  0  0  0
 77229  1  0  0  0  0
 77230  1  0  0  0  0
 78 79  1  0  0  0  0
 78231  1  0  0  0  0
 78232  1  0  0  0  0
 79233  1  0  0  0  0
 79234  1  0  0  0  0
 79235  1  0  0  0  0
M  END
$$$$
