
 OpenBabel04232216403D

204203  0  0  0  0  0  0  0  0999 V2000
   30.3395   -2.8619    8.5825 C   0  0  0  0  0  0  0  0  0  0  0  0
   31.1126   -3.4185    7.6422 C   0  0  0  0  0  0  0  0  0  0  0  0
   31.7638   -2.6109    6.5483 C   0  0  0  0  0  0  0  0  0  0  0  0
   31.3189   -3.0666    5.2286 N   0  0  0  0  0  0  0  0  0  0  0  0
   31.9629   -2.2715    4.2201 N   0  0  0  0  0  0  0  0  0  0  0  0
   31.5294   -2.7155    2.9289 N   0  0  0  0  0  0  0  0  0  0  0  0
   32.1838   -1.9004    1.9155 C   0  0  0  0  0  0  0  0  0  0  0  0
   31.7260   -2.3652    0.5456 C   0  0  0  0  0  0  0  0  0  0  0  0
   32.3939   -1.5337   -0.5339 C   0  0  0  0  0  0  0  0  0  0  0  0
   31.9419   -1.9951   -1.9049 C   0  0  0  0  0  0  0  0  0  0  0  0
   32.6113   -1.1648   -2.9811 C   0  0  0  0  0  0  0  0  0  0  0  0
   32.1573   -1.6257   -4.3509 C   0  0  0  0  0  0  0  0  0  0  0  0
   32.8281   -0.7968   -5.4267 C   0  0  0  0  0  0  0  0  0  0  0  0
   32.3726   -1.2564   -6.7961 C   0  0  0  0  0  0  0  0  0  0  0  0
   33.0434   -0.4275   -7.8718 C   0  0  0  0  0  0  0  0  0  0  0  0
   32.5893   -0.8884   -9.2413 C   0  0  0  0  0  0  0  0  0  0  0  0
   33.2586   -0.0583  -10.3173 C   0  0  0  0  0  0  0  0  0  0  0  0
   32.8031   -0.5178  -11.6873 C   0  0  0  0  0  0  0  0  0  0  0  0
   33.4734    0.3106  -12.7651 C   0  0  0  0  0  0  0  0  0  0  0  0
   33.0185   -0.1502  -14.1384 C   0  0  0  0  0  0  0  0  0  0  0  0
   33.6858    0.6815  -15.2143 C   0  0  0  0  0  0  0  0  0  0  0  0
   33.2393    0.2262  -16.5316 N   0  0  0  0  0  0  0  0  0  0  0  0
   33.9057    1.0362  -17.5868 C   0  0  0  0  0  0  0  0  0  0  0  0
   35.3530    0.8920  -17.5232 N   0  0  0  0  0  0  0  0  0  0  0  0
   35.9132    1.6577  -18.5503 N   0  0  0  0  0  0  0  0  0  0  0  0
   37.3163    1.5219  -18.5048 N   0  0  0  0  0  0  0  0  0  0  0  0
   37.9481    2.3156  -19.5215 N   0  0  0  0  0  0  0  0  0  0  0  0
   37.6149    3.6868  -19.3752 N   0  0  0  0  0  0  0  0  0  0  0  0
   38.0436    4.1412  -18.1019 N   0  0  0  0  0  0  0  0  0  0  0  0
   39.4834    3.9982  -17.9969 N   0  0  0  0  0  0  0  0  0  0  0  0
   40.1203    4.7275  -19.0442 N   0  0  0  0  0  0  0  0  0  0  0  0
   39.7578    6.1004  -18.9160 N   0  0  0  0  0  0  0  0  0  0  0  0
   40.1994    6.6006  -17.6233 N   0  0  0  0  0  0  0  0  0  0  0  0
   41.6066    6.4385  -17.4904 N   0  0  0  0  0  0  0  0  0  0  0  0
   42.2806    7.1912  -18.5010 N   0  0  0  0  0  0  0  0  0  0  0  0
   41.9268    8.5703  -18.4217 N   0  0  0  0  0  0  0  0  0  0  0  0
   42.3111    9.0768  -17.1388 N   0  0  0  0  0  0  0  0  0  0  0  0
   43.7325    8.9367  -16.9681 N   0  0  0  0  0  0  0  0  0  0  0  0
   44.4115    9.6246  -17.9990 N   0  0  0  0  0  0  0  0  0  0  0  0
   44.0676   11.0168  -17.9382 N   0  0  0  0  0  0  0  0  0  0  0  0
   44.4075   11.5271  -16.6506 N   0  0  0  0  0  0  0  0  0  0  0  0
   45.8352   11.3861  -16.4505 N   0  0  0  0  0  0  0  0  0  0  0  0
   46.5573   12.0745  -17.4830 N   0  0  0  0  0  0  0  0  0  0  0  0
   46.2536   13.4772  -17.4416 N   0  0  0  0  0  0  0  0  0  0  0  0
   46.5641   14.0188  -16.1740 N   0  0  0  0  0  0  0  0  0  0  0  0
   47.9592   13.8713  -15.9315 N   0  0  0  0  0  0  0  0  0  0  0  0
   48.7078   14.5075  -16.9560 N   0  0  0  0  0  0  0  0  0  0  0  0
   48.4052   15.9059  -16.9677 N   0  0  0  0  0  0  0  0  0  0  0  0
   48.6902   16.4724  -15.6992 N   0  0  0  0  0  0  0  0  0  0  0  0
   50.0815   16.3040  -15.4212 N   0  0  0  0  0  0  0  0  0  0  0  0
   50.8623   16.9190  -16.4556 N   0  0  0  0  0  0  0  0  0  0  0  0
   50.5428   18.3270  -16.5029 N   0  0  0  0  0  0  0  0  0  0  0  0
   50.8362   18.9324  -15.2255 N   0  0  0  0  0  0  0  0  0  0  0  0
   52.2632   18.7663  -14.8990 N   0  0  0  0  0  0  0  0  0  0  0  0
   53.0521   19.4103  -15.9664 C   0  0  0  0  0  0  0  0  0  0  0  0
   52.7453   20.8424  -16.0460 N   0  0  0  0  0  0  0  0  0  0  0  0
   53.0300   21.4446  -14.7507 C   0  0  0  0  0  0  0  0  0  0  0  0
   52.6930   22.9158  -14.8149 C   0  0  0  0  0  0  0  0  0  0  0  0
   53.0043   23.5756  -13.4847 C   0  0  0  0  0  0  0  0  0  0  0  0
   52.6722   25.0530  -13.5450 C   0  0  0  0  0  0  0  0  0  0  0  0
   52.9836   25.7122  -12.2168 C   0  0  0  0  0  0  0  0  0  0  0  0
   52.6511   27.1888  -12.2786 C   0  0  0  0  0  0  0  0  0  0  0  0
   52.9625   27.8476  -10.9507 C   0  0  0  0  0  0  0  0  0  0  0  0
   52.6300   29.3240  -11.0127 C   0  0  0  0  0  0  0  0  0  0  0  0
   52.9414   29.9827   -9.6849 C   0  0  0  0  0  0  0  0  0  0  0  0
   52.6089   31.4590   -9.7469 C   0  0  0  0  0  0  0  0  0  0  0  0
   52.9203   32.1177   -8.4191 C   0  0  0  0  0  0  0  0  0  0  0  0
   52.5878   33.5940   -8.4811 C   0  0  0  0  0  0  0  0  0  0  0  0
   52.9010   34.2531   -7.1539 C   0  0  0  0  0  0  0  0  0  0  0  0
   52.5685   35.7295   -7.2160 C   0  0  0  0  0  0  0  0  0  0  0  0
   52.8818   36.3885   -5.8888 C   0  0  0  0  0  0  0  0  0  0  0  0
   52.5493   37.8649   -5.9508 C   0  0  0  0  0  0  0  0  0  0  0  0
   52.8625   38.5240   -4.6236 C   0  0  0  0  0  0  0  0  0  0  0  0
   52.5300   40.0003   -4.6857 C   0  0  0  0  0  0  0  0  0  0  0  0
   52.8451   40.6598   -3.3591 C   0  0  0  0  0  0  0  0  0  0  0  0
   52.5126   42.1361   -3.4211 C   0  0  0  0  0  0  0  0  0  0  0  0
   52.8279   42.7955   -2.0942 C   0  0  0  0  0  0  0  0  0  0  0  0
   52.4937   44.2717   -2.1548 C   0  0  0  0  0  0  0  0  0  0  0  0
   52.8103   44.9347   -0.8282 C   0  0  0  0  0  0  0  0  0  0  0  0
   52.4754   46.4067   -0.8935 C   0  0  0  0  0  0  0  0  0  0  0  0
   29.8773   -3.4656    9.3511 H   0  0  0  0  0  0  0  0  0  0  0  0
   30.1567   -1.7937    8.5763 H   0  0  0  0  0  0  0  0  0  0  0  0
   31.2741   -4.4945    7.6739 H   0  0  0  0  0  0  0  0  0  0  0  0
   32.8526   -2.7187    6.6381 H   0  0  0  0  0  0  0  0  0  0  0  0
   31.5157   -1.5493    6.6857 H   0  0  0  0  0  0  0  0  0  0  0  0
   30.3033   -2.9432    5.1804 H   0  0  0  0  0  0  0  0  0  0  0  0
   32.9793   -2.3870    4.3017 H   0  0  0  0  0  0  0  0  0  0  0  0
   30.5200   -2.5924    2.8458 H   0  0  0  0  0  0  0  0  0  0  0  0
   33.2709   -2.0104    1.9897 H   0  0  0  0  0  0  0  0  0  0  0  0
   31.9263   -0.8439    2.0482 H   0  0  0  0  0  0  0  0  0  0  0  0
   30.6375   -2.2663    0.4597 H   0  0  0  0  0  0  0  0  0  0  0  0
   31.9825   -3.4217    0.4027 H   0  0  0  0  0  0  0  0  0  0  0  0
   33.4828   -1.6295   -0.4544 H   0  0  0  0  0  0  0  0  0  0  0  0
   32.1369   -0.4769   -0.3988 H   0  0  0  0  0  0  0  0  0  0  0  0
   30.8536   -1.8971   -1.9874 H   0  0  0  0  0  0  0  0  0  0  0  0
   32.1982   -3.0517   -2.0421 H   0  0  0  0  0  0  0  0  0  0  0  0
   33.6997   -1.2638   -2.9006 H   0  0  0  0  0  0  0  0  0  0  0  0
   32.3564   -0.1078   -2.8443 H   0  0  0  0  0  0  0  0  0  0  0  0
   31.0691   -1.5253   -4.4323 H   0  0  0  0  0  0  0  0  0  0  0  0
   32.4110   -2.6830   -4.4876 H   0  0  0  0  0  0  0  0  0  0  0  0
   33.9163   -0.8983   -5.3462 H   0  0  0  0  0  0  0  0  0  0  0  0
   32.5757    0.2607   -5.2892 H   0  0  0  0  0  0  0  0  0  0  0  0
   31.2844   -1.1549   -6.8766 H   0  0  0  0  0  0  0  0  0  0  0  0
   32.6250   -2.3139   -6.9335 H   0  0  0  0  0  0  0  0  0  0  0  0
   34.1316   -0.5279   -7.7904 H   0  0  0  0  0  0  0  0  0  0  0  0
   32.7897    0.6298   -7.7351 H   0  0  0  0  0  0  0  0  0  0  0  0
   31.5009   -0.7894   -9.3221 H   0  0  0  0  0  0  0  0  0  0  0  0
   32.8442   -1.9454   -9.3784 H   0  0  0  0  0  0  0  0  0  0  0  0
   34.3469   -0.1584  -10.2369 H   0  0  0  0  0  0  0  0  0  0  0  0
   33.0048    0.9988  -10.1789 H   0  0  0  0  0  0  0  0  0  0  0  0
   31.7148   -0.4164  -11.7669 H   0  0  0  0  0  0  0  0  0  0  0  0
   33.0555   -1.5754  -11.8239 H   0  0  0  0  0  0  0  0  0  0  0  0
   34.5617    0.2105  -12.6816 H   0  0  0  0  0  0  0  0  0  0  0  0
   33.2200    1.3679  -12.6263 H   0  0  0  0  0  0  0  0  0  0  0  0
   31.9302   -0.0510  -14.2132 H   0  0  0  0  0  0  0  0  0  0  0  0
   33.2744   -1.2078  -14.2704 H   0  0  0  0  0  0  0  0  0  0  0  0
   34.7740    0.5740  -15.1208 H   0  0  0  0  0  0  0  0  0  0  0  0
   33.4310    1.7378  -15.0721 H   0  0  0  0  0  0  0  0  0  0  0  0
   32.2280    0.3405  -16.6059 H   0  0  0  0  0  0  0  0  0  0  0  0
   33.5991    2.0808  -17.4637 H   0  0  0  0  0  0  0  0  0  0  0  0
   33.5221    0.6881  -18.5590 H   0  0  0  0  0  0  0  0  0  0  0  0
   35.5875   -0.0918  -17.6527 H   0  0  0  0  0  0  0  0  0  0  0  0
   35.6000    2.6193  -18.3991 H   0  0  0  0  0  0  0  0  0  0  0  0
   37.6034    0.5545  -18.6095 H   0  0  0  0  0  0  0  0  0  0  0  0
   37.6361    1.9918  -20.4324 H   0  0  0  0  0  0  0  0  0  0  0  0
   36.6109    3.8043  -19.4535 H   0  0  0  0  0  0  0  0  0  0  0  0
   37.6122    3.6024  -17.3539 H   0  0  0  0  0  0  0  0  0  0  0  0
   39.7325    3.0155  -18.1093 H   0  0  0  0  0  0  0  0  0  0  0  0
   39.8045    4.3477  -19.9477 H   0  0  0  0  0  0  0  0  0  0  0  0
   38.7422    6.2069  -19.0062 H   0  0  0  0  0  0  0  0  0  0  0  0
   39.7699    6.0730  -16.8656 H   0  0  0  0  0  0  0  0  0  0  0  0
   41.8799    5.4656  -17.5742 H   0  0  0  0  0  0  0  0  0  0  0  0
   42.0043    6.8485  -19.4186 H   0  0  0  0  0  0  0  0  0  0  0  0
   40.9126    8.6593  -18.5484 H   0  0  0  0  0  0  0  0  0  0  0  0
   41.8313    8.5469  -16.4041 H   0  0  0  0  0  0  0  0  0  0  0  0
   43.9866    7.9468  -17.0361 H   0  0  0  0  0  0  0  0  0  0  0  0
   44.1416    9.2616  -18.9055 H   0  0  0  0  0  0  0  0  0  0  0  0
   43.0558   11.0885  -18.0826 H   0  0  0  0  0  0  0  0  0  0  0  0
   43.8994   11.0064  -15.9259 H   0  0  0  0  0  0  0  0  0  0  0  0
   46.0758   10.3772  -16.4753 H   0  0  0  0  0  0  0  0  0  0  0  0
   46.3251   11.7019  -18.4092 H   0  0  0  0  0  0  0  0  0  0  0  0
   45.2560   13.6124  -17.5914 H   0  0  0  0  0  0  0  0  0  0  0  0
   46.0547   13.5327  -15.4455 H   0  0  0  0  0  0  0  0  0  0  0  0
   48.1885   12.8810  -15.9496 H   0  0  0  0  0  0  0  0  0  0  0  0
   48.4532   14.1148  -17.8547 H   0  0  0  0  0  0  0  0  0  0  0  0
   47.4039   16.0021  -17.1386 H   0  0  0  0  0  0  0  0  0  0  0  0
   48.1531   15.9800  -14.9894 H   0  0  0  0  0  0  0  0  0  0  0  0
   50.2639   15.2943  -15.4216 H   0  0  0  0  0  0  0  0  0  0  0  0
   50.6090   16.4653  -17.3447 H   0  0  0  0  0  0  0  0  0  0  0  0
   49.5399   18.4094  -16.7256 H   0  0  0  0  0  0  0  0  0  0  0  0
   50.2595   18.4742  -14.5004 H   0  0  0  0  0  0  0  0  0  0  0  0
   52.4664   17.7601  -14.8852 H   0  0  0  0  0  0  0  0  0  0  0  0
   52.8352   18.9271  -16.9330 H   0  0  0  0  0  0  0  0  0  0  0  0
   54.1127   19.2496  -15.7655 H   0  0  0  0  0  0  0  0  0  0  0  0
   51.7443   20.9558  -16.2407 H   0  0  0  0  0  0  0  0  0  0  0  0
   54.0901   21.3155  -14.5145 H   0  0  0  0  0  0  0  0  0  0  0  0
   52.4389   20.9774  -13.9525 H   0  0  0  0  0  0  0  0  0  0  0  0
   51.6301   23.0484  -15.0476 H   0  0  0  0  0  0  0  0  0  0  0  0
   53.2780   23.3955  -15.6071 H   0  0  0  0  0  0  0  0  0  0  0  0
   54.0665   23.4473  -13.2468 H   0  0  0  0  0  0  0  0  0  0  0  0
   52.4202   23.1000  -12.6884 H   0  0  0  0  0  0  0  0  0  0  0  0
   51.6100   25.1834  -13.7809 H   0  0  0  0  0  0  0  0  0  0  0  0
   53.2566   25.5308  -14.3393 H   0  0  0  0  0  0  0  0  0  0  0  0
   54.0458   25.5829  -11.9802 H   0  0  0  0  0  0  0  0  0  0  0  0
   52.3992   25.2355  -11.4217 H   0  0  0  0  0  0  0  0  0  0  0  0
   51.5889   27.3186  -12.5149 H   0  0  0  0  0  0  0  0  0  0  0  0
   53.2355   27.6660  -13.0734 H   0  0  0  0  0  0  0  0  0  0  0  0
   54.0247   27.7180  -10.7143 H   0  0  0  0  0  0  0  0  0  0  0  0
   52.3781   27.3706  -10.1558 H   0  0  0  0  0  0  0  0  0  0  0  0
   51.5678   29.4536  -11.2491 H   0  0  0  0  0  0  0  0  0  0  0  0
   53.2144   29.8010  -11.8076 H   0  0  0  0  0  0  0  0  0  0  0  0
   54.0036   29.8530   -9.4485 H   0  0  0  0  0  0  0  0  0  0  0  0
   52.3570   29.5056   -8.8900 H   0  0  0  0  0  0  0  0  0  0  0  0
   51.5467   31.5887   -9.9833 H   0  0  0  0  0  0  0  0  0  0  0  0
   53.1933   31.9360  -10.5418 H   0  0  0  0  0  0  0  0  0  0  0  0
   53.9825   31.9880   -8.1827 H   0  0  0  0  0  0  0  0  0  0  0  0
   52.3359   31.6407   -7.6242 H   0  0  0  0  0  0  0  0  0  0  0  0
   51.5253   33.7237   -8.7161 H   0  0  0  0  0  0  0  0  0  0  0  0
   53.1711   34.0708   -9.2770 H   0  0  0  0  0  0  0  0  0  0  0  0
   53.9635   34.1235   -6.9190 H   0  0  0  0  0  0  0  0  0  0  0  0
   52.3177   33.7764   -6.3581 H   0  0  0  0  0  0  0  0  0  0  0  0
   51.5060   35.8591   -7.4510 H   0  0  0  0  0  0  0  0  0  0  0  0
   53.1519   36.2062   -8.0118 H   0  0  0  0  0  0  0  0  0  0  0  0
   53.9443   36.2589   -5.6538 H   0  0  0  0  0  0  0  0  0  0  0  0
   52.2984   35.9118   -5.0929 H   0  0  0  0  0  0  0  0  0  0  0  0
   51.4868   37.9945   -6.1858 H   0  0  0  0  0  0  0  0  0  0  0  0
   53.1326   38.3416   -6.7466 H   0  0  0  0  0  0  0  0  0  0  0  0
   53.9250   38.3943   -4.3886 H   0  0  0  0  0  0  0  0  0  0  0  0
   52.2792   38.0472   -3.8278 H   0  0  0  0  0  0  0  0  0  0  0  0
   51.4672   40.1299   -4.9192 H   0  0  0  0  0  0  0  0  0  0  0  0
   53.1123   40.4768   -5.4824 H   0  0  0  0  0  0  0  0  0  0  0  0
   53.9080   40.5302   -3.1255 H   0  0  0  0  0  0  0  0  0  0  0  0
   52.2629   40.1833   -2.5623 H   0  0  0  0  0  0  0  0  0  0  0  0
   51.4498   42.2658   -3.6547 H   0  0  0  0  0  0  0  0  0  0  0  0
   53.0949   42.6126   -4.2179 H   0  0  0  0  0  0  0  0  0  0  0  0
   53.8910   42.6671   -1.8616 H   0  0  0  0  0  0  0  0  0  0  0  0
   52.2466   42.3181   -1.2974 H   0  0  0  0  0  0  0  0  0  0  0  0
   51.4303   44.3997   -2.3872 H   0  0  0  0  0  0  0  0  0  0  0  0
   53.0735   44.7484   -2.9536 H   0  0  0  0  0  0  0  0  0  0  0  0
   53.8733   44.8096   -0.5963 H   0  0  0  0  0  0  0  0  0  0  0  0
   52.2296   44.4608   -0.0297 H   0  0  0  0  0  0  0  0  0  0  0  0
   53.0600   46.8943   -1.6798 H   0  0  0  0  0  0  0  0  0  0  0  0
   52.7026   46.8860    0.0607 H   0  0  0  0  0  0  0  0  0  0  0  0
   51.4119   46.5446   -1.1117 H   0  0  0  0  0  0  0  0  0  0  0  0
  1  2  2  0  0  0  0
  1 81  1  0  0  0  0
  1 82  1  0  0  0  0
  2  3  1  0  0  0  0
  2 83  1  0  0  0  0
  3  4  1  0  0  0  0
  3 84  1  0  0  0  0
  3 85  1  0  0  0  0
  4  5  1  0  0  0  0
  4 86  1  0  0  0  0
  5  6  1  0  0  0  0
  5 87  1  0  0  0  0
  6  7  1  0  0  0  0
  6 88  1  0  0  0  0
  7  8  1  0  0  0  0
  7 89  1  0  0  0  0
  7 90  1  0  0  0  0
  8  9  1  0  0  0  0
  8 91  1  0  0  0  0
  8 92  1  0  0  0  0
  9 10  1  0  0  0  0
  9 93  1  0  0  0  0
  9 94  1  0  0  0  0
 10 11  1  0  0  0  0
 10 95  1  0  0  0  0
 10 96  1  0  0  0  0
 11 12  1  0  0  0  0
 11 97  1  0  0  0  0
 11 98  1  0  0  0  0
 12 13  1  0  0  0  0
 12 99  1  0  0  0  0
 12100  1  0  0  0  0
 13 14  1  0  0  0  0
 13101  1  0  0  0  0
 13102  1  0  0  0  0
 14 15  1  0  0  0  0
 14103  1  0  0  0  0
 14104  1  0  0  0  0
 15 16  1  0  0  0  0
 15105  1  0  0  0  0
 15106  1  0  0  0  0
 16 17  1  0  0  0  0
 16107  1  0  0  0  0
 16108  1  0  0  0  0
 17 18  1  0  0  0  0
 17109  1  0  0  0  0
 17110  1  0  0  0  0
 18 19  1  0  0  0  0
 18111  1  0  0  0  0
 18112  1  0  0  0  0
 19 20  1  0  0  0  0
 19113  1  0  0  0  0
 19114  1  0  0  0  0
 20 21  1  0  0  0  0
 20115  1  0  0  0  0
 20116  1  0  0  0  0
 21 22  1  0  0  0  0
 21117  1  0  0  0  0
 21118  1  0  0  0  0
 22 23  1  0  0  0  0
 22119  1  0  0  0  0
 23 24  1  0  0  0  0
 23120  1  0  0  0  0
 23121  1  0  0  0  0
 24 25  1  0  0  0  0
 24122  1  0  0  0  0
 25 26  1  0  0  0  0
 25123  1  0  0  0  0
 26 27  1  0  0  0  0
 26124  1  0  0  0  0
 27 28  1  0  0  0  0
 27125  1  0  0  0  0
 28 29  1  0  0  0  0
 28126  1  0  0  0  0
 29 30  1  0  0  0  0
 29127  1  0  0  0  0
 30 31  1  0  0  0  0
 30128  1  0  0  0  0
 31 32  1  0  0  0  0
 31129  1  0  0  0  0
 32 33  1  0  0  0  0
 32130  1  0  0  0  0
 33 34  1  0  0  0  0
 33131  1  0  0  0  0
 34 35  1  0  0  0  0
 34132  1  0  0  0  0
 35 36  1  0  0  0  0
 35133  1  0  0  0  0
 36 37  1  0  0  0  0
 36134  1  0  0  0  0
 37 38  1  0  0  0  0
 37135  1  0  0  0  0
 38 39  1  0  0  0  0
 38136  1  0  0  0  0
 39 40  1  0  0  0  0
 39137  1  0  0  0  0
 40 41  1  0  0  0  0
 40138  1  0  0  0  0
 41 42  1  0  0  0  0
 41139  1  0  0  0  0
 42 43  1  0  0  0  0
 42140  1  0  0  0  0
 43 44  1  0  0  0  0
 43141  1  0  0  0  0
 44 45  1  0  0  0  0
 44142  1  0  0  0  0
 45 46  1  0  0  0  0
 45143  1  0  0  0  0
 46 47  1  0  0  0  0
 46144  1  0  0  0  0
 47 48  1  0  0  0  0
 47145  1  0  0  0  0
 48 49  1  0  0  0  0
 48146  1  0  0  0  0
 49 50  1  0  0  0  0
 49147  1  0  0  0  0
 50 51  1  0  0  0  0
 50148  1  0  0  0  0
 51 52  1  0  0  0  0
 51149  1  0  0  0  0
 52 53  1  0  0  0  0
 52150  1  0  0  0  0
 53 54  1  0  0  0  0
 53151  1  0  0  0  0
 54 55  1  0  0  0  0
 54152  1  0  0  0  0
 55 56  1  0  0  0  0
 55153  1  0  0  0  0
 55154  1  0  0  0  0
 56 57  1  0  0  0  0
 56155  1  0  0  0  0
 57 58  1  0  0  0  0
 57156  1  0  0  0  0
 57157  1  0  0  0  0
 58 59  1  0  0  0  0
 58158  1  0  0  0  0
 58159  1  0  0  0  0
 59 60  1  0  0  0  0
 59160  1  0  0  0  0
 59161  1  0  0  0  0
 60 61  1  0  0  0  0
 60162  1  0  0  0  0
 60163  1  0  0  0  0
 61 62  1  0  0  0  0
 61164  1  0  0  0  0
 61165  1  0  0  0  0
 62 63  1  0  0  0  0
 62166  1  0  0  0  0
 62167  1  0  0  0  0
 63 64  1  0  0  0  0
 63168  1  0  0  0  0
 63169  1  0  0  0  0
 64 65  1  0  0  0  0
 64170  1  0  0  0  0
 64171  1  0  0  0  0
 65 66  1  0  0  0  0
 65172  1  0  0  0  0
 65173  1  0  0  0  0
 66 67  1  0  0  0  0
 66174  1  0  0  0  0
 66175  1  0  0  0  0
 67 68  1  0  0  0  0
 67176  1  0  0  0  0
 67177  1  0  0  0  0
 68 69  1  0  0  0  0
 68178  1  0  0  0  0
 68179  1  0  0  0  0
 69 70  1  0  0  0  0
 69180  1  0  0  0  0
 69181  1  0  0  0  0
 70 71  1  0  0  0  0
 70182  1  0  0  0  0
 70183  1  0  0  0  0
 71 72  1  0  0  0  0
 71184  1  0  0  0  0
 71185  1  0  0  0  0
 72 73  1  0  0  0  0
 72186  1  0  0  0  0
 72187  1  0  0  0  0
 73 74  1  0  0  0  0
 73188  1  0  0  0  0
 73189  1  0  0  0  0
 74 75  1  0  0  0  0
 74190  1  0  0  0  0
 74191  1  0  0  0  0
 75 76  1  0  0  0  0
 75192  1  0  0  0  0
 75193  1  0  0  0  0
 76 77  1  0  0  0  0
 76194  1  0  0  0  0
 76195  1  0  0  0  0
 77 78  1  0  0  0  0
 77196  1  0  0  0  0
 77197  1  0  0  0  0
 78 79  1  0  0  0  0
 78198  1  0  0  0  0
 78199  1  0  0  0  0
 79 80  1  0  0  0  0
 79200  1  0  0  0  0
 79201  1  0  0  0  0
 80202  1  0  0  0  0
 80203  1  0  0  0  0
 80204  1  0  0  0  0
M  END
$$$$
