
 OpenBabel04232216423D

 47 48  0  0  1  0  0  0  0  0999 V2000
    3.3358    4.5783    3.8642 C   0  0  0  0  0  0  0  0  0  0  0  0
    2.8513    3.6644    2.9949 C   0  0  0  0  0  0  0  0  0  0  0  0
    3.5152    2.4733    2.4408 C   0  0  0  0  0  0  0  0  0  0  0  0
    3.3285    1.0855    2.9960 C   0  0  0  0  0  0  0  0  0  0  0  0
    4.7774    0.9363    3.4235 C   0  0  3  0  0  0  0  0  0  0  0  0
    5.3843   -0.4564    3.5895 C   0  0  0  0  0  0  0  0  0  0  0  0
    4.6786   -1.3410    4.6229 C   0  0  0  0  0  0  0  0  0  0  0  0
    5.5533   -2.5599    4.9464 C   0  0  0  0  0  0  0  0  0  0  0  0
    4.9067   -3.5065    5.9431 C   0  0  0  0  0  0  0  0  0  0  0  0
    4.5265    2.5448    1.6400 N   0  0  0  0  0  0  0  0  0  0  0  0
    5.4538    1.7846    2.3314 C   0  0  0  0  0  0  0  0  0  0  0  0
    6.6428    2.3966    2.4490 C   0  0  0  0  0  0  0  0  0  0  0  0
    7.2744    2.5329    3.7361 C   0  0  0  0  0  0  0  0  0  0  0  0
    7.9036    3.6639    4.0705 C   0  0  0  0  0  0  0  0  0  0  0  0
    8.2980    3.9343    5.4300 C   0  0  0  0  0  0  0  0  0  0  0  0
    9.0603    4.9918    5.7265 C   0  0  0  0  0  0  0  0  0  0  0  0
    9.0829    5.4717    7.1391 C   0  0  0  0  0  0  0  0  0  0  0  0
    9.1666    4.7560    8.1160 O   0  0  0  0  0  0  0  0  0  0  0  0
    8.7325    6.9363    7.1773 C   0  0  0  0  0  0  0  0  0  0  0  0
    7.4124    7.0316    7.4568 C   0  0  0  0  0  0  0  0  0  0  0  0
    6.4412    7.0250    6.3480 C   0  0  0  0  0  0  0  0  0  0  0  0
    5.6837    5.9358    6.0815 C   0  0  0  0  0  0  0  0  0  0  0  0
    4.7690    5.8147    5.0542 N   0  0  0  0  0  0  0  0  0  0  0  0
    4.5091    4.6512    4.6140 N   0  0  0  0  0  0  0  0  0  0  0  0
    2.6780    5.4286    4.0574 H   0  0  0  0  0  0  0  0  0  0  0  0
    1.8827    3.8578    2.5521 H   0  0  0  0  0  0  0  0  0  0  0  0
    3.0677    0.3937    2.1803 H   0  0  0  0  0  0  0  0  0  0  0  0
    2.5859    1.0176    3.7907 H   0  0  0  0  0  0  0  0  0  0  0  0
    4.8544    1.4546    4.3881 H   0  0  0  0  0  0  0  0  0  0  0  0
    6.4190   -0.3198    3.9322 H   0  0  0  0  0  0  0  0  0  0  0  0
    5.4539   -0.9821    2.6308 H   0  0  0  0  0  0  0  0  0  0  0  0
    3.7069   -1.6649    4.2337 H   0  0  0  0  0  0  0  0  0  0  0  0
    4.4923   -0.7742    5.5435 H   0  0  0  0  0  0  0  0  0  0  0  0
    6.5136   -2.2237    5.3576 H   0  0  0  0  0  0  0  0  0  0  0  0
    5.7753   -3.1094    4.0243 H   0  0  0  0  0  0  0  0  0  0  0  0
    4.7275   -3.0100    6.9017 H   0  0  0  0  0  0  0  0  0  0  0  0
    5.5651   -4.3628    6.1263 H   0  0  0  0  0  0  0  0  0  0  0  0
    3.9542   -3.8880    5.5641 H   0  0  0  0  0  0  0  0  0  0  0  0
    6.8850    3.1494    1.6978 H   0  0  0  0  0  0  0  0  0  0  0  0
    7.0769    1.7922    4.5018 H   0  0  0  0  0  0  0  0  0  0  0  0
    7.9985    4.4710    3.3422 H   0  0  0  0  0  0  0  0  0  0  0  0
    7.8338    3.3438    6.2201 H   0  0  0  0  0  0  0  0  0  0  0  0
    9.4284    5.6510    4.9476 H   0  0  0  0  0  0  0  0  0  0  0  0
    9.1509    7.4614    6.3193 H   0  0  0  0  0  0  0  0  0  0  0  0
    7.0604    6.4855    8.3369 H   0  0  0  0  0  0  0  0  0  0  0  0
    6.4047    7.9071    5.7125 H   0  0  0  0  0  0  0  0  0  0  0  0
    5.7644    5.0712    6.7384 H   0  0  0  0  0  0  0  0  0  0  0  0
  1  2  2  3  0  0  0
  1 24  1  0  0  0  0
  1 25  1  0  0  0  0
  2  3  1  0  0  0  0
  2 26  1  0  0  0  0
  3  4  1  0  0  0  0
  3 10  2  0  0  0  0
  4  5  1  0  0  0  0
  4 27  1  0  0  0  0
  4 28  1  0  0  0  0
  5  6  1  0  0  0  0
  5 11  1  0  0  0  0
  5 29  1  0  0  0  0
  6  7  1  0  0  0  0
  6 30  1  0  0  0  0
  6 31  1  0  0  0  0
  7  8  1  0  0  0  0
  7 32  1  0  0  0  0
  7 33  1  0  0  0  0
  8  9  1  0  0  0  0
  8 34  1  0  0  0  0
  8 35  1  0  0  0  0
  9 36  1  0  0  0  0
  9 37  1  0  0  0  0
  9 38  1  0  0  0  0
 10 11  1  0  0  0  0
 11 12  2  3  0  0  0
 12 13  1  0  0  0  0
 12 39  1  0  0  0  0
 13 14  2  3  0  0  0
 13 40  1  0  0  0  0
 14 15  1  0  0  0  0
 14 41  1  0  0  0  0
 15 16  2  3  0  0  0
 15 42  1  0  0  0  0
 16 17  1  0  0  0  0
 16 43  1  0  0  0  0
 17 18  2  0  0  0  0
 17 19  1  0  0  0  0
 19 20  2  3  0  0  0
 19 44  1  0  0  0  0
 20 21  1  0  0  0  0
 20 45  1  0  0  0  0
 21 22  2  3  0  0  0
 21 46  1  0  0  0  0
 22 23  1  0  0  0  0
 22 47  1  0  0  0  0
 23 24  2  3  0  0  0
M  END
$$$$
