
 OpenBabel04232216473D

 87 87  0  0  1  0  0  0  0  0999 V2000
    5.5008   -6.1530    3.8934 C   0  0  0  0  0  0  0  0  0  0  0  0
    6.6648   -5.9442    3.0000 C   0  0  3  0  0  0  0  0  0  0  0  0
    7.1061   -4.7040    2.7058 C   0  0  0  0  0  0  0  0  0  0  0  0
    6.3536   -5.1043    1.6744 C   0  0  0  0  0  0  0  0  0  0  0  0
    5.5599   -6.0948    1.1037 O   0  0  0  0  0  0  0  0  0  0  0  0
    5.0283   -5.7007   -0.1949 O   0  0  0  0  0  0  0  0  0  0  0  0
    3.5493   -5.8116   -0.2432 O   0  0  0  0  0  0  0  0  0  0  0  0
    3.0236   -5.4357   -1.5786 O   0  0  0  0  0  0  0  0  0  0  0  0
    3.4739   -6.4513   -2.4517 C   0  0  0  0  0  0  0  0  0  0  0  0
    2.9683   -7.6518   -1.9669 O   0  0  0  0  0  0  0  0  0  0  0  0
    3.4840   -8.5939   -2.8607 O   0  0  0  0  0  0  0  0  0  0  0  0
    3.0127   -9.8291   -2.4106 O   0  0  0  0  0  0  0  0  0  0  0  0
    3.4887  -10.7943   -3.2730 O   0  0  0  0  0  0  0  0  0  0  0  0
    2.9959  -11.9910   -2.7847 O   0  0  0  0  0  0  0  0  0  0  0  0
    3.4801  -12.9543   -3.6584 O   0  0  0  0  0  0  0  0  0  0  0  0
    2.9976  -14.1439   -3.1836 O   0  0  0  0  0  0  0  0  0  0  0  0
    3.4763  -15.0887   -4.0459 O   0  0  0  0  0  0  0  0  0  0  0  0
    2.9964  -16.2796   -3.5751 O   0  0  0  0  0  0  0  0  0  0  0  0
    3.4786  -17.2185   -4.4414 O   0  0  0  0  0  0  0  0  0  0  0  0
    2.9969  -18.4035   -3.9668 O   0  0  0  0  0  0  0  0  0  0  0  0
    3.4794  -19.3391   -4.8330 O   0  0  0  0  0  0  0  0  0  0  0  0
    2.9970  -20.5221   -4.3571 O   0  0  0  0  0  0  0  0  0  0  0  0
    3.4778  -21.4587   -5.2209 O   0  0  0  0  0  0  0  0  0  0  0  0
    2.9955  -22.6409   -4.7450 O   0  0  0  0  0  0  0  0  0  0  0  0
    3.4779  -23.5778   -5.6112 O   0  0  0  0  0  0  0  0  0  0  0  0
    2.9969  -24.7613   -5.1374 O   0  0  0  0  0  0  0  0  0  0  0  0
    3.4786  -25.6965   -6.0023 O   0  0  0  0  0  0  0  0  0  0  0  0
    2.9812  -26.8448   -5.4985 O   0  0  0  0  0  0  0  0  0  0  0  0
    3.4785  -27.8163   -6.3924 O   0  0  0  0  0  0  0  0  0  0  0  0
    2.9975  -29.0018   -5.9191 O   0  0  0  0  0  0  0  0  0  0  0  0
    3.4792  -29.9400   -6.7844 O   0  0  0  0  0  0  0  0  0  0  0  0
    2.9974  -31.1235   -6.3095 O   0  0  0  0  0  0  0  0  0  0  0  0
    3.4669  -32.0649   -7.1579 O   0  0  0  0  0  0  0  0  0  0  0  0
    2.9981  -33.2438   -6.7009 O   0  0  0  0  0  0  0  0  0  0  0  0
    3.4707  -34.1907   -7.5549 O   0  0  0  0  0  0  0  0  0  0  0  0
    2.9973  -35.3634   -7.0901 O   0  0  0  0  0  0  0  0  0  0  0  0
    3.4792  -36.2999   -7.9554 O   0  0  0  0  0  0  0  0  0  0  0  0
    2.9974  -37.4833   -7.4804 O   0  0  0  0  0  0  0  0  0  0  0  0
    3.4792  -38.4199   -8.3458 O   0  0  0  0  0  0  0  0  0  0  0  0
    2.9974  -39.6032   -7.8707 O   0  0  0  0  0  0  0  0  0  0  0  0
    3.4792  -40.5398   -8.7361 O   0  0  0  0  0  0  0  0  0  0  0  0
    2.9974  -41.7231   -8.2611 O   0  0  0  0  0  0  0  0  0  0  0  0
    3.4792  -42.6597   -9.1264 O   0  0  0  0  0  0  0  0  0  0  0  0
    2.9974  -43.8430   -8.6514 O   0  0  0  0  0  0  0  0  0  0  0  0
    3.4792  -44.7796   -9.5167 O   0  0  0  0  0  0  0  0  0  0  0  0
    2.9974  -45.9630   -9.0417 O   0  0  0  0  0  0  0  0  0  0  0  0
    3.4793  -46.8995   -9.9070 O   0  0  0  0  0  0  0  0  0  0  0  0
    2.9974  -48.0829   -9.4320 O   0  0  0  0  0  0  0  0  0  0  0  0
    3.4793  -49.0194  -10.2974 O   0  0  0  0  0  0  0  0  0  0  0  0
    2.9974  -50.2028   -9.8223 O   0  0  0  0  0  0  0  0  0  0  0  0
    3.4793  -51.1393  -10.6877 O   0  0  0  0  0  0  0  0  0  0  0  0
    2.9974  -52.3227  -10.2127 O   0  0  0  0  0  0  0  0  0  0  0  0
    3.4793  -53.2593  -11.0780 O   0  0  0  0  0  0  0  0  0  0  0  0
    2.9974  -54.4426  -10.6030 O   0  0  0  0  0  0  0  0  0  0  0  0
    3.4793  -55.3792  -11.4683 O   0  0  0  0  0  0  0  0  0  0  0  0
    2.9974  -56.5625  -10.9933 O   0  0  0  0  0  0  0  0  0  0  0  0
    3.4793  -57.4991  -11.8587 O   0  0  0  0  0  0  0  0  0  0  0  0
    2.9975  -58.6824  -11.3836 O   0  0  0  0  0  0  0  0  0  0  0  0
    3.4793  -59.6190  -12.2489 O   0  0  0  0  0  0  0  0  0  0  0  0
    2.9978  -60.8033  -11.7746 O   0  0  0  0  0  0  0  0  0  0  0  0
    3.4864  -61.7434  -12.6503 O   0  0  0  0  0  0  0  0  0  0  0  0
    2.9980  -62.9230  -12.1652 O   0  0  0  0  0  0  0  0  0  0  0  0
    3.4795  -63.8597  -13.0301 O   0  0  0  0  0  0  0  0  0  0  0  0
    2.9978  -65.0433  -12.5553 O   0  0  0  0  0  0  0  0  0  0  0  0
    3.4797  -65.9801  -13.4207 O   0  0  0  0  0  0  0  0  0  0  0  0
    2.9987  -67.1628  -12.9468 O   0  0  0  0  0  0  0  0  0  0  0  0
    3.4834  -68.1002  -13.8164 O   0  0  0  0  0  0  0  0  0  0  0  0
    2.9976  -69.2814  -13.3353 O   0  0  0  0  0  0  0  0  0  0  0  0
    3.4712  -70.2258  -14.1902 O   0  0  0  0  0  0  0  0  0  0  0  0
    2.9870  -71.4033  -13.7106 O   0  0  0  0  0  0  0  0  0  0  0  0
    3.4658  -72.3473  -14.5731 O   0  0  0  0  0  0  0  0  0  0  0  0
    2.9890  -73.5439  -14.1077 O   0  0  0  0  0  0  0  0  0  0  0  0
    3.4873  -74.4739  -14.9956 O   0  0  0  0  0  0  0  0  0  0  0  0
    3.0158  -75.6705  -14.5374 O   0  0  0  0  0  0  0  0  0  0  0  0
    3.5044  -76.6241  -15.4145 O   0  0  0  0  0  0  0  0  0  0  0  0
    3.0054  -77.8381  -14.9431 O   0  0  0  0  0  0  0  0  0  0  0  0
    3.4726  -78.8429  -15.8284 O   0  0  0  0  0  0  0  0  0  0  0  0
    3.0087  -80.0840  -15.3389 O   0  0  0  0  0  0  0  0  0  0  0  0
    3.5160  -80.2991  -13.9964 O   0  0  0  0  0  0  0  0  0  0  0  0
    5.8138   -6.4354    4.8983 H   0  0  0  0  0  0  0  0  0  0  0  0
    4.8908   -6.9505    3.4667 H   0  0  0  0  0  0  0  0  0  0  0  0
    4.8880   -5.2446    3.9690 H   0  0  0  0  0  0  0  0  0  0  0  0
    7.3041   -6.7850    2.7888 H   0  0  0  0  0  0  0  0  0  0  0  0
    7.7217   -4.0953    3.3539 H   0  0  0  0  0  0  0  0  0  0  0  0
    4.5730   -6.4943   -2.4763 H   0  0  0  0  0  0  0  0  0  0  0  0
    3.1129   -6.3033   -3.4787 H   0  0  0  0  0  0  0  0  0  0  0  0
    3.0857  -81.1436  -13.9088 H   0  0  0  0  0  0  0  0  0  0  0  0
  1  2  1  0  0  0  0
  1 80  1  0  0  0  0
  1 81  1  0  0  0  0
  1 82  1  0  0  0  0
  2  3  1  0  0  0  0
  2  4  1  0  0  0  0
  2 83  1  0  0  0  0
  3  4  2  0  0  0  0
  3 84  1  0  0  0  0
  4  5  1  0  0  0  0
  5  6  1  0  0  0  0
  6  7  1  0  0  0  0
  7  8  1  0  0  0  0
  8  9  1  0  0  0  0
  9 10  1  0  0  0  0
  9 85  1  0  0  0  0
  9 86  1  0  0  0  0
 10 11  1  0  0  0  0
 11 12  1  0  0  0  0
 12 13  1  0  0  0  0
 13 14  1  0  0  0  0
 14 15  1  0  0  0  0
 15 16  1  0  0  0  0
 16 17  1  0  0  0  0
 17 18  1  0  0  0  0
 18 19  1  0  0  0  0
 19 20  1  0  0  0  0
 20 21  1  0  0  0  0
 21 22  1  0  0  0  0
 22 23  1  0  0  0  0
 23 24  1  0  0  0  0
 24 25  1  0  0  0  0
 25 26  1  0  0  0  0
 26 27  1  0  0  0  0
 27 28  1  0  0  0  0
 28 29  1  0  0  0  0
 29 30  1  0  0  0  0
 30 31  1  0  0  0  0
 31 32  1  0  0  0  0
 32 33  1  0  0  0  0
 33 34  1  0  0  0  0
 34 35  1  0  0  0  0
 35 36  1  0  0  0  0
 36 37  1  0  0  0  0
 37 38  1  0  0  0  0
 38 39  1  0  0  0  0
 39 40  1  0  0  0  0
 40 41  1  0  0  0  0
 41 42  1  0  0  0  0
 42 43  1  0  0  0  0
 43 44  1  0  0  0  0
 44 45  1  0  0  0  0
 45 46  1  0  0  0  0
 46 47  1  0  0  0  0
 47 48  1  0  0  0  0
 48 49  1  0  0  0  0
 49 50  1  0  0  0  0
 50 51  1  0  0  0  0
 51 52  1  0  0  0  0
 52 53  1  0  0  0  0
 53 54  1  0  0  0  0
 54 55  1  0  0  0  0
 55 56  1  0  0  0  0
 56 57  1  0  0  0  0
 57 58  1  0  0  0  0
 58 59  1  0  0  0  0
 59 60  1  0  0  0  0
 60 61  1  0  0  0  0
 61 62  1  0  0  0  0
 62 63  1  0  0  0  0
 63 64  1  0  0  0  0
 64 65  1  0  0  0  0
 65 66  1  0  0  0  0
 66 67  1  0  0  0  0
 67 68  1  0  0  0  0
 68 69  1  0  0  0  0
 69 70  1  0  0  0  0
 70 71  1  0  0  0  0
 71 72  1  0  0  0  0
 72 73  1  0  0  0  0
 73 74  1  0  0  0  0
 74 75  1  0  0  0  0
 75 76  1  0  0  0  0
 76 77  1  0  0  0  0
 77 78  1  0  0  0  0
 78 79  1  0  0  0  0
 79 87  1  0  0  0  0
M  END
$$$$
