
 OpenBabel04232216543D

237236  0  0  0  0  0  0  0  0999 V2000
    0.9838   -0.1065   -0.0221 C   0  0  0  0  0  0  0  0  0  0  0  0
    2.4975   -0.1011   -0.0126 C   0  0  0  0  0  0  0  0  0  0  0  0
    3.0147    1.3202   -0.1848 C   0  0  0  0  0  0  0  0  0  0  0  0
    4.5320    1.3248   -0.1771 C   0  0  0  0  0  0  0  0  0  0  0  0
    4.9847    2.6999   -0.3437 N   0  0  0  0  0  0  0  0  0  0  0  0
    6.4181    2.6893   -0.3348 N   0  0  0  0  0  0  0  0  0  0  0  0
    6.9146    4.0186   -0.4980 N   0  0  0  0  0  0  0  0  0  0  0  0
    8.3427    4.0413   -0.4907 N   0  0  0  0  0  0  0  0  0  0  0  0
    8.8245    5.3688   -0.6536 N   0  0  0  0  0  0  0  0  0  0  0  0
   10.2393    5.3706   -0.6426 N   0  0  0  0  0  0  0  0  0  0  0  0
   10.7165    6.6934   -0.8027 N   0  0  0  0  0  0  0  0  0  0  0  0
   12.1404    6.6902   -0.7926 N   0  0  0  0  0  0  0  0  0  0  0  0
   12.6095    8.0649   -0.9575 C   0  0  0  0  0  0  0  0  0  0  0  0
   14.1257    8.0648   -0.9452 C   0  0  0  0  0  0  0  0  0  0  0  0
   14.6385    9.4846   -1.1152 C   0  0  0  0  0  0  0  0  0  0  0  0
   16.1551    9.4933   -1.1060 C   0  0  0  0  0  0  0  0  0  0  0  0
   16.6662   10.9116   -1.2737 C   0  0  0  0  0  0  0  0  0  0  0  0
   18.1826   10.9187   -1.2664 C   0  0  0  0  0  0  0  0  0  0  0  0
   18.6936   12.3367   -1.4321 C   0  0  0  0  0  0  0  0  0  0  0  0
   20.2097   12.3430   -1.4267 C   0  0  0  0  0  0  0  0  0  0  0  0
   20.7204   13.7611   -1.5904 C   0  0  0  0  0  0  0  0  0  0  0  0
   22.2364   13.7671   -1.5870 C   0  0  0  0  0  0  0  0  0  0  0  0
   22.7470   15.1850   -1.7526 C   0  0  0  0  0  0  0  0  0  0  0  0
   24.2631   15.1908   -1.7513 C   0  0  0  0  0  0  0  0  0  0  0  0
   24.7737   16.6086   -1.9169 C   0  0  0  0  0  0  0  0  0  0  0  0
   26.2898   16.6142   -1.9175 C   0  0  0  0  0  0  0  0  0  0  0  0
   26.8004   18.0320   -2.0832 C   0  0  0  0  0  0  0  0  0  0  0  0
   28.3164   18.0376   -2.0838 C   0  0  0  0  0  0  0  0  0  0  0  0
   28.8270   19.4554   -2.2494 C   0  0  0  0  0  0  0  0  0  0  0  0
   30.3431   19.4609   -2.2501 C   0  0  0  0  0  0  0  0  0  0  0  0
   30.8537   20.8788   -2.4157 C   0  0  0  0  0  0  0  0  0  0  0  0
   32.3698   20.8843   -2.4164 C   0  0  0  0  0  0  0  0  0  0  0  0
   32.8804   22.3022   -2.5820 C   0  0  0  0  0  0  0  0  0  0  0  0
   34.3964   22.3080   -2.5806 C   0  0  0  0  0  0  0  0  0  0  0  0
   34.9070   23.7258   -2.7463 C   0  0  0  0  0  0  0  0  0  0  0  0
   36.4231   23.7313   -2.7469 C   0  0  0  0  0  0  0  0  0  0  0  0
   36.9337   25.1490   -2.9145 C   0  0  0  0  0  0  0  0  0  0  0  0
   38.4497   25.1547   -2.9132 C   0  0  0  0  0  0  0  0  0  0  0  0
   38.9603   26.5726   -3.0788 C   0  0  0  0  0  0  0  0  0  0  0  0
   40.4764   26.5781   -3.0794 C   0  0  0  0  0  0  0  0  0  0  0  0
   40.9870   27.9962   -3.2431 C   0  0  0  0  0  0  0  0  0  0  0  0
   42.5031   28.0018   -3.2437 C   0  0  0  0  0  0  0  0  0  0  0  0
   43.0137   29.4199   -3.4073 C   0  0  0  0  0  0  0  0  0  0  0  0
   44.5297   29.4254   -3.4080 C   0  0  0  0  0  0  0  0  0  0  0  0
   45.0403   30.8435   -3.5716 C   0  0  0  0  0  0  0  0  0  0  0  0
   46.5564   30.8490   -3.5722 C   0  0  0  0  0  0  0  0  0  0  0  0
   47.0670   32.2671   -3.7359 C   0  0  0  0  0  0  0  0  0  0  0  0
   48.5831   32.2726   -3.7365 C   0  0  0  0  0  0  0  0  0  0  0  0
   49.0937   33.6907   -3.9001 C   0  0  0  0  0  0  0  0  0  0  0  0
   50.6097   33.6960   -3.9028 C   0  0  0  0  0  0  0  0  0  0  0  0
   51.1203   35.1141   -4.0664 C   0  0  0  0  0  0  0  0  0  0  0  0
   52.6364   35.1192   -4.0711 C   0  0  0  0  0  0  0  0  0  0  0  0
   53.1470   36.5371   -4.2367 C   0  0  0  0  0  0  0  0  0  0  0  0
   54.6630   36.5419   -4.2433 C   0  0  0  0  0  0  0  0  0  0  0  0
   55.1736   37.9600   -4.4070 C   0  0  0  0  0  0  0  0  0  0  0  0
   56.6897   37.9646   -4.4156 C   0  0  0  0  0  0  0  0  0  0  0  0
   57.2003   39.3829   -4.5773 C   0  0  0  0  0  0  0  0  0  0  0  0
   58.7163   39.3878   -4.5839 C   0  0  0  0  0  0  0  0  0  0  0  0
   59.2269   40.8061   -4.7455 C   0  0  0  0  0  0  0  0  0  0  0  0
   60.7430   40.8107   -4.7542 C   0  0  0  0  0  0  0  0  0  0  0  0
   61.2536   42.2290   -4.9158 C   0  0  0  0  0  0  0  0  0  0  0  0
   62.7696   42.2336   -4.9245 C   0  0  0  0  0  0  0  0  0  0  0  0
   63.2802   43.6519   -5.0861 C   0  0  0  0  0  0  0  0  0  0  0  0
   64.7963   43.6566   -5.0947 C   0  0  0  0  0  0  0  0  0  0  0  0
   65.3069   45.0749   -5.2564 C   0  0  0  0  0  0  0  0  0  0  0  0
   66.8229   45.0795   -5.2650 C   0  0  0  0  0  0  0  0  0  0  0  0
   67.3335   46.4978   -5.4266 C   0  0  0  0  0  0  0  0  0  0  0  0
   68.8496   46.5024   -5.4353 C   0  0  0  0  0  0  0  0  0  0  0  0
   69.3602   47.9207   -5.5969 C   0  0  0  0  0  0  0  0  0  0  0  0
   70.8762   47.9251   -5.6076 C   0  0  0  0  0  0  0  0  0  0  0  0
   71.3868   49.3434   -5.7692 C   0  0  0  0  0  0  0  0  0  0  0  0
   72.9029   49.3478   -5.7799 C   0  0  0  0  0  0  0  0  0  0  0  0
   73.4135   50.7661   -5.9415 C   0  0  0  0  0  0  0  0  0  0  0  0
   74.9295   50.7705   -5.9521 C   0  0  0  0  0  0  0  0  0  0  0  0
   75.4401   52.1889   -6.1138 C   0  0  0  0  0  0  0  0  0  0  0  0
   76.9563   52.1932   -6.1264 C   0  0  0  0  0  0  0  0  0  0  0  0
   77.4675   53.6117   -6.2881 C   0  0  0  0  0  0  0  0  0  0  0  0
   78.9846   53.6164   -6.3008 C   0  0  0  0  0  0  0  0  0  0  0  0
   79.4978   55.0355   -6.4605 C   0  0  0  0  0  0  0  0  0  0  0  0
   81.0177   55.0459   -6.4759 C   0  0  0  0  0  0  0  0  0  0  0  0
   81.5270   56.4627   -6.6353 C   0  0  0  0  0  0  0  0  0  0  0  0
    0.6051   -1.1237    0.1011 H   0  0  0  0  0  0  0  0  0  0  0  0
    0.6023    0.2926   -0.9681 H   0  0  0  0  0  0  0  0  0  0  0  0
    0.5909    0.5104    0.7929 H   0  0  0  0  0  0  0  0  0  0  0  0
    2.8737   -0.7342   -0.8248 H   0  0  0  0  0  0  0  0  0  0  0  0
    2.8627   -0.5180    0.9334 H   0  0  0  0  0  0  0  0  0  0  0  0
    2.6328    1.9560    0.6260 H   0  0  0  0  0  0  0  0  0  0  0  0
    2.6445    1.7401   -1.1308 H   0  0  0  0  0  0  0  0  0  0  0  0
    4.9047    0.6976   -0.9950 H   0  0  0  0  0  0  0  0  0  0  0  0
    4.9011    0.9127    0.7698 H   0  0  0  0  0  0  0  0  0  0  0  0
    4.5950    3.2463    0.4307 H   0  0  0  0  0  0  0  0  0  0  0  0
    6.7480    2.0771   -1.0961 H   0  0  0  0  0  0  0  0  0  0  0  0
    6.5575    4.6123    0.2629 H   0  0  0  0  0  0  0  0  0  0  0  0
    8.7310    3.4834   -1.2587 H   0  0  0  0  0  0  0  0  0  0  0  0
    8.5106    5.9744    0.1061 H   0  0  0  0  0  0  0  0  0  0  0  0
   10.5994    4.7902   -1.4004 H   0  0  0  0  0  0  0  0  0  0  0  0
   10.3605    7.2627   -0.0326 H   0  0  0  0  0  0  0  0  0  0  0  0
   12.4795    6.1254   -1.5717 H   0  0  0  0  0  0  0  0  0  0  0  0
   12.2375    8.6873   -0.1346 H   0  0  0  0  0  0  0  0  0  0  0  0
   12.2430    8.4852   -1.9017 H   0  0  0  0  0  0  0  0  0  0  0  0
   14.5107    7.4346   -1.7565 H   0  0  0  0  0  0  0  0  0  0  0  0
   14.4960    7.6507    0.0013 H   0  0  0  0  0  0  0  0  0  0  0  0
   14.2591   10.1184   -0.3043 H   0  0  0  0  0  0  0  0  0  0  0  0
   14.2706    9.9034   -2.0599 H   0  0  0  0  0  0  0  0  0  0  0  0
   16.5359    8.8632   -1.9187 H   0  0  0  0  0  0  0  0  0  0  0  0
   16.5243    9.0752   -0.1617 H   0  0  0  0  0  0  0  0  0  0  0  0
   16.2879   11.5430   -0.4605 H   0  0  0  0  0  0  0  0  0  0  0  0
   16.2973   11.3316   -2.2175 H   0  0  0  0  0  0  0  0  0  0  0  0
   18.5619   10.2893   -2.0807 H   0  0  0  0  0  0  0  0  0  0  0  0
   18.5525   10.4980   -0.3234 H   0  0  0  0  0  0  0  0  0  0  0  0
   18.3160   12.9661   -0.6170 H   0  0  0  0  0  0  0  0  0  0  0  0
   18.3231   12.7582   -2.3745 H   0  0  0  0  0  0  0  0  0  0  0  0
   20.5875   11.7149   -2.2427 H   0  0  0  0  0  0  0  0  0  0  0  0
   20.5804   11.9203   -0.4850 H   0  0  0  0  0  0  0  0  0  0  0  0
   20.3438   14.3889   -0.7736 H   0  0  0  0  0  0  0  0  0  0  0  0
   20.3485   14.1844   -2.5314 H   0  0  0  0  0  0  0  0  0  0  0  0
   22.6130   13.1382   -2.4029 H   0  0  0  0  0  0  0  0  0  0  0  0
   22.6083   13.3452   -0.6453 H   0  0  0  0  0  0  0  0  0  0  0  0
   22.3717   15.8136   -0.9359 H   0  0  0  0  0  0  0  0  0  0  0  0
   22.3740   15.6075   -2.6936 H   0  0  0  0  0  0  0  0  0  0  0  0
   24.6385   14.5622   -2.5680 H   0  0  0  0  0  0  0  0  0  0  0  0
   24.6361   14.7683   -0.8103 H   0  0  0  0  0  0  0  0  0  0  0  0
   24.3995   17.2369   -1.0994 H   0  0  0  0  0  0  0  0  0  0  0  0
   24.3995   17.0316   -2.8572 H   0  0  0  0  0  0  0  0  0  0  0  0
   26.6640   15.9859   -2.7350 H   0  0  0  0  0  0  0  0  0  0  0  0
   26.6640   16.1912   -0.9773 H   0  0  0  0  0  0  0  0  0  0  0  0
   26.4262   18.6603   -1.2657 H   0  0  0  0  0  0  0  0  0  0  0  0
   26.4262   18.4550   -3.0235 H   0  0  0  0  0  0  0  0  0  0  0  0
   28.6906   17.4093   -2.9013 H   0  0  0  0  0  0  0  0  0  0  0  0
   28.6906   17.6146   -1.1435 H   0  0  0  0  0  0  0  0  0  0  0  0
   28.4528   20.0837   -1.4320 H   0  0  0  0  0  0  0  0  0  0  0  0
   28.4528   19.8784   -3.1897 H   0  0  0  0  0  0  0  0  0  0  0  0
   30.7173   18.8327   -3.0676 H   0  0  0  0  0  0  0  0  0  0  0  0
   30.7173   19.0380   -1.3098 H   0  0  0  0  0  0  0  0  0  0  0  0
   30.4795   21.5071   -1.5982 H   0  0  0  0  0  0  0  0  0  0  0  0
   30.4795   21.3018   -3.3560 H   0  0  0  0  0  0  0  0  0  0  0  0
   32.7440   20.2560   -3.2338 H   0  0  0  0  0  0  0  0  0  0  0  0
   32.7439   20.4614   -1.4761 H   0  0  0  0  0  0  0  0  0  0  0  0
   32.5050   22.9308   -1.7653 H   0  0  0  0  0  0  0  0  0  0  0  0
   32.5073   22.7246   -3.5230 H   0  0  0  0  0  0  0  0  0  0  0  0
   34.7718   21.6793   -3.3973 H   0  0  0  0  0  0  0  0  0  0  0  0
   34.7694   21.8855   -1.6396 H   0  0  0  0  0  0  0  0  0  0  0  0
   34.5328   24.3541   -1.9288 H   0  0  0  0  0  0  0  0  0  0  0  0
   34.5328   24.1488   -3.6865 H   0  0  0  0  0  0  0  0  0  0  0  0
   36.7973   23.1019   -3.5635 H   0  0  0  0  0  0  0  0  0  0  0  0
   36.7973   23.3097   -1.8060 H   0  0  0  0  0  0  0  0  0  0  0  0
   36.5583   25.7787   -2.0987 H   0  0  0  0  0  0  0  0  0  0  0  0
   36.5607   25.5701   -3.8561 H   0  0  0  0  0  0  0  0  0  0  0  0
   38.8251   24.5261   -3.7299 H   0  0  0  0  0  0  0  0  0  0  0  0
   38.8228   24.7323   -1.9722 H   0  0  0  0  0  0  0  0  0  0  0  0
   38.5861   27.2009   -2.2613 H   0  0  0  0  0  0  0  0  0  0  0  0
   38.5862   26.9955   -4.0191 H   0  0  0  0  0  0  0  0  0  0  0  0
   40.8506   25.9510   -3.8978 H   0  0  0  0  0  0  0  0  0  0  0  0
   40.8506   26.1539   -2.1398 H   0  0  0  0  0  0  0  0  0  0  0  0
   40.6128   28.6234   -2.4247 H   0  0  0  0  0  0  0  0  0  0  0  0
   40.6128   28.4205   -4.1828 H   0  0  0  0  0  0  0  0  0  0  0  0
   42.8773   27.3746   -4.0621 H   0  0  0  0  0  0  0  0  0  0  0  0
   42.8773   27.5775   -2.3040 H   0  0  0  0  0  0  0  0  0  0  0  0
   42.6395   30.0470   -2.5890 H   0  0  0  0  0  0  0  0  0  0  0  0
   42.6395   29.8441   -4.3470 H   0  0  0  0  0  0  0  0  0  0  0  0
   44.9039   28.7983   -4.2263 H   0  0  0  0  0  0  0  0  0  0  0  0
   44.9039   29.0011   -2.4683 H   0  0  0  0  0  0  0  0  0  0  0  0
   44.6661   31.4706   -2.7532 H   0  0  0  0  0  0  0  0  0  0  0  0
   44.6661   31.2678   -4.5113 H   0  0  0  0  0  0  0  0  0  0  0  0
   46.9306   30.2219   -4.3906 H   0  0  0  0  0  0  0  0  0  0  0  0
   46.9306   30.4247   -2.6326 H   0  0  0  0  0  0  0  0  0  0  0  0
   46.6928   32.8942   -2.9175 H   0  0  0  0  0  0  0  0  0  0  0  0
   46.6928   32.6914   -4.6756 H   0  0  0  0  0  0  0  0  0  0  0  0
   48.9572   31.6455   -4.5549 H   0  0  0  0  0  0  0  0  0  0  0  0
   48.9573   31.8484   -2.7968 H   0  0  0  0  0  0  0  0  0  0  0  0
   48.7206   34.3175   -3.0810 H   0  0  0  0  0  0  0  0  0  0  0  0
   48.7183   34.1155   -4.8391 H   0  0  0  0  0  0  0  0  0  0  0  0
   50.9827   33.0692   -4.7220 H   0  0  0  0  0  0  0  0  0  0  0  0
   50.9851   33.2713   -2.9638 H   0  0  0  0  0  0  0  0  0  0  0  0
   50.7485   35.7406   -3.2465 H   0  0  0  0  0  0  0  0  0  0  0  0
   50.7438   35.5394   -5.0047 H   0  0  0  0  0  0  0  0  0  0  0  0
   53.0082   34.4916   -4.8901 H   0  0  0  0  0  0  0  0  0  0  0  0
   53.0129   34.6952   -3.1322 H   0  0  0  0  0  0  0  0  0  0  0  0
   52.7763   37.1643   -3.4168 H   0  0  0  0  0  0  0  0  0  0  0  0
   52.7692   36.9615   -5.1749 H   0  0  0  0  0  0  0  0  0  0  0  0
   55.0337   35.9158   -5.0641 H   0  0  0  0  0  0  0  0  0  0  0  0
   55.0407   36.1161   -3.3058 H   0  0  0  0  0  0  0  0  0  0  0  0
   54.8041   38.5858   -3.5854 H   0  0  0  0  0  0  0  0  0  0  0  0
   54.7947   38.3863   -5.3439 H   0  0  0  0  0  0  0  0  0  0  0  0
   57.0591   37.3400   -5.2380 H   0  0  0  0  0  0  0  0  0  0  0  0
   57.0686   37.5370   -3.4793 H   0  0  0  0  0  0  0  0  0  0  0  0
   56.8296   40.0079   -3.7556 H   0  0  0  0  0  0  0  0  0  0  0  0
   56.8225   39.8100   -5.5142 H   0  0  0  0  0  0  0  0  0  0  0  0
   59.0870   38.7628   -5.4055 H   0  0  0  0  0  0  0  0  0  0  0  0
   59.0940   38.9606   -3.6469 H   0  0  0  0  0  0  0  0  0  0  0  0
   58.8575   41.4307   -3.9231 H   0  0  0  0  0  0  0  0  0  0  0  0
   58.8480   41.2337   -5.6818 H   0  0  0  0  0  0  0  0  0  0  0  0
   61.1124   40.1861   -5.5766 H   0  0  0  0  0  0  0  0  0  0  0  0
   61.1219   40.3831   -3.8179 H   0  0  0  0  0  0  0  0  0  0  0  0
   60.8841   42.8536   -4.0934 H   0  0  0  0  0  0  0  0  0  0  0  0
   60.8747   42.6566   -5.8521 H   0  0  0  0  0  0  0  0  0  0  0  0
   63.1391   41.6090   -5.7469 H   0  0  0  0  0  0  0  0  0  0  0  0
   63.1485   41.8060   -3.9882 H   0  0  0  0  0  0  0  0  0  0  0  0
   62.9108   44.2766   -4.2637 H   0  0  0  0  0  0  0  0  0  0  0  0
   62.9013   44.0796   -6.0224 H   0  0  0  0  0  0  0  0  0  0  0  0
   65.1657   43.0319   -5.9172 H   0  0  0  0  0  0  0  0  0  0  0  0
   65.1752   43.2289   -4.1585 H   0  0  0  0  0  0  0  0  0  0  0  0
   64.9374   45.6995   -4.4339 H   0  0  0  0  0  0  0  0  0  0  0  0
   64.9280   45.5025   -6.1926 H   0  0  0  0  0  0  0  0  0  0  0  0
   67.1924   44.4548   -6.0874 H   0  0  0  0  0  0  0  0  0  0  0  0
   67.2018   44.6519   -4.3287 H   0  0  0  0  0  0  0  0  0  0  0  0
   66.9641   47.1224   -4.6042 H   0  0  0  0  0  0  0  0  0  0  0  0
   66.9546   46.9254   -6.3629 H   0  0  0  0  0  0  0  0  0  0  0  0
   69.2190   45.8778   -6.2577 H   0  0  0  0  0  0  0  0  0  0  0  0
   69.2285   46.0748   -4.4990 H   0  0  0  0  0  0  0  0  0  0  0  0
   68.9919   48.5450   -4.7737 H   0  0  0  0  0  0  0  0  0  0  0  0
   68.9801   48.3489   -6.5325 H   0  0  0  0  0  0  0  0  0  0  0  0
   71.2445   47.3008   -6.4308 H   0  0  0  0  0  0  0  0  0  0  0  0
   71.2563   47.4970   -4.6720 H   0  0  0  0  0  0  0  0  0  0  0  0
   71.0186   49.9677   -4.9460 H   0  0  0  0  0  0  0  0  0  0  0  0
   71.0068   49.7716   -6.7048 H   0  0  0  0  0  0  0  0  0  0  0  0
   73.2711   48.7235   -6.6031 H   0  0  0  0  0  0  0  0  0  0  0  0
   73.2829   48.9197   -4.8443 H   0  0  0  0  0  0  0  0  0  0  0  0
   73.0452   51.3904   -5.1183 H   0  0  0  0  0  0  0  0  0  0  0  0
   73.0334   51.1943   -6.8771 H   0  0  0  0  0  0  0  0  0  0  0  0
   75.2978   50.1462   -6.7753 H   0  0  0  0  0  0  0  0  0  0  0  0
   75.3096   50.3424   -5.0166 H   0  0  0  0  0  0  0  0  0  0  0  0
   75.0730   52.8128   -5.2898 H   0  0  0  0  0  0  0  0  0  0  0  0
   75.0589   52.6175   -7.0486 H   0  0  0  0  0  0  0  0  0  0  0  0
   77.3232   51.5691   -6.9504 H   0  0  0  0  0  0  0  0  0  0  0  0
   77.3374   51.7644   -5.1916 H   0  0  0  0  0  0  0  0  0  0  0  0
   77.0998   54.2354   -5.4641 H   0  0  0  0  0  0  0  0  0  0  0  0
   77.0857   54.0400   -7.2229 H   0  0  0  0  0  0  0  0  0  0  0  0
   79.3503   52.9928   -7.1256 H   0  0  0  0  0  0  0  0  0  0  0  0
   79.3645   53.1857   -5.3665 H   0  0  0  0  0  0  0  0  0  0  0  0
   79.1286   55.6566   -5.6351 H   0  0  0  0  0  0  0  0  0  0  0  0
   79.1121   55.4647   -7.3935 H   0  0  0  0  0  0  0  0  0  0  0  0
   81.3850   54.4253   -7.3015 H   0  0  0  0  0  0  0  0  0  0  0  0
   81.4015   54.6172   -5.5429 H   0  0  0  0  0  0  0  0  0  0  0  0
   81.1636   56.8971   -7.5719 H   0  0  0  0  0  0  0  0  0  0  0  0
   82.6194   56.4760   -6.6471 H   0  0  0  0  0  0  0  0  0  0  0  0
   81.1801   57.0897   -5.8079 H   0  0  0  0  0  0  0  0  0  0  0  0
  1  2  1  0  0  0  0
  1 82  1  0  0  0  0
  1 83  1  0  0  0  0
  1 84  1  0  0  0  0
  2  3  1  0  0  0  0
  2 85  1  0  0  0  0
  2 86  1  0  0  0  0
  3  4  1  0  0  0  0
  3 87  1  0  0  0  0
  3 88  1  0  0  0  0
  4  5  1  0  0  0  0
  4 89  1  0  0  0  0
  4 90  1  0  0  0  0
  5  6  1  0  0  0  0
  5 91  1  0  0  0  0
  6  7  1  0  0  0  0
  6 92  1  0  0  0  0
  7  8  1  0  0  0  0
  7 93  1  0  0  0  0
  8  9  1  0  0  0  0
  8 94  1  0  0  0  0
  9 10  1  0  0  0  0
  9 95  1  0  0  0  0
 10 11  1  0  0  0  0
 10 96  1  0  0  0  0
 11 12  1  0  0  0  0
 11 97  1  0  0  0  0
 12 13  1  0  0  0  0
 12 98  1  0  0  0  0
 13 14  1  0  0  0  0
 13 99  1  0  0  0  0
 13100  1  0  0  0  0
 14 15  1  0  0  0  0
 14101  1  0  0  0  0
 14102  1  0  0  0  0
 15 16  1  0  0  0  0
 15103  1  0  0  0  0
 15104  1  0  0  0  0
 16 17  1  0  0  0  0
 16105  1  0  0  0  0
 16106  1  0  0  0  0
 17 18  1  0  0  0  0
 17107  1  0  0  0  0
 17108  1  0  0  0  0
 18 19  1  0  0  0  0
 18109  1  0  0  0  0
 18110  1  0  0  0  0
 19 20  1  0  0  0  0
 19111  1  0  0  0  0
 19112  1  0  0  0  0
 20 21  1  0  0  0  0
 20113  1  0  0  0  0
 20114  1  0  0  0  0
 21 22  1  0  0  0  0
 21115  1  0  0  0  0
 21116  1  0  0  0  0
 22 23  1  0  0  0  0
 22117  1  0  0  0  0
 22118  1  0  0  0  0
 23 24  1  0  0  0  0
 23119  1  0  0  0  0
 23120  1  0  0  0  0
 24 25  1  0  0  0  0
 24121  1  0  0  0  0
 24122  1  0  0  0  0
 25 26  1  0  0  0  0
 25123  1  0  0  0  0
 25124  1  0  0  0  0
 26 27  1  0  0  0  0
 26125  1  0  0  0  0
 26126  1  0  0  0  0
 27 28  1  0  0  0  0
 27127  1  0  0  0  0
 27128  1  0  0  0  0
 28 29  1  0  0  0  0
 28129  1  0  0  0  0
 28130  1  0  0  0  0
 29 30  1  0  0  0  0
 29131  1  0  0  0  0
 29132  1  0  0  0  0
 30 31  1  0  0  0  0
 30133  1  0  0  0  0
 30134  1  0  0  0  0
 31 32  1  0  0  0  0
 31135  1  0  0  0  0
 31136  1  0  0  0  0
 32 33  1  0  0  0  0
 32137  1  0  0  0  0
 32138  1  0  0  0  0
 33 34  1  0  0  0  0
 33139  1  0  0  0  0
 33140  1  0  0  0  0
 34 35  1  0  0  0  0
 34141  1  0  0  0  0
 34142  1  0  0  0  0
 35 36  1  0  0  0  0
 35143  1  0  0  0  0
 35144  1  0  0  0  0
 36 37  1  0  0  0  0
 36145  1  0  0  0  0
 36146  1  0  0  0  0
 37 38  1  0  0  0  0
 37147  1  0  0  0  0
 37148  1  0  0  0  0
 38 39  1  0  0  0  0
 38149  1  0  0  0  0
 38150  1  0  0  0  0
 39 40  1  0  0  0  0
 39151  1  0  0  0  0
 39152  1  0  0  0  0
 40 41  1  0  0  0  0
 40153  1  0  0  0  0
 40154  1  0  0  0  0
 41 42  1  0  0  0  0
 41155  1  0  0  0  0
 41156  1  0  0  0  0
 42 43  1  0  0  0  0
 42157  1  0  0  0  0
 42158  1  0  0  0  0
 43 44  1  0  0  0  0
 43159  1  0  0  0  0
 43160  1  0  0  0  0
 44 45  1  0  0  0  0
 44161  1  0  0  0  0
 44162  1  0  0  0  0
 45 46  1  0  0  0  0
 45163  1  0  0  0  0
 45164  1  0  0  0  0
 46 47  1  0  0  0  0
 46165  1  0  0  0  0
 46166  1  0  0  0  0
 47 48  1  0  0  0  0
 47167  1  0  0  0  0
 47168  1  0  0  0  0
 48 49  1  0  0  0  0
 48169  1  0  0  0  0
 48170  1  0  0  0  0
 49 50  1  0  0  0  0
 49171  1  0  0  0  0
 49172  1  0  0  0  0
 50 51  1  0  0  0  0
 50173  1  0  0  0  0
 50174  1  0  0  0  0
 51 52  1  0  0  0  0
 51175  1  0  0  0  0
 51176  1  0  0  0  0
 52 53  1  0  0  0  0
 52177  1  0  0  0  0
 52178  1  0  0  0  0
 53 54  1  0  0  0  0
 53179  1  0  0  0  0
 53180  1  0  0  0  0
 54 55  1  0  0  0  0
 54181  1  0  0  0  0
 54182  1  0  0  0  0
 55 56  1  0  0  0  0
 55183  1  0  0  0  0
 55184  1  0  0  0  0
 56 57  1  0  0  0  0
 56185  1  0  0  0  0
 56186  1  0  0  0  0
 57 58  1  0  0  0  0
 57187  1  0  0  0  0
 57188  1  0  0  0  0
 58 59  1  0  0  0  0
 58189  1  0  0  0  0
 58190  1  0  0  0  0
 59 60  1  0  0  0  0
 59191  1  0  0  0  0
 59192  1  0  0  0  0
 60 61  1  0  0  0  0
 60193  1  0  0  0  0
 60194  1  0  0  0  0
 61 62  1  0  0  0  0
 61195  1  0  0  0  0
 61196  1  0  0  0  0
 62 63  1  0  0  0  0
 62197  1  0  0  0  0
 62198  1  0  0  0  0
 63 64  1  0  0  0  0
 63199  1  0  0  0  0
 63200  1  0  0  0  0
 64 65  1  0  0  0  0
 64201  1  0  0  0  0
 64202  1  0  0  0  0
 65 66  1  0  0  0  0
 65203  1  0  0  0  0
 65204  1  0  0  0  0
 66 67  1  0  0  0  0
 66205  1  0  0  0  0
 66206  1  0  0  0  0
 67 68  1  0  0  0  0
 67207  1  0  0  0  0
 67208  1  0  0  0  0
 68 69  1  0  0  0  0
 68209  1  0  0  0  0
 68210  1  0  0  0  0
 69 70  1  0  0  0  0
 69211  1  0  0  0  0
 69212  1  0  0  0  0
 70 71  1  0  0  0  0
 70213  1  0  0  0  0
 70214  1  0  0  0  0
 71 72  1  0  0  0  0
 71215  1  0  0  0  0
 71216  1  0  0  0  0
 72 73  1  0  0  0  0
 72217  1  0  0  0  0
 72218  1  0  0  0  0
 73 74  1  0  0  0  0
 73219  1  0  0  0  0
 73220  1  0  0  0  0
 74 75  1  0  0  0  0
 74221  1  0  0  0  0
 74222  1  0  0  0  0
 75 76  1  0  0  0  0
 75223  1  0  0  0  0
 75224  1  0  0  0  0
 76 77  1  0  0  0  0
 76225  1  0  0  0  0
 76226  1  0  0  0  0
 77 78  1  0  0  0  0
 77227  1  0  0  0  0
 77228  1  0  0  0  0
 78 79  1  0  0  0  0
 78229  1  0  0  0  0
 78230  1  0  0  0  0
 79 80  1  0  0  0  0
 79231  1  0  0  0  0
 79232  1  0  0  0  0
 80 81  1  0  0  0  0
 80233  1  0  0  0  0
 80234  1  0  0  0  0
 81235  1  0  0  0  0
 81236  1  0  0  0  0
 81237  1  0  0  0  0
M  END
$$$$
