
 OpenBabel04232216433D

 25 25  0  0  0  0  0  0  0  0999 V2000
    3.4094   -0.0119    1.2998 C   0  0  0  0  0  0  0  0  0  0  0  0
    3.4093   -0.2790   -0.1268 C   0  0  0  0  0  0  0  0  0  0  0  0
    3.2057   -1.5634   -0.4939 C   0  0  0  0  0  0  0  0  0  0  0  0
    4.4286   -2.2596   -0.8988 C   0  0  0  0  0  0  0  0  0  0  0  0
    4.8619   -3.2207   -0.0510 C   0  0  0  0  0  0  0  0  0  0  0  0
    6.1819   -3.0285    0.5746 C   0  0  0  0  0  0  0  0  0  0  0  0
    6.1078   -2.3801    1.7606 C   0  0  0  0  0  0  0  0  0  0  0  0
    6.5822   -0.9634    1.7424 C   0  0  0  0  0  0  0  0  0  0  0  0
    8.1016   -0.7896    1.6890 C   0  0  0  0  0  0  0  0  0  0  0  0
    8.6271   -0.1188    2.9453 C   0  0  0  0  0  0  0  0  0  0  0  0
    5.8449    0.1115    1.7485 N   0  0  0  0  0  0  0  0  0  0  0  0
    4.5035    0.0642    2.0802 C   0  0  0  0  0  0  0  0  0  0  0  0
    2.4245    0.0520    1.7684 H   0  0  0  0  0  0  0  0  0  0  0  0
    4.1417    0.3262   -0.6619 H   0  0  0  0  0  0  0  0  0  0  0  0
    2.5297   -2.1780    0.1083 H   0  0  0  0  0  0  0  0  0  0  0  0
    5.1597   -1.6200   -1.4017 H   0  0  0  0  0  0  0  0  0  0  0  0
    4.1529   -3.7677    0.5714 H   0  0  0  0  0  0  0  0  0  0  0  0
    6.8328   -2.5861   -0.1890 H   0  0  0  0  0  0  0  0  0  0  0  0
    6.3410   -2.9246    2.6734 H   0  0  0  0  0  0  0  0  0  0  0  0
    8.3637   -0.2094    0.8013 H   0  0  0  0  0  0  0  0  0  0  0  0
    8.5809   -1.7728    1.5962 H   0  0  0  0  0  0  0  0  0  0  0  0
    8.2887    0.9203    3.0087 H   0  0  0  0  0  0  0  0  0  0  0  0
    9.7224   -0.1193    2.9452 H   0  0  0  0  0  0  0  0  0  0  0  0
    8.2865   -0.6381    3.8472 H   0  0  0  0  0  0  0  0  0  0  0  0
    4.3305    0.2352    3.1378 H   0  0  0  0  0  0  0  0  0  0  0  0
  1  2  1  0  0  0  0
  1 12  2  0  0  0  0
  1 13  1  0  0  0  0
  2  3  2  0  0  0  0
  2 14  1  0  0  0  0
  3  4  1  0  0  0  0
  3 15  1  0  0  0  0
  4  5  2  0  0  0  0
  4 16  1  0  0  0  0
  5  6  1  0  0  0  0
  5 17  1  0  0  0  0
  6  7  2  0  0  0  0
  6 18  1  0  0  0  0
  7  8  1  0  0  0  0
  7 19  1  0  0  0  0
  8  9  1  0  0  0  0
  8 11  2  0  0  0  0
  9 10  1  0  0  0  0
  9 20  1  0  0  0  0
  9 21  1  0  0  0  0
 10 22  1  0  0  0  0
 10 23  1  0  0  0  0
 10 24  1  0  0  0  0
 11 12  1  0  0  0  0
 12 25  1  0  0  0  0
M  END
$$$$
