
 OpenBabel04232217003D

233233  0  0  1  0  0  0  0  0999 V2000
   -0.0008   -1.3514   -2.7048 O   0  0  0  0  0  0  0  0  0  0  0  0
   -0.2901   -1.3681   -4.0873 C   0  0  3  0  0  0  0  0  0  0  0  0
   -1.7456   -1.1257   -4.3301 C   0  0  0  0  0  0  0  0  0  0  0  0
   -1.9455   -0.3073   -5.3557 C   0  0  0  0  0  0  0  0  0  0  0  0
   -0.6526    0.1548   -5.9474 C   0  0  0  0  0  0  0  0  0  0  0  0
    0.3705   -0.2028   -4.8489 C   0  0  3  0  0  0  0  0  0  0  0  0
    0.6864    0.9918   -3.9302 C   0  0  0  0  0  0  0  0  0  0  0  0
    1.2789    2.1533   -4.6989 C   0  0  0  0  0  0  0  0  0  0  0  0
    1.5722    3.3203   -3.7728 C   0  0  0  0  0  0  0  0  0  0  0  0
    2.1464    4.4817   -4.5662 C   0  0  0  0  0  0  0  0  0  0  0  0
    1.1547    4.9411   -5.6236 C   0  0  0  0  0  0  0  0  0  0  0  0
    1.7302    6.0853   -6.4191 C   0  0  0  0  0  0  0  0  0  0  0  0
    0.7313    6.5278   -7.4716 C   0  0  0  0  0  0  0  0  0  0  0  0
    1.3059    7.6794   -8.2666 C   0  0  0  0  0  0  0  0  0  0  0  0
    0.3096    8.1267   -9.3170 C   0  0  0  0  0  0  0  0  0  0  0  0
    0.8853    9.2818  -10.1129 C   0  0  0  0  0  0  0  0  0  0  0  0
   -0.1120    9.7287  -11.1642 C   0  0  0  0  0  0  0  0  0  0  0  0
    0.4637   10.8840  -11.9602 C   0  0  0  0  0  0  0  0  0  0  0  0
   -0.5326   11.3299  -13.0130 C   0  0  0  0  0  0  0  0  0  0  0  0
    0.0431   12.4851  -13.8091 C   0  0  0  0  0  0  0  0  0  0  0  0
   -0.9535   12.9308  -14.8618 C   0  0  0  0  0  0  0  0  0  0  0  0
   -0.3783   14.0861  -15.6582 C   0  0  0  0  0  0  0  0  0  0  0  0
   -1.3750   14.5317  -16.7109 C   0  0  0  0  0  0  0  0  0  0  0  0
   -0.7989   15.6869  -17.5073 C   0  0  0  0  0  0  0  0  0  0  0  0
   -1.7952   16.1336  -18.5601 C   0  0  0  0  0  0  0  0  0  0  0  0
   -1.2195   17.2889  -19.3565 C   0  0  0  0  0  0  0  0  0  0  0  0
   -2.2161   17.7350  -20.4095 C   0  0  0  0  0  0  0  0  0  0  0  0
   -1.6405   18.8904  -21.2059 C   0  0  0  0  0  0  0  0  0  0  0  0
   -2.6361   19.3352  -22.2602 C   0  0  0  0  0  0  0  0  0  0  0  0
   -2.0606   20.4906  -23.0565 C   0  0  0  0  0  0  0  0  0  0  0  0
   -3.0569   20.9366  -24.1094 C   0  0  0  0  0  0  0  0  0  0  0  0
   -2.4814   22.0920  -24.9057 C   0  0  0  0  0  0  0  0  0  0  0  0
   -3.4785   22.5393  -25.9574 C   0  0  0  0  0  0  0  0  0  0  0  0
   -2.9030   23.6947  -26.7536 C   0  0  0  0  0  0  0  0  0  0  0  0
   -3.8993   24.1407  -27.8065 C   0  0  0  0  0  0  0  0  0  0  0  0
   -3.3246   25.2974  -28.6015 C   0  0  0  0  0  0  0  0  0  0  0  0
   -4.3217   25.7447  -29.6531 C   0  0  0  0  0  0  0  0  0  0  0  0
   -3.7470   26.9014  -30.4481 C   0  0  0  0  0  0  0  0  0  0  0  0
   -4.7441   27.3487  -31.4997 C   0  0  0  0  0  0  0  0  0  0  0  0
   -4.1694   28.5054  -32.2946 C   0  0  0  0  0  0  0  0  0  0  0  0
   -5.1665   28.9527  -33.3462 C   0  0  0  0  0  0  0  0  0  0  0  0
   -4.5918   30.1094  -34.1412 C   0  0  0  0  0  0  0  0  0  0  0  0
   -5.5889   30.5567  -35.1928 C   0  0  0  0  0  0  0  0  0  0  0  0
   -5.0134   31.7121  -35.9891 C   0  0  0  0  0  0  0  0  0  0  0  0
   -6.0097   32.1581  -37.0420 C   0  0  0  0  0  0  0  0  0  0  0  0
   -5.4334   33.3122  -37.8396 C   0  0  0  0  0  0  0  0  0  0  0  0
   -6.4305   33.7595  -38.8912 C   0  0  0  0  0  0  0  0  0  0  0  0
   -5.8550   34.9149  -39.6875 C   0  0  0  0  0  0  0  0  0  0  0  0
   -6.8521   35.3622  -40.7391 C   0  0  0  0  0  0  0  0  0  0  0  0
   -6.2766   36.5176  -41.5354 C   0  0  0  0  0  0  0  0  0  0  0  0
   -7.2737   36.9649  -42.5870 C   0  0  0  0  0  0  0  0  0  0  0  0
   -6.6974   38.1190  -43.3845 C   0  0  0  0  0  0  0  0  0  0  0  0
   -7.6945   38.5663  -44.4362 C   0  0  0  0  0  0  0  0  0  0  0  0
   -7.1190   39.7217  -45.2325 C   0  0  0  0  0  0  0  0  0  0  0  0
   -8.1162   40.1690  -46.2840 C   0  0  0  0  0  0  0  0  0  0  0  0
   -7.5416   41.3257  -47.0792 C   0  0  0  0  0  0  0  0  0  0  0  0
   -8.5389   41.7730  -48.1308 C   0  0  0  0  0  0  0  0  0  0  0  0
   -7.9638   42.9284  -48.9273 C   0  0  0  0  0  0  0  0  0  0  0  0
   -8.9597   43.3745  -49.9808 C   0  0  0  0  0  0  0  0  0  0  0  0
   -8.3844   44.5315  -50.7750 C   0  0  0  0  0  0  0  0  0  0  0  0
   -9.3813   44.9792  -51.8264 C   0  0  0  0  0  0  0  0  0  0  0  0
   -8.8073   46.1368  -52.6200 C   0  0  0  0  0  0  0  0  0  0  0  0
   -9.8040   46.5820  -53.6726 C   0  0  0  0  0  0  0  0  0  0  0  0
   -9.2295   47.7385  -54.4674 C   0  0  0  0  0  0  0  0  0  0  0  0
  -10.2265   48.1857  -55.5189 C   0  0  0  0  0  0  0  0  0  0  0  0
   -9.6511   49.3412  -56.3152 C   0  0  0  0  0  0  0  0  0  0  0  0
  -10.6484   49.7884  -57.3669 C   0  0  0  0  0  0  0  0  0  0  0  0
  -10.0746   50.9451  -58.1624 C   0  0  0  0  0  0  0  0  0  0  0  0
  -11.0708   51.3916  -59.2157 C   0  0  0  0  0  0  0  0  0  0  0  0
  -10.4947   52.5472  -60.0118 C   0  0  0  0  0  0  0  0  0  0  0  0
  -11.4896   52.9929  -61.0667 C   0  0  0  0  0  0  0  0  0  0  0  0
  -10.9151   54.1499  -61.8621 C   0  0  0  0  0  0  0  0  0  0  0  0
  -11.9108   54.5956  -62.9175 C   0  0  0  0  0  0  0  0  0  0  0  0
  -11.3355   55.7522  -63.7151 C   0  0  0  0  0  0  0  0  0  0  0  0
  -12.3319   56.2006  -64.7705 C   0  0  0  0  0  0  0  0  0  0  0  0
  -11.7567   57.3596  -65.5705 C   0  0  0  0  0  0  0  0  0  0  0  0
  -12.7525   57.8109  -66.6285 C   0  0  0  0  0  0  0  0  0  0  0  0
  -12.1878   58.9725  -67.4344 C   0  0  0  0  0  0  0  0  0  0  0  0
  -13.1815   59.4215  -68.4886 C   0  0  0  0  0  0  0  0  0  0  0  0
   -0.5302   -2.0539   -2.2920 H   0  0  0  0  0  0  0  0  0  0  0  0
    0.0118   -2.3337   -4.5042 H   0  0  0  0  0  0  0  0  0  0  0  0
   -2.5377   -1.5954   -3.7581 H   0  0  0  0  0  0  0  0  0  0  0  0
   -2.9111    0.0034   -5.7346 H   0  0  0  0  0  0  0  0  0  0  0  0
   -0.7120    1.2165   -6.1801 H   0  0  0  0  0  0  0  0  0  0  0  0
   -0.4401   -0.3806   -6.8786 H   0  0  0  0  0  0  0  0  0  0  0  0
    1.3122   -0.5347   -5.3011 H   0  0  0  0  0  0  0  0  0  0  0  0
    1.4104    0.6893   -3.1674 H   0  0  0  0  0  0  0  0  0  0  0  0
   -0.2185    1.3224   -3.4037 H   0  0  0  0  0  0  0  0  0  0  0  0
    0.5711    2.4699   -5.4601 H   0  0  0  0  0  0  0  0  0  0  0  0
    2.1919    1.8437   -5.2239 H   0  0  0  0  0  0  0  0  0  0  0  0
    2.2784    3.0109   -2.9971 H   0  0  0  0  0  0  0  0  0  0  0  0
    0.6486    3.6405   -3.2703 H   0  0  0  0  0  0  0  0  0  0  0  0
    3.0852    4.1715   -5.0465 H   0  0  0  0  0  0  0  0  0  0  0  0
    2.3826    5.3103   -3.8922 H   0  0  0  0  0  0  0  0  0  0  0  0
    0.2104    5.2345   -5.1466 H   0  0  0  0  0  0  0  0  0  0  0  0
    0.9217    4.1389   -6.3272 H   0  0  0  0  0  0  0  0  0  0  0  0
    2.6643    5.7748   -6.9006 H   0  0  0  0  0  0  0  0  0  0  0  0
    1.9674    6.9211   -5.7531 H   0  0  0  0  0  0  0  0  0  0  0  0
   -0.2069    6.8316   -6.9903 H   0  0  0  0  0  0  0  0  0  0  0  0
    0.4941    5.6895   -8.1406 H   0  0  0  0  0  0  0  0  0  0  0  0
    2.2446    7.3730   -8.7454 H   0  0  0  0  0  0  0  0  0  0  0  0
    1.5433    8.5151   -7.5949 H   0  0  0  0  0  0  0  0  0  0  0  0
   -0.6279    8.4332   -8.8369 H   0  0  0  0  0  0  0  0  0  0  0  0
    0.0730    7.2912   -9.9874 H   0  0  0  0  0  0  0  0  0  0  0  0
    1.8229    8.9750  -10.5928 H   0  0  0  0  0  0  0  0  0  0  0  0
    1.1220   10.1171   -9.4423 H   0  0  0  0  0  0  0  0  0  0  0  0
   -1.0496   10.0354  -10.6843 H   0  0  0  0  0  0  0  0  0  0  0  0
   -0.3486    8.8933  -11.8347 H   0  0  0  0  0  0  0  0  0  0  0  0
    1.4021   10.5777  -12.4390 H   0  0  0  0  0  0  0  0  0  0  0  0
    0.6990   11.7198  -11.2898 H   0  0  0  0  0  0  0  0  0  0  0  0
   -1.4709   11.6361  -12.5343 H   0  0  0  0  0  0  0  0  0  0  0  0
   -0.7679   10.4939  -13.6834 H   0  0  0  0  0  0  0  0  0  0  0  0
    0.9813   12.1789  -14.2878 H   0  0  0  0  0  0  0  0  0  0  0  0
    0.2783   13.3210  -13.1388 H   0  0  0  0  0  0  0  0  0  0  0  0
   -1.8918   13.2371  -14.3830 H   0  0  0  0  0  0  0  0  0  0  0  0
   -1.1888   12.0949  -15.5321 H   0  0  0  0  0  0  0  0  0  0  0  0
    0.5600   13.7798  -16.1370 H   0  0  0  0  0  0  0  0  0  0  0  0
   -0.1430   14.9220  -14.9879 H   0  0  0  0  0  0  0  0  0  0  0  0
   -2.3131   14.8381  -16.2320 H   0  0  0  0  0  0  0  0  0  0  0  0
   -1.6104   13.6958  -17.3809 H   0  0  0  0  0  0  0  0  0  0  0  0
    0.1392   15.3803  -17.9857 H   0  0  0  0  0  0  0  0  0  0  0  0
   -0.5632   16.5227  -16.8366 H   0  0  0  0  0  0  0  0  0  0  0  0
   -2.7328   16.4399  -18.0812 H   0  0  0  0  0  0  0  0  0  0  0  0
   -2.0304   15.2979  -19.2305 H   0  0  0  0  0  0  0  0  0  0  0  0
   -0.2813   16.9828  -19.8353 H   0  0  0  0  0  0  0  0  0  0  0  0
   -0.9843   18.1249  -18.6861 H   0  0  0  0  0  0  0  0  0  0  0  0
   -3.1543   18.0412  -19.9309 H   0  0  0  0  0  0  0  0  0  0  0  0
   -2.4513   16.8991  -21.0798 H   0  0  0  0  0  0  0  0  0  0  0  0
   -0.7015   18.5847  -21.6836 H   0  0  0  0  0  0  0  0  0  0  0  0
   -1.4066   19.7268  -20.5358 H   0  0  0  0  0  0  0  0  0  0  0  0
   -3.5751   19.6410  -21.7826 H   0  0  0  0  0  0  0  0  0  0  0  0
   -2.8701   18.4988  -22.9304 H   0  0  0  0  0  0  0  0  0  0  0  0
   -1.1222   20.1844  -23.5352 H   0  0  0  0  0  0  0  0  0  0  0  0
   -1.8253   21.3265  -22.3862 H   0  0  0  0  0  0  0  0  0  0  0  0
   -3.9952   21.2429  -23.6307 H   0  0  0  0  0  0  0  0  0  0  0  0
   -3.2922   20.1008  -24.7798 H   0  0  0  0  0  0  0  0  0  0  0  0
   -1.5438   21.7853  -25.3856 H   0  0  0  0  0  0  0  0  0  0  0  0
   -2.2448   22.9274  -24.2352 H   0  0  0  0  0  0  0  0  0  0  0  0
   -4.4161   22.8460  -25.4775 H   0  0  0  0  0  0  0  0  0  0  0  0
   -3.7151   21.7039  -26.6279 H   0  0  0  0  0  0  0  0  0  0  0  0
   -1.9646   23.3885  -27.2324 H   0  0  0  0  0  0  0  0  0  0  0  0
   -2.6677   24.5305  -26.0832 H   0  0  0  0  0  0  0  0  0  0  0  0
   -4.8381   24.4456  -27.3279 H   0  0  0  0  0  0  0  0  0  0  0  0
   -4.1335   23.3052  -28.4777 H   0  0  0  0  0  0  0  0  0  0  0  0
   -2.3865   24.9921  -29.0812 H   0  0  0  0  0  0  0  0  0  0  0  0
   -3.0891   26.1324  -27.9301 H   0  0  0  0  0  0  0  0  0  0  0  0
   -5.2598   26.0500  -29.1733 H   0  0  0  0  0  0  0  0  0  0  0  0
   -4.5572   24.9097  -30.3245 H   0  0  0  0  0  0  0  0  0  0  0  0
   -2.8089   26.5961  -30.9279 H   0  0  0  0  0  0  0  0  0  0  0  0
   -3.5115   27.7364  -29.7767 H   0  0  0  0  0  0  0  0  0  0  0  0
   -5.6822   27.6540  -31.0199 H   0  0  0  0  0  0  0  0  0  0  0  0
   -4.9796   26.5138  -32.1711 H   0  0  0  0  0  0  0  0  0  0  0  0
   -3.2313   28.2001  -32.7744 H   0  0  0  0  0  0  0  0  0  0  0  0
   -3.9339   29.3404  -31.6232 H   0  0  0  0  0  0  0  0  0  0  0  0
   -6.1046   29.2580  -32.8664 H   0  0  0  0  0  0  0  0  0  0  0  0
   -5.4020   28.1178  -34.0176 H   0  0  0  0  0  0  0  0  0  0  0  0
   -3.6537   29.8041  -34.6210 H   0  0  0  0  0  0  0  0  0  0  0  0
   -4.3563   30.9444  -33.4698 H   0  0  0  0  0  0  0  0  0  0  0  0
   -6.5265   30.8634  -34.7129 H   0  0  0  0  0  0  0  0  0  0  0  0
   -5.8255   29.7214  -35.8633 H   0  0  0  0  0  0  0  0  0  0  0  0
   -4.0751   31.4059  -36.4678 H   0  0  0  0  0  0  0  0  0  0  0  0
   -4.7781   32.5480  -35.3187 H   0  0  0  0  0  0  0  0  0  0  0  0
   -6.9475   32.4656  -36.5631 H   0  0  0  0  0  0  0  0  0  0  0  0
   -6.2461   31.3219  -37.7115 H   0  0  0  0  0  0  0  0  0  0  0  0
   -4.4963   33.0042  -38.3196 H   0  0  0  0  0  0  0  0  0  0  0  0
   -5.1957   34.1479  -37.1699 H   0  0  0  0  0  0  0  0  0  0  0  0
   -7.3681   34.0662  -38.4113 H   0  0  0  0  0  0  0  0  0  0  0  0
   -6.6671   32.9241  -39.5617 H   0  0  0  0  0  0  0  0  0  0  0  0
   -4.9174   34.6082  -40.1674 H   0  0  0  0  0  0  0  0  0  0  0  0
   -5.6184   35.7502  -39.0170 H   0  0  0  0  0  0  0  0  0  0  0  0
   -7.7897   35.6689  -40.2592 H   0  0  0  0  0  0  0  0  0  0  0  0
   -7.0887   34.5268  -41.4096 H   0  0  0  0  0  0  0  0  0  0  0  0
   -5.3390   36.2109  -42.0152 H   0  0  0  0  0  0  0  0  0  0  0  0
   -6.0400   37.3530  -40.8649 H   0  0  0  0  0  0  0  0  0  0  0  0
   -8.2108   37.2729  -42.1069 H   0  0  0  0  0  0  0  0  0  0  0  0
   -7.5114   36.1292  -43.2566 H   0  0  0  0  0  0  0  0  0  0  0  0
   -5.7603   37.8110  -43.8646 H   0  0  0  0  0  0  0  0  0  0  0  0
   -6.4597   38.9547  -42.7149 H   0  0  0  0  0  0  0  0  0  0  0  0
   -8.6321   38.8730  -43.9563 H   0  0  0  0  0  0  0  0  0  0  0  0
   -7.9311   37.7309  -45.1067 H   0  0  0  0  0  0  0  0  0  0  0  0
   -6.1814   39.4150  -45.7124 H   0  0  0  0  0  0  0  0  0  0  0  0
   -6.8824   40.5570  -44.5619 H   0  0  0  0  0  0  0  0  0  0  0  0
   -9.0543   40.4743  -45.8043 H   0  0  0  0  0  0  0  0  0  0  0  0
   -8.3517   39.3340  -46.9554 H   0  0  0  0  0  0  0  0  0  0  0  0
   -6.6034   41.0205  -47.5588 H   0  0  0  0  0  0  0  0  0  0  0  0
   -7.3062   42.1607  -46.4077 H   0  0  0  0  0  0  0  0  0  0  0  0
   -9.4764   42.0796  -47.6508 H   0  0  0  0  0  0  0  0  0  0  0  0
   -8.7754   40.9375  -48.8012 H   0  0  0  0  0  0  0  0  0  0  0  0
   -7.0255   42.6218  -49.4059 H   0  0  0  0  0  0  0  0  0  0  0  0
   -7.7278   43.7642  -48.2571 H   0  0  0  0  0  0  0  0  0  0  0  0
   -9.8999   43.6787  -49.5045 H   0  0  0  0  0  0  0  0  0  0  0  0
   -9.1926   42.5389  -50.6525 H   0  0  0  0  0  0  0  0  0  0  0  0
   -7.4460   44.2264  -51.2546 H   0  0  0  0  0  0  0  0  0  0  0  0
   -8.1492   45.3665  -50.1035 H   0  0  0  0  0  0  0  0  0  0  0  0
  -10.3193   45.2847  -51.3462 H   0  0  0  0  0  0  0  0  0  0  0  0
   -9.6174   44.1446  -52.4981 H   0  0  0  0  0  0  0  0  0  0  0  0
   -7.8679   45.8334  -53.0986 H   0  0  0  0  0  0  0  0  0  0  0  0
   -8.5745   46.9719  -51.9480 H   0  0  0  0  0  0  0  0  0  0  0  0
  -10.7430   46.8866  -53.1938 H   0  0  0  0  0  0  0  0  0  0  0  0
  -10.0381   45.7463  -54.3437 H   0  0  0  0  0  0  0  0  0  0  0  0
   -8.2912   47.4330  -54.9470 H   0  0  0  0  0  0  0  0  0  0  0  0
   -8.9938   48.5735  -53.7959 H   0  0  0  0  0  0  0  0  0  0  0  0
  -11.1642   48.4923  -55.0390 H   0  0  0  0  0  0  0  0  0  0  0  0
  -10.4632   47.3504  -56.1894 H   0  0  0  0  0  0  0  0  0  0  0  0
   -8.7134   49.0345  -56.7950 H   0  0  0  0  0  0  0  0  0  0  0  0
   -9.4144   50.1764  -55.6445 H   0  0  0  0  0  0  0  0  0  0  0  0
  -11.5864   50.0935  -56.8868 H   0  0  0  0  0  0  0  0  0  0  0  0
  -10.8838   48.9531  -58.0379 H   0  0  0  0  0  0  0  0  0  0  0  0
   -9.1357   50.6404  -58.6411 H   0  0  0  0  0  0  0  0  0  0  0  0
   -9.8403   51.7807  -57.4913 H   0  0  0  0  0  0  0  0  0  0  0  0
  -12.0093   51.6979  -58.7374 H   0  0  0  0  0  0  0  0  0  0  0  0
  -11.3062   50.5560  -59.8864 H   0  0  0  0  0  0  0  0  0  0  0  0
   -9.5555   52.2411  -60.4889 H   0  0  0  0  0  0  0  0  0  0  0  0
  -10.2605   53.3832  -59.3412 H   0  0  0  0  0  0  0  0  0  0  0  0
  -12.4291   53.2973  -60.5893 H   0  0  0  0  0  0  0  0  0  0  0  0
  -11.7224   52.1568  -61.7377 H   0  0  0  0  0  0  0  0  0  0  0  0
   -9.9754   53.8451  -62.3392 H   0  0  0  0  0  0  0  0  0  0  0  0
  -10.6822   54.9856  -61.1908 H   0  0  0  0  0  0  0  0  0  0  0  0
  -12.8495   54.9007  -62.4392 H   0  0  0  0  0  0  0  0  0  0  0  0
  -12.1444   53.7587  -63.5868 H   0  0  0  0  0  0  0  0  0  0  0  0
  -10.3973   55.4449  -64.1925 H   0  0  0  0  0  0  0  0  0  0  0  0
  -11.1002   56.5868  -63.0437 H   0  0  0  0  0  0  0  0  0  0  0  0
  -13.2691   56.5061  -64.2907 H   0  0  0  0  0  0  0  0  0  0  0  0
  -12.5662   55.3642  -65.4394 H   0  0  0  0  0  0  0  0  0  0  0  0
  -10.8184   57.0510  -66.0468 H   0  0  0  0  0  0  0  0  0  0  0  0
  -11.5214   58.1930  -64.8978 H   0  0  0  0  0  0  0  0  0  0  0  0
  -13.6908   58.1124  -66.1465 H   0  0  0  0  0  0  0  0  0  0  0  0
  -12.9863   56.9723  -67.2959 H   0  0  0  0  0  0  0  0  0  0  0  0
  -11.2510   58.6715  -67.9175 H   0  0  0  0  0  0  0  0  0  0  0  0
  -11.9554   59.8115  -66.7682 H   0  0  0  0  0  0  0  0  0  0  0  0
  -13.4096   58.6035  -69.1796 H   0  0  0  0  0  0  0  0  0  0  0  0
  -12.7727   60.2556  -69.0653 H   0  0  0  0  0  0  0  0  0  0  0  0
  -14.1174   59.7489  -68.0247 H   0  0  0  0  0  0  0  0  0  0  0  0
  1  2  1  0  0  0  0
  1 80  1  0  0  0  0
  2  3  1  0  0  0  0
  2  6  1  0  0  0  0
  2 81  1  0  0  0  0
  3  4  2  0  0  0  0
  3 82  1  0  0  0  0
  4  5  1  0  0  0  0
  4 83  1  0  0  0  0
  5  6  1  0  0  0  0
  5 84  1  0  0  0  0
  5 85  1  0  0  0  0
  6  7  1  0  0  0  0
  6 86  1  0  0  0  0
  7  8  1  0  0  0  0
  7 87  1  0  0  0  0
  7 88  1  0  0  0  0
  8  9  1  0  0  0  0
  8 89  1  0  0  0  0
  8 90  1  0  0  0  0
  9 10  1  0  0  0  0
  9 91  1  0  0  0  0
  9 92  1  0  0  0  0
 10 11  1  0  0  0  0
 10 93  1  0  0  0  0
 10 94  1  0  0  0  0
 11 12  1  0  0  0  0
 11 95  1  0  0  0  0
 11 96  1  0  0  0  0
 12 13  1  0  0  0  0
 12 97  1  0  0  0  0
 12 98  1  0  0  0  0
 13 14  1  0  0  0  0
 13 99  1  0  0  0  0
 13100  1  0  0  0  0
 14 15  1  0  0  0  0
 14101  1  0  0  0  0
 14102  1  0  0  0  0
 15 16  1  0  0  0  0
 15103  1  0  0  0  0
 15104  1  0  0  0  0
 16 17  1  0  0  0  0
 16105  1  0  0  0  0
 16106  1  0  0  0  0
 17 18  1  0  0  0  0
 17107  1  0  0  0  0
 17108  1  0  0  0  0
 18 19  1  0  0  0  0
 18109  1  0  0  0  0
 18110  1  0  0  0  0
 19 20  1  0  0  0  0
 19111  1  0  0  0  0
 19112  1  0  0  0  0
 20 21  1  0  0  0  0
 20113  1  0  0  0  0
 20114  1  0  0  0  0
 21 22  1  0  0  0  0
 21115  1  0  0  0  0
 21116  1  0  0  0  0
 22 23  1  0  0  0  0
 22117  1  0  0  0  0
 22118  1  0  0  0  0
 23 24  1  0  0  0  0
 23119  1  0  0  0  0
 23120  1  0  0  0  0
 24 25  1  0  0  0  0
 24121  1  0  0  0  0
 24122  1  0  0  0  0
 25 26  1  0  0  0  0
 25123  1  0  0  0  0
 25124  1  0  0  0  0
 26 27  1  0  0  0  0
 26125  1  0  0  0  0
 26126  1  0  0  0  0
 27 28  1  0  0  0  0
 27127  1  0  0  0  0
 27128  1  0  0  0  0
 28 29  1  0  0  0  0
 28129  1  0  0  0  0
 28130  1  0  0  0  0
 29 30  1  0  0  0  0
 29131  1  0  0  0  0
 29132  1  0  0  0  0
 30 31  1  0  0  0  0
 30133  1  0  0  0  0
 30134  1  0  0  0  0
 31 32  1  0  0  0  0
 31135  1  0  0  0  0
 31136  1  0  0  0  0
 32 33  1  0  0  0  0
 32137  1  0  0  0  0
 32138  1  0  0  0  0
 33 34  1  0  0  0  0
 33139  1  0  0  0  0
 33140  1  0  0  0  0
 34 35  1  0  0  0  0
 34141  1  0  0  0  0
 34142  1  0  0  0  0
 35 36  1  0  0  0  0
 35143  1  0  0  0  0
 35144  1  0  0  0  0
 36 37  1  0  0  0  0
 36145  1  0  0  0  0
 36146  1  0  0  0  0
 37 38  1  0  0  0  0
 37147  1  0  0  0  0
 37148  1  0  0  0  0
 38 39  1  0  0  0  0
 38149  1  0  0  0  0
 38150  1  0  0  0  0
 39 40  1  0  0  0  0
 39151  1  0  0  0  0
 39152  1  0  0  0  0
 40 41  1  0  0  0  0
 40153  1  0  0  0  0
 40154  1  0  0  0  0
 41 42  1  0  0  0  0
 41155  1  0  0  0  0
 41156  1  0  0  0  0
 42 43  1  0  0  0  0
 42157  1  0  0  0  0
 42158  1  0  0  0  0
 43 44  1  0  0  0  0
 43159  1  0  0  0  0
 43160  1  0  0  0  0
 44 45  1  0  0  0  0
 44161  1  0  0  0  0
 44162  1  0  0  0  0
 45 46  1  0  0  0  0
 45163  1  0  0  0  0
 45164  1  0  0  0  0
 46 47  1  0  0  0  0
 46165  1  0  0  0  0
 46166  1  0  0  0  0
 47 48  1  0  0  0  0
 47167  1  0  0  0  0
 47168  1  0  0  0  0
 48 49  1  0  0  0  0
 48169  1  0  0  0  0
 48170  1  0  0  0  0
 49 50  1  0  0  0  0
 49171  1  0  0  0  0
 49172  1  0  0  0  0
 50 51  1  0  0  0  0
 50173  1  0  0  0  0
 50174  1  0  0  0  0
 51 52  1  0  0  0  0
 51175  1  0  0  0  0
 51176  1  0  0  0  0
 52 53  1  0  0  0  0
 52177  1  0  0  0  0
 52178  1  0  0  0  0
 53 54  1  0  0  0  0
 53179  1  0  0  0  0
 53180  1  0  0  0  0
 54 55  1  0  0  0  0
 54181  1  0  0  0  0
 54182  1  0  0  0  0
 55 56  1  0  0  0  0
 55183  1  0  0  0  0
 55184  1  0  0  0  0
 56 57  1  0  0  0  0
 56185  1  0  0  0  0
 56186  1  0  0  0  0
 57 58  1  0  0  0  0
 57187  1  0  0  0  0
 57188  1  0  0  0  0
 58 59  1  0  0  0  0
 58189  1  0  0  0  0
 58190  1  0  0  0  0
 59 60  1  0  0  0  0
 59191  1  0  0  0  0
 59192  1  0  0  0  0
 60 61  1  0  0  0  0
 60193  1  0  0  0  0
 60194  1  0  0  0  0
 61 62  1  0  0  0  0
 61195  1  0  0  0  0
 61196  1  0  0  0  0
 62 63  1  0  0  0  0
 62197  1  0  0  0  0
 62198  1  0  0  0  0
 63 64  1  0  0  0  0
 63199  1  0  0  0  0
 63200  1  0  0  0  0
 64 65  1  0  0  0  0
 64201  1  0  0  0  0
 64202  1  0  0  0  0
 65 66  1  0  0  0  0
 65203  1  0  0  0  0
 65204  1  0  0  0  0
 66 67  1  0  0  0  0
 66205  1  0  0  0  0
 66206  1  0  0  0  0
 67 68  1  0  0  0  0
 67207  1  0  0  0  0
 67208  1  0  0  0  0
 68 69  1  0  0  0  0
 68209  1  0  0  0  0
 68210  1  0  0  0  0
 69 70  1  0  0  0  0
 69211  1  0  0  0  0
 69212  1  0  0  0  0
 70 71  1  0  0  0  0
 70213  1  0  0  0  0
 70214  1  0  0  0  0
 71 72  1  0  0  0  0
 71215  1  0  0  0  0
 71216  1  0  0  0  0
 72 73  1  0  0  0  0
 72217  1  0  0  0  0
 72218  1  0  0  0  0
 73 74  1  0  0  0  0
 73219  1  0  0  0  0
 73220  1  0  0  0  0
 74 75  1  0  0  0  0
 74221  1  0  0  0  0
 74222  1  0  0  0  0
 75 76  1  0  0  0  0
 75223  1  0  0  0  0
 75224  1  0  0  0  0
 76 77  1  0  0  0  0
 76225  1  0  0  0  0
 76226  1  0  0  0  0
 77 78  1  0  0  0  0
 77227  1  0  0  0  0
 77228  1  0  0  0  0
 78 79  1  0  0  0  0
 78229  1  0  0  0  0
 78230  1  0  0  0  0
 79231  1  0  0  0  0
 79232  1  0  0  0  0
 79233  1  0  0  0  0
M  END
$$$$
