
 OpenBabel04232217003D

243242  0  0  0  0  0  0  0  0999 V2000
    1.0383    0.0509    0.0495 O   0  0  0  0  0  0  0  0  0  0  0  0
    2.4531    0.0702    0.0623 C   0  0  0  0  0  0  0  0  0  0  0  0
    2.9655   -0.8895   -0.9934 C   0  0  0  0  0  0  0  0  0  0  0  0
    4.4870   -0.8969   -1.0076 C   0  0  0  0  0  0  0  0  0  0  0  0
    5.0011   -1.8588   -2.0656 C   0  0  0  0  0  0  0  0  0  0  0  0
    6.5187   -1.8601   -2.0731 C   0  0  0  0  0  0  0  0  0  0  0  0
    7.0310   -2.8196   -3.1314 C   0  0  0  0  0  0  0  0  0  0  0  0
    8.5479   -2.8216   -3.1367 C   0  0  0  0  0  0  0  0  0  0  0  0
    9.0587   -3.7810   -4.1950 C   0  0  0  0  0  0  0  0  0  0  0  0
   10.5753   -3.7815   -4.2015 C   0  0  0  0  0  0  0  0  0  0  0  0
   11.0856   -4.7421   -5.2583 C   0  0  0  0  0  0  0  0  0  0  0  0
   12.6021   -4.7410   -5.2661 C   0  0  0  0  0  0  0  0  0  0  0  0
   13.1123   -5.7002   -6.3241 C   0  0  0  0  0  0  0  0  0  0  0  0
   14.6288   -5.7005   -6.3305 C   0  0  0  0  0  0  0  0  0  0  0  0
   15.1390   -6.6596   -7.3886 C   0  0  0  0  0  0  0  0  0  0  0  0
   16.6555   -6.6585   -7.3963 C   0  0  0  0  0  0  0  0  0  0  0  0
   17.1657   -7.6162   -8.4557 C   0  0  0  0  0  0  0  0  0  0  0  0
   18.6822   -7.6165   -8.4621 C   0  0  0  0  0  0  0  0  0  0  0  0
   19.1923   -8.5727   -9.5229 C   0  0  0  0  0  0  0  0  0  0  0  0
   20.7088   -8.5745   -9.5279 C   0  0  0  0  0  0  0  0  0  0  0  0
   21.2190   -9.5292  -10.5900 C   0  0  0  0  0  0  0  0  0  0  0  0
   22.7355   -9.5325  -10.5938 C   0  0  0  0  0  0  0  0  0  0  0  0
   23.2456  -10.4857  -11.6572 C   0  0  0  0  0  0  0  0  0  0  0  0
   24.7621  -10.4875  -11.6622 C   0  0  0  0  0  0  0  0  0  0  0  0
   25.2723  -11.4407  -12.7257 C   0  0  0  0  0  0  0  0  0  0  0  0
   26.7888  -11.4410  -12.7321 C   0  0  0  0  0  0  0  0  0  0  0  0
   27.2990  -12.3941  -13.7955 C   0  0  0  0  0  0  0  0  0  0  0  0
   28.8154  -12.3945  -13.8019 C   0  0  0  0  0  0  0  0  0  0  0  0
   29.3256  -13.3476  -14.8654 C   0  0  0  0  0  0  0  0  0  0  0  0
   30.8421  -13.3480  -14.8718 C   0  0  0  0  0  0  0  0  0  0  0  0
   31.3523  -14.3011  -15.9352 C   0  0  0  0  0  0  0  0  0  0  0  0
   32.8687  -14.3015  -15.9416 C   0  0  0  0  0  0  0  0  0  0  0  0
   33.3789  -15.2546  -17.0051 C   0  0  0  0  0  0  0  0  0  0  0  0
   34.8954  -15.2564  -17.0102 C   0  0  0  0  0  0  0  0  0  0  0  0
   35.4056  -16.2096  -18.0736 C   0  0  0  0  0  0  0  0  0  0  0  0
   36.9221  -16.2130  -18.0773 C   0  0  0  0  0  0  0  0  0  0  0  0
   37.4322  -17.1676  -19.1394 C   0  0  0  0  0  0  0  0  0  0  0  0
   38.9487  -17.1724  -19.1418 C   0  0  0  0  0  0  0  0  0  0  0  0
   39.4589  -18.1257  -20.2052 C   0  0  0  0  0  0  0  0  0  0  0  0
   40.9754  -18.1290  -20.2089 C   0  0  0  0  0  0  0  0  0  0  0  0
   41.4856  -19.0836  -21.2710 C   0  0  0  0  0  0  0  0  0  0  0  0
   43.0020  -19.0870  -21.2747 C   0  0  0  0  0  0  0  0  0  0  0  0
   43.5122  -20.0416  -22.3368 C   0  0  0  0  0  0  0  0  0  0  0  0
   45.0287  -20.0450  -22.3405 C   0  0  0  0  0  0  0  0  0  0  0  0
   45.5389  -20.9996  -23.4026 C   0  0  0  0  0  0  0  0  0  0  0  0
   47.0554  -21.0030  -23.4063 C   0  0  0  0  0  0  0  0  0  0  0  0
   47.5655  -21.9576  -24.4684 C   0  0  0  0  0  0  0  0  0  0  0  0
   49.0820  -21.9610  -24.4721 C   0  0  0  0  0  0  0  0  0  0  0  0
   49.5922  -22.9156  -25.5342 C   0  0  0  0  0  0  0  0  0  0  0  0
   51.1087  -22.9205  -25.5365 C   0  0  0  0  0  0  0  0  0  0  0  0
   51.6189  -23.8751  -26.5987 C   0  0  0  0  0  0  0  0  0  0  0  0
   53.1353  -23.8785  -26.6023 C   0  0  0  0  0  0  0  0  0  0  0  0
   53.6455  -24.8316  -27.6658 C   0  0  0  0  0  0  0  0  0  0  0  0
   55.1620  -24.8365  -27.6681 C   0  0  0  0  0  0  0  0  0  0  0  0
   55.6722  -25.7882  -28.7329 C   0  0  0  0  0  0  0  0  0  0  0  0
   57.1887  -25.7944  -28.7340 C   0  0  0  0  0  0  0  0  0  0  0  0
   57.6988  -26.7446  -29.8001 C   0  0  0  0  0  0  0  0  0  0  0  0
   59.2153  -26.7495  -29.8024 C   0  0  0  0  0  0  0  0  0  0  0  0
   59.7255  -27.6996  -30.8686 C   0  0  0  0  0  0  0  0  0  0  0  0
   61.2420  -27.7059  -30.8696 C   0  0  0  0  0  0  0  0  0  0  0  0
   61.7522  -28.6561  -31.9357 C   0  0  0  0  0  0  0  0  0  0  0  0
   63.2687  -28.6624  -31.9367 C   0  0  0  0  0  0  0  0  0  0  0  0
   63.7788  -29.6126  -33.0029 C   0  0  0  0  0  0  0  0  0  0  0  0
   65.2953  -29.6189  -33.0039 C   0  0  0  0  0  0  0  0  0  0  0  0
   65.8055  -30.5691  -34.0700 C   0  0  0  0  0  0  0  0  0  0  0  0
   67.3220  -30.5754  -34.0710 C   0  0  0  0  0  0  0  0  0  0  0  0
   67.8322  -31.5256  -35.1371 C   0  0  0  0  0  0  0  0  0  0  0  0
   69.3486  -31.5319  -35.1382 C   0  0  0  0  0  0  0  0  0  0  0  0
   69.8588  -32.4821  -36.2043 C   0  0  0  0  0  0  0  0  0  0  0  0
   71.3753  -32.4869  -36.2066 C   0  0  0  0  0  0  0  0  0  0  0  0
   71.8855  -33.4371  -37.2728 C   0  0  0  0  0  0  0  0  0  0  0  0
   73.4019  -33.4419  -37.2751 C   0  0  0  0  0  0  0  0  0  0  0  0
   73.9121  -34.3920  -38.3413 C   0  0  0  0  0  0  0  0  0  0  0  0
   75.4290  -34.3969  -38.3436 C   0  0  0  0  0  0  0  0  0  0  0  0
   75.9395  -35.3470  -39.4097 C   0  0  0  0  0  0  0  0  0  0  0  0
   77.4559  -35.3534  -39.4108 C   0  0  0  0  0  0  0  0  0  0  0  0
   77.9678  -36.3039  -40.4773 C   0  0  0  0  0  0  0  0  0  0  0  0
   79.4858  -36.3117  -40.4799 C   0  0  0  0  0  0  0  0  0  0  0  0
   80.0001  -37.2650  -41.5466 C   0  0  0  0  0  0  0  0  0  0  0  0
   81.5179  -37.2801  -41.5605 C   0  0  0  0  0  0  0  0  0  0  0  0
   82.0320  -38.2288  -42.6218 C   0  0  0  0  0  0  0  0  0  0  0  0
    0.7383    0.6748    0.7356 H   0  0  0  0  0  0  0  0  0  0  0  0
    2.8033   -0.2277    1.0567 H   0  0  0  0  0  0  0  0  0  0  0  0
    2.7962    1.0899   -0.1446 H   0  0  0  0  0  0  0  0  0  0  0  0
    2.5764   -0.6031   -1.9791 H   0  0  0  0  0  0  0  0  0  0  0  0
    2.5811   -1.8992   -0.7986 H   0  0  0  0  0  0  0  0  0  0  0  0
    4.8674   -1.1930   -0.0228 H   0  0  0  0  0  0  0  0  0  0  0  0
    4.8626    0.1127   -1.2120 H   0  0  0  0  0  0  0  0  0  0  0  0
    4.6242   -1.5648   -3.0533 H   0  0  0  0  0  0  0  0  0  0  0  0
    4.6290   -2.8710   -1.8636 H   0  0  0  0  0  0  0  0  0  0  0  0
    6.8980   -2.1564   -1.0871 H   0  0  0  0  0  0  0  0  0  0  0  0
    6.8934   -0.8489   -2.2749 H   0  0  0  0  0  0  0  0  0  0  0  0
    6.6549   -2.5230   -4.1183 H   0  0  0  0  0  0  0  0  0  0  0  0
    6.6574   -3.8312   -2.9312 H   0  0  0  0  0  0  0  0  0  0  0  0
    8.9252   -3.1186   -2.1504 H   0  0  0  0  0  0  0  0  0  0  0  0
    8.9228   -1.8104   -3.3375 H   0  0  0  0  0  0  0  0  0  0  0  0
    8.6810   -3.4851   -5.1815 H   0  0  0  0  0  0  0  0  0  0  0  0
    8.6856   -4.7927   -3.9937 H   0  0  0  0  0  0  0  0  0  0  0  0
   10.9534   -4.0761   -3.2148 H   0  0  0  0  0  0  0  0  0  0  0  0
   10.9486   -2.7700   -4.4044 H   0  0  0  0  0  0  0  0  0  0  0  0
   10.7065   -4.4483   -6.2449 H   0  0  0  0  0  0  0  0  0  0  0  0
   10.7136   -5.7538   -5.0547 H   0  0  0  0  0  0  0  0  0  0  0  0
   12.9812   -5.0361   -4.2798 H   0  0  0  0  0  0  0  0  0  0  0  0
   12.9742   -3.7290   -5.4683 H   0  0  0  0  0  0  0  0  0  0  0  0
   12.7344   -5.4042   -7.3105 H   0  0  0  0  0  0  0  0  0  0  0  0
   12.7392   -6.7119   -6.1227 H   0  0  0  0  0  0  0  0  0  0  0  0
   15.0068   -5.9965   -5.3441 H   0  0  0  0  0  0  0  0  0  0  0  0
   15.0020   -4.6887   -6.5319 H   0  0  0  0  0  0  0  0  0  0  0  0
   14.7599   -6.3645   -8.3748 H   0  0  0  0  0  0  0  0  0  0  0  0
   14.7670   -7.6716   -7.1864 H   0  0  0  0  0  0  0  0  0  0  0  0
   17.0346   -6.9550   -6.4105 H   0  0  0  0  0  0  0  0  0  0  0  0
   17.0276   -5.6462   -7.5971 H   0  0  0  0  0  0  0  0  0  0  0  0
   16.7877   -7.3187   -9.4417 H   0  0  0  0  0  0  0  0  0  0  0  0
   16.7925   -8.6282   -8.2558 H   0  0  0  0  0  0  0  0  0  0  0  0
   19.0601   -7.9153   -7.4766 H   0  0  0  0  0  0  0  0  0  0  0  0
   19.0554   -6.6042   -8.6607 H   0  0  0  0  0  0  0  0  0  0  0  0
   18.8155   -8.2730  -10.5086 H   0  0  0  0  0  0  0  0  0  0  0  0
   18.8180   -9.5847   -9.3252 H   0  0  0  0  0  0  0  0  0  0  0  0
   21.0855   -8.8755   -8.5426 H   0  0  0  0  0  0  0  0  0  0  0  0
   21.0833   -7.5622   -9.7242 H   0  0  0  0  0  0  0  0  0  0  0  0
   20.8434   -9.2273  -11.5755 H   0  0  0  0  0  0  0  0  0  0  0  0
   20.8435  -10.5412  -10.3946 H   0  0  0  0  0  0  0  0  0  0  0  0
   23.1111   -9.8357   -9.6086 H   0  0  0  0  0  0  0  0  0  0  0  0
   23.1110   -8.5202  -10.7878 H   0  0  0  0  0  0  0  0  0  0  0  0
   22.8689  -10.1832  -12.6421 H   0  0  0  0  0  0  0  0  0  0  0  0
   22.8712  -11.4982  -11.4623 H   0  0  0  0  0  0  0  0  0  0  0  0
   25.1389  -10.7899  -10.6773 H   0  0  0  0  0  0  0  0  0  0  0  0
   25.1365   -9.4749  -11.8571 H   0  0  0  0  0  0  0  0  0  0  0  0
   24.8944  -11.1391  -13.7104 H   0  0  0  0  0  0  0  0  0  0  0  0
   24.8990  -12.4535  -12.5300 H   0  0  0  0  0  0  0  0  0  0  0  0
   27.1667  -11.7426  -11.7474 H   0  0  0  0  0  0  0  0  0  0  0  0
   27.1620  -10.4281  -12.9277 H   0  0  0  0  0  0  0  0  0  0  0  0
   26.9210  -12.0926  -14.7802 H   0  0  0  0  0  0  0  0  0  0  0  0
   26.9257  -13.4070  -13.5999 H   0  0  0  0  0  0  0  0  0  0  0  0
   29.1934  -12.6961  -12.8172 H   0  0  0  0  0  0  0  0  0  0  0  0
   29.1887  -11.3816  -13.9976 H   0  0  0  0  0  0  0  0  0  0  0  0
   28.9477  -13.0461  -15.8501 H   0  0  0  0  0  0  0  0  0  0  0  0
   28.9524  -14.3605  -14.6697 H   0  0  0  0  0  0  0  0  0  0  0  0
   31.2200  -13.6496  -13.8871 H   0  0  0  0  0  0  0  0  0  0  0  0
   31.2153  -12.3351  -15.0674 H   0  0  0  0  0  0  0  0  0  0  0  0
   30.9743  -13.9996  -16.9200 H   0  0  0  0  0  0  0  0  0  0  0  0
   30.9790  -15.3140  -15.7396 H   0  0  0  0  0  0  0  0  0  0  0  0
   33.2466  -14.6031  -14.9569 H   0  0  0  0  0  0  0  0  0  0  0  0
   33.2420  -13.2886  -16.1373 H   0  0  0  0  0  0  0  0  0  0  0  0
   33.0021  -14.9522  -17.9900 H   0  0  0  0  0  0  0  0  0  0  0  0
   33.0045  -16.2672  -16.8102 H   0  0  0  0  0  0  0  0  0  0  0  0
   35.2721  -15.5589  -16.0252 H   0  0  0  0  0  0  0  0  0  0  0  0
   35.2699  -14.2439  -17.2050 H   0  0  0  0  0  0  0  0  0  0  0  0
   35.0300  -15.9064  -19.0587 H   0  0  0  0  0  0  0  0  0  0  0  0
   35.0300  -17.2219  -17.8795 H   0  0  0  0  0  0  0  0  0  0  0  0
   37.2976  -16.5149  -17.0918 H   0  0  0  0  0  0  0  0  0  0  0  0
   37.2976  -15.2009  -18.2727 H   0  0  0  0  0  0  0  0  0  0  0  0
   37.0578  -16.8649  -20.1251 H   0  0  0  0  0  0  0  0  0  0  0  0
   37.0555  -18.1794  -18.9448 H   0  0  0  0  0  0  0  0  0  0  0  0
   39.3231  -17.4765  -18.1565 H   0  0  0  0  0  0  0  0  0  0  0  0
   39.3255  -16.1604  -19.3350 H   0  0  0  0  0  0  0  0  0  0  0  0
   39.0834  -17.8224  -21.1903 H   0  0  0  0  0  0  0  0  0  0  0  0
   39.0832  -19.1379  -20.0111 H   0  0  0  0  0  0  0  0  0  0  0  0
   41.3510  -18.4309  -19.2234 H   0  0  0  0  0  0  0  0  0  0  0  0
   41.3509  -17.1169  -20.4043 H   0  0  0  0  0  0  0  0  0  0  0  0
   41.1100  -18.7818  -22.2565 H   0  0  0  0  0  0  0  0  0  0  0  0
   41.1100  -20.0957  -21.0755 H   0  0  0  0  0  0  0  0  0  0  0  0
   43.3776  -19.3888  -20.2892 H   0  0  0  0  0  0  0  0  0  0  0  0
   43.3776  -18.0749  -21.4701 H   0  0  0  0  0  0  0  0  0  0  0  0
   43.1366  -19.7398  -23.3223 H   0  0  0  0  0  0  0  0  0  0  0  0
   43.1366  -21.0537  -22.1413 H   0  0  0  0  0  0  0  0  0  0  0  0
   45.4043  -20.3468  -21.3550 H   0  0  0  0  0  0  0  0  0  0  0  0
   45.4043  -19.0329  -22.5359 H   0  0  0  0  0  0  0  0  0  0  0  0
   45.1633  -20.6978  -24.3881 H   0  0  0  0  0  0  0  0  0  0  0  0
   45.1633  -22.0117  -23.2071 H   0  0  0  0  0  0  0  0  0  0  0  0
   47.4309  -21.3048  -22.4208 H   0  0  0  0  0  0  0  0  0  0  0  0
   47.4309  -19.9909  -23.6017 H   0  0  0  0  0  0  0  0  0  0  0  0
   47.1900  -21.6558  -25.4539 H   0  0  0  0  0  0  0  0  0  0  0  0
   47.1900  -22.9696  -24.2729 H   0  0  0  0  0  0  0  0  0  0  0  0
   49.4576  -22.2628  -23.4865 H   0  0  0  0  0  0  0  0  0  0  0  0
   49.4576  -20.9490  -24.6676 H   0  0  0  0  0  0  0  0  0  0  0  0
   49.2178  -22.6129  -26.5199 H   0  0  0  0  0  0  0  0  0  0  0  0
   49.2155  -23.9274  -25.3395 H   0  0  0  0  0  0  0  0  0  0  0  0
   51.4831  -23.2232  -24.5508 H   0  0  0  0  0  0  0  0  0  0  0  0
   51.4854  -21.9087  -25.7312 H   0  0  0  0  0  0  0  0  0  0  0  0
   51.2433  -23.5732  -27.5842 H   0  0  0  0  0  0  0  0  0  0  0  0
   51.2433  -24.8871  -26.4032 H   0  0  0  0  0  0  0  0  0  0  0  0
   53.5109  -24.1817  -25.6172 H   0  0  0  0  0  0  0  0  0  0  0  0
   53.5110  -22.8662  -26.7964 H   0  0  0  0  0  0  0  0  0  0  0  0
   53.2711  -24.5275  -28.6510 H   0  0  0  0  0  0  0  0  0  0  0  0
   53.2688  -25.8437  -27.4726 H   0  0  0  0  0  0  0  0  0  0  0  0
   55.5364  -25.1419  -26.6833 H   0  0  0  0  0  0  0  0  0  0  0  0
   55.5388  -23.8242  -27.8599 H   0  0  0  0  0  0  0  0  0  0  0  0
   55.2989  -25.4818  -29.7179 H   0  0  0  0  0  0  0  0  0  0  0  0
   55.2943  -26.8002  -28.5420 H   0  0  0  0  0  0  0  0  0  0  0  0
   57.5619  -26.1022  -27.7493 H   0  0  0  0  0  0  0  0  0  0  0  0
   57.5666  -24.7822  -28.9235 H   0  0  0  0  0  0  0  0  0  0  0  0
   57.3245  -26.4377  -30.7845 H   0  0  0  0  0  0  0  0  0  0  0  0
   57.3220  -27.7572  -29.6097 H   0  0  0  0  0  0  0  0  0  0  0  0
   59.5897  -27.0563  -28.8180 H   0  0  0  0  0  0  0  0  0  0  0  0
   59.5921  -25.7369  -29.9928 H   0  0  0  0  0  0  0  0  0  0  0  0
   59.3523  -27.3919  -31.8532 H   0  0  0  0  0  0  0  0  0  0  0  0
   59.3476  -28.7119  -30.6790 H   0  0  0  0  0  0  0  0  0  0  0  0
   61.6152  -28.0137  -29.8850 H   0  0  0  0  0  0  0  0  0  0  0  0
   61.6199  -26.6937  -31.0591 H   0  0  0  0  0  0  0  0  0  0  0  0
   61.3790  -28.3484  -32.9203 H   0  0  0  0  0  0  0  0  0  0  0  0
   61.3742  -29.6684  -31.7462 H   0  0  0  0  0  0  0  0  0  0  0  0
   63.6419  -28.9702  -30.9521 H   0  0  0  0  0  0  0  0  0  0  0  0
   63.6466  -27.6502  -32.1263 H   0  0  0  0  0  0  0  0  0  0  0  0
   63.4056  -29.3049  -33.9875 H   0  0  0  0  0  0  0  0  0  0  0  0
   63.4009  -30.6249  -32.8133 H   0  0  0  0  0  0  0  0  0  0  0  0
   65.6685  -29.9267  -32.0193 H   0  0  0  0  0  0  0  0  0  0  0  0
   65.6733  -28.6067  -33.1934 H   0  0  0  0  0  0  0  0  0  0  0  0
   65.4323  -30.2614  -35.0546 H   0  0  0  0  0  0  0  0  0  0  0  0
   65.4276  -31.5814  -33.8805 H   0  0  0  0  0  0  0  0  0  0  0  0
   67.6952  -30.8832  -33.0864 H   0  0  0  0  0  0  0  0  0  0  0  0
   67.6999  -29.5632  -34.2606 H   0  0  0  0  0  0  0  0  0  0  0  0
   67.4590  -31.2179  -36.1218 H   0  0  0  0  0  0  0  0  0  0  0  0
   67.4542  -32.5379  -34.9476 H   0  0  0  0  0  0  0  0  0  0  0  0
   69.7219  -31.8397  -34.1536 H   0  0  0  0  0  0  0  0  0  0  0  0
   69.7266  -30.5196  -35.3277 H   0  0  0  0  0  0  0  0  0  0  0  0
   69.4845  -32.1752  -37.1887 H   0  0  0  0  0  0  0  0  0  0  0  0
   69.4820  -33.4946  -36.0140 H   0  0  0  0  0  0  0  0  0  0  0  0
   71.7497  -32.7938  -35.2222 H   0  0  0  0  0  0  0  0  0  0  0  0
   71.7521  -31.4744  -36.3970 H   0  0  0  0  0  0  0  0  0  0  0  0
   71.5111  -33.1302  -38.2572 H   0  0  0  0  0  0  0  0  0  0  0  0
   71.5087  -34.4496  -37.0824 H   0  0  0  0  0  0  0  0  0  0  0  0
   73.7764  -33.7488  -36.2907 H   0  0  0  0  0  0  0  0  0  0  0  0
   73.7787  -32.4293  -37.4655 H   0  0  0  0  0  0  0  0  0  0  0  0
   73.5377  -34.0852  -39.3257 H   0  0  0  0  0  0  0  0  0  0  0  0
   73.5354  -35.4046  -38.1509 H   0  0  0  0  0  0  0  0  0  0  0  0
   75.8029  -34.7037  -37.3591 H   0  0  0  0  0  0  0  0  0  0  0  0
   75.8054  -33.3843  -38.5339 H   0  0  0  0  0  0  0  0  0  0  0  0
   75.5657  -35.0393  -40.3943 H   0  0  0  0  0  0  0  0  0  0  0  0
   75.5610  -36.3593  -39.2202 H   0  0  0  0  0  0  0  0  0  0  0  0
   77.8288  -35.6609  -38.4259 H   0  0  0  0  0  0  0  0  0  0  0  0
   77.8335  -34.3409  -39.6000 H   0  0  0  0  0  0  0  0  0  0  0  0
   77.5935  -35.9959  -41.4614 H   0  0  0  0  0  0  0  0  0  0  0  0
   77.5887  -37.3157  -40.2874 H   0  0  0  0  0  0  0  0  0  0  0  0
   79.8583  -36.6175  -39.4942 H   0  0  0  0  0  0  0  0  0  0  0  0
   79.8629  -35.2990  -40.6702 H   0  0  0  0  0  0  0  0  0  0  0  0
   79.6218  -36.9580  -42.5290 H   0  0  0  0  0  0  0  0  0  0  0  0
   79.6194  -38.2750  -41.3531 H   0  0  0  0  0  0  0  0  0  0  0  0
   81.8992  -37.5854  -40.5762 H   0  0  0  0  0  0  0  0  0  0  0  0
   81.9016  -36.2685  -41.7521 H   0  0  0  0  0  0  0  0  0  0  0  0
   81.6811  -39.2486  -42.4330 H   0  0  0  0  0  0  0  0  0  0  0  0
   83.1263  -38.2374  -42.6293 H   0  0  0  0  0  0  0  0  0  0  0  0
   81.6835  -37.9254  -43.6145 H   0  0  0  0  0  0  0  0  0  0  0  0
  1  2  1  0  0  0  0
  1 82  1  0  0  0  0
  2  3  1  0  0  0  0
  2 83  1  0  0  0  0
  2 84  1  0  0  0  0
  3  4  1  0  0  0  0
  3 85  1  0  0  0  0
  3 86  1  0  0  0  0
  4  5  1  0  0  0  0
  4 87  1  0  0  0  0
  4 88  1  0  0  0  0
  5  6  1  0  0  0  0
  5 89  1  0  0  0  0
  5 90  1  0  0  0  0
  6  7  1  0  0  0  0
  6 91  1  0  0  0  0
  6 92  1  0  0  0  0
  7  8  1  0  0  0  0
  7 93  1  0  0  0  0
  7 94  1  0  0  0  0
  8  9  1  0  0  0  0
  8 95  1  0  0  0  0
  8 96  1  0  0  0  0
  9 10  1  0  0  0  0
  9 97  1  0  0  0  0
  9 98  1  0  0  0  0
 10 11  1  0  0  0  0
 10 99  1  0  0  0  0
 10100  1  0  0  0  0
 11 12  1  0  0  0  0
 11101  1  0  0  0  0
 11102  1  0  0  0  0
 12 13  1  0  0  0  0
 12103  1  0  0  0  0
 12104  1  0  0  0  0
 13 14  1  0  0  0  0
 13105  1  0  0  0  0
 13106  1  0  0  0  0
 14 15  1  0  0  0  0
 14107  1  0  0  0  0
 14108  1  0  0  0  0
 15 16  1  0  0  0  0
 15109  1  0  0  0  0
 15110  1  0  0  0  0
 16 17  1  0  0  0  0
 16111  1  0  0  0  0
 16112  1  0  0  0  0
 17 18  1  0  0  0  0
 17113  1  0  0  0  0
 17114  1  0  0  0  0
 18 19  1  0  0  0  0
 18115  1  0  0  0  0
 18116  1  0  0  0  0
 19 20  1  0  0  0  0
 19117  1  0  0  0  0
 19118  1  0  0  0  0
 20 21  1  0  0  0  0
 20119  1  0  0  0  0
 20120  1  0  0  0  0
 21 22  1  0  0  0  0
 21121  1  0  0  0  0
 21122  1  0  0  0  0
 22 23  1  0  0  0  0
 22123  1  0  0  0  0
 22124  1  0  0  0  0
 23 24  1  0  0  0  0
 23125  1  0  0  0  0
 23126  1  0  0  0  0
 24 25  1  0  0  0  0
 24127  1  0  0  0  0
 24128  1  0  0  0  0
 25 26  1  0  0  0  0
 25129  1  0  0  0  0
 25130  1  0  0  0  0
 26 27  1  0  0  0  0
 26131  1  0  0  0  0
 26132  1  0  0  0  0
 27 28  1  0  0  0  0
 27133  1  0  0  0  0
 27134  1  0  0  0  0
 28 29  1  0  0  0  0
 28135  1  0  0  0  0
 28136  1  0  0  0  0
 29 30  1  0  0  0  0
 29137  1  0  0  0  0
 29138  1  0  0  0  0
 30 31  1  0  0  0  0
 30139  1  0  0  0  0
 30140  1  0  0  0  0
 31 32  1  0  0  0  0
 31141  1  0  0  0  0
 31142  1  0  0  0  0
 32 33  1  0  0  0  0
 32143  1  0  0  0  0
 32144  1  0  0  0  0
 33 34  1  0  0  0  0
 33145  1  0  0  0  0
 33146  1  0  0  0  0
 34 35  1  0  0  0  0
 34147  1  0  0  0  0
 34148  1  0  0  0  0
 35 36  1  0  0  0  0
 35149  1  0  0  0  0
 35150  1  0  0  0  0
 36 37  1  0  0  0  0
 36151  1  0  0  0  0
 36152  1  0  0  0  0
 37 38  1  0  0  0  0
 37153  1  0  0  0  0
 37154  1  0  0  0  0
 38 39  1  0  0  0  0
 38155  1  0  0  0  0
 38156  1  0  0  0  0
 39 40  1  0  0  0  0
 39157  1  0  0  0  0
 39158  1  0  0  0  0
 40 41  1  0  0  0  0
 40159  1  0  0  0  0
 40160  1  0  0  0  0
 41 42  1  0  0  0  0
 41161  1  0  0  0  0
 41162  1  0  0  0  0
 42 43  1  0  0  0  0
 42163  1  0  0  0  0
 42164  1  0  0  0  0
 43 44  1  0  0  0  0
 43165  1  0  0  0  0
 43166  1  0  0  0  0
 44 45  1  0  0  0  0
 44167  1  0  0  0  0
 44168  1  0  0  0  0
 45 46  1  0  0  0  0
 45169  1  0  0  0  0
 45170  1  0  0  0  0
 46 47  1  0  0  0  0
 46171  1  0  0  0  0
 46172  1  0  0  0  0
 47 48  1  0  0  0  0
 47173  1  0  0  0  0
 47174  1  0  0  0  0
 48 49  1  0  0  0  0
 48175  1  0  0  0  0
 48176  1  0  0  0  0
 49 50  1  0  0  0  0
 49177  1  0  0  0  0
 49178  1  0  0  0  0
 50 51  1  0  0  0  0
 50179  1  0  0  0  0
 50180  1  0  0  0  0
 51 52  1  0  0  0  0
 51181  1  0  0  0  0
 51182  1  0  0  0  0
 52 53  1  0  0  0  0
 52183  1  0  0  0  0
 52184  1  0  0  0  0
 53 54  1  0  0  0  0
 53185  1  0  0  0  0
 53186  1  0  0  0  0
 54 55  1  0  0  0  0
 54187  1  0  0  0  0
 54188  1  0  0  0  0
 55 56  1  0  0  0  0
 55189  1  0  0  0  0
 55190  1  0  0  0  0
 56 57  1  0  0  0  0
 56191  1  0  0  0  0
 56192  1  0  0  0  0
 57 58  1  0  0  0  0
 57193  1  0  0  0  0
 57194  1  0  0  0  0
 58 59  1  0  0  0  0
 58195  1  0  0  0  0
 58196  1  0  0  0  0
 59 60  1  0  0  0  0
 59197  1  0  0  0  0
 59198  1  0  0  0  0
 60 61  1  0  0  0  0
 60199  1  0  0  0  0
 60200  1  0  0  0  0
 61 62  1  0  0  0  0
 61201  1  0  0  0  0
 61202  1  0  0  0  0
 62 63  1  0  0  0  0
 62203  1  0  0  0  0
 62204  1  0  0  0  0
 63 64  1  0  0  0  0
 63205  1  0  0  0  0
 63206  1  0  0  0  0
 64 65  1  0  0  0  0
 64207  1  0  0  0  0
 64208  1  0  0  0  0
 65 66  1  0  0  0  0
 65209  1  0  0  0  0
 65210  1  0  0  0  0
 66 67  1  0  0  0  0
 66211  1  0  0  0  0
 66212  1  0  0  0  0
 67 68  1  0  0  0  0
 67213  1  0  0  0  0
 67214  1  0  0  0  0
 68 69  1  0  0  0  0
 68215  1  0  0  0  0
 68216  1  0  0  0  0
 69 70  1  0  0  0  0
 69217  1  0  0  0  0
 69218  1  0  0  0  0
 70 71  1  0  0  0  0
 70219  1  0  0  0  0
 70220  1  0  0  0  0
 71 72  1  0  0  0  0
 71221  1  0  0  0  0
 71222  1  0  0  0  0
 72 73  1  0  0  0  0
 72223  1  0  0  0  0
 72224  1  0  0  0  0
 73 74  1  0  0  0  0
 73225  1  0  0  0  0
 73226  1  0  0  0  0
 74 75  1  0  0  0  0
 74227  1  0  0  0  0
 74228  1  0  0  0  0
 75 76  1  0  0  0  0
 75229  1  0  0  0  0
 75230  1  0  0  0  0
 76 77  1  0  0  0  0
 76231  1  0  0  0  0
 76232  1  0  0  0  0
 77 78  1  0  0  0  0
 77233  1  0  0  0  0
 77234  1  0  0  0  0
 78 79  1  0  0  0  0
 78235  1  0  0  0  0
 78236  1  0  0  0  0
 79 80  1  0  0  0  0
 79237  1  0  0  0  0
 79238  1  0  0  0  0
 80 81  1  0  0  0  0
 80239  1  0  0  0  0
 80240  1  0  0  0  0
 81241  1  0  0  0  0
 81242  1  0  0  0  0
 81243  1  0  0  0  0
M  END
$$$$
