
 OpenBabel04232216573D

 57 59  0  0  0  0  0  0  0  0999 V2000
   -1.3788   -1.2274    4.5276 C   0  0  0  0  0  0  0  0  0  0  0  0
   -0.7837   -2.0701    3.5512 O   0  0  0  0  0  0  0  0  0  0  0  0
    0.5028   -2.5624    3.7481 C   0  0  0  0  0  0  0  0  0  0  0  0
    0.6899   -3.6783    2.8555 C   0  0  0  0  0  0  0  0  0  0  0  0
    1.5621   -4.6794    2.7458 C   0  0  0  0  0  0  0  0  0  0  0  0
    2.7177   -5.1155    3.4698 C   0  0  0  0  0  0  0  0  0  0  0  0
    3.6083   -4.5290    4.2824 C   0  0  0  0  0  0  0  0  0  0  0  0
    4.7846   -5.3907    4.7553 C   0  0  0  0  0  0  0  0  0  0  0  0
    6.0244   -5.2957    3.8417 C   0  0  0  0  0  0  0  0  0  0  0  0
    7.1700   -6.2363    4.2632 C   0  0  0  0  0  0  0  0  0  0  0  0
    6.7651   -7.7083    4.1813 C   0  0  0  0  0  0  0  0  0  0  0  0
    7.8683   -8.5967    4.5675 N   0  0  0  0  0  0  0  0  0  0  0  0
    7.4302   -9.9516    4.6209 C   0  0  0  0  0  0  0  0  0  0  0  0
    6.1812  -10.2451    4.2213 N   0  0  0  0  0  0  0  0  0  0  0  0
    5.7180  -11.4968    4.3282 C   0  0  0  0  0  0  0  0  0  0  0  0
    4.4001  -11.7144    3.9767 N   0  0  0  0  0  0  0  0  0  0  0  0
    3.8331  -13.0509    4.0816 C   0  0  0  0  0  0  0  0  0  0  0  0
    3.2369  -13.3123    2.7032 C   0  0  0  0  0  0  0  0  0  0  0  0
    2.8415  -11.9240    2.2253 C   0  0  0  0  0  0  0  0  0  0  0  0
    3.9705  -11.0419    2.7539 C   0  0  0  0  0  0  0  0  0  0  0  0
    6.4690  -12.5008    4.7754 N   0  0  0  0  0  0  0  0  0  0  0  0
    7.7419  -12.2072    5.1051 C   0  0  0  0  0  0  0  0  0  0  0  0
    8.2893  -10.9414    5.0662 C   0  0  0  0  0  0  0  0  0  0  0  0
    9.7119  -10.7084    5.4492 C   0  0  0  0  0  0  0  0  0  0  0  0
    3.6556   -3.1731    4.7739 C   0  0  0  0  0  0  0  0  0  0  0  0
    2.7717   -2.1804    4.8842 C   0  0  0  0  0  0  0  0  0  0  0  0
    1.3834   -1.9859    4.5777 C   0  0  0  0  0  0  0  0  0  0  0  0
   -2.3950   -0.9968    4.1922 H   0  0  0  0  0  0  0  0  0  0  0  0
   -0.8491   -0.2756    4.6281 H   0  0  0  0  0  0  0  0  0  0  0  0
   -1.4473   -1.7488    5.4868 H   0  0  0  0  0  0  0  0  0  0  0  0
   -0.1204   -3.7300    2.1213 H   0  0  0  0  0  0  0  0  0  0  0  0
    1.3209   -5.3866    1.9465 H   0  0  0  0  0  0  0  0  0  0  0  0
    2.9270   -6.1602    3.2202 H   0  0  0  0  0  0  0  0  0  0  0  0
    4.4427   -6.4302    4.8086 H   0  0  0  0  0  0  0  0  0  0  0  0
    5.0637   -5.1309    5.7843 H   0  0  0  0  0  0  0  0  0  0  0  0
    6.4041   -4.2662    3.8443 H   0  0  0  0  0  0  0  0  0  0  0  0
    5.7435   -5.5206    2.8045 H   0  0  0  0  0  0  0  0  0  0  0  0
    7.4959   -5.9895    5.2803 H   0  0  0  0  0  0  0  0  0  0  0  0
    8.0333   -6.0608    3.6075 H   0  0  0  0  0  0  0  0  0  0  0  0
    6.4477   -7.9287    3.1538 H   0  0  0  0  0  0  0  0  0  0  0  0
    5.9211   -7.8754    4.8584 H   0  0  0  0  0  0  0  0  0  0  0  0
    8.2322   -8.3565    5.4832 H   0  0  0  0  0  0  0  0  0  0  0  0
    3.0380  -13.0267    4.8362 H   0  0  0  0  0  0  0  0  0  0  0  0
    4.5308  -13.8467    4.3598 H   0  0  0  0  0  0  0  0  0  0  0  0
    2.3915  -14.0043    2.7413 H   0  0  0  0  0  0  0  0  0  0  0  0
    4.0011  -13.7355    2.0408 H   0  0  0  0  0  0  0  0  0  0  0  0
    1.8853  -11.6279    2.6718 H   0  0  0  0  0  0  0  0  0  0  0  0
    2.7444  -11.8680    1.1371 H   0  0  0  0  0  0  0  0  0  0  0  0
    3.6168  -10.0245    2.9538 H   0  0  0  0  0  0  0  0  0  0  0  0
    4.7737  -10.9980    2.0062 H   0  0  0  0  0  0  0  0  0  0  0  0
    8.3295  -13.0700    5.4245 H   0  0  0  0  0  0  0  0  0  0  0  0
   10.1458  -11.5971    5.9215 H   0  0  0  0  0  0  0  0  0  0  0  0
    9.7938   -9.8916    6.1720 H   0  0  0  0  0  0  0  0  0  0  0  0
   10.3135  -10.4736    4.5659 H   0  0  0  0  0  0  0  0  0  0  0  0
    4.6359   -2.9222    5.1890 H   0  0  0  0  0  0  0  0  0  0  0  0
    3.1768   -1.2888    5.3739 H   0  0  0  0  0  0  0  0  0  0  0  0
    1.0394   -1.0977    5.1050 H   0  0  0  0  0  0  0  0  0  0  0  0
  1  2  1  0  0  0  0
  1 28  1  0  0  0  0
  1 29  1  0  0  0  0
  1 30  1  0  0  0  0
  2  3  1  0  0  0  0
  3  4  1  0  0  0  0
  3 27  2  0  0  0  0
  4  5  2  0  0  0  0
  4 31  1  0  0  0  0
  5  6  1  0  0  0  0
  5 32  1  0  0  0  0
  6  7  2  0  0  0  0
  6 33  1  0  0  0  0
  7  8  1  0  0  0  0
  7 25  1  0  0  0  0
  8  9  1  0  0  0  0
  8 34  1  0  0  0  0
  8 35  1  0  0  0  0
  9 10  1  0  0  0  0
  9 36  1  0  0  0  0
  9 37  1  0  0  0  0
 10 11  1  0  0  0  0
 10 38  1  0  0  0  0
 10 39  1  0  0  0  0
 11 12  1  0  0  0  0
 11 40  1  0  0  0  0
 11 41  1  0  0  0  0
 12 13  1  0  0  0  0
 12 42  1  0  0  0  0
 13 14  1  0  0  0  0
 13 23  2  0  0  0  0
 14 15  2  0  0  0  0
 15 16  1  0  0  0  0
 15 21  1  0  0  0  0
 16 17  1  0  0  0  0
 16 20  1  0  0  0  0
 17 18  1  0  0  0  0
 17 43  1  0  0  0  0
 17 44  1  0  0  0  0
 18 19  1  0  0  0  0
 18 45  1  0  0  0  0
 18 46  1  0  0  0  0
 19 20  1  0  0  0  0
 19 47  1  0  0  0  0
 19 48  1  0  0  0  0
 20 49  1  0  0  0  0
 20 50  1  0  0  0  0
 21 22  2  0  0  0  0
 22 23  1  0  0  0  0
 22 51  1  0  0  0  0
 23 24  1  0  0  0  0
 24 52  1  0  0  0  0
 24 53  1  0  0  0  0
 24 54  1  0  0  0  0
 25 26  2  0  0  0  0
 25 55  1  0  0  0  0
 26 27  1  0  0  0  0
 26 56  1  0  0  0  0
 27 57  1  0  0  0  0
M  END
$$$$
