
 OpenBabel04232216453D

 63 64  0  0  1  0  0  0  0  0999 V2000
    0.8910   -0.0795    0.1087 C   0  0  0  0  0  0  0  0  0  0  0  0
    2.4031   -0.0368    0.0292 C   0  0  0  0  0  0  0  0  0  0  0  0
    2.9717    1.2657   -0.2016 C   0  0  0  0  0  0  0  0  0  0  0  0
    4.2498    1.6792   -0.1923 C   0  0  0  0  0  0  0  0  0  0  0  0
    4.4819    3.1536   -0.4799 C   0  0  0  0  0  0  0  0  0  0  0  0
    5.5282    0.8872    0.0534 C   0  0  3  0  0  0  0  0  0  0  0  0
    6.2378    1.3366    1.3717 C   0  0  0  0  0  0  0  0  0  0  0  0
    5.4390    0.9995    2.6308 C   0  0  0  0  0  0  0  0  0  0  0  0
    6.1965    1.3341    3.9180 C   0  0  0  0  0  0  0  0  0  0  0  0
    5.3089    1.0213    5.1235 C   0  0  0  0  0  0  0  0  0  0  0  0
    5.9850    1.3258    6.4475 C   0  0  0  0  0  0  0  0  0  0  0  0
    5.5671   -0.6398   -0.0592 C   0  0  0  0  0  0  0  0  0  0  0  0
    6.8762   -1.2005   -0.1563 C   0  0  0  0  0  0  0  0  0  0  0  0
    7.1278   -2.5773   -0.1047 C   0  0  0  0  0  0  0  0  0  0  0  0
    8.5391   -3.1081   -0.0758 C   0  0  0  0  0  0  0  0  0  0  0  0
    8.8347   -4.0535   -1.2403 C   0  0  0  0  0  0  0  0  0  0  0  0
   10.2580   -4.6067   -1.1668 C   0  0  0  0  0  0  0  0  0  0  0  0
   10.5228   -5.5469   -2.3426 C   0  0  0  0  0  0  0  0  0  0  0  0
   11.9360   -6.1181   -2.3012 C   0  0  0  0  0  0  0  0  0  0  0  0
   12.1804   -7.0500   -3.4873 C   0  0  0  0  0  0  0  0  0  0  0  0
   13.5850   -7.6278   -3.4590 C   0  0  0  0  0  0  0  0  0  0  0  0
    6.0423   -3.4354   -0.0114 C   0  0  0  0  0  0  0  0  0  0  0  0
    4.7508   -2.9174    0.0273 C   0  0  0  0  0  0  0  0  0  0  0  0
    4.4865   -1.5261    0.0164 C   0  0  0  0  0  0  0  0  0  0  0  0
    3.0632   -1.1974    0.1215 C   0  0  0  0  0  0  0  0  0  0  0  0
    0.4357    0.9142    0.1846 H   0  0  0  0  0  0  0  0  0  0  0  0
    0.5607   -0.6485    0.9858 H   0  0  0  0  0  0  0  0  0  0  0  0
    0.4849   -0.5586   -0.7895 H   0  0  0  0  0  0  0  0  0  0  0  0
    2.2149    2.0282   -0.3919 H   0  0  0  0  0  0  0  0  0  0  0  0
    3.5702    3.6664   -0.8089 H   0  0  0  0  0  0  0  0  0  0  0  0
    5.2205    3.2796   -1.2772 H   0  0  0  0  0  0  0  0  0  0  0  0
    4.8319    3.6743    0.4166 H   0  0  0  0  0  0  0  0  0  0  0  0
    6.1871    1.2106   -0.7696 H   0  0  0  0  0  0  0  0  0  0  0  0
    6.4334    2.4156    1.3442 H   0  0  0  0  0  0  0  0  0  0  0  0
    7.2316    0.8773    1.4494 H   0  0  0  0  0  0  0  0  0  0  0  0
    5.1941   -0.0684    2.6416 H   0  0  0  0  0  0  0  0  0  0  0  0
    4.4922    1.5510    2.6187 H   0  0  0  0  0  0  0  0  0  0  0  0
    6.4824    2.3927    3.9244 H   0  0  0  0  0  0  0  0  0  0  0  0
    7.1222    0.7470    3.9715 H   0  0  0  0  0  0  0  0  0  0  0  0
    5.0237   -0.0373    5.1041 H   0  0  0  0  0  0  0  0  0  0  0  0
    4.3835    1.6051    5.0548 H   0  0  0  0  0  0  0  0  0  0  0  0
    6.8853    0.7183    6.5802 H   0  0  0  0  0  0  0  0  0  0  0  0
    5.3005    1.1020    7.2724 H   0  0  0  0  0  0  0  0  0  0  0  0
    6.2633    2.3818    6.5153 H   0  0  0  0  0  0  0  0  0  0  0  0
    7.7318   -0.5296   -0.2339 H   0  0  0  0  0  0  0  0  0  0  0  0
    8.6905   -3.6239    0.8800 H   0  0  0  0  0  0  0  0  0  0  0  0
    9.2541   -2.2767   -0.0923 H   0  0  0  0  0  0  0  0  0  0  0  0
    8.6906   -3.5221   -2.1896 H   0  0  0  0  0  0  0  0  0  0  0  0
    8.1294   -4.8921   -1.2377 H   0  0  0  0  0  0  0  0  0  0  0  0
   10.3965   -5.1452   -0.2239 H   0  0  0  0  0  0  0  0  0  0  0  0
   10.9787   -3.7806   -1.1800 H   0  0  0  0  0  0  0  0  0  0  0  0
   10.3716   -5.0030   -3.2839 H   0  0  0  0  0  0  0  0  0  0  0  0
    9.7936   -6.3666   -2.3247 H   0  0  0  0  0  0  0  0  0  0  0  0
   12.0849   -6.6666   -1.3633 H   0  0  0  0  0  0  0  0  0  0  0  0
   12.6658   -5.2995   -2.3177 H   0  0  0  0  0  0  0  0  0  0  0  0
   12.0340   -6.5035   -4.4264 H   0  0  0  0  0  0  0  0  0  0  0  0
   11.4526   -7.8698   -3.4730 H   0  0  0  0  0  0  0  0  0  0  0  0
   14.3360   -6.8329   -3.5054 H   0  0  0  0  0  0  0  0  0  0  0  0
   13.7385   -8.2919   -4.3152 H   0  0  0  0  0  0  0  0  0  0  0  0
   13.7517   -8.2063   -2.5449 H   0  0  0  0  0  0  0  0  0  0  0  0
    6.1835   -4.5115    0.0458 H   0  0  0  0  0  0  0  0  0  0  0  0
    3.9334   -3.6341    0.0879 H   0  0  0  0  0  0  0  0  0  0  0  0
    2.4280   -2.0753    0.2683 H   0  0  0  0  0  0  0  0  0  0  0  0
  1  2  1  0  0  0  0
  1 26  1  0  0  0  0
  1 27  1  0  0  0  0
  1 28  1  0  0  0  0
  2  3  1  0  0  0  0
  2 25  2  0  0  0  0
  3  4  2  0  0  0  0
  3 29  1  0  0  0  0
  4  5  1  0  0  0  0
  4  6  1  0  0  0  0
  5 30  1  0  0  0  0
  5 31  1  0  0  0  0
  5 32  1  0  0  0  0
  6  7  1  0  0  0  0
  6 12  1  0  0  0  0
  6 33  1  0  0  0  0
  7  8  1  0  0  0  0
  7 34  1  0  0  0  0
  7 35  1  0  0  0  0
  8  9  1  0  0  0  0
  8 36  1  0  0  0  0
  8 37  1  0  0  0  0
  9 10  1  0  0  0  0
  9 38  1  0  0  0  0
  9 39  1  0  0  0  0
 10 11  1  0  0  0  0
 10 40  1  0  0  0  0
 10 41  1  0  0  0  0
 11 42  1  0  0  0  0
 11 43  1  0  0  0  0
 11 44  1  0  0  0  0
 12 13  1  0  0  0  0
 12 24  2  0  0  0  0
 13 14  2  0  0  0  0
 13 45  1  0  0  0  0
 14 15  1  0  0  0  0
 14 22  1  0  0  0  0
 15 16  1  0  0  0  0
 15 46  1  0  0  0  0
 15 47  1  0  0  0  0
 16 17  1  0  0  0  0
 16 48  1  0  0  0  0
 16 49  1  0  0  0  0
 17 18  1  0  0  0  0
 17 50  1  0  0  0  0
 17 51  1  0  0  0  0
 18 19  1  0  0  0  0
 18 52  1  0  0  0  0
 18 53  1  0  0  0  0
 19 20  1  0  0  0  0
 19 54  1  0  0  0  0
 19 55  1  0  0  0  0
 20 21  1  0  0  0  0
 20 56  1  0  0  0  0
 20 57  1  0  0  0  0
 21 58  1  0  0  0  0
 21 59  1  0  0  0  0
 21 60  1  0  0  0  0
 22 23  2  0  0  0  0
 22 61  1  0  0  0  0
 23 24  1  0  0  0  0
 23 62  1  0  0  0  0
 24 25  1  0  0  0  0
 25 63  1  0  0  0  0
M  END
$$$$
