
 OpenBabel04232216503D

 66 67  0  0  1  0  0  0  0  0999 V2000
    5.6452    1.8414    1.3120 C   0  0  0  0  0  0  0  0  0  0  0  0
    7.0936    3.3234    1.5033 C   0  0  3  0  0  0  0  0  0  0  0  0
    5.4198    3.3416    1.3153 C   0  0  0  0  0  3  0  0  0  0  0  0
    5.6741    3.9008    0.0611 C   0  0  0  0  0  0  0  0  0  0  0  0
    5.5936    4.7792    1.7369 C   0  0  0  0  0  0  0  0  0  0  0  0
    6.2487    3.8517    3.4029 C   0  0  0  0  0  0  0  0  0  0  0  0
    7.7335    4.2447    3.8570 C   0  0  0  0  0  0  0  0  0  0  0  0
    9.2040    3.7565    2.5831 C   0  0  0  0  0  0  0  0  0  0  0  0
    9.6409    4.7576    0.9364 C   0  0  0  0  0  0  0  0  0  0  0  0
   11.0255    4.6457    0.6916 C   0  0  0  0  0  0  0  0  0  0  0  0
   11.5912    5.9768    0.8809 C   0  0  0  0  0  0  0  0  0  0  0  0
   12.8493    5.3106    1.3371 C   0  0  0  0  0  0  0  0  0  0  0  0
   13.5951    6.3344    1.8903 C   0  0  0  0  0  0  0  0  0  0  0  0
   13.7817    6.9495    3.0904 C   0  0  0  0  0  0  0  0  0  0  0  0
   14.9277    6.8823    3.5298 O   0  0  0  0  0  0  0  0  0  0  0  0
   12.3595    8.0395    2.7479 C   0  0  0  0  0  0  0  0  0  0  0  0
   11.0617    7.4011    3.4648 C   0  0  0  0  0  0  0  0  0  0  0  0
   12.3113    8.0467    4.7367 N   0  0  0  0  0  0  0  0  0  0  0  0
   13.9816    9.1065    4.3718 C   0  0  3  0  0  0  0  0  0  0  0  0
   15.9415    9.4026    4.7836 C   0  0  0  0  0  0  0  0  0  0  0  0
   17.5657   10.4437    4.3628 C   0  0  0  0  0  0  0  0  0  0  0  0
   18.2963   12.0487    4.6497 C   0  0  0  0  0  0  0  0  0  0  0  0
   17.7990   13.1984    3.7748 C   0  0  0  0  0  0  0  0  0  0  0  0
   13.8209    9.0575    2.8867 C   0  0  0  0  0  0  0  0  0  0  0  0
    9.4165    6.1958    2.9624 C   0  0  0  0  0  0  0  0  0  0  0  0
    7.9792    5.3410    2.0893 C   0  0  0  0  0  0  0  0  0  0  0  0
    4.9183    1.4395    2.1786 H   0  0  0  0  0  0  0  0  0  0  0  0
    5.8392    0.8938    0.6731 H   0  0  0  0  0  0  0  0  0  0  0  0
    4.5973    1.8763    0.5304 H   0  0  0  0  0  0  0  0  0  0  0  0
    7.5700    2.3330    1.8158 H   0  0  0  0  0  0  0  0  0  0  0  0
    4.3421    3.2373    1.8031 H   0  0  0  0  0  0  0  0  0  0  0  0
    4.8196    3.5746   -0.5706 H   0  0  0  0  0  0  0  0  0  0  0  0
    6.3903    3.0129   -0.2989 H   0  0  0  0  0  0  0  0  0  0  0  0
    4.6588    4.9061    2.3646 H   0  0  0  0  0  0  0  0  0  0  0  0
    4.8719    5.4600    1.2063 H   0  0  0  0  0  0  0  0  0  0  0  0
    6.9564    2.9652    3.3387 H   0  0  0  0  0  0  0  0  0  0  0  0
    5.6938    2.8964    3.6553 H   0  0  0  0  0  0  0  0  0  0  0  0
    7.9556    4.2001    4.9268 H   0  0  0  0  0  0  0  0  0  0  0  0
    7.3928    5.3272    3.8999 H   0  0  0  0  0  0  0  0  0  0  0  0
    8.9401    2.9926    1.8848 H   0  0  0  0  0  0  0  0  0  0  0  0
    9.8586    3.0021    3.0566 H   0  0  0  0  0  0  0  0  0  0  0  0
    9.4879    5.8642    1.0670 H   0  0  0  0  0  0  0  0  0  0  0  0
    9.1453    5.0972   -0.0227 H   0  0  0  0  0  0  0  0  0  0  0  0
   11.3033    4.3197   -0.2874 H   0  0  0  0  0  0  0  0  0  0  0  0
   11.2438    3.9646    1.5099 H   0  0  0  0  0  0  0  0  0  0  0  0
   11.0062    6.5797    1.5617 H   0  0  0  0  0  0  0  0  0  0  0  0
   11.6198    6.7662    0.1133 H   0  0  0  0  0  0  0  0  0  0  0  0
   13.4702    4.9871    0.5359 H   0  0  0  0  0  0  0  0  0  0  0  0
   12.7546    4.5490    2.1536 H   0  0  0  0  0  0  0  0  0  0  0  0
   12.8595    6.0745    2.7359 H   0  0  0  0  0  0  0  0  0  0  0  0
   13.3941    7.2103    1.2168 H   0  0  0  0  0  0  0  0  0  0  0  0
   11.7612    8.8872    4.9334 H   0  0  0  0  0  0  0  0  0  0  0  0
   13.6771   10.1013    4.6741 H   0  0  0  0  0  0  0  0  0  0  0  0
   16.4731    8.4317    4.6279 H   0  0  0  0  0  0  0  0  0  0  0  0
   16.0216    9.5753    5.8663 H   0  0  0  0  0  0  0  0  0  0  0  0
   17.9877   10.2015    3.3601 H   0  0  0  0  0  0  0  0  0  0  0  0
   18.3726    9.9349    4.9782 H   0  0  0  0  0  0  0  0  0  0  0  0
   19.4110   12.0615    4.4357 H   0  0  0  0  0  0  0  0  0  0  0  0
   18.3124   12.3479    5.7112 H   0  0  0  0  0  0  0  0  0  0  0  0
   18.1924   13.1401    2.7505 H   0  0  0  0  0  0  0  0  0  0  0  0
   18.1049   14.1979    4.1393 H   0  0  0  0  0  0  0  0  0  0  0  0
   16.7184   13.1515    3.7720 H   0  0  0  0  0  0  0  0  0  0  0  0
   14.8263    8.6647    2.5105 H   0  0  0  0  0  0  0  0  0  0  0  0
   13.8627   10.0054    2.3562 H   0  0  0  0  0  0  0  0  0  0  0  0
    9.5920    5.6123    3.9529 H   0  0  0  0  0  0  0  0  0  0  0  0
    7.6210    5.6322    1.0881 H   0  0  0  0  0  0  0  0  0  0  0  0
  1  2  1  0  0  0  0
  1 27  1  0  0  0  0
  1 28  1  0  0  0  0
  1 29  1  0  0  0  0
  2  3  1  0  0  0  0
  2 26  1  0  0  0  0
  2 30  1  0  0  0  0
  3  4  1  0  0  0  0
  3 31  1  0  0  0  0
  4  5  1  0  0  0  0
  4 32  1  0  0  0  0
  4 33  1  0  0  0  0
  5  6  1  0  0  0  0
  5 34  1  0  0  0  0
  5 35  1  0  0  0  0
  6  7  1  0  0  0  0
  6 36  1  0  0  0  0
  6 37  1  0  0  0  0
  7  8  1  0  0  0  0
  7 38  1  0  0  0  0
  7 39  1  0  0  0  0
  8  9  1  0  0  0  0
  8 40  1  0  0  0  0
  8 41  1  0  0  0  0
  9 10  1  0  0  0  0
  9 42  1  0  0  0  0
  9 43  1  0  0  0  0
 10 11  1  0  0  0  0
 10 44  1  0  0  0  0
 10 45  1  0  0  0  0
 11 12  1  0  0  0  0
 11 46  1  0  0  0  0
 11 47  1  0  0  0  0
 12 13  1  0  0  0  0
 12 48  1  0  0  0  0
 12 49  1  0  0  0  0
 13 14  1  0  0  0  0
 13 50  1  0  0  0  0
 13 51  1  0  0  0  0
 14 15  2  0  0  0  0
 14 16  1  0  0  0  0
 16 17  2  0  0  0  0
 16 24  1  0  0  0  0
 17 18  1  0  0  0  0
 17 25  1  0  0  0  0
 18 19  1  0  0  0  0
 18 52  1  0  0  0  0
 19 20  1  0  0  0  0
 19 24  1  0  0  0  0
 19 53  1  0  0  0  0
 20 21  1  0  0  0  0
 20 54  1  0  0  0  0
 20 55  1  0  0  0  0
 21 22  1  0  0  0  0
 21 56  1  0  0  0  0
 21 57  1  0  0  0  0
 22 23  1  0  0  0  0
 22 58  1  0  0  0  0
 22 59  1  0  0  0  0
 23 60  1  0  0  0  0
 23 61  1  0  0  0  0
 23 62  1  0  0  0  0
 24 63  1  0  0  0  0
 24 64  1  0  0  0  0
 25 26  2  3  0  0  0
 25 65  1  0  0  0  0
 26 66  1  0  0  0  0
M  END
$$$$
