
 OpenBabel04232217023D

113112  0  0  0  0  0  0  0  0999 V2000
   17.2338   -1.3658  -21.7226 O   0  0  0  0  0  0  0  0  0  0  0  0
   18.6702   -1.4961  -21.5756 O   0  0  0  0  0  0  0  0  0  0  0  0
   19.1252   -1.2068  -20.0112 S   0  0  0  0  0  0  0  0  0  0  0  0
   18.4897   -2.7396  -19.2480 C   0  0  0  0  0  0  0  0  0  0  0  0
   18.7858   -2.6894  -17.8097 N   0  0  0  0  0  0  0  0  0  0  0  0
   18.2560   -3.8673  -17.1974 N   0  0  0  0  0  0  0  0  0  0  0  0
   18.5325   -3.8905  -15.7943 N   0  0  0  0  0  0  0  0  0  0  0  0
   18.0261   -5.0736  -15.2197 N   0  0  0  0  0  0  0  0  0  0  0  0
   18.6716   -6.2324  -15.7456 N   0  0  0  0  0  0  0  0  0  0  0  0
   20.0959   -6.1551  -15.5595 N   0  0  0  0  0  0  0  0  0  0  0  0
   20.4549   -6.1335  -14.1626 N   0  0  0  0  0  0  0  0  0  0  0  0
   19.9318   -7.2904  -13.5458 N   0  0  0  0  0  0  0  0  0  0  0  0
   20.5063   -8.4569  -14.1800 N   0  0  0  0  0  0  0  0  0  0  0  0
   21.9485   -8.4080  -14.0332 N   0  0  0  0  0  0  0  0  0  0  0  0
   22.3443   -8.3884  -12.6498 N   0  0  0  0  0  0  0  0  0  0  0  0
   21.8174   -9.5373  -12.0118 N   0  0  0  0  0  0  0  0  0  0  0  0
   22.3272  -10.7102  -12.6729 N   0  0  0  0  0  0  0  0  0  0  0  0
   23.7835  -10.6763  -12.5651 N   0  0  0  0  0  0  0  0  0  0  0  0
   24.1918  -10.6202  -11.1830 N   0  0  0  0  0  0  0  0  0  0  0  0
   23.7859  -11.8184  -10.4847 N   0  0  0  0  0  0  0  0  0  0  0  0
   24.2863  -12.9778  -11.1246 N   0  0  0  0  0  0  0  0  0  0  0  0
   25.7115  -12.9452  -11.0891 N   0  0  0  0  0  0  0  0  0  0  0  0
   26.0890  -12.8208   -9.7046 N   0  0  0  0  0  0  0  0  0  0  0  0
   25.5510  -13.9586   -8.9615 N   0  0  0  0  0  0  0  0  0  0  0  0
   26.0913  -15.1833   -9.5440 N   0  0  0  0  0  0  0  0  0  0  0  0
   27.5292  -15.1555   -9.5281 N   0  0  0  0  0  0  0  0  0  0  0  0
   28.0583  -15.0901   -8.1757 N   0  0  0  0  0  0  0  0  0  0  0  0
   27.6070  -16.2303   -7.4193 N   0  0  0  0  0  0  0  0  0  0  0  0
   28.0558  -17.4646   -7.9898 N   0  0  0  0  0  0  0  0  0  0  0  0
   29.4855  -17.5202   -8.0027 N   0  0  0  0  0  0  0  0  0  0  0  0
   30.0794  -18.8841   -8.7035 S   0  0  0  0  0  0  0  0  0  0  0  0
   29.5438  -18.9538  -10.2661 N   0  0  0  0  0  0  0  0  0  0  0  0
   30.1022  -17.7656  -11.2794 S   0  0  0  0  0  0  0  0  0  0  0  0
   31.7658  -17.7708  -11.3188 N   0  0  0  0  0  0  0  0  0  0  0  0
   32.3731  -19.2108  -11.8780 S   0  0  0  0  0  0  0  0  0  0  0  0
   34.4140  -18.8921  -11.8608 S   0  0  0  0  0  0  0  0  0  0  0  0
   35.0615  -18.6173   -9.9113 S   0  0  0  0  0  0  0  0  0  0  0  0
   34.6749  -20.3103   -8.7751 S   0  0  0  0  0  0  0  0  0  0  0  0
   35.3170  -19.9073   -6.8141 S   0  0  0  0  0  0  0  0  0  0  0  0
   34.7744  -21.5374   -5.6028 S   0  0  0  0  0  0  0  0  0  0  0  0
   35.4518  -21.1860   -3.6393 S   0  0  0  0  0  0  0  0  0  0  0  0
   34.9019  -22.8276   -2.4334 S   0  0  0  0  0  0  0  0  0  0  0  0
   35.5734  -22.4782   -0.4643 S   0  0  0  0  0  0  0  0  0  0  0  0
   35.0244  -24.1197    0.7418 S   0  0  0  0  0  0  0  0  0  0  0  0
   35.6962  -23.7696    2.7107 S   0  0  0  0  0  0  0  0  0  0  0  0
   35.1473  -25.4110    3.9166 S   0  0  0  0  0  0  0  0  0  0  0  0
   35.8190  -25.0608    5.8854 S   0  0  0  0  0  0  0  0  0  0  0  0
   35.2701  -26.7022    7.0912 S   0  0  0  0  0  0  0  0  0  0  0  0
   35.9419  -26.3520    9.0599 S   0  0  0  0  0  0  0  0  0  0  0  0
   35.3929  -27.9934   10.2658 S   0  0  0  0  0  0  0  0  0  0  0  0
   36.0647  -27.6432   12.2345 S   0  0  0  0  0  0  0  0  0  0  0  0
   35.5158  -29.2846   13.4403 S   0  0  0  0  0  0  0  0  0  0  0  0
   36.1875  -28.9344   15.4090 S   0  0  0  0  0  0  0  0  0  0  0  0
   35.6386  -30.5758   16.6149 S   0  0  0  0  0  0  0  0  0  0  0  0
   36.3103  -30.2256   18.5836 S   0  0  0  0  0  0  0  0  0  0  0  0
   35.7614  -31.8670   19.7894 S   0  0  0  0  0  0  0  0  0  0  0  0
   36.4332  -31.5167   21.7581 S   0  0  0  0  0  0  0  0  0  0  0  0
   35.8842  -33.1581   22.9640 S   0  0  0  0  0  0  0  0  0  0  0  0
   36.5560  -32.8079   24.9327 S   0  0  0  0  0  0  0  0  0  0  0  0
   36.0071  -34.4493   26.1385 S   0  0  0  0  0  0  0  0  0  0  0  0
   36.6788  -34.0991   28.1072 S   0  0  0  0  0  0  0  0  0  0  0  0
   36.1299  -35.7405   29.3131 S   0  0  0  0  0  0  0  0  0  0  0  0
   36.8016  -35.3903   31.2817 S   0  0  0  0  0  0  0  0  0  0  0  0
   36.2527  -37.0317   32.4876 S   0  0  0  0  0  0  0  0  0  0  0  0
   36.9245  -36.6815   34.4563 S   0  0  0  0  0  0  0  0  0  0  0  0
   36.3755  -38.3229   35.6621 S   0  0  0  0  0  0  0  0  0  0  0  0
   37.0473  -37.9727   37.6308 S   0  0  0  0  0  0  0  0  0  0  0  0
   36.4984  -39.6140   38.8367 S   0  0  0  0  0  0  0  0  0  0  0  0
   37.1701  -39.2638   40.8054 S   0  0  0  0  0  0  0  0  0  0  0  0
   36.6212  -40.9052   42.0112 S   0  0  0  0  0  0  0  0  0  0  0  0
   37.2929  -40.5550   43.9798 S   0  0  0  0  0  0  0  0  0  0  0  0
   36.7440  -42.1963   45.1855 S   0  0  0  0  0  0  0  0  0  0  0  0
   37.4158  -41.8458   47.1536 S   0  0  0  0  0  0  0  0  0  0  0  0
   36.8669  -43.4865   48.3583 S   0  0  0  0  0  0  0  0  0  0  0  0
   37.5380  -43.1341   50.3242 S   0  0  0  0  0  0  0  0  0  0  0  0
   36.9922  -44.7742   51.5223 S   0  0  0  0  0  0  0  0  0  0  0  0
   37.6591  -44.4209   53.4816 S   0  0  0  0  0  0  0  0  0  0  0  0
   37.0659  -46.0430   54.6604 S   0  0  0  0  0  0  0  0  0  0  0  0
   37.8400  -45.7667   56.5704 S   0  0  0  0  0  0  0  0  0  0  0  0
   37.1836  -47.3540   57.7371 S   0  0  0  0  0  0  0  0  0  0  0  0
   38.1914  -49.0147   57.0546 S   0  0  0  0  0  0  0  0  0  0  0  0
   17.2237   -1.5459  -22.6728 H   0  0  0  0  0  0  0  0  0  0  0  0
   18.9505   -3.6193  -19.7185 H   0  0  0  0  0  0  0  0  0  0  0  0
   17.4036   -2.8047  -19.4050 H   0  0  0  0  0  0  0  0  0  0  0  0
   18.3326   -1.8466  -17.4541 H   0  0  0  0  0  0  0  0  0  0  0  0
   18.7354   -4.6660  -17.6275 H   0  0  0  0  0  0  0  0  0  0  0  0
   18.1355   -3.1054  -15.2790 H   0  0  0  0  0  0  0  0  0  0  0  0
   17.0191   -5.1116  -15.2684 H   0  0  0  0  0  0  0  0  0  0  0  0
   18.4007   -6.3737  -16.7258 H   0  0  0  0  0  0  0  0  0  0  0  0
   20.5116   -5.3214  -15.9543 H   0  0  0  0  0  0  0  0  0  0  0  0
   20.0381   -5.3202  -13.7180 H   0  0  0  0  0  0  0  0  0  0  0  0
   18.9117   -7.2529  -13.6691 H   0  0  0  0  0  0  0  0  0  0  0  0
   20.2636   -8.4102  -15.1849 H   0  0  0  0  0  0  0  0  0  0  0  0
   22.3250   -7.5596  -14.4515 H   0  0  0  0  0  0  0  0  0  0  0  0
   21.9506   -7.5693  -12.1997 H   0  0  0  0  0  0  0  0  0  0  0  0
   20.7930   -9.4825  -12.0887 H   0  0  0  0  0  0  0  0  0  0  0  0
   22.0687  -10.6531  -13.6681 H   0  0  0  0  0  0  0  0  0  0  0  0
   24.0966   -9.8114  -13.0402 H   0  0  0  0  0  0  0  0  0  0  0  0
   23.8093   -9.7990  -10.7142 H   0  0  0  0  0  0  0  0  0  0  0  0
   22.7645  -11.8978  -10.4925 H   0  0  0  0  0  0  0  0  0  0  0  0
   23.9979  -12.9997  -12.0906 H   0  0  0  0  0  0  0  0  0  0  0  0
   25.9740  -12.0984  -11.6071 H   0  0  0  0  0  0  0  0  0  0  0  0
   25.6189  -11.9725   -9.3520 H   0  0  0  0  0  0  0  0  0  0  0  0
   24.5291  -13.9495   -9.0756 H   0  0  0  0  0  0  0  0  0  0  0  0
   25.7457  -15.2336  -10.5347 H   0  0  0  0  0  0  0  0  0  0  0  0
   27.8889  -14.3436  -10.0685 H   0  0  0  0  0  0  0  0  0  0  0  0
   27.7182  -14.2182   -7.7273 H   0  0  0  0  0  0  0  0  0  0  0  0
   26.5850  -16.2492   -7.4563 H   0  0  0  0  0  0  0  0  0  0  0  0
   27.7181  -17.4924   -8.9539 H   0  0  0  0  0  0  0  0  0  0  0  0
   29.8191  -17.3802   -7.0577 H   0  0  0  0  0  0  0  0  0  0  0  0
   28.5306  -19.0297  -10.2933 H   0  0  0  0  0  0  0  0  0  0  0  0
   32.1301  -17.5575  -10.3938 H   0  0  0  0  0  0  0  0  0  0  0  0
   37.7369  -49.9810   57.8758 H   0  0  0  0  0  0  0  0  0  0  0  0
  1  2  1  0  0  0  0
  1 82  1  0  0  0  0
  2  3  1  0  0  0  0
  3  4  1  0  0  0  0
  4  5  1  0  0  0  0
  4 83  1  0  0  0  0
  4 84  1  0  0  0  0
  5  6  1  0  0  0  0
  5 85  1  0  0  0  0
  6  7  1  0  0  0  0
  6 86  1  0  0  0  0
  7  8  1  0  0  0  0
  7 87  1  0  0  0  0
  8  9  1  0  0  0  0
  8 88  1  0  0  0  0
  9 10  1  0  0  0  0
  9 89  1  0  0  0  0
 10 11  1  0  0  0  0
 10 90  1  0  0  0  0
 11 12  1  0  0  0  0
 11 91  1  0  0  0  0
 12 13  1  0  0  0  0
 12 92  1  0  0  0  0
 13 14  1  0  0  0  0
 13 93  1  0  0  0  0
 14 15  1  0  0  0  0
 14 94  1  0  0  0  0
 15 16  1  0  0  0  0
 15 95  1  0  0  0  0
 16 17  1  0  0  0  0
 16 96  1  0  0  0  0
 17 18  1  0  0  0  0
 17 97  1  0  0  0  0
 18 19  1  0  0  0  0
 18 98  1  0  0  0  0
 19 20  1  0  0  0  0
 19 99  1  0  0  0  0
 20 21  1  0  0  0  0
 20100  1  0  0  0  0
 21 22  1  0  0  0  0
 21101  1  0  0  0  0
 22 23  1  0  0  0  0
 22102  1  0  0  0  0
 23 24  1  0  0  0  0
 23103  1  0  0  0  0
 24 25  1  0  0  0  0
 24104  1  0  0  0  0
 25 26  1  0  0  0  0
 25105  1  0  0  0  0
 26 27  1  0  0  0  0
 26106  1  0  0  0  0
 27 28  1  0  0  0  0
 27107  1  0  0  0  0
 28 29  1  0  0  0  0
 28108  1  0  0  0  0
 29 30  1  0  0  0  0
 29109  1  0  0  0  0
 30 31  1  0  0  0  0
 30110  1  0  0  0  0
 31 32  1  0  0  0  0
 32 33  1  0  0  0  0
 32111  1  0  0  0  0
 33 34  1  0  0  0  0
 34 35  1  0  0  0  0
 34112  1  0  0  0  0
 35 36  1  0  0  0  0
 36 37  1  0  0  0  0
 37 38  1  0  0  0  0
 38 39  1  0  0  0  0
 39 40  1  0  0  0  0
 40 41  1  0  0  0  0
 41 42  1  0  0  0  0
 42 43  1  0  0  0  0
 43 44  1  0  0  0  0
 44 45  1  0  0  0  0
 45 46  1  0  0  0  0
 46 47  1  0  0  0  0
 47 48  1  0  0  0  0
 48 49  1  0  0  0  0
 49 50  1  0  0  0  0
 50 51  1  0  0  0  0
 51 52  1  0  0  0  0
 52 53  1  0  0  0  0
 53 54  1  0  0  0  0
 54 55  1  0  0  0  0
 55 56  1  0  0  0  0
 56 57  1  0  0  0  0
 57 58  1  0  0  0  0
 58 59  1  0  0  0  0
 59 60  1  0  0  0  0
 60 61  1  0  0  0  0
 61 62  1  0  0  0  0
 62 63  1  0  0  0  0
 63 64  1  0  0  0  0
 64 65  1  0  0  0  0
 65 66  1  0  0  0  0
 66 67  1  0  0  0  0
 67 68  1  0  0  0  0
 68 69  1  0  0  0  0
 69 70  1  0  0  0  0
 70 71  1  0  0  0  0
 71 72  1  0  0  0  0
 72 73  1  0  0  0  0
 73 74  1  0  0  0  0
 74 75  1  0  0  0  0
 75 76  1  0  0  0  0
 76 77  1  0  0  0  0
 77 78  1  0  0  0  0
 78 79  1  0  0  0  0
 79 80  1  0  0  0  0
 80 81  1  0  0  0  0
 81113  1  0  0  0  0
M  END
$$$$
