
 OpenBabel04232216443D

 66 67  0  0  1  0  0  0  0  0999 V2000
    2.7312    1.5655    1.7618 C   0  0  0  0  0  0  0  0  0  0  0  0
    3.0341    0.4373    0.7846 C   0  0  3  0  0  0  0  0  0  0  0  0
    2.8607   -0.9714    1.3029 C   0  0  0  0  0  0  0  0  0  0  0  0
    1.7816   -1.3971    2.2290 C   0  0  0  0  0  0  0  0  0  0  0  0
    0.3650   -1.1831    1.7419 C   0  0  0  0  0  0  0  0  0  0  0  0
   -0.5892   -1.7772    2.7782 C   0  0  0  0  0  0  0  0  0  0  0  0
   -2.0214   -1.5321    2.3564 C   0  0  0  0  0  0  0  0  0  0  0  0
   -2.9932   -2.1091    3.3726 C   0  0  0  0  0  0  0  0  0  0  0  0
   -4.4140   -1.8221    2.9156 C   0  0  0  0  0  0  0  0  0  0  0  0
   -5.4197   -2.3787    3.9064 C   0  0  0  0  0  0  0  0  0  0  0  0
   -6.8377   -2.0896    3.4338 C   0  0  0  0  0  0  0  0  0  0  0  0
   -7.8454   -2.6453    4.4300 C   0  0  0  0  0  0  0  0  0  0  0  0
   -9.2702   -2.3634    3.9799 C   0  0  0  0  0  0  0  0  0  0  0  0
  -10.2721   -2.9177    4.9811 C   0  0  0  0  0  0  0  0  0  0  0  0
  -11.5928   -2.6428    4.5410 O   0  0  0  0  0  0  0  0  0  0  0  0
    3.8952   -1.7397    0.9012 C   0  0  0  0  0  0  0  0  0  0  0  0
    4.9433   -0.8626    0.3947 C   0  0  0  0  0  0  0  0  0  0  0  0
    6.3683   -1.2697    0.1792 C   0  0  0  0  0  0  0  0  0  0  0  0
    7.1715   -1.0507    1.4554 C   0  0  0  0  0  0  0  0  0  0  0  0
    7.4606    0.0938    1.8264 O   0  0  0  0  0  0  0  0  0  0  0  0
    7.7125   -2.2372    2.2332 C   0  0  0  0  0  0  0  0  0  0  0  0
    6.7939   -3.4475    2.3657 C   0  0  0  0  0  0  0  0  0  0  0  0
    5.4701   -3.1476    3.0725 C   0  0  0  0  0  0  0  0  0  0  0  0
    4.2968   -3.8180    2.3627 C   0  0  0  0  0  0  0  0  0  0  0  0
    3.9897   -3.2348    0.9801 C   0  0  0  0  0  0  0  0  0  0  0  0
    4.4635    0.3948    0.3191 C   0  0  0  0  0  0  0  0  0  0  0  0
    1.6489    1.6526    1.9164 H   0  0  0  0  0  0  0  0  0  0  0  0
    3.0707    2.5283    1.3629 H   0  0  0  0  0  0  0  0  0  0  0  0
    3.1974    1.4129    2.7388 H   0  0  0  0  0  0  0  0  0  0  0  0
    2.3940    0.5761   -0.0972 H   0  0  0  0  0  0  0  0  0  0  0  0
    1.9233   -0.8696    3.1832 H   0  0  0  0  0  0  0  0  0  0  0  0
    1.8826   -2.4581    2.4710 H   0  0  0  0  0  0  0  0  0  0  0  0
    0.2156   -1.6691    0.7721 H   0  0  0  0  0  0  0  0  0  0  0  0
    0.1570   -0.1167    1.6156 H   0  0  0  0  0  0  0  0  0  0  0  0
   -0.4067   -1.3258    3.7629 H   0  0  0  0  0  0  0  0  0  0  0  0
   -0.4090   -2.8550    2.8830 H   0  0  0  0  0  0  0  0  0  0  0  0
   -2.1974   -1.9876    1.3746 H   0  0  0  0  0  0  0  0  0  0  0  0
   -2.1921   -0.4541    2.2522 H   0  0  0  0  0  0  0  0  0  0  0  0
   -2.8168   -1.6629    4.3595 H   0  0  0  0  0  0  0  0  0  0  0  0
   -2.8388   -3.1912    3.4702 H   0  0  0  0  0  0  0  0  0  0  0  0
   -4.5801   -2.2675    1.9268 H   0  0  0  0  0  0  0  0  0  0  0  0
   -4.5560   -0.7391    2.8101 H   0  0  0  0  0  0  0  0  0  0  0  0
   -5.2555   -1.9293    4.8937 H   0  0  0  0  0  0  0  0  0  0  0  0
   -5.2749   -3.4607    4.0140 H   0  0  0  0  0  0  0  0  0  0  0  0
   -6.9990   -2.5404    2.4467 H   0  0  0  0  0  0  0  0  0  0  0  0
   -6.9783   -1.0073    3.3224 H   0  0  0  0  0  0  0  0  0  0  0  0
   -7.6714   -2.1957    5.4154 H   0  0  0  0  0  0  0  0  0  0  0  0
   -7.6966   -3.7269    4.5371 H   0  0  0  0  0  0  0  0  0  0  0  0
   -9.4551   -2.8030    2.9921 H   0  0  0  0  0  0  0  0  0  0  0  0
   -9.4246   -1.2830    3.8620 H   0  0  0  0  0  0  0  0  0  0  0  0
  -10.1315   -2.4692    5.9701 H   0  0  0  0  0  0  0  0  0  0  0  0
  -10.1629   -4.0025    5.0779 H   0  0  0  0  0  0  0  0  0  0  0  0
  -11.6692   -1.6794    4.4333 H   0  0  0  0  0  0  0  0  0  0  0  0
    6.8257   -0.6496   -0.6034 H   0  0  0  0  0  0  0  0  0  0  0  0
    6.4649   -2.2982   -0.1779 H   0  0  0  0  0  0  0  0  0  0  0  0
    7.9738   -1.8857    3.2380 H   0  0  0  0  0  0  0  0  0  0  0  0
    8.6386   -2.5510    1.7436 H   0  0  0  0  0  0  0  0  0  0  0  0
    7.3156   -4.2159    2.9518 H   0  0  0  0  0  0  0  0  0  0  0  0
    6.6351   -3.8984    1.3824 H   0  0  0  0  0  0  0  0  0  0  0  0
    5.2887   -2.0719    3.1720 H   0  0  0  0  0  0  0  0  0  0  0  0
    5.5165   -3.5317    4.0986 H   0  0  0  0  0  0  0  0  0  0  0  0
    3.4144   -3.7470    3.0067 H   0  0  0  0  0  0  0  0  0  0  0  0
    4.4909   -4.8923    2.2530 H   0  0  0  0  0  0  0  0  0  0  0  0
    3.0350   -3.6603    0.6367 H   0  0  0  0  0  0  0  0  0  0  0  0
    4.7147   -3.6032    0.2457 H   0  0  0  0  0  0  0  0  0  0  0  0
    5.0415    1.2668    0.0483 H   0  0  0  0  0  0  0  0  0  0  0  0
  1  2  1  0  0  0  0
  1 27  1  0  0  0  0
  1 28  1  0  0  0  0
  1 29  1  0  0  0  0
  2  3  1  0  0  0  0
  2 26  1  0  0  0  0
  2 30  1  0  0  0  0
  3  4  1  0  0  0  0
  3 16  2  0  0  0  0
  4  5  1  0  0  0  0
  4 31  1  0  0  0  0
  4 32  1  0  0  0  0
  5  6  1  0  0  0  0
  5 33  1  0  0  0  0
  5 34  1  0  0  0  0
  6  7  1  0  0  0  0
  6 35  1  0  0  0  0
  6 36  1  0  0  0  0
  7  8  1  0  0  0  0
  7 37  1  0  0  0  0
  7 38  1  0  0  0  0
  8  9  1  0  0  0  0
  8 39  1  0  0  0  0
  8 40  1  0  0  0  0
  9 10  1  0  0  0  0
  9 41  1  0  0  0  0
  9 42  1  0  0  0  0
 10 11  1  0  0  0  0
 10 43  1  0  0  0  0
 10 44  1  0  0  0  0
 11 12  1  0  0  0  0
 11 45  1  0  0  0  0
 11 46  1  0  0  0  0
 12 13  1  0  0  0  0
 12 47  1  0  0  0  0
 12 48  1  0  0  0  0
 13 14  1  0  0  0  0
 13 49  1  0  0  0  0
 13 50  1  0  0  0  0
 14 15  1  0  0  0  0
 14 51  1  0  0  0  0
 14 52  1  0  0  0  0
 15 53  1  0  0  0  0
 16 17  1  0  0  0  0
 16 25  1  0  0  0  0
 17 18  1  0  0  0  0
 17 26  2  0  0  0  0
 18 19  1  0  0  0  0
 18 54  1  0  0  0  0
 18 55  1  0  0  0  0
 19 20  2  0  0  0  0
 19 21  1  0  0  0  0
 21 22  1  0  0  0  0
 21 56  1  0  0  0  0
 21 57  1  0  0  0  0
 22 23  1  0  0  0  0
 22 58  1  0  0  0  0
 22 59  1  0  0  0  0
 23 24  1  0  0  0  0
 23 60  1  0  0  0  0
 23 61  1  0  0  0  0
 24 25  1  0  0  0  0
 24 62  1  0  0  0  0
 24 63  1  0  0  0  0
 25 64  1  0  0  0  0
 25 65  1  0  0  0  0
 26 66  1  0  0  0  0
M  END
$$$$
