
 OpenBabel04232216393D

 81 81  0  0  0  0  0  0  0  0999 V2000
   15.3307    1.0826    8.2926 C   0  0  0  0  0  0  0  0  0  0  0  0
   17.0197    1.9502    9.0597 C   0  0  0  0  0  0  0  0  0  0  0  0
   14.7037    1.7816    7.7221 C   0  0  0  0  0  0  0  0  0  0  0  0
   12.7840    1.3722    6.4115 C   0  0  0  0  0  0  0  0  0  0  0  0
   10.5964    1.1205    5.2212 C   0  0  0  0  0  0  0  0  0  0  0  0
    9.0238    1.0195    3.8753 C   0  0  0  0  0  0  0  0  0  0  0  0
    7.7496    2.3382    4.3052 C   0  0  0  0  0  0  0  0  0  0  0  0
    9.0030    2.9203    4.2088 C   0  0  0  0  0  0  0  0  0  0  0  0
    9.7250    3.1863    5.6513 C   0  0  0  0  0  0  0  0  0  0  0  0
   11.0555    3.2831    5.2441 C   0  0  0  0  0  0  0  0  0  0  0  0
   11.7908    3.4435    6.4613 C   0  0  0  0  0  0  0  0  0  0  0  0
   13.1123    3.3919    5.9714 C   0  0  0  0  0  0  0  0  0  0  0  0
   13.8027    3.7193    7.3101 C   0  0  0  0  0  0  0  0  0  0  0  0
   15.1972    3.6960    7.2765 C   0  0  0  0  0  0  0  0  0  0  0  0
   15.7914    4.2696    8.6641 C   0  0  0  0  0  0  0  0  0  0  0  0
   17.1646    4.5329    8.8045 C   0  0  0  0  0  0  0  0  0  0  0  0
   18.1111    4.8702   10.1407 C   0  0  0  0  0  0  0  0  0  0  0  0
   19.4263    4.5415    9.8362 C   0  0  0  0  0  0  0  0  0  0  0  0
   20.1119    4.4108   11.0801 C   0  0  0  0  0  0  0  0  0  0  0  0
   21.3775    4.2326   10.9048 C   0  0  0  0  0  0  0  0  0  0  0  0
   21.9662    5.0819   11.8987 C   0  0  0  0  0  0  0  0  0  0  0  0
   23.3223    5.1415   11.6814 C   0  0  0  0  0  0  0  0  0  0  0  0
   23.9717    5.8110   13.1379 C   0  0  0  0  0  0  0  0  0  0  0  0
   25.2954    5.9817   13.4630 C   0  0  0  0  0  0  0  0  0  0  0  0
   25.9977    6.5523   14.8049 C   0  0  0  0  0  0  0  0  0  0  0  0
   27.2153    6.2224   14.2617 C   0  0  0  0  0  0  0  0  0  0  0  0
   28.0586    6.5487   15.4452 C   0  0  0  0  0  0  0  0  0  0  0  0
   29.3190    6.3140   15.0019 C   0  0  0  0  0  0  0  0  0  0  0  0
   29.8401    7.2197   16.2300 C   0  0  0  0  0  0  0  0  0  0  0  0
   31.2787    6.9104   16.2074 C   0  0  0  0  0  0  0  0  0  0  0  0
   32.1262    7.5755   17.4271 C   0  0  0  0  0  0  0  0  0  0  0  0
   33.5609    7.1750   17.1038 C   0  0  0  0  0  0  0  0  0  0  0  0
   33.8528    7.6804   18.5323 C   0  0  0  0  0  0  0  0  0  0  0  0
   32.9668    6.0120   18.2120 C   0  0  0  0  0  0  0  0  0  0  0  0
   30.8157    5.3451   17.4675 C   0  0  0  0  0  0  0  0  0  0  0  0
   28.9409    4.7452   16.4678 C   0  0  0  0  0  0  0  0  0  0  0  0
   26.6520    4.0774   15.0176 C   0  0  0  0  0  0  0  0  0  0  0  0
   24.5335    3.6109   13.7601 C   0  0  0  0  0  0  0  0  0  0  0  0
   22.0547    2.9694   12.2154 C   0  0  0  0  0  0  0  0  0  0  0  0
   19.4590    2.5033   10.5730 C   0  0  0  0  0  3  0  0  0  0  0  0
   13.8459    0.5889    7.4526 H   0  0  0  0  0  0  0  0  0  0  0  0
   13.8760    0.6989    7.3275 H   0  0  0  0  0  0  0  0  0  0  0  0
   13.2172    1.8667    6.8161 H   0  0  0  0  0  0  0  0  0  0  0  0
   11.2524    1.1681    5.4791 H   0  0  0  0  0  0  0  0  0  0  0  0
    8.9339    0.8555    4.6042 H   0  0  0  0  0  0  0  0  0  0  0  0
    7.9552    1.0319    2.4186 H   0  0  0  0  0  0  0  0  0  0  0  0
    6.6749    1.9504    4.7498 H   0  0  0  0  0  0  0  0  0  0  0  0
    9.8185    2.1620    3.2076 H   0  0  0  0  0  0  0  0  0  0  0  0
    9.0448    2.2899    6.0011 H   0  0  0  0  0  0  0  0  0  0  0  0
   11.5463    2.4087    4.3594 H   0  0  0  0  0  0  0  0  0  0  0  0
   11.1505    2.6338    7.1531 H   0  0  0  0  0  0  0  0  0  0  0  0
   13.5356    2.2824    5.2097 H   0  0  0  0  0  0  0  0  0  0  0  0
   13.1834    3.2031    8.2687 H   0  0  0  0  0  0  0  0  0  0  0  0
   15.6438    2.7048    6.5121 H   0  0  0  0  0  0  0  0  0  0  0  0
   15.2801    3.6168    9.4540 H   0  0  0  0  0  0  0  0  0  0  0  0
   17.6701    3.6381    8.0775 H   0  0  0  0  0  0  0  0  0  0  0  0
   17.5113    4.1382   10.7604 H   0  0  0  0  0  0  0  0  0  0  0  0
   19.7821    3.5860    9.0327 H   0  0  0  0  0  0  0  0  0  0  0  0
   19.5501    4.4162   12.0123 H   0  0  0  0  0  0  0  0  0  0  0  0
   21.9261    3.7584   10.1060 H   0  0  0  0  0  0  0  0  0  0  0  0
   21.6087    4.9333   13.0507 H   0  0  0  0  0  0  0  0  0  0  0  0
   24.0287    4.2480   11.3410 H   0  0  0  0  0  0  0  0  0  0  0  0
   23.5945    5.3887   14.2140 H   0  0  0  0  0  0  0  0  0  0  0  0
   25.9656    5.0459   12.8549 H   0  0  0  0  0  0  0  0  0  0  0  0
   25.7802    5.9449   15.7634 H   0  0  0  0  0  0  0  0  0  0  0  0
   27.5927    5.2547   13.2935 H   0  0  0  0  0  0  0  0  0  0  0  0
   27.8060    6.3140   16.7502 H   0  0  0  0  0  0  0  0  0  0  0  0
   30.2165    5.4921   14.9540 H   0  0  0  0  0  0  0  0  0  0  0  0
   28.9683    7.5300   17.3050 H   0  0  0  0  0  0  0  0  0  0  0  0
   32.1570    5.7693   16.3683 H   0  0  0  0  0  0  0  0  0  0  0  0
   31.7030    7.4194   18.8040 H   0  0  0  0  0  0  0  0  0  0  0  0
   34.7637    6.6316   17.1708 H   0  0  0  0  0  0  0  0  0  0  0  0
   33.9635    7.8684   19.8765 H   0  0  0  0  0  0  0  0  0  0  0  0
   34.8367    6.4955   18.5971 H   0  0  0  0  0  0  0  0  0  0  0  0
   32.2269    5.8109   18.6074 H   0  0  0  0  0  0  0  0  0  0  0  0
   30.4929    5.2215   17.1369 H   0  0  0  0  0  0  0  0  0  0  0  0
   27.9107    4.7357   16.1045 H   0  0  0  0  0  0  0  0  0  0  0  0
   25.8410    4.3098   14.6516 H   0  0  0  0  0  0  0  0  0  0  0  0
   23.0784    3.8795   13.1033 H   0  0  0  0  0  0  0  0  0  0  0  0
   23.4853    3.5114   12.6246 H   0  0  0  0  0  0  0  0  0  0  0  0
   18.4624    2.5889    9.6170 H   0  0  0  0  0  0  0  0  0  0  0  0
  1  2  2  0  0  0  0
  1 41  1  0  0  0  0
  1 42  1  0  0  0  0
  2  3  1  0  0  0  0
  2 40  1  0  0  0  0
  3  4  2  3  0  0  0
  3 43  1  0  0  0  0
  4  5  1  0  0  0  0
  4 44  1  0  0  0  0
  5  6  2  3  0  0  0
  5 45  1  0  0  0  0
  6  7  1  0  0  0  0
  6 46  1  0  0  0  0
  7  8  2  3  0  0  0
  7 47  1  0  0  0  0
  8  9  1  0  0  0  0
  8 48  1  0  0  0  0
  9 10  2  3  0  0  0
  9 49  1  0  0  0  0
 10 11  1  0  0  0  0
 10 50  1  0  0  0  0
 11 12  2  3  0  0  0
 11 51  1  0  0  0  0
 12 13  1  0  0  0  0
 12 52  1  0  0  0  0
 13 14  2  3  0  0  0
 13 53  1  0  0  0  0
 14 15  1  0  0  0  0
 14 54  1  0  0  0  0
 15 16  2  3  0  0  0
 15 55  1  0  0  0  0
 16 17  1  0  0  0  0
 16 56  1  0  0  0  0
 17 18  2  3  0  0  0
 17 57  1  0  0  0  0
 18 19  1  0  0  0  0
 18 58  1  0  0  0  0
 19 20  2  3  0  0  0
 19 59  1  0  0  0  0
 20 21  1  0  0  0  0
 20 60  1  0  0  0  0
 21 22  2  3  0  0  0
 21 61  1  0  0  0  0
 22 23  1  0  0  0  0
 22 62  1  0  0  0  0
 23 24  2  3  0  0  0
 23 63  1  0  0  0  0
 24 25  1  0  0  0  0
 24 64  1  0  0  0  0
 25 26  2  3  0  0  0
 25 65  1  0  0  0  0
 26 27  1  0  0  0  0
 26 66  1  0  0  0  0
 27 28  2  3  0  0  0
 27 67  1  0  0  0  0
 28 29  1  0  0  0  0
 28 68  1  0  0  0  0
 29 30  2  3  0  0  0
 29 69  1  0  0  0  0
 30 31  1  0  0  0  0
 30 70  1  0  0  0  0
 31 32  2  3  0  0  0
 31 71  1  0  0  0  0
 32 33  1  0  0  0  0
 32 72  1  0  0  0  0
 33 34  2  3  0  0  0
 33 73  1  0  0  0  0
 34 35  1  0  0  0  0
 34 74  1  0  0  0  0
 35 36  2  3  0  0  0
 35 75  1  0  0  0  0
 36 37  1  0  0  0  0
 36 76  1  0  0  0  0
 37 38  2  3  0  0  0
 37 77  1  0  0  0  0
 38 39  1  0  0  0  0
 38 78  1  0  0  0  0
 39 40  1  0  0  0  0
 39 79  1  0  0  0  0
 39 80  1  0  0  0  0
 40 81  1  0  0  0  0
M  END
$$$$
