
 OpenBabel04232216503D

 46 47  0  0  0  0  0  0  0  0999 V2000
    4.5134    5.9898   -0.2453 C   0  0  0  0  0  0  0  0  0  0  0  0
    5.4298    4.8151    0.0137 C   0  0  0  0  0  0  0  0  0  0  0  0
    6.5780    5.3278    0.5949 N   0  0  0  0  0  0  0  0  0  0  0  0
    7.7542    4.9743    0.1913 C   0  0  0  0  0  0  0  0  0  0  0  0
    8.9149    5.8891    0.4099 C   0  0  0  0  0  0  0  0  0  0  0  0
    8.0023    3.8127   -0.4755 N   0  0  0  0  0  0  0  0  0  0  0  0
    7.4181    2.8438    0.1258 C   0  0  0  0  0  0  0  0  0  0  0  0
    7.7065    2.2880    1.4865 C   0  0  0  0  0  0  0  0  0  0  0  0
    8.7173    1.4144    1.3491 C   0  0  0  0  0  0  0  0  0  0  0  0
    9.9861    1.6278    0.5572 C   0  0  0  0  0  0  0  0  0  0  0  0
   10.8332    2.8076    1.0372 C   0  0  0  0  0  0  0  0  0  0  0  0
   11.3338    2.6881    2.4762 C   0  0  0  0  0  0  0  0  0  0  0  0
   12.2366    1.4695    2.6450 C   0  0  0  0  0  0  0  0  0  0  0  0
   12.8264    1.3721    4.0370 C   0  0  0  0  0  0  0  0  0  0  0  0
    8.1064    0.0598    1.2784 C   0  0  0  0  0  0  0  0  0  0  0  0
    7.8109   -0.6068    2.2574 O   0  0  0  0  0  0  0  0  0  0  0  0
    7.8906   -0.4034   -0.1258 C   0  0  0  0  0  0  0  0  0  0  0  0
    8.9447   -1.3911   -0.5567 C   0  0  0  0  0  0  0  0  0  0  0  0
    6.9387    0.0923   -0.9475 C   0  0  0  0  0  0  0  0  0  0  0  0
    5.9189    1.1472   -0.7759 C   0  0  0  0  0  0  0  0  0  0  0  0
    6.0877    2.4255   -0.3636 C   0  0  0  0  0  0  0  0  0  0  0  0
    5.1452    3.5519   -0.4087 C   0  0  0  0  0  0  0  0  0  0  0  0
    5.1302    6.8552   -0.5400 H   0  0  0  0  0  0  0  0  0  0  0  0
    3.9834    6.2795    0.6671 H   0  0  0  0  0  0  0  0  0  0  0  0
    3.8117    5.8186   -1.0610 H   0  0  0  0  0  0  0  0  0  0  0  0
    8.5635    6.9241    0.3803 H   0  0  0  0  0  0  0  0  0  0  0  0
    9.6449    5.7471   -0.3922 H   0  0  0  0  0  0  0  0  0  0  0  0
    9.3742    5.6957    1.3796 H   0  0  0  0  0  0  0  0  0  0  0  0
    6.7962    2.0277    2.0329 H   0  0  0  0  0  0  0  0  0  0  0  0
    9.7571    1.7673   -0.5068 H   0  0  0  0  0  0  0  0  0  0  0  0
   10.5964    0.7208    0.6007 H   0  0  0  0  0  0  0  0  0  0  0  0
   10.2670    3.7323    0.9503 H   0  0  0  0  0  0  0  0  0  0  0  0
   11.6897    2.9172    0.3614 H   0  0  0  0  0  0  0  0  0  0  0  0
   10.4886    2.6402    3.1734 H   0  0  0  0  0  0  0  0  0  0  0  0
   11.8894    3.6009    2.7242 H   0  0  0  0  0  0  0  0  0  0  0  0
   13.0476    1.5151    1.9092 H   0  0  0  0  0  0  0  0  0  0  0  0
   11.6734    0.5506    2.4535 H   0  0  0  0  0  0  0  0  0  0  0  0
   13.4001    2.2684    4.2881 H   0  0  0  0  0  0  0  0  0  0  0  0
   13.4970    0.5086    4.0884 H   0  0  0  0  0  0  0  0  0  0  0  0
   12.0394    1.2368    4.7850 H   0  0  0  0  0  0  0  0  0  0  0  0
    9.8645   -0.8563   -0.8260 H   0  0  0  0  0  0  0  0  0  0  0  0
    8.6470   -1.9800   -1.4271 H   0  0  0  0  0  0  0  0  0  0  0  0
    9.2004   -2.0813    0.2549 H   0  0  0  0  0  0  0  0  0  0  0  0
    6.8943   -0.3376   -1.9516 H   0  0  0  0  0  0  0  0  0  0  0  0
    4.9458    0.8579   -1.1714 H   0  0  0  0  0  0  0  0  0  0  0  0
    4.1875    3.3613   -0.8875 H   0  0  0  0  0  0  0  0  0  0  0  0
  1  2  1  0  0  0  0
  1 23  1  0  0  0  0
  1 24  1  0  0  0  0
  1 25  1  0  0  0  0
  2  3  1  0  0  0  0
  2 22  2  0  0  0  0
  3  4  2  0  0  0  0
  4  5  1  0  0  0  0
  4  6  1  0  0  0  0
  5 26  1  0  0  0  0
  5 27  1  0  0  0  0
  5 28  1  0  0  0  0
  6  7  2  0  0  0  0
  7  8  1  0  0  0  0
  7 21  1  0  0  0  0
  8  9  2  0  0  0  0
  8 29  1  0  0  0  0
  9 10  1  0  0  0  0
  9 15  1  0  0  0  0
 10 11  1  0  0  0  0
 10 30  1  0  0  0  0
 10 31  1  0  0  0  0
 11 12  1  0  0  0  0
 11 32  1  0  0  0  0
 11 33  1  0  0  0  0
 12 13  1  0  0  0  0
 12 34  1  0  0  0  0
 12 35  1  0  0  0  0
 13 14  1  0  0  0  0
 13 36  1  0  0  0  0
 13 37  1  0  0  0  0
 14 38  1  0  0  0  0
 14 39  1  0  0  0  0
 14 40  1  0  0  0  0
 15 16  2  0  0  0  0
 15 17  1  0  0  0  0
 17 18  1  0  0  0  0
 17 19  2  0  0  0  0
 18 41  1  0  0  0  0
 18 42  1  0  0  0  0
 18 43  1  0  0  0  0
 19 20  1  0  0  0  0
 19 44  1  0  0  0  0
 20 21  2  0  0  0  0
 20 45  1  0  0  0  0
 21 22  1  0  0  0  0
 22 46  1  0  0  0  0
M  END
$$$$
