
 OpenBabel04232216543D

209208  0  0  0  0  0  0  0  0999 V2000
    0.9350   -0.1105   -0.0812 C   0  0  0  0  0  0  0  0  0  0  0  0
    2.4426   -0.1083   -0.0735 C   0  0  0  0  0  0  0  0  0  0  0  0
    2.9362    1.0036   -0.9661 C   0  0  0  0  0  0  0  0  0  0  0  0
    4.4333    0.9924   -0.9503 C   0  0  0  0  0  0  0  0  0  0  0  0
    4.9027    2.0907   -1.8322 C   0  0  0  0  0  0  0  0  0  0  0  0
    6.2893    1.9764   -1.7338 O   0  0  0  0  0  0  0  0  0  0  0  0
    6.7160    3.0144   -2.5646 O   0  0  0  0  0  0  0  0  0  0  0  0
    8.1089    3.0075   -2.5551 O   0  0  0  0  0  0  0  0  0  0  0  0
    8.5201    4.0476   -3.3878 O   0  0  0  0  0  0  0  0  0  0  0  0
    9.9091    4.0368   -3.3749 O   0  0  0  0  0  0  0  0  0  0  0  0
   10.3231    5.0720   -4.2037 O   0  0  0  0  0  0  0  0  0  0  0  0
   11.7112    5.0493   -4.1813 O   0  0  0  0  0  0  0  0  0  0  0  0
   12.1376    6.0767   -5.0038 O   0  0  0  0  0  0  0  0  0  0  0  0
   13.5213    6.0480   -4.9766 O   0  0  0  0  0  0  0  0  0  0  0  0
   13.9619    7.0629   -5.7890 O   0  0  0  0  0  0  0  0  0  0  0  0
   15.3354    7.0343   -5.7619 O   0  0  0  0  0  0  0  0  0  0  0  0
   15.7720    8.0529   -6.5773 O   0  0  0  0  0  0  0  0  0  0  0  0
   17.1554    8.0193   -6.5462 O   0  0  0  0  0  0  0  0  0  0  0  0
   17.5967    9.0573   -7.3773 O   0  0  0  0  0  0  0  0  0  0  0  0
   18.9684    9.0483   -7.3659 O   0  0  0  0  0  0  0  0  0  0  0  0
   19.3664   10.0852   -8.1957 O   0  0  0  0  0  0  0  0  0  0  0  0
   20.7591   10.0763   -8.1840 O   0  0  0  0  0  0  0  0  0  0  0  0
   21.1843   11.1142   -9.0177 O   0  0  0  0  0  0  0  0  0  0  0  0
   22.5684   10.9984   -8.9232 C   0  0  0  0  0  0  0  0  0  0  0  0
   23.0314   12.0958   -9.8043 C   0  0  0  0  0  0  0  0  0  0  0  0
   24.5247   12.0754   -9.7886 C   0  0  0  0  0  0  0  0  0  0  0  0
   24.9988   13.1859  -10.6802 C   0  0  0  0  0  0  0  0  0  0  0  0
   26.5037   13.1794  -10.6757 C   0  0  0  0  0  0  0  0  0  0  0  0
   26.9981   14.2906  -11.5679 C   0  0  0  0  0  0  0  0  0  0  0  0
   28.5096   14.2884  -11.5668 C   0  0  0  0  0  0  0  0  0  0  0  0
   29.0133   15.4011  -12.4602 C   0  0  0  0  0  0  0  0  0  0  0  0
   30.5278   15.4020  -12.4615 C   0  0  0  0  0  0  0  0  0  0  0  0
   31.0366   16.5150  -13.3552 C   0  0  0  0  0  0  0  0  0  0  0  0
   32.5527   16.5188  -13.3564 C   0  0  0  0  0  0  0  0  0  0  0  0
   33.0627   17.6324  -14.2504 C   0  0  0  0  0  0  0  0  0  0  0  0
   34.5792   17.6358  -14.2538 C   0  0  0  0  0  0  0  0  0  0  0  0
   35.0891   18.7508  -15.1465 C   0  0  0  0  0  0  0  0  0  0  0  0
   36.6058   18.7532  -15.1515 C   0  0  0  0  0  0  0  0  0  0  0  0
   37.1158   19.8695  -16.0427 C   0  0  0  0  0  0  0  0  0  0  0  0
   38.6325   19.8729  -16.0461 C   0  0  0  0  0  0  0  0  0  0  0  0
   39.1425   20.9879  -16.9387 C   0  0  0  0  0  0  0  0  0  0  0  0
   40.6592   20.9913  -16.9421 C   0  0  0  0  0  0  0  0  0  0  0  0
   41.1692   22.1063  -17.8348 C   0  0  0  0  0  0  0  0  0  0  0  0
   42.6858   22.1097  -17.8381 C   0  0  0  0  0  0  0  0  0  0  0  0
   43.1959   23.2247  -18.7308 C   0  0  0  0  0  0  0  0  0  0  0  0
   44.7125   23.2282  -18.7342 C   0  0  0  0  0  0  0  0  0  0  0  0
   45.2225   24.3430  -19.6271 C   0  0  0  0  0  0  0  0  0  0  0  0
   46.7392   24.3467  -19.6301 C   0  0  0  0  0  0  0  0  0  0  0  0
   47.2492   25.4615  -20.5231 C   0  0  0  0  0  0  0  0  0  0  0  0
   48.7658   25.4664  -20.5246 C   0  0  0  0  0  0  0  0  0  0  0  0
   49.2759   26.5811  -21.4175 C   0  0  0  0  0  0  0  0  0  0  0  0
   50.7925   26.5848  -21.4205 C   0  0  0  0  0  0  0  0  0  0  0  0
   51.3025   27.7008  -22.3120 C   0  0  0  0  0  0  0  0  0  0  0  0
   52.8192   27.7032  -22.3166 C   0  0  0  0  0  0  0  0  0  0  0  0
   53.3292   28.8179  -23.2096 C   0  0  0  0  0  0  0  0  0  0  0  0
   54.8458   28.8191  -23.2157 C   0  0  0  0  0  0  0  0  0  0  0  0
   55.3558   29.9325  -24.1104 C   0  0  0  0  0  0  0  0  0  0  0  0
   56.8724   29.9348  -24.1150 C   0  0  0  0  0  0  0  0  0  0  0  0
   57.3824   31.0485  -25.0093 C   0  0  0  0  0  0  0  0  0  0  0  0
   58.8991   31.0494  -25.0159 C   0  0  0  0  0  0  0  0  0  0  0  0
   59.4091   32.1632  -25.9101 C   0  0  0  0  0  0  0  0  0  0  0  0
   60.9258   32.1641  -25.9167 C   0  0  0  0  0  0  0  0  0  0  0  0
   61.4358   33.2778  -26.8109 C   0  0  0  0  0  0  0  0  0  0  0  0
   62.9525   33.2787  -26.8175 C   0  0  0  0  0  0  0  0  0  0  0  0
   63.4627   34.3925  -27.7117 C   0  0  0  0  0  0  0  0  0  0  0  0
   64.9793   34.3934  -27.7182 C   0  0  0  0  0  0  0  0  0  0  0  0
   65.4897   35.5070  -28.6124 C   0  0  0  0  0  0  0  0  0  0  0  0
   67.0063   35.5077  -28.6188 C   0  0  0  0  0  0  0  0  0  0  0  0
   67.5167   36.6213  -29.5129 C   0  0  0  0  0  0  0  0  0  0  0  0
   69.0333   36.6207  -29.5208 C   0  0  0  0  0  0  0  0  0  0  0  0
   69.5428   37.7346  -30.4151 C   0  0  0  0  0  0  0  0  0  0  0  0
   71.0594   37.7345  -30.4235 C   0  0  0  0  0  0  0  0  0  0  0  0
   71.5690   38.8485  -31.3179 C   0  0  0  0  0  0  0  0  0  0  0  0
   73.0859   38.8485  -31.3263 C   0  0  0  0  0  0  0  0  0  0  0  0
   73.5969   39.9625  -32.2207 C   0  0  0  0  0  0  0  0  0  0  0  0
   75.1146   39.9637  -32.2275 C   0  0  0  0  0  0  0  0  0  0  0  0
   75.6289   41.0776  -33.1220 C   0  0  0  0  0  0  0  0  0  0  0  0
   77.1488   41.0810  -33.1304 C   0  0  0  0  0  0  0  0  0  0  0  0
   77.6642   42.1954  -34.0278 C   0  0  0  0  0  0  0  0  0  0  0  0
   79.1865   42.2113  -34.0439 C   0  0  0  0  0  0  0  0  0  0  0  0
   79.6985   43.3233  -34.9394 C   0  0  0  0  0  0  0  0  0  0  0  0
    0.5604   -0.9090    0.5598 H   0  0  0  0  0  0  0  0  0  0  0  0
    0.5603   -0.2649   -1.0982 H   0  0  0  0  0  0  0  0  0  0  0  0
    0.5516    0.8481    0.2833 H   0  0  0  0  0  0  0  0  0  0  0  0
    2.8294   -1.0699   -0.4309 H   0  0  0  0  0  0  0  0  0  0  0  0
    2.8208    0.0386    0.9450 H   0  0  0  0  0  0  0  0  0  0  0  0
    2.5733    1.9790   -0.6184 H   0  0  0  0  0  0  0  0  0  0  0  0
    2.5797    0.8708   -1.9954 H   0  0  0  0  0  0  0  0  0  0  0  0
    4.8424    0.0382   -1.3064 H   0  0  0  0  0  0  0  0  0  0  0  0
    4.8361    1.1381    0.0602 H   0  0  0  0  0  0  0  0  0  0  0  0
    4.5891    3.0821   -1.4826 H   0  0  0  0  0  0  0  0  0  0  0  0
    4.5956    1.9598   -2.8771 H   0  0  0  0  0  0  0  0  0  0  0  0
   22.8828   10.0090   -9.2763 H   0  0  0  0  0  0  0  0  0  0  0  0
   22.8812   11.1305   -7.8806 H   0  0  0  0  0  0  0  0  0  0  0  0
   22.6292   13.0524   -9.4471 H   0  0  0  0  0  0  0  0  0  0  0  0
   22.6287   11.9540  -10.8154 H   0  0  0  0  0  0  0  0  0  0  0  0
   24.8895   11.1030  -10.1424 H   0  0  0  0  0  0  0  0  0  0  0  0
   24.8900   12.2103   -8.7629 H   0  0  0  0  0  0  0  0  0  0  0  0
   24.6131   14.1478  -10.3190 H   0  0  0  0  0  0  0  0  0  0  0  0
   24.6125   13.0414  -11.6973 H   0  0  0  0  0  0  0  0  0  0  0  0
   26.8734   12.2090  -11.0300 H   0  0  0  0  0  0  0  0  0  0  0  0
   26.8740   13.3153   -9.6519 H   0  0  0  0  0  0  0  0  0  0  0  0
   26.6184   15.2552  -11.2093 H   0  0  0  0  0  0  0  0  0  0  0  0
   26.6178   14.1492  -12.5870 H   0  0  0  0  0  0  0  0  0  0  0  0
   28.8823   13.3197  -11.9218 H   0  0  0  0  0  0  0  0  0  0  0  0
   28.8829   14.4254  -10.5444 H   0  0  0  0  0  0  0  0  0  0  0  0
   28.6358   16.3671  -12.1029 H   0  0  0  0  0  0  0  0  0  0  0  0
   28.6352   15.2614  -13.4804 H   0  0  0  0  0  0  0  0  0  0  0  0
   30.9015   14.4338  -12.8169 H   0  0  0  0  0  0  0  0  0  0  0  0
   30.9020   15.5394  -11.4395 H   0  0  0  0  0  0  0  0  0  0  0  0
   30.6593   17.4818  -12.9996 H   0  0  0  0  0  0  0  0  0  0  0  0
   30.6610   16.3755  -14.3764 H   0  0  0  0  0  0  0  0  0  0  0  0
   32.9287   15.5514  -13.7113 H   0  0  0  0  0  0  0  0  0  0  0  0
   32.9270   16.6576  -12.3346 H   0  0  0  0  0  0  0  0  0  0  0  0
   32.6870   18.5996  -13.8943 H   0  0  0  0  0  0  0  0  0  0  0  0
   32.6866   17.4941  -15.2716 H   0  0  0  0  0  0  0  0  0  0  0  0
   34.9546   16.6690  -14.6111 H   0  0  0  0  0  0  0  0  0  0  0  0
   34.9553   17.7726  -13.2324 H   0  0  0  0  0  0  0  0  0  0  0  0
   34.7147   19.7177  -14.7882 H   0  0  0  0  0  0  0  0  0  0  0  0
   34.7119   18.6149  -16.1676 H   0  0  0  0  0  0  0  0  0  0  0  0
   36.9801   17.7868  -15.5112 H   0  0  0  0  0  0  0  0  0  0  0  0
   36.9831   18.8878  -14.1303 H   0  0  0  0  0  0  0  0  0  0  0  0
   36.7404   20.8358  -15.6839 H   0  0  0  0  0  0  0  0  0  0  0  0
   36.7396   19.7341  -17.0642 H   0  0  0  0  0  0  0  0  0  0  0  0
   39.0080   18.9062  -16.4036 H   0  0  0  0  0  0  0  0  0  0  0  0
   39.0086   20.0097  -15.0247 H   0  0  0  0  0  0  0  0  0  0  0  0
   38.7670   21.9547  -16.5813 H   0  0  0  0  0  0  0  0  0  0  0  0
   38.7665   20.8512  -17.9602 H   0  0  0  0  0  0  0  0  0  0  0  0
   41.0347   20.0246  -17.2996 H   0  0  0  0  0  0  0  0  0  0  0  0
   41.0353   21.1282  -15.9207 H   0  0  0  0  0  0  0  0  0  0  0  0
   40.7937   23.0731  -17.4774 H   0  0  0  0  0  0  0  0  0  0  0  0
   40.7931   21.9695  -18.8562 H   0  0  0  0  0  0  0  0  0  0  0  0
   43.0613   21.1429  -18.1956 H   0  0  0  0  0  0  0  0  0  0  0  0
   43.0619   22.2466  -16.8168 H   0  0  0  0  0  0  0  0  0  0  0  0
   42.8204   24.1915  -18.3735 H   0  0  0  0  0  0  0  0  0  0  0  0
   42.8198   23.0879  -19.7522 H   0  0  0  0  0  0  0  0  0  0  0  0
   45.0881   22.2614  -19.0913 H   0  0  0  0  0  0  0  0  0  0  0  0
   45.0885   23.3652  -17.7128 H   0  0  0  0  0  0  0  0  0  0  0  0
   44.8467   25.3099  -19.2701 H   0  0  0  0  0  0  0  0  0  0  0  0
   44.8466   24.2059  -20.6485 H   0  0  0  0  0  0  0  0  0  0  0  0
   47.1150   23.3799  -19.9870 H   0  0  0  0  0  0  0  0  0  0  0  0
   47.1150   24.4839  -18.6087 H   0  0  0  0  0  0  0  0  0  0  0  0
   46.8723   26.4282  -20.1670 H   0  0  0  0  0  0  0  0  0  0  0  0
   46.8745   25.3235  -21.5448 H   0  0  0  0  0  0  0  0  0  0  0  0
   49.1428   24.4996  -20.8806 H   0  0  0  0  0  0  0  0  0  0  0  0
   49.1406   25.6044  -19.5029 H   0  0  0  0  0  0  0  0  0  0  0  0
   48.9000   27.5480  -21.0606 H   0  0  0  0  0  0  0  0  0  0  0  0
   48.9001   26.4440  -22.4390 H   0  0  0  0  0  0  0  0  0  0  0  0
   51.1682   25.6184  -21.7788 H   0  0  0  0  0  0  0  0  0  0  0  0
   51.1685   26.7206  -20.3989 H   0  0  0  0  0  0  0  0  0  0  0  0
   50.9279   28.6673  -21.9529 H   0  0  0  0  0  0  0  0  0  0  0  0
   50.9255   27.5657  -23.3333 H   0  0  0  0  0  0  0  0  0  0  0  0
   53.1937   26.7362  -22.6744 H   0  0  0  0  0  0  0  0  0  0  0  0
   53.1963   27.8396  -21.2955 H   0  0  0  0  0  0  0  0  0  0  0  0
   52.9557   29.7851  -22.8510 H   0  0  0  0  0  0  0  0  0  0  0  0
   52.9510   28.6823  -24.2304 H   0  0  0  0  0  0  0  0  0  0  0  0
   55.2193   27.8514  -23.5730 H   0  0  0  0  0  0  0  0  0  0  0  0
   55.2239   28.9561  -22.1951 H   0  0  0  0  0  0  0  0  0  0  0  0
   54.9812   30.9001  -23.7541 H   0  0  0  0  0  0  0  0  0  0  0  0
   54.9787   29.7945  -25.1312 H   0  0  0  0  0  0  0  0  0  0  0  0
   57.2469   28.9673  -24.4715 H   0  0  0  0  0  0  0  0  0  0  0  0
   57.2495   30.0725  -23.0940 H   0  0  0  0  0  0  0  0  0  0  0  0
   57.0092   32.0160  -24.6516 H   0  0  0  0  0  0  0  0  0  0  0  0
   57.0040   30.9118  -26.0298 H   0  0  0  0  0  0  0  0  0  0  0  0
   59.2722   30.0819  -25.3736 H   0  0  0  0  0  0  0  0  0  0  0  0
   59.2775   31.1860  -23.9953 H   0  0  0  0  0  0  0  0  0  0  0  0
   59.0360   33.1307  -25.5524 H   0  0  0  0  0  0  0  0  0  0  0  0
   59.0307   32.0265  -26.9307 H   0  0  0  0  0  0  0  0  0  0  0  0
   61.2989   31.1965  -26.2744 H   0  0  0  0  0  0  0  0  0  0  0  0
   61.3042   32.3007  -24.8961 H   0  0  0  0  0  0  0  0  0  0  0  0
   61.0627   34.2454  -26.4532 H   0  0  0  0  0  0  0  0  0  0  0  0
   61.0574   33.1412  -27.8315 H   0  0  0  0  0  0  0  0  0  0  0  0
   63.3256   32.3111  -27.1752 H   0  0  0  0  0  0  0  0  0  0  0  0
   63.3309   33.4154  -25.7969 H   0  0  0  0  0  0  0  0  0  0  0  0
   63.0895   35.3601  -27.3540 H   0  0  0  0  0  0  0  0  0  0  0  0
   63.0842   34.2558  -28.7323 H   0  0  0  0  0  0  0  0  0  0  0  0
   65.3524   33.4258  -28.0759 H   0  0  0  0  0  0  0  0  0  0  0  0
   65.3577   34.5300  -26.6976 H   0  0  0  0  0  0  0  0  0  0  0  0
   65.1166   36.4747  -28.2547 H   0  0  0  0  0  0  0  0  0  0  0  0
   65.1113   35.3704  -29.6330 H   0  0  0  0  0  0  0  0  0  0  0  0
   67.3794   34.5402  -28.9765 H   0  0  0  0  0  0  0  0  0  0  0  0
   67.3848   35.6444  -27.5983 H   0  0  0  0  0  0  0  0  0  0  0  0
   67.1448   37.5892  -29.1545 H   0  0  0  0  0  0  0  0  0  0  0  0
   67.1373   36.4856  -30.5333 H   0  0  0  0  0  0  0  0  0  0  0  0
   69.4054   35.6531  -29.8794 H   0  0  0  0  0  0  0  0  0  0  0  0
   69.4130   36.7566  -28.5006 H   0  0  0  0  0  0  0  0  0  0  0  0
   69.1706   38.7022  -30.0565 H   0  0  0  0  0  0  0  0  0  0  0  0
   69.1629   37.5986  -31.4353 H   0  0  0  0  0  0  0  0  0  0  0  0
   71.4314   36.7668  -30.7821 H   0  0  0  0  0  0  0  0  0  0  0  0
   71.4390   37.8704  -29.4033 H   0  0  0  0  0  0  0  0  0  0  0  0
   71.1967   39.8159  -30.9591 H   0  0  0  0  0  0  0  0  0  0  0  0
   71.1890   38.7124  -32.3380 H   0  0  0  0  0  0  0  0  0  0  0  0
   73.4575   37.8806  -31.6847 H   0  0  0  0  0  0  0  0  0  0  0  0
   73.4651   38.9841  -30.3059 H   0  0  0  0  0  0  0  0  0  0  0  0
   73.2231   40.9297  -31.8628 H   0  0  0  0  0  0  0  0  0  0  0  0
   73.2177   39.8255  -33.2410 H   0  0  0  0  0  0  0  0  0  0  0  0
   75.4863   38.9953  -32.5846 H   0  0  0  0  0  0  0  0  0  0  0  0
   75.4916   40.0996  -31.2064 H   0  0  0  0  0  0  0  0  0  0  0  0
   75.2542   42.0445  -32.7639 H   0  0  0  0  0  0  0  0  0  0  0  0
   75.2488   40.9404  -34.1419 H   0  0  0  0  0  0  0  0  0  0  0  0
   77.5196   40.1117  -33.4858 H   0  0  0  0  0  0  0  0  0  0  0  0
   77.5247   41.2177  -32.1091 H   0  0  0  0  0  0  0  0  0  0  0  0
   77.2844   43.1607  -33.6708 H   0  0  0  0  0  0  0  0  0  0  0  0
   77.2814   42.0544  -35.0462 H   0  0  0  0  0  0  0  0  0  0  0  0
   79.5656   41.2472  -34.4022 H   0  0  0  0  0  0  0  0  0  0  0  0
   79.5685   42.3538  -33.0263 H   0  0  0  0  0  0  0  0  0  0  0  0
   79.3470   43.1866  -35.9670 H   0  0  0  0  0  0  0  0  0  0  0  0
   80.7917   43.3302  -34.9472 H   0  0  0  0  0  0  0  0  0  0  0  0
   79.3499   44.2985  -34.5845 H   0  0  0  0  0  0  0  0  0  0  0  0
  1  2  1  0  0  0  0
  1 82  1  0  0  0  0
  1 83  1  0  0  0  0
  1 84  1  0  0  0  0
  2  3  1  0  0  0  0
  2 85  1  0  0  0  0
  2 86  1  0  0  0  0
  3  4  1  0  0  0  0
  3 87  1  0  0  0  0
  3 88  1  0  0  0  0
  4  5  1  0  0  0  0
  4 89  1  0  0  0  0
  4 90  1  0  0  0  0
  5  6  1  0  0  0  0
  5 91  1  0  0  0  0
  5 92  1  0  0  0  0
  6  7  1  0  0  0  0
  7  8  1  0  0  0  0
  8  9  1  0  0  0  0
  9 10  1  0  0  0  0
 10 11  1  0  0  0  0
 11 12  1  0  0  0  0
 12 13  1  0  0  0  0
 13 14  1  0  0  0  0
 14 15  1  0  0  0  0
 15 16  1  0  0  0  0
 16 17  1  0  0  0  0
 17 18  1  0  0  0  0
 18 19  1  0  0  0  0
 19 20  1  0  0  0  0
 20 21  1  0  0  0  0
 21 22  1  0  0  0  0
 22 23  1  0  0  0  0
 23 24  1  0  0  0  0
 24 25  1  0  0  0  0
 24 93  1  0  0  0  0
 24 94  1  0  0  0  0
 25 26  1  0  0  0  0
 25 95  1  0  0  0  0
 25 96  1  0  0  0  0
 26 27  1  0  0  0  0
 26 97  1  0  0  0  0
 26 98  1  0  0  0  0
 27 28  1  0  0  0  0
 27 99  1  0  0  0  0
 27100  1  0  0  0  0
 28 29  1  0  0  0  0
 28101  1  0  0  0  0
 28102  1  0  0  0  0
 29 30  1  0  0  0  0
 29103  1  0  0  0  0
 29104  1  0  0  0  0
 30 31  1  0  0  0  0
 30105  1  0  0  0  0
 30106  1  0  0  0  0
 31 32  1  0  0  0  0
 31107  1  0  0  0  0
 31108  1  0  0  0  0
 32 33  1  0  0  0  0
 32109  1  0  0  0  0
 32110  1  0  0  0  0
 33 34  1  0  0  0  0
 33111  1  0  0  0  0
 33112  1  0  0  0  0
 34 35  1  0  0  0  0
 34113  1  0  0  0  0
 34114  1  0  0  0  0
 35 36  1  0  0  0  0
 35115  1  0  0  0  0
 35116  1  0  0  0  0
 36 37  1  0  0  0  0
 36117  1  0  0  0  0
 36118  1  0  0  0  0
 37 38  1  0  0  0  0
 37119  1  0  0  0  0
 37120  1  0  0  0  0
 38 39  1  0  0  0  0
 38121  1  0  0  0  0
 38122  1  0  0  0  0
 39 40  1  0  0  0  0
 39123  1  0  0  0  0
 39124  1  0  0  0  0
 40 41  1  0  0  0  0
 40125  1  0  0  0  0
 40126  1  0  0  0  0
 41 42  1  0  0  0  0
 41127  1  0  0  0  0
 41128  1  0  0  0  0
 42 43  1  0  0  0  0
 42129  1  0  0  0  0
 42130  1  0  0  0  0
 43 44  1  0  0  0  0
 43131  1  0  0  0  0
 43132  1  0  0  0  0
 44 45  1  0  0  0  0
 44133  1  0  0  0  0
 44134  1  0  0  0  0
 45 46  1  0  0  0  0
 45135  1  0  0  0  0
 45136  1  0  0  0  0
 46 47  1  0  0  0  0
 46137  1  0  0  0  0
 46138  1  0  0  0  0
 47 48  1  0  0  0  0
 47139  1  0  0  0  0
 47140  1  0  0  0  0
 48 49  1  0  0  0  0
 48141  1  0  0  0  0
 48142  1  0  0  0  0
 49 50  1  0  0  0  0
 49143  1  0  0  0  0
 49144  1  0  0  0  0
 50 51  1  0  0  0  0
 50145  1  0  0  0  0
 50146  1  0  0  0  0
 51 52  1  0  0  0  0
 51147  1  0  0  0  0
 51148  1  0  0  0  0
 52 53  1  0  0  0  0
 52149  1  0  0  0  0
 52150  1  0  0  0  0
 53 54  1  0  0  0  0
 53151  1  0  0  0  0
 53152  1  0  0  0  0
 54 55  1  0  0  0  0
 54153  1  0  0  0  0
 54154  1  0  0  0  0
 55 56  1  0  0  0  0
 55155  1  0  0  0  0
 55156  1  0  0  0  0
 56 57  1  0  0  0  0
 56157  1  0  0  0  0
 56158  1  0  0  0  0
 57 58  1  0  0  0  0
 57159  1  0  0  0  0
 57160  1  0  0  0  0
 58 59  1  0  0  0  0
 58161  1  0  0  0  0
 58162  1  0  0  0  0
 59 60  1  0  0  0  0
 59163  1  0  0  0  0
 59164  1  0  0  0  0
 60 61  1  0  0  0  0
 60165  1  0  0  0  0
 60166  1  0  0  0  0
 61 62  1  0  0  0  0
 61167  1  0  0  0  0
 61168  1  0  0  0  0
 62 63  1  0  0  0  0
 62169  1  0  0  0  0
 62170  1  0  0  0  0
 63 64  1  0  0  0  0
 63171  1  0  0  0  0
 63172  1  0  0  0  0
 64 65  1  0  0  0  0
 64173  1  0  0  0  0
 64174  1  0  0  0  0
 65 66  1  0  0  0  0
 65175  1  0  0  0  0
 65176  1  0  0  0  0
 66 67  1  0  0  0  0
 66177  1  0  0  0  0
 66178  1  0  0  0  0
 67 68  1  0  0  0  0
 67179  1  0  0  0  0
 67180  1  0  0  0  0
 68 69  1  0  0  0  0
 68181  1  0  0  0  0
 68182  1  0  0  0  0
 69 70  1  0  0  0  0
 69183  1  0  0  0  0
 69184  1  0  0  0  0
 70 71  1  0  0  0  0
 70185  1  0  0  0  0
 70186  1  0  0  0  0
 71 72  1  0  0  0  0
 71187  1  0  0  0  0
 71188  1  0  0  0  0
 72 73  1  0  0  0  0
 72189  1  0  0  0  0
 72190  1  0  0  0  0
 73 74  1  0  0  0  0
 73191  1  0  0  0  0
 73192  1  0  0  0  0
 74 75  1  0  0  0  0
 74193  1  0  0  0  0
 74194  1  0  0  0  0
 75 76  1  0  0  0  0
 75195  1  0  0  0  0
 75196  1  0  0  0  0
 76 77  1  0  0  0  0
 76197  1  0  0  0  0
 76198  1  0  0  0  0
 77 78  1  0  0  0  0
 77199  1  0  0  0  0
 77200  1  0  0  0  0
 78 79  1  0  0  0  0
 78201  1  0  0  0  0
 78202  1  0  0  0  0
 79 80  1  0  0  0  0
 79203  1  0  0  0  0
 79204  1  0  0  0  0
 80 81  1  0  0  0  0
 80205  1  0  0  0  0
 80206  1  0  0  0  0
 81207  1  0  0  0  0
 81208  1  0  0  0  0
 81209  1  0  0  0  0
M  END
$$$$
