
 OpenBabel04232216493D

 48 48  0  0  1  0  0  0  0  0999 V2000
    2.7897   -1.2224    1.2483 C   0  0  0  0  0  0  0  0  0  0  0  0
    4.1222   -1.7165    0.6505 C   0  0  3  0  0  0  0  0  0  0  0  0
    3.8718   -2.4139   -0.6391 C   0  0  0  0  0  0  0  0  0  0  0  0
    4.2517   -1.8405   -1.8023 C   0  0  0  0  0  0  0  0  0  0  0  0
    5.0410   -2.7258   -2.6367 C   0  0  0  0  0  0  0  0  0  0  0  0
    6.3307   -2.8840   -2.2462 C   0  0  0  0  0  0  0  0  0  0  0  0
    7.1393   -1.8016   -1.5329 C   0  0  0  0  0  0  0  0  0  0  0  0
    6.7107   -4.2758   -1.9737 C   0  0  0  0  0  0  0  0  0  0  0  0
    7.6328   -4.5332   -1.0339 C   0  0  0  0  0  0  0  0  0  0  0  0
    7.1811   -5.2614    0.1258 C   0  0  0  0  0  0  0  0  0  0  0  0
    7.4423   -6.7619    0.1634 C   0  0  0  0  0  0  0  0  0  0  0  0
    6.7407   -7.4768    0.8602 O   0  0  0  0  0  0  0  0  0  0  0  0
    8.5676   -7.4056   -0.6255 C   0  0  0  0  0  0  0  0  0  0  0  0
    9.8905   -7.4815    0.1438 C   0  0  0  0  0  0  0  0  0  0  0  0
    9.7409   -8.2164    1.4792 C   0  0  0  0  0  0  0  0  0  0  0  0
   11.0540   -8.3191    2.2536 C   0  0  0  0  0  0  0  0  0  0  0  0
   10.8192   -9.0035    3.5991 C   0  0  0  0  0  0  0  0  0  0  0  0
   12.0703   -9.1106    4.4327 C   0  0  0  0  0  0  0  0  0  0  0  0
   13.1707   -8.6849    4.0981 O   0  0  0  0  0  0  0  0  0  0  0  0
    6.4652   -4.7619    1.1706 C   0  0  0  0  0  0  0  0  0  0  0  0
    5.9271   -3.5095    1.7402 C   0  0  0  0  0  0  0  0  0  0  0  0
    5.0830   -2.4541    1.6024 C   0  0  0  0  0  0  0  0  0  0  0  0
    2.0043   -1.1339    0.4846 H   0  0  0  0  0  0  0  0  0  0  0  0
    2.9196   -0.2142    1.6646 H   0  0  0  0  0  0  0  0  0  0  0  0
    2.4105   -1.8654    2.0476 H   0  0  0  0  0  0  0  0  0  0  0  0
    4.6694   -0.7876    0.4251 H   0  0  0  0  0  0  0  0  0  0  0  0
    3.6703   -3.4815   -0.5717 H   0  0  0  0  0  0  0  0  0  0  0  0
    4.4929   -0.7808   -1.8586 H   0  0  0  0  0  0  0  0  0  0  0  0
    4.4668   -3.5575   -3.0462 H   0  0  0  0  0  0  0  0  0  0  0  0
    6.6002   -0.8606   -1.3960 H   0  0  0  0  0  0  0  0  0  0  0  0
    8.0433   -1.5728   -2.1151 H   0  0  0  0  0  0  0  0  0  0  0  0
    7.4437   -2.0806   -0.5227 H   0  0  0  0  0  0  0  0  0  0  0  0
    5.8817   -4.9836   -2.0762 H   0  0  0  0  0  0  0  0  0  0  0  0
    8.4961   -3.8925   -0.8717 H   0  0  0  0  0  0  0  0  0  0  0  0
    8.7109   -6.9106   -1.5928 H   0  0  0  0  0  0  0  0  0  0  0  0
    8.2418   -8.4248   -0.8717 H   0  0  0  0  0  0  0  0  0  0  0  0
   10.2781   -6.4716    0.3145 H   0  0  0  0  0  0  0  0  0  0  0  0
   10.6274   -8.0089   -0.4763 H   0  0  0  0  0  0  0  0  0  0  0  0
    9.3455   -9.2241    1.2997 H   0  0  0  0  0  0  0  0  0  0  0  0
    9.0147   -7.6906    2.1078 H   0  0  0  0  0  0  0  0  0  0  0  0
   11.4710   -7.3171    2.4147 H   0  0  0  0  0  0  0  0  0  0  0  0
   11.7929   -8.8818    1.6711 H   0  0  0  0  0  0  0  0  0  0  0  0
   10.4351  -10.0184    3.4490 H   0  0  0  0  0  0  0  0  0  0  0  0
   10.0828   -8.4455    4.1882 H   0  0  0  0  0  0  0  0  0  0  0  0
   11.9361   -9.6106    5.4083 H   0  0  0  0  0  0  0  0  0  0  0  0
    6.3282   -5.5023    1.9654 H   0  0  0  0  0  0  0  0  0  0  0  0
    6.3371   -3.5011    2.7668 H   0  0  0  0  0  0  0  0  0  0  0  0
    5.0520   -1.8693    2.5290 H   0  0  0  0  0  0  0  0  0  0  0  0
  1  2  1  0  0  0  0
  1 23  1  0  0  0  0
  1 24  1  0  0  0  0
  1 25  1  0  0  0  0
  2  3  1  0  0  0  0
  2 22  1  0  0  0  0
  2 26  1  0  0  0  0
  3  4  2  3  0  0  0
  3 27  1  0  0  0  0
  4  5  1  0  0  0  0
  4 28  1  0  0  0  0
  5  6  2  3  0  0  0
  5 29  1  0  0  0  0
  6  7  1  0  0  0  0
  6  8  1  0  0  0  0
  7 30  1  0  0  0  0
  7 31  1  0  0  0  0
  7 32  1  0  0  0  0
  8  9  2  3  0  0  0
  8 33  1  0  0  0  0
  9 10  1  0  0  0  0
  9 34  1  0  0  0  0
 10 11  1  0  0  0  0
 10 20  2  3  0  0  0
 11 12  2  0  0  0  0
 11 13  1  0  0  0  0
 13 14  1  0  0  0  0
 13 35  1  0  0  0  0
 13 36  1  0  0  0  0
 14 15  1  0  0  0  0
 14 37  1  0  0  0  0
 14 38  1  0  0  0  0
 15 16  1  0  0  0  0
 15 39  1  0  0  0  0
 15 40  1  0  0  0  0
 16 17  1  0  0  0  0
 16 41  1  0  0  0  0
 16 42  1  0  0  0  0
 17 18  1  0  0  0  0
 17 43  1  0  0  0  0
 17 44  1  0  0  0  0
 18 19  2  0  0  0  0
 18 45  1  0  0  0  0
 20 21  1  0  0  0  0
 20 46  1  0  0  0  0
 21 22  2  3  0  0  0
 21 47  1  0  0  0  0
 22 48  1  0  0  0  0
M  END
$$$$
