
 OpenBabel04232216483D

 61 62  0  0  0  0  0  0  0  0999 V2000
    3.3415    0.2807    0.3136 C   0  0  0  0  0  0  0  0  0  0  0  0
    4.1042    1.1346    1.4573 C   0  0  0  0  0  0  0  0  0  0  0  0
    3.0116    2.0206    2.1619 C   0  0  0  0  0  0  0  0  0  0  0  0
    2.7598    2.6662    3.3707 C   0  0  0  0  0  0  0  0  0  0  0  0
    3.2055    4.2572    3.6822 C   0  0  0  0  0  0  0  0  0  0  0  0
    3.0352    4.9365    5.2095 N   0  0  0  0  0  0  0  0  0  0  0  0
    1.5929    5.2749    5.9643 C   0  0  0  0  0  0  0  0  0  0  0  0
    1.5498    5.6357    7.6687 C   0  0  0  0  0  0  0  0  0  0  0  0
    1.4428    4.6826    8.9477 C   0  0  0  0  0  0  0  0  0  0  0  0
    2.5414    3.7881    9.5817 C   0  0  0  0  0  0  0  0  0  0  0  0
    3.0247    2.6217    8.7501 C   0  0  0  0  0  0  0  0  0  0  0  0
    4.1923    4.4834    2.7184 C   0  0  0  0  0  0  0  0  0  0  0  0
    5.6033    3.9836    2.7824 C   0  0  0  0  0  0  0  0  0  0  0  0
    6.0471    3.5286    4.1080 C   0  0  0  0  0  0  0  0  0  0  0  0
    5.2096    2.9091    5.1279 C   0  0  0  0  0  0  0  0  0  0  0  0
    6.5021    3.9159    1.7956 C   0  0  0  0  0  0  0  0  0  0  0  0
    7.4231    2.8068    2.3174 C   0  0  0  0  0  0  0  0  0  0  0  0
    8.5996    3.3104    3.1889 N   0  0  0  0  0  0  0  0  0  0  0  0
    8.7675    4.2053    4.7028 C   0  0  0  0  0  0  0  0  0  0  0  0
    7.9814    5.4408    5.7469 C   0  0  0  0  0  0  0  0  0  0  0  0
    6.4409    5.5347    5.8368 C   0  0  0  0  0  0  0  0  0  0  0  0
    5.3693    6.3071    6.5129 C   0  0  0  0  0  0  0  0  0  0  0  0
    3.9196    6.0160    5.9507 C   0  0  0  0  0  0  0  0  0  0  0  0
    6.8537    1.5353    2.1421 C   0  0  0  0  0  0  0  0  0  0  0  0
    5.5027    1.0317    1.4567 C   0  0  0  0  0  0  0  0  0  0  0  0
    2.2452    0.3987    0.3325 H   0  0  0  0  0  0  0  0  0  0  0  0
    3.4942   -0.8065    0.3864 H   0  0  0  0  0  0  0  0  0  0  0  0
    3.6252    0.5885   -0.7063 H   0  0  0  0  0  0  0  0  0  0  0  0
    2.0973    2.0139    1.5454 H   0  0  0  0  0  0  0  0  0  0  0  0
    3.1328    2.1202    4.2259 H   0  0  0  0  0  0  0  0  0  0  0  0
    0.7538    4.6481    5.6579 H   0  0  0  0  0  0  0  0  0  0  0  0
    1.3548    6.2832    5.5577 H   0  0  0  0  0  0  0  0  0  0  0  0
    0.5932    6.1933    7.7604 H   0  0  0  0  0  0  0  0  0  0  0  0
    2.2496    6.4513    7.9288 H   0  0  0  0  0  0  0  0  0  0  0  0
    0.5223    4.0952    8.8757 H   0  0  0  0  0  0  0  0  0  0  0  0
    1.2284    5.3748    9.7919 H   0  0  0  0  0  0  0  0  0  0  0  0
    2.1136    3.3421   10.5010 H   0  0  0  0  0  0  0  0  0  0  0  0
    3.3950    4.3703    9.9534 H   0  0  0  0  0  0  0  0  0  0  0  0
    2.1940    1.9679    8.4681 H   0  0  0  0  0  0  0  0  0  0  0  0
    3.7290    2.0094    9.3309 H   0  0  0  0  0  0  0  0  0  0  0  0
    3.5415    2.9728    7.8581 H   0  0  0  0  0  0  0  0  0  0  0  0
    4.0045    3.9877    1.7369 H   0  0  0  0  0  0  0  0  0  0  0  0
    6.6349    4.3958    4.2482 H   0  0  0  0  0  0  0  0  0  0  0  0
    6.7990    2.7651    4.2159 H   0  0  0  0  0  0  0  0  0  0  0  0
    4.4512    3.5880    5.3707 H   0  0  0  0  0  0  0  0  0  0  0  0
    5.6843    2.7310    6.0808 H   0  0  0  0  0  0  0  0  0  0  0  0
    4.8959    1.9576    4.7287 H   0  0  0  0  0  0  0  0  0  0  0  0
    7.2599    3.8514    0.9964 H   0  0  0  0  0  0  0  0  0  0  0  0
    9.3611    2.6276    3.1982 H   0  0  0  0  0  0  0  0  0  0  0  0
    8.2803    3.4240    5.2859 H   0  0  0  0  0  0  0  0  0  0  0  0
    8.6827    5.0301    4.0121 H   0  0  0  0  0  0  0  0  0  0  0  0
    8.3821    6.4262    5.4765 H   0  0  0  0  0  0  0  0  0  0  0  0
    8.3628    5.2696    6.7699 H   0  0  0  0  0  0  0  0  0  0  0  0
    6.2140    4.5649    6.2531 H   0  0  0  0  0  0  0  0  0  0  0  0
    6.1411    5.8561    4.8413 H   0  0  0  0  0  0  0  0  0  0  0  0
    5.5426    7.3825    6.3966 H   0  0  0  0  0  0  0  0  0  0  0  0
    5.3963    6.1470    7.6059 H   0  0  0  0  0  0  0  0  0  0  0  0
    3.6409    5.6257    6.9322 H   0  0  0  0  0  0  0  0  0  0  0  0
    3.4210    6.9837    5.8371 H   0  0  0  0  0  0  0  0  0  0  0  0
    7.4146    0.6806    2.5347 H   0  0  0  0  0  0  0  0  0  0  0  0
    5.8585    0.2763    0.7298 H   0  0  0  0  0  0  0  0  0  0  0  0
  1  2  1  0  0  0  0
  1 26  1  0  0  0  0
  1 27  1  0  0  0  0
  1 28  1  0  0  0  0
  2  3  1  0  0  0  0
  2 25  2  0  0  0  0
  3  4  2  0  0  0  0
  3 29  1  0  0  0  0
  4  5  1  0  0  0  0
  4 30  1  0  0  0  0
  5  6  1  0  0  0  0
  5 12  2  0  0  0  0
  6  7  1  0  0  0  0
  6 23  1  0  0  0  0
  7  8  1  0  0  0  0
  7 31  1  0  0  0  0
  7 32  1  0  0  0  0
  8  9  1  0  0  0  0
  8 33  1  0  0  0  0
  8 34  1  0  0  0  0
  9 10  1  0  0  0  0
  9 35  1  0  0  0  0
  9 36  1  0  0  0  0
 10 11  1  0  0  0  0
 10 37  1  0  0  0  0
 10 38  1  0  0  0  0
 11 39  1  0  0  0  0
 11 40  1  0  0  0  0
 11 41  1  0  0  0  0
 12 13  1  0  0  0  0
 12 42  1  0  0  0  0
 13 14  1  0  0  0  0
 13 16  2  0  0  0  0
 14 15  1  0  0  0  0
 14 43  1  0  0  0  0
 14 44  1  0  0  0  0
 15 45  1  0  0  0  0
 15 46  1  0  0  0  0
 15 47  1  0  0  0  0
 16 17  1  0  0  0  0
 16 48  1  0  0  0  0
 17 18  1  0  0  0  0
 17 24  2  0  0  0  0
 18 19  1  0  0  0  0
 18 49  1  0  0  0  0
 19 20  1  0  0  0  0
 19 50  1  0  0  0  0
 19 51  1  0  0  0  0
 20 21  1  0  0  0  0
 20 52  1  0  0  0  0
 20 53  1  0  0  0  0
 21 22  1  0  0  0  0
 21 54  1  0  0  0  0
 21 55  1  0  0  0  0
 22 23  1  0  0  0  0
 22 56  1  0  0  0  0
 22 57  1  0  0  0  0
 23 58  1  0  0  0  0
 23 59  1  0  0  0  0
 24 25  1  0  0  0  0
 24 60  1  0  0  0  0
 25 61  1  0  0  0  0
M  END
$$$$
