
 OpenBabel04232216463D

 46 46  0  0  0  0  0  0  0  0999 V2000
    4.8255    1.5176    1.3015 C   0  0  0  0  0  0  0  0  0  0  0  0
    5.6955    0.2680    1.5554 C   0  0  0  0  0  0  0  0  0  0  0  0
    4.6766   -0.7711    1.9193 C   0  0  0  0  0  0  0  0  0  0  0  0
    4.4137   -1.9145    1.2757 C   0  0  0  0  0  0  0  0  0  0  0  0
    4.5635   -2.1228   -0.0919 N   0  0  0  0  0  0  0  0  0  0  0  0
    4.8454   -2.9691    2.2523 C   0  0  0  0  0  0  0  0  0  0  0  0
    3.7941   -3.4448    3.2002 C   0  0  0  0  0  0  0  0  0  0  0  0
    6.1698   -2.8159    2.5815 C   0  0  0  0  0  0  0  0  0  0  0  0
    6.9569   -3.0307    1.2498 C   0  0  0  0  0  0  0  0  0  0  0  0
    6.5151   -1.7771    3.8534 C   0  0  0  0  0  0  0  0  0  0  0  0
    6.0091   -2.4762    5.1109 C   0  0  0  0  0  0  0  0  0  0  0  0
    7.6984   -1.0988    4.1084 C   0  0  0  0  0  0  0  0  0  0  0  0
    8.3165    0.3942    4.2200 C   0  0  0  0  0  0  0  0  0  0  0  0
    9.9235    0.5054    4.2509 C   0  0  0  0  0  0  0  0  0  0  0  0
    8.7011   -1.8186    3.5487 N   0  0  0  0  0  0  0  0  0  0  0  0
    9.3461   -2.7497    4.4646 C   0  0  0  0  0  0  0  0  0  0  0  0
    8.9051   -1.4612    2.2040 C   0  0  0  0  0  0  0  0  0  0  0  0
   10.1644   -2.1961    1.6997 C   0  0  0  0  0  0  0  0  0  0  0  0
    8.2430   -0.6967    1.3531 N   0  0  0  0  0  0  0  0  0  0  0  0
    7.0136    0.3302    1.4631 N   0  0  0  0  0  0  0  0  0  0  0  0
    3.9639    1.5455    1.9969 H   0  0  0  0  0  0  0  0  0  0  0  0
    4.3760    1.4146    0.3045 H   0  0  0  0  0  0  0  0  0  0  0  0
    5.3654    2.4500    1.3943 H   0  0  0  0  0  0  0  0  0  0  0  0
    4.3315   -0.6738    2.9472 H   0  0  0  0  0  0  0  0  0  0  0  0
    3.7101   -1.8131   -0.5628 H   0  0  0  0  0  0  0  0  0  0  0  0
    5.2686   -1.4684   -0.4500 H   0  0  0  0  0  0  0  0  0  0  0  0
    2.8888   -3.7356    2.6632 H   0  0  0  0  0  0  0  0  0  0  0  0
    3.5058   -2.6934    3.9370 H   0  0  0  0  0  0  0  0  0  0  0  0
    4.1383   -4.3409    3.7134 H   0  0  0  0  0  0  0  0  0  0  0  0
    6.4540   -3.7715    0.6089 H   0  0  0  0  0  0  0  0  0  0  0  0
    7.9458   -3.4559    1.3577 H   0  0  0  0  0  0  0  0  0  0  0  0
    6.9888   -2.1687    0.5765 H   0  0  0  0  0  0  0  0  0  0  0  0
    4.9774   -2.2061    5.3279 H   0  0  0  0  0  0  0  0  0  0  0  0
    6.5951   -2.2254    6.0014 H   0  0  0  0  0  0  0  0  0  0  0  0
    6.0937   -3.5655    4.9931 H   0  0  0  0  0  0  0  0  0  0  0  0
    7.9567    0.9407    5.0910 H   0  0  0  0  0  0  0  0  0  0  0  0
    8.0540    0.9895    3.3440 H   0  0  0  0  0  0  0  0  0  0  0  0
   10.3369    0.1767    5.2103 H   0  0  0  0  0  0  0  0  0  0  0  0
   10.2746    1.5300    4.0661 H   0  0  0  0  0  0  0  0  0  0  0  0
   10.4482   -0.0776    3.4820 H   0  0  0  0  0  0  0  0  0  0  0  0
    8.6333   -3.3079    5.0747 H   0  0  0  0  0  0  0  0  0  0  0  0
    9.9851   -2.2150    5.2122 H   0  0  0  0  0  0  0  0  0  0  0  0
    9.9829   -3.5059    3.9776 H   0  0  0  0  0  0  0  0  0  0  0  0
   10.4691   -1.8341    0.7281 H   0  0  0  0  0  0  0  0  0  0  0  0
    9.9659   -3.2662    1.6830 H   0  0  0  0  0  0  0  0  0  0  0  0
   10.9798   -2.0512    2.4238 H   0  0  0  0  0  0  0  0  0  0  0  0
  1  2  1  0  0  0  0
  1 21  1  0  0  0  0
  1 22  1  0  0  0  0
  1 23  1  0  0  0  0
  2  3  1  0  0  0  0
  2 20  2  3  0  0  0
  3  4  2  3  0  0  0
  3 24  1  0  0  0  0
  4  5  1  0  0  0  0
  4  6  1  0  0  0  0
  5 25  1  0  0  0  0
  5 26  1  0  0  0  0
  6  7  1  0  0  0  0
  6  8  2  3  0  0  0
  7 27  1  0  0  0  0
  7 28  1  0  0  0  0
  7 29  1  0  0  0  0
  8  9  1  0  0  0  0
  8 10  1  0  0  0  0
  9 30  1  0  0  0  0
  9 31  1  0  0  0  0
  9 32  1  0  0  0  0
 10 11  1  0  0  0  0
 10 12  2  3  0  0  0
 11 33  1  0  0  0  0
 11 34  1  0  0  0  0
 11 35  1  0  0  0  0
 12 13  1  0  0  0  0
 12 15  1  0  0  0  0
 13 14  1  0  0  0  0
 13 36  1  0  0  0  0
 13 37  1  0  0  0  0
 14 38  1  0  0  0  0
 14 39  1  0  0  0  0
 14 40  1  0  0  0  0
 15 16  1  0  0  0  0
 15 17  1  0  0  0  0
 16 41  1  0  0  0  0
 16 42  1  0  0  0  0
 16 43  1  0  0  0  0
 17 18  1  0  0  0  0
 17 19  2  3  0  0  0
 18 44  1  0  0  0  0
 18 45  1  0  0  0  0
 18 46  1  0  0  0  0
 19 20  1  0  0  0  0
M  END
$$$$
