
 OpenBabel04232216423D

 64 67  0  0  0  0  0  0  0  0999 V2000
   -0.5975    1.3496   -0.3648 C   0  0  0  0  0  0  0  0  0  0  0  0
    0.6572    0.8045   -0.6947 C   0  0  0  0  0  3  0  0  0  0  0  0
    1.1223   -0.4568   -0.2644 C   0  0  0  0  0  0  0  0  0  0  0  0
    0.2922   -1.4973   -0.1350 C   0  0  0  0  0  0  0  0  0  0  0  0
    1.0484   -2.8153   -0.0513 C   0  0  0  0  0  0  0  0  0  0  0  0
    1.9343   -3.0868   -1.3712 C   0  0  0  0  0  0  0  0  0  0  0  0
    3.0400   -2.0505   -1.8644 C   0  0  0  0  0  0  0  0  0  0  0  0
    2.5674   -0.8054   -2.6657 C   0  0  0  0  0  0  0  0  0  0  0  0
    3.2384    0.6134   -2.4527 C   0  0  0  0  0  0  0  0  0  0  0  0
    3.8883    1.1653   -1.1070 C   0  0  0  0  0  0  0  0  0  0  0  0
    3.1892    2.1324   -0.0731 C   0  0  0  0  0  0  0  0  0  0  0  0
    2.7584    1.7294    1.4069 C   0  0  0  0  0  0  0  0  0  0  0  0
    3.0199    0.3381    2.0954 C   0  0  0  0  0  0  0  0  0  0  0  0
    1.7964   -0.5286    2.5449 C   0  0  0  0  0  0  0  0  0  0  0  0
    1.7771   -2.0905    2.4932 C   0  0  0  0  0  0  0  0  0  0  0  0
    2.0163   -2.9072    1.1982 C   0  0  0  0  0  0  0  0  0  0  0  0
   -1.1314   -1.1028   -0.1556 C   0  0  0  0  0  0  0  0  0  0  0  0
   -2.1652   -1.6391   -0.8253 C   0  0  0  0  0  0  0  0  0  0  0  0
   -3.2265   -0.6237   -0.9338 C   0  0  0  0  0  0  0  0  0  0  0  0
   -2.8738    0.5340   -0.3343 C   0  0  0  0  0  0  0  0  0  0  0  0
   -1.5320    0.3646    0.2695 C   0  0  0  0  0  0  0  0  0  0  0  0
   -1.5333    0.7567    1.8117 C   0  0  0  0  0  0  0  0  0  0  0  0
   -1.9012   -0.2849    2.8263 C   0  0  0  0  0  0  0  0  0  0  0  0
   -1.3221   -0.2506    4.0894 C   0  0  0  0  0  0  0  0  0  0  0  0
   -1.6365   -1.2084    5.0563 C   0  0  0  0  0  0  0  0  0  0  0  0
   -2.5377   -2.2267    4.7504 C   0  0  0  0  0  0  0  0  0  0  0  0
   -3.1396   -2.2614    3.5011 C   0  0  0  0  0  0  0  0  0  0  0  0
   -2.8410   -1.2878    2.5624 C   0  0  0  0  0  0  0  0  0  0  0  0
   -0.6650    2.4295   -0.3094 H   0  0  0  0  0  0  0  0  0  0  0  0
    1.2620    1.3821   -1.3500 H   0  0  0  0  0  0  0  0  0  0  0  0
    2.1900   -0.6094   -0.1385 H   0  0  0  0  0  0  0  0  0  0  0  0
    0.3167   -3.6471    0.0237 H   0  0  0  0  0  0  0  0  0  0  0  0
    1.2636   -3.3064   -2.2141 H   0  0  0  0  0  0  0  0  0  0  0  0
    2.4775   -4.0268   -1.1829 H   0  0  0  0  0  0  0  0  0  0  0  0
    3.6926   -2.6074   -2.5515 H   0  0  0  0  0  0  0  0  0  0  0  0
    3.6928   -1.7671   -1.0343 H   0  0  0  0  0  0  0  0  0  0  0  0
    1.4708   -0.7172   -2.6265 H   0  0  0  0  0  0  0  0  0  0  0  0
    2.7012   -1.0431   -3.7314 H   0  0  0  0  0  0  0  0  0  0  0  0
    2.5584    1.3713   -2.8661 H   0  0  0  0  0  0  0  0  0  0  0  0
    4.0625    0.6196   -3.1813 H   0  0  0  0  0  0  0  0  0  0  0  0
    4.6540    1.8333   -1.5211 H   0  0  0  0  0  0  0  0  0  0  0  0
    4.4427    0.3905   -0.5872 H   0  0  0  0  0  0  0  0  0  0  0  0
    2.3839    2.7177   -0.5403 H   0  0  0  0  0  0  0  0  0  0  0  0
    3.9137    2.9511    0.0814 H   0  0  0  0  0  0  0  0  0  0  0  0
    1.7150    2.0416    1.5673 H   0  0  0  0  0  0  0  0  0  0  0  0
    3.3086    2.4576    2.0256 H   0  0  0  0  0  0  0  0  0  0  0  0
    3.4805    0.6163    3.0632 H   0  0  0  0  0  0  0  0  0  0  0  0
    3.7817   -0.2377    1.5737 H   0  0  0  0  0  0  0  0  0  0  0  0
    0.8962   -0.1772    2.0639 H   0  0  0  0  0  0  0  0  0  0  0  0
    1.6103   -0.2878    3.6005 H   0  0  0  0  0  0  0  0  0  0  0  0
    0.8027   -2.4179    2.8861 H   0  0  0  0  0  0  0  0  0  0  0  0
    2.5104   -2.4420    3.2319 H   0  0  0  0  0  0  0  0  0  0  0  0
    1.9971   -3.9721    1.5019 H   0  0  0  0  0  0  0  0  0  0  0  0
    3.0524   -2.7489    0.8892 H   0  0  0  0  0  0  0  0  0  0  0  0
   -2.2013   -2.5539   -1.3684 H   0  0  0  0  0  0  0  0  0  0  0  0
   -4.1450   -0.7478   -1.4869 H   0  0  0  0  0  0  0  0  0  0  0  0
   -3.4219    1.4490   -0.3245 H   0  0  0  0  0  0  0  0  0  0  0  0
   -2.2070    1.6053    1.9493 H   0  0  0  0  0  0  0  0  0  0  0  0
   -0.5568    1.1691    2.0897 H   0  0  0  0  0  0  0  0  0  0  0  0
   -0.6102    0.5370    4.3603 H   0  0  0  0  0  0  0  0  0  0  0  0
   -1.1719   -1.1769    6.0412 H   0  0  0  0  0  0  0  0  0  0  0  0
   -2.7760   -2.9894    5.4825 H   0  0  0  0  0  0  0  0  0  0  0  0
   -3.8440   -3.0420    3.2418 H   0  0  0  0  0  0  0  0  0  0  0  0
   -3.3516   -1.3327    1.6086 H   0  0  0  0  0  0  0  0  0  0  0  0
  1  2  1  0  0  0  0
  1 21  2  0  0  0  0
  1 29  1  0  0  0  0
  2  3  1  0  0  0  0
  2 30  1  0  0  0  0
  3  4  2  0  0  0  0
  3 31  1  0  0  0  0
  4  5  1  0  0  0  0
  4 17  1  0  0  0  0
  5  6  1  0  0  0  0
  5 16  1  0  0  0  0
  5 32  1  0  0  0  0
  6  7  1  0  0  0  0
  6 33  1  0  0  0  0
  6 34  1  0  0  0  0
  7  8  1  0  0  0  0
  7 35  1  0  0  0  0
  7 36  1  0  0  0  0
  8  9  1  0  0  0  0
  8 37  1  0  0  0  0
  8 38  1  0  0  0  0
  9 10  1  0  0  0  0
  9 39  1  0  0  0  0
  9 40  1  0  0  0  0
 10 11  1  0  0  0  0
 10 41  1  0  0  0  0
 10 42  1  0  0  0  0
 11 12  1  0  0  0  0
 11 43  1  0  0  0  0
 11 44  1  0  0  0  0
 12 13  1  0  0  0  0
 12 45  1  0  0  0  0
 12 46  1  0  0  0  0
 13 14  1  0  0  0  0
 13 47  1  0  0  0  0
 13 48  1  0  0  0  0
 14 15  1  0  0  0  0
 14 49  1  0  0  0  0
 14 50  1  0  0  0  0
 15 16  1  0  0  0  0
 15 51  1  0  0  0  0
 15 52  1  0  0  0  0
 16 53  1  0  0  0  0
 16 54  1  0  0  0  0
 17 18  2  0  0  0  0
 17 21  1  0  0  0  0
 18 19  1  0  0  0  0
 18 55  1  0  0  0  0
 19 20  2  0  0  0  0
 19 56  1  0  0  0  0
 20 21  1  0  0  0  0
 20 57  1  0  0  0  0
 21 22  1  0  0  0  0
 22 23  1  0  0  0  0
 22 58  1  0  0  0  0
 22 59  1  0  0  0  0
 23 24  1  0  0  0  0
 23 28  2  0  0  0  0
 24 25  2  0  0  0  0
 24 60  1  0  0  0  0
 25 26  1  0  0  0  0
 25 61  1  0  0  0  0
 26 27  2  0  0  0  0
 26 62  1  0  0  0  0
 27 28  1  0  0  0  0
 27 63  1  0  0  0  0
 28 64  1  0  0  0  0
M  END
$$$$
