
 OpenBabel04232216563D

164164  0  0  1  0  0  0  0  0999 V2000
    1.2585   -0.0633   -0.1558 C   0  0  0  0  0  0  0  0  0  0  0  0
    2.7005   -0.0430   -0.1051 N   0  0  0  0  0  0  0  0  0  0  0  0
    3.5266   -1.1027    0.1828 C   0  0  0  0  0  0  0  0  0  0  0  0
    4.7293   -0.6991    0.6009 C   0  0  0  0  0  0  0  0  0  0  0  0
    4.7397    0.7988    0.7138 C   0  0  0  0  0  0  0  0  0  0  0  0
    3.4454    1.2216   -0.0389 C   0  0  3  0  0  0  0  0  0  0  0  0
    3.7347    1.6994   -1.4705 C   0  0  0  0  0  0  0  0  0  0  0  0
    4.6645    2.9074   -1.5067 C   0  0  0  0  0  0  0  0  0  0  0  0
    4.9298    3.3460   -2.9375 C   0  0  0  0  0  0  0  0  0  0  0  0
    5.8615    4.5482   -2.9435 C   0  0  0  0  0  0  0  0  0  0  0  0
    6.1314    4.9972   -4.3683 C   0  0  0  0  0  0  0  0  0  0  0  0
    7.0612    6.1980   -4.3703 C   0  0  0  0  0  0  0  0  0  0  0  0
    7.3261    6.6441   -5.7968 C   0  0  0  0  0  0  0  0  0  0  0  0
    8.2549    7.8441   -5.8022 C   0  0  0  0  0  0  0  0  0  0  0  0
    8.5173    8.2872   -7.2295 C   0  0  0  0  0  0  0  0  0  0  0  0
    9.4458    9.4868   -7.2352 C   0  0  0  0  0  0  0  0  0  0  0  0
    9.7076    9.9293   -8.6623 C   0  0  0  0  0  0  0  0  0  0  0  0
   10.6360   11.1288   -8.6675 C   0  0  0  0  0  0  0  0  0  0  0  0
   10.8962   11.5723  -10.0944 C   0  0  0  0  0  0  0  0  0  0  0  0
   11.8245   12.7717  -10.0994 C   0  0  0  0  0  0  0  0  0  0  0  0
   12.0845   13.2151  -11.5263 C   0  0  0  0  0  0  0  0  0  0  0  0
   13.0128   14.4145  -11.5313 C   0  0  0  0  0  0  0  0  0  0  0  0
   13.2729   14.8579  -12.9581 C   0  0  0  0  0  0  0  0  0  0  0  0
   14.2012   16.0573  -12.9631 C   0  0  0  0  0  0  0  0  0  0  0  0
   14.4613   16.5007  -14.3900 C   0  0  0  0  0  0  0  0  0  0  0  0
   15.3896   17.7001  -14.3949 C   0  0  0  0  0  0  0  0  0  0  0  0
   15.6497   18.1435  -15.8218 C   0  0  0  0  0  0  0  0  0  0  0  0
   16.5780   19.3428  -15.8267 C   0  0  0  0  0  0  0  0  0  0  0  0
   16.8396   19.7850  -17.2537 C   0  0  0  0  0  0  0  0  0  0  0  0
   17.7678   20.9842  -17.2585 C   0  0  0  0  0  0  0  0  0  0  0  0
   18.0277   21.4274  -18.6852 C   0  0  0  0  0  0  0  0  0  0  0  0
   18.9558   22.6264  -18.6895 C   0  0  0  0  0  0  0  0  0  0  0  0
   19.2168   23.0679  -20.1160 C   0  0  0  0  0  0  0  0  0  0  0  0
   20.1445   24.2663  -20.1192 C   0  0  0  0  0  0  0  0  0  0  0  0
   20.4025   24.7069  -21.5452 C   0  0  0  0  0  0  0  0  0  0  0  0
   21.3308   25.9028  -21.5480 C   0  0  0  0  0  0  0  0  0  0  0  0
   21.5829   26.3392  -22.9744 C   0  0  0  0  0  0  0  0  0  0  0  0
   22.5089   27.5321  -22.9759 C   0  0  0  0  0  0  0  0  0  0  0  0
   22.7577   27.9643  -24.4014 C   0  0  0  0  0  0  0  0  0  0  0  0
   23.6792   29.1495  -24.3776 C   0  0  0  0  0  0  0  0  0  0  0  0
   23.9436   29.5998  -25.7850 C   0  0  0  0  0  0  0  0  0  0  0  0
   24.8648   30.7759  -25.6988 C   0  0  0  0  0  0  0  0  0  0  0  0
   25.1147   31.1436  -27.0054 O   0  0  0  0  0  0  0  0  0  0  0  0
   25.9634   32.2690  -27.0149 C   0  0  0  0  0  0  0  0  0  0  0  0
   26.1749   32.6423  -28.3491 O   0  0  0  0  0  0  0  0  0  0  0  0
   24.9165   32.9352  -28.9031 C   0  0  0  0  0  0  0  0  0  0  0  0
   25.1487   33.2587  -30.2287 O   0  0  0  0  0  0  0  0  0  0  0  0
   23.8441   33.5473  -30.6666 O   0  0  0  0  0  0  0  0  0  0  0  0
   23.9303   33.9019  -32.0019 O   0  0  0  0  0  0  0  0  0  0  0  0
   22.6472   34.1853  -32.4203 O   0  0  0  0  0  0  0  0  0  0  0  0
   22.7387   34.5400  -33.7590 O   0  0  0  0  0  0  0  0  0  0  0  0
   21.4554   34.8304  -34.1994 O   0  0  0  0  0  0  0  0  0  0  0  0
   21.5884   35.1764  -35.5257 O   0  0  0  0  0  0  0  0  0  0  0  0
   20.3205   35.4691  -35.9895 O   0  0  0  0  0  0  0  0  0  0  0  0
   20.4749   35.8146  -37.3203 O   0  0  0  0  0  0  0  0  0  0  0  0
   19.2122   36.1089  -37.7836 O   0  0  0  0  0  0  0  0  0  0  0  0
   19.3702   36.4511  -39.1116 O   0  0  0  0  0  0  0  0  0  0  0  0
   18.1072   36.7440  -39.5758 O   0  0  0  0  0  0  0  0  0  0  0  0
   18.2667   37.0872  -40.8995 O   0  0  0  0  0  0  0  0  0  0  0  0
   17.0060   37.3798  -41.3615 O   0  0  0  0  0  0  0  0  0  0  0  0
   17.1595   37.7236  -42.6751 O   0  0  0  0  0  0  0  0  0  0  0  0
   15.8783   38.0161  -43.1372 O   0  0  0  0  0  0  0  0  0  0  0  0
   16.0166   38.3561  -44.4416 O   0  0  0  0  0  0  0  0  0  0  0  0
   14.7414   38.6473  -44.8913 O   0  0  0  0  0  0  0  0  0  0  0  0
   14.8638   38.9990  -46.2214 O   0  0  0  0  0  0  0  0  0  0  0  0
   13.5921   39.2890  -46.6613 O   0  0  0  0  0  0  0  0  0  0  0  0
   13.7304   39.6418  -47.9996 O   0  0  0  0  0  0  0  0  0  0  0  0
   12.4606   39.9337  -48.4522 O   0  0  0  0  0  0  0  0  0  0  0  0
   12.6047   40.2851  -49.7887 O   0  0  0  0  0  0  0  0  0  0  0  0
   11.3342   40.5827  -50.2605 O   0  0  0  0  0  0  0  0  0  0  0  0
   11.4739   40.9356  -51.6002 O   0  0  0  0  0  0  0  0  0  0  0  0
   10.1923   41.2358  -52.0761 O   0  0  0  0  0  0  0  0  0  0  0  0
   10.3186   41.5914  -53.4197 O   0  0  0  0  0  0  0  0  0  0  0  0
    9.0312   41.8941  -53.9008 O   0  0  0  0  0  0  0  0  0  0  0  0
    9.1543   42.2549  -55.2612 O   0  0  0  0  0  0  0  0  0  0  0  0
    7.8710   42.5495  -55.7623 O   0  0  0  0  0  0  0  0  0  0  0  0
    7.9923   42.9200  -57.1421 O   0  0  0  0  0  0  0  0  0  0  0  0
    6.6954   43.2381  -57.6474 O   0  0  0  0  0  0  0  0  0  0  0  0
    6.1283   44.3454  -56.9028 O   0  0  0  0  0  0  0  0  0  0  0  0
    0.8737   -1.0875   -0.1011 H   0  0  0  0  0  0  0  0  0  0  0  0
    0.8983    0.3835   -1.0871 H   0  0  0  0  0  0  0  0  0  0  0  0
    0.8360    0.4973    0.6852 H   0  0  0  0  0  0  0  0  0  0  0  0
    3.1793   -2.1159    0.0521 H   0  0  0  0  0  0  0  0  0  0  0  0
    5.5614   -1.3336    0.8678 H   0  0  0  0  0  0  0  0  0  0  0  0
    5.6575    1.2153    0.2999 H   0  0  0  0  0  0  0  0  0  0  0  0
    4.6811    1.0888    1.7687 H   0  0  0  0  0  0  0  0  0  0  0  0
    2.9007    1.9920    0.5220 H   0  0  0  0  0  0  0  0  0  0  0  0
    2.7907    1.9543   -1.9698 H   0  0  0  0  0  0  0  0  0  0  0  0
    4.1760    0.8821   -2.0575 H   0  0  0  0  0  0  0  0  0  0  0  0
    5.6295    2.6750   -1.0458 H   0  0  0  0  0  0  0  0  0  0  0  0
    4.2268    3.7306   -0.9312 H   0  0  0  0  0  0  0  0  0  0  0  0
    3.9852    3.5983   -3.4330 H   0  0  0  0  0  0  0  0  0  0  0  0
    5.3867    2.5239   -3.5026 H   0  0  0  0  0  0  0  0  0  0  0  0
    6.8080    4.2909   -2.4513 H   0  0  0  0  0  0  0  0  0  0  0  0
    5.4134    5.3701   -2.3718 H   0  0  0  0  0  0  0  0  0  0  0  0
    5.1873    5.2568   -4.8623 H   0  0  0  0  0  0  0  0  0  0  0  0
    6.5825    4.1767   -4.9397 H   0  0  0  0  0  0  0  0  0  0  0  0
    8.0073    5.9408   -3.8780 H   0  0  0  0  0  0  0  0  0  0  0  0
    6.6121    7.0204   -3.7998 H   0  0  0  0  0  0  0  0  0  0  0  0
    6.3804    6.9027   -6.2889 H   0  0  0  0  0  0  0  0  0  0  0  0
    7.7751    5.8224   -6.3682 H   0  0  0  0  0  0  0  0  0  0  0  0
    9.2015    7.5870   -5.3109 H   0  0  0  0  0  0  0  0  0  0  0  0
    7.8064    8.6671   -5.2322 H   0  0  0  0  0  0  0  0  0  0  0  0
    7.5711    8.5448   -7.7212 H   0  0  0  0  0  0  0  0  0  0  0  0
    8.9660    7.4647   -7.8002 H   0  0  0  0  0  0  0  0  0  0  0  0
   10.3923    9.2297   -6.7440 H   0  0  0  0  0  0  0  0  0  0  0  0
    8.9973   10.3098   -6.6651 H   0  0  0  0  0  0  0  0  0  0  0  0
    8.7613   10.1868   -9.1538 H   0  0  0  0  0  0  0  0  0  0  0  0
   10.1564    9.1067   -9.2328 H   0  0  0  0  0  0  0  0  0  0  0  0
   11.5830   10.8710   -8.1774 H   0  0  0  0  0  0  0  0  0  0  0  0
   10.1881   11.9511   -8.0961 H   0  0  0  0  0  0  0  0  0  0  0  0
    9.9492   11.8302  -10.5846 H   0  0  0  0  0  0  0  0  0  0  0  0
   11.3442   10.7501  -10.6660 H   0  0  0  0  0  0  0  0  0  0  0  0
   12.7714   12.5139   -9.6093 H   0  0  0  0  0  0  0  0  0  0  0  0
   11.3765   13.5939   -9.5279 H   0  0  0  0  0  0  0  0  0  0  0  0
   11.1376   13.4729  -12.0164 H   0  0  0  0  0  0  0  0  0  0  0  0
   12.5325   12.3929  -12.0978 H   0  0  0  0  0  0  0  0  0  0  0  0
   13.9598   14.1567  -11.0411 H   0  0  0  0  0  0  0  0  0  0  0  0
   12.5648   15.2367  -10.9597 H   0  0  0  0  0  0  0  0  0  0  0  0
   12.3259   15.1157  -13.4483 H   0  0  0  0  0  0  0  0  0  0  0  0
   13.7209   14.0357  -13.5297 H   0  0  0  0  0  0  0  0  0  0  0  0
   15.1482   15.7994  -12.4730 H   0  0  0  0  0  0  0  0  0  0  0  0
   13.7532   16.8795  -12.3916 H   0  0  0  0  0  0  0  0  0  0  0  0
   13.5143   16.7585  -14.8801 H   0  0  0  0  0  0  0  0  0  0  0  0
   14.9093   15.6785  -14.9615 H   0  0  0  0  0  0  0  0  0  0  0  0
   16.3365   17.4423  -13.9048 H   0  0  0  0  0  0  0  0  0  0  0  0
   14.9416   18.5223  -13.8234 H   0  0  0  0  0  0  0  0  0  0  0  0
   14.7027   18.4013  -16.3120 H   0  0  0  0  0  0  0  0  0  0  0  0
   16.0977   17.3213  -16.3933 H   0  0  0  0  0  0  0  0  0  0  0  0
   17.5244   19.0855  -15.3354 H   0  0  0  0  0  0  0  0  0  0  0  0
   16.1293   20.1656  -15.2564 H   0  0  0  0  0  0  0  0  0  0  0  0
   15.8932   20.0424  -17.7451 H   0  0  0  0  0  0  0  0  0  0  0  0
   17.2883   18.9624  -17.8241 H   0  0  0  0  0  0  0  0  0  0  0  0
   18.7148   20.7265  -16.7684 H   0  0  0  0  0  0  0  0  0  0  0  0
   17.3199   21.8066  -16.6871 H   0  0  0  0  0  0  0  0  0  0  0  0
   17.0809   21.6855  -19.1756 H   0  0  0  0  0  0  0  0  0  0  0  0
   18.4759   20.6054  -19.2569 H   0  0  0  0  0  0  0  0  0  0  0  0
   19.9024   22.3693  -18.1984 H   0  0  0  0  0  0  0  0  0  0  0  0
   18.5073   23.4494  -18.1195 H   0  0  0  0  0  0  0  0  0  0  0  0
   18.2708   23.3258  -20.6079 H   0  0  0  0  0  0  0  0  0  0  0  0
   19.6659   22.2457  -20.6868 H   0  0  0  0  0  0  0  0  0  0  0  0
   21.0921   24.0092  -19.6299 H   0  0  0  0  0  0  0  0  0  0  0  0
   19.6971   25.0894  -19.5486 H   0  0  0  0  0  0  0  0  0  0  0  0
   19.4564   24.9672  -22.0357 H   0  0  0  0  0  0  0  0  0  0  0  0
   20.8500   23.8853  -22.1180 H   0  0  0  0  0  0  0  0  0  0  0  0
   22.2798   25.6454  -21.0616 H   0  0  0  0  0  0  0  0  0  0  0  0
   20.8863   26.7274  -20.9769 H   0  0  0  0  0  0  0  0  0  0  0  0
   20.6365   26.6008  -23.4635 H   0  0  0  0  0  0  0  0  0  0  0  0
   22.0305   25.5185  -23.5482 H   0  0  0  0  0  0  0  0  0  0  0  0
   23.4592   27.2765  -22.4902 H   0  0  0  0  0  0  0  0  0  0  0  0
   22.0659   28.3583  -22.4055 H   0  0  0  0  0  0  0  0  0  0  0  0
   21.8138   28.2303  -24.8928 H   0  0  0  0  0  0  0  0  0  0  0  0
   23.2090   27.1472  -24.9776 H   0  0  0  0  0  0  0  0  0  0  0  0
   24.6278   28.8911  -23.8899 H   0  0  0  0  0  0  0  0  0  0  0  0
   23.2342   29.9731  -23.8051 H   0  0  0  0  0  0  0  0  0  0  0  0
   23.0186   29.8819  -26.3064 H   0  0  0  0  0  0  0  0  0  0  0  0
   24.4028   28.8066  -26.3903 H   0  0  0  0  0  0  0  0  0  0  0  0
   25.8134   30.5022  -25.2208 H   0  0  0  0  0  0  0  0  0  0  0  0
   24.4015   31.6026  -25.1429 H   0  0  0  0  0  0  0  0  0  0  0  0
   26.9205   32.0139  -26.5816 H   0  0  0  0  0  0  0  0  0  0  0  0
   25.5057   33.1132  -26.4800 H   0  0  0  0  0  0  0  0  0  0  0  0
   24.4421   33.7847  -28.3807 H   0  0  0  0  0  0  0  0  0  0  0  0
   24.2097   32.0761  -28.8687 H   0  0  0  0  0  0  0  0  0  0  0  0
    5.3071   44.3624  -57.3940 H   0  0  0  0  0  0  0  0  0  0  0  0
  1  2  1  0  0  0  0
  1 80  1  0  0  0  0
  1 81  1  0  0  0  0
  1 82  1  0  0  0  0
  2  3  1  0  0  0  0
  2  6  1  0  0  0  0
  3  4  2  0  0  0  0
  3 83  1  0  0  0  0
  4  5  1  0  0  0  0
  4 84  1  0  0  0  0
  5  6  1  0  0  0  0
  5 85  1  0  0  0  0
  5 86  1  0  0  0  0
  6  7  1  0  0  0  0
  6 87  1  0  0  0  0
  7  8  1  0  0  0  0
  7 88  1  0  0  0  0
  7 89  1  0  0  0  0
  8  9  1  0  0  0  0
  8 90  1  0  0  0  0
  8 91  1  0  0  0  0
  9 10  1  0  0  0  0
  9 92  1  0  0  0  0
  9 93  1  0  0  0  0
 10 11  1  0  0  0  0
 10 94  1  0  0  0  0
 10 95  1  0  0  0  0
 11 12  1  0  0  0  0
 11 96  1  0  0  0  0
 11 97  1  0  0  0  0
 12 13  1  0  0  0  0
 12 98  1  0  0  0  0
 12 99  1  0  0  0  0
 13 14  1  0  0  0  0
 13100  1  0  0  0  0
 13101  1  0  0  0  0
 14 15  1  0  0  0  0
 14102  1  0  0  0  0
 14103  1  0  0  0  0
 15 16  1  0  0  0  0
 15104  1  0  0  0  0
 15105  1  0  0  0  0
 16 17  1  0  0  0  0
 16106  1  0  0  0  0
 16107  1  0  0  0  0
 17 18  1  0  0  0  0
 17108  1  0  0  0  0
 17109  1  0  0  0  0
 18 19  1  0  0  0  0
 18110  1  0  0  0  0
 18111  1  0  0  0  0
 19 20  1  0  0  0  0
 19112  1  0  0  0  0
 19113  1  0  0  0  0
 20 21  1  0  0  0  0
 20114  1  0  0  0  0
 20115  1  0  0  0  0
 21 22  1  0  0  0  0
 21116  1  0  0  0  0
 21117  1  0  0  0  0
 22 23  1  0  0  0  0
 22118  1  0  0  0  0
 22119  1  0  0  0  0
 23 24  1  0  0  0  0
 23120  1  0  0  0  0
 23121  1  0  0  0  0
 24 25  1  0  0  0  0
 24122  1  0  0  0  0
 24123  1  0  0  0  0
 25 26  1  0  0  0  0
 25124  1  0  0  0  0
 25125  1  0  0  0  0
 26 27  1  0  0  0  0
 26126  1  0  0  0  0
 26127  1  0  0  0  0
 27 28  1  0  0  0  0
 27128  1  0  0  0  0
 27129  1  0  0  0  0
 28 29  1  0  0  0  0
 28130  1  0  0  0  0
 28131  1  0  0  0  0
 29 30  1  0  0  0  0
 29132  1  0  0  0  0
 29133  1  0  0  0  0
 30 31  1  0  0  0  0
 30134  1  0  0  0  0
 30135  1  0  0  0  0
 31 32  1  0  0  0  0
 31136  1  0  0  0  0
 31137  1  0  0  0  0
 32 33  1  0  0  0  0
 32138  1  0  0  0  0
 32139  1  0  0  0  0
 33 34  1  0  0  0  0
 33140  1  0  0  0  0
 33141  1  0  0  0  0
 34 35  1  0  0  0  0
 34142  1  0  0  0  0
 34143  1  0  0  0  0
 35 36  1  0  0  0  0
 35144  1  0  0  0  0
 35145  1  0  0  0  0
 36 37  1  0  0  0  0
 36146  1  0  0  0  0
 36147  1  0  0  0  0
 37 38  1  0  0  0  0
 37148  1  0  0  0  0
 37149  1  0  0  0  0
 38 39  1  0  0  0  0
 38150  1  0  0  0  0
 38151  1  0  0  0  0
 39 40  1  0  0  0  0
 39152  1  0  0  0  0
 39153  1  0  0  0  0
 40 41  1  0  0  0  0
 40154  1  0  0  0  0
 40155  1  0  0  0  0
 41 42  1  0  0  0  0
 41156  1  0  0  0  0
 41157  1  0  0  0  0
 42 43  1  0  0  0  0
 42158  1  0  0  0  0
 42159  1  0  0  0  0
 43 44  1  0  0  0  0
 44 45  1  0  0  0  0
 44160  1  0  0  0  0
 44161  1  0  0  0  0
 45 46  1  0  0  0  0
 46 47  1  0  0  0  0
 46162  1  0  0  0  0
 46163  1  0  0  0  0
 47 48  1  0  0  0  0
 48 49  1  0  0  0  0
 49 50  1  0  0  0  0
 50 51  1  0  0  0  0
 51 52  1  0  0  0  0
 52 53  1  0  0  0  0
 53 54  1  0  0  0  0
 54 55  1  0  0  0  0
 55 56  1  0  0  0  0
 56 57  1  0  0  0  0
 57 58  1  0  0  0  0
 58 59  1  0  0  0  0
 59 60  1  0  0  0  0
 60 61  1  0  0  0  0
 61 62  1  0  0  0  0
 62 63  1  0  0  0  0
 63 64  1  0  0  0  0
 64 65  1  0  0  0  0
 65 66  1  0  0  0  0
 66 67  1  0  0  0  0
 67 68  1  0  0  0  0
 68 69  1  0  0  0  0
 69 70  1  0  0  0  0
 70 71  1  0  0  0  0
 71 72  1  0  0  0  0
 72 73  1  0  0  0  0
 73 74  1  0  0  0  0
 74 75  1  0  0  0  0
 75 76  1  0  0  0  0
 76 77  1  0  0  0  0
 77 78  1  0  0  0  0
 78 79  1  0  0  0  0
 79164  1  0  0  0  0
M  END
$$$$
