
 OpenBabel04232216513D

141141  0  0  1  0  0  0  0  0999 V2000
 -153.6119  296.5797 -206.6825 C   0  0  0  0  0  0  0  0  0  0  0  0
 -153.1247  292.4604 -206.5795 C   0  0  0  0  0  0  0  0  0  0  0  0
 -151.9933  287.6588 -206.6600 C   0  0  3  0  0  0  0  0  0  0  0  0
 -152.6001  292.4893 -207.0595 C   0  0  0  0  0  0  0  0  0  0  0  0
 -153.1767  296.1742 -207.7064 C   0  0  0  0  0  0  0  0  0  0  0  0
 -153.7384  300.1854 -207.8524 C   0  0  0  0  0  0  0  0  0  0  0  0
 -154.1232  303.4284 -207.8417 C   0  0  0  0  0  0  0  0  0  0  0  0
 -153.8954  306.5735 -207.5519 C   0  0  0  0  0  0  0  0  0  0  0  0
 -154.2047  306.9065 -205.8496 C   0  0  0  0  0  0  0  0  0  0  0  0
 -154.3099  304.8926 -205.9591 C   0  0  0  0  0  0  0  0  0  0  0  0
 -155.1822  303.4479 -206.6714 C   0  0  0  0  0  0  0  0  0  0  0  0
 -152.9295  303.6168 -207.2201 C   0  0  0  0  0  0  0  0  0  0  0  0
 -152.6867  302.6032 -206.4402 C   0  0  0  0  0  0  0  0  0  0  0  0
 -152.5434  301.4520 -206.8779 C   0  0  0  0  0  0  0  0  0  0  0  0
 -152.2426  300.2167 -207.5590 C   0  0  0  0  0  0  0  0  0  0  0  0
 -152.5618  299.1734 -206.1920 C   0  0  0  0  0  0  0  0  0  0  0  0
 -153.2284  297.9701 -205.5062 C   0  0  0  0  0  0  0  0  0  0  0  0
 -152.1256  296.8268 -206.0186 C   0  0  0  0  0  0  0  0  0  0  0  0
 -152.8283  295.4703 -205.3945 C   0  0  0  0  0  0  0  0  0  0  0  0
 -151.8375  294.3227 -205.8361 C   0  0  0  0  0  0  0  0  0  0  0  0
 -152.4957  293.1103 -205.3492 C   0  0  0  0  0  0  0  0  0  0  0  0
 -151.6386  291.8305 -205.8036 C   0  0  0  0  0  0  0  0  0  0  0  0
 -152.1311  290.6563 -205.3276 C   0  0  0  0  0  0  0  0  0  0  0  0
 -151.1970  289.3007 -205.6261 C   0  0  0  0  0  0  0  0  0  0  0  0
 -151.7400  288.1452 -205.1522 C   0  0  0  0  0  0  0  0  0  0  0  0
 -151.0188  286.8928 -205.6381 C   0  0  0  0  0  0  0  0  0  0  0  0
 -151.3277  285.7816 -205.0437 C   0  0  0  0  0  0  0  0  0  0  0  0
 -150.3008  284.4767 -205.2249 C   0  0  0  0  0  0  0  0  0  0  0  0
 -149.8608  283.2895 -205.0619 C   0  0  0  0  0  0  0  0  0  0  0  0
 -149.7945  281.8181 -205.0550 C   0  0  0  0  0  0  0  0  0  0  0  0
 -150.5093  280.8032 -204.7082 C   0  0  0  0  0  0  0  0  0  0  0  0
 -149.7493  279.6353 -205.0198 C   0  0  0  0  0  0  0  0  0  0  0  0
 -150.0301  278.5150 -204.3002 C   0  0  0  0  0  0  0  0  0  0  0  0
 -149.1346  277.3385 -204.5205 C   0  0  0  0  0  0  0  0  0  0  0  0
 -149.6862  276.0302 -204.1346 C   0  0  0  0  0  0  0  0  0  0  0  0
 -148.7046  274.9952 -204.2844 C   0  0  0  0  0  0  0  0  0  0  0  0
 -149.1510  273.6305 -203.8904 C   0  0  0  0  0  0  0  0  0  0  0  0
 -148.2592  272.3287 -204.0970 C   0  0  0  0  0  0  0  0  0  0  0  0
 -148.8419  271.1213 -203.5293 C   0  0  0  0  0  0  0  0  0  0  0  0
 -147.8778  269.9121 -203.9218 C   0  0  0  0  0  0  0  0  0  0  0  0
 -148.3392  268.6975 -203.3773 C   0  0  0  0  0  0  0  0  0  0  0  0
 -147.5719  267.4630 -203.6936 C   0  0  0  0  0  0  0  0  0  0  0  0
 -146.6377  267.4590 -204.4014 C   0  0  0  0  0  0  0  0  0  0  0  0
 -146.5375  265.5068 -204.0858 C   0  0  0  0  0  0  0  0  0  0  0  0
 -145.8990  263.9053 -204.5118 C   0  0  0  0  0  0  0  0  0  0  0  0
 -146.3336  262.6587 -203.3258 C   0  0  0  0  0  0  0  0  0  0  0  0
 -146.9563  261.3792 -202.7909 C   0  0  0  0  0  0  0  0  0  0  0  0
 -146.0811  260.3282 -203.0363 C   0  0  0  0  0  0  0  0  0  0  0  0
 -146.5109  258.9878 -202.4713 C   0  0  0  0  0  0  0  0  0  0  0  0
 -145.6152  257.8696 -202.7787 C   0  0  0  0  0  0  0  0  0  0  0  0
 -146.1250  256.4806 -202.2263 C   0  0  0  0  0  0  0  0  0  0  0  0
 -145.1563  255.1851 -202.5606 C   0  0  0  0  0  0  0  0  0  0  0  0
 -145.5836  254.0361 -201.9416 C   0  0  0  0  0  0  0  0  0  0  0  0
 -144.6799  252.8389 -202.2882 C   0  0  0  0  0  0  0  0  0  0  0  0
 -145.1789  251.6683 -201.5955 C   0  0  0  0  0  0  0  0  0  0  0  0
 -144.3225  250.5577 -201.7638 C   0  0  0  0  0  0  0  0  0  0  0  0
 -144.8535  249.4796 -201.1591 C   0  0  0  0  0  0  0  0  0  0  0  0
 -143.5673  248.2513 -201.2894 C   0  0  0  0  0  0  0  0  0  0  0  0
 -144.4209  246.8411 -201.0161 C   0  0  0  0  0  0  0  0  0  0  0  0
 -144.8321  245.9920 -200.7361 C   0  0  0  0  0  0  0  0  0  0  0  0
 -145.1199  248.3472 -202.0229 C   0  0  0  0  0  0  0  0  0  0  0  0
 -145.7595  251.9390 -202.9371 C   0  0  0  0  0  0  0  0  0  0  0  0
 -146.4655  255.5868 -203.4555 C   0  0  0  0  0  0  0  0  0  0  0  0
 -147.2684  259.9311 -203.9561 C   0  0  0  0  0  0  0  0  0  0  0  0
 -147.9845  264.0359 -204.3864 C   0  0  0  0  0  0  0  0  0  0  0  0
 -148.7896  268.8042 -204.9189 C   0  0  0  0  0  0  0  0  0  0  0  0
 -149.5271  273.0349 -205.4745 C   0  0  0  0  0  0  0  0  0  0  0  0
 -150.4369  278.2762 -206.0551 C   0  0  0  0  0  0  0  0  0  0  0  0
 -151.1078  282.5856 -206.4923 C   0  0  0  0  0  0  0  0  0  0  0  0
 -154.0014  299.2948 -206.8345 H   0  0  0  0  0  0  0  0  0  0  0  0
 -154.0264  299.2905 -206.8510 H   0  0  0  0  0  0  0  0  0  0  0  0
 -153.9804  299.2968 -206.8408 H   0  0  0  0  0  0  0  0  0  0  0  0
 -153.3005  295.0343 -206.7413 H   0  0  0  0  0  0  0  0  0  0  0  0
 -153.2297  295.0456 -206.7301 H   0  0  0  0  0  0  0  0  0  0  0  0
 -152.4633  290.2765 -206.8994 H   0  0  0  0  0  0  0  0  0  0  0  0
 -152.9706  294.9644 -207.7384 H   0  0  0  0  0  0  0  0  0  0  0  0
 -153.6315  298.7055 -207.7554 H   0  0  0  0  0  0  0  0  0  0  0  0
 -154.0359  302.8607 -207.9707 H   0  0  0  0  0  0  0  0  0  0  0  0
 -154.4632  306.1312 -207.7121 H   0  0  0  0  0  0  0  0  0  0  0  0
 -154.0427  308.8724 -208.1274 H   0  0  0  0  0  0  0  0  0  0  0  0
 -155.6505  307.5358 -206.2687 H   0  0  0  0  0  0  0  0  0  0  0  0
 -152.6103  304.9138 -206.1677 H   0  0  0  0  0  0  0  0  0  0  0  0
 -155.6407  303.1218 -205.4037 H   0  0  0  0  0  0  0  0  0  0  0  0
 -152.6762  303.7974 -209.0390 H   0  0  0  0  0  0  0  0  0  0  0  0
 -154.2126  302.6584 -205.9261 H   0  0  0  0  0  0  0  0  0  0  0  0
 -153.4002  301.5129 -206.2071 H   0  0  0  0  0  0  0  0  0  0  0  0
 -153.2910  300.0670 -206.1300 H   0  0  0  0  0  0  0  0  0  0  0  0
 -152.6028  299.9037 -207.1290 H   0  0  0  0  0  0  0  0  0  0  0  0
 -154.3338  297.9500 -205.5148 H   0  0  0  0  0  0  0  0  0  0  0  0
 -151.9480  296.7019 -207.3114 H   0  0  0  0  0  0  0  0  0  0  0  0
 -153.8203  295.5747 -205.2444 H   0  0  0  0  0  0  0  0  0  0  0  0
 -151.7221  293.6353 -206.6442 H   0  0  0  0  0  0  0  0  0  0  0  0
 -153.4758  293.0562 -205.0886 H   0  0  0  0  0  0  0  0  0  0  0  0
 -152.2306  291.0009 -205.8786 H   0  0  0  0  0  0  0  0  0  0  0  0
 -153.0598  290.5961 -204.8609 H   0  0  0  0  0  0  0  0  0  0  0  0
 -150.9386  288.0759 -206.5083 H   0  0  0  0  0  0  0  0  0  0  0  0
 -152.5995  288.1574 -204.6720 H   0  0  0  0  0  0  0  0  0  0  0  0
 -149.9811  286.9815 -205.8117 H   0  0  0  0  0  0  0  0  0  0  0  0
 -152.1730  285.7060 -204.4606 H   0  0  0  0  0  0  0  0  0  0  0  0
 -150.5970  283.7043 -204.8565 H   0  0  0  0  0  0  0  0  0  0  0  0
 -151.4521  283.1992 -204.3792 H   0  0  0  0  0  0  0  0  0  0  0  0
 -149.4549  282.3165 -204.2537 H   0  0  0  0  0  0  0  0  0  0  0  0
 -151.3083  280.8125 -204.0338 H   0  0  0  0  0  0  0  0  0  0  0  0
 -148.6967  279.6135 -205.0955 H   0  0  0  0  0  0  0  0  0  0  0  0
 -150.8915  278.3633 -203.8133 H   0  0  0  0  0  0  0  0  0  0  0  0
 -149.1930  276.4608 -204.0863 H   0  0  0  0  0  0  0  0  0  0  0  0
 -150.5018  275.9033 -203.5832 H   0  0  0  0  0  0  0  0  0  0  0  0
 -147.6234  275.2556 -204.8186 H   0  0  0  0  0  0  0  0  0  0  0  0
 -150.0403  273.4658 -203.3807 H   0  0  0  0  0  0  0  0  0  0  0  0
 -148.7125  271.3441 -204.1714 H   0  0  0  0  0  0  0  0  0  0  0  0
 -149.7021  271.0016 -203.0914 H   0  0  0  0  0  0  0  0  0  0  0  0
 -147.7605  268.9565 -203.6536 H   0  0  0  0  0  0  0  0  0  0  0  0
 -149.2001  268.5625 -202.9370 H   0  0  0  0  0  0  0  0  0  0  0  0
 -146.7842  266.9780 -203.2636 H   0  0  0  0  0  0  0  0  0  0  0  0
 -147.9302  266.8275 -203.4245 H   0  0  0  0  0  0  0  0  0  0  0  0
 -146.6040  264.9146 -204.7981 H   0  0  0  0  0  0  0  0  0  0  0  0
 -146.9568  263.7746 -203.4160 H   0  0  0  0  0  0  0  0  0  0  0  0
 -145.6570  262.5459 -204.0164 H   0  0  0  0  0  0  0  0  0  0  0  0
 -147.8848  261.2255 -202.2969 H   0  0  0  0  0  0  0  0  0  0  0  0
 -145.3753  260.1828 -203.9125 H   0  0  0  0  0  0  0  0  0  0  0  0
 -147.4627  258.7729 -202.0797 H   0  0  0  0  0  0  0  0  0  0  0  0
 -145.5270  256.8585 -202.5865 H   0  0  0  0  0  0  0  0  0  0  0  0
 -147.0545  256.3157 -201.8580 H   0  0  0  0  0  0  0  0  0  0  0  0
 -144.7291  255.1070 -203.6475 H   0  0  0  0  0  0  0  0  0  0  0  0
 -146.6008  253.8724 -201.6454 H   0  0  0  0  0  0  0  0  0  0  0  0
 -143.9114  252.7022 -202.9115 H   0  0  0  0  0  0  0  0  0  0  0  0
 -146.1932  251.4275 -201.4180 H   0  0  0  0  0  0  0  0  0  0  0  0
 -143.8479  250.5460 -202.4455 H   0  0  0  0  0  0  0  0  0  0  0  0
 -145.7919  248.9824 -201.1921 H   0  0  0  0  0  0  0  0  0  0  0  0
 -142.6876  249.1725 -201.4087 H   0  0  0  0  0  0  0  0  0  0  0  0
 -145.4711  246.5373 -201.0045 H   0  0  0  0  0  0  0  0  0  0  0  0
 -144.9823  246.9518 -199.7185 H   0  0  0  0  0  0  0  0  0  0  0  0
 -144.7048  245.6772 -201.2295 H   0  0  0  0  0  0  0  0  0  0  0  0
 -145.0167  249.1592 -202.7221 H   0  0  0  0  0  0  0  0  0  0  0  0
 -145.9073  252.7334 -203.2274 H   0  0  0  0  0  0  0  0  0  0  0  0
 -146.7489  257.1986 -203.7544 H   0  0  0  0  0  0  0  0  0  0  0  0
 -147.4917  261.3163 -204.1822 H   0  0  0  0  0  0  0  0  0  0  0  0
 -148.3133  266.2783 -204.7135 H   0  0  0  0  0  0  0  0  0  0  0  0
 -149.1144  270.7034 -205.1570 H   0  0  0  0  0  0  0  0  0  0  0  0
 -149.9619  276.0333 -205.6836 H   0  0  0  0  0  0  0  0  0  0  0  0
 -151.1305  284.4926 -206.3599 H   0  0  0  0  0  0  0  0  0  0  0  0
  1  2  1  0  0  0  0
  1 70  1  0  0  0  0
  1 71  1  0  0  0  0
  1 72  1  0  0  0  0
  2  3  1  0  0  0  0
  2 73  1  0  0  0  0
  2 74  1  0  0  0  0
  3  4  1  0  0  0  0
  3 69  1  0  0  0  0
  3 75  1  0  0  0  0
  4  5  2  3  0  0  0
  4 76  1  0  0  0  0
  5  6  1  0  0  0  0
  5 77  1  0  0  0  0
  6  7  2  3  0  0  0
  6 78  1  0  0  0  0
  7  8  1  0  0  0  0
  7 79  1  0  0  0  0
  8  9  2  3  0  0  0
  8 80  1  0  0  0  0
  9 10  1  0  0  0  0
  9 81  1  0  0  0  0
 10 11  2  3  0  0  0
 10 82  1  0  0  0  0
 11 12  1  0  0  0  0
 11 83  1  0  0  0  0
 12 13  2  3  0  0  0
 12 84  1  0  0  0  0
 13 14  1  0  0  0  0
 13 85  1  0  0  0  0
 14 15  2  3  0  0  0
 14 86  1  0  0  0  0
 15 16  1  0  0  0  0
 15 87  1  0  0  0  0
 16 17  2  3  0  0  0
 16 88  1  0  0  0  0
 17 18  1  0  0  0  0
 17 89  1  0  0  0  0
 18 19  2  3  0  0  0
 18 90  1  0  0  0  0
 19 20  1  0  0  0  0
 19 91  1  0  0  0  0
 20 21  2  3  0  0  0
 20 92  1  0  0  0  0
 21 22  1  0  0  0  0
 21 93  1  0  0  0  0
 22 23  2  3  0  0  0
 22 94  1  0  0  0  0
 23 24  1  0  0  0  0
 23 95  1  0  0  0  0
 24 25  2  3  0  0  0
 24 96  1  0  0  0  0
 25 26  1  0  0  0  0
 25 97  1  0  0  0  0
 26 27  2  3  0  0  0
 26 98  1  0  0  0  0
 27 28  1  0  0  0  0
 27 99  1  0  0  0  0
 28 29  2  3  0  0  0
 28100  1  0  0  0  0
 29 30  1  0  0  0  0
 29101  1  0  0  0  0
 30 31  2  3  0  0  0
 30102  1  0  0  0  0
 31 32  1  0  0  0  0
 31103  1  0  0  0  0
 32 33  2  3  0  0  0
 32104  1  0  0  0  0
 33 34  1  0  0  0  0
 33105  1  0  0  0  0
 34 35  2  3  0  0  0
 34106  1  0  0  0  0
 35 36  1  0  0  0  0
 35107  1  0  0  0  0
 36 37  2  3  0  0  0
 36108  1  0  0  0  0
 37 38  1  0  0  0  0
 37109  1  0  0  0  0
 38 39  2  3  0  0  0
 38110  1  0  0  0  0
 39 40  1  0  0  0  0
 39111  1  0  0  0  0
 40 41  2  3  0  0  0
 40112  1  0  0  0  0
 41 42  1  0  0  0  0
 41113  1  0  0  0  0
 42 43  2  3  0  0  0
 42114  1  0  0  0  0
 43 44  1  0  0  0  0
 43115  1  0  0  0  0
 44 45  2  3  0  0  0
 44116  1  0  0  0  0
 45 46  1  0  0  0  0
 45117  1  0  0  0  0
 46 47  2  3  0  0  0
 46118  1  0  0  0  0
 47 48  1  0  0  0  0
 47119  1  0  0  0  0
 48 49  2  3  0  0  0
 48120  1  0  0  0  0
 49 50  1  0  0  0  0
 49121  1  0  0  0  0
 50 51  2  3  0  0  0
 50122  1  0  0  0  0
 51 52  1  0  0  0  0
 51123  1  0  0  0  0
 52 53  2  3  0  0  0
 52124  1  0  0  0  0
 53 54  1  0  0  0  0
 53125  1  0  0  0  0
 54 55  2  3  0  0  0
 54126  1  0  0  0  0
 55 56  1  0  0  0  0
 55127  1  0  0  0  0
 56 57  2  3  0  0  0
 56128  1  0  0  0  0
 57 58  1  0  0  0  0
 57129  1  0  0  0  0
 58 59  2  3  0  0  0
 58130  1  0  0  0  0
 59 60  1  0  0  0  0
 59131  1  0  0  0  0
 60 61  2  3  0  0  0
 60132  1  0  0  0  0
 61 62  1  0  0  0  0
 61133  1  0  0  0  0
 62 63  2  3  0  0  0
 62134  1  0  0  0  0
 63 64  1  0  0  0  0
 63135  1  0  0  0  0
 64 65  2  3  0  0  0
 64136  1  0  0  0  0
 65 66  1  0  0  0  0
 65137  1  0  0  0  0
 66 67  2  3  0  0  0
 66138  1  0  0  0  0
 67 68  1  0  0  0  0
 67139  1  0  0  0  0
 68 69  2  3  0  0  0
 68140  1  0  0  0  0
 69141  1  0  0  0  0
M  END
$$$$
