
 OpenBabel04232216463D

 66 66  0  0  1  0  0  0  0  0999 V2000
    4.7165   -2.3340   -1.8560 C   0  0  0  0  0  0  0  0  0  0  0  0
    5.6723   -1.3369   -2.5110 C   0  0  3  0  0  3  0  0  0  0  0  0
    4.8517   -0.0918   -2.6924 C   0  0  0  0  0  0  0  0  0  0  0  0
    4.9118    1.0463   -1.9574 C   0  0  0  0  0  0  0  0  0  0  0  0
    4.3471    1.1268   -0.6804 N   0  0  0  0  0  0  0  0  0  0  0  0
    5.2107    2.2049   -2.6449 N   0  0  0  0  0  0  0  0  0  0  0  0
    6.3875    2.0785   -3.5510 C   0  0  0  0  0  0  0  0  0  0  0  0
    5.9487    1.1958   -4.8148 C   0  0  0  0  0  0  0  0  0  0  0  0
    4.5692    1.3852   -5.4878 C   0  0  0  0  0  0  0  0  0  0  0  0
    4.3208    0.2802   -6.5606 C   0  0  0  0  0  0  0  0  0  0  0  0
    2.9668    0.4711   -7.2468 C   0  0  0  0  0  0  0  0  0  0  0  0
    2.6824   -0.5008   -8.3978 C   0  0  0  0  0  0  0  0  0  0  0  0
    1.3239   -0.1540   -9.0222 C   0  0  0  0  0  0  0  0  0  0  0  0
    0.9455   -1.0382  -10.2090 C   0  0  0  0  0  0  0  0  0  0  0  0
   -0.4112   -0.6104  -10.7781 C   0  0  0  0  0  0  0  0  0  0  0  0
   -0.8227   -1.4646  -11.9648 C   0  0  0  0  0  0  0  0  0  0  0  0
    7.5944    1.5343   -2.6122 C   0  0  0  0  0  0  0  0  0  0  0  0
    8.0358    2.2837   -1.3287 C   0  0  0  0  0  0  0  0  0  0  0  0
    8.9497    3.4626   -1.5776 C   0  0  0  0  0  0  0  0  0  0  0  0
    6.7526    3.4312   -4.0581 N   0  0  0  0  0  0  0  0  0  0  0  0
    7.8791    3.6385   -4.5812 N   0  0  0  0  0  0  0  0  0  0  0  0
    8.2464    2.8978   -5.6685 C   0  0  0  0  0  0  0  0  0  0  0  0
    9.4656    2.3991   -5.8437 C   0  0  0  0  0  0  0  0  0  0  0  0
    9.7883    1.2747   -6.6772 C   0  0  0  0  0  0  0  0  0  0  0  0
    9.6443   -0.0148   -6.3076 C   0  0  0  0  0  0  0  0  0  0  0  0
    8.5320   -0.7040   -5.6345 C   0  0  0  0  0  0  0  0  0  0  0  0
    8.1625   -0.9792   -4.3137 C   0  0  0  0  0  0  0  0  0  0  0  0
    6.7458   -2.0412   -3.8663 S   0  0  0  0  0  0  0  0  0  0  0  0
    3.8787   -1.8309   -1.3494 H   0  0  0  0  0  0  0  0  0  0  0  0
    5.2207   -2.9227   -1.0873 H   0  0  0  0  0  0  0  0  0  0  0  0
    4.2535   -2.9866   -2.6042 H   0  0  0  0  0  0  0  0  0  0  0  0
    3.8695   -0.3018   -3.1272 H   0  0  0  0  0  0  0  0  0  0  0  0
    3.8206    0.3052   -0.4290 H   0  0  0  0  0  0  0  0  0  0  0  0
    5.0917    1.2684   -0.0071 H   0  0  0  0  0  0  0  0  0  0  0  0
    5.9490    0.1442   -4.5675 H   0  0  0  0  0  0  0  0  0  0  0  0
    6.6689    1.2058   -5.6044 H   0  0  0  0  0  0  0  0  0  0  0  0
    4.5298    2.3712   -5.9517 H   0  0  0  0  0  0  0  0  0  0  0  0
    3.7549    1.3282   -4.7627 H   0  0  0  0  0  0  0  0  0  0  0  0
    4.3462   -0.7162   -6.0963 H   0  0  0  0  0  0  0  0  0  0  0  0
    5.1247    0.3034   -7.3052 H   0  0  0  0  0  0  0  0  0  0  0  0
    2.9173    1.4957   -7.6341 H   0  0  0  0  0  0  0  0  0  0  0  0
    2.1709    0.3688   -6.4987 H   0  0  0  0  0  0  0  0  0  0  0  0
    2.6739   -1.5380   -8.0402 H   0  0  0  0  0  0  0  0  0  0  0  0
    3.4690   -0.4292   -9.1625 H   0  0  0  0  0  0  0  0  0  0  0  0
    1.3391    0.8935   -9.3498 H   0  0  0  0  0  0  0  0  0  0  0  0
    0.5460   -0.2352   -8.2520 H   0  0  0  0  0  0  0  0  0  0  0  0
    0.8995   -2.0872   -9.8935 H   0  0  0  0  0  0  0  0  0  0  0  0
    1.7125   -0.9642  -10.9891 H   0  0  0  0  0  0  0  0  0  0  0  0
   -0.3691    0.4402  -11.0909 H   0  0  0  0  0  0  0  0  0  0  0  0
   -1.1805   -0.6827  -10.0000 H   0  0  0  0  0  0  0  0  0  0  0  0
   -0.0935   -1.3835  -12.7769 H   0  0  0  0  0  0  0  0  0  0  0  0
   -1.7949   -1.1384  -12.3476 H   0  0  0  0  0  0  0  0  0  0  0  0
   -0.9063   -2.5177  -11.6785 H   0  0  0  0  0  0  0  0  0  0  0  0
    8.4919    1.3730   -3.2076 H   0  0  0  0  0  0  0  0  0  0  0  0
    7.3283    0.5546   -2.2076 H   0  0  0  0  0  0  0  0  0  0  0  0
    8.6163    1.5711   -0.7179 H   0  0  0  0  0  0  0  0  0  0  0  0
    7.1898    2.5757   -0.6953 H   0  0  0  0  0  0  0  0  0  0  0  0
    9.8081    3.1666   -2.1909 H   0  0  0  0  0  0  0  0  0  0  0  0
    9.3447    3.8488   -0.6291 H   0  0  0  0  0  0  0  0  0  0  0  0
    8.4194    4.2794   -2.0683 H   0  0  0  0  0  0  0  0  0  0  0  0
    7.4652    2.6680   -6.3843 H   0  0  0  0  0  0  0  0  0  0  0  0
   10.2973    2.7509   -5.2378 H   0  0  0  0  0  0  0  0  0  0  0  0
   10.4155    1.5277   -7.5456 H   0  0  0  0  0  0  0  0  0  0  0  0
   10.2797   -0.7074   -6.8672 H   0  0  0  0  0  0  0  0  0  0  0  0
    7.9023   -1.1392   -6.4037 H   0  0  0  0  0  0  0  0  0  0  0  0
    8.8093   -0.6628   -3.5229 H   0  0  0  0  0  0  0  0  0  0  0  0
  1  2  1  0  0  0  0
  1 29  1  0  0  0  0
  1 30  1  0  0  0  0
  1 31  1  0  0  0  0
  2  3  1  0  0  0  0
  2 28  1  0  0  0  0
  3  4  2  3  0  0  0
  3 32  1  0  0  0  0
  4  5  1  0  0  0  0
  4  6  1  0  0  0  0
  5 33  1  0  0  0  0
  5 34  1  0  0  0  0
  6  7  2  0  0  0  0
  7  8  1  0  0  0  0
  7 17  1  0  0  0  0
  7 20  1  0  0  0  0
  8  9  1  0  0  0  0
  8 35  1  0  0  0  0
  8 36  1  0  0  0  0
  9 10  1  0  0  0  0
  9 37  1  0  0  0  0
  9 38  1  0  0  0  0
 10 11  1  0  0  0  0
 10 39  1  0  0  0  0
 10 40  1  0  0  0  0
 11 12  1  0  0  0  0
 11 41  1  0  0  0  0
 11 42  1  0  0  0  0
 12 13  1  0  0  0  0
 12 43  1  0  0  0  0
 12 44  1  0  0  0  0
 13 14  1  0  0  0  0
 13 45  1  0  0  0  0
 13 46  1  0  0  0  0
 14 15  1  0  0  0  0
 14 47  1  0  0  0  0
 14 48  1  0  0  0  0
 15 16  1  0  0  0  0
 15 49  1  0  0  0  0
 15 50  1  0  0  0  0
 16 51  1  0  0  0  0
 16 52  1  0  0  0  0
 16 53  1  0  0  0  0
 17 18  1  0  0  0  0
 17 54  1  0  0  0  0
 17 55  1  0  0  0  0
 18 19  1  0  0  0  0
 18 56  1  0  0  0  0
 18 57  1  0  0  0  0
 19 58  1  0  0  0  0
 19 59  1  0  0  0  0
 19 60  1  0  0  0  0
 20 21  2  3  0  0  0
 21 22  1  0  0  0  0
 22 23  2  3  0  0  0
 22 61  1  0  0  0  0
 23 24  1  0  0  0  0
 23 62  1  0  0  0  0
 24 25  2  3  0  0  0
 24 63  1  0  0  0  0
 25 26  1  0  0  0  0
 25 64  1  0  0  0  0
 26 27  2  3  0  0  0
 26 65  1  0  0  0  0
 27 28  1  0  0  0  0
 27 66  1  0  0  0  0
M  END
$$$$
