
 OpenBabel04232217003D

237236  0  0  1  0  0  0  0  0999 V2000
    1.0404   -0.1572   -0.0723 O   0  0  0  0  0  0  0  0  0  0  0  0
    2.4573   -0.0832   -0.0257 C   0  0  0  0  0  0  0  0  0  0  0  0
    2.9188    1.3601    0.1761 C   0  0  3  0  0  0  0  0  0  0  0  0
    2.3485    1.9773    1.4731 C   0  0  0  0  0  0  0  0  0  0  0  0
    2.7947    1.2571    2.7373 C   0  0  0  0  0  0  0  0  0  0  0  0
    2.2180    1.9034    3.9777 C   0  0  0  0  0  0  0  0  0  0  0  0
    4.4545    1.3982    0.1677 C   0  0  0  0  0  0  0  0  0  0  0  0
    4.9947    2.8080    0.3614 C   0  0  0  0  0  0  0  0  0  0  0  0
    6.5078    2.8073    0.3614 C   0  0  0  0  0  0  0  0  0  0  0  0
    7.0056    4.2281    0.5544 C   0  0  0  0  0  0  0  0  0  0  0  0
    8.5198    4.2389    0.5569 C   0  0  0  0  0  0  0  0  0  0  0  0
    9.0238    5.6552    0.7483 C   0  0  0  0  0  0  0  0  0  0  0  0
   10.5397    5.6594    0.7495 C   0  0  0  0  0  0  0  0  0  0  0  0
   11.0489    7.0744    0.9429 C   0  0  0  0  0  0  0  0  0  0  0  0
   12.5650    7.0788    0.9440 C   0  0  0  0  0  0  0  0  0  0  0  0
   13.0748    8.4937    1.1372 C   0  0  0  0  0  0  0  0  0  0  0  0
   14.5913    8.4983    1.1382 C   0  0  0  0  0  0  0  0  0  0  0  0
   15.1012    9.9134    1.3316 C   0  0  0  0  0  0  0  0  0  0  0  0
   16.6178    9.9178    1.3324 C   0  0  0  0  0  0  0  0  0  0  0  0
   17.1278   11.3334    1.5259 C   0  0  0  0  0  0  0  0  0  0  0  0
   18.6445   11.3375    1.5268 C   0  0  0  0  0  0  0  0  0  0  0  0
   19.1546   12.7524    1.7221 C   0  0  0  0  0  0  0  0  0  0  0  0
   20.6711   12.7573    1.7231 C   0  0  0  0  0  0  0  0  0  0  0  0
   21.1816   14.1713    1.9208 C   0  0  0  0  0  0  0  0  0  0  0  0
   22.6976   14.1771    1.9210 C   0  0  0  0  0  0  0  0  0  0  0  0
   23.2082   15.5909    2.1191 C   0  0  0  0  0  0  0  0  0  0  0  0
   24.7245   15.5960    2.1197 C   0  0  0  0  0  0  0  0  0  0  0  0
   25.2346   17.0105    2.3152 C   0  0  0  0  0  0  0  0  0  0  0  0
   26.7510   17.0154    2.3160 C   0  0  0  0  0  0  0  0  0  0  0  0
   27.2612   18.4300    2.5115 C   0  0  0  0  0  0  0  0  0  0  0  0
   28.7776   18.4350    2.5123 C   0  0  0  0  0  0  0  0  0  0  0  0
   29.2878   19.8493    2.7098 C   0  0  0  0  0  0  0  0  0  0  0  0
   30.8043   19.8545    2.7086 C   0  0  0  0  0  0  0  0  0  0  0  0
   31.3145   21.2686    2.9082 C   0  0  0  0  0  0  0  0  0  0  0  0
   32.8309   21.2735    2.9089 C   0  0  0  0  0  0  0  0  0  0  0  0
   33.3411   22.6879    3.1065 C   0  0  0  0  0  0  0  0  0  0  0  0
   34.8576   22.6928    3.1072 C   0  0  0  0  0  0  0  0  0  0  0  0
   35.3678   24.1069    3.3068 C   0  0  0  0  0  0  0  0  0  0  0  0
   36.8843   24.1118    3.3076 C   0  0  0  0  0  0  0  0  0  0  0  0
   37.3944   25.5259    3.5071 C   0  0  0  0  0  0  0  0  0  0  0  0
   38.9109   25.5308    3.5079 C   0  0  0  0  0  0  0  0  0  0  0  0
   39.4211   26.9452    3.7055 C   0  0  0  0  0  0  0  0  0  0  0  0
   40.9376   26.9504    3.7042 C   0  0  0  0  0  0  0  0  0  0  0  0
   41.4478   28.3644    3.9038 C   0  0  0  0  0  0  0  0  0  0  0  0
   42.9642   28.3699    3.9006 C   0  0  0  0  0  0  0  0  0  0  0  0
   43.4744   29.7843    4.0981 C   0  0  0  0  0  0  0  0  0  0  0  0
   44.9909   29.7898    4.0949 C   0  0  0  0  0  0  0  0  0  0  0  0
   45.5011   31.2044    4.2904 C   0  0  0  0  0  0  0  0  0  0  0  0
   47.0175   31.2099    4.2872 C   0  0  0  0  0  0  0  0  0  0  0  0
   47.5277   32.6245    4.4827 C   0  0  0  0  0  0  0  0  0  0  0  0
   49.0442   32.6300    4.4795 C   0  0  0  0  0  0  0  0  0  0  0  0
   49.5544   34.0447    4.6750 C   0  0  0  0  0  0  0  0  0  0  0  0
   51.0708   34.0501    4.6718 C   0  0  0  0  0  0  0  0  0  0  0  0
   51.5810   35.4651    4.8654 C   0  0  0  0  0  0  0  0  0  0  0  0
   53.0975   35.4703    4.8641 C   0  0  0  0  0  0  0  0  0  0  0  0
   53.6076   36.8849    5.0597 C   0  0  0  0  0  0  0  0  0  0  0  0
   55.1241   36.8901    5.0584 C   0  0  0  0  0  0  0  0  0  0  0  0
   55.6343   38.3045    5.2560 C   0  0  0  0  0  0  0  0  0  0  0  0
   57.1508   38.3099    5.2528 C   0  0  0  0  0  0  0  0  0  0  0  0
   57.6610   39.7240    5.4524 C   0  0  0  0  0  0  0  0  0  0  0  0
   59.1775   39.7296    5.4491 C   0  0  0  0  0  0  0  0  0  0  0  0
   59.6878   41.1438    5.6469 C   0  0  0  0  0  0  0  0  0  0  0  0
   61.2040   41.1497    5.6433 C   0  0  0  0  0  0  0  0  0  0  0  0
   61.7145   42.5638    5.8392 C   0  0  0  0  0  0  0  0  0  0  0  0
   63.2306   42.5700    5.8338 C   0  0  0  0  0  0  0  0  0  0  0  0
   63.7409   43.9842    6.0312 C   0  0  0  0  0  0  0  0  0  0  0  0
   65.2573   43.9901    6.0243 C   0  0  0  0  0  0  0  0  0  0  0  0
   65.7672   45.4048    6.2195 C   0  0  0  0  0  0  0  0  0  0  0  0
   67.2837   45.4101    6.2145 C   0  0  0  0  0  0  0  0  0  0  0  0
   67.7935   46.8249    6.4118 C   0  0  0  0  0  0  0  0  0  0  0  0
   69.3098   46.8294    6.4067 C   0  0  0  0  0  0  0  0  0  0  0  0
   69.8194   48.2462    6.6023 C   0  0  0  0  0  0  0  0  0  0  0  0
   71.3365   48.2498    6.5991 C   0  0  0  0  0  0  0  0  0  0  0  0
   71.8508   49.6659    6.7926 C   0  0  0  0  0  0  0  0  0  0  0  0
   73.3686   49.6759    6.7883 C   0  0  0  0  0  0  0  0  0  0  0  0
   73.8884   51.0908    6.9813 C   0  0  0  0  0  0  0  0  0  0  0  0
   75.4046   51.1094    6.9760 C   0  0  0  0  0  0  0  0  0  0  0  0
   75.9354   52.5202    7.1685 C   0  0  0  0  0  0  0  0  0  0  0  0
   77.4493   52.5332    7.1629 C   0  0  0  0  0  0  0  0  0  0  0  0
    0.7963   -1.0888    0.1040 H   0  0  0  0  0  0  0  0  0  0  0  0
    2.8458   -0.4883   -0.9733 H   0  0  0  0  0  0  0  0  0  0  0  0
    2.8204   -0.7296    0.7769 H   0  0  0  0  0  0  0  0  0  0  0  0
    2.5464    1.9631   -0.6675 H   0  0  0  0  0  0  0  0  0  0  0  0
    1.2556    1.9822    1.4365 H   0  0  0  0  0  0  0  0  0  0  0  0
    2.6350    3.0379    1.5316 H   0  0  0  0  0  0  0  0  0  0  0  0
    3.8824    1.2684    2.8389 H   0  0  0  0  0  0  0  0  0  0  0  0
    2.4755    0.2085    2.6964 H   0  0  0  0  0  0  0  0  0  0  0  0
    2.5618    2.9392    4.0550 H   0  0  0  0  0  0  0  0  0  0  0  0
    2.5600    1.3620    4.8660 H   0  0  0  0  0  0  0  0  0  0  0  0
    1.1240    1.8962    3.9638 H   0  0  0  0  0  0  0  0  0  0  0  0
    4.8282    0.9943   -0.7798 H   0  0  0  0  0  0  0  0  0  0  0  0
    4.8488    0.7430    0.9546 H   0  0  0  0  0  0  0  0  0  0  0  0
    4.6708    3.2262    1.3192 H   0  0  0  0  0  0  0  0  0  0  0  0
    4.6110    3.4644   -0.4293 H   0  0  0  0  0  0  0  0  0  0  0  0
    6.8879    2.3943   -0.5809 H   0  0  0  0  0  0  0  0  0  0  0  0
    6.8784    2.1706    1.1746 H   0  0  0  0  0  0  0  0  0  0  0  0
    6.6275    4.6351    1.5009 H   0  0  0  0  0  0  0  0  0  0  0  0
    6.6248    4.8720   -0.2480 H   0  0  0  0  0  0  0  0  0  0  0  0
    8.8959    3.8311   -0.3894 H   0  0  0  0  0  0  0  0  0  0  0  0
    8.8957    3.5953    1.3616 H   0  0  0  0  0  0  0  0  0  0  0  0
    8.6461    6.0631    1.6942 H   0  0  0  0  0  0  0  0  0  0  0  0
    8.6474    6.2989   -0.0560 H   0  0  0  0  0  0  0  0  0  0  0  0
   10.9156    5.2525   -0.1973 H   0  0  0  0  0  0  0  0  0  0  0  0
   10.9154    5.0134    1.5526 H   0  0  0  0  0  0  0  0  0  0  0  0
   10.6725    7.4815    1.8897 H   0  0  0  0  0  0  0  0  0  0  0  0
   10.6730    7.7202    0.1396 H   0  0  0  0  0  0  0  0  0  0  0  0
   12.9410    6.6715   -0.0028 H   0  0  0  0  0  0  0  0  0  0  0  0
   12.9406    6.4326    1.7471 H   0  0  0  0  0  0  0  0  0  0  0  0
   12.6987    8.9008    2.0840 H   0  0  0  0  0  0  0  0  0  0  0  0
   12.6992    9.1397    0.3340 H   0  0  0  0  0  0  0  0  0  0  0  0
   14.9673    8.0910    0.1915 H   0  0  0  0  0  0  0  0  0  0  0  0
   14.9668    7.8521    1.9414 H   0  0  0  0  0  0  0  0  0  0  0  0
   14.7251   10.3204    2.2783 H   0  0  0  0  0  0  0  0  0  0  0  0
   14.7254   10.5594    0.5284 H   0  0  0  0  0  0  0  0  0  0  0  0
   16.9939    9.5109    0.3859 H   0  0  0  0  0  0  0  0  0  0  0  0
   16.9935    9.2720    2.1356 H   0  0  0  0  0  0  0  0  0  0  0  0
   16.7519   11.7401    2.4725 H   0  0  0  0  0  0  0  0  0  0  0  0
   16.7523   11.9790    0.7227 H   0  0  0  0  0  0  0  0  0  0  0  0
   19.0204   10.9318    0.5796 H   0  0  0  0  0  0  0  0  0  0  0  0
   19.0200   10.6905    2.3291 H   0  0  0  0  0  0  0  0  0  0  0  0
   18.7785   13.1583    2.6694 H   0  0  0  0  0  0  0  0  0  0  0  0
   18.7790   13.3997    0.9199 H   0  0  0  0  0  0  0  0  0  0  0  0
   21.0472   12.3526    0.7752 H   0  0  0  0  0  0  0  0  0  0  0  0
   21.0468   12.1087    2.5245 H   0  0  0  0  0  0  0  0  0  0  0  0
   20.8053   14.5761    2.8685 H   0  0  0  0  0  0  0  0  0  0  0  0
   20.8054   14.8201    1.1192 H   0  0  0  0  0  0  0  0  0  0  0  0
   23.0737   13.7723    0.9733 H   0  0  0  0  0  0  0  0  0  0  0  0
   23.0738   13.5280    2.7226 H   0  0  0  0  0  0  0  0  0  0  0  0
   22.8322   15.9952    3.0672 H   0  0  0  0  0  0  0  0  0  0  0  0
   22.8324   16.2403    1.3180 H   0  0  0  0  0  0  0  0  0  0  0  0
   25.1003   15.1904    1.1720 H   0  0  0  0  0  0  0  0  0  0  0  0
   25.1005   14.9482    2.9215 H   0  0  0  0  0  0  0  0  0  0  0  0
   24.8587   17.4160    3.2629 H   0  0  0  0  0  0  0  0  0  0  0  0
   24.8586   17.6581    1.5136 H   0  0  0  0  0  0  0  0  0  0  0  0
   27.1268   16.6099    1.3683 H   0  0  0  0  0  0  0  0  0  0  0  0
   27.1270   16.3677    3.1176 H   0  0  0  0  0  0  0  0  0  0  0  0
   26.8853   18.8355    3.4592 H   0  0  0  0  0  0  0  0  0  0  0  0
   26.8852   19.0777    1.7099 H   0  0  0  0  0  0  0  0  0  0  0  0
   29.1534   18.0308    1.5640 H   0  0  0  0  0  0  0  0  0  0  0  0
   29.1537   17.7862    3.3130 H   0  0  0  0  0  0  0  0  0  0  0  0
   28.9131   20.2529    3.6588 H   0  0  0  0  0  0  0  0  0  0  0  0
   28.9107   20.4985    1.9099 H   0  0  0  0  0  0  0  0  0  0  0  0
   31.1789   19.4522    1.7591 H   0  0  0  0  0  0  0  0  0  0  0  0
   31.1814   19.2043    3.5077 H   0  0  0  0  0  0  0  0  0  0  0  0
   30.9387   21.6714    3.8570 H   0  0  0  0  0  0  0  0  0  0  0  0
   30.9384   21.9185    2.1083 H   0  0  0  0  0  0  0  0  0  0  0  0
   33.2068   20.8694    1.9607 H   0  0  0  0  0  0  0  0  0  0  0  0
   33.2069   20.6247    3.7096 H   0  0  0  0  0  0  0  0  0  0  0  0
   32.9653   23.0920    4.0547 H   0  0  0  0  0  0  0  0  0  0  0  0
   32.9651   23.3367    2.3058 H   0  0  0  0  0  0  0  0  0  0  0  0
   35.2334   22.2900    2.1584 H   0  0  0  0  0  0  0  0  0  0  0  0
   35.2336   22.0429    3.9071 H   0  0  0  0  0  0  0  0  0  0  0  0
   34.9920   24.5097    4.2556 H   0  0  0  0  0  0  0  0  0  0  0  0
   34.9918   24.7568    2.5070 H   0  0  0  0  0  0  0  0  0  0  0  0
   37.2601   23.7090    2.3587 H   0  0  0  0  0  0  0  0  0  0  0  0
   37.2603   23.4619    4.1074 H   0  0  0  0  0  0  0  0  0  0  0  0
   37.0187   25.9287    4.4559 H   0  0  0  0  0  0  0  0  0  0  0  0
   37.0184   26.1758    2.7073 H   0  0  0  0  0  0  0  0  0  0  0  0
   39.2867   25.1267    2.5596 H   0  0  0  0  0  0  0  0  0  0  0  0
   39.2869   24.8820    4.3086 H   0  0  0  0  0  0  0  0  0  0  0  0
   39.0464   27.3487    4.6544 H   0  0  0  0  0  0  0  0  0  0  0  0
   39.0440   27.5943    2.9055 H   0  0  0  0  0  0  0  0  0  0  0  0
   41.3121   26.5481    2.7547 H   0  0  0  0  0  0  0  0  0  0  0  0
   41.3148   26.3002    4.5032 H   0  0  0  0  0  0  0  0  0  0  0  0
   41.0743   28.7662    4.8539 H   0  0  0  0  0  0  0  0  0  0  0  0
   41.0694   29.0150    3.1055 H   0  0  0  0  0  0  0  0  0  0  0  0
   43.3377   27.9669    2.9509 H   0  0  0  0  0  0  0  0  0  0  0  0
   43.3426   27.7205    4.6997 H   0  0  0  0  0  0  0  0  0  0  0  0
   43.1010   30.1874    5.0477 H   0  0  0  0  0  0  0  0  0  0  0  0
   43.0961   30.4337    3.2990 H   0  0  0  0  0  0  0  0  0  0  0  0
   45.3644   29.3854    3.1458 H   0  0  0  0  0  0  0  0  0  0  0  0
   45.3692   29.1415    4.8949 H   0  0  0  0  0  0  0  0  0  0  0  0
   45.1276   31.6088    5.2395 H   0  0  0  0  0  0  0  0  0  0  0  0
   45.1227   31.8527    3.4904 H   0  0  0  0  0  0  0  0  0  0  0  0
   47.3910   30.8055    3.3381 H   0  0  0  0  0  0  0  0  0  0  0  0
   47.3959   30.5616    5.0872 H   0  0  0  0  0  0  0  0  0  0  0  0
   47.1543   33.0290    5.4318 H   0  0  0  0  0  0  0  0  0  0  0  0
   47.1494   33.2728    3.6827 H   0  0  0  0  0  0  0  0  0  0  0  0
   49.4176   32.2256    3.5304 H   0  0  0  0  0  0  0  0  0  0  0  0
   49.4226   31.9817    5.2796 H   0  0  0  0  0  0  0  0  0  0  0  0
   49.1809   34.4491    5.6241 H   0  0  0  0  0  0  0  0  0  0  0  0
   49.1760   34.6929    3.8750 H   0  0  0  0  0  0  0  0  0  0  0  0
   51.4444   33.6444    3.7233 H   0  0  0  0  0  0  0  0  0  0  0  0
   51.4491   33.4029    5.4728 H   0  0  0  0  0  0  0  0  0  0  0  0
   51.2064   35.8713    5.8132 H   0  0  0  0  0  0  0  0  0  0  0  0
   51.2038   36.1119    4.0636 H   0  0  0  0  0  0  0  0  0  0  0  0
   53.4721   35.0653    3.9158 H   0  0  0  0  0  0  0  0  0  0  0  0
   53.4747   34.8223    5.6650 H   0  0  0  0  0  0  0  0  0  0  0  0
   53.2330   37.2898    6.0081 H   0  0  0  0  0  0  0  0  0  0  0  0
   53.2305   37.5329    4.2589 H   0  0  0  0  0  0  0  0  0  0  0  0
   55.4987   36.4865    4.1095 H   0  0  0  0  0  0  0  0  0  0  0  0
   55.5013   36.2410    5.8584 H   0  0  0  0  0  0  0  0  0  0  0  0
   55.2608   38.7075    6.2056 H   0  0  0  0  0  0  0  0  0  0  0  0
   55.2559   38.9539    4.4569 H   0  0  0  0  0  0  0  0  0  0  0  0
   57.5242   37.9082    4.3026 H   0  0  0  0  0  0  0  0  0  0  0  0
   57.5291   37.6594    6.0510 H   0  0  0  0  0  0  0  0  0  0  0  0
   57.2875   40.1258    6.4025 H   0  0  0  0  0  0  0  0  0  0  0  0
   57.2825   40.3745    4.6541 H   0  0  0  0  0  0  0  0  0  0  0  0
   59.5510   39.3265    4.4997 H   0  0  0  0  0  0  0  0  0  0  0  0
   59.5559   39.0804    6.2486 H   0  0  0  0  0  0  0  0  0  0  0  0
   59.3142   41.5473    6.5962 H   0  0  0  0  0  0  0  0  0  0  0  0
   59.3096   41.7934    4.8472 H   0  0  0  0  0  0  0  0  0  0  0  0
   61.5778   40.7448    4.6946 H   0  0  0  0  0  0  0  0  0  0  0  0
   61.5825   40.5013    6.4440 H   0  0  0  0  0  0  0  0  0  0  0  0
   61.3418   42.9683    6.7884 H   0  0  0  0  0  0  0  0  0  0  0  0
   61.3352   43.2126    5.0392 H   0  0  0  0  0  0  0  0  0  0  0  0
   63.6032   42.1668    4.8838 H   0  0  0  0  0  0  0  0  0  0  0  0
   63.6102   41.9205    6.6328 H   0  0  0  0  0  0  0  0  0  0  0  0
   63.3695   44.3867    6.9818 H   0  0  0  0  0  0  0  0  0  0  0  0
   63.3606   44.6339    5.2331 H   0  0  0  0  0  0  0  0  0  0  0  0
   65.6288   43.5863    5.0742 H   0  0  0  0  0  0  0  0  0  0  0  0
   65.6375   43.3415    6.8233 H   0  0  0  0  0  0  0  0  0  0  0  0
   65.3948   45.8091    7.1689 H   0  0  0  0  0  0  0  0  0  0  0  0
   65.3882   46.0530    5.4197 H   0  0  0  0  0  0  0  0  0  0  0  0
   67.6563   45.0073    5.2646 H   0  0  0  0  0  0  0  0  0  0  0  0
   67.6630   44.7611    7.0134 H   0  0  0  0  0  0  0  0  0  0  0  0
   67.4211   47.2276    7.3617 H   0  0  0  0  0  0  0  0  0  0  0  0
   67.4144   47.4739    5.6129 H   0  0  0  0  0  0  0  0  0  0  0  0
   69.6821   46.4256    5.4575 H   0  0  0  0  0  0  0  0  0  0  0  0
   69.6888   46.1818    7.2065 H   0  0  0  0  0  0  0  0  0  0  0  0
   69.4455   48.6499    7.5509 H   0  0  0  0  0  0  0  0  0  0  0  0
   69.4411   48.8929    5.8015 H   0  0  0  0  0  0  0  0  0  0  0  0
   71.7077   47.8429    5.6508 H   0  0  0  0  0  0  0  0  0  0  0  0
   71.7121   47.6023    7.4003 H   0  0  0  0  0  0  0  0  0  0  0  0
   71.4769   50.0713    7.7410 H   0  0  0  0  0  0  0  0  0  0  0  0
   71.4705   50.3125    5.9919 H   0  0  0  0  0  0  0  0  0  0  0  0
   73.7408   49.2683    5.8396 H   0  0  0  0  0  0  0  0  0  0  0  0
   73.7474   49.0274    7.5883 H   0  0  0  0  0  0  0  0  0  0  0  0
   73.5130   51.4972    7.9315 H   0  0  0  0  0  0  0  0  0  0  0  0
   73.5040   51.7393    6.1811 H   0  0  0  0  0  0  0  0  0  0  0  0
   75.7767   50.6972    6.0253 H   0  0  0  0  0  0  0  0  0  0  0  0
   75.7864   50.4543    7.7745 H   0  0  0  0  0  0  0  0  0  0  0  0
   75.5671   52.9312    8.1197 H   0  0  0  0  0  0  0  0  0  0  0  0
   75.5585   53.1733    6.3685 H   0  0  0  0  0  0  0  0  0  0  0  0
   77.8447   51.9045    7.9698 H   0  0  0  0  0  0  0  0  0  0  0  0
   77.8266   53.5467    7.3012 H   0  0  0  0  0  0  0  0  0  0  0  0
   77.8360   52.1478    6.2117 H   0  0  0  0  0  0  0  0  0  0  0  0
  1  2  1  0  0  0  0
  1 80  1  0  0  0  0
  2  3  1  0  0  0  0
  2 81  1  0  0  0  0
  2 82  1  0  0  0  0
  3  4  1  0  0  0  0
  3  7  1  0  0  0  0
  3 83  1  0  0  0  0
  4  5  1  0  0  0  0
  4 84  1  0  0  0  0
  4 85  1  0  0  0  0
  5  6  1  0  0  0  0
  5 86  1  0  0  0  0
  5 87  1  0  0  0  0
  6 88  1  0  0  0  0
  6 89  1  0  0  0  0
  6 90  1  0  0  0  0
  7  8  1  0  0  0  0
  7 91  1  0  0  0  0
  7 92  1  0  0  0  0
  8  9  1  0  0  0  0
  8 93  1  0  0  0  0
  8 94  1  0  0  0  0
  9 10  1  0  0  0  0
  9 95  1  0  0  0  0
  9 96  1  0  0  0  0
 10 11  1  0  0  0  0
 10 97  1  0  0  0  0
 10 98  1  0  0  0  0
 11 12  1  0  0  0  0
 11 99  1  0  0  0  0
 11100  1  0  0  0  0
 12 13  1  0  0  0  0
 12101  1  0  0  0  0
 12102  1  0  0  0  0
 13 14  1  0  0  0  0
 13103  1  0  0  0  0
 13104  1  0  0  0  0
 14 15  1  0  0  0  0
 14105  1  0  0  0  0
 14106  1  0  0  0  0
 15 16  1  0  0  0  0
 15107  1  0  0  0  0
 15108  1  0  0  0  0
 16 17  1  0  0  0  0
 16109  1  0  0  0  0
 16110  1  0  0  0  0
 17 18  1  0  0  0  0
 17111  1  0  0  0  0
 17112  1  0  0  0  0
 18 19  1  0  0  0  0
 18113  1  0  0  0  0
 18114  1  0  0  0  0
 19 20  1  0  0  0  0
 19115  1  0  0  0  0
 19116  1  0  0  0  0
 20 21  1  0  0  0  0
 20117  1  0  0  0  0
 20118  1  0  0  0  0
 21 22  1  0  0  0  0
 21119  1  0  0  0  0
 21120  1  0  0  0  0
 22 23  1  0  0  0  0
 22121  1  0  0  0  0
 22122  1  0  0  0  0
 23 24  1  0  0  0  0
 23123  1  0  0  0  0
 23124  1  0  0  0  0
 24 25  1  0  0  0  0
 24125  1  0  0  0  0
 24126  1  0  0  0  0
 25 26  1  0  0  0  0
 25127  1  0  0  0  0
 25128  1  0  0  0  0
 26 27  1  0  0  0  0
 26129  1  0  0  0  0
 26130  1  0  0  0  0
 27 28  1  0  0  0  0
 27131  1  0  0  0  0
 27132  1  0  0  0  0
 28 29  1  0  0  0  0
 28133  1  0  0  0  0
 28134  1  0  0  0  0
 29 30  1  0  0  0  0
 29135  1  0  0  0  0
 29136  1  0  0  0  0
 30 31  1  0  0  0  0
 30137  1  0  0  0  0
 30138  1  0  0  0  0
 31 32  1  0  0  0  0
 31139  1  0  0  0  0
 31140  1  0  0  0  0
 32 33  1  0  0  0  0
 32141  1  0  0  0  0
 32142  1  0  0  0  0
 33 34  1  0  0  0  0
 33143  1  0  0  0  0
 33144  1  0  0  0  0
 34 35  1  0  0  0  0
 34145  1  0  0  0  0
 34146  1  0  0  0  0
 35 36  1  0  0  0  0
 35147  1  0  0  0  0
 35148  1  0  0  0  0
 36 37  1  0  0  0  0
 36149  1  0  0  0  0
 36150  1  0  0  0  0
 37 38  1  0  0  0  0
 37151  1  0  0  0  0
 37152  1  0  0  0  0
 38 39  1  0  0  0  0
 38153  1  0  0  0  0
 38154  1  0  0  0  0
 39 40  1  0  0  0  0
 39155  1  0  0  0  0
 39156  1  0  0  0  0
 40 41  1  0  0  0  0
 40157  1  0  0  0  0
 40158  1  0  0  0  0
 41 42  1  0  0  0  0
 41159  1  0  0  0  0
 41160  1  0  0  0  0
 42 43  1  0  0  0  0
 42161  1  0  0  0  0
 42162  1  0  0  0  0
 43 44  1  0  0  0  0
 43163  1  0  0  0  0
 43164  1  0  0  0  0
 44 45  1  0  0  0  0
 44165  1  0  0  0  0
 44166  1  0  0  0  0
 45 46  1  0  0  0  0
 45167  1  0  0  0  0
 45168  1  0  0  0  0
 46 47  1  0  0  0  0
 46169  1  0  0  0  0
 46170  1  0  0  0  0
 47 48  1  0  0  0  0
 47171  1  0  0  0  0
 47172  1  0  0  0  0
 48 49  1  0  0  0  0
 48173  1  0  0  0  0
 48174  1  0  0  0  0
 49 50  1  0  0  0  0
 49175  1  0  0  0  0
 49176  1  0  0  0  0
 50 51  1  0  0  0  0
 50177  1  0  0  0  0
 50178  1  0  0  0  0
 51 52  1  0  0  0  0
 51179  1  0  0  0  0
 51180  1  0  0  0  0
 52 53  1  0  0  0  0
 52181  1  0  0  0  0
 52182  1  0  0  0  0
 53 54  1  0  0  0  0
 53183  1  0  0  0  0
 53184  1  0  0  0  0
 54 55  1  0  0  0  0
 54185  1  0  0  0  0
 54186  1  0  0  0  0
 55 56  1  0  0  0  0
 55187  1  0  0  0  0
 55188  1  0  0  0  0
 56 57  1  0  0  0  0
 56189  1  0  0  0  0
 56190  1  0  0  0  0
 57 58  1  0  0  0  0
 57191  1  0  0  0  0
 57192  1  0  0  0  0
 58 59  1  0  0  0  0
 58193  1  0  0  0  0
 58194  1  0  0  0  0
 59 60  1  0  0  0  0
 59195  1  0  0  0  0
 59196  1  0  0  0  0
 60 61  1  0  0  0  0
 60197  1  0  0  0  0
 60198  1  0  0  0  0
 61 62  1  0  0  0  0
 61199  1  0  0  0  0
 61200  1  0  0  0  0
 62 63  1  0  0  0  0
 62201  1  0  0  0  0
 62202  1  0  0  0  0
 63 64  1  0  0  0  0
 63203  1  0  0  0  0
 63204  1  0  0  0  0
 64 65  1  0  0  0  0
 64205  1  0  0  0  0
 64206  1  0  0  0  0
 65 66  1  0  0  0  0
 65207  1  0  0  0  0
 65208  1  0  0  0  0
 66 67  1  0  0  0  0
 66209  1  0  0  0  0
 66210  1  0  0  0  0
 67 68  1  0  0  0  0
 67211  1  0  0  0  0
 67212  1  0  0  0  0
 68 69  1  0  0  0  0
 68213  1  0  0  0  0
 68214  1  0  0  0  0
 69 70  1  0  0  0  0
 69215  1  0  0  0  0
 69216  1  0  0  0  0
 70 71  1  0  0  0  0
 70217  1  0  0  0  0
 70218  1  0  0  0  0
 71 72  1  0  0  0  0
 71219  1  0  0  0  0
 71220  1  0  0  0  0
 72 73  1  0  0  0  0
 72221  1  0  0  0  0
 72222  1  0  0  0  0
 73 74  1  0  0  0  0
 73223  1  0  0  0  0
 73224  1  0  0  0  0
 74 75  1  0  0  0  0
 74225  1  0  0  0  0
 74226  1  0  0  0  0
 75 76  1  0  0  0  0
 75227  1  0  0  0  0
 75228  1  0  0  0  0
 76 77  1  0  0  0  0
 76229  1  0  0  0  0
 76230  1  0  0  0  0
 77 78  1  0  0  0  0
 77231  1  0  0  0  0
 77232  1  0  0  0  0
 78 79  1  0  0  0  0
 78233  1  0  0  0  0
 78234  1  0  0  0  0
 79235  1  0  0  0  0
 79236  1  0  0  0  0
 79237  1  0  0  0  0
M  END
$$$$
