
 OpenBabel04232216533D

131130  0  0  0  0  0  0  0  0999 V2000
    0.8873    0.1171    0.0673 C   0  0  0  0  0  0  0  0  0  0  0  0
    2.3940    0.1146    0.0654 C   0  0  0  0  0  0  0  0  0  0  0  0
    2.9223   -1.2722   -0.2164 C   0  0  0  0  0  0  0  0  0  0  0  0
    4.4458   -1.2779   -0.2159 C   0  0  0  0  0  0  0  0  0  0  0  0
    4.9479   -2.6763   -0.4916 C   0  0  0  0  0  0  0  0  0  0  0  0
    6.4627   -2.6823   -0.4908 C   0  0  0  0  0  0  0  0  0  0  0  0
    6.9576   -4.0788   -0.7861 C   0  0  0  0  0  0  0  0  0  0  0  0
    8.4687   -4.0593   -0.7813 C   0  0  0  0  0  0  0  0  0  0  0  0
    8.9674   -5.4470   -1.0633 C   0  0  0  0  0  0  0  0  0  0  0  0
   10.4674   -5.4207   -1.0479 C   0  0  0  0  0  0  0  0  0  0  0  0
   10.9606   -6.7963   -1.3509 C   0  0  0  0  0  0  0  0  0  0  0  0
   12.4528   -6.7412   -1.3268 C   0  0  0  0  0  0  0  0  0  0  0  0
   12.8227   -8.0647   -1.5835 O   0  0  0  0  0  0  0  0  0  0  0  0
   14.2282   -8.1579   -1.5933 C   0  0  0  0  0  0  0  0  0  0  0  0
   14.4873   -9.4806   -1.9325 O   0  0  0  0  0  0  0  0  0  0  0  0
   15.8866   -9.4836   -2.1489 O   0  0  0  0  0  0  0  0  0  0  0  0
   16.3793  -10.7886   -1.8846 O   0  0  0  0  0  0  0  0  0  0  0  0
   17.7860  -10.7064   -1.8367 O   0  0  0  0  0  0  0  0  0  0  0  0
   18.3785  -11.7448   -2.6036 O   0  0  0  0  0  0  0  0  0  0  0  0
   19.7183  -11.8447   -2.1367 O   0  0  0  0  0  0  0  0  0  0  0  0
   20.2005  -13.1730   -2.2450 O   0  0  0  0  0  0  0  0  0  0  0  0
   21.3947  -13.1280   -3.0312 O   0  0  0  0  0  0  0  0  0  0  0  0
   21.9386  -14.4373   -3.1542 O   0  0  0  0  0  0  0  0  0  0  0  0
   23.1580  -14.5249   -2.4046 O   0  0  0  0  0  0  0  0  0  0  0  0
   23.8068  -15.7646   -2.7115 O   0  0  0  0  0  0  0  0  0  0  0  0
   24.9869  -15.5224   -3.4955 O   0  0  0  0  0  0  0  0  0  0  0  0
   25.6510  -16.7692   -3.7564 O   0  0  0  0  0  0  0  0  0  0  0  0
   26.7949  -16.9039   -2.8922 O   0  0  0  0  0  0  0  0  0  0  0  0
   27.4384  -18.1664   -3.1317 O   0  0  0  0  0  0  0  0  0  0  0  0
   28.5589  -17.9807   -4.0185 O   0  0  0  0  0  0  0  0  0  0  0  0
   29.1760  -19.2483   -4.2948 O   0  0  0  0  0  0  0  0  0  0  0  0
   30.2656  -19.4668   -3.3777 O   0  0  0  0  0  0  0  0  0  0  0  0
   30.8863  -20.7322   -3.6527 O   0  0  0  0  0  0  0  0  0  0  0  0
   32.0217  -20.5342   -4.5144 O   0  0  0  0  0  0  0  0  0  0  0  0
   32.6710  -21.7896   -4.7609 O   0  0  0  0  0  0  0  0  0  0  0  0
   33.8647  -21.8704   -3.9671 O   0  0  0  0  0  0  0  0  0  0  0  0
   34.4959  -23.1416   -4.1600 O   0  0  0  0  0  0  0  0  0  0  0  0
   35.7208  -22.9420   -4.8737 O   0  0  0  0  0  0  0  0  0  0  0  0
   36.2891  -24.1996   -5.2405 O   0  0  0  0  0  0  0  0  0  0  0  0
   37.5479  -24.3209   -4.5808 O   0  0  0  0  0  0  0  0  0  0  0  0
   38.0662  -25.6354   -4.7384 O   0  0  0  0  0  0  0  0  0  0  0  0
   39.3591  -25.5128   -5.3166 O   0  0  0  0  0  0  0  0  0  0  0  0
   39.8523  -26.7863   -5.6859 O   0  0  0  0  0  0  0  0  0  0  0  0
   41.1363  -26.9240   -5.1004 O   0  0  0  0  0  0  0  0  0  0  0  0
   41.6169  -28.2287   -5.3290 O   0  0  0  0  0  0  0  0  0  0  0  0
   42.9390  -28.1167   -5.8195 O   0  0  0  0  0  0  0  0  0  0  0  0
   43.4477  -29.4165   -6.0041 O   0  0  0  0  0  0  0  0  0  0  0  0
   44.8259  -29.2408   -5.8676 C   0  0  0  0  0  0  0  0  0  0  0  0
   45.3141  -30.6174   -6.1210 C   0  0  0  0  0  0  0  0  0  0  0  0
   46.7999  -30.5758   -6.1256 C   0  0  0  0  0  0  0  0  0  0  0  0
   47.2222  -31.9758   -6.4040 C   0  0  0  0  0  0  0  0  0  0  0  0
   48.6993  -31.9937   -6.4010 C   0  0  0  0  0  0  0  0  0  0  0  0
   49.0254  -33.3256   -6.6521 O   0  0  0  0  0  0  0  0  0  0  0  0
   50.4285  -33.3214   -6.4981 O   0  0  0  0  0  0  0  0  0  0  0  0
   50.9204  -34.5174   -7.0417 O   0  0  0  0  0  0  0  0  0  0  0  0
   52.3261  -34.4592   -6.9883 O   0  0  0  0  0  0  0  0  0  0  0  0
   52.6848  -35.7930   -7.1849 C   0  0  0  0  0  0  0  0  0  0  0  0
   54.1702  -35.7394   -7.1669 C   0  0  0  0  0  0  0  0  0  0  0  0
   54.6475  -37.1214   -7.4471 C   0  0  0  0  0  0  0  0  0  0  0  0
   56.1363  -37.0743   -7.4303 C   0  0  0  0  0  0  0  0  0  0  0  0
   56.5928  -38.4632   -7.7123 C   0  0  0  0  0  0  0  0  0  0  0  0
   58.0776  -38.4570   -7.7092 C   0  0  0  0  0  0  0  0  0  0  0  0
   58.4021  -39.7917   -7.9487 O   0  0  0  0  0  0  0  0  0  0  0  0
   59.8077  -39.7495   -8.0857 O   0  0  0  0  0  0  0  0  0  0  0  0
   60.2755  -41.0763   -8.1536 O   0  0  0  0  0  0  0  0  0  0  0  0
   61.6839  -41.0514   -8.1309 O   0  0  0  0  0  0  0  0  0  0  0  0
   62.1496  -42.2898   -8.6235 O   0  0  0  0  0  0  0  0  0  0  0  0
   63.5591  -42.2817   -8.5734 O   0  0  0  0  0  0  0  0  0  0  0  0
   64.0229  -43.6162   -8.6496 O   0  0  0  0  0  0  0  0  0  0  0  0
   65.4333  -43.5811   -8.7539 O   0  0  0  0  0  0  0  0  0  0  0  0
   65.9035  -44.8488   -9.1820 O   0  0  0  0  0  0  0  0  0  0  0  0
   67.3151  -44.8680   -9.0250 O   0  0  0  0  0  0  0  0  0  0  0  0
   67.7945  -46.2009   -9.1561 O   0  0  0  0  0  0  0  0  0  0  0  0
   69.2005  -46.1520   -9.3982 O   0  0  0  0  0  0  0  0  0  0  0  0
   69.6768  -47.4543   -9.7364 O   0  0  0  0  0  0  0  0  0  0  0  0
   71.0742  -47.5474   -9.4236 O   0  0  0  0  0  0  0  0  0  0  0  0
   71.5357  -48.8736   -9.7139 O   0  0  0  0  0  0  0  0  0  0  0  0
   72.8733  -48.8415  -10.2448 O   0  0  0  0  0  0  0  0  0  0  0  0
   73.4392  -50.1694  -10.1794 O   0  0  0  0  0  0  0  0  0  0  0  0
   74.8773  -50.1095  -10.0688 O   0  0  0  0  0  0  0  0  0  0  0  0
   75.2720  -49.7322   -8.7283 O   0  0  0  0  0  0  0  0  0  0  0  0
    0.5266    1.1227    0.2679 H   0  0  0  0  0  0  0  0  0  0  0  0
    0.5018   -0.5530    0.8425 H   0  0  0  0  0  0  0  0  0  0  0  0
    0.5038   -0.2026   -0.9074 H   0  0  0  0  0  0  0  0  0  0  0  0
    2.7834    0.4627    1.0379 H   0  0  0  0  0  0  0  0  0  0  0  0
    2.7836    0.8104   -0.6913 H   0  0  0  0  0  0  0  0  0  0  0  0
    2.5362   -1.6277   -1.1901 H   0  0  0  0  0  0  0  0  0  0  0  0
    2.5237   -1.9323    0.5307 H   0  0  0  0  0  0  0  0  0  0  0  0
    4.8319   -0.9460    0.7542 H   0  0  0  0  0  0  0  0  0  0  0  0
    4.8359   -0.5970   -0.9792 H   0  0  0  0  0  0  0  0  0  0  0  0
    4.5828   -3.0346   -1.4579 H   0  0  0  0  0  0  0  0  0  0  0  0
    4.5877   -3.3844    0.2653 H   0  0  0  0  0  0  0  0  0  0  0  0
    6.8507   -2.3523    0.4787 H   0  0  0  0  0  0  0  0  0  0  0  0
    6.8558   -1.9992   -1.2555 H   0  0  0  0  0  0  0  0  0  0  0  0
    6.5821   -4.4128   -1.7656 H   0  0  0  0  0  0  0  0  0  0  0  0
    6.5952   -4.7874   -0.0327 H   0  0  0  0  0  0  0  0  0  0  0  0
    8.8570   -3.7194    0.1901 H   0  0  0  0  0  0  0  0  0  0  0  0
    8.8561   -3.3673   -1.5431 H   0  0  0  0  0  0  0  0  0  0  0  0
    8.6270   -5.7710   -2.0506 H   0  0  0  0  0  0  0  0  0  0  0  0
    8.5942   -6.1666   -0.3239 H   0  0  0  0  0  0  0  0  0  0  0  0
   10.8367   -5.0783   -0.0740 H   0  0  0  0  0  0  0  0  0  0  0  0
   10.8439   -4.7151   -1.7983 H   0  0  0  0  0  0  0  0  0  0  0  0
   10.6094   -7.1553   -2.3273 H   0  0  0  0  0  0  0  0  0  0  0  0
   10.6014   -7.5281   -0.6152 H   0  0  0  0  0  0  0  0  0  0  0  0
   12.8296   -6.4216   -0.3490 H   0  0  0  0  0  0  0  0  0  0  0  0
   12.8513   -6.0523   -2.1088 H   0  0  0  0  0  0  0  0  0  0  0  0
   14.6350   -7.9104   -0.6079 H   0  0  0  0  0  0  0  0  0  0  0  0
   14.6443   -7.4800   -2.3419 H   0  0  0  0  0  0  0  0  0  0  0  0
   45.0881  -28.8969   -4.8604 H   0  0  0  0  0  0  0  0  0  0  0  0
   45.1968  -28.5283   -6.6162 H   0  0  0  0  0  0  0  0  0  0  0  0
   44.9230  -30.9821   -7.0798 H   0  0  0  0  0  0  0  0  0  0  0  0
   44.9274  -31.3076   -5.3589 H   0  0  0  0  0  0  0  0  0  0  0  0
   47.1723  -30.2355   -5.1465 H   0  0  0  0  0  0  0  0  0  0  0  0
   47.1717  -29.8794   -6.8884 H   0  0  0  0  0  0  0  0  0  0  0  0
   46.8325  -32.3227   -7.3724 H   0  0  0  0  0  0  0  0  0  0  0  0
   46.8382  -32.6749   -5.6497 H   0  0  0  0  0  0  0  0  0  0  0  0
   49.0952  -31.6858   -5.4264 H   0  0  0  0  0  0  0  0  0  0  0  0
   49.1168  -31.3470   -7.1760 H   0  0  0  0  0  0  0  0  0  0  0  0
   52.3019  -36.1428   -8.1494 H   0  0  0  0  0  0  0  0  0  0  0  0
   52.2940  -36.4275   -6.3846 H   0  0  0  0  0  0  0  0  0  0  0  0
   54.5297  -35.3788   -6.1953 H   0  0  0  0  0  0  0  0  0  0  0  0
   54.5364  -35.0236   -7.9117 H   0  0  0  0  0  0  0  0  0  0  0  0
   54.2782  -37.4653   -8.4219 H   0  0  0  0  0  0  0  0  0  0  0  0
   54.2747  -37.8206   -6.6873 H   0  0  0  0  0  0  0  0  0  0  0  0
   56.5095  -36.7347   -6.4546 H   0  0  0  0  0  0  0  0  0  0  0  0
   56.5191  -36.3757   -8.1905 H   0  0  0  0  0  0  0  0  0  0  0  0
   56.2196  -38.8192   -8.6762 H   0  0  0  0  0  0  0  0  0  0  0  0
   56.2113  -39.1747   -6.9589 H   0  0  0  0  0  0  0  0  0  0  0  0
   58.4842  -38.1335   -6.7439 H   0  0  0  0  0  0  0  0  0  0  0  0
   58.4769  -37.8187   -8.5068 H   0  0  0  0  0  0  0  0  0  0  0  0
   76.1904  -49.5181   -8.9623 H   0  0  0  0  0  0  0  0  0  0  0  0
  1  2  1  0  0  0  0
  1 82  1  0  0  0  0
  1 83  1  0  0  0  0
  1 84  1  0  0  0  0
  2  3  1  0  0  0  0
  2 85  1  0  0  0  0
  2 86  1  0  0  0  0
  3  4  1  0  0  0  0
  3 87  1  0  0  0  0
  3 88  1  0  0  0  0
  4  5  1  0  0  0  0
  4 89  1  0  0  0  0
  4 90  1  0  0  0  0
  5  6  1  0  0  0  0
  5 91  1  0  0  0  0
  5 92  1  0  0  0  0
  6  7  1  0  0  0  0
  6 93  1  0  0  0  0
  6 94  1  0  0  0  0
  7  8  1  0  0  0  0
  7 95  1  0  0  0  0
  7 96  1  0  0  0  0
  8  9  1  0  0  0  0
  8 97  1  0  0  0  0
  8 98  1  0  0  0  0
  9 10  1  0  0  0  0
  9 99  1  0  0  0  0
  9100  1  0  0  0  0
 10 11  1  0  0  0  0
 10101  1  0  0  0  0
 10102  1  0  0  0  0
 11 12  1  0  0  0  0
 11103  1  0  0  0  0
 11104  1  0  0  0  0
 12 13  1  0  0  0  0
 12105  1  0  0  0  0
 12106  1  0  0  0  0
 13 14  1  0  0  0  0
 14 15  1  0  0  0  0
 14107  1  0  0  0  0
 14108  1  0  0  0  0
 15 16  1  0  0  0  0
 16 17  1  0  0  0  0
 17 18  1  0  0  0  0
 18 19  1  0  0  0  0
 19 20  1  0  0  0  0
 20 21  1  0  0  0  0
 21 22  1  0  0  0  0
 22 23  1  0  0  0  0
 23 24  1  0  0  0  0
 24 25  1  0  0  0  0
 25 26  1  0  0  0  0
 26 27  1  0  0  0  0
 27 28  1  0  0  0  0
 28 29  1  0  0  0  0
 29 30  1  0  0  0  0
 30 31  1  0  0  0  0
 31 32  1  0  0  0  0
 32 33  1  0  0  0  0
 33 34  1  0  0  0  0
 34 35  1  0  0  0  0
 35 36  1  0  0  0  0
 36 37  1  0  0  0  0
 37 38  1  0  0  0  0
 38 39  1  0  0  0  0
 39 40  1  0  0  0  0
 40 41  1  0  0  0  0
 41 42  1  0  0  0  0
 42 43  1  0  0  0  0
 43 44  1  0  0  0  0
 44 45  1  0  0  0  0
 45 46  1  0  0  0  0
 46 47  1  0  0  0  0
 47 48  1  0  0  0  0
 48 49  1  0  0  0  0
 48109  1  0  0  0  0
 48110  1  0  0  0  0
 49 50  1  0  0  0  0
 49111  1  0  0  0  0
 49112  1  0  0  0  0
 50 51  1  0  0  0  0
 50113  1  0  0  0  0
 50114  1  0  0  0  0
 51 52  1  0  0  0  0
 51115  1  0  0  0  0
 51116  1  0  0  0  0
 52 53  1  0  0  0  0
 52117  1  0  0  0  0
 52118  1  0  0  0  0
 53 54  1  0  0  0  0
 54 55  1  0  0  0  0
 55 56  1  0  0  0  0
 56 57  1  0  0  0  0
 57 58  1  0  0  0  0
 57119  1  0  0  0  0
 57120  1  0  0  0  0
 58 59  1  0  0  0  0
 58121  1  0  0  0  0
 58122  1  0  0  0  0
 59 60  1  0  0  0  0
 59123  1  0  0  0  0
 59124  1  0  0  0  0
 60 61  1  0  0  0  0
 60125  1  0  0  0  0
 60126  1  0  0  0  0
 61 62  1  0  0  0  0
 61127  1  0  0  0  0
 61128  1  0  0  0  0
 62 63  1  0  0  0  0
 62129  1  0  0  0  0
 62130  1  0  0  0  0
 63 64  1  0  0  0  0
 64 65  1  0  0  0  0
 65 66  1  0  0  0  0
 66 67  1  0  0  0  0
 67 68  1  0  0  0  0
 68 69  1  0  0  0  0
 69 70  1  0  0  0  0
 70 71  1  0  0  0  0
 71 72  1  0  0  0  0
 72 73  1  0  0  0  0
 73 74  1  0  0  0  0
 74 75  1  0  0  0  0
 75 76  1  0  0  0  0
 76 77  1  0  0  0  0
 77 78  1  0  0  0  0
 78 79  1  0  0  0  0
 79 80  1  0  0  0  0
 80 81  1  0  0  0  0
 81131  1  0  0  0  0
M  END
$$$$
