
 OpenBabel04232216513D

 31 31  0  0  1  0  0  0  0  0999 V2000
    0.9614    0.5722   -0.6396 C   0  0  0  0  0  0  0  0  0  0  0  0
    2.4724    0.4185   -0.5733 C   0  0  0  0  0  0  0  0  0  0  0  0
    2.9078   -0.9804   -1.0182 C   0  0  0  0  0  0  0  0  0  0  0  0
    4.4233   -1.1318   -0.9252 C   0  0  3  0  0  0  0  0  0  0  0  0
    5.0078   -2.4088   -1.3677 C   0  0  3  0  0  3  0  0  0  0  0  0
    4.2322   -3.5355   -1.9697 C   0  0  0  0  0  0  0  0  0  0  0  0
    5.0774   -4.7806   -2.2515 C   0  0  0  0  0  0  0  0  0  0  0  0
    5.6641   -5.3965   -0.9797 C   0  0  0  0  0  0  0  0  0  0  0  0
    6.4766   -6.6425   -1.2888 C   0  0  0  0  0  0  0  0  0  0  0  0
    6.0373   -1.6904   -2.1251 C   0  0  0  0  0  0  0  0  0  0  0  0
    5.2249   -0.4802   -1.9739 C   0  0  0  0  0  3  0  0  0  0  0  0
    0.6650    1.5737   -0.3069 H   0  0  0  0  0  0  0  0  0  0  0  0
    0.4626   -0.1591    0.0041 H   0  0  0  0  0  0  0  0  0  0  0  0
    0.5991    0.4342   -1.6626 H   0  0  0  0  0  0  0  0  0  0  0  0
    2.8099    0.6057    0.4525 H   0  0  0  0  0  0  0  0  0  0  0  0
    2.9401    1.1815   -1.2048 H   0  0  0  0  0  0  0  0  0  0  0  0
    2.5434   -1.1766   -2.0347 H   0  0  0  0  0  0  0  0  0  0  0  0
    2.4307   -1.7177   -0.3588 H   0  0  0  0  0  0  0  0  0  0  0  0
    4.7826   -0.8645    0.0805 H   0  0  0  0  0  0  0  0  0  0  0  0
    3.7834   -3.1995   -2.9127 H   0  0  0  0  0  0  0  0  0  0  0  0
    3.4049   -3.8077   -1.3040 H   0  0  0  0  0  0  0  0  0  0  0  0
    5.8842   -4.5363   -2.9536 H   0  0  0  0  0  0  0  0  0  0  0  0
    4.4426   -5.5224   -2.7524 H   0  0  0  0  0  0  0  0  0  0  0  0
    4.8536   -5.6549   -0.2889 H   0  0  0  0  0  0  0  0  0  0  0  0
    6.3100   -4.6742   -0.4691 H   0  0  0  0  0  0  0  0  0  0  0  0
    5.8661   -7.3958   -1.7973 H   0  0  0  0  0  0  0  0  0  0  0  0
    6.8581   -7.0821   -0.3621 H   0  0  0  0  0  0  0  0  0  0  0  0
    7.3320   -6.4026   -1.9284 H   0  0  0  0  0  0  0  0  0  0  0  0
    6.1774   -2.0193   -3.1575 H   0  0  0  0  0  0  0  0  0  0  0  0
    7.0036   -1.6387   -1.6172 H   0  0  0  0  0  0  0  0  0  0  0  0
    4.8153    0.0625   -2.8149 H   0  0  0  0  0  0  0  0  0  0  0  0
  1  2  1  0  0  0  0
  1 12  1  0  0  0  0
  1 13  1  0  0  0  0
  1 14  1  0  0  0  0
  2  3  1  0  0  0  0
  2 15  1  0  0  0  0
  2 16  1  0  0  0  0
  3  4  1  0  0  0  0
  3 17  1  0  0  0  0
  3 18  1  0  0  0  0
  4  5  1  0  0  0  0
  4 11  1  0  0  0  0
  4 19  1  0  0  0  0
  5  6  1  0  0  0  0
  5 10  1  0  0  0  0
  6  7  1  0  0  0  0
  6 20  1  0  0  0  0
  6 21  1  0  0  0  0
  7  8  1  0  0  0  0
  7 22  1  0  0  0  0
  7 23  1  0  0  0  0
  8  9  1  0  0  0  0
  8 24  1  0  0  0  0
  8 25  1  0  0  0  0
  9 26  1  0  0  0  0
  9 27  1  0  0  0  0
  9 28  1  0  0  0  0
 10 11  1  0  0  0  0
 10 29  1  0  0  0  0
 10 30  1  0  0  0  0
 11 31  1  0  0  0  0
M  END
$$$$
