
 OpenBabel04232216533D

241240  0  0  0  0  0  0  0  0999 V2000
    1.0240    0.1733    0.1780 C   0  0  0  0  0  0  0  0  0  0  0  0
    2.5411    0.1611    0.1801 C   0  0  0  0  0  0  0  0  0  0  0  0
    3.0685   -0.4880    1.4543 C   0  0  0  0  0  0  0  0  0  0  0  0
    4.5951   -0.5051    1.4622 C   0  0  0  0  0  0  0  0  0  0  0  0
    5.1156   -1.1555    2.7412 C   0  0  0  0  0  0  0  0  0  0  0  0
    6.5793   -1.1767    2.7401 N   0  0  0  0  0  0  0  0  0  0  0  0
    7.0298   -1.7889    3.9317 N   0  0  0  0  0  0  0  0  0  0  0  0
    8.4293   -1.7797    3.9154 N   0  0  0  0  0  0  0  0  0  0  0  0
    8.8999   -2.3778    5.1075 N   0  0  0  0  0  0  0  0  0  0  0  0
   10.3552   -2.3916    5.0831 C   0  0  0  0  0  0  0  0  0  0  0  0
   10.8781   -3.0441    6.3616 C   0  0  0  0  0  0  0  0  0  0  0  0
   12.4021   -3.0623    6.3674 C   0  0  0  0  0  0  0  0  0  0  0  0
   12.9193   -3.7097    7.6422 C   0  0  0  0  0  0  0  0  0  0  0  0
   14.4382   -3.7240    7.6437 C   0  0  0  0  0  0  0  0  0  0  0  0
   14.9504   -4.3709    8.9177 C   0  0  0  0  0  0  0  0  0  0  0  0
   16.4675   -4.3826    8.9184 C   0  0  0  0  0  0  0  0  0  0  0  0
   16.9782   -5.0276   10.1928 C   0  0  0  0  0  0  0  0  0  0  0  0
   18.4948   -5.0406   10.1920 C   0  0  0  0  0  0  0  0  0  0  0  0
   19.0051   -5.6837   11.4671 C   0  0  0  0  0  0  0  0  0  0  0  0
   20.5216   -5.6951   11.4671 C   0  0  0  0  0  0  0  0  0  0  0  0
   21.0318   -6.3398   12.7413 C   0  0  0  0  0  0  0  0  0  0  0  0
   22.5482   -6.3529   12.7404 C   0  0  0  0  0  0  0  0  0  0  0  0
   23.0584   -6.9960   14.0154 C   0  0  0  0  0  0  0  0  0  0  0  0
   24.5748   -7.0073   14.0155 C   0  0  0  0  0  0  0  0  0  0  0  0
   25.0851   -7.6502   15.2905 C   0  0  0  0  0  0  0  0  0  0  0  0
   26.6015   -7.6598   15.2914 C   0  0  0  0  0  0  0  0  0  0  0  0
   27.1117   -8.3027   16.5665 C   0  0  0  0  0  0  0  0  0  0  0  0
   28.6281   -8.3122   16.5674 C   0  0  0  0  0  0  0  0  0  0  0  0
   29.1384   -8.9552   17.8424 C   0  0  0  0  0  0  0  0  0  0  0  0
   30.6547   -8.9647   17.8433 C   0  0  0  0  0  0  0  0  0  0  0  0
   31.1650   -9.6077   19.1183 C   0  0  0  0  0  0  0  0  0  0  0  0
   32.6814   -9.6172   19.1193 C   0  0  0  0  0  0  0  0  0  0  0  0
   33.1916  -10.2602   20.3943 C   0  0  0  0  0  0  0  0  0  0  0  0
   34.7080  -10.2679   20.3961 C   0  0  0  0  0  0  0  0  0  0  0  0
   35.2183  -10.9109   21.6711 C   0  0  0  0  0  0  0  0  0  0  0  0
   36.7347  -10.9168   21.6739 C   0  0  0  0  0  0  0  0  0  0  0  0
   37.2449  -11.5580   22.9498 C   0  0  0  0  0  0  0  0  0  0  0  0
   38.7613  -11.5621   22.9534 C   0  0  0  0  0  0  0  0  0  0  0  0
   39.2716  -12.2050   24.2285 C   0  0  0  0  0  0  0  0  0  0  0  0
   40.7880  -12.2074   24.2330 C   0  0  0  0  0  0  0  0  0  0  0  0
   41.2982  -12.8486   25.5090 C   0  0  0  0  0  0  0  0  0  0  0  0
   42.8147  -12.8508   25.5135 C   0  0  0  0  0  0  0  0  0  0  0  0
   43.3249  -13.4920   26.7894 C   0  0  0  0  0  0  0  0  0  0  0  0
   44.8413  -13.4943   26.7940 C   0  0  0  0  0  0  0  0  0  0  0  0
   45.3516  -14.1355   28.0699 C   0  0  0  0  0  0  0  0  0  0  0  0
   46.8680  -14.1378   28.0745 C   0  0  0  0  0  0  0  0  0  0  0  0
   47.3782  -14.7790   29.3504 C   0  0  0  0  0  0  0  0  0  0  0  0
   48.8946  -14.7813   29.3549 C   0  0  0  0  0  0  0  0  0  0  0  0
   49.4049  -15.4225   30.6309 C   0  0  0  0  0  0  0  0  0  0  0  0
   50.9213  -15.4230   30.6363 C   0  0  0  0  0  0  0  0  0  0  0  0
   51.4316  -16.0642   31.9122 C   0  0  0  0  0  0  0  0  0  0  0  0
   52.9480  -16.0628   31.9186 C   0  0  0  0  0  0  0  0  0  0  0  0
   53.4582  -16.7023   33.1954 C   0  0  0  0  0  0  0  0  0  0  0  0
   54.9746  -16.6991   33.2027 C   0  0  0  0  0  0  0  0  0  0  0  0
   55.4849  -17.3403   34.4787 C   0  0  0  0  0  0  0  0  0  0  0  0
   57.0012  -17.3354   34.4868 C   0  0  0  0  0  0  0  0  0  0  0  0
   57.5115  -17.9783   35.7619 C   0  0  0  0  0  0  0  0  0  0  0  0
   59.0279  -17.9752   35.7691 C   0  0  0  0  0  0  0  0  0  0  0  0
   59.5382  -18.6182   37.0441 C   0  0  0  0  0  0  0  0  0  0  0  0
   61.0546  -18.6169   37.0505 C   0  0  0  0  0  0  0  0  0  0  0  0
   61.5648  -19.2599   38.3255 C   0  0  0  0  0  0  0  0  0  0  0  0
   63.0812  -19.2586   38.3319 C   0  0  0  0  0  0  0  0  0  0  0  0
   63.5915  -19.9016   39.6069 C   0  0  0  0  0  0  0  0  0  0  0  0
   65.1079  -19.9003   39.6132 C   0  0  0  0  0  0  0  0  0  0  0  0
   65.6182  -20.5433   40.8882 C   0  0  0  0  0  0  0  0  0  0  0  0
   67.1346  -20.5420   40.8946 C   0  0  0  0  0  0  0  0  0  0  0  0
   67.6449  -21.1850   42.1696 C   0  0  0  0  0  0  0  0  0  0  0  0
   69.1612  -21.1836   42.1760 C   0  0  0  0  0  0  0  0  0  0  0  0
   69.6715  -21.8266   43.4510 C   0  0  0  0  0  0  0  0  0  0  0  0
   71.1879  -21.8236   43.4582 C   0  0  0  0  0  0  0  0  0  0  0  0
   71.6982  -22.4665   44.7333 C   0  0  0  0  0  0  0  0  0  0  0  0
   73.2146  -22.4634   44.7405 C   0  0  0  0  0  0  0  0  0  0  0  0
   73.7249  -23.1064   46.0156 C   0  0  0  0  0  0  0  0  0  0  0  0
   75.2414  -23.1033   46.0229 C   0  0  0  0  0  0  0  0  0  0  0  0
   75.7518  -23.7464   47.2981 C   0  0  0  0  0  0  0  0  0  0  0  0
   77.2686  -23.7452   47.3047 C   0  0  0  0  0  0  0  0  0  0  0  0
   77.7802  -24.3884   48.5800 C   0  0  0  0  0  0  0  0  0  0  0  0
   79.2984  -24.3875   48.5873 C   0  0  0  0  0  0  0  0  0  0  0  0
   79.8127  -25.0291   49.8641 C   0  0  0  0  0  0  0  0  0  0  0  0
   81.3336  -25.0303   49.8799 C   0  0  0  0  0  0  0  0  0  0  0  0
   81.8435  -25.6710   51.1549 C   0  0  0  0  0  0  0  0  0  0  0  0
    0.6477    0.6397   -0.7365 H   0  0  0  0  0  0  0  0  0  0  0  0
    0.6409    0.7362    1.0352 H   0  0  0  0  0  0  0  0  0  0  0  0
    0.6293   -0.8464    0.2328 H   0  0  0  0  0  0  0  0  0  0  0  0
    2.9162    1.1882    0.1022 H   0  0  0  0  0  0  0  0  0  0  0  0
    2.9046   -0.3879   -0.6964 H   0  0  0  0  0  0  0  0  0  0  0  0
    2.6841   -1.5129    1.5319 H   0  0  0  0  0  0  0  0  0  0  0  0
    2.6990    0.0625    2.3286 H   0  0  0  0  0  0  0  0  0  0  0  0
    4.9713    0.5220    1.3817 H   0  0  0  0  0  0  0  0  0  0  0  0
    4.9562   -1.0572    0.5852 H   0  0  0  0  0  0  0  0  0  0  0  0
    4.7296   -2.1822    2.7942 H   0  0  0  0  0  0  0  0  0  0  0  0
    4.7332   -0.6072    3.6114 H   0  0  0  0  0  0  0  0  0  0  0  0
    6.9566   -0.2327    2.7287 H   0  0  0  0  0  0  0  0  0  0  0  0
    6.7033   -2.7520    3.9938 H   0  0  0  0  0  0  0  0  0  0  0  0
    8.7428   -0.8166    3.8348 H   0  0  0  0  0  0  0  0  0  0  0  0
    8.5353   -3.3282    5.1143 H   0  0  0  0  0  0  0  0  0  0  0  0
   10.7433   -1.3669    5.0282 H   0  0  0  0  0  0  0  0  0  0  0  0
   10.7346   -2.9456    4.2150 H   0  0  0  0  0  0  0  0  0  0  0  0
   10.5030   -4.0720    6.4456 H   0  0  0  0  0  0  0  0  0  0  0  0
   10.5193   -2.4937    7.2411 H   0  0  0  0  0  0  0  0  0  0  0  0
   12.7897   -2.0389    6.2913 H   0  0  0  0  0  0  0  0  0  0  0  0
   12.7733   -3.6165    5.4966 H   0  0  0  0  0  0  0  0  0  0  0  0
   12.5396   -4.7357    7.7214 H   0  0  0  0  0  0  0  0  0  0  0  0
   12.5538   -3.1581    8.5170 H   0  0  0  0  0  0  0  0  0  0  0  0
   14.8221   -2.6993    7.5672 H   0  0  0  0  0  0  0  0  0  0  0  0
   14.8081   -4.2770    6.7716 H   0  0  0  0  0  0  0  0  0  0  0  0
   14.5701   -5.3969    8.9950 H   0  0  0  0  0  0  0  0  0  0  0  0
   14.5819   -3.8194    9.7914 H   0  0  0  0  0  0  0  0  0  0  0  0
   16.8492   -3.3572    8.8406 H   0  0  0  0  0  0  0  0  0  0  0  0
   16.8373   -4.9358    8.0463 H   0  0  0  0  0  0  0  0  0  0  0  0
   16.5962   -6.0528   10.2718 H   0  0  0  0  0  0  0  0  0  0  0  0
   16.6102   -4.4737   11.0652 H   0  0  0  0  0  0  0  0  0  0  0  0
   18.8772   -4.0157   10.1118 H   0  0  0  0  0  0  0  0  0  0  0  0
   18.8631   -5.5958    9.3206 H   0  0  0  0  0  0  0  0  0  0  0  0
   18.6240   -6.7092   11.5467 H   0  0  0  0  0  0  0  0  0  0  0  0
   18.6359   -5.1295   12.3387 H   0  0  0  0  0  0  0  0  0  0  0  0
   20.9028   -4.6695   11.3890 H   0  0  0  0  0  0  0  0  0  0  0  0
   20.8910   -6.2481   10.5948 H   0  0  0  0  0  0  0  0  0  0  0  0
   20.6496   -7.3650   12.8202 H   0  0  0  0  0  0  0  0  0  0  0  0
   20.6635   -5.7859   13.6136 H   0  0  0  0  0  0  0  0  0  0  0  0
   22.9305   -5.3279   12.6602 H   0  0  0  0  0  0  0  0  0  0  0  0
   22.9164   -6.9080   11.8689 H   0  0  0  0  0  0  0  0  0  0  0  0
   22.6772   -8.0215   14.0950 H   0  0  0  0  0  0  0  0  0  0  0  0
   22.6891   -6.4417   14.8870 H   0  0  0  0  0  0  0  0  0  0  0  0
   24.9559   -5.9817   13.9359 H   0  0  0  0  0  0  0  0  0  0  0  0
   24.9443   -7.5615   13.1439 H   0  0  0  0  0  0  0  0  0  0  0  0
   24.7050   -8.6762   15.3694 H   0  0  0  0  0  0  0  0  0  0  0  0
   24.7145   -7.0968   16.1621 H   0  0  0  0  0  0  0  0  0  0  0  0
   26.9814   -6.6337   15.2126 H   0  0  0  0  0  0  0  0  0  0  0  0
   26.9720   -8.2131   14.4198 H   0  0  0  0  0  0  0  0  0  0  0  0
   26.7317   -9.3287   16.6453 H   0  0  0  0  0  0  0  0  0  0  0  0
   26.7411   -7.7493   17.4381 H   0  0  0  0  0  0  0  0  0  0  0  0
   29.0081   -7.2862   16.4885 H   0  0  0  0  0  0  0  0  0  0  0  0
   28.9987   -8.8656   15.6958 H   0  0  0  0  0  0  0  0  0  0  0  0
   28.7584   -9.9812   17.9213 H   0  0  0  0  0  0  0  0  0  0  0  0
   28.7678   -8.4018   18.7140 H   0  0  0  0  0  0  0  0  0  0  0  0
   31.0347   -7.9387   17.7645 H   0  0  0  0  0  0  0  0  0  0  0  0
   31.0253   -9.5181   16.9717 H   0  0  0  0  0  0  0  0  0  0  0  0
   30.7850  -10.6337   19.1972 H   0  0  0  0  0  0  0  0  0  0  0  0
   30.7944   -9.0543   19.9900 H   0  0  0  0  0  0  0  0  0  0  0  0
   33.0613   -8.5912   19.0404 H   0  0  0  0  0  0  0  0  0  0  0  0
   33.0520  -10.1706   18.2477 H   0  0  0  0  0  0  0  0  0  0  0  0
   32.8128  -11.2867   20.4725 H   0  0  0  0  0  0  0  0  0  0  0  0
   32.8199   -9.7077   21.2659 H   0  0  0  0  0  0  0  0  0  0  0  0
   35.0868   -9.2414   20.3180 H   0  0  0  0  0  0  0  0  0  0  0  0
   35.0798  -10.8205   19.5244 H   0  0  0  0  0  0  0  0  0  0  0  0
   34.8406  -11.9379   21.7486 H   0  0  0  0  0  0  0  0  0  0  0  0
   34.8453  -10.3592   22.5428 H   0  0  0  0  0  0  0  0  0  0  0  0
   37.1123   -9.8899   21.5951 H   0  0  0  0  0  0  0  0  0  0  0  0
   37.1076  -11.4697   20.8030 H   0  0  0  0  0  0  0  0  0  0  0  0
   36.8684  -12.5854   23.0280 H   0  0  0  0  0  0  0  0  0  0  0  0
   36.8709  -11.0059   23.8208 H   0  0  0  0  0  0  0  0  0  0  0  0
   39.1377  -10.5346   22.8767 H   0  0  0  0  0  0  0  0  0  0  0  0
   39.1355  -12.1129   22.0817 H   0  0  0  0  0  0  0  0  0  0  0  0
   38.8963  -13.2330   24.3045 H   0  0  0  0  0  0  0  0  0  0  0  0
   38.8963  -11.6550   25.1002 H   0  0  0  0  0  0  0  0  0  0  0  0
   41.1633  -11.1795   24.1556 H   0  0  0  0  0  0  0  0  0  0  0  0
   41.1633  -12.7585   23.3620 H   0  0  0  0  0  0  0  0  0  0  0  0
   40.9229  -13.8764   25.5864 H   0  0  0  0  0  0  0  0  0  0  0  0
   40.9230  -12.2973   26.3799 H   0  0  0  0  0  0  0  0  0  0  0  0
   43.1899  -11.8230   25.4361 H   0  0  0  0  0  0  0  0  0  0  0  0
   43.1900  -13.4020   24.6425 H   0  0  0  0  0  0  0  0  0  0  0  0
   42.9496  -14.5199   26.8669 H   0  0  0  0  0  0  0  0  0  0  0  0
   42.9496  -12.9408   27.6604 H   0  0  0  0  0  0  0  0  0  0  0  0
   45.2166  -12.4665   26.7165 H   0  0  0  0  0  0  0  0  0  0  0  0
   45.2166  -14.0455   25.9230 H   0  0  0  0  0  0  0  0  0  0  0  0
   44.9763  -15.1633   28.1474 H   0  0  0  0  0  0  0  0  0  0  0  0
   44.9763  -13.5843   28.9409 H   0  0  0  0  0  0  0  0  0  0  0  0
   47.2433  -13.1099   27.9970 H   0  0  0  0  0  0  0  0  0  0  0  0
   47.2433  -14.6890   27.2035 H   0  0  0  0  0  0  0  0  0  0  0  0
   47.0029  -15.8069   29.4279 H   0  0  0  0  0  0  0  0  0  0  0  0
   47.0029  -14.2278   30.2214 H   0  0  0  0  0  0  0  0  0  0  0  0
   49.2699  -13.7534   29.2775 H   0  0  0  0  0  0  0  0  0  0  0  0
   49.2700  -15.3325   28.4840 H   0  0  0  0  0  0  0  0  0  0  0  0
   49.0307  -16.4508   30.7076 H   0  0  0  0  0  0  0  0  0  0  0  0
   49.0285  -14.8721   31.5019 H   0  0  0  0  0  0  0  0  0  0  0  0
   51.2954  -14.3947   30.5596 H   0  0  0  0  0  0  0  0  0  0  0  0
   51.2978  -15.9733   29.7653 H   0  0  0  0  0  0  0  0  0  0  0  0
   51.0586  -17.0930   31.9883 H   0  0  0  0  0  0  0  0  0  0  0  0
   51.0539  -15.5146   32.7833 H   0  0  0  0  0  0  0  0  0  0  0  0
   53.3209  -15.0342   31.8412 H   0  0  0  0  0  0  0  0  0  0  0  0
   53.3256  -16.6135   31.0483 H   0  0  0  0  0  0  0  0  0  0  0  0
   53.0864  -17.7314   33.2722 H   0  0  0  0  0  0  0  0  0  0  0  0
   53.0795  -16.1524   34.0658 H   0  0  0  0  0  0  0  0  0  0  0  0
   55.3463  -15.6698   33.1274 H   0  0  0  0  0  0  0  0  0  0  0  0
   55.3535  -17.2477   32.3317 H   0  0  0  0  0  0  0  0  0  0  0  0
   55.1142  -18.3700   34.5532 H   0  0  0  0  0  0  0  0  0  0  0  0
   55.1049  -16.7925   35.3499 H   0  0  0  0  0  0  0  0  0  0  0  0
   57.3718  -16.3055   34.4136 H   0  0  0  0  0  0  0  0  0  0  0  0
   57.3812  -17.8819   33.6149 H   0  0  0  0  0  0  0  0  0  0  0  0
   57.1398  -19.0077   35.8357 H   0  0  0  0  0  0  0  0  0  0  0  0
   57.1326  -17.4310   36.6338 H   0  0  0  0  0  0  0  0  0  0  0  0
   59.3997  -16.9458   35.6952 H   0  0  0  0  0  0  0  0  0  0  0  0
   59.4067  -18.5226   34.8972 H   0  0  0  0  0  0  0  0  0  0  0  0
   59.1653  -19.6472   37.1187 H   0  0  0  0  0  0  0  0  0  0  0  0
   59.1605  -18.0700   37.9160 H   0  0  0  0  0  0  0  0  0  0  0  0
   61.4275  -17.5880   36.9759 H   0  0  0  0  0  0  0  0  0  0  0  0
   61.4322  -19.1652   36.1787 H   0  0  0  0  0  0  0  0  0  0  0  0
   61.1919  -20.2888   38.4001 H   0  0  0  0  0  0  0  0  0  0  0  0
   61.1872  -18.7117   39.1974 H   0  0  0  0  0  0  0  0  0  0  0  0
   63.4542  -18.2297   38.2573 H   0  0  0  0  0  0  0  0  0  0  0  0
   63.4589  -19.8069   37.4600 H   0  0  0  0  0  0  0  0  0  0  0  0
   63.2186  -20.9305   39.6815 H   0  0  0  0  0  0  0  0  0  0  0  0
   63.2139  -19.3534   40.4787 H   0  0  0  0  0  0  0  0  0  0  0  0
   65.4808  -18.8714   39.5386 H   0  0  0  0  0  0  0  0  0  0  0  0
   65.4856  -20.4485   38.7414 H   0  0  0  0  0  0  0  0  0  0  0  0
   65.2453  -21.5722   40.9628 H   0  0  0  0  0  0  0  0  0  0  0  0
   65.2405  -19.9950   41.7601 H   0  0  0  0  0  0  0  0  0  0  0  0
   67.5075  -19.5131   40.8200 H   0  0  0  0  0  0  0  0  0  0  0  0
   67.5122  -21.0902   40.0227 H   0  0  0  0  0  0  0  0  0  0  0  0
   67.2719  -22.2139   42.2442 H   0  0  0  0  0  0  0  0  0  0  0  0
   67.2672  -20.6367   43.0414 H   0  0  0  0  0  0  0  0  0  0  0  0
   69.5341  -20.1547   42.1014 H   0  0  0  0  0  0  0  0  0  0  0  0
   69.5389  -21.7319   41.3041 H   0  0  0  0  0  0  0  0  0  0  0  0
   69.2997  -22.8560   43.5249 H   0  0  0  0  0  0  0  0  0  0  0  0
   69.2927  -21.2793   44.3229 H   0  0  0  0  0  0  0  0  0  0  0  0
   71.5597  -20.7942   43.3844 H   0  0  0  0  0  0  0  0  0  0  0  0
   71.5667  -22.3709   42.5863 H   0  0  0  0  0  0  0  0  0  0  0  0
   71.3264  -23.4959   44.8071 H   0  0  0  0  0  0  0  0  0  0  0  0
   71.3194  -21.9191   45.6051 H   0  0  0  0  0  0  0  0  0  0  0  0
   73.5863  -21.4340   44.6667 H   0  0  0  0  0  0  0  0  0  0  0  0
   73.5934  -23.0108   43.8687 H   0  0  0  0  0  0  0  0  0  0  0  0
   73.3531  -24.1358   46.0894 H   0  0  0  0  0  0  0  0  0  0  0  0
   73.3461  -22.5590   46.8875 H   0  0  0  0  0  0  0  0  0  0  0  0
   75.6131  -22.0739   45.9490 H   0  0  0  0  0  0  0  0  0  0  0  0
   75.6201  -23.6507   45.1509 H   0  0  0  0  0  0  0  0  0  0  0  0
   75.3787  -24.7752   47.3725 H   0  0  0  0  0  0  0  0  0  0  0  0
   75.3739  -23.1981   48.1697 H   0  0  0  0  0  0  0  0  0  0  0  0
   77.6410  -22.7161   47.2298 H   0  0  0  0  0  0  0  0  0  0  0  0
   77.6458  -24.2933   46.4326 H   0  0  0  0  0  0  0  0  0  0  0  0
   77.4063  -25.4170   48.6542 H   0  0  0  0  0  0  0  0  0  0  0  0
   77.4015  -23.8399   49.4514 H   0  0  0  0  0  0  0  0  0  0  0  0
   79.6694  -23.3582   48.5104 H   0  0  0  0  0  0  0  0  0  0  0  0
   79.6741  -24.9365   47.7152 H   0  0  0  0  0  0  0  0  0  0  0  0
   79.4370  -26.0572   49.9382 H   0  0  0  0  0  0  0  0  0  0  0  0
   79.4300  -24.4802   50.7335 H   0  0  0  0  0  0  0  0  0  0  0  0
   81.7078  -24.0024   49.8070 H   0  0  0  0  0  0  0  0  0  0  0  0
   81.7148  -25.5800   49.0114 H   0  0  0  0  0  0  0  0  0  0  0  0
   81.4867  -25.1211   52.0316 H   0  0  0  0  0  0  0  0  0  0  0  0
   82.9362  -25.6729   51.1684 H   0  0  0  0  0  0  0  0  0  0  0  0
   81.4937  -26.7054   51.2326 H   0  0  0  0  0  0  0  0  0  0  0  0
  1  2  1  0  0  0  0
  1 82  1  0  0  0  0
  1 83  1  0  0  0  0
  1 84  1  0  0  0  0
  2  3  1  0  0  0  0
  2 85  1  0  0  0  0
  2 86  1  0  0  0  0
  3  4  1  0  0  0  0
  3 87  1  0  0  0  0
  3 88  1  0  0  0  0
  4  5  1  0  0  0  0
  4 89  1  0  0  0  0
  4 90  1  0  0  0  0
  5  6  1  0  0  0  0
  5 91  1  0  0  0  0
  5 92  1  0  0  0  0
  6  7  1  0  0  0  0
  6 93  1  0  0  0  0
  7  8  1  0  0  0  0
  7 94  1  0  0  0  0
  8  9  1  0  0  0  0
  8 95  1  0  0  0  0
  9 10  1  0  0  0  0
  9 96  1  0  0  0  0
 10 11  1  0  0  0  0
 10 97  1  0  0  0  0
 10 98  1  0  0  0  0
 11 12  1  0  0  0  0
 11 99  1  0  0  0  0
 11100  1  0  0  0  0
 12 13  1  0  0  0  0
 12101  1  0  0  0  0
 12102  1  0  0  0  0
 13 14  1  0  0  0  0
 13103  1  0  0  0  0
 13104  1  0  0  0  0
 14 15  1  0  0  0  0
 14105  1  0  0  0  0
 14106  1  0  0  0  0
 15 16  1  0  0  0  0
 15107  1  0  0  0  0
 15108  1  0  0  0  0
 16 17  1  0  0  0  0
 16109  1  0  0  0  0
 16110  1  0  0  0  0
 17 18  1  0  0  0  0
 17111  1  0  0  0  0
 17112  1  0  0  0  0
 18 19  1  0  0  0  0
 18113  1  0  0  0  0
 18114  1  0  0  0  0
 19 20  1  0  0  0  0
 19115  1  0  0  0  0
 19116  1  0  0  0  0
 20 21  1  0  0  0  0
 20117  1  0  0  0  0
 20118  1  0  0  0  0
 21 22  1  0  0  0  0
 21119  1  0  0  0  0
 21120  1  0  0  0  0
 22 23  1  0  0  0  0
 22121  1  0  0  0  0
 22122  1  0  0  0  0
 23 24  1  0  0  0  0
 23123  1  0  0  0  0
 23124  1  0  0  0  0
 24 25  1  0  0  0  0
 24125  1  0  0  0  0
 24126  1  0  0  0  0
 25 26  1  0  0  0  0
 25127  1  0  0  0  0
 25128  1  0  0  0  0
 26 27  1  0  0  0  0
 26129  1  0  0  0  0
 26130  1  0  0  0  0
 27 28  1  0  0  0  0
 27131  1  0  0  0  0
 27132  1  0  0  0  0
 28 29  1  0  0  0  0
 28133  1  0  0  0  0
 28134  1  0  0  0  0
 29 30  1  0  0  0  0
 29135  1  0  0  0  0
 29136  1  0  0  0  0
 30 31  1  0  0  0  0
 30137  1  0  0  0  0
 30138  1  0  0  0  0
 31 32  1  0  0  0  0
 31139  1  0  0  0  0
 31140  1  0  0  0  0
 32 33  1  0  0  0  0
 32141  1  0  0  0  0
 32142  1  0  0  0  0
 33 34  1  0  0  0  0
 33143  1  0  0  0  0
 33144  1  0  0  0  0
 34 35  1  0  0  0  0
 34145  1  0  0  0  0
 34146  1  0  0  0  0
 35 36  1  0  0  0  0
 35147  1  0  0  0  0
 35148  1  0  0  0  0
 36 37  1  0  0  0  0
 36149  1  0  0  0  0
 36150  1  0  0  0  0
 37 38  1  0  0  0  0
 37151  1  0  0  0  0
 37152  1  0  0  0  0
 38 39  1  0  0  0  0
 38153  1  0  0  0  0
 38154  1  0  0  0  0
 39 40  1  0  0  0  0
 39155  1  0  0  0  0
 39156  1  0  0  0  0
 40 41  1  0  0  0  0
 40157  1  0  0  0  0
 40158  1  0  0  0  0
 41 42  1  0  0  0  0
 41159  1  0  0  0  0
 41160  1  0  0  0  0
 42 43  1  0  0  0  0
 42161  1  0  0  0  0
 42162  1  0  0  0  0
 43 44  1  0  0  0  0
 43163  1  0  0  0  0
 43164  1  0  0  0  0
 44 45  1  0  0  0  0
 44165  1  0  0  0  0
 44166  1  0  0  0  0
 45 46  1  0  0  0  0
 45167  1  0  0  0  0
 45168  1  0  0  0  0
 46 47  1  0  0  0  0
 46169  1  0  0  0  0
 46170  1  0  0  0  0
 47 48  1  0  0  0  0
 47171  1  0  0  0  0
 47172  1  0  0  0  0
 48 49  1  0  0  0  0
 48173  1  0  0  0  0
 48174  1  0  0  0  0
 49 50  1  0  0  0  0
 49175  1  0  0  0  0
 49176  1  0  0  0  0
 50 51  1  0  0  0  0
 50177  1  0  0  0  0
 50178  1  0  0  0  0
 51 52  1  0  0  0  0
 51179  1  0  0  0  0
 51180  1  0  0  0  0
 52 53  1  0  0  0  0
 52181  1  0  0  0  0
 52182  1  0  0  0  0
 53 54  1  0  0  0  0
 53183  1  0  0  0  0
 53184  1  0  0  0  0
 54 55  1  0  0  0  0
 54185  1  0  0  0  0
 54186  1  0  0  0  0
 55 56  1  0  0  0  0
 55187  1  0  0  0  0
 55188  1  0  0  0  0
 56 57  1  0  0  0  0
 56189  1  0  0  0  0
 56190  1  0  0  0  0
 57 58  1  0  0  0  0
 57191  1  0  0  0  0
 57192  1  0  0  0  0
 58 59  1  0  0  0  0
 58193  1  0  0  0  0
 58194  1  0  0  0  0
 59 60  1  0  0  0  0
 59195  1  0  0  0  0
 59196  1  0  0  0  0
 60 61  1  0  0  0  0
 60197  1  0  0  0  0
 60198  1  0  0  0  0
 61 62  1  0  0  0  0
 61199  1  0  0  0  0
 61200  1  0  0  0  0
 62 63  1  0  0  0  0
 62201  1  0  0  0  0
 62202  1  0  0  0  0
 63 64  1  0  0  0  0
 63203  1  0  0  0  0
 63204  1  0  0  0  0
 64 65  1  0  0  0  0
 64205  1  0  0  0  0
 64206  1  0  0  0  0
 65 66  1  0  0  0  0
 65207  1  0  0  0  0
 65208  1  0  0  0  0
 66 67  1  0  0  0  0
 66209  1  0  0  0  0
 66210  1  0  0  0  0
 67 68  1  0  0  0  0
 67211  1  0  0  0  0
 67212  1  0  0  0  0
 68 69  1  0  0  0  0
 68213  1  0  0  0  0
 68214  1  0  0  0  0
 69 70  1  0  0  0  0
 69215  1  0  0  0  0
 69216  1  0  0  0  0
 70 71  1  0  0  0  0
 70217  1  0  0  0  0
 70218  1  0  0  0  0
 71 72  1  0  0  0  0
 71219  1  0  0  0  0
 71220  1  0  0  0  0
 72 73  1  0  0  0  0
 72221  1  0  0  0  0
 72222  1  0  0  0  0
 73 74  1  0  0  0  0
 73223  1  0  0  0  0
 73224  1  0  0  0  0
 74 75  1  0  0  0  0
 74225  1  0  0  0  0
 74226  1  0  0  0  0
 75 76  1  0  0  0  0
 75227  1  0  0  0  0
 75228  1  0  0  0  0
 76 77  1  0  0  0  0
 76229  1  0  0  0  0
 76230  1  0  0  0  0
 77 78  1  0  0  0  0
 77231  1  0  0  0  0
 77232  1  0  0  0  0
 78 79  1  0  0  0  0
 78233  1  0  0  0  0
 78234  1  0  0  0  0
 79 80  1  0  0  0  0
 79235  1  0  0  0  0
 79236  1  0  0  0  0
 80 81  1  0  0  0  0
 80237  1  0  0  0  0
 80238  1  0  0  0  0
 81239  1  0  0  0  0
 81240  1  0  0  0  0
 81241  1  0  0  0  0
M  END
$$$$
