
 OpenBabel04232216533D

220219  0  0  0  0  0  0  0  0999 V2000
    0.9769    0.0541   -0.1333 C   0  0  0  0  0  0  0  0  0  0  0  0
    2.4976    0.0693   -0.1201 C   0  0  0  0  0  0  0  0  0  0  0  0
    3.0325    1.3090    0.5929 C   0  0  0  0  0  0  0  0  0  0  0  0
    4.5601    1.3229    0.6044 C   0  0  0  0  0  0  0  0  0  0  0  0
    5.0922    2.5626    1.3219 C   0  0  0  0  0  0  0  0  0  0  0  0
    6.6216    2.5775    1.3322 C   0  0  0  0  0  0  0  0  0  0  0  0
    7.0692    3.7859    2.0031 N   0  0  0  0  0  0  0  0  0  0  0  0
    8.4868    3.7822    2.0099 N   0  0  0  0  0  0  0  0  0  0  0  0
    8.9372    4.9011    2.6984 N   0  0  0  0  0  0  0  0  0  0  0  0
   10.3327    4.9062    2.6682 N   0  0  0  0  0  0  0  0  0  0  0  0
   10.7990    6.0286    3.3793 N   0  0  0  0  0  0  0  0  0  0  0  0
   12.2110    6.0251    3.3817 N   0  0  0  0  0  0  0  0  0  0  0  0
   12.7227    7.2276    3.9687 N   0  0  0  0  0  0  0  0  0  0  0  0
   14.1586    7.2357    4.0002 N   0  0  0  0  0  0  0  0  0  0  0  0
   14.6310    8.3831    4.7029 N   0  0  0  0  0  0  0  0  0  0  0  0
   16.0482    8.4031    4.7001 N   0  0  0  0  0  0  0  0  0  0  0  0
   16.5231    9.5667    5.3737 N   0  0  0  0  0  0  0  0  0  0  0  0
   17.9795    9.5310    5.3564 C   0  0  0  0  0  0  0  0  0  0  0  0
   18.4905   10.7698    6.0774 C   0  0  0  0  0  0  0  0  0  0  0  0
   20.0109   10.7845    6.0801 C   0  0  0  0  0  0  0  0  0  0  0  0
   20.5224   12.0213    6.7986 C   0  0  0  0  0  0  0  0  0  0  0  0
   22.0410   12.0296    6.8022 C   0  0  0  0  0  0  0  0  0  0  0  0
   22.5547   13.2658    7.5188 C   0  0  0  0  0  0  0  0  0  0  0  0
   24.0725   13.2722    7.5209 C   0  0  0  0  0  0  0  0  0  0  0  0
   24.5850   14.5083    8.2369 C   0  0  0  0  0  0  0  0  0  0  0  0
   26.1025   14.5133    8.2397 C   0  0  0  0  0  0  0  0  0  0  0  0
   26.6140   15.7501    8.9556 C   0  0  0  0  0  0  0  0  0  0  0  0
   28.1313   15.7552    8.9586 C   0  0  0  0  0  0  0  0  0  0  0  0
   28.6402   16.9916    9.6750 C   0  0  0  0  0  0  0  0  0  0  0  0
   30.1568   16.9960    9.6780 C   0  0  0  0  0  0  0  0  0  0  0  0
   30.6679   18.2334   10.3938 C   0  0  0  0  0  0  0  0  0  0  0  0
   32.1832   18.2367   10.3956 C   0  0  0  0  0  0  0  0  0  0  0  0
   32.6957   19.4723   11.1128 C   0  0  0  0  0  0  0  0  0  0  0  0
   34.2108   19.4743   11.1145 C   0  0  0  0  0  0  0  0  0  0  0  0
   34.7224   20.7108   11.8305 C   0  0  0  0  0  0  0  0  0  0  0  0
   36.2388   20.7141   11.8340 C   0  0  0  0  0  0  0  0  0  0  0  0
   36.7487   21.9492   12.5517 C   0  0  0  0  0  0  0  0  0  0  0  0
   38.2652   21.9529   12.5550 C   0  0  0  0  0  0  0  0  0  0  0  0
   38.7751   23.1889   13.2709 C   0  0  0  0  0  0  0  0  0  0  0  0
   40.2919   23.1934   13.2734 C   0  0  0  0  0  0  0  0  0  0  0  0
   40.8026   24.4310   13.9886 C   0  0  0  0  0  0  0  0  0  0  0  0
   42.3184   24.4352   13.9897 C   0  0  0  0  0  0  0  0  0  0  0  0
   42.8303   25.6750   14.7049 C   0  0  0  0  0  0  0  0  0  0  0  0
   44.3518   25.6747   14.7046 C   0  0  0  0  0  0  0  0  0  0  0  0
   44.8537   26.9118   15.4223 C   0  0  0  0  0  0  0  0  0  0  0  0
   46.3719   26.9136   15.4220 C   0  0  0  0  0  0  0  0  0  0  0  0
   46.8871   28.1570   16.1386 C   0  0  0  0  0  0  0  0  0  0  0  0
   48.4006   28.1579   16.1374 C   0  0  0  0  0  0  0  0  0  0  0  0
   48.9083   29.3954   16.8506 C   0  0  0  0  0  0  0  0  0  0  0  0
   50.4238   29.4008   16.8547 C   0  0  0  0  0  0  0  0  0  0  0  0
   50.9354   30.6386   17.5708 C   0  0  0  0  0  0  0  0  0  0  0  0
   52.4535   30.6436   17.5765 C   0  0  0  0  0  0  0  0  0  0  0  0
   52.9628   31.8804   18.2843 C   0  0  0  0  0  0  0  0  0  0  0  0
   54.4808   31.8843   18.2823 C   0  0  0  0  0  0  0  0  0  0  0  0
   54.9928   33.1238   18.9942 C   0  0  0  0  0  0  0  0  0  0  0  0
   56.5097   33.1290   18.9924 C   0  0  0  0  0  0  0  0  0  0  0  0
   57.0203   34.3672   19.7071 C   0  0  0  0  0  0  0  0  0  0  0  0
   58.5387   34.3741   19.7073 C   0  0  0  0  0  0  0  0  0  0  0  0
   59.0508   35.6118   20.4178 C   0  0  0  0  0  0  0  0  0  0  0  0
   60.5694   35.6213   20.4219 C   0  0  0  0  0  0  0  0  0  0  0  0
   61.0839   36.8610   21.1339 C   0  0  0  0  0  0  0  0  0  0  0  0
   62.6040   36.8708   21.1326 C   0  0  0  0  0  0  0  0  0  0  0  0
   63.1231   38.1122   21.8499 C   0  0  0  0  0  0  0  0  0  0  0  0
   64.6466   38.1207   21.8504 C   0  0  0  0  0  0  0  0  0  0  0  0
   65.1838   39.3586   22.5616 C   0  0  0  0  0  0  0  0  0  0  0  0
   66.7133   39.3712   22.5626 C   0  0  0  0  0  0  0  0  0  0  0  0
   67.2464   40.6125   23.2765 C   0  0  0  0  0  0  0  0  0  0  0  0
   68.7815   40.6656   23.3022 C   0  0  0  0  0  0  0  0  0  0  0  0
   69.2544   42.1922   24.1809 S   0  0  0  0  0  0  0  0  0  0  0  0
   71.0945   42.1299   24.1505 C   0  0  0  0  0  0  0  0  0  0  0  0
   71.6454   43.6292   25.0669 S   0  0  0  0  0  0  0  0  0  0  0  0
   73.4735   43.5485   24.9753 C   0  0  0  0  0  0  0  0  0  0  0  0
   74.1057   45.0468   25.8543 S   0  0  0  0  0  0  0  0  0  0  0  0
   75.9118   44.9345   25.6024 C   0  0  0  0  0  0  0  0  0  0  0  0
   76.3482   45.0950   23.8472 S   0  0  0  0  0  0  0  0  0  0  0  0
   78.1740   44.9666   23.8788 C   0  0  0  0  0  0  0  0  0  0  0  0
   78.7010   44.9719   22.1188 S   0  0  0  0  0  0  0  0  0  0  0  0
   80.4977   44.7980   22.2541 C   0  0  0  0  0  0  0  0  0  0  0  0
   80.9888   43.2112   22.9842 S   0  0  0  0  0  0  0  0  0  0  0  0
   82.7965   43.3191   22.8598 C   0  0  0  0  0  0  0  0  0  0  0  0
   83.4063   43.2579   21.1594 S   0  0  0  0  0  0  0  0  0  0  0  0
    0.6113   -0.8412   -0.6439 H   0  0  0  0  0  0  0  0  0  0  0  0
    0.5822    0.9311   -0.6563 H   0  0  0  0  0  0  0  0  0  0  0  0
    0.5778    0.0534    0.8860 H   0  0  0  0  0  0  0  0  0  0  0  0
    2.8674    0.0438   -1.1521 H   0  0  0  0  0  0  0  0  0  0  0  0
    2.8633   -0.8351    0.3787 H   0  0  0  0  0  0  0  0  0  0  0  0
    2.6568    1.3316    1.6234 H   0  0  0  0  0  0  0  0  0  0  0  0
    2.6598    2.2116    0.0937 H   0  0  0  0  0  0  0  0  0  0  0  0
    4.9370    1.3047   -0.4253 H   0  0  0  0  0  0  0  0  0  0  0  0
    4.9344    0.4212    1.1035 H   0  0  0  0  0  0  0  0  0  0  0  0
    4.7112    2.5816    2.3512 H   0  0  0  0  0  0  0  0  0  0  0  0
    4.7154    3.4643    0.8220 H   0  0  0  0  0  0  0  0  0  0  0  0
    6.9874    2.5544    0.2977 H   0  0  0  0  0  0  0  0  0  0  0  0
    6.9940    1.6811    1.8445 H   0  0  0  0  0  0  0  0  0  0  0  0
    6.7342    3.7888    2.9667 H   0  0  0  0  0  0  0  0  0  0  0  0
    8.8365    3.8115    1.0532 H   0  0  0  0  0  0  0  0  0  0  0  0
    8.6185    4.8654    3.6645 H   0  0  0  0  0  0  0  0  0  0  0  0
   10.6405    4.9349    1.7013 H   0  0  0  0  0  0  0  0  0  0  0  0
   10.3766    5.9621    4.3062 H   0  0  0  0  0  0  0  0  0  0  0  0
   12.5057    5.9282    2.4033 H   0  0  0  0  0  0  0  0  0  0  0  0
   12.3988    7.3087    4.9394 H   0  0  0  0  0  0  0  0  0  0  0  0
   14.5572    7.2733    3.0589 H   0  0  0  0  0  0  0  0  0  0  0  0
   14.3097    8.3638    5.6704 H   0  0  0  0  0  0  0  0  0  0  0  0
   16.3828    8.4233    3.7368 H   0  0  0  0  0  0  0  0  0  0  0  0
   16.1992    9.5590    6.3407 H   0  0  0  0  0  0  0  0  0  0  0  0
   18.3549    9.5297    4.3252 H   0  0  0  0  0  0  0  0  0  0  0  0
   18.3546    8.6290    5.8569 H   0  0  0  0  0  0  0  0  0  0  0  0
   18.1203   10.7871    7.1104 H   0  0  0  0  0  0  0  0  0  0  0  0
   18.1142   11.6751    5.5831 H   0  0  0  0  0  0  0  0  0  0  0  0
   20.3861   10.7702    5.0498 H   0  0  0  0  0  0  0  0  0  0  0  0
   20.3904    9.8824    6.5763 H   0  0  0  0  0  0  0  0  0  0  0  0
   20.1467   12.0377    7.8285 H   0  0  0  0  0  0  0  0  0  0  0  0
   20.1459   12.9241    6.3014 H   0  0  0  0  0  0  0  0  0  0  0  0
   22.4172   12.0125    5.7721 H   0  0  0  0  0  0  0  0  0  0  0  0
   22.4176   11.1274    7.3001 H   0  0  0  0  0  0  0  0  0  0  0  0
   22.1800   13.2830    8.5496 H   0  0  0  0  0  0  0  0  0  0  0  0
   22.1786   14.1687    7.0218 H   0  0  0  0  0  0  0  0  0  0  0  0
   24.4482   13.2555    6.4904 H   0  0  0  0  0  0  0  0  0  0  0  0
   24.4495   12.3701    8.0183 H   0  0  0  0  0  0  0  0  0  0  0  0
   24.2099   14.5264    9.2676 H   0  0  0  0  0  0  0  0  0  0  0  0
   24.2100   15.4113    7.7393 H   0  0  0  0  0  0  0  0  0  0  0  0
   26.4788   14.4960    7.2095 H   0  0  0  0  0  0  0  0  0  0  0  0
   26.4787   13.6114    8.7379 H   0  0  0  0  0  0  0  0  0  0  0  0
   26.2383   15.7680    9.9859 H   0  0  0  0  0  0  0  0  0  0  0  0
   26.2386   16.6523    8.4572 H   0  0  0  0  0  0  0  0  0  0  0  0
   28.5074   15.7381    7.9283 H   0  0  0  0  0  0  0  0  0  0  0  0
   28.5074   14.8530    9.4566 H   0  0  0  0  0  0  0  0  0  0  0  0
   28.2647   17.0083   10.7055 H   0  0  0  0  0  0  0  0  0  0  0  0
   28.2638   17.8940    9.1775 H   0  0  0  0  0  0  0  0  0  0  0  0
   30.5331   16.9799    8.6468 H   0  0  0  0  0  0  0  0  0  0  0  0
   30.5331   16.0949   10.1753 H   0  0  0  0  0  0  0  0  0  0  0  0
   30.2911   18.2505   11.4240 H   0  0  0  0  0  0  0  0  0  0  0  0
   30.2918   19.1354    9.8953 H   0  0  0  0  0  0  0  0  0  0  0  0
   32.5601   18.2200    9.3660 H   0  0  0  0  0  0  0  0  0  0  0  0
   32.5597   17.3336   10.8940 H   0  0  0  0  0  0  0  0  0  0  0  0
   32.3191   19.4895   12.1433 H   0  0  0  0  0  0  0  0  0  0  0  0
   32.3193   20.3751   10.6153 H   0  0  0  0  0  0  0  0  0  0  0  0
   34.5864   19.4583   10.0838 H   0  0  0  0  0  0  0  0  0  0  0  0
   34.5872   18.5721   11.6111 H   0  0  0  0  0  0  0  0  0  0  0  0
   34.3462   20.7277   12.8613 H   0  0  0  0  0  0  0  0  0  0  0  0
   34.3471   21.6130   11.3329 H   0  0  0  0  0  0  0  0  0  0  0  0
   36.6157   20.6971   10.8037 H   0  0  0  0  0  0  0  0  0  0  0  0
   36.6138   19.8108   12.3318 H   0  0  0  0  0  0  0  0  0  0  0  0
   36.3720   21.9658   13.5817 H   0  0  0  0  0  0  0  0  0  0  0  0
   36.3730   22.8523   12.0536 H   0  0  0  0  0  0  0  0  0  0  0  0
   38.6417   21.9353   11.5247 H   0  0  0  0  0  0  0  0  0  0  0  0
   38.6404   21.0504   13.0532 H   0  0  0  0  0  0  0  0  0  0  0  0
   38.3994   23.2063   14.3014 H   0  0  0  0  0  0  0  0  0  0  0  0
   38.3994   24.0912   12.7731 H   0  0  0  0  0  0  0  0  0  0  0  0
   40.6679   23.1743   12.2423 H   0  0  0  0  0  0  0  0  0  0  0  0
   40.6679   22.2916   13.7724 H   0  0  0  0  0  0  0  0  0  0  0  0
   40.4257   24.4492   15.0178 H   0  0  0  0  0  0  0  0  0  0  0  0
   40.4253   25.3328   13.4878 H   0  0  0  0  0  0  0  0  0  0  0  0
   42.6937   24.4167   12.9598 H   0  0  0  0  0  0  0  0  0  0  0  0
   42.6943   23.5338   14.4890 H   0  0  0  0  0  0  0  0  0  0  0  0
   42.4548   25.6933   15.7360 H   0  0  0  0  0  0  0  0  0  0  0  0
   42.4531   26.5763   14.2054 H   0  0  0  0  0  0  0  0  0  0  0  0
   44.7211   25.6549   13.6794 H   0  0  0  0  0  0  0  0  0  0  0  0
   44.7185   24.7755   15.2071 H   0  0  0  0  0  0  0  0  0  0  0  0
   44.4819   26.9320   16.4511 H   0  0  0  0  0  0  0  0  0  0  0  0
   44.4824   27.8163   14.9230 H   0  0  0  0  0  0  0  0  0  0  0  0
   46.7506   26.8937   14.3936 H   0  0  0  0  0  0  0  0  0  0  0  0
   46.7490   26.0134   15.9281 H   0  0  0  0  0  0  0  0  0  0  0  0
   46.5094   28.1748   17.1642 H   0  0  0  0  0  0  0  0  0  0  0  0
   46.5071   29.0552   15.6341 H   0  0  0  0  0  0  0  0  0  0  0  0
   48.7777   28.1372   15.1076 H   0  0  0  0  0  0  0  0  0  0  0  0
   48.7751   27.2576   16.6367 H   0  0  0  0  0  0  0  0  0  0  0  0
   48.5338   29.4125   17.8832 H   0  0  0  0  0  0  0  0  0  0  0  0
   48.5327   30.2971   16.3517 H   0  0  0  0  0  0  0  0  0  0  0  0
   50.8012   29.3830   15.8229 H   0  0  0  0  0  0  0  0  0  0  0  0
   50.8031   28.4981   17.3526 H   0  0  0  0  0  0  0  0  0  0  0  0
   50.5581   30.6576   18.5993 H   0  0  0  0  0  0  0  0  0  0  0  0
   50.5606   31.5402   17.0691 H   0  0  0  0  0  0  0  0  0  0  0  0
   52.8285   30.6264   16.5427 H   0  0  0  0  0  0  0  0  0  0  0  0
   52.8295   29.7395   18.0711 H   0  0  0  0  0  0  0  0  0  0  0  0
   52.5910   31.8991   19.3145 H   0  0  0  0  0  0  0  0  0  0  0  0
   52.5865   32.7814   17.7842 H   0  0  0  0  0  0  0  0  0  0  0  0
   54.8541   31.8658   17.2508 H   0  0  0  0  0  0  0  0  0  0  0  0
   54.8588   30.9842   18.7810 H   0  0  0  0  0  0  0  0  0  0  0  0
   54.6183   33.1429   20.0256 H   0  0  0  0  0  0  0  0  0  0  0  0
   54.6146   34.0241   18.4947 H   0  0  0  0  0  0  0  0  0  0  0  0
   56.8821   33.1110   17.9628 H   0  0  0  0  0  0  0  0  0  0  0  0
   56.8870   32.2281   19.4918 H   0  0  0  0  0  0  0  0  0  0  0  0
   56.6465   34.3862   20.7367 H   0  0  0  0  0  0  0  0  0  0  0  0
   56.6431   35.2686   19.2074 H   0  0  0  0  0  0  0  0  0  0  0  0
   58.9126   34.3549   18.6759 H   0  0  0  0  0  0  0  0  0  0  0  0
   58.9151   33.4722   20.2049 H   0  0  0  0  0  0  0  0  0  0  0  0
   58.6763   35.6302   21.4515 H   0  0  0  0  0  0  0  0  0  0  0  0
   58.6728   36.5130   19.9220 H   0  0  0  0  0  0  0  0  0  0  0  0
   60.9420   35.6013   19.3891 H   0  0  0  0  0  0  0  0  0  0  0  0
   60.9469   34.7194   20.9189 H   0  0  0  0  0  0  0  0  0  0  0  0
   60.7089   36.8789   22.1635 H   0  0  0  0  0  0  0  0  0  0  0  0
   60.7039   37.7600   20.6339 H   0  0  0  0  0  0  0  0  0  0  0  0
   62.9750   36.8512   20.1029 H   0  0  0  0  0  0  0  0  0  0  0  0
   62.9805   35.9686   21.6320 H   0  0  0  0  0  0  0  0  0  0  0  0
   62.7488   38.1290   22.8778 H   0  0  0  0  0  0  0  0  0  0  0  0
   62.7455   39.0108   21.3487 H   0  0  0  0  0  0  0  0  0  0  0  0
   65.0180   38.0982   20.8178 H   0  0  0  0  0  0  0  0  0  0  0  0
   65.0207   37.2179   22.3487 H   0  0  0  0  0  0  0  0  0  0  0  0
   64.8087   39.3797   23.5927 H   0  0  0  0  0  0  0  0  0  0  0  0
   64.8031   40.2602   22.0637 H   0  0  0  0  0  0  0  0  0  0  0  0
   67.0791   39.3508   21.5287 H   0  0  0  0  0  0  0  0  0  0  0  0
   67.0857   38.4674   23.0600 H   0  0  0  0  0  0  0  0  0  0  0  0
   66.8535   40.6208   24.3024 H   0  0  0  0  0  0  0  0  0  0  0  0
   66.8485   41.5035   22.7716 H   0  0  0  0  0  0  0  0  0  0  0  0
   69.1766   40.6845   22.2821 H   0  0  0  0  0  0  0  0  0  0  0  0
   69.1811   39.7932   23.8279 H   0  0  0  0  0  0  0  0  0  0  0  0
   71.4495   42.1561   23.1163 H   0  0  0  0  0  0  0  0  0  0  0  0
   71.4463   41.2281   24.6584 H   0  0  0  0  0  0  0  0  0  0  0  0
   73.7849   43.5594   23.9286 H   0  0  0  0  0  0  0  0  0  0  0  0
   73.8368   42.6501   25.4799 H   0  0  0  0  0  0  0  0  0  0  0  0
   76.2923   44.0130   26.0512 H   0  0  0  0  0  0  0  0  0  0  0  0
   76.3508   45.7821   26.1415 H   0  0  0  0  0  0  0  0  0  0  0  0
   78.4742   44.0407   24.3758 H   0  0  0  0  0  0  0  0  0  0  0  0
   78.6002   45.8310   24.3971 H   0  0  0  0  0  0  0  0  0  0  0  0
   80.9237   45.6455   22.7977 H   0  0  0  0  0  0  0  0  0  0  0  0
   80.8693   44.8368   21.2250 H   0  0  0  0  0  0  0  0  0  0  0  0
   83.2092   42.4559   23.3903 H   0  0  0  0  0  0  0  0  0  0  0  0
   83.1615   44.2204   23.3602 H   0  0  0  0  0  0  0  0  0  0  0  0
   82.7801   42.1243   20.8123 H   0  0  0  0  0  0  0  0  0  0  0  0
  1  2  1  0  0  0  0
  1 82  1  0  0  0  0
  1 83  1  0  0  0  0
  1 84  1  0  0  0  0
  2  3  1  0  0  0  0
  2 85  1  0  0  0  0
  2 86  1  0  0  0  0
  3  4  1  0  0  0  0
  3 87  1  0  0  0  0
  3 88  1  0  0  0  0
  4  5  1  0  0  0  0
  4 89  1  0  0  0  0
  4 90  1  0  0  0  0
  5  6  1  0  0  0  0
  5 91  1  0  0  0  0
  5 92  1  0  0  0  0
  6  7  1  0  0  0  0
  6 93  1  0  0  0  0
  6 94  1  0  0  0  0
  7  8  1  0  0  0  0
  7 95  1  0  0  0  0
  8  9  1  0  0  0  0
  8 96  1  0  0  0  0
  9 10  1  0  0  0  0
  9 97  1  0  0  0  0
 10 11  1  0  0  0  0
 10 98  1  0  0  0  0
 11 12  1  0  0  0  0
 11 99  1  0  0  0  0
 12 13  1  0  0  0  0
 12100  1  0  0  0  0
 13 14  1  0  0  0  0
 13101  1  0  0  0  0
 14 15  1  0  0  0  0
 14102  1  0  0  0  0
 15 16  1  0  0  0  0
 15103  1  0  0  0  0
 16 17  1  0  0  0  0
 16104  1  0  0  0  0
 17 18  1  0  0  0  0
 17105  1  0  0  0  0
 18 19  1  0  0  0  0
 18106  1  0  0  0  0
 18107  1  0  0  0  0
 19 20  1  0  0  0  0
 19108  1  0  0  0  0
 19109  1  0  0  0  0
 20 21  1  0  0  0  0
 20110  1  0  0  0  0
 20111  1  0  0  0  0
 21 22  1  0  0  0  0
 21112  1  0  0  0  0
 21113  1  0  0  0  0
 22 23  1  0  0  0  0
 22114  1  0  0  0  0
 22115  1  0  0  0  0
 23 24  1  0  0  0  0
 23116  1  0  0  0  0
 23117  1  0  0  0  0
 24 25  1  0  0  0  0
 24118  1  0  0  0  0
 24119  1  0  0  0  0
 25 26  1  0  0  0  0
 25120  1  0  0  0  0
 25121  1  0  0  0  0
 26 27  1  0  0  0  0
 26122  1  0  0  0  0
 26123  1  0  0  0  0
 27 28  1  0  0  0  0
 27124  1  0  0  0  0
 27125  1  0  0  0  0
 28 29  1  0  0  0  0
 28126  1  0  0  0  0
 28127  1  0  0  0  0
 29 30  1  0  0  0  0
 29128  1  0  0  0  0
 29129  1  0  0  0  0
 30 31  1  0  0  0  0
 30130  1  0  0  0  0
 30131  1  0  0  0  0
 31 32  1  0  0  0  0
 31132  1  0  0  0  0
 31133  1  0  0  0  0
 32 33  1  0  0  0  0
 32134  1  0  0  0  0
 32135  1  0  0  0  0
 33 34  1  0  0  0  0
 33136  1  0  0  0  0
 33137  1  0  0  0  0
 34 35  1  0  0  0  0
 34138  1  0  0  0  0
 34139  1  0  0  0  0
 35 36  1  0  0  0  0
 35140  1  0  0  0  0
 35141  1  0  0  0  0
 36 37  1  0  0  0  0
 36142  1  0  0  0  0
 36143  1  0  0  0  0
 37 38  1  0  0  0  0
 37144  1  0  0  0  0
 37145  1  0  0  0  0
 38 39  1  0  0  0  0
 38146  1  0  0  0  0
 38147  1  0  0  0  0
 39 40  1  0  0  0  0
 39148  1  0  0  0  0
 39149  1  0  0  0  0
 40 41  1  0  0  0  0
 40150  1  0  0  0  0
 40151  1  0  0  0  0
 41 42  1  0  0  0  0
 41152  1  0  0  0  0
 41153  1  0  0  0  0
 42 43  1  0  0  0  0
 42154  1  0  0  0  0
 42155  1  0  0  0  0
 43 44  1  0  0  0  0
 43156  1  0  0  0  0
 43157  1  0  0  0  0
 44 45  1  0  0  0  0
 44158  1  0  0  0  0
 44159  1  0  0  0  0
 45 46  1  0  0  0  0
 45160  1  0  0  0  0
 45161  1  0  0  0  0
 46 47  1  0  0  0  0
 46162  1  0  0  0  0
 46163  1  0  0  0  0
 47 48  1  0  0  0  0
 47164  1  0  0  0  0
 47165  1  0  0  0  0
 48 49  1  0  0  0  0
 48166  1  0  0  0  0
 48167  1  0  0  0  0
 49 50  1  0  0  0  0
 49168  1  0  0  0  0
 49169  1  0  0  0  0
 50 51  1  0  0  0  0
 50170  1  0  0  0  0
 50171  1  0  0  0  0
 51 52  1  0  0  0  0
 51172  1  0  0  0  0
 51173  1  0  0  0  0
 52 53  1  0  0  0  0
 52174  1  0  0  0  0
 52175  1  0  0  0  0
 53 54  1  0  0  0  0
 53176  1  0  0  0  0
 53177  1  0  0  0  0
 54 55  1  0  0  0  0
 54178  1  0  0  0  0
 54179  1  0  0  0  0
 55 56  1  0  0  0  0
 55180  1  0  0  0  0
 55181  1  0  0  0  0
 56 57  1  0  0  0  0
 56182  1  0  0  0  0
 56183  1  0  0  0  0
 57 58  1  0  0  0  0
 57184  1  0  0  0  0
 57185  1  0  0  0  0
 58 59  1  0  0  0  0
 58186  1  0  0  0  0
 58187  1  0  0  0  0
 59 60  1  0  0  0  0
 59188  1  0  0  0  0
 59189  1  0  0  0  0
 60 61  1  0  0  0  0
 60190  1  0  0  0  0
 60191  1  0  0  0  0
 61 62  1  0  0  0  0
 61192  1  0  0  0  0
 61193  1  0  0  0  0
 62 63  1  0  0  0  0
 62194  1  0  0  0  0
 62195  1  0  0  0  0
 63 64  1  0  0  0  0
 63196  1  0  0  0  0
 63197  1  0  0  0  0
 64 65  1  0  0  0  0
 64198  1  0  0  0  0
 64199  1  0  0  0  0
 65 66  1  0  0  0  0
 65200  1  0  0  0  0
 65201  1  0  0  0  0
 66 67  1  0  0  0  0
 66202  1  0  0  0  0
 66203  1  0  0  0  0
 67 68  1  0  0  0  0
 67204  1  0  0  0  0
 67205  1  0  0  0  0
 68 69  1  0  0  0  0
 68206  1  0  0  0  0
 68207  1  0  0  0  0
 69 70  1  0  0  0  0
 70 71  1  0  0  0  0
 70208  1  0  0  0  0
 70209  1  0  0  0  0
 71 72  1  0  0  0  0
 72 73  1  0  0  0  0
 72210  1  0  0  0  0
 72211  1  0  0  0  0
 73 74  1  0  0  0  0
 74 75  1  0  0  0  0
 74212  1  0  0  0  0
 74213  1  0  0  0  0
 75 76  1  0  0  0  0
 76 77  1  0  0  0  0
 76214  1  0  0  0  0
 76215  1  0  0  0  0
 77 78  1  0  0  0  0
 78 79  1  0  0  0  0
 78216  1  0  0  0  0
 78217  1  0  0  0  0
 79 80  1  0  0  0  0
 80 81  1  0  0  0  0
 80218  1  0  0  0  0
 80219  1  0  0  0  0
 81220  1  0  0  0  0
M  END
$$$$
