
 OpenBabel04232216563D

132132  0  0  1  0  0  0  0  0999 V2000
    1.8047   16.4007   16.4699 C   0  0  0  0  0  0  0  0  0  0  0  0
    1.3851   16.9830   17.7335 N   0  0  0  0  0  0  0  0  0  0  0  0
    1.4384   16.0249   18.8361 C   0  0  0  0  0  0  0  0  0  0  0  0
    0.6933   16.7534   19.9442 C   0  0  0  0  0  0  0  0  0  0  0  0
   -0.2304   17.7393   19.2263 C   0  0  0  0  0  0  0  0  0  0  0  0
    0.0107   17.4941   17.7358 C   0  0  3  0  0  0  0  0  0  0  0  0
   -0.9681   16.5492   17.3009 O   0  0  0  0  0  0  0  0  0  0  0  0
   -0.9924   16.6376   15.8515 O   0  0  0  0  0  0  0  0  0  0  0  0
   -1.9237   15.6729   15.3115 O   0  0  0  0  0  0  0  0  0  0  0  0
   -3.2687   16.1299   15.5618 O   0  0  0  0  0  0  0  0  0  0  0  0
   -4.2058   15.0345   15.5739 O   0  0  0  0  0  0  0  0  0  0  0  0
   -5.4922   15.5193   15.1278 O   0  0  0  0  0  0  0  0  0  0  0  0
   -6.4338   14.4335   14.9951 O   0  0  0  0  0  0  0  0  0  0  0  0
   -7.7643   14.8853   15.3352 O   0  0  0  0  0  0  0  0  0  0  0  0
   -7.8474   15.2130   16.7473 O   0  0  0  0  0  0  0  0  0  0  0  0
   -9.1230   15.8075   16.9022 C   0  0  0  0  0  0  0  0  0  0  0  0
   -9.3359   16.1451   18.2771 O   0  0  0  0  0  0  0  0  0  0  0  0
  -10.6891   16.5863   18.4775 C   0  0  0  0  0  0  0  0  0  0  0  0
  -11.5903   15.5412   18.1607 O   0  0  0  0  0  0  0  0  0  0  0  0
  -12.9217   15.9877   18.0395 C   0  0  0  0  0  0  0  0  0  0  0  0
  -13.6956   14.8568   17.3901 C   0  0  0  0  0  0  0  0  0  0  0  0
  -15.0712   15.2109   17.3425 O   0  0  0  0  0  0  0  0  0  0  0  0
  -15.8766   14.0768   17.0247 C   0  0  0  0  0  0  0  0  0  0  0  0
  -15.7071   13.0069   17.9517 O   0  0  0  0  0  0  0  0  0  0  0  0
  -15.9853   13.3634   19.3116 C   0  0  0  0  0  0  0  0  0  0  0  0
  -17.4519   13.7045   19.5252 C   0  0  0  0  0  0  0  0  0  0  0  0
  -18.2851   12.6858   18.9854 O   0  0  0  0  0  0  0  0  0  0  0  0
  -18.1886   11.4686   19.7238 C   0  0  0  0  0  0  0  0  0  0  0  0
  -18.4822   11.6434   21.1123 O   0  0  0  0  0  0  0  0  0  0  0  0
  -19.8378   12.0485   21.3085 C   0  0  0  0  0  0  0  0  0  0  0  0
  -20.7067   11.0814   20.7582 O   0  0  0  0  0  0  0  0  0  0  0  0
  -22.0095   11.7049   20.6348 O   0  0  0  0  0  0  0  0  0  0  0  0
  -22.8655   10.6149   20.3016 C   0  0  0  0  0  0  0  0  0  0  0  0
  -22.6142    9.4620   21.1000 O   0  0  0  0  0  0  0  0  0  0  0  0
  -22.9156    9.6626   22.4772 C   0  0  0  0  0  0  0  0  0  0  0  0
  -24.2785   10.0032   22.6894 O   0  0  0  0  0  0  0  0  0  0  0  0
  -25.1335    8.9677   22.2159 C   0  0  0  0  0  0  0  0  0  0  0  0
  -24.9585    7.7826   22.9760 O   0  0  0  0  0  0  0  0  0  0  0  0
  -25.6433    6.7359   22.2404 O   0  0  0  0  0  0  0  0  0  0  0  0
  -25.4567    5.5846   23.0417 C   0  0  0  0  0  0  0  0  0  0  0  0
  -25.8052    5.7739   24.4145 O   0  0  0  0  0  0  0  0  0  0  0  0
  -27.1305    6.2751   24.5612 C   0  0  0  0  0  0  0  0  0  0  0  0
  -28.1286    5.2931   24.2662 O   0  0  0  0  0  0  0  0  0  0  0  0
  -27.6849    4.1149   24.9868 O   0  0  0  0  0  0  0  0  0  0  0  0
  -28.3370    3.0084   24.3897 C   0  0  0  0  0  0  0  0  0  0  0  0
  -28.0819    1.8234   25.1399 O   0  0  0  0  0  0  0  0  0  0  0  0
  -28.4384    1.9834   26.5127 C   0  0  0  0  0  0  0  0  0  0  0  0
  -29.8019    2.3442   26.6769 O   0  0  0  0  0  0  0  0  0  0  0  0
  -30.6451    1.3281   26.1531 C   0  0  0  0  0  0  0  0  0  0  0  0
  -30.5767    0.1158   26.8920 O   0  0  0  0  0  0  0  0  0  0  0  0
  -30.7731    0.5377   28.2659 O   0  0  0  0  0  0  0  0  0  0  0  0
  -30.3690   -0.5469   29.0792 C   0  0  0  0  0  0  0  0  0  0  0  0
  -30.7009   -0.3099   30.4545 O   0  0  0  0  0  0  0  0  0  0  0  0
  -32.0657    0.0965   30.5963 C   0  0  0  0  0  0  0  0  0  0  0  0
  -32.9514   -0.8467   30.0199 O   0  0  0  0  0  0  0  0  0  0  0  0
  -34.2450   -0.1942   29.9727 O   0  0  0  0  0  0  0  0  0  0  0  0
  -35.2835   -1.1735   29.7345 O   0  0  0  0  0  0  0  0  0  0  0  0
  -35.1401   -2.2717   30.6676 O   0  0  0  0  0  0  0  0  0  0  0  0
  -35.7348   -3.3853   30.0296 C   0  0  0  0  0  0  0  0  0  0  0  0
  -35.4408   -4.5519   30.7817 O   0  0  0  0  0  0  0  0  0  0  0  0
  -36.2362   -5.6389   30.3531 C   0  0  0  0  0  0  0  0  0  0  0  0
  -35.9314   -6.7956   31.1092 O   0  0  0  0  0  0  0  0  0  0  0  0
  -37.0233   -7.6809   30.7996 O   0  0  0  0  0  0  0  0  0  0  0  0
  -37.0413   -8.8026   31.6881 O   0  0  0  0  0  0  0  0  0  0  0  0
  -37.3551   -9.9858   30.9336 O   0  0  0  0  0  0  0  0  0  0  0  0
  -37.1647  -11.1408   31.7510 O   0  0  0  0  0  0  0  0  0  0  0  0
  -38.3377  -11.9770   31.7296 O   0  0  0  0  0  0  0  0  0  0  0  0
  -37.9634  -13.2391   32.3070 O   0  0  0  0  0  0  0  0  0  0  0  0
  -38.6742  -14.3422   31.7253 O   0  0  0  0  0  0  0  0  0  0  0  0
  -38.8413  -15.3357   32.7595 O   0  0  0  0  0  0  0  0  0  0  0  0
  -39.6935  -16.4122   32.3325 O   0  0  0  0  0  0  0  0  0  0  0  0
  -39.1438  -17.6588   32.8123 O   0  0  0  0  0  0  0  0  0  0  0  0
  -39.9320  -18.7761   32.3595 O   0  0  0  0  0  0  0  0  0  0  0  0
  -40.1958  -19.6750   33.4615 O   0  0  0  0  0  0  0  0  0  0  0  0
  -41.0951  -20.7245   33.0427 O   0  0  0  0  0  0  0  0  0  0  0  0
  -40.4838  -22.0270   33.2087 O   0  0  0  0  0  0  0  0  0  0  0  0
  -41.4948  -23.0579   33.0767 O   0  0  0  0  0  0  0  0  0  0  0  0
  -41.3005  -24.1104   34.0524 O   0  0  0  0  0  0  0  0  0  0  0  0
  -41.7798  -23.7023   35.3572 O   0  0  0  0  0  0  0  0  0  0  0  0
    2.8677   16.1397   16.5119 H   0  0  0  0  0  0  0  0  0  0  0  0
    1.6889   17.1222   15.6534 H   0  0  0  0  0  0  0  0  0  0  0  0
    1.2511   15.4911   16.2114 H   0  0  0  0  0  0  0  0  0  0  0  0
    2.4648   15.7823   19.1263 H   0  0  0  0  0  0  0  0  0  0  0  0
    0.9160   15.0915   18.5879 H   0  0  0  0  0  0  0  0  0  0  0  0
    1.3933   17.3032   20.5839 H   0  0  0  0  0  0  0  0  0  0  0  0
    0.1319   16.0584   20.5765 H   0  0  0  0  0  0  0  0  0  0  0  0
    0.0507   18.7617   19.5053 H   0  0  0  0  0  0  0  0  0  0  0  0
   -1.2738   17.5765   19.5186 H   0  0  0  0  0  0  0  0  0  0  0  0
   -0.0950   18.4316   17.1759 H   0  0  0  0  0  0  0  0  0  0  0  0
   -9.8783   15.0827   16.5584 H   0  0  0  0  0  0  0  0  0  0  0  0
   -9.1831   16.7173   16.2948 H   0  0  0  0  0  0  0  0  0  0  0  0
  -10.8728   17.4786   17.8670 H   0  0  0  0  0  0  0  0  0  0  0  0
  -10.8072   16.8486   19.5333 H   0  0  0  0  0  0  0  0  0  0  0  0
  -12.9998   16.8904   17.4229 H   0  0  0  0  0  0  0  0  0  0  0  0
  -13.3276   16.2149   19.0321 H   0  0  0  0  0  0  0  0  0  0  0  0
  -13.5277   13.9421   17.9726 H   0  0  0  0  0  0  0  0  0  0  0  0
  -13.3295   14.6637   16.3756 H   0  0  0  0  0  0  0  0  0  0  0  0
  -15.6112   13.7137   16.0259 H   0  0  0  0  0  0  0  0  0  0  0  0
  -16.9245   14.3897   16.9795 H   0  0  0  0  0  0  0  0  0  0  0  0
  -15.3476   14.1920   19.6357 H   0  0  0  0  0  0  0  0  0  0  0  0
  -15.6941   12.5020   19.9204 H   0  0  0  0  0  0  0  0  0  0  0  0
  -17.7116   14.6304   19.0033 H   0  0  0  0  0  0  0  0  0  0  0  0
  -17.6658   13.8806   20.5848 H   0  0  0  0  0  0  0  0  0  0  0  0
  -17.1900   11.0310   19.6291 H   0  0  0  0  0  0  0  0  0  0  0  0
  -18.8693   10.7397   19.2736 H   0  0  0  0  0  0  0  0  0  0  0  0
  -20.0038   13.0283   20.8442 H   0  0  0  0  0  0  0  0  0  0  0  0
  -20.0182   12.1426   22.3832 H   0  0  0  0  0  0  0  0  0  0  0  0
  -22.6774   10.3380   19.2593 H   0  0  0  0  0  0  0  0  0  0  0  0
  -23.9077   10.9377   20.3808 H   0  0  0  0  0  0  0  0  0  0  0  0
  -22.2932   10.4626   22.8949 H   0  0  0  0  0  0  0  0  0  0  0  0
  -22.6642    8.7540   23.0280 H   0  0  0  0  0  0  0  0  0  0  0  0
  -24.9672    8.7817   21.1508 H   0  0  0  0  0  0  0  0  0  0  0  0
  -26.1639    9.3131   22.3397 H   0  0  0  0  0  0  0  0  0  0  0  0
  -24.4038    5.2844   22.9987 H   0  0  0  0  0  0  0  0  0  0  0  0
  -26.0501    4.7632   22.6228 H   0  0  0  0  0  0  0  0  0  0  0  0
  -27.3143    7.1653   23.9524 H   0  0  0  0  0  0  0  0  0  0  0  0
  -27.2558    6.5723   25.6080 H   0  0  0  0  0  0  0  0  0  0  0  0
  -27.9647    2.8531   23.3721 H   0  0  0  0  0  0  0  0  0  0  0  0
  -29.4155    3.1966   24.3354 H   0  0  0  0  0  0  0  0  0  0  0  0
  -27.8204    2.7617   26.9743 H   0  0  0  0  0  0  0  0  0  0  0  0
  -28.2138    1.0555   27.0493 H   0  0  0  0  0  0  0  0  0  0  0  0
  -30.4297    1.1176   25.1007 H   0  0  0  0  0  0  0  0  0  0  0  0
  -31.6764    1.6965   26.1969 H   0  0  0  0  0  0  0  0  0  0  0  0
  -29.2860   -0.6846   29.0095 H   0  0  0  0  0  0  0  0  0  0  0  0
  -30.8559   -1.4721   28.7473 H   0  0  0  0  0  0  0  0  0  0  0  0
  -32.2033    1.0800   30.1300 H   0  0  0  0  0  0  0  0  0  0  0  0
  -32.2823    0.1980   31.6667 H   0  0  0  0  0  0  0  0  0  0  0  0
  -35.3507   -3.5107   29.0092 H   0  0  0  0  0  0  0  0  0  0  0  0
  -36.8159   -3.2125   29.9946 H   0  0  0  0  0  0  0  0  0  0  0  0
  -36.0447   -5.8557   29.2967 H   0  0  0  0  0  0  0  0  0  0  0  0
  -37.2951   -5.3855   30.4928 H   0  0  0  0  0  0  0  0  0  0  0  0
  -41.2006  -24.3008   35.8591 H   0  0  0  0  0  0  0  0  0  0  0  0
  1  2  1  0  0  0  0
  1 80  1  0  0  0  0
  1 81  1  0  0  0  0
  1 82  1  0  0  0  0
  2  3  1  0  0  0  0
  2  6  1  0  0  0  0
  3  4  1  0  0  0  0
  3 83  1  0  0  0  0
  3 84  1  0  0  0  0
  4  5  1  0  0  0  0
  4 85  1  0  0  0  0
  4 86  1  0  0  0  0
  5  6  1  0  0  0  0
  5 87  1  0  0  0  0
  5 88  1  0  0  0  0
  6  7  1  0  0  0  0
  6 89  1  0  0  0  0
  7  8  1  0  0  0  0
  8  9  1  0  0  0  0
  9 10  1  0  0  0  0
 10 11  1  0  0  0  0
 11 12  1  0  0  0  0
 12 13  1  0  0  0  0
 13 14  1  0  0  0  0
 14 15  1  0  0  0  0
 15 16  1  0  0  0  0
 16 17  1  0  0  0  0
 16 90  1  0  0  0  0
 16 91  1  0  0  0  0
 17 18  1  0  0  0  0
 18 19  1  0  0  0  0
 18 92  1  0  0  0  0
 18 93  1  0  0  0  0
 19 20  1  0  0  0  0
 20 21  1  0  0  0  0
 20 94  1  0  0  0  0
 20 95  1  0  0  0  0
 21 22  1  0  0  0  0
 21 96  1  0  0  0  0
 21 97  1  0  0  0  0
 22 23  1  0  0  0  0
 23 24  1  0  0  0  0
 23 98  1  0  0  0  0
 23 99  1  0  0  0  0
 24 25  1  0  0  0  0
 25 26  1  0  0  0  0
 25100  1  0  0  0  0
 25101  1  0  0  0  0
 26 27  1  0  0  0  0
 26102  1  0  0  0  0
 26103  1  0  0  0  0
 27 28  1  0  0  0  0
 28 29  1  0  0  0  0
 28104  1  0  0  0  0
 28105  1  0  0  0  0
 29 30  1  0  0  0  0
 30 31  1  0  0  0  0
 30106  1  0  0  0  0
 30107  1  0  0  0  0
 31 32  1  0  0  0  0
 32 33  1  0  0  0  0
 33 34  1  0  0  0  0
 33108  1  0  0  0  0
 33109  1  0  0  0  0
 34 35  1  0  0  0  0
 35 36  1  0  0  0  0
 35110  1  0  0  0  0
 35111  1  0  0  0  0
 36 37  1  0  0  0  0
 37 38  1  0  0  0  0
 37112  1  0  0  0  0
 37113  1  0  0  0  0
 38 39  1  0  0  0  0
 39 40  1  0  0  0  0
 40 41  1  0  0  0  0
 40114  1  0  0  0  0
 40115  1  0  0  0  0
 41 42  1  0  0  0  0
 42 43  1  0  0  0  0
 42116  1  0  0  0  0
 42117  1  0  0  0  0
 43 44  1  0  0  0  0
 44 45  1  0  0  0  0
 45 46  1  0  0  0  0
 45118  1  0  0  0  0
 45119  1  0  0  0  0
 46 47  1  0  0  0  0
 47 48  1  0  0  0  0
 47120  1  0  0  0  0
 47121  1  0  0  0  0
 48 49  1  0  0  0  0
 49 50  1  0  0  0  0
 49122  1  0  0  0  0
 49123  1  0  0  0  0
 50 51  1  0  0  0  0
 51 52  1  0  0  0  0
 52 53  1  0  0  0  0
 52124  1  0  0  0  0
 52125  1  0  0  0  0
 53 54  1  0  0  0  0
 54 55  1  0  0  0  0
 54126  1  0  0  0  0
 54127  1  0  0  0  0
 55 56  1  0  0  0  0
 56 57  1  0  0  0  0
 57 58  1  0  0  0  0
 58 59  1  0  0  0  0
 59 60  1  0  0  0  0
 59128  1  0  0  0  0
 59129  1  0  0  0  0
 60 61  1  0  0  0  0
 61 62  1  0  0  0  0
 61130  1  0  0  0  0
 61131  1  0  0  0  0
 62 63  1  0  0  0  0
 63 64  1  0  0  0  0
 64 65  1  0  0  0  0
 65 66  1  0  0  0  0
 66 67  1  0  0  0  0
 67 68  1  0  0  0  0
 68 69  1  0  0  0  0
 69 70  1  0  0  0  0
 70 71  1  0  0  0  0
 71 72  1  0  0  0  0
 72 73  1  0  0  0  0
 73 74  1  0  0  0  0
 74 75  1  0  0  0  0
 75 76  1  0  0  0  0
 76 77  1  0  0  0  0
 77 78  1  0  0  0  0
 78 79  1  0  0  0  0
 79132  1  0  0  0  0
M  END
$$$$
