
 OpenBabel04232216483D

 61 62  0  0  0  0  0  0  0  0999 V2000
    0.7351   -1.0373    0.9502 C   0  0  0  0  0  0  0  0  0  0  0  0
    2.0818   -1.4794    1.4895 C   0  0  0  0  0  0  0  0  0  0  0  0
    3.1859   -0.8082    0.7734 C   0  0  0  0  0  0  0  0  0  0  0  0
    4.5038   -0.6183    0.9930 C   0  0  0  0  0  0  0  0  0  0  0  0
    5.3455   -0.8969    2.1652 C   0  0  0  0  0  0  0  0  0  0  0  0
    4.7312   -0.4819    3.3558 N   0  0  0  0  0  0  0  0  0  0  0  0
    5.2447    0.6794    3.9945 N   0  0  0  0  0  0  0  0  0  0  0  0
    4.6511    1.9034    3.4424 C   0  0  0  0  0  0  0  0  0  0  0  0
    3.1559    2.0639    3.7553 C   0  0  0  0  0  0  0  0  0  0  0  0
    2.8660    1.9713    5.2563 C   0  0  0  0  0  0  0  0  0  0  0  0
    1.3920    2.1542    5.6152 C   0  0  0  0  0  0  0  0  0  0  0  0
    0.4895    1.0783    5.0303 C   0  0  0  0  0  0  0  0  0  0  0  0
    6.6550   -1.3220    2.1435 C   0  0  0  0  0  0  0  0  0  0  0  0
    7.4651   -1.1437    0.8607 C   0  0  0  0  0  0  0  0  0  0  0  0
    6.9769   -1.2268   -0.2648 O   0  0  0  0  0  0  0  0  0  0  0  0
    8.7983   -0.7590    1.0616 N   0  0  0  0  0  0  0  0  0  0  0  0
    9.5829   -0.2656   -0.0673 C   0  0  0  0  0  0  0  0  0  0  0  0
    9.4601   -0.9191    2.2633 C   0  0  0  0  0  0  0  0  0  0  0  0
    8.9065   -1.4259    3.3776 C   0  0  0  0  0  0  0  0  0  0  0  0
    9.6891   -1.6597    4.5010 N   0  0  0  0  0  0  0  0  0  0  0  0
    7.4590   -1.7460    3.3581 C   0  0  0  0  0  0  0  0  0  0  0  0
    6.9187   -2.4308    4.4122 C   0  0  0  0  0  0  0  0  0  0  0  0
    5.5734   -2.9390    4.5263 C   0  0  0  0  0  0  0  0  0  0  0  0
    4.8919   -3.0644    5.6800 C   0  0  0  0  0  0  0  0  0  0  0  0
    3.4453   -3.2191    5.7043 C   0  0  0  0  0  0  0  0  0  0  0  0
    2.7893   -4.1530    4.9862 C   0  0  0  0  0  0  0  0  0  0  0  0
    1.4951   -3.8312    4.3643 C   0  0  0  0  0  0  0  0  0  0  0  0
    1.2596   -3.0945    3.2594 C   0  0  0  0  0  0  0  0  0  0  0  0
    2.2560   -2.4193    2.4438 C   0  0  0  0  0  0  0  0  0  0  0  0
   -0.1250   -1.4054    1.5134 H   0  0  0  0  0  0  0  0  0  0  0  0
    0.6218   -1.3935   -0.0834 H   0  0  0  0  0  0  0  0  0  0  0  0
    0.6649    0.0569    0.9306 H   0  0  0  0  0  0  0  0  0  0  0  0
    2.8296   -0.2908   -0.1241 H   0  0  0  0  0  0  0  0  0  0  0  0
    5.0241   -0.0750    0.2062 H   0  0  0  0  0  0  0  0  0  0  0  0
    3.7108   -0.5065    3.2989 H   0  0  0  0  0  0  0  0  0  0  0  0
    6.2619    0.7118    3.8928 H   0  0  0  0  0  0  0  0  0  0  0  0
    4.8186    1.9780    2.3610 H   0  0  0  0  0  0  0  0  0  0  0  0
    5.1837    2.7493    3.8906 H   0  0  0  0  0  0  0  0  0  0  0  0
    2.5774    1.3142    3.2057 H   0  0  0  0  0  0  0  0  0  0  0  0
    2.8264    3.0417    3.3825 H   0  0  0  0  0  0  0  0  0  0  0  0
    3.4493    2.7400    5.7781 H   0  0  0  0  0  0  0  0  0  0  0  0
    3.2005    1.0028    5.6465 H   0  0  0  0  0  0  0  0  0  0  0  0
    1.0445    3.1421    5.2929 H   0  0  0  0  0  0  0  0  0  0  0  0
    1.3034    2.1265    6.7080 H   0  0  0  0  0  0  0  0  0  0  0  0
    0.3737    1.2014    3.9492 H   0  0  0  0  0  0  0  0  0  0  0  0
   -0.5070    1.1404    5.4790 H   0  0  0  0  0  0  0  0  0  0  0  0
    0.8873    0.0770    5.2242 H   0  0  0  0  0  0  0  0  0  0  0  0
    8.9417    0.0803   -0.8829 H   0  0  0  0  0  0  0  0  0  0  0  0
   10.2343   -1.0661   -0.4336 H   0  0  0  0  0  0  0  0  0  0  0  0
   10.2012    0.5800    0.2583 H   0  0  0  0  0  0  0  0  0  0  0  0
   10.5144   -0.6542    2.2510 H   0  0  0  0  0  0  0  0  0  0  0  0
   10.6864   -1.6180    4.3076 H   0  0  0  0  0  0  0  0  0  0  0  0
    9.4683   -2.5432    4.9523 H   0  0  0  0  0  0  0  0  0  0  0  0
    7.5148   -2.6098    5.2994 H   0  0  0  0  0  0  0  0  0  0  0  0
    5.0505   -3.1057    3.5935 H   0  0  0  0  0  0  0  0  0  0  0  0
    5.3801   -2.8710    6.6314 H   0  0  0  0  0  0  0  0  0  0  0  0
    3.0559   -2.9970    6.7017 H   0  0  0  0  0  0  0  0  0  0  0  0
    2.6059   -5.0698    5.5621 H   0  0  0  0  0  0  0  0  0  0  0  0
    0.6376   -4.2980    4.8523 H   0  0  0  0  0  0  0  0  0  0  0  0
    0.2204   -3.0012    2.9511 H   0  0  0  0  0  0  0  0  0  0  0  0
    3.2666   -2.7401    2.6543 H   0  0  0  0  0  0  0  0  0  0  0  0
  1  2  1  0  0  0  0
  1 30  1  0  0  0  0
  1 31  1  0  0  0  0
  1 32  1  0  0  0  0
  2  3  1  0  0  0  0
  2 29  2  0  0  0  0
  3  4  2  0  0  0  0
  3 33  1  0  0  0  0
  4  5  1  0  0  0  0
  4 34  1  0  0  0  0
  5  6  1  0  0  0  0
  5 13  2  0  0  0  0
  6  7  1  0  0  0  0
  6 35  1  0  0  0  0
  7  8  1  0  0  0  0
  7 36  1  0  0  0  0
  8  9  1  0  0  0  0
  8 37  1  0  0  0  0
  8 38  1  0  0  0  0
  9 10  1  0  0  0  0
  9 39  1  0  0  0  0
  9 40  1  0  0  0  0
 10 11  1  0  0  0  0
 10 41  1  0  0  0  0
 10 42  1  0  0  0  0
 11 12  1  0  0  0  0
 11 43  1  0  0  0  0
 11 44  1  0  0  0  0
 12 45  1  0  0  0  0
 12 46  1  0  0  0  0
 12 47  1  0  0  0  0
 13 14  1  0  0  0  0
 13 21  1  0  0  0  0
 14 15  2  0  0  0  0
 14 16  1  0  0  0  0
 16 17  1  0  0  0  0
 16 18  1  0  0  0  0
 17 48  1  0  0  0  0
 17 49  1  0  0  0  0
 17 50  1  0  0  0  0
 18 19  2  0  0  0  0
 18 51  1  0  0  0  0
 19 20  1  0  0  0  0
 19 21  1  0  0  0  0
 20 52  1  0  0  0  0
 20 53  1  0  0  0  0
 21 22  2  0  0  0  0
 22 23  1  0  0  0  0
 22 54  1  0  0  0  0
 23 24  2  0  0  0  0
 23 55  1  0  0  0  0
 24 25  1  0  0  0  0
 24 56  1  0  0  0  0
 25 26  2  0  0  0  0
 25 57  1  0  0  0  0
 26 27  1  0  0  0  0
 26 58  1  0  0  0  0
 27 28  2  0  0  0  0
 27 59  1  0  0  0  0
 28 29  1  0  0  0  0
 28 60  1  0  0  0  0
 29 61  1  0  0  0  0
M  END
$$$$
