
 OpenBabel04232216573D

 58 59  0  0  1  0  0  0  0  0999 V2000
    4.0242    4.0502    7.6789 C   0  0  0  0  0  0  0  0  0  0  0  0
    4.3700    4.7343    6.4787 O   0  0  0  0  0  0  0  0  0  0  0  0
    5.3573    4.0307    5.7154 C   0  0  0  0  0  0  0  0  0  0  0  0
    5.6774    4.8450    4.4531 C   0  0  0  0  0  0  0  0  0  0  0  0
    6.7669    4.2116    3.5659 C   0  0  0  0  0  0  0  0  0  0  0  0
    7.0852    5.0734    2.3101 C   0  0  0  0  0  0  0  0  0  0  0  0
    8.2300    4.5053    1.4471 C   0  0  0  0  0  0  0  0  0  0  0  0
    8.5159    5.2303    0.0940 C   0  0  0  0  0  0  0  0  0  0  0  0
    9.3390    6.5604    0.1223 C   0  0  3  0  0  0  0  0  0  0  0  0
    8.7630    7.9759    0.4558 C   0  0  0  0  0  0  0  0  0  0  0  0
    9.4249    8.4880   -0.8677 C   0  0  0  0  0  0  0  0  0  0  0  0
    9.6398    9.7721   -1.5075 N   0  0  0  0  0  0  0  0  0  0  0  0
    9.3911   11.0085   -0.8867 C   0  0  0  0  0  0  0  0  0  0  0  0
    8.9224   10.9992    0.2537 O   0  0  0  0  0  0  0  0  0  0  0  0
    9.6083   12.4429   -1.6234 C   0  0  0  0  0  0  0  0  0  0  0  0
    9.4119   13.4151   -0.6949 C   0  0  0  0  0  0  0  0  0  0  0  0
    8.9109   14.7150   -1.0357 C   0  0  0  0  0  0  0  0  0  0  0  0
    9.6781   15.7857   -1.2307 C   0  0  0  0  0  0  0  0  0  0  0  0
    9.1896   16.8434   -1.9669 N   0  0  0  0  0  0  0  0  0  0  0  0
   10.1249   17.4645   -2.7939 C   0  0  0  0  0  0  0  0  0  0  0  0
   10.9748   18.2480   -2.4293 O   0  0  0  0  0  0  0  0  0  0  0  0
   10.0824   16.7968   -4.1637 C   0  0  0  0  0  0  0  0  0  0  0  0
   10.7921   15.3935   -4.1363 C   0  0  0  0  0  0  0  0  0  0  0  0
    9.9228   14.0658   -4.1697 C   0  0  0  0  0  0  0  0  0  0  0  0
    9.5937   12.7655   -3.1605 C   0  0  0  0  0  0  0  0  0  0  0  0
    9.6332    7.2027   -1.2595 C   0  0  0  0  0  0  0  0  0  0  0  0
    3.2877    4.6506    8.2230 H   0  0  0  0  0  0  0  0  0  0  0  0
    4.9021    3.9208    8.3196 H   0  0  0  0  0  0  0  0  0  0  0  0
    3.5759    3.0775    7.4539 H   0  0  0  0  0  0  0  0  0  0  0  0
    4.9642    3.0437    5.4468 H   0  0  0  0  0  0  0  0  0  0  0  0
    6.2573    3.9042    6.3273 H   0  0  0  0  0  0  0  0  0  0  0  0
    5.9863    5.8530    4.7559 H   0  0  0  0  0  0  0  0  0  0  0  0
    4.7530    4.9761    3.8766 H   0  0  0  0  0  0  0  0  0  0  0  0
    6.4355    3.2114    3.2575 H   0  0  0  0  0  0  0  0  0  0  0  0
    7.6776    4.0755    4.1613 H   0  0  0  0  0  0  0  0  0  0  0  0
    7.3489    6.0852    2.6265 H   0  0  0  0  0  0  0  0  0  0  0  0
    6.1757    5.1369    1.7011 H   0  0  0  0  0  0  0  0  0  0  0  0
    7.9471    3.4691    1.1993 H   0  0  0  0  0  0  0  0  0  0  0  0
    9.1461    4.4259    2.0440 H   0  0  0  0  0  0  0  0  0  0  0  0
    7.5818    5.3508   -0.4643 H   0  0  0  0  0  0  0  0  0  0  0  0
    9.1197    4.5075   -0.4788 H   0  0  0  0  0  0  0  0  0  0  0  0
   10.2541    6.3398    0.6965 H   0  0  0  0  0  0  0  0  0  0  0  0
    9.1554    8.3718    1.3994 H   0  0  0  0  0  0  0  0  0  0  0  0
    7.6682    8.0047    0.4980 H   0  0  0  0  0  0  0  0  0  0  0  0
   10.0621    9.7560   -2.4278 H   0  0  0  0  0  0  0  0  0  0  0  0
    9.3565   13.1873    0.3706 H   0  0  0  0  0  0  0  0  0  0  0  0
    7.8511   14.7221   -1.2886 H   0  0  0  0  0  0  0  0  0  0  0  0
   10.7459   15.7996   -1.0144 H   0  0  0  0  0  0  0  0  0  0  0  0
    8.2978   16.6368   -2.4112 H   0  0  0  0  0  0  0  0  0  0  0  0
   10.6214   17.4928   -4.8372 H   0  0  0  0  0  0  0  0  0  0  0  0
    9.0653   16.7480   -4.5651 H   0  0  0  0  0  0  0  0  0  0  0  0
   11.3059   15.4080   -5.1167 H   0  0  0  0  0  0  0  0  0  0  0  0
   11.6026   15.3664   -3.4048 H   0  0  0  0  0  0  0  0  0  0  0  0
   10.4534   13.5271   -4.9764 H   0  0  0  0  0  0  0  0  0  0  0  0
    8.9725   14.3404   -4.6476 H   0  0  0  0  0  0  0  0  0  0  0  0
   10.0850   11.9171   -3.6481 H   0  0  0  0  0  0  0  0  0  0  0  0
    8.5248   12.6292   -3.3904 H   0  0  0  0  0  0  0  0  0  0  0  0
   10.0371    6.7570   -2.1655 H   0  0  0  0  0  0  0  0  0  0  0  0
  1  2  1  0  0  0  0
  1 27  1  0  0  0  0
  1 28  1  0  0  0  0
  1 29  1  0  0  0  0
  2  3  1  0  0  0  0
  3  4  1  0  0  0  0
  3 30  1  0  0  0  0
  3 31  1  0  0  0  0
  4  5  1  0  0  0  0
  4 32  1  0  0  0  0
  4 33  1  0  0  0  0
  5  6  1  0  0  0  0
  5 34  1  0  0  0  0
  5 35  1  0  0  0  0
  6  7  1  0  0  0  0
  6 36  1  0  0  0  0
  6 37  1  0  0  0  0
  7  8  1  0  0  0  0
  7 38  1  0  0  0  0
  7 39  1  0  0  0  0
  8  9  1  0  0  0  0
  8 40  1  0  0  0  0
  8 41  1  0  0  0  0
  9 10  1  0  0  0  0
  9 26  1  0  0  0  0
  9 42  1  0  0  0  0
 10 11  1  0  0  0  0
 10 43  1  0  0  0  0
 10 44  1  0  0  0  0
 11 12  1  0  0  0  0
 11 26  2  0  0  0  0
 12 13  1  0  0  0  0
 12 45  1  0  0  0  0
 13 14  2  0  0  0  0
 13 15  1  0  0  0  0
 15 16  2  3  0  0  0
 15 25  1  0  0  0  0
 16 17  1  0  0  0  0
 16 46  1  0  0  0  0
 17 18  2  3  0  0  0
 17 47  1  0  0  0  0
 18 19  1  0  0  0  0
 18 48  1  0  0  0  0
 19 20  1  0  0  0  0
 19 49  1  0  0  0  0
 20 21  2  0  0  0  0
 20 22  1  0  0  0  0
 22 23  1  0  0  0  0
 22 50  1  0  0  0  0
 22 51  1  0  0  0  0
 23 24  1  0  0  0  0
 23 52  1  0  0  0  0
 23 53  1  0  0  0  0
 24 25  1  0  0  0  0
 24 54  1  0  0  0  0
 24 55  1  0  0  0  0
 25 56  1  0  0  0  0
 25 57  1  0  0  0  0
 26 58  1  0  0  0  0
M  END
$$$$
