
 OpenBabel04232216453D

 59 60  0  0  0  0  0  0  0  0999 V2000
    8.1072    0.7370   -4.8775 C   0  0  0  0  0  0  0  0  0  0  0  0
    8.8195   -0.6092   -4.4348 C   0  0  0  0  0  0  0  0  0  0  0  0
    7.7714   -0.8261   -3.1988 C   0  0  0  0  0  0  0  0  0  0  0  0
    6.8092   -1.1170   -2.2171 C   0  0  0  0  0  0  0  0  0  0  0  0
    6.4603   -0.3891   -0.9030 C   0  0  0  0  0  0  0  0  0  0  0  0
    5.8958   -2.3189   -2.2285 C   0  0  0  0  0  0  0  0  0  0  0  0
    4.7863   -2.3081   -3.2899 C   0  0  0  0  0  0  0  0  0  0  0  0
    3.6219   -3.3322   -3.2596 C   0  0  0  0  0  0  0  0  0  0  0  0
    2.5647   -3.1146   -2.1687 C   0  0  0  0  0  0  0  0  0  0  0  0
    1.3708   -4.0628   -2.3190 C   0  0  0  0  0  0  0  0  0  0  0  0
    6.3987   -3.4462   -1.6347 C   0  0  0  0  0  0  0  0  0  0  0  0
    7.4099   -4.0475   -2.4994 C   0  0  0  0  0  0  0  0  0  0  0  0
    8.6731   -3.5555   -2.6158 C   0  0  0  0  0  0  0  0  0  0  0  0
    9.4408   -2.6137   -1.6560 C   0  0  0  0  0  0  0  0  0  0  0  0
   10.4392   -3.3106   -0.9353 O   0  0  0  0  0  0  0  0  0  0  0  0
    9.0846   -3.5387   -4.0271 C   0  0  0  0  0  0  0  0  0  0  0  0
   10.1515   -2.7749   -4.3711 C   0  0  0  0  0  0  0  0  0  0  0  0
   11.1470   -3.7709   -4.7112 C   0  0  0  0  0  0  0  0  0  0  0  0
   12.1512   -4.1593   -3.9221 C   0  0  0  0  0  0  0  0  0  0  0  0
   13.2092   -4.9621   -4.5210 C   0  0  0  0  0  0  0  0  0  0  0  0
   14.3789   -4.3029   -4.5944 C   0  0  0  0  0  0  0  0  0  0  0  0
   14.4725   -3.3516   -5.7117 C   0  0  0  0  0  0  0  0  0  0  0  0
   13.7806   -2.1733   -5.7231 C   0  0  0  0  0  0  0  0  0  0  0  0
   12.3999   -1.9495   -6.4695 C   0  0  0  0  0  0  0  0  0  0  0  0
   12.7873   -2.2979   -7.9676 C   0  0  0  0  0  0  0  0  0  0  0  0
   11.3142   -1.0965   -5.9970 C   0  0  0  0  0  0  0  0  0  0  0  0
    9.9836   -1.4211   -4.9402 C   0  0  0  0  0  0  0  0  0  0  0  0
    7.7582    0.7478   -5.9152 H   0  0  0  0  0  0  0  0  0  0  0  0
    8.6032    1.6544   -4.5472 H   0  0  0  0  0  0  0  0  0  0  0  0
    7.1141    0.8587   -4.3734 H   0  0  0  0  0  0  0  0  0  0  0  0
    7.3776   -1.5628   -3.9410 H   0  0  0  0  0  0  0  0  0  0  0  0
    5.3639   -0.3349   -0.7674 H   0  0  0  0  0  0  0  0  0  0  0  0
    6.8224    0.6322   -0.8196 H   0  0  0  0  0  0  0  0  0  0  0  0
    6.8112   -0.9492   -0.0215 H   0  0  0  0  0  0  0  0  0  0  0  0
    5.2782   -2.4230   -4.2596 H   0  0  0  0  0  0  0  0  0  0  0  0
    4.3353   -1.3036   -3.2958 H   0  0  0  0  0  0  0  0  0  0  0  0
    4.0093   -4.3560   -3.2078 H   0  0  0  0  0  0  0  0  0  0  0  0
    3.1097   -3.2488   -4.2290 H   0  0  0  0  0  0  0  0  0  0  0  0
    2.1863   -2.0864   -2.2163 H   0  0  0  0  0  0  0  0  0  0  0  0
    3.0074   -3.2582   -1.1787 H   0  0  0  0  0  0  0  0  0  0  0  0
    0.8609   -3.9203   -3.2785 H   0  0  0  0  0  0  0  0  0  0  0  0
    0.6343   -3.8794   -1.5277 H   0  0  0  0  0  0  0  0  0  0  0  0
    1.6786   -5.1111   -2.2503 H   0  0  0  0  0  0  0  0  0  0  0  0
    6.9093   -3.3062   -0.6775 H   0  0  0  0  0  0  0  0  0  0  0  0
    6.9696   -4.5777   -3.3466 H   0  0  0  0  0  0  0  0  0  0  0  0
    8.7888   -2.1354   -0.9228 H   0  0  0  0  0  0  0  0  0  0  0  0
    9.9470   -1.7675   -2.1514 H   0  0  0  0  0  0  0  0  0  0  0  0
   10.5665   -2.7947   -0.1210 H   0  0  0  0  0  0  0  0  0  0  0  0
    8.2316   -3.4394   -4.7049 H   0  0  0  0  0  0  0  0  0  0  0  0
   11.0436   -4.1671   -5.7188 H   0  0  0  0  0  0  0  0  0  0  0  0
   12.3308   -3.6727   -2.9621 H   0  0  0  0  0  0  0  0  0  0  0  0
   12.8623   -5.4372   -5.4454 H   0  0  0  0  0  0  0  0  0  0  0  0
   14.7884   -3.8665   -3.6820 H   0  0  0  0  0  0  0  0  0  0  0  0
   14.7526   -3.9013   -6.6229 H   0  0  0  0  0  0  0  0  0  0  0  0
   14.4201   -1.4597   -6.2707 H   0  0  0  0  0  0  0  0  0  0  0  0
   12.0494   -2.8855   -8.5154 H   0  0  0  0  0  0  0  0  0  0  0  0
   13.6868   -2.9407   -8.0402 H   0  0  0  0  0  0  0  0  0  0  0  0
   13.1185   -1.4190   -8.5360 H   0  0  0  0  0  0  0  0  0  0  0  0
   11.7934   -0.3880   -5.2780 H   0  0  0  0  0  0  0  0  0  0  0  0
  1  2  1  0  0  0  0
  1 28  1  0  0  0  0
  1 29  1  0  0  0  0
  1 30  1  0  0  0  0
  2  3  1  0  0  0  0
  2 27  2  0  0  0  0
  3  4  2  0  0  0  0
  3 31  1  0  0  0  0
  4  5  1  0  0  0  0
  4  6  1  0  0  0  0
  5 32  1  0  0  0  0
  5 33  1  0  0  0  0
  5 34  1  0  0  0  0
  6  7  1  0  0  0  0
  6 11  2  0  0  0  0
  7  8  1  0  0  0  0
  7 35  1  0  0  0  0
  7 36  1  0  0  0  0
  8  9  1  0  0  0  0
  8 37  1  0  0  0  0
  8 38  1  0  0  0  0
  9 10  1  0  0  0  0
  9 39  1  0  0  0  0
  9 40  1  0  0  0  0
 10 41  1  0  0  0  0
 10 42  1  0  0  0  0
 10 43  1  0  0  0  0
 11 12  1  0  0  0  0
 11 44  1  0  0  0  0
 12 13  2  0  0  0  0
 12 45  1  0  0  0  0
 13 14  1  0  0  0  0
 13 16  1  0  0  0  0
 14 15  1  0  0  0  0
 14 46  1  0  0  0  0
 14 47  1  0  0  0  0
 15 48  1  0  0  0  0
 16 17  2  0  0  0  0
 16 49  1  0  0  0  0
 17 18  1  0  0  0  0
 17 27  1  0  0  0  0
 18 19  2  0  0  0  0
 18 50  1  0  0  0  0
 19 20  1  0  0  0  0
 19 51  1  0  0  0  0
 20 21  2  0  0  0  0
 20 52  1  0  0  0  0
 21 22  1  0  0  0  0
 21 53  1  0  0  0  0
 22 23  2  0  0  0  0
 22 54  1  0  0  0  0
 23 24  1  0  0  0  0
 23 55  1  0  0  0  0
 24 25  1  0  0  0  0
 24 26  2  0  0  0  0
 25 56  1  0  0  0  0
 25 57  1  0  0  0  0
 25 58  1  0  0  0  0
 26 27  1  0  0  0  0
 26 59  1  0  0  0  0
M  END
$$$$
