
 OpenBabel04232216573D

152151  0  0  0  0  0  0  0  0999 V2000
   13.2162  -17.4869  -10.2270 C   0  0  0  0  0  0  0  0  0  0  0  0
   14.6205  -17.6574  -10.3400 O   0  0  0  0  0  0  0  0  0  0  0  0
   15.3286  -16.6104   -9.6788 C   0  0  0  0  0  0  0  0  0  0  0  0
   16.8271  -16.8362   -9.8430 C   0  0  0  0  0  0  0  0  0  0  0  0
   17.2183  -16.8342  -11.3211 C   0  0  0  0  0  0  0  0  0  0  0  0
   18.6511  -17.0470  -11.4418 N   0  0  0  0  0  0  0  0  0  0  0  0
   18.9671  -17.0613  -12.8132 N   0  0  0  0  0  0  0  0  0  0  0  0
   20.3324  -17.3461  -12.9668 N   0  0  0  0  0  0  0  0  0  0  0  0
   20.6593  -17.3430  -14.3356 N   0  0  0  0  0  0  0  0  0  0  0  0
   20.4016  -16.0458  -14.9226 N   0  0  0  0  0  0  0  0  0  0  0  0
   21.1359  -14.9663  -14.3146 N   0  0  0  0  0  0  0  0  0  0  0  0
   22.5597  -15.0933  -14.4255 N   0  0  0  0  0  0  0  0  0  0  0  0
   22.9592  -15.1519  -15.7962 N   0  0  0  0  0  0  0  0  0  0  0  0
   22.6000  -13.9111  -16.4408 N   0  0  0  0  0  0  0  0  0  0  0  0
   23.2629  -12.8115  -15.7970 N   0  0  0  0  0  0  0  0  0  0  0  0
   24.6586  -12.9905  -15.8422 N   0  0  0  0  0  0  0  0  0  0  0  0
   25.0364  -13.0958  -17.2053 N   0  0  0  0  0  0  0  0  0  0  0  0
   24.6542  -11.8497  -17.8590 N   0  0  0  0  0  0  0  0  0  0  0  0
   25.2842  -10.7445  -17.1698 N   0  0  0  0  0  0  0  0  0  0  0  0
   26.6954  -10.9955  -17.2117 N   0  0  0  0  0  0  0  0  0  0  0  0
   27.0603  -11.0846  -18.6075 N   0  0  0  0  0  0  0  0  0  0  0  0
   26.6583   -9.8691  -19.2415 N   0  0  0  0  0  0  0  0  0  0  0  0
   27.3466   -8.7339  -18.6263 N   0  0  0  0  0  0  0  0  0  0  0  0
   28.8183   -8.7946  -18.6801 N   0  0  0  0  0  0  0  0  0  0  0  0
   29.2987   -8.8526  -20.0015 N   0  0  0  0  0  0  0  0  0  0  0  0
   28.8875   -7.6630  -20.6590 N   0  0  0  0  0  0  0  0  0  0  0  0
   29.4128   -6.5015  -19.9958 N   0  0  0  0  0  0  0  0  0  0  0  0
   30.8254   -6.5632  -19.9785 N   0  0  0  0  0  0  0  0  0  0  0  0
   31.3109   -6.5903  -21.3414 N   0  0  0  0  0  0  0  0  0  0  0  0
   30.8379   -5.4273  -22.0648 N   0  0  0  0  0  0  0  0  0  0  0  0
   31.3441   -4.2780  -21.3879 N   0  0  0  0  0  0  0  0  0  0  0  0
   32.7853   -4.3386  -21.3779 N   0  0  0  0  0  0  0  0  0  0  0  0
   33.3031   -4.3532  -22.7051 N   0  0  0  0  0  0  0  0  0  0  0  0
   32.8870   -3.1884  -23.4383 N   0  0  0  0  0  0  0  0  0  0  0  0
   33.3115   -2.0014  -22.7843 N   0  0  0  0  0  0  0  0  0  0  0  0
   34.7323   -1.9814  -22.7677 N   0  0  0  0  0  0  0  0  0  0  0  0
   35.2162   -2.1078  -24.1043 N   0  0  0  0  0  0  0  0  0  0  0  0
   34.7755   -0.9894  -24.8857 N   0  0  0  0  0  0  0  0  0  0  0  0
   35.2155    0.2466  -24.2791 N   0  0  0  0  0  0  0  0  0  0  0  0
   36.6388    0.1941  -24.1763 N   0  0  0  0  0  0  0  0  0  0  0  0
   37.1779    0.0937  -25.5065 N   0  0  0  0  0  0  0  0  0  0  0  0
   36.7394    1.2016  -26.3367 N   0  0  0  0  0  0  0  0  0  0  0  0
   37.1771    2.4770  -25.8084 N   0  0  0  0  0  0  0  0  0  0  0  0
   38.5921    2.5088  -25.6772 N   0  0  0  0  0  0  0  0  0  0  0  0
   39.1816    2.3862  -26.9752 N   0  0  0  0  0  0  0  0  0  0  0  0
   38.7085    3.4331  -27.8495 N   0  0  0  0  0  0  0  0  0  0  0  0
   39.0724    4.7406  -27.3485 N   0  0  0  0  0  0  0  0  0  0  0  0
   40.5071    4.8230  -27.1802 N   0  0  0  0  0  0  0  0  0  0  0  0
   41.1779    4.6477  -28.4444 N   0  0  0  0  0  0  0  0  0  0  0  0
   40.7897    5.6288  -29.4358 N   0  0  0  0  0  0  0  0  0  0  0  0
   41.1043    6.9747  -29.0394 N   0  0  0  0  0  0  0  0  0  0  0  0
   42.5262    7.1523  -28.7900 N   0  0  0  0  0  0  0  0  0  0  0  0
   43.5055    7.0314  -30.1316 S   0  0  0  0  0  0  0  0  0  0  0  0
   42.9532    8.1182  -31.2710 N   0  0  0  0  0  0  0  0  0  0  0  0
   43.1566    9.6834  -30.7533 S   0  0  0  0  0  0  0  0  0  0  0  0
   42.6370   10.7572  -31.9112 N   0  0  0  0  0  0  0  0  0  0  0  0
   41.0311   10.6179  -32.3325 S   0  0  0  0  0  0  0  0  0  0  0  0
   40.0430   10.7768  -31.0045 N   0  0  0  0  0  0  0  0  0  0  0  0
   38.4259   10.6617  -31.4096 S   0  0  0  0  0  0  0  0  0  0  0  0
   38.1373    9.1255  -31.9752 N   0  0  0  0  0  0  0  0  0  0  0  0
   36.5409    8.9631  -32.4140 S   0  0  0  0  0  0  0  0  0  0  0  0
   36.2668    7.4415  -33.0070 N   0  0  0  0  0  0  0  0  0  0  0  0
   37.1032    7.0438  -34.3905 S   0  0  0  0  0  0  0  0  0  0  0  0
   38.7402    7.1008  -34.1039 N   0  0  0  0  0  0  0  0  0  0  0  0
   39.3279    5.9995  -33.0204 S   0  0  0  0  0  0  0  0  0  0  0  0
   39.0464    4.4583  -33.5163 N   0  0  0  0  0  0  0  0  0  0  0  0
   39.8508    3.9103  -34.8385 S   0  0  0  0  0  0  0  0  0  0  0  0
   41.4844    4.0488  -34.6605 N   0  0  0  0  0  0  0  0  0  0  0  0
   42.1670    3.0263  -33.5543 S   0  0  0  0  0  0  0  0  0  0  0  0
   43.8122    3.2983  -33.5326 N   0  0  0  0  0  0  0  0  0  0  0  0
   44.6149    2.8364  -34.9173 S   0  0  0  0  0  0  0  0  0  0  0  0
   44.1457    3.8103  -36.1831 N   0  0  0  0  0  0  0  0  0  0  0  0
   44.4554    5.4365  -35.9519 S   0  0  0  0  0  0  0  0  0  0  0  0
   46.0932    5.7002  -35.8011 N   0  0  0  0  0  0  0  0  0  0  0  0
   46.3936    7.3285  -35.6073 S   0  0  0  0  0  0  0  0  0  0  0  0
   48.0362    7.5529  -35.4714 N   0  0  0  0  0  0  0  0  0  0  0  0
   48.8554    7.1094  -36.8377 S   0  0  0  0  0  0  0  0  0  0  0  0
   50.4688    7.4021  -36.6193 N   0  0  0  0  0  0  0  0  0  0  0  0
   51.1171    6.5529  -35.3564 S   0  0  0  0  0  0  0  0  0  0  0  0
   52.7309    6.8924  -35.2961 N   0  0  0  0  0  0  0  0  0  0  0  0
   53.0740    8.4857  -35.0249 S   0  0  0  0  0  0  0  0  0  0  0  0
   12.7245  -18.3087  -10.7540 H   0  0  0  0  0  0  0  0  0  0  0  0
   12.9068  -16.5421  -10.6845 H   0  0  0  0  0  0  0  0  0  0  0  0
   12.9165  -17.5136   -9.1756 H   0  0  0  0  0  0  0  0  0  0  0  0
   15.0700  -16.6129   -8.6150 H   0  0  0  0  0  0  0  0  0  0  0  0
   15.0466  -15.6435  -10.1121 H   0  0  0  0  0  0  0  0  0  0  0  0
   17.1028  -17.7968   -9.3889 H   0  0  0  0  0  0  0  0  0  0  0  0
   17.3741  -16.0517   -9.3055 H   0  0  0  0  0  0  0  0  0  0  0  0
   16.9442  -15.8692  -11.7653 H   0  0  0  0  0  0  0  0  0  0  0  0
   16.6691  -17.6196  -11.8562 H   0  0  0  0  0  0  0  0  0  0  0  0
   18.8998  -17.9610  -11.0674 H   0  0  0  0  0  0  0  0  0  0  0  0
   18.8304  -16.1426  -13.2464 H   0  0  0  0  0  0  0  0  0  0  0  0
   20.5916  -18.2193  -12.5107 H   0  0  0  0  0  0  0  0  0  0  0  0
   20.1601  -18.0804  -14.8478 H   0  0  0  0  0  0  0  0  0  0  0  0
   19.4022  -15.8188  -14.8930 H   0  0  0  0  0  0  0  0  0  0  0  0
   20.8959  -14.8440  -13.3355 H   0  0  0  0  0  0  0  0  0  0  0  0
   22.8708  -15.9286  -13.9464 H   0  0  0  0  0  0  0  0  0  0  0  0
   22.4513  -15.9304  -16.2313 H   0  0  0  0  0  0  0  0  0  0  0  0
   21.6000  -13.7701  -16.3121 H   0  0  0  0  0  0  0  0  0  0  0  0
   22.9735  -12.7682  -14.8243 H   0  0  0  0  0  0  0  0  0  0  0  0
   24.9282  -13.8253  -15.3293 H   0  0  0  0  0  0  0  0  0  0  0  0
   24.5314  -13.8892  -17.6328 H   0  0  0  0  0  0  0  0  0  0  0  0
   23.6511  -11.7430  -17.6972 H   0  0  0  0  0  0  0  0  0  0  0  0
   24.9950  -10.8336  -16.1985 H   0  0  0  0  0  0  0  0  0  0  0  0
   26.7909  -11.9190  -16.7718 H   0  0  0  0  0  0  0  0  0  0  0  0
   26.4828  -11.8092  -19.0327 H   0  0  0  0  0  0  0  0  0  0  0  0
   25.6303   -9.7736  -19.1613 H   0  0  0  0  0  0  0  0  0  0  0  0
   27.1059   -8.6919  -17.6365 H   0  0  0  0  0  0  0  0  0  0  0  0
   29.1467   -9.6304  -18.2069 H   0  0  0  0  0  0  0  0  0  0  0  0
   28.9091   -9.6922  -20.4407 H   0  0  0  0  0  0  0  0  0  0  0  0
   27.8810   -7.5931  -20.5435 H   0  0  0  0  0  0  0  0  0  0  0  0
   29.0716   -6.4909  -19.0324 H   0  0  0  0  0  0  0  0  0  0  0  0
   31.0796   -7.4337  -19.4942 H   0  0  0  0  0  0  0  0  0  0  0  0
   30.8472   -7.3873  -21.7679 H   0  0  0  0  0  0  0  0  0  0  0  0
   29.8152   -5.4759  -21.9555 H   0  0  0  0  0  0  0  0  0  0  0  0
   31.0697   -4.3713  -20.4157 H   0  0  0  0  0  0  0  0  0  0  0  0
   33.0594   -5.2090  -20.9019 H   0  0  0  0  0  0  0  0  0  0  0  0
   32.9573   -5.1629  -23.2104 H   0  0  0  0  0  0  0  0  0  0  0  0
   31.8697   -3.1933  -23.4792 H   0  0  0  0  0  0  0  0  0  0  0  0
   32.9816   -2.0341  -21.8229 H   0  0  0  0  0  0  0  0  0  0  0  0
   35.0251   -2.8284  -22.2922 H   0  0  0  0  0  0  0  0  0  0  0  0
   34.7760   -2.9612  -24.4647 H   0  0  0  0  0  0  0  0  0  0  0  0
   33.7621   -0.9939  -24.8447 H   0  0  0  0  0  0  0  0  0  0  0  0
   34.8667    0.1800  -23.3257 H   0  0  0  0  0  0  0  0  0  0  0  0
   36.8231   -0.6880  -23.6854 H   0  0  0  0  0  0  0  0  0  0  0  0
   36.7592   -0.7420  -25.9227 H   0  0  0  0  0  0  0  0  0  0  0  0
   35.7058    1.1345  -26.3345 H   0  0  0  0  0  0  0  0  0  0  0  0
   36.8068    2.5362  -24.8606 H   0  0  0  0  0  0  0  0  0  0  0  0
   38.8411    1.7068  -25.0719 H   0  0  0  0  0  0  0  0  0  0  0  0
   38.8158    1.5121  -27.3578 H   0  0  0  0  0  0  0  0  0  0  0  0
   37.6898    3.3639  -27.8081 H   0  0  0  0  0  0  0  0  0  0  0  0
   38.6228    4.7502  -26.4196 H   0  0  0  0  0  0  0  0  0  0  0  0
   40.7506    3.9897  -26.6489 H   0  0  0  0  0  0  0  0  0  0  0  0
   40.8446    3.7412  -28.7904 H   0  0  0  0  0  0  0  0  0  0  0  0
   39.7763    5.5029  -29.5409 H   0  0  0  0  0  0  0  0  0  0  0  0
   40.6326    7.1086  -28.1364 H   0  0  0  0  0  0  0  0  0  0  0  0
   42.7815    6.4506  -28.0922 H   0  0  0  0  0  0  0  0  0  0  0  0
   41.9650    7.8835  -31.3768 H   0  0  0  0  0  0  0  0  0  0  0  0
   43.2257   10.6573  -32.7419 H   0  0  0  0  0  0  0  0  0  0  0  0
   40.1953   11.6921  -30.5691 H   0  0  0  0  0  0  0  0  0  0  0  0
   38.4292    8.4166  -31.3001 H   0  0  0  0  0  0  0  0  0  0  0  0
   35.2683    7.3163  -33.1646 H   0  0  0  0  0  0  0  0  0  0  0  0
   38.9541    8.0515  -33.7740 H   0  0  0  0  0  0  0  0  0  0  0  0
   38.0474    4.2461  -33.5218 H   0  0  0  0  0  0  0  0  0  0  0  0
   41.7769    5.0136  -34.5153 H   0  0  0  0  0  0  0  0  0  0  0  0
   44.2287    2.7742  -32.7539 H   0  0  0  0  0  0  0  0  0  0  0  0
   43.1364    3.6906  -36.2784 H   0  0  0  0  0  0  0  0  0  0  0  0
   46.5691    5.3907  -36.6434 H   0  0  0  0  0  0  0  0  0  0  0  0
   48.3838    7.0730  -34.6425 H   0  0  0  0  0  0  0  0  0  0  0  0
   50.6526    8.3932  -36.4988 H   0  0  0  0  0  0  0  0  0  0  0  0
   53.2066    6.5508  -36.1259 H   0  0  0  0  0  0  0  0  0  0  0  0
   52.7443    8.5515  -33.7266 H   0  0  0  0  0  0  0  0  0  0  0  0
  1  2  1  0  0  0  0
  1 82  1  0  0  0  0
  1 83  1  0  0  0  0
  1 84  1  0  0  0  0
  2  3  1  0  0  0  0
  3  4  1  0  0  0  0
  3 85  1  0  0  0  0
  3 86  1  0  0  0  0
  4  5  1  0  0  0  0
  4 87  1  0  0  0  0
  4 88  1  0  0  0  0
  5  6  1  0  0  0  0
  5 89  1  0  0  0  0
  5 90  1  0  0  0  0
  6  7  1  0  0  0  0
  6 91  1  0  0  0  0
  7  8  1  0  0  0  0
  7 92  1  0  0  0  0
  8  9  1  0  0  0  0
  8 93  1  0  0  0  0
  9 10  1  0  0  0  0
  9 94  1  0  0  0  0
 10 11  1  0  0  0  0
 10 95  1  0  0  0  0
 11 12  1  0  0  0  0
 11 96  1  0  0  0  0
 12 13  1  0  0  0  0
 12 97  1  0  0  0  0
 13 14  1  0  0  0  0
 13 98  1  0  0  0  0
 14 15  1  0  0  0  0
 14 99  1  0  0  0  0
 15 16  1  0  0  0  0
 15100  1  0  0  0  0
 16 17  1  0  0  0  0
 16101  1  0  0  0  0
 17 18  1  0  0  0  0
 17102  1  0  0  0  0
 18 19  1  0  0  0  0
 18103  1  0  0  0  0
 19 20  1  0  0  0  0
 19104  1  0  0  0  0
 20 21  1  0  0  0  0
 20105  1  0  0  0  0
 21 22  1  0  0  0  0
 21106  1  0  0  0  0
 22 23  1  0  0  0  0
 22107  1  0  0  0  0
 23 24  1  0  0  0  0
 23108  1  0  0  0  0
 24 25  1  0  0  0  0
 24109  1  0  0  0  0
 25 26  1  0  0  0  0
 25110  1  0  0  0  0
 26 27  1  0  0  0  0
 26111  1  0  0  0  0
 27 28  1  0  0  0  0
 27112  1  0  0  0  0
 28 29  1  0  0  0  0
 28113  1  0  0  0  0
 29 30  1  0  0  0  0
 29114  1  0  0  0  0
 30 31  1  0  0  0  0
 30115  1  0  0  0  0
 31 32  1  0  0  0  0
 31116  1  0  0  0  0
 32 33  1  0  0  0  0
 32117  1  0  0  0  0
 33 34  1  0  0  0  0
 33118  1  0  0  0  0
 34 35  1  0  0  0  0
 34119  1  0  0  0  0
 35 36  1  0  0  0  0
 35120  1  0  0  0  0
 36 37  1  0  0  0  0
 36121  1  0  0  0  0
 37 38  1  0  0  0  0
 37122  1  0  0  0  0
 38 39  1  0  0  0  0
 38123  1  0  0  0  0
 39 40  1  0  0  0  0
 39124  1  0  0  0  0
 40 41  1  0  0  0  0
 40125  1  0  0  0  0
 41 42  1  0  0  0  0
 41126  1  0  0  0  0
 42 43  1  0  0  0  0
 42127  1  0  0  0  0
 43 44  1  0  0  0  0
 43128  1  0  0  0  0
 44 45  1  0  0  0  0
 44129  1  0  0  0  0
 45 46  1  0  0  0  0
 45130  1  0  0  0  0
 46 47  1  0  0  0  0
 46131  1  0  0  0  0
 47 48  1  0  0  0  0
 47132  1  0  0  0  0
 48 49  1  0  0  0  0
 48133  1  0  0  0  0
 49 50  1  0  0  0  0
 49134  1  0  0  0  0
 50 51  1  0  0  0  0
 50135  1  0  0  0  0
 51 52  1  0  0  0  0
 51136  1  0  0  0  0
 52 53  1  0  0  0  0
 52137  1  0  0  0  0
 53 54  1  0  0  0  0
 54 55  1  0  0  0  0
 54138  1  0  0  0  0
 55 56  1  0  0  0  0
 56 57  1  0  0  0  0
 56139  1  0  0  0  0
 57 58  1  0  0  0  0
 58 59  1  0  0  0  0
 58140  1  0  0  0  0
 59 60  1  0  0  0  0
 60 61  1  0  0  0  0
 60141  1  0  0  0  0
 61 62  1  0  0  0  0
 62 63  1  0  0  0  0
 62142  1  0  0  0  0
 63 64  1  0  0  0  0
 64 65  1  0  0  0  0
 64143  1  0  0  0  0
 65 66  1  0  0  0  0
 66 67  1  0  0  0  0
 66144  1  0  0  0  0
 67 68  1  0  0  0  0
 68 69  1  0  0  0  0
 68145  1  0  0  0  0
 69 70  1  0  0  0  0
 70 71  1  0  0  0  0
 70146  1  0  0  0  0
 71 72  1  0  0  0  0
 72 73  1  0  0  0  0
 72147  1  0  0  0  0
 73 74  1  0  0  0  0
 74 75  1  0  0  0  0
 74148  1  0  0  0  0
 75 76  1  0  0  0  0
 76 77  1  0  0  0  0
 76149  1  0  0  0  0
 77 78  1  0  0  0  0
 78 79  1  0  0  0  0
 78150  1  0  0  0  0
 79 80  1  0  0  0  0
 80 81  1  0  0  0  0
 80151  1  0  0  0  0
 81152  1  0  0  0  0
M  END
$$$$
