
 OpenBabel04232216553D

 43 45  0  0  0  0  0  0  0  0999 V2000
    1.4325   -0.0440   -0.2697 C   0  0  0  0  0  0  0  0  0  0  0  0
    2.8756    0.1112   -0.1408 N   0  0  0  0  0  0  0  0  0  0  0  0
    3.6463   -1.0717   -0.2560 C   0  0  0  0  0  0  0  0  0  0  0  0
    3.1679   -2.1915   -0.4128 O   0  0  0  0  0  0  0  0  0  0  0  0
    5.1334   -0.8721   -0.2224 C   0  0  0  0  0  0  0  0  0  0  0  0
    5.6838    0.0451   -1.2566 C   0  0  0  0  0  0  0  0  0  0  0  0
    6.9496   -0.3931   -1.7461 O   0  0  0  0  0  0  0  0  0  0  0  0
    5.7444   -1.4871    0.8035 C   0  0  0  0  0  0  0  0  0  0  0  0
    7.0707   -1.2609    1.4406 C   0  0  0  0  0  0  0  0  0  0  0  0
    7.8587   -0.1450    1.1167 C   0  0  0  0  0  0  0  0  0  0  0  0
    9.1939   -0.0533    1.5067 C   0  0  0  0  0  0  0  0  0  0  0  0
    9.7555   -1.0751    2.2533 C   0  0  0  0  0  0  0  0  0  0  0  0
    8.9301   -2.0775    2.7632 C   0  0  0  0  0  0  0  0  0  0  0  0
    7.5532   -2.1128    2.4554 C   0  0  0  0  0  0  0  0  0  0  0  0
    6.7261   -3.1047    3.1783 C   0  0  0  0  0  0  0  0  0  0  0  0
    5.4600   -3.0291    3.6451 C   0  0  0  0  0  0  0  0  0  0  0  0
    4.7773   -4.2776    3.9786 C   0  0  0  0  0  0  0  0  0  0  0  0
    3.4646   -4.0120    4.0209 C   0  0  0  0  0  0  0  0  0  0  0  0
    3.2614   -2.5905    3.8617 C   0  0  0  0  0  0  0  0  0  0  0  0
    4.4352   -1.9492    3.6607 C   0  0  0  0  0  0  0  0  0  0  0  0
    4.5259   -0.5218    3.3698 C   0  0  0  0  0  0  0  0  0  0  0  0
    3.5619    0.1056    2.6756 C   0  0  0  0  0  0  0  0  0  0  0  0
    3.7324    1.2662    1.8248 C   0  0  0  0  0  0  0  0  0  0  0  0
    3.3143    1.2513    0.5407 C   0  0  0  0  0  0  0  0  0  0  0  0
    1.0318   -0.4555    0.6575 H   0  0  0  0  0  0  0  0  0  0  0  0
    1.1946   -0.7446   -1.0809 H   0  0  0  0  0  0  0  0  0  0  0  0
    0.9629    0.9198   -0.4811 H   0  0  0  0  0  0  0  0  0  0  0  0
    5.7916    1.0653   -0.8748 H   0  0  0  0  0  0  0  0  0  0  0  0
    5.0080    0.0806   -2.1132 H   0  0  0  0  0  0  0  0  0  0  0  0
    7.1462   -1.2627   -1.3561 H   0  0  0  0  0  0  0  0  0  0  0  0
    5.1425   -2.2592    1.2874 H   0  0  0  0  0  0  0  0  0  0  0  0
    7.4558    0.6799    0.5402 H   0  0  0  0  0  0  0  0  0  0  0  0
    9.7915    0.7990    1.1934 H   0  0  0  0  0  0  0  0  0  0  0  0
   10.8192   -1.0674    2.4744 H   0  0  0  0  0  0  0  0  0  0  0  0
    9.3737   -2.8325    3.4094 H   0  0  0  0  0  0  0  0  0  0  0  0
    7.2365   -4.0646    3.2697 H   0  0  0  0  0  0  0  0  0  0  0  0
    5.2265   -5.2568    4.0020 H   0  0  0  0  0  0  0  0  0  0  0  0
    2.6662   -4.7341    4.0876 H   0  0  0  0  0  0  0  0  0  0  0  0
    2.2737   -2.1560    3.8412 H   0  0  0  0  0  0  0  0  0  0  0  0
    5.5173   -0.0704    3.4613 H   0  0  0  0  0  0  0  0  0  0  0  0
    2.6119   -0.3995    2.5119 H   0  0  0  0  0  0  0  0  0  0  0  0
    4.1348    2.1768    2.2613 H   0  0  0  0  0  0  0  0  0  0  0  0
    3.3007    2.1606   -0.0558 H   0  0  0  0  0  0  0  0  0  0  0  0
  1  2  1  0  0  0  0
  1 25  1  0  0  0  0
  1 26  1  0  0  0  0
  1 27  1  0  0  0  0
  2  3  1  0  0  0  0
  2 24  1  0  0  0  0
  3  4  2  0  0  0  0
  3  5  1  0  0  0  0
  5  6  1  0  0  0  0
  5  8  2  3  0  0  0
  6  7  1  0  0  0  0
  6 28  1  0  0  0  0
  6 29  1  0  0  0  0
  7 30  1  0  0  0  0
  8  9  1  0  0  0  0
  8 31  1  0  0  0  0
  9 10  1  0  0  0  0
  9 14  2  0  0  0  0
 10 11  2  0  0  0  0
 10 32  1  0  0  0  0
 11 12  1  0  0  0  0
 11 33  1  0  0  0  0
 12 13  2  0  0  0  0
 12 34  1  0  0  0  0
 13 14  1  0  0  0  0
 13 35  1  0  0  0  0
 14 15  1  0  0  0  0
 15 16  2  3  0  0  0
 15 36  1  0  0  0  0
 16 17  1  0  0  0  0
 16 20  1  0  0  0  0
 17 18  2  0  0  0  0
 17 37  1  0  0  0  0
 18 19  1  0  0  0  0
 18 38  1  0  0  0  0
 19 20  2  0  0  0  0
 19 39  1  0  0  0  0
 20 21  1  0  0  0  0
 21 22  2  3  0  0  0
 21 40  1  0  0  0  0
 22 23  1  0  0  0  0
 22 41  1  0  0  0  0
 23 24  2  3  0  0  0
 23 42  1  0  0  0  0
 24 43  1  0  0  0  0
M  END
$$$$
