
 OpenBabel04232216393D

 72 72  0  0  0  0  0  0  0  0999 V2000
   14.4914   -4.3330    4.0835 C   0  0  0  0  0  0  0  0  0  0  0  0
   15.5112   -4.5678    5.4335 C   0  0  0  0  0  0  0  0  0  0  0  0
   13.4795   -3.7764    5.1928 C   0  0  0  0  0  0  0  0  0  0  0  0
   11.9551   -2.9571    4.3137 C   0  0  0  0  0  0  0  0  0  0  0  0
    9.9718   -2.7872    3.6783 C   0  0  0  0  0  0  0  0  0  0  0  0
    8.9917   -2.7129    2.3280 C   0  0  0  0  0  0  0  0  0  0  0  0
    8.1601   -3.9892    2.3389 C   0  0  0  0  0  0  0  0  0  0  0  0
    9.0178   -4.9756    2.0080 C   0  0  0  0  0  0  0  0  0  0  0  0
   10.3110   -5.2095    2.6323 C   0  0  0  0  0  0  0  0  0  0  0  0
   11.6325   -5.3506    2.3646 C   0  0  0  0  0  0  0  0  0  0  0  0
   11.9269   -6.1495    3.6559 C   0  0  0  0  0  0  0  0  0  0  0  0
   13.1053   -6.4392    4.1365 C   0  0  0  0  0  0  0  0  0  0  0  0
   13.6255   -7.0333    5.2897 C   0  0  0  0  0  0  0  0  0  0  0  0
   14.8542   -7.4127    4.9467 C   0  0  0  0  0  0  0  0  0  0  0  0
   15.8401   -8.1067    5.6138 C   0  0  0  0  0  0  0  0  0  0  0  0
   17.1368   -8.1594    5.3264 C   0  0  0  0  0  0  0  0  0  0  0  0
   17.8119   -8.9828    6.1999 C   0  0  0  0  0  0  0  0  0  0  0  0
   19.0349   -9.2343    5.8093 C   0  0  0  0  0  0  0  0  0  0  0  0
   19.7316  -10.0233    6.7303 C   0  0  0  0  0  0  0  0  0  0  0  0
   20.9984  -10.2657    6.5109 C   0  0  0  0  0  0  0  0  0  0  0  0
   21.7251  -11.0669    7.4405 C   0  0  0  0  0  0  0  0  0  0  0  0
   22.9893  -11.2764    7.1198 C   0  0  0  0  0  0  0  0  0  0  0  0
   23.7735  -12.1768    7.9376 C   0  0  0  0  0  0  0  0  0  0  0  0
   25.0465  -12.2594    7.5507 C   0  0  0  0  0  0  0  0  0  0  0  0
   26.2504  -12.8467    8.0110 C   0  0  0  0  0  0  0  0  0  0  0  0
   27.5162  -12.4810    7.5934 C   0  0  0  0  0  0  0  0  0  0  0  0
   28.5541  -12.9674    8.4483 C   0  0  0  0  0  0  0  0  0  0  0  0
   28.7524  -11.7871    9.1569 C   0  0  0  0  0  0  0  0  0  0  0  0
   27.0961  -10.8659    9.5037 C   0  0  0  0  0  0  0  0  0  0  0  0
   25.5690   -9.9895    9.0265 C   0  0  0  0  0  0  0  0  0  0  0  0
   23.5595   -9.0616    8.6547 C   0  0  0  0  0  0  0  0  0  0  0  0
   21.7223   -7.9332    7.8101 C   0  0  0  0  0  0  0  0  0  0  0  0
   19.5969   -6.8297    6.8637 C   0  0  0  0  0  0  0  0  0  0  0  0
   17.4935   -5.7192    6.0856 C   0  0  0  0  0  0  0  0  0  0  0  0
   13.7736   -3.6737    3.1324 H   0  0  0  0  0  0  0  0  0  0  0  0
   13.0959   -4.4219    3.6700 H   0  0  0  0  0  0  0  0  0  0  0  0
   12.1083   -4.1392    5.0570 H   0  0  0  0  0  0  0  0  0  0  0  0
   11.3342   -2.1588    3.3388 H   0  0  0  0  0  0  0  0  0  0  0  0
    8.7027   -2.1789    3.8777 H   0  0  0  0  0  0  0  0  0  0  0  0
    8.4684   -2.0089    1.3551 H   0  0  0  0  0  0  0  0  0  0  0  0
    7.1432   -4.1353    2.7953 H   0  0  0  0  0  0  0  0  0  0  0  0
    9.5898   -4.6287    1.1632 H   0  0  0  0  0  0  0  0  0  0  0  0
   10.0965   -5.0378    3.6936 H   0  0  0  0  0  0  0  0  0  0  0  0
   12.3393   -4.5323    1.7937 H   0  0  0  0  0  0  0  0  0  0  0  0
   11.1404   -6.3136    4.4025 H   0  0  0  0  0  0  0  0  0  0  0  0
   13.8959   -6.0771    3.5148 H   0  0  0  0  0  0  0  0  0  0  0  0
   12.9071   -7.6014    5.8337 H   0  0  0  0  0  0  0  0  0  0  0  0
   15.0697   -7.3768    3.8795 H   0  0  0  0  0  0  0  0  0  0  0  0
   15.4444   -8.6398    6.4453 H   0  0  0  0  0  0  0  0  0  0  0  0
   17.8424   -7.5920    4.6511 H   0  0  0  0  0  0  0  0  0  0  0  0
   17.3309   -9.4135    7.0557 H   0  0  0  0  0  0  0  0  0  0  0  0
   19.4430   -8.5833    4.9891 H   0  0  0  0  0  0  0  0  0  0  0  0
   19.2873  -10.3900    7.6459 H   0  0  0  0  0  0  0  0  0  0  0  0
   21.5258   -9.6141    5.7716 H   0  0  0  0  0  0  0  0  0  0  0  0
   21.3487  -11.4796    8.3748 H   0  0  0  0  0  0  0  0  0  0  0  0
   23.4612  -10.5633    6.3919 H   0  0  0  0  0  0  0  0  0  0  0  0
   23.3884  -12.4787    8.9175 H   0  0  0  0  0  0  0  0  0  0  0  0
   25.3275  -11.4246    6.9364 H   0  0  0  0  0  0  0  0  0  0  0  0
   26.0776  -13.2361    9.0363 H   0  0  0  0  0  0  0  0  0  0  0  0
   27.9326  -11.3768    7.4701 H   0  0  0  0  0  0  0  0  0  0  0  0
   28.0678  -13.8507    8.9358 H   0  0  0  0  0  0  0  0  0  0  0  0
   29.9275  -12.0184    9.6133 H   0  0  0  0  0  0  0  0  0  0  0  0
   27.5291  -11.8959   10.2974 H   0  0  0  0  0  0  0  0  0  0  0  0
   25.8509  -10.9426    9.9823 H   0  0  0  0  0  0  0  0  0  0  0  0
   24.2758   -9.8851    7.9367 H   0  0  0  0  0  0  0  0  0  0  0  0
   23.7176   -9.9574    9.6786 H   0  0  0  0  0  0  0  0  0  0  0  0
   22.6878   -7.6525    7.4004 H   0  0  0  0  0  0  0  0  0  0  0  0
   22.0502   -8.8768    7.1668 H   0  0  0  0  0  0  0  0  0  0  0  0
   20.5556   -6.4028    6.4277 H   0  0  0  0  0  0  0  0  0  0  0  0
   19.9354   -7.5469    6.1130 H   0  0  0  0  0  0  0  0  0  0  0  0
   17.1706   -6.2556    5.0059 H   0  0  0  0  0  0  0  0  0  0  0  0
   17.5441   -5.1081    5.0691 H   0  0  0  0  0  0  0  0  0  0  0  0
  1  2  2  0  0  0  0
  1 35  1  0  0  0  0
  1 36  1  0  0  0  0
  2  3  1  0  0  0  0
  2 34  1  0  0  0  0
  3  4  2  3  0  0  0
  3 37  1  0  0  0  0
  4  5  1  0  0  0  0
  4 38  1  0  0  0  0
  5  6  2  3  0  0  0
  5 39  1  0  0  0  0
  6  7  1  0  0  0  0
  6 40  1  0  0  0  0
  7  8  2  3  0  0  0
  7 41  1  0  0  0  0
  8  9  1  0  0  0  0
  8 42  1  0  0  0  0
  9 10  2  3  0  0  0
  9 43  1  0  0  0  0
 10 11  1  0  0  0  0
 10 44  1  0  0  0  0
 11 12  2  3  0  0  0
 11 45  1  0  0  0  0
 12 13  1  0  0  0  0
 12 46  1  0  0  0  0
 13 14  2  3  0  0  0
 13 47  1  0  0  0  0
 14 15  1  0  0  0  0
 14 48  1  0  0  0  0
 15 16  2  3  0  0  0
 15 49  1  0  0  0  0
 16 17  1  0  0  0  0
 16 50  1  0  0  0  0
 17 18  2  3  0  0  0
 17 51  1  0  0  0  0
 18 19  1  0  0  0  0
 18 52  1  0  0  0  0
 19 20  2  3  0  0  0
 19 53  1  0  0  0  0
 20 21  1  0  0  0  0
 20 54  1  0  0  0  0
 21 22  2  3  0  0  0
 21 55  1  0  0  0  0
 22 23  1  0  0  0  0
 22 56  1  0  0  0  0
 23 24  2  3  0  0  0
 23 57  1  0  0  0  0
 24 25  1  0  0  0  0
 24 58  1  0  0  0  0
 25 26  2  3  0  0  0
 25 59  1  0  0  0  0
 26 27  1  0  0  0  0
 26 60  1  0  0  0  0
 27 28  2  3  0  0  0
 27 61  1  0  0  0  0
 28 29  1  0  0  0  0
 28 62  1  0  0  0  0
 29 30  2  3  0  0  0
 29 63  1  0  0  0  0
 30 31  1  0  0  0  0
 30 64  1  0  0  0  0
 31 32  1  0  0  0  0
 31 65  1  0  0  0  0
 31 66  1  0  0  0  0
 32 33  1  0  0  0  0
 32 67  1  0  0  0  0
 32 68  1  0  0  0  0
 33 34  1  0  0  0  0
 33 69  1  0  0  0  0
 33 70  1  0  0  0  0
 34 71  1  0  0  0  0
 34 72  1  0  0  0  0
M  END
$$$$
