
 OpenBabel04232216573D

161160  0  0  0  0  0  0  0  0999 V2000
    1.0382    0.0204   -0.0696 C   0  0  0  0  0  0  0  0  0  0  0  0
    2.8442    0.1454   -0.0074 S   0  0  0  0  0  0  0  0  0  0  0  0
    3.3535   -1.3532   -0.9246 C   0  0  0  0  0  0  0  0  0  0  0  0
    4.8845   -1.3774   -0.9536 C   0  0  0  0  0  0  0  0  0  0  0  0
    5.4136   -2.5952   -1.7001 C   0  0  0  0  0  0  0  0  0  0  0  0
    6.9358   -2.5975   -1.7157 C   0  0  0  0  0  0  0  0  0  0  0  0
    7.4558   -3.8157   -2.4599 C   0  0  0  0  0  0  0  0  0  0  0  0
    8.9696   -3.8230   -2.4762 C   0  0  0  0  0  0  0  0  0  0  0  0
    9.4873   -5.0349   -3.2164 C   0  0  0  0  0  0  0  0  0  0  0  0
   10.9975   -5.0439   -3.2313 C   0  0  0  0  0  0  0  0  0  0  0  0
   11.5155   -6.2549   -3.9688 C   0  0  0  0  0  0  0  0  0  0  0  0
   13.0247   -6.2633   -3.9856 C   0  0  0  0  0  0  0  0  0  0  0  0
   13.5426   -7.4729   -4.7245 C   0  0  0  0  0  0  0  0  0  0  0  0
   15.0515   -7.4821   -4.7395 C   0  0  0  0  0  0  0  0  0  0  0  0
   15.5693   -8.6917   -5.4784 C   0  0  0  0  0  0  0  0  0  0  0  0
   17.0783   -8.7019   -5.4917 C   0  0  0  0  0  0  0  0  0  0  0  0
   17.5960   -9.9105   -6.2322 C   0  0  0  0  0  0  0  0  0  0  0  0
   19.1050   -9.9217   -6.2439 C   0  0  0  0  0  0  0  0  0  0  0  0
   19.6227  -11.1292   -6.9862 C   0  0  0  0  0  0  0  0  0  0  0  0
   21.1316  -11.1394   -6.9994 C   0  0  0  0  0  0  0  0  0  0  0  0
   21.6494  -12.3459   -7.7435 C   0  0  0  0  0  0  0  0  0  0  0  0
   23.1583  -12.3571   -7.7551 C   0  0  0  0  0  0  0  0  0  0  0  0
   23.6760  -13.5625   -8.5008 C   0  0  0  0  0  0  0  0  0  0  0  0
   25.1850  -13.5748   -8.5108 C   0  0  0  0  0  0  0  0  0  0  0  0
   25.7028  -14.7803   -9.2564 C   0  0  0  0  0  0  0  0  0  0  0  0
   27.2118  -14.7937   -9.2647 C   0  0  0  0  0  0  0  0  0  0  0  0
   27.7299  -15.9993  -10.0105 C   0  0  0  0  0  0  0  0  0  0  0  0
   29.2394  -16.0126  -10.0187 C   0  0  0  0  0  0  0  0  0  0  0  0
   29.7577  -17.2192  -10.7651 C   0  0  0  0  0  0  0  0  0  0  0  0
   31.2691  -17.2317  -10.7728 C   0  0  0  0  0  0  0  0  0  0  0  0
   31.7868  -18.4419  -11.5214 C   0  0  0  0  0  0  0  0  0  0  0  0
   33.3018  -18.4506  -11.5275 C   0  0  0  0  0  0  0  0  0  0  0  0
   33.8183  -19.6700  -12.2818 C   0  0  0  0  0  0  0  0  0  0  0  0
   35.3402  -19.6843  -12.2967 C   0  0  0  0  0  0  0  0  0  0  0  0
   35.8799  -20.8969  -13.0181 C   0  0  0  0  0  0  0  0  0  0  0  0
   37.6983  -20.8709  -13.0530 S   0  0  0  0  0  0  0  0  0  0  0  0
   38.1301  -20.8533  -11.2700 C   0  0  0  0  0  0  0  0  0  0  0  0
   39.9582  -20.8243  -11.0816 S   0  0  0  0  0  0  0  0  0  0  0  0
   40.4457  -19.2777  -11.9537 C   0  0  0  0  0  0  0  0  0  0  0  0
   42.2798  -19.0851  -11.9029 S   0  0  0  0  0  0  0  0  0  0  0  0
   42.8842  -20.5895  -12.7655 C   0  0  0  0  0  0  0  0  0  0  0  0
   44.7263  -20.5841  -12.7891 S   0  0  0  0  0  0  0  0  0  0  0  0
   45.1779  -20.5696  -11.0082 C   0  0  0  0  0  0  0  0  0  0  0  0
   47.0182  -20.5371  -10.8300 S   0  0  0  0  0  0  0  0  0  0  0  0
   47.4896  -18.9846  -11.6808 C   0  0  0  0  0  0  0  0  0  0  0  0
   49.3278  -18.7581  -11.7021 S   0  0  0  0  0  0  0  0  0  0  0  0
   50.1162  -20.3613  -12.7397 S   0  0  0  0  0  0  0  0  0  0  0  0
   49.4027  -20.2658  -14.6790 S   0  0  0  0  0  0  0  0  0  0  0  0
   50.0689  -18.5092  -15.5585 S   0  0  0  0  0  0  0  0  0  0  0  0
   49.3061  -18.4331  -17.5125 S   0  0  0  0  0  0  0  0  0  0  0  0
   49.9309  -16.6237  -18.3865 S   0  0  0  0  0  0  0  0  0  0  0  0
   49.1943  -16.5364  -20.3590 S   0  0  0  0  0  0  0  0  0  0  0  0
   49.8209  -14.7224  -21.2331 S   0  0  0  0  0  0  0  0  0  0  0  0
   49.0846  -14.6323  -23.2072 S   0  0  0  0  0  0  0  0  0  0  0  0
   49.7110  -12.8182  -24.0821 S   0  0  0  0  0  0  0  0  0  0  0  0
   48.9746  -12.7281  -26.0567 S   0  0  0  0  0  0  0  0  0  0  0  0
   49.6009  -10.9139  -26.9318 S   0  0  0  0  0  0  0  0  0  0  0  0
   48.8645  -10.8238  -28.9065 S   0  0  0  0  0  0  0  0  0  0  0  0
   49.4908   -9.0096  -29.7816 S   0  0  0  0  0  0  0  0  0  0  0  0
   48.7544   -8.9195  -31.7563 S   0  0  0  0  0  0  0  0  0  0  0  0
   49.3807   -7.1053  -32.6315 S   0  0  0  0  0  0  0  0  0  0  0  0
   48.6443   -7.0152  -34.6061 S   0  0  0  0  0  0  0  0  0  0  0  0
   49.2707   -5.2009  -35.4813 S   0  0  0  0  0  0  0  0  0  0  0  0
   48.5342   -5.1108  -37.4559 S   0  0  0  0  0  0  0  0  0  0  0  0
   49.1606   -3.2966  -38.3311 S   0  0  0  0  0  0  0  0  0  0  0  0
   48.4241   -3.2065  -40.3057 S   0  0  0  0  0  0  0  0  0  0  0  0
   49.0505   -1.3923  -41.1809 S   0  0  0  0  0  0  0  0  0  0  0  0
   48.3140   -1.3022  -43.1555 S   0  0  0  0  0  0  0  0  0  0  0  0
   48.9404    0.5120  -44.0307 S   0  0  0  0  0  0  0  0  0  0  0  0
   48.2039    0.6021  -46.0053 S   0  0  0  0  0  0  0  0  0  0  0  0
   48.8303    2.4164  -46.8805 S   0  0  0  0  0  0  0  0  0  0  0  0
   48.0939    2.5064  -48.8551 S   0  0  0  0  0  0  0  0  0  0  0  0
   48.7202    4.3205  -49.7300 S   0  0  0  0  0  0  0  0  0  0  0  0
   47.9839    4.4104  -51.7041 S   0  0  0  0  0  0  0  0  0  0  0  0
   48.6102    6.2238  -52.5779 S   0  0  0  0  0  0  0  0  0  0  0  0
   47.8742    6.3112  -54.5492 S   0  0  0  0  0  0  0  0  0  0  0  0
   48.5003    8.1208  -55.4179 S   0  0  0  0  0  0  0  0  0  0  0  0
   47.7426    8.2024  -57.3684 S   0  0  0  0  0  0  0  0  0  0  0  0
   48.4183    9.9621  -58.2521 S   0  0  0  0  0  0  0  0  0  0  0  0
   47.6322   10.0470  -60.1743 S   0  0  0  0  0  0  0  0  0  0  0  0
   48.4702    8.4790  -61.2122 S   0  0  0  0  0  0  0  0  0  0  0  0
    0.6219    0.8840    0.4599 H   0  0  0  0  0  0  0  0  0  0  0  0
    0.6810   -0.8834    0.4336 H   0  0  0  0  0  0  0  0  0  0  0  0
    0.6691    0.0507   -1.0993 H   0  0  0  0  0  0  0  0  0  0  0  0
    2.9648   -1.3262   -1.9461 H   0  0  0  0  0  0  0  0  0  0  0  0
    2.9790   -2.2514   -0.4264 H   0  0  0  0  0  0  0  0  0  0  0  0
    5.2845   -1.3901    0.0706 H   0  0  0  0  0  0  0  0  0  0  0  0
    5.2704   -0.4700   -1.4405 H   0  0  0  0  0  0  0  0  0  0  0  0
    5.0365   -2.5952   -2.7311 H   0  0  0  0  0  0  0  0  0  0  0  0
    5.0505   -3.5141   -1.2215 H   0  0  0  0  0  0  0  0  0  0  0  0
    7.3233   -2.6024   -0.6890 H   0  0  0  0  0  0  0  0  0  0  0  0
    7.3092   -1.6859   -2.1991 H   0  0  0  0  0  0  0  0  0  0  0  0
    7.0740   -3.8164   -3.4909 H   0  0  0  0  0  0  0  0  0  0  0  0
    7.0859   -4.7337   -1.9811 H   0  0  0  0  0  0  0  0  0  0  0  0
    9.3559   -3.8234   -1.4441 H   0  0  0  0  0  0  0  0  0  0  0  0
    9.3442   -2.9047   -2.9563 H   0  0  0  0  0  0  0  0  0  0  0  0
    9.1031   -5.0355   -4.2498 H   0  0  0  0  0  0  0  0  0  0  0  0
    9.1126   -5.9549   -2.7381 H   0  0  0  0  0  0  0  0  0  0  0  0
   11.3828   -5.0419   -2.1978 H   0  0  0  0  0  0  0  0  0  0  0  0
   11.3733   -4.1245   -3.7109 H   0  0  0  0  0  0  0  0  0  0  0  0
   11.1294   -6.2583   -5.0023 H   0  0  0  0  0  0  0  0  0  0  0  0
   11.1411   -7.1750   -3.4886 H   0  0  0  0  0  0  0  0  0  0  0  0
   13.4111   -6.2615   -2.9521 H   0  0  0  0  0  0  0  0  0  0  0  0
   13.3994   -5.3427   -4.4646 H   0  0  0  0  0  0  0  0  0  0  0  0
   13.1574   -7.4739   -5.7584 H   0  0  0  0  0  0  0  0  0  0  0  0
   13.1669   -8.3935   -4.2464 H   0  0  0  0  0  0  0  0  0  0  0  0
   15.4367   -7.4811   -3.7056 H   0  0  0  0  0  0  0  0  0  0  0  0
   15.4274   -6.5615   -5.2176 H   0  0  0  0  0  0  0  0  0  0  0  0
   15.1853   -8.6919   -6.5127 H   0  0  0  0  0  0  0  0  0  0  0  0
   15.1925   -9.6123   -5.0012 H   0  0  0  0  0  0  0  0  0  0  0  0
   17.4622   -8.7031   -4.4574 H   0  0  0  0  0  0  0  0  0  0  0  0
   17.4553   -7.7807   -5.9677 H   0  0  0  0  0  0  0  0  0  0  0  0
   17.2131   -9.9085   -7.2670 H   0  0  0  0  0  0  0  0  0  0  0  0
   17.2180  -10.8317   -5.7572 H   0  0  0  0  0  0  0  0  0  0  0  0
   19.4878   -9.9251   -5.2091 H   0  0  0  0  0  0  0  0  0  0  0  0
   19.4830   -8.9999   -6.7177 H   0  0  0  0  0  0  0  0  0  0  0  0
   19.2387  -11.1265   -8.0205 H   0  0  0  0  0  0  0  0  0  0  0  0
   19.2457  -12.0511   -6.5115 H   0  0  0  0  0  0  0  0  0  0  0  0
   21.5156  -11.1435   -5.9651 H   0  0  0  0  0  0  0  0  0  0  0  0
   21.5086  -10.2169   -7.4728 H   0  0  0  0  0  0  0  0  0  0  0  0
   21.2665  -12.3409   -8.7782 H   0  0  0  0  0  0  0  0  0  0  0  0
   21.2713  -13.2684   -7.2710 H   0  0  0  0  0  0  0  0  0  0  0  0
   23.5411  -12.3634   -6.7204 H   0  0  0  0  0  0  0  0  0  0  0  0
   23.5365  -11.4339   -8.2263 H   0  0  0  0  0  0  0  0  0  0  0  0
   23.2943  -13.5554   -9.5359 H   0  0  0  0  0  0  0  0  0  0  0  0
   23.2967  -14.4857   -8.0305 H   0  0  0  0  0  0  0  0  0  0  0  0
   25.5666  -13.5819   -7.4756 H   0  0  0  0  0  0  0  0  0  0  0  0
   25.5643  -12.6516   -8.9811 H   0  0  0  0  0  0  0  0  0  0  0  0
   25.3222  -14.7723  -10.2920 H   0  0  0  0  0  0  0  0  0  0  0  0
   25.3223  -15.7033   -8.7869 H   0  0  0  0  0  0  0  0  0  0  0  0
   27.5922  -14.8015   -8.2291 H   0  0  0  0  0  0  0  0  0  0  0  0
   27.5922  -13.8705   -9.7342 H   0  0  0  0  0  0  0  0  0  0  0  0
   27.3492  -15.9913  -11.0460 H   0  0  0  0  0  0  0  0  0  0  0  0
   27.3492  -16.9222   -9.5409 H   0  0  0  0  0  0  0  0  0  0  0  0
   29.6193  -16.0205   -8.9833 H   0  0  0  0  0  0  0  0  0  0  0  0
   29.6193  -15.0897  -10.4881 H   0  0  0  0  0  0  0  0  0  0  0  0
   29.3771  -17.2104  -11.7999 H   0  0  0  0  0  0  0  0  0  0  0  0
   29.3771  -18.1412  -10.2951 H   0  0  0  0  0  0  0  0  0  0  0  0
   31.6470  -17.2403   -9.7378 H   0  0  0  0  0  0  0  0  0  0  0  0
   31.6470  -16.3095  -11.2426 H   0  0  0  0  0  0  0  0  0  0  0  0
   31.4074  -18.4299  -12.5528 H   0  0  0  0  0  0  0  0  0  0  0  0
   31.4075  -19.3594  -11.0501 H   0  0  0  0  0  0  0  0  0  0  0  0
   33.6784  -18.4638  -10.4966 H   0  0  0  0  0  0  0  0  0  0  0  0
   33.6783  -17.5346  -11.9986 H   0  0  0  0  0  0  0  0  0  0  0  0
   33.4407  -19.6571  -13.3121 H   0  0  0  0  0  0  0  0  0  0  0  0
   33.4432  -20.5856  -11.8076 H   0  0  0  0  0  0  0  0  0  0  0  0
   35.6857  -19.6809  -11.2514 H   0  0  0  0  0  0  0  0  0  0  0  0
   35.7077  -18.7597  -12.7638 H   0  0  0  0  0  0  0  0  0  0  0  0
   35.5303  -20.8932  -14.0667 H   0  0  0  0  0  0  0  0  0  0  0  0
   35.5324  -21.8276  -12.5681 H   0  0  0  0  0  0  0  0  0  0  0  0
   37.7777  -21.7735  -10.7801 H   0  0  0  0  0  0  0  0  0  0  0  0
   37.7281  -20.0033  -10.7189 H   0  0  0  0  0  0  0  0  0  0  0  0
   40.0275  -18.3996  -11.4341 H   0  0  0  0  0  0  0  0  0  0  0  0
   40.1357  -19.2335  -13.0020 H   0  0  0  0  0  0  0  0  0  0  0  0
   42.5603  -20.5870  -13.8192 H   0  0  0  0  0  0  0  0  0  0  0  0
   42.5570  -21.5297  -12.3093 H   0  0  0  0  0  0  0  0  0  0  0  0
   44.8333  -21.4930  -10.5150 H   0  0  0  0  0  0  0  0  0  0  0  0
   44.7725  -19.7180  -10.4527 H   0  0  0  0  0  0  0  0  0  0  0  0
   47.0677  -18.1101  -11.1632 H   0  0  0  0  0  0  0  0  0  0  0  0
   47.1658  -18.9354  -12.7194 H   0  0  0  0  0  0  0  0  0  0  0  0
   47.9256    8.6157  -62.4378 H   0  0  0  0  0  0  0  0  0  0  0  0
  1  2  1  0  0  0  0
  1 82  1  0  0  0  0
  1 83  1  0  0  0  0
  1 84  1  0  0  0  0
  2  3  1  0  0  0  0
  3  4  1  0  0  0  0
  3 85  1  0  0  0  0
  3 86  1  0  0  0  0
  4  5  1  0  0  0  0
  4 87  1  0  0  0  0
  4 88  1  0  0  0  0
  5  6  1  0  0  0  0
  5 89  1  0  0  0  0
  5 90  1  0  0  0  0
  6  7  1  0  0  0  0
  6 91  1  0  0  0  0
  6 92  1  0  0  0  0
  7  8  1  0  0  0  0
  7 93  1  0  0  0  0
  7 94  1  0  0  0  0
  8  9  1  0  0  0  0
  8 95  1  0  0  0  0
  8 96  1  0  0  0  0
  9 10  1  0  0  0  0
  9 97  1  0  0  0  0
  9 98  1  0  0  0  0
 10 11  1  0  0  0  0
 10 99  1  0  0  0  0
 10100  1  0  0  0  0
 11 12  1  0  0  0  0
 11101  1  0  0  0  0
 11102  1  0  0  0  0
 12 13  1  0  0  0  0
 12103  1  0  0  0  0
 12104  1  0  0  0  0
 13 14  1  0  0  0  0
 13105  1  0  0  0  0
 13106  1  0  0  0  0
 14 15  1  0  0  0  0
 14107  1  0  0  0  0
 14108  1  0  0  0  0
 15 16  1  0  0  0  0
 15109  1  0  0  0  0
 15110  1  0  0  0  0
 16 17  1  0  0  0  0
 16111  1  0  0  0  0
 16112  1  0  0  0  0
 17 18  1  0  0  0  0
 17113  1  0  0  0  0
 17114  1  0  0  0  0
 18 19  1  0  0  0  0
 18115  1  0  0  0  0
 18116  1  0  0  0  0
 19 20  1  0  0  0  0
 19117  1  0  0  0  0
 19118  1  0  0  0  0
 20 21  1  0  0  0  0
 20119  1  0  0  0  0
 20120  1  0  0  0  0
 21 22  1  0  0  0  0
 21121  1  0  0  0  0
 21122  1  0  0  0  0
 22 23  1  0  0  0  0
 22123  1  0  0  0  0
 22124  1  0  0  0  0
 23 24  1  0  0  0  0
 23125  1  0  0  0  0
 23126  1  0  0  0  0
 24 25  1  0  0  0  0
 24127  1  0  0  0  0
 24128  1  0  0  0  0
 25 26  1  0  0  0  0
 25129  1  0  0  0  0
 25130  1  0  0  0  0
 26 27  1  0  0  0  0
 26131  1  0  0  0  0
 26132  1  0  0  0  0
 27 28  1  0  0  0  0
 27133  1  0  0  0  0
 27134  1  0  0  0  0
 28 29  1  0  0  0  0
 28135  1  0  0  0  0
 28136  1  0  0  0  0
 29 30  1  0  0  0  0
 29137  1  0  0  0  0
 29138  1  0  0  0  0
 30 31  1  0  0  0  0
 30139  1  0  0  0  0
 30140  1  0  0  0  0
 31 32  1  0  0  0  0
 31141  1  0  0  0  0
 31142  1  0  0  0  0
 32 33  1  0  0  0  0
 32143  1  0  0  0  0
 32144  1  0  0  0  0
 33 34  1  0  0  0  0
 33145  1  0  0  0  0
 33146  1  0  0  0  0
 34 35  1  0  0  0  0
 34147  1  0  0  0  0
 34148  1  0  0  0  0
 35 36  1  0  0  0  0
 35149  1  0  0  0  0
 35150  1  0  0  0  0
 36 37  1  0  0  0  0
 37 38  1  0  0  0  0
 37151  1  0  0  0  0
 37152  1  0  0  0  0
 38 39  1  0  0  0  0
 39 40  1  0  0  0  0
 39153  1  0  0  0  0
 39154  1  0  0  0  0
 40 41  1  0  0  0  0
 41 42  1  0  0  0  0
 41155  1  0  0  0  0
 41156  1  0  0  0  0
 42 43  1  0  0  0  0
 43 44  1  0  0  0  0
 43157  1  0  0  0  0
 43158  1  0  0  0  0
 44 45  1  0  0  0  0
 45 46  1  0  0  0  0
 45159  1  0  0  0  0
 45160  1  0  0  0  0
 46 47  1  0  0  0  0
 47 48  1  0  0  0  0
 48 49  1  0  0  0  0
 49 50  1  0  0  0  0
 50 51  1  0  0  0  0
 51 52  1  0  0  0  0
 52 53  1  0  0  0  0
 53 54  1  0  0  0  0
 54 55  1  0  0  0  0
 55 56  1  0  0  0  0
 56 57  1  0  0  0  0
 57 58  1  0  0  0  0
 58 59  1  0  0  0  0
 59 60  1  0  0  0  0
 60 61  1  0  0  0  0
 61 62  1  0  0  0  0
 62 63  1  0  0  0  0
 63 64  1  0  0  0  0
 64 65  1  0  0  0  0
 65 66  1  0  0  0  0
 66 67  1  0  0  0  0
 67 68  1  0  0  0  0
 68 69  1  0  0  0  0
 69 70  1  0  0  0  0
 70 71  1  0  0  0  0
 71 72  1  0  0  0  0
 72 73  1  0  0  0  0
 73 74  1  0  0  0  0
 74 75  1  0  0  0  0
 75 76  1  0  0  0  0
 76 77  1  0  0  0  0
 77 78  1  0  0  0  0
 78 79  1  0  0  0  0
 79 80  1  0  0  0  0
 80 81  1  0  0  0  0
 81161  1  0  0  0  0
M  END
$$$$
