
 OpenBabel04232216423D

 53 54  0  0  0  0  0  0  0  0999 V2000
    2.6430   -0.8213   -4.2523 C   0  0  0  0  0  0  0  0  0  0  0  0
    1.3758   -1.4987   -4.1889 C   0  0  0  0  0  0  0  0  0  0  0  0
    1.0349   -2.4186   -3.2650 C   0  0  0  0  0  0  0  0  0  0  0  0
    1.9068   -3.0645   -2.2404 C   0  0  0  0  0  0  0  0  0  0  0  0
    2.1266   -4.4876   -2.6049 C   0  0  0  0  0  0  0  0  0  0  0  0
    2.4509   -2.4656   -1.1360 C   0  0  0  0  0  0  0  0  0  0  0  0
    3.2527   -3.0711    0.2160 C   0  0  0  0  0  0  0  0  0  0  0  0
    3.3972   -4.6098    1.0284 C   0  0  0  0  0  0  0  0  0  0  0  0
    4.6842   -5.2659    1.9637 C   0  0  0  0  0  0  0  0  0  0  0  0
    5.3862   -6.8145    1.9815 C   0  0  0  0  0  0  0  0  0  0  0  0
    5.9623   -7.2474    0.6809 C   0  0  0  0  0  0  0  0  0  0  0  0
    7.2761   -6.9713    0.5739 C   0  0  0  0  0  0  0  0  0  0  0  0
    8.1126   -7.9804   -0.0429 C   0  0  0  0  0  0  0  0  0  0  0  0
    8.9353   -8.6613    0.7740 C   0  0  0  0  0  0  0  0  0  0  0  0
    9.1467  -10.0771    0.5972 C   0  0  0  0  0  0  0  0  0  0  0  0
    9.8286  -10.7601    1.5283 C   0  0  0  0  0  0  0  0  0  0  0  0
    9.5650  -12.1493    1.8301 C   0  0  0  0  0  0  0  0  0  0  0  0
   10.0828  -12.6396    2.9430 C   0  0  0  0  0  0  0  0  0  0  0  0
    9.2691  -13.4321    3.8194 C   0  0  0  0  0  0  0  0  0  0  0  0
    8.2459  -12.8740    4.5586 C   0  0  0  0  0  0  0  0  0  0  0  0
    7.7436  -11.5651    4.6716 N   0  0  0  0  0  0  0  0  0  0  0  0
    7.3943  -10.8858    3.6400 N   0  0  0  0  0  0  0  0  0  0  0  0
    6.7255   -9.5448    3.9695 N   0  0  0  0  0  0  0  0  0  0  0  0
    6.3939   -8.9062    2.8861 N   0  0  0  0  0  0  0  0  0  0  0  0
    5.6181   -7.5560    3.0878 N   0  0  0  0  0  0  0  0  0  0  0  0
    2.1955   -0.9932   -1.0514 C   0  0  0  0  0  0  0  0  0  0  0  0
    2.4760    0.0020   -1.9430 C   0  0  0  0  0  0  0  0  0  0  0  0
    3.1449   -0.1312   -3.2272 C   0  0  0  0  0  0  0  0  0  0  0  0
    3.1393   -0.7996   -5.2228 H   0  0  0  0  0  0  0  0  0  0  0  0
    0.6514   -1.2140   -4.9534 H   0  0  0  0  0  0  0  0  0  0  0  0
    0.0286   -2.8292   -3.3424 H   0  0  0  0  0  0  0  0  0  0  0  0
    1.6169   -4.7448   -3.5561 H   0  0  0  0  0  0  0  0  0  0  0  0
    1.7337   -5.1562   -1.8441 H   0  0  0  0  0  0  0  0  0  0  0  0
    3.1913   -4.6650   -2.7853 H   0  0  0  0  0  0  0  0  0  0  0  0
    2.6424   -2.5446    0.9767 H   0  0  0  0  0  0  0  0  0  0  0  0
    4.2256   -2.5667    0.2523 H   0  0  0  0  0  0  0  0  0  0  0  0
    2.7936   -5.3796    0.5463 H   0  0  0  0  0  0  0  0  0  0  0  0
    2.7871   -4.3176    1.9036 H   0  0  0  0  0  0  0  0  0  0  0  0
    4.3163   -5.2056    3.0002 H   0  0  0  0  0  0  0  0  0  0  0  0
    5.5294   -4.5698    1.9018 H   0  0  0  0  0  0  0  0  0  0  0  0
    5.4917   -8.0937    0.1937 H   0  0  0  0  0  0  0  0  0  0  0  0
    7.7571   -6.2803    1.2694 H   0  0  0  0  0  0  0  0  0  0  0  0
    7.7713   -8.4159   -0.9774 H   0  0  0  0  0  0  0  0  0  0  0  0
    9.1760   -8.2619    1.7624 H   0  0  0  0  0  0  0  0  0  0  0  0
    8.5057  -10.6002   -0.1094 H   0  0  0  0  0  0  0  0  0  0  0  0
   10.3684  -10.2162    2.3023 H   0  0  0  0  0  0  0  0  0  0  0  0
    8.6264  -12.5550    1.4205 H   0  0  0  0  0  0  0  0  0  0  0  0
   10.9681  -12.2140    3.3982 H   0  0  0  0  0  0  0  0  0  0  0  0
    9.5541  -14.4661    3.9324 H   0  0  0  0  0  0  0  0  0  0  0  0
    7.8251  -13.5919    5.2843 H   0  0  0  0  0  0  0  0  0  0  0  0
    1.6104   -0.6704   -0.1750 H   0  0  0  0  0  0  0  0  0  0  0  0
    2.1422    1.0201   -1.7375 H   0  0  0  0  0  0  0  0  0  0  0  0
    4.0565    0.4414   -3.3624 H   0  0  0  0  0  0  0  0  0  0  0  0
  1  2  1  0  0  0  0
  1 28  2  0  0  0  0
  1 29  1  0  0  0  0
  2  3  2  0  0  0  0
  2 30  1  0  0  0  0
  3  4  1  0  0  0  0
  3 31  1  0  0  0  0
  4  5  1  0  0  0  0
  4  6  2  0  0  0  0
  5 32  1  0  0  0  0
  5 33  1  0  0  0  0
  5 34  1  0  0  0  0
  6  7  1  0  0  0  0
  6 26  1  0  0  0  0
  7  8  1  0  0  0  0
  7 35  1  0  0  0  0
  7 36  1  0  0  0  0
  8  9  1  0  0  0  0
  8 37  1  0  0  0  0
  8 38  1  0  0  0  0
  9 10  1  0  0  0  0
  9 39  1  0  0  0  0
  9 40  1  0  0  0  0
 10 11  1  0  0  0  0
 10 25  2  3  0  0  0
 11 12  2  3  0  0  0
 11 41  1  0  0  0  0
 12 13  1  0  0  0  0
 12 42  1  0  0  0  0
 13 14  2  3  0  0  0
 13 43  1  0  0  0  0
 14 15  1  0  0  0  0
 14 44  1  0  0  0  0
 15 16  2  3  0  0  0
 15 45  1  0  0  0  0
 16 17  1  0  0  0  0
 16 46  1  0  0  0  0
 17 18  2  3  0  0  0
 17 47  1  0  0  0  0
 18 19  1  0  0  0  0
 18 48  1  0  0  0  0
 19 20  2  3  0  0  0
 19 49  1  0  0  0  0
 20 21  1  0  0  0  0
 20 50  1  0  0  0  0
 21 22  2  3  0  0  0
 22 23  1  0  0  0  0
 23 24  2  3  0  0  0
 24 25  1  0  0  0  0
 26 27  2  0  0  0  0
 26 51  1  0  0  0  0
 27 28  1  0  0  0  0
 27 52  1  0  0  0  0
 28 53  1  0  0  0  0
M  END
$$$$
