
 OpenBabel04232216453D

 37 39  0  0  0  0  0  0  0  0999 V2000
    7.1788   -2.2316   -2.3806 C   0  0  0  0  0  0  0  0  0  0  0  0
    6.9268   -1.4936   -1.0753 C   0  0  0  0  0  0  0  0  0  0  0  0
    5.9976   -2.2775   -0.1149 C   0  0  0  0  0  0  0  0  0  0  0  0
    4.7685   -1.7365    0.1331 C   0  0  0  0  0  0  0  0  0  0  0  0
    3.8157   -1.5608   -1.0294 C   0  0  0  0  0  0  0  0  0  0  0  0
    4.6182   -0.8718    1.2978 N   0  0  0  0  0  0  0  0  0  0  0  0
    3.2936   -0.1712    1.6050 C   0  0  0  0  0  0  0  0  0  0  0  0
    3.4264    1.2127    2.3637 C   0  0  0  0  0  0  0  0  0  0  0  0
    3.7113    2.3334    1.3668 C   0  0  0  0  0  0  0  0  0  0  0  0
    2.8169    2.6348    0.4562 N   0  0  0  0  0  0  0  0  0  0  0  0
    3.5426    3.1829   -0.5870 C   0  0  0  0  0  0  0  0  0  0  0  0
    4.8674    3.2718   -0.3696 C   0  0  0  0  0  0  0  0  0  0  0  0
    5.0690    2.8774    0.9985 C   0  0  0  0  0  0  0  0  0  0  0  0
    6.2056    2.7735    1.7029 C   0  0  0  0  0  0  0  0  0  0  0  0
    7.5860    2.6236    1.1032 C   0  0  0  0  0  0  0  0  0  0  0  0
    8.5374    3.1269    1.6982 O   0  0  0  0  0  0  0  0  0  0  0  0
    7.7147    1.7775    0.0135 N   0  0  0  0  0  0  0  0  0  0  0  0
    5.6746    0.0093    1.2415 C   0  0  0  0  0  0  0  0  0  0  0  0
    6.9967   -0.1126    1.4195 C   0  0  0  0  0  0  0  0  0  0  0  0
    7.5122    0.5039    0.1761 C   0  0  0  0  0  0  0  0  0  0  0  0
    7.5629   -0.3570   -0.9175 N   0  0  0  0  0  0  0  0  0  0  0  0
    8.2560   -2.3154   -2.5518 H   0  0  0  0  0  0  0  0  0  0  0  0
    6.7238   -1.6826   -3.2082 H   0  0  0  0  0  0  0  0  0  0  0  0
    6.7543   -3.2411   -2.3512 H   0  0  0  0  0  0  0  0  0  0  0  0
    6.6101   -2.5624    0.7400 H   0  0  0  0  0  0  0  0  0  0  0  0
    4.1861   -2.0583   -1.9335 H   0  0  0  0  0  0  0  0  0  0  0  0
    3.6658   -0.5063   -1.2822 H   0  0  0  0  0  0  0  0  0  0  0  0
    2.8490   -2.0160   -0.7903 H   0  0  0  0  0  0  0  0  0  0  0  0
    2.7062   -0.8580    2.2229 H   0  0  0  0  0  0  0  0  0  0  0  0
    2.7300   -0.0012    0.6818 H   0  0  0  0  0  0  0  0  0  0  0  0
    4.1674    1.1800    3.1675 H   0  0  0  0  0  0  0  0  0  0  0  0
    2.4554    1.4420    2.8220 H   0  0  0  0  0  0  0  0  0  0  0  0
    3.0595    3.3612   -1.5355 H   0  0  0  0  0  0  0  0  0  0  0  0
    5.6288    3.5362   -1.0898 H   0  0  0  0  0  0  0  0  0  0  0  0
    6.1972    2.5221    2.7601 H   0  0  0  0  0  0  0  0  0  0  0  0
    5.3565    0.6731    0.4329 H   0  0  0  0  0  0  0  0  0  0  0  0
    7.5160   -0.9094    1.9225 H   0  0  0  0  0  0  0  0  0  0  0  0
  1  2  1  0  0  0  0
  1 22  1  0  0  0  0
  1 23  1  0  0  0  0
  1 24  1  0  0  0  0
  2  3  1  0  0  0  0
  2 21  2  0  0  0  0
  3  4  2  0  0  0  0
  3 25  1  0  0  0  0
  4  5  1  0  0  0  0
  4  6  1  0  0  0  0
  5 26  1  0  0  0  0
  5 27  1  0  0  0  0
  5 28  1  0  0  0  0
  6  7  1  0  0  0  0
  6 18  1  0  0  0  0
  7  8  1  0  0  0  0
  7 29  1  0  0  0  0
  7 30  1  0  0  0  0
  8  9  1  0  0  0  0
  8 31  1  0  0  0  0
  8 32  1  0  0  0  0
  9 10  2  0  0  0  0
  9 13  1  0  0  0  0
 10 11  1  0  0  0  0
 11 12  2  0  0  0  0
 11 33  1  0  0  0  0
 12 13  1  0  0  0  0
 12 34  1  0  0  0  0
 13 14  2  3  0  0  0
 14 15  1  0  0  0  0
 14 35  1  0  0  0  0
 15 16  2  0  0  0  0
 15 17  1  0  0  0  0
 17 20  2  3  0  0  0
 18 19  2  0  0  0  0
 18 36  1  0  0  0  0
 19 20  1  0  0  0  0
 19 37  1  0  0  0  0
 20 21  1  0  0  0  0
M  END
$$$$
