
 OpenBabel04232217023D

 92 91  0  0  0  0  0  0  0  0999 V2000
   13.1008   -3.4160   11.3040 O   0  0  0  0  0  0  0  0  0  0  0  0
   12.7662   -2.1150   10.7409 O   0  0  0  0  0  0  0  0  0  0  0  0
   11.3443   -2.1104   10.6637 C   0  0  0  0  0  0  0  0  0  0  0  0
   10.8684   -0.7634   10.0892 C   0  0  0  0  0  0  0  0  0  0  0  0
   11.3949   -0.5468    8.6455 C   0  0  0  0  0  0  0  0  0  0  0  0
   10.9099    0.7469    8.1020 N   0  0  0  0  0  0  0  0  0  0  0  0
   11.4353    0.9186    6.7572 N   0  0  0  0  0  0  0  0  0  0  0  0
   10.9997    2.1574    6.1445 N   0  0  0  0  0  0  0  0  0  0  0  0
   11.6942    2.3050    4.6373 S   0  0  0  0  0  0  0  0  0  0  0  0
   10.9732    4.1395    4.0280 S   0  0  0  0  0  0  0  0  0  0  0  0
   11.6917    5.5841    5.3317 S   0  0  0  0  0  0  0  0  0  0  0  0
   13.7651    5.6088    5.2533 S   0  0  0  0  0  0  0  0  0  0  0  0
   14.4208    7.0516    6.6282 S   0  0  0  0  0  0  0  0  0  0  0  0
   16.5227    7.0475    6.6244 S   0  0  0  0  0  0  0  0  0  0  0  0
   17.2051    8.5124    7.9770 S   0  0  0  0  0  0  0  0  0  0  0  0
   19.3143    8.5040    7.9699 S   0  0  0  0  0  0  0  0  0  0  0  0
   20.0048    9.9672    9.3231 S   0  0  0  0  0  0  0  0  0  0  0  0
   22.1145    9.9573    9.3139 S   0  0  0  0  0  0  0  0  0  0  0  0
   22.8058   11.4206   10.6672 S   0  0  0  0  0  0  0  0  0  0  0  0
   24.9154   11.4109   10.6583 S   0  0  0  0  0  0  0  0  0  0  0  0
   25.6063   12.8743   12.0117 S   0  0  0  0  0  0  0  0  0  0  0  0
   27.7158   12.8647   12.0028 S   0  0  0  0  0  0  0  0  0  0  0  0
   28.4065   14.3281   13.3561 S   0  0  0  0  0  0  0  0  0  0  0  0
   30.5159   14.3184   13.3472 S   0  0  0  0  0  0  0  0  0  0  0  0
   31.2065   15.7817   14.7005 S   0  0  0  0  0  0  0  0  0  0  0  0
   33.3159   15.7720   14.6915 S   0  0  0  0  0  0  0  0  0  0  0  0
   34.0066   17.2353   16.0448 S   0  0  0  0  0  0  0  0  0  0  0  0
   36.1160   17.2255   16.0358 S   0  0  0  0  0  0  0  0  0  0  0  0
   36.8065   18.6888   17.3891 S   0  0  0  0  0  0  0  0  0  0  0  0
   38.9157   18.6790   17.3800 S   0  0  0  0  0  0  0  0  0  0  0  0
   39.6058   20.1425   18.7335 S   0  0  0  0  0  0  0  0  0  0  0  0
   41.7151   20.1333   18.7250 S   0  0  0  0  0  0  0  0  0  0  0  0
   42.4042   21.5966   20.0783 S   0  0  0  0  0  0  0  0  0  0  0  0
   44.5147   21.5887   20.0710 S   0  0  0  0  0  0  0  0  0  0  0  0
   45.2028   23.0522   21.4245 S   0  0  0  0  0  0  0  0  0  0  0  0
   47.3125   23.0446   21.4174 S   0  0  0  0  0  0  0  0  0  0  0  0
   48.0037   24.5079   22.7707 S   0  0  0  0  0  0  0  0  0  0  0  0
   50.1130   24.4958   22.7595 S   0  0  0  0  0  0  0  0  0  0  0  0
   50.8067   25.9579   24.1118 S   0  0  0  0  0  0  0  0  0  0  0  0
   52.9163   25.9471   24.1017 S   0  0  0  0  0  0  0  0  0  0  0  0
   53.6065   27.4106   25.4552 S   0  0  0  0  0  0  0  0  0  0  0  0
   55.7156   27.4010   25.4463 S   0  0  0  0  0  0  0  0  0  0  0  0
   56.4071   28.8644   26.7997 S   0  0  0  0  0  0  0  0  0  0  0  0
   58.5162   28.8538   26.7899 S   0  0  0  0  0  0  0  0  0  0  0  0
   59.2072   30.3171   28.1432 S   0  0  0  0  0  0  0  0  0  0  0  0
   61.3165   30.3073   28.1342 S   0  0  0  0  0  0  0  0  0  0  0  0
   62.0066   31.7707   29.4876 S   0  0  0  0  0  0  0  0  0  0  0  0
   64.1159   31.7613   29.4788 S   0  0  0  0  0  0  0  0  0  0  0  0
   64.8065   33.2251   30.8326 S   0  0  0  0  0  0  0  0  0  0  0  0
   66.9172   33.2136   30.8220 S   0  0  0  0  0  0  0  0  0  0  0  0
   67.6097   34.6759   32.1744 S   0  0  0  0  0  0  0  0  0  0  0  0
   69.7210   34.6643   32.1637 S   0  0  0  0  0  0  0  0  0  0  0  0
   70.4084   36.1291   33.5183 S   0  0  0  0  0  0  0  0  0  0  0  0
   72.5177   36.1211   33.5109 S   0  0  0  0  0  0  0  0  0  0  0  0
   73.2062   37.5856   34.8654 S   0  0  0  0  0  0  0  0  0  0  0  0
   75.3158   37.5757   34.8562 S   0  0  0  0  0  0  0  0  0  0  0  0
   76.0060   39.0388   36.2093 S   0  0  0  0  0  0  0  0  0  0  0  0
   78.1158   39.0291   36.2003 S   0  0  0  0  0  0  0  0  0  0  0  0
   78.8065   40.4924   37.5536 S   0  0  0  0  0  0  0  0  0  0  0  0
   80.9158   40.4826   37.5446 S   0  0  0  0  0  0  0  0  0  0  0  0
   81.6064   41.9459   38.8979 S   0  0  0  0  0  0  0  0  0  0  0  0
   83.7158   41.9362   38.8889 S   0  0  0  0  0  0  0  0  0  0  0  0
   84.4064   43.3995   40.2422 S   0  0  0  0  0  0  0  0  0  0  0  0
   86.5158   43.3898   40.2332 S   0  0  0  0  0  0  0  0  0  0  0  0
   87.2064   44.8531   41.5865 S   0  0  0  0  0  0  0  0  0  0  0  0
   89.3157   44.8433   41.5775 S   0  0  0  0  0  0  0  0  0  0  0  0
   90.0062   46.3065   42.9307 S   0  0  0  0  0  0  0  0  0  0  0  0
   92.1154   46.2967   42.9216 S   0  0  0  0  0  0  0  0  0  0  0  0
   92.8056   47.7598   44.2747 S   0  0  0  0  0  0  0  0  0  0  0  0
   94.9142   47.7497   44.2654 S   0  0  0  0  0  0  0  0  0  0  0  0
   95.6034   49.2124   45.6181 S   0  0  0  0  0  0  0  0  0  0  0  0
   97.7106   49.2014   45.6080 S   0  0  0  0  0  0  0  0  0  0  0  0
   98.3974   50.6630   46.9597 S   0  0  0  0  0  0  0  0  0  0  0  0
  100.5012   50.6496   46.9473 S   0  0  0  0  0  0  0  0  0  0  0  0
  101.1832   52.1086   48.2963 S   0  0  0  0  0  0  0  0  0  0  0  0
  103.2795   52.0892   48.2795 S   0  0  0  0  0  0  0  0  0  0  0  0
  103.9477   53.5441   49.6242 S   0  0  0  0  0  0  0  0  0  0  0  0
  106.0292   53.5318   49.5741 S   0  0  0  0  0  0  0  0  0  0  0  0
  106.6868   54.9231   50.9667 S   0  0  0  0  0  0  0  0  0  0  0  0
  108.7516   54.9258   50.8784 S   0  0  0  0  0  0  0  0  0  0  0  0
  109.3351   53.0621   51.5399 S   0  0  0  0  0  0  0  0  0  0  0  0
   14.0808   -3.2655   11.2933 H   0  0  0  0  0  0  0  0  0  0  0  0
   10.9416   -2.2316   11.6876 H   0  0  0  0  0  0  0  0  0  0  0  0
   11.0049   -2.9410   10.0557 H   0  0  0  0  0  0  0  0  0  0  0  0
   11.1940    0.0353   10.7302 H   0  0  0  0  0  0  0  0  0  0  0  0
    9.7613   -0.7621   10.0832 H   0  0  0  0  0  0  0  0  0  0  0  0
   11.0548   -1.3615    8.0220 H   0  0  0  0  0  0  0  0  0  0  0  0
   12.4891   -0.5545    8.6716 H   0  0  0  0  0  0  0  0  0  0  0  0
   11.2713    1.4870    8.6912 H   0  0  0  0  0  0  0  0  0  0  0  0
   11.1022    0.1481    6.1750 H   0  0  0  0  0  0  0  0  0  0  0  0
   11.3522    2.9298    6.7336 H   0  0  0  0  0  0  0  0  0  0  0  0
  110.6749   53.1695   51.4595 H   0  0  0  0  0  0  0  0  0  0  0  0
  1  2  1  0  0  0  0
  1 82  1  0  0  0  0
  2  3  1  0  0  0  0
  3  4  1  0  0  0  0
  3 83  1  0  0  0  0
  3 84  1  0  0  0  0
  4  5  1  0  0  0  0
  4 85  1  0  0  0  0
  4 86  1  0  0  0  0
  5  6  1  0  0  0  0
  5 87  1  0  0  0  0
  5 88  1  0  0  0  0
  6  7  1  0  0  0  0
  6 89  1  0  0  0  0
  7  8  1  0  0  0  0
  7 90  1  0  0  0  0
  8  9  1  0  0  0  0
  8 91  1  0  0  0  0
  9 10  1  0  0  0  0
 10 11  1  0  0  0  0
 11 12  1  0  0  0  0
 12 13  1  0  0  0  0
 13 14  1  0  0  0  0
 14 15  1  0  0  0  0
 15 16  1  0  0  0  0
 16 17  1  0  0  0  0
 17 18  1  0  0  0  0
 18 19  1  0  0  0  0
 19 20  1  0  0  0  0
 20 21  1  0  0  0  0
 21 22  1  0  0  0  0
 22 23  1  0  0  0  0
 23 24  1  0  0  0  0
 24 25  1  0  0  0  0
 25 26  1  0  0  0  0
 26 27  1  0  0  0  0
 27 28  1  0  0  0  0
 28 29  1  0  0  0  0
 29 30  1  0  0  0  0
 30 31  1  0  0  0  0
 31 32  1  0  0  0  0
 32 33  1  0  0  0  0
 33 34  1  0  0  0  0
 34 35  1  0  0  0  0
 35 36  1  0  0  0  0
 36 37  1  0  0  0  0
 37 38  1  0  0  0  0
 38 39  1  0  0  0  0
 39 40  1  0  0  0  0
 40 41  1  0  0  0  0
 41 42  1  0  0  0  0
 42 43  1  0  0  0  0
 43 44  1  0  0  0  0
 44 45  1  0  0  0  0
 45 46  1  0  0  0  0
 46 47  1  0  0  0  0
 47 48  1  0  0  0  0
 48 49  1  0  0  0  0
 49 50  1  0  0  0  0
 50 51  1  0  0  0  0
 51 52  1  0  0  0  0
 52 53  1  0  0  0  0
 53 54  1  0  0  0  0
 54 55  1  0  0  0  0
 55 56  1  0  0  0  0
 56 57  1  0  0  0  0
 57 58  1  0  0  0  0
 58 59  1  0  0  0  0
 59 60  1  0  0  0  0
 60 61  1  0  0  0  0
 61 62  1  0  0  0  0
 62 63  1  0  0  0  0
 63 64  1  0  0  0  0
 64 65  1  0  0  0  0
 65 66  1  0  0  0  0
 66 67  1  0  0  0  0
 67 68  1  0  0  0  0
 68 69  1  0  0  0  0
 69 70  1  0  0  0  0
 70 71  1  0  0  0  0
 71 72  1  0  0  0  0
 72 73  1  0  0  0  0
 73 74  1  0  0  0  0
 74 75  1  0  0  0  0
 75 76  1  0  0  0  0
 76 77  1  0  0  0  0
 77 78  1  0  0  0  0
 78 79  1  0  0  0  0
 79 80  1  0  0  0  0
 80 81  1  0  0  0  0
 81 92  1  0  0  0  0
M  END
$$$$
