
 OpenBabel04232216493D

 73 75  0  0  1  0  0  0  0  0999 V2000
   15.4427   10.7218  -15.1651 C   0  0  0  0  0  0  0  0  0  0  0  0
   15.2028    9.2581  -15.5386 C   0  0  0  0  0  0  0  0  0  0  0  0
   14.8479    9.2392  -16.9660 C   0  0  0  0  0  0  0  0  0  0  0  0
   13.7416    9.5738  -17.6703 C   0  0  0  0  0  0  0  0  0  0  0  0
   13.6479    8.9601  -19.0107 C   0  0  0  0  0  0  0  0  0  0  0  0
   12.7386    7.9807  -19.2338 C   0  0  0  0  0  0  0  0  0  0  0  0
   13.0574    6.6633  -19.5981 N   0  0  0  0  0  0  0  0  0  0  0  0
   14.4367    6.1510  -19.4917 C   0  0  0  0  0  0  0  0  0  0  0  0
   14.7678    4.9314  -20.3524 C   0  0  0  0  0  0  0  0  0  0  0  0
   14.6855    5.2055  -21.8391 C   0  0  0  0  0  0  0  0  0  0  0  0
   11.3765    8.1150  -19.0160 N   0  0  0  0  0  0  0  0  0  0  0  0
   10.7080    6.8123  -19.1527 C   0  0  0  0  0  0  0  0  0  0  0  0
   11.8769    5.7865  -19.2794 C   0  0  3  0  0  0  0  0  0  0  0  0
   11.9321    5.0179  -17.9429 C   0  0  0  0  0  0  0  0  0  0  0  0
   12.8438    3.8158  -18.0019 C   0  0  0  0  0  0  0  0  0  0  0  0
   12.8354    2.9618  -16.7627 C   0  0  0  0  0  0  0  0  0  0  0  0
   14.0094    1.9943  -16.9053 C   0  0  0  0  0  0  0  0  0  0  0  0
   14.0413    1.1014  -15.7075 C   0  0  0  0  0  0  0  0  0  0  0  0
   15.3347    0.2843  -15.6205 C   0  0  0  0  0  0  0  0  0  0  0  0
   15.3800   -0.3570  -14.2639 N   0  0  0  0  0  0  0  0  0  0  0  0
   14.9273   -1.6458  -14.4771 N   0  0  0  0  0  0  0  0  0  0  0  0
   14.2983   -2.4965  -13.7356 C   0  0  0  0  0  0  0  0  0  0  0  0
   13.9039   -2.3982  -12.4333 N   0  0  0  0  0  0  0  0  0  0  0  0
   12.8447   -1.7578  -12.2535 N   0  0  0  0  0  0  0  0  0  0  0  0
   12.8056   -0.3914  -12.8143 C   0  0  0  0  0  0  0  0  0  0  0  0
   13.9988    0.4402  -12.2865 C   0  0  0  0  0  0  0  0  0  0  0  0
   15.2307    0.5967  -13.1794 C   0  0  0  0  0  0  0  0  0  0  0  0
   15.9784    1.7642  -13.2713 C   0  0  0  0  0  0  0  0  0  0  0  0
   15.7390    3.2006  -12.8619 C   0  0  0  0  0  0  0  0  0  0  0  0
   16.2392    4.2934  -13.5379 C   0  0  0  0  0  0  0  0  0  0  0  0
   16.0674    5.7868  -13.2813 C   0  0  0  0  0  0  0  0  0  0  0  0
   15.7803    6.8495  -14.1006 C   0  0  0  0  0  0  0  0  0  0  0  0
   15.4925    8.1299  -14.8074 C   0  0  0  0  0  0  0  0  0  0  0  0
   16.5128   10.9536  -15.1454 H   0  0  0  0  0  0  0  0  0  0  0  0
   14.9647   11.0295  -14.2341 H   0  0  0  0  0  0  0  0  0  0  0  0
   15.0323   11.4019  -15.9358 H   0  0  0  0  0  0  0  0  0  0  0  0
   15.7537    9.2381  -17.5747 H   0  0  0  0  0  0  0  0  0  0  0  0
   12.8768   10.0832  -17.2626 H   0  0  0  0  0  0  0  0  0  0  0  0
   14.6367    8.7991  -19.4255 H   0  0  0  0  0  0  0  0  0  0  0  0
   14.6800    5.9722  -18.4370 H   0  0  0  0  0  0  0  0  0  0  0  0
   15.1475    6.9176  -19.8126 H   0  0  0  0  0  0  0  0  0  0  0  0
   14.1301    4.0736  -20.1463 H   0  0  0  0  0  0  0  0  0  0  0  0
   15.7923    4.6188  -20.1078 H   0  0  0  0  0  0  0  0  0  0  0  0
   13.6634    5.4625  -22.1292 H   0  0  0  0  0  0  0  0  0  0  0  0
   14.9810    4.3080  -22.3920 H   0  0  0  0  0  0  0  0  0  0  0  0
   15.3544    6.0209  -22.1265 H   0  0  0  0  0  0  0  0  0  0  0  0
   11.0199    8.7723  -19.7093 H   0  0  0  0  0  0  0  0  0  0  0  0
   10.0608    6.7786  -20.0365 H   0  0  0  0  0  0  0  0  0  0  0  0
   10.0798    6.6432  -18.2696 H   0  0  0  0  0  0  0  0  0  0  0  0
   11.6804    5.0959  -20.1084 H   0  0  0  0  0  0  0  0  0  0  0  0
   10.9252    4.6468  -17.7023 H   0  0  0  0  0  0  0  0  0  0  0  0
   12.2303    5.6802  -17.1214 H   0  0  0  0  0  0  0  0  0  0  0  0
   13.8704    4.1534  -18.1002 H   0  0  0  0  0  0  0  0  0  0  0  0
   12.5928    3.1894  -18.8652 H   0  0  0  0  0  0  0  0  0  0  0  0
   11.8860    2.4247  -16.6588 H   0  0  0  0  0  0  0  0  0  0  0  0
   12.9628    3.5859  -15.8682 H   0  0  0  0  0  0  0  0  0  0  0  0
   14.9492    2.5575  -16.9692 H   0  0  0  0  0  0  0  0  0  0  0  0
   13.9174    1.3919  -17.8148 H   0  0  0  0  0  0  0  0  0  0  0  0
   13.1708    0.4391  -15.7250 H   0  0  0  0  0  0  0  0  0  0  0  0
   13.9103    1.7475  -14.8341 H   0  0  0  0  0  0  0  0  0  0  0  0
   16.2314    0.8888  -15.7854 H   0  0  0  0  0  0  0  0  0  0  0  0
   15.3350   -0.4700  -16.4207 H   0  0  0  0  0  0  0  0  0  0  0  0
   14.0245   -3.4489  -14.2347 H   0  0  0  0  0  0  0  0  0  0  0  0
   11.8724    0.0601  -12.4601 H   0  0  0  0  0  0  0  0  0  0  0  0
   12.7029   -0.4275  -13.9001 H   0  0  0  0  0  0  0  0  0  0  0  0
   14.3275    0.0118  -11.3303 H   0  0  0  0  0  0  0  0  0  0  0  0
   13.6066    1.4364  -12.0653 H   0  0  0  0  0  0  0  0  0  0  0  0
   16.8646    1.6878  -13.9072 H   0  0  0  0  0  0  0  0  0  0  0  0
   15.0516    3.3326  -12.0307 H   0  0  0  0  0  0  0  0  0  0  0  0
   16.9623    4.0922  -14.3327 H   0  0  0  0  0  0  0  0  0  0  0  0
   16.3248    5.9936  -12.2370 H   0  0  0  0  0  0  0  0  0  0  0  0
   16.0710    7.5813  -13.2944 H   0  0  0  0  0  0  0  0  0  0  0  0
   15.0419    7.4353  -15.5610 H   0  0  0  0  0  0  0  0  0  0  0  0
  1  2  1  0  0  0  0
  1 34  1  0  0  0  0
  1 35  1  0  0  0  0
  1 36  1  0  0  0  0
  2  3  1  0  0  0  0
  2 33  2  3  0  0  0
  3  4  2  3  0  0  0
  3 37  1  0  0  0  0
  4  5  1  0  0  0  0
  4 38  1  0  0  0  0
  5  6  2  3  0  0  0
  5 39  1  0  0  0  0
  6  7  1  0  0  0  0
  6 11  1  0  0  0  0
  7  8  1  0  0  0  0
  7 13  1  0  0  0  0
  8  9  1  0  0  0  0
  8 40  1  0  0  0  0
  8 41  1  0  0  0  0
  9 10  1  0  0  0  0
  9 42  1  0  0  0  0
  9 43  1  0  0  0  0
 10 44  1  0  0  0  0
 10 45  1  0  0  0  0
 10 46  1  0  0  0  0
 11 12  1  0  0  0  0
 11 47  1  0  0  0  0
 12 13  1  0  0  0  0
 12 48  1  0  0  0  0
 12 49  1  0  0  0  0
 13 14  1  0  0  0  0
 13 50  1  0  0  0  0
 14 15  1  0  0  0  0
 14 51  1  0  0  0  0
 14 52  1  0  0  0  0
 15 16  1  0  0  0  0
 15 53  1  0  0  0  0
 15 54  1  0  0  0  0
 16 17  1  0  0  0  0
 16 55  1  0  0  0  0
 16 56  1  0  0  0  0
 17 18  1  0  0  0  0
 17 57  1  0  0  0  0
 17 58  1  0  0  0  0
 18 19  1  0  0  0  0
 18 59  1  0  0  0  0
 18 60  1  0  0  0  0
 19 20  1  0  0  0  0
 19 61  1  0  0  0  0
 19 62  1  0  0  0  0
 20 21  1  0  0  0  0
 20 27  1  0  0  0  0
 21 22  2  0  0  0  0
 22 23  1  0  0  0  0
 22 63  1  0  0  0  0
 23 24  2  0  0  0  0
 24 25  1  0  0  0  0
 25 26  1  0  0  0  0
 25 64  1  0  0  0  0
 25 65  1  0  0  0  0
 26 27  1  0  0  0  0
 26 66  1  0  0  0  0
 26 67  1  0  0  0  0
 27 28  2  3  0  0  0
 28 29  1  0  0  0  0
 28 68  1  0  0  0  0
 29 30  2  3  0  0  0
 29 69  1  0  0  0  0
 30 31  1  0  0  0  0
 30 70  1  0  0  0  0
 31 32  2  3  0  0  0
 31 71  1  0  0  0  0
 32 33  1  0  0  0  0
 32 72  1  0  0  0  0
 33 73  1  0  0  0  0
M  END
$$$$
