
 OpenBabel04232216453D

 51 52  0  0  0  0  0  0  0  0999 V2000
    3.4475   -0.8261   -0.0990 C   0  0  0  0  0  0  0  0  0  0  0  0
    4.6421   -1.4163    0.6001 C   0  0  0  0  0  0  0  0  0  0  0  0
    5.1066   -0.6529    1.7609 C   0  0  0  0  0  0  0  0  0  0  0  0
    6.1254    0.2504    1.7268 C   0  0  0  0  0  0  0  0  0  0  0  0
    6.5049    1.0316    0.5023 C   0  0  0  0  0  0  0  0  0  0  0  0
    7.1209    0.0913    2.8166 C   0  0  0  0  0  0  0  0  0  0  0  0
    8.4009   -0.2096    2.4764 C   0  0  0  0  0  0  0  0  0  0  0  0
    8.7961   -1.6147    2.7058 C   0  0  0  0  0  0  0  0  0  0  0  0
    8.8628   -2.3901    1.5897 C   0  0  0  0  0  0  0  0  0  0  0  0
    7.6567   -3.2693    1.3612 C   0  0  0  0  0  0  0  0  0  0  0  0
    7.8367   -4.5730    2.0711 C   0  0  0  0  0  0  0  0  0  0  0  0
    8.8633   -5.1984    1.7598 O   0  0  0  0  0  0  0  0  0  0  0  0
    6.9963   -5.1270    3.1846 C   0  0  0  0  0  0  0  0  0  0  0  0
    7.7765   -5.7446    4.1080 C   0  0  0  0  0  0  0  0  0  0  0  0
    7.4148   -6.9453    4.9338 C   0  0  0  0  0  0  0  0  0  0  0  0
    7.5848   -8.2045    4.0639 C   0  0  0  0  0  0  0  0  0  0  0  0
    6.3076   -8.6456    3.3323 C   0  0  0  0  0  0  0  0  0  0  0  0
    6.2633   -8.4540    1.8135 C   0  0  0  0  0  0  0  0  0  0  0  0
    5.9357   -7.0965    1.1838 C   0  0  0  0  0  0  0  0  0  0  0  0
    4.9818   -6.1396    1.8970 C   0  0  0  0  0  0  0  0  0  0  0  0
    5.5199   -5.3456    3.0878 C   0  0  0  0  0  0  0  0  0  0  0  0
    6.7439   -2.6147    0.6104 C   0  0  0  0  0  0  0  0  0  0  0  0
    5.3504   -2.5180    0.1982 C   0  0  0  0  0  0  0  0  0  0  0  0
    2.5361   -0.9636    0.4888 H   0  0  0  0  0  0  0  0  0  0  0  0
    3.2950   -1.2511   -1.0949 H   0  0  0  0  0  0  0  0  0  0  0  0
    3.5840    0.2556   -0.2434 H   0  0  0  0  0  0  0  0  0  0  0  0
    4.8934   -1.1860    2.6871 H   0  0  0  0  0  0  0  0  0  0  0  0
    5.6413    1.5803    0.1152 H   0  0  0  0  0  0  0  0  0  0  0  0
    6.8957    0.3928   -0.2997 H   0  0  0  0  0  0  0  0  0  0  0  0
    7.2724    1.7793    0.7247 H   0  0  0  0  0  0  0  0  0  0  0  0
    6.7052   -0.4334    3.6853 H   0  0  0  0  0  0  0  0  0  0  0  0
    8.8280    0.2087    1.5658 H   0  0  0  0  0  0  0  0  0  0  0  0
    8.3416   -2.0521    3.5957 H   0  0  0  0  0  0  0  0  0  0  0  0
    9.2494   -1.9671    0.6621 H   0  0  0  0  0  0  0  0  0  0  0  0
    8.8497   -5.5508    4.1185 H   0  0  0  0  0  0  0  0  0  0  0  0
    6.4264   -6.8896    5.3981 H   0  0  0  0  0  0  0  0  0  0  0  0
    8.1296   -7.0005    5.7674 H   0  0  0  0  0  0  0  0  0  0  0  0
    7.8784   -9.0213    4.7366 H   0  0  0  0  0  0  0  0  0  0  0  0
    8.4190   -8.0913    3.3582 H   0  0  0  0  0  0  0  0  0  0  0  0
    5.4069   -8.2519    3.8079 H   0  0  0  0  0  0  0  0  0  0  0  0
    6.2557   -9.7350    3.4788 H   0  0  0  0  0  0  0  0  0  0  0  0
    5.5005   -9.1522    1.4433 H   0  0  0  0  0  0  0  0  0  0  0  0
    7.2058   -8.8095    1.3751 H   0  0  0  0  0  0  0  0  0  0  0  0
    5.4697   -7.3178    0.2124 H   0  0  0  0  0  0  0  0  0  0  0  0
    6.8620   -6.5909    0.9091 H   0  0  0  0  0  0  0  0  0  0  0  0
    4.0798   -6.6815    2.2056 H   0  0  0  0  0  0  0  0  0  0  0  0
    4.6396   -5.4036    1.1595 H   0  0  0  0  0  0  0  0  0  0  0  0
    5.1654   -5.8590    3.9948 H   0  0  0  0  0  0  0  0  0  0  0  0
    5.0175   -4.3728    3.1420 H   0  0  0  0  0  0  0  0  0  0  0  0
    7.1819   -1.7412    0.1095 H   0  0  0  0  0  0  0  0  0  0  0  0
    5.0586   -3.0377   -0.7116 H   0  0  0  0  0  0  0  0  0  0  0  0
  1  2  1  0  0  0  0
  1 24  1  0  0  0  0
  1 25  1  0  0  0  0
  1 26  1  0  0  0  0
  2  3  1  0  0  0  0
  2 23  2  0  0  0  0
  3  4  2  0  0  0  0
  3 27  1  0  0  0  0
  4  5  1  0  0  0  0
  4  6  1  0  0  0  0
  5 28  1  0  0  0  0
  5 29  1  0  0  0  0
  5 30  1  0  0  0  0
  6  7  2  0  0  0  0
  6 31  1  0  0  0  0
  7  8  1  0  0  0  0
  7 32  1  0  0  0  0
  8  9  2  0  0  0  0
  8 33  1  0  0  0  0
  9 10  1  0  0  0  0
  9 34  1  0  0  0  0
 10 11  1  0  0  0  0
 10 22  2  0  0  0  0
 11 12  2  0  0  0  0
 11 13  1  0  0  0  0
 13 14  2  3  0  0  0
 13 21  1  0  0  0  0
 14 15  1  0  0  0  0
 14 35  1  0  0  0  0
 15 16  1  0  0  0  0
 15 36  1  0  0  0  0
 15 37  1  0  0  0  0
 16 17  1  0  0  0  0
 16 38  1  0  0  0  0
 16 39  1  0  0  0  0
 17 18  1  0  0  0  0
 17 40  1  0  0  0  0
 17 41  1  0  0  0  0
 18 19  1  0  0  0  0
 18 42  1  0  0  0  0
 18 43  1  0  0  0  0
 19 20  1  0  0  0  0
 19 44  1  0  0  0  0
 19 45  1  0  0  0  0
 20 21  1  0  0  0  0
 20 46  1  0  0  0  0
 20 47  1  0  0  0  0
 21 48  1  0  0  0  0
 21 49  1  0  0  0  0
 22 23  1  0  0  0  0
 22 50  1  0  0  0  0
 23 51  1  0  0  0  0
M  END
$$$$
