
 OpenBabel04232216453D

 53 54  0  0  0  0  0  0  0  0999 V2000
    5.9860    2.6234    2.1119 C   0  0  0  0  0  0  0  0  0  0  0  0
    6.9783    1.6923    2.8135 C   0  0  0  0  0  0  0  0  0  0  0  0
    6.3740    0.3558    2.9116 C   0  0  0  0  0  0  0  0  0  0  0  0
    5.8549   -0.6253    2.1362 C   0  0  0  0  0  0  0  0  0  0  0  0
    5.9476   -0.7486    0.6253 C   0  0  0  0  0  0  0  0  0  0  0  0
    5.4071   -1.8106    2.9456 C   0  0  0  0  0  0  0  0  0  0  0  0
    4.5516   -1.4220    4.1880 C   0  0  0  0  0  0  0  0  0  0  0  0
    4.0647   -2.3851    5.2670 C   0  0  0  0  0  0  0  0  0  0  0  0
    2.9761   -3.3190    4.8120 C   0  0  0  0  0  0  0  0  0  0  0  0
    6.3525   -2.7966    2.9138 C   0  0  0  0  0  0  0  0  0  0  0  0
    7.3545   -2.7503    3.9735 C   0  0  0  0  0  0  0  0  0  0  0  0
    8.6032   -2.2568    3.8839 C   0  0  0  0  0  0  0  0  0  0  0  0
    9.2076   -1.7253    2.5697 C   0  0  0  0  0  0  0  0  0  0  0  0
    9.2980   -1.8767    5.1418 C   0  0  0  0  0  0  0  0  0  0  0  0
    8.5572   -1.9359    6.4878 C   0  0  0  0  0  0  0  0  0  0  0  0
   10.4247   -1.1522    5.1197 C   0  0  0  0  0  0  0  0  0  0  0  0
   11.6537   -1.2915    4.2415 C   0  0  0  0  0  0  0  0  0  0  0  0
   10.2826    0.0831    5.8598 C   0  0  0  0  0  0  0  0  0  0  0  0
    9.6061    1.2096    5.4577 C   0  0  0  0  0  0  0  0  0  0  0  0
   10.5090    2.2993    5.8686 C   0  0  0  0  0  0  0  0  0  0  0  0
   11.1098    2.5500    4.6696 C   0  0  0  0  0  0  0  0  0  0  0  0
   10.2828    2.0277    3.5643 C   0  0  0  0  0  0  0  0  0  0  0  0
    9.1268    1.4634    4.0032 C   0  0  0  0  0  0  0  0  0  0  0  0
    8.0037    2.1465    3.4819 N   0  0  0  0  0  0  0  0  0  0  0  0
    5.1654    2.8642    2.7981 H   0  0  0  0  0  0  0  0  0  0  0  0
    5.5180    2.1118    1.2584 H   0  0  0  0  0  0  0  0  0  0  0  0
    6.4405    3.5403    1.7369 H   0  0  0  0  0  0  0  0  0  0  0  0
    6.1413    0.3569    3.9627 H   0  0  0  0  0  0  0  0  0  0  0  0
    4.9587   -0.7716    0.1537 H   0  0  0  0  0  0  0  0  0  0  0  0
    6.4662   -1.6620    0.3087 H   0  0  0  0  0  0  0  0  0  0  0  0
    6.5071    0.0833    0.1827 H   0  0  0  0  0  0  0  0  0  0  0  0
    3.6889   -0.8435    3.8257 H   0  0  0  0  0  0  0  0  0  0  0  0
    5.1222   -0.7453    4.8244 H   0  0  0  0  0  0  0  0  0  0  0  0
    3.6537   -1.7643    6.0790 H   0  0  0  0  0  0  0  0  0  0  0  0
    4.8926   -2.9371    5.7179 H   0  0  0  0  0  0  0  0  0  0  0  0
    2.1484   -2.7605    4.3647 H   0  0  0  0  0  0  0  0  0  0  0  0
    2.5861   -3.8652    5.6768 H   0  0  0  0  0  0  0  0  0  0  0  0
    3.3629   -4.0358    4.0866 H   0  0  0  0  0  0  0  0  0  0  0  0
    6.8573   -2.9889    1.9659 H   0  0  0  0  0  0  0  0  0  0  0  0
    6.9183   -2.9398    4.9418 H   0  0  0  0  0  0  0  0  0  0  0  0
    8.4671   -1.4940    1.8000 H   0  0  0  0  0  0  0  0  0  0  0  0
    9.9345   -2.4247    2.1380 H   0  0  0  0  0  0  0  0  0  0  0  0
    9.7120   -0.7645    2.6920 H   0  0  0  0  0  0  0  0  0  0  0  0
    7.4896   -1.7346    6.4308 H   0  0  0  0  0  0  0  0  0  0  0  0
    8.9342   -1.2192    7.2571 H   0  0  0  0  0  0  0  0  0  0  0  0
    8.7392   -2.9112    6.9389 H   0  0  0  0  0  0  0  0  0  0  0  0
   12.5758   -1.2470    4.8525 H   0  0  0  0  0  0  0  0  0  0  0  0
   11.6912   -2.2474    3.7249 H   0  0  0  0  0  0  0  0  0  0  0  0
   11.7486   -0.4874    3.4965 H   0  0  0  0  0  0  0  0  0  0  0  0
   10.9766    0.1005    6.7343 H   0  0  0  0  0  0  0  0  0  0  0  0
   10.9514    2.4243    6.8187 H   0  0  0  0  0  0  0  0  0  0  0  0
   12.0773    2.9922    4.5588 H   0  0  0  0  0  0  0  0  0  0  0  0
   10.3848    2.4882    2.5864 H   0  0  0  0  0  0  0  0  0  0  0  0
  1  2  1  0  0  0  0
  1 25  1  0  0  0  0
  1 26  1  0  0  0  0
  1 27  1  0  0  0  0
  2  3  1  0  0  0  0
  2 24  2  3  0  0  0
  3  4  2  3  0  0  0
  3 28  1  0  0  0  0
  4  5  1  0  0  0  0
  4  6  1  0  0  0  0
  5 29  1  0  0  0  0
  5 30  1  0  0  0  0
  5 31  1  0  0  0  0
  6  7  1  0  0  0  0
  6 10  2  3  0  0  0
  7  8  1  0  0  0  0
  7 32  1  0  0  0  0
  7 33  1  0  0  0  0
  8  9  1  0  0  0  0
  8 34  1  0  0  0  0
  8 35  1  0  0  0  0
  9 36  1  0  0  0  0
  9 37  1  0  0  0  0
  9 38  1  0  0  0  0
 10 11  1  0  0  0  0
 10 39  1  0  0  0  0
 11 12  2  3  0  0  0
 11 40  1  0  0  0  0
 12 13  1  0  0  0  0
 12 14  1  0  0  0  0
 13 41  1  0  0  0  0
 13 42  1  0  0  0  0
 13 43  1  0  0  0  0
 14 15  1  0  0  0  0
 14 16  2  3  0  0  0
 15 44  1  0  0  0  0
 15 45  1  0  0  0  0
 15 46  1  0  0  0  0
 16 17  1  0  0  0  0
 16 18  1  0  0  0  0
 17 47  1  0  0  0  0
 17 48  1  0  0  0  0
 17 49  1  0  0  0  0
 18 19  2  3  0  0  0
 18 50  1  0  0  0  0
 19 20  1  0  0  0  0
 19 23  1  0  0  0  0
 20 21  2  0  0  0  0
 20 51  1  0  0  0  0
 21 22  1  0  0  0  0
 21 52  1  0  0  0  0
 22 23  2  0  0  0  0
 22 53  1  0  0  0  0
 23 24  1  0  0  0  0
M  END
$$$$
