
 OpenBabel04232217033D

 56 55  0  0  0  0  0  0  0  0999 V2000
   18.4054   11.4346   -3.8094 S   0  0  0  0  0  0  0  0  0  0  0  0
   17.7407   10.5875   -2.5322 O   0  0  0  0  0  0  0  0  0  0  0  0
   16.0663   10.7118   -2.6294 S   0  0  0  0  0  0  0  0  0  0  0  0
   15.4988    9.5237   -1.0327 S   0  0  0  0  0  0  0  0  0  0  0  0
   13.4207    9.5002   -0.9985 S   0  0  0  0  0  0  0  0  0  0  0  0
   12.7115    8.6766   -2.7604 S   0  0  0  0  0  0  0  0  0  0  0  0
   13.2573    7.1056   -2.6879 N   0  0  0  0  0  0  0  0  0  0  0  0
   12.8345    6.3344   -3.8543 N   0  0  0  0  0  0  0  0  0  0  0  0
   13.5337    4.8290   -3.8575 S   0  0  0  0  0  0  0  0  0  0  0  0
   12.8418    4.0082   -5.6280 S   0  0  0  0  0  0  0  0  0  0  0  0
   13.5724    5.1126   -7.2396 S   0  0  0  0  0  0  0  0  0  0  0  0
   15.6529    5.0112   -7.2782 S   0  0  0  0  0  0  0  0  0  0  0  0
   16.3090    6.1902   -8.8872 S   0  0  0  0  0  0  0  0  0  0  0  0
   18.4190    6.1853   -8.8949 S   0  0  0  0  0  0  0  0  0  0  0  0
   19.1095    7.3404  -10.5223 S   0  0  0  0  0  0  0  0  0  0  0  0
   21.2224    7.3325  -10.5156 S   0  0  0  0  0  0  0  0  0  0  0  0
   21.9153    8.4850  -12.1432 S   0  0  0  0  0  0  0  0  0  0  0  0
   24.0260    8.4778  -12.1326 S   0  0  0  0  0  0  0  0  0  0  0  0
   24.7175    9.6325  -13.7579 S   0  0  0  0  0  0  0  0  0  0  0  0
   26.8273    9.6225  -13.7490 S   0  0  0  0  0  0  0  0  0  0  0  0
   27.5180   10.7795  -15.3723 S   0  0  0  0  0  0  0  0  0  0  0  0
   29.6279   10.7718  -15.3616 S   0  0  0  0  0  0  0  0  0  0  0  0
   30.3192   11.9274  -16.9883 S   0  0  0  0  0  0  0  0  0  0  0  0
   32.4315   11.9190  -16.9712 S   0  0  0  0  0  0  0  0  0  0  0  0
   33.1231   13.0702  -18.5966 S   0  0  0  0  0  0  0  0  0  0  0  0
   35.2421   13.0596  -18.5818 S   0  0  0  0  0  0  0  0  0  0  0  0
   35.9225   14.2167  -20.2100 S   0  0  0  0  0  0  0  0  0  0  0  0
   38.0333   14.2132  -20.2001 S   0  0  0  0  0  0  0  0  0  0  0  0
   38.7183   15.3676  -21.8300 S   0  0  0  0  0  0  0  0  0  0  0  0
   40.8277   15.3644  -21.8151 S   0  0  0  0  0  0  0  0  0  0  0  0
   41.5183   16.5183  -23.4389 S   0  0  0  0  0  0  0  0  0  0  0  0
   43.6275   16.5173  -23.4233 S   0  0  0  0  0  0  0  0  0  0  0  0
   44.3182   17.6741  -25.0460 S   0  0  0  0  0  0  0  0  0  0  0  0
   46.4286   17.6758  -25.0292 S   0  0  0  0  0  0  0  0  0  0  0  0
   47.1174   18.8312  -26.6557 S   0  0  0  0  0  0  0  0  0  0  0  0
   49.2258   18.8354  -26.6370 S   0  0  0  0  0  0  0  0  0  0  0  0
   49.9161   19.9951  -28.2642 S   0  0  0  0  0  0  0  0  0  0  0  0
   52.0255   19.9936  -28.2426 S   0  0  0  0  0  0  0  0  0  0  0  0
   52.7171   21.1479  -29.8672 S   0  0  0  0  0  0  0  0  0  0  0  0
   54.8269   21.1501  -29.8456 S   0  0  0  0  0  0  0  0  0  0  0  0
   55.5166   22.3068  -31.4687 S   0  0  0  0  0  0  0  0  0  0  0  0
   57.6225   22.3116  -31.4464 S   0  0  0  0  0  0  0  0  0  0  0  0
   58.3117   23.4703  -33.0673 S   0  0  0  0  0  0  0  0  0  0  0  0
   60.4178   23.4770  -33.0425 S   0  0  0  0  0  0  0  0  0  0  0  0
   61.0997   24.6310  -34.6624 S   0  0  0  0  0  0  0  0  0  0  0  0
   63.2039   24.6384  -34.6331 S   0  0  0  0  0  0  0  0  0  0  0  0
   63.8813   25.7910  -36.2477 S   0  0  0  0  0  0  0  0  0  0  0  0
   65.9722   25.7880  -36.2087 S   0  0  0  0  0  0  0  0  0  0  0  0
   66.6291   26.9591  -37.7975 S   0  0  0  0  0  0  0  0  0  0  0  0
   68.7024   26.8891  -37.8223 S   0  0  0  0  0  0  0  0  0  0  0  0
   69.3189   28.0937  -39.3969 S   0  0  0  0  0  0  0  0  0  0  0  0
   68.6537   27.1409  -41.1079 S   0  0  0  0  0  0  0  0  0  0  0  0
   19.7245   11.2697   -3.5925 H   0  0  0  0  0  0  0  0  0  0  0  0
   12.9021    6.6268   -1.8546 H   0  0  0  0  0  0  0  0  0  0  0  0
   13.2202    6.8418   -4.7073 H   0  0  0  0  0  0  0  0  0  0  0  0
   69.0944   27.9693  -42.0676 H   0  0  0  0  0  0  0  0  0  0  0  0
  1  2  1  0  0  0  0
  1 53  1  0  0  0  0
  2  3  1  0  0  0  0
  3  4  1  0  0  0  0
  4  5  1  0  0  0  0
  5  6  1  0  0  0  0
  6  7  1  0  0  0  0
  7  8  1  0  0  0  0
  7 54  1  0  0  0  0
  8  9  1  0  0  0  0
  8 55  1  0  0  0  0
  9 10  1  0  0  0  0
 10 11  1  0  0  0  0
 11 12  1  0  0  0  0
 12 13  1  0  0  0  0
 13 14  1  0  0  0  0
 14 15  1  0  0  0  0
 15 16  1  0  0  0  0
 16 17  1  0  0  0  0
 17 18  1  0  0  0  0
 18 19  1  0  0  0  0
 19 20  1  0  0  0  0
 20 21  1  0  0  0  0
 21 22  1  0  0  0  0
 22 23  1  0  0  0  0
 23 24  1  0  0  0  0
 24 25  1  0  0  0  0
 25 26  1  0  0  0  0
 26 27  1  0  0  0  0
 27 28  1  0  0  0  0
 28 29  1  0  0  0  0
 29 30  1  0  0  0  0
 30 31  1  0  0  0  0
 31 32  1  0  0  0  0
 32 33  1  0  0  0  0
 33 34  1  0  0  0  0
 34 35  1  0  0  0  0
 35 36  1  0  0  0  0
 36 37  1  0  0  0  0
 37 38  1  0  0  0  0
 38 39  1  0  0  0  0
 39 40  1  0  0  0  0
 40 41  1  0  0  0  0
 41 42  1  0  0  0  0
 42 43  1  0  0  0  0
 43 44  1  0  0  0  0
 44 45  1  0  0  0  0
 45 46  1  0  0  0  0
 46 47  1  0  0  0  0
 47 48  1  0  0  0  0
 48 49  1  0  0  0  0
 49 50  1  0  0  0  0
 50 51  1  0  0  0  0
 51 52  1  0  0  0  0
 52 56  1  0  0  0  0
M  END
$$$$
