
 OpenBabel04232217003D

227226  0  0  0  0  0  0  0  0999 V2000
    0.8997    0.0074   -0.0133 O   0  0  0  0  0  0  0  0  0  0  0  0
    2.3174    0.0151   -0.0015 C   0  0  0  0  0  0  0  0  0  0  0  0
    2.8273   -1.1801   -0.7823 C   0  0  0  0  0  0  0  0  0  0  0  0
    4.3462   -1.1950   -0.7872 C   0  0  0  0  0  0  0  0  0  0  0  0
    4.8594   -2.3910   -1.5686 C   0  0  0  0  0  0  0  0  0  0  0  0
    6.3770   -2.3984   -1.5686 C   0  0  0  0  0  0  0  0  0  0  0  0
    6.8884   -3.5928   -2.3513 C   0  0  0  0  0  0  0  0  0  0  0  0
    8.4050   -3.6008   -2.3493 C   0  0  0  0  0  0  0  0  0  0  0  0
    8.9156   -4.7950   -3.1319 C   0  0  0  0  0  0  0  0  0  0  0  0
   10.4319   -4.8017   -3.1315 C   0  0  0  0  0  0  0  0  0  0  0  0
   10.9423   -5.9970   -3.9124 C   0  0  0  0  0  0  0  0  0  0  0  0
   12.4585   -6.0026   -3.9136 C   0  0  0  0  0  0  0  0  0  0  0  0
   12.9690   -7.1990   -4.6928 C   0  0  0  0  0  0  0  0  0  0  0  0
   14.4852   -7.2056   -4.6923 C   0  0  0  0  0  0  0  0  0  0  0  0
   14.9957   -8.4020   -5.4715 C   0  0  0  0  0  0  0  0  0  0  0  0
   16.5119   -8.4076   -5.4727 C   0  0  0  0  0  0  0  0  0  0  0  0
   17.0223   -9.6028   -6.2536 C   0  0  0  0  0  0  0  0  0  0  0  0
   18.5385   -9.6095   -6.2531 C   0  0  0  0  0  0  0  0  0  0  0  0
   19.0490  -10.8037   -7.0357 C   0  0  0  0  0  0  0  0  0  0  0  0
   20.5652  -10.8114   -7.0335 C   0  0  0  0  0  0  0  0  0  0  0  0
   21.0756  -12.0067   -7.8144 C   0  0  0  0  0  0  0  0  0  0  0  0
   22.5919  -12.0134   -7.8139 C   0  0  0  0  0  0  0  0  0  0  0  0
   23.1023  -13.2097   -8.5931 C   0  0  0  0  0  0  0  0  0  0  0  0
   24.6185  -13.2175   -8.5910 C   0  0  0  0  0  0  0  0  0  0  0  0
   25.1289  -14.4139   -9.3702 C   0  0  0  0  0  0  0  0  0  0  0  0
   26.6452  -14.4206   -9.3697 C   0  0  0  0  0  0  0  0  0  0  0  0
   27.1556  -15.6169  -10.1489 C   0  0  0  0  0  0  0  0  0  0  0  0
   28.6718  -15.6236  -10.1484 C   0  0  0  0  0  0  0  0  0  0  0  0
   29.1822  -16.8200  -10.9276 C   0  0  0  0  0  0  0  0  0  0  0  0
   30.6985  -16.8267  -10.9272 C   0  0  0  0  0  0  0  0  0  0  0  0
   31.2089  -18.0230  -11.7063 C   0  0  0  0  0  0  0  0  0  0  0  0
   32.7251  -18.0297  -11.7059 C   0  0  0  0  0  0  0  0  0  0  0  0
   33.2355  -19.2261  -12.4851 C   0  0  0  0  0  0  0  0  0  0  0  0
   34.7518  -19.2317  -12.4863 C   0  0  0  0  0  0  0  0  0  0  0  0
   35.2622  -20.4280  -13.2655 C   0  0  0  0  0  0  0  0  0  0  0  0
   36.7784  -20.4347  -13.2650 C   0  0  0  0  0  0  0  0  0  0  0  0
   37.2889  -21.6300  -14.0459 C   0  0  0  0  0  0  0  0  0  0  0  0
   38.8051  -21.6355  -14.0471 C   0  0  0  0  0  0  0  0  0  0  0  0
   39.3155  -22.8319  -14.8263 C   0  0  0  0  0  0  0  0  0  0  0  0
   40.8318  -22.8364  -14.8292 C   0  0  0  0  0  0  0  0  0  0  0  0
   41.3422  -24.0317  -15.6101 C   0  0  0  0  0  0  0  0  0  0  0  0
   42.8584  -24.0361  -15.6130 C   0  0  0  0  0  0  0  0  0  0  0  0
   43.3689  -25.2313  -16.3939 C   0  0  0  0  0  0  0  0  0  0  0  0
   44.8851  -25.2355  -16.3965 C   0  0  0  0  0  0  0  0  0  0  0  0
   45.3946  -26.4298  -17.1760 C   0  0  0  0  0  0  0  0  0  0  0  0
   46.9109  -26.4365  -17.1813 C   0  0  0  0  0  0  0  0  0  0  0  0
   47.4032  -27.6314  -17.9657 C   0  0  0  0  0  0  0  0  0  0  0  0
   48.8527  -27.5941  -17.9558 N   0  0  0  0  0  0  0  0  0  0  0  0
   49.3565  -28.7345  -18.6841 N   0  0  0  0  0  0  0  0  0  0  0  0
   50.7836  -28.7568  -18.6930 N   0  0  0  0  0  0  0  0  0  0  0  0
   51.3147  -28.8520  -17.3794 N   0  0  0  0  0  0  0  0  0  0  0  0
   52.7170  -28.8571  -17.4206 N   0  0  0  0  0  0  0  0  0  0  0  0
   53.2043  -28.9224  -16.1152 N   0  0  0  0  0  0  0  0  0  0  0  0
   54.6331  -28.9462  -16.1246 N   0  0  0  0  0  0  0  0  0  0  0  0
   55.1567  -29.0335  -14.8017 N   0  0  0  0  0  0  0  0  0  0  0  0
   54.7103  -30.2211  -14.1547 N   0  0  0  0  0  0  0  0  0  0  0  0
   55.2388  -30.2697  -12.8579 N   0  0  0  0  0  0  0  0  0  0  0  0
   54.7991  -31.4504  -12.2131 N   0  0  0  0  0  0  0  0  0  0  0  0
   55.3264  -31.5228  -10.9050 N   0  0  0  0  0  0  0  0  0  0  0  0
   54.8743  -32.6985  -10.2675 N   0  0  0  0  0  0  0  0  0  0  0  0
   55.4108  -32.7796   -8.9486 N   0  0  0  0  0  0  0  0  0  0  0  0
   54.9621  -33.9613   -8.2980 N   0  0  0  0  0  0  0  0  0  0  0  0
   55.3987  -35.1182   -9.0231 N   0  0  0  0  0  0  0  0  0  0  0  0
   54.9233  -36.3086   -8.3375 C   0  0  0  0  0  0  0  0  0  0  0  0
   55.3809  -37.5219   -9.1213 C   0  0  0  0  0  0  0  0  0  0  0  0
   54.9029  -38.7823   -8.4238 C   0  0  0  0  0  0  0  0  0  0  0  0
   55.3563  -40.0062   -9.1959 C   0  0  0  0  0  0  0  0  0  0  0  0
   54.8788  -41.2648   -8.4974 C   0  0  0  0  0  0  0  0  0  0  0  0
   55.3329  -42.4879   -9.2706 C   0  0  0  0  0  0  0  0  0  0  0  0
   54.8572  -43.7464   -8.5713 C   0  0  0  0  0  0  0  0  0  0  0  0
   55.3113  -44.9691   -9.3446 C   0  0  0  0  0  0  0  0  0  0  0  0
   54.8356  -46.2275   -8.6452 C   0  0  0  0  0  0  0  0  0  0  0  0
   55.2898  -47.4501   -9.4185 C   0  0  0  0  0  0  0  0  0  0  0  0
   54.8141  -48.7086   -8.7191 C   0  0  0  0  0  0  0  0  0  0  0  0
   55.2682  -49.9312   -9.4924 C   0  0  0  0  0  0  0  0  0  0  0  0
   54.7908  -51.1897   -8.7940 C   0  0  0  0  0  0  0  0  0  0  0  0
   55.2448  -52.4129   -9.5672 C   0  0  0  0  0  0  0  0  0  0  0  0
   54.7672  -53.6723   -8.8685 C   0  0  0  0  0  0  0  0  0  0  0  0
   55.2190  -54.8973   -9.6420 C   0  0  0  0  0  0  0  0  0  0  0  0
   54.7415  -56.1620   -8.9477 C   0  0  0  0  0  0  0  0  0  0  0  0
   55.1939  -57.3820   -9.7218 C   0  0  0  0  0  0  0  0  0  0  0  0
    0.6088    0.7839    0.4942 H   0  0  0  0  0  0  0  0  0  0  0  0
    2.6629   -0.0315    1.0363 H   0  0  0  0  0  0  0  0  0  0  0  0
    2.6700    0.9466   -0.4561 H   0  0  0  0  0  0  0  0  0  0  0  0
    2.4453   -1.1459   -1.8104 H   0  0  0  0  0  0  0  0  0  0  0  0
    2.4405   -2.1075   -0.3415 H   0  0  0  0  0  0  0  0  0  0  0  0
    4.7219   -1.2378    0.2425 H   0  0  0  0  0  0  0  0  0  0  0  0
    4.7266   -0.2694   -1.2366 H   0  0  0  0  0  0  0  0  0  0  0  0
    4.4886   -2.3500   -2.5999 H   0  0  0  0  0  0  0  0  0  0  0  0
    4.4839   -3.3188   -1.1202 H   0  0  0  0  0  0  0  0  0  0  0  0
    6.7501   -2.4418   -0.5380 H   0  0  0  0  0  0  0  0  0  0  0  0
    6.7549   -1.4711   -2.0162 H   0  0  0  0  0  0  0  0  0  0  0  0
    6.5177   -3.5492   -3.3827 H   0  0  0  0  0  0  0  0  0  0  0  0
    6.5106   -4.5207   -1.9049 H   0  0  0  0  0  0  0  0  0  0  0  0
    8.7763   -3.6447   -1.3181 H   0  0  0  0  0  0  0  0  0  0  0  0
    8.7833   -2.6732   -2.7959 H   0  0  0  0  0  0  0  0  0  0  0  0
    8.5434   -4.7521   -4.1628 H   0  0  0  0  0  0  0  0  0  0  0  0
    8.5386   -5.7228   -2.6845 H   0  0  0  0  0  0  0  0  0  0  0  0
   10.8042   -4.8433   -2.1006 H   0  0  0  0  0  0  0  0  0  0  0  0
   10.8089   -3.8746   -3.5802 H   0  0  0  0  0  0  0  0  0  0  0  0
   10.5689   -5.9562   -4.9429 H   0  0  0  0  0  0  0  0  0  0  0  0
   10.5664   -6.9242   -3.4627 H   0  0  0  0  0  0  0  0  0  0  0  0
   12.8320   -6.0419   -2.8830 H   0  0  0  0  0  0  0  0  0  0  0  0
   12.8344   -5.0760   -4.3645 H   0  0  0  0  0  0  0  0  0  0  0  0
   12.5966   -7.1588   -5.7237 H   0  0  0  0  0  0  0  0  0  0  0  0
   12.5920   -8.1255   -4.2427 H   0  0  0  0  0  0  0  0  0  0  0  0
   14.8576   -7.2457   -3.6614 H   0  0  0  0  0  0  0  0  0  0  0  0
   14.8622   -6.2791   -5.1424 H   0  0  0  0  0  0  0  0  0  0  0  0
   14.6222   -8.3626   -6.5020 H   0  0  0  0  0  0  0  0  0  0  0  0
   14.6198   -9.3285   -5.0206 H   0  0  0  0  0  0  0  0  0  0  0  0
   16.8853   -8.4483   -4.4422 H   0  0  0  0  0  0  0  0  0  0  0  0
   16.8878   -7.4804   -5.9223 H   0  0  0  0  0  0  0  0  0  0  0  0
   16.6500   -9.5612   -7.2845 H   0  0  0  0  0  0  0  0  0  0  0  0
   16.6453  -10.5300   -5.8048 H   0  0  0  0  0  0  0  0  0  0  0  0
   18.9108   -9.6525   -5.2223 H   0  0  0  0  0  0  0  0  0  0  0  0
   18.9156   -8.6818   -6.7006 H   0  0  0  0  0  0  0  0  0  0  0  0
   18.6778  -10.7599   -8.0669 H   0  0  0  0  0  0  0  0  0  0  0  0
   18.6708  -11.7314   -6.5891 H   0  0  0  0  0  0  0  0  0  0  0  0
   20.9364  -10.8538   -6.0023 H   0  0  0  0  0  0  0  0  0  0  0  0
   20.9434   -9.8844   -7.4814 H   0  0  0  0  0  0  0  0  0  0  0  0
   20.7033  -11.9652   -8.8453 H   0  0  0  0  0  0  0  0  0  0  0  0
   20.6986  -12.9338   -7.3656 H   0  0  0  0  0  0  0  0  0  0  0  0
   22.9642  -12.0535   -6.7830 H   0  0  0  0  0  0  0  0  0  0  0  0
   22.9689  -11.0869   -8.2640 H   0  0  0  0  0  0  0  0  0  0  0  0
   22.7311  -13.1689   -9.6245 H   0  0  0  0  0  0  0  0  0  0  0  0
   22.7241  -14.1362   -8.1439 H   0  0  0  0  0  0  0  0  0  0  0  0
   24.9897  -13.2584   -7.5596 H   0  0  0  0  0  0  0  0  0  0  0  0
   24.9967  -12.2911   -9.0402 H   0  0  0  0  0  0  0  0  0  0  0  0
   24.7566  -14.3738  -10.4011 H   0  0  0  0  0  0  0  0  0  0  0  0
   24.7519  -15.3404   -8.9201 H   0  0  0  0  0  0  0  0  0  0  0  0
   27.0175  -14.4607   -8.3387 H   0  0  0  0  0  0  0  0  0  0  0  0
   27.0222  -13.4941   -9.8198 H   0  0  0  0  0  0  0  0  0  0  0  0
   26.7833  -15.5768  -11.1798 H   0  0  0  0  0  0  0  0  0  0  0  0
   26.7785  -16.5434   -9.6988 H   0  0  0  0  0  0  0  0  0  0  0  0
   29.0441  -15.6637   -9.1175 H   0  0  0  0  0  0  0  0  0  0  0  0
   29.0488  -14.6971  -10.5985 H   0  0  0  0  0  0  0  0  0  0  0  0
   28.8099  -16.7799  -11.9586 H   0  0  0  0  0  0  0  0  0  0  0  0
   28.8052  -17.7465  -10.4776 H   0  0  0  0  0  0  0  0  0  0  0  0
   31.0708  -16.8668   -9.8962 H   0  0  0  0  0  0  0  0  0  0  0  0
   31.0755  -15.9002  -11.3772 H   0  0  0  0  0  0  0  0  0  0  0  0
   30.8366  -17.9829  -12.7373 H   0  0  0  0  0  0  0  0  0  0  0  0
   30.8319  -18.9495  -11.2563 H   0  0  0  0  0  0  0  0  0  0  0  0
   33.0975  -18.0698  -10.6749 H   0  0  0  0  0  0  0  0  0  0  0  0
   33.1021  -17.1032  -12.1559 H   0  0  0  0  0  0  0  0  0  0  0  0
   32.8621  -19.1867  -13.5156 H   0  0  0  0  0  0  0  0  0  0  0  0
   32.8597  -20.1526  -12.0341 H   0  0  0  0  0  0  0  0  0  0  0  0
   35.1253  -19.2710  -11.4557 H   0  0  0  0  0  0  0  0  0  0  0  0
   35.1277  -18.3051  -12.9372 H   0  0  0  0  0  0  0  0  0  0  0  0
   34.8898  -20.3879  -14.2964 H   0  0  0  0  0  0  0  0  0  0  0  0
   34.8852  -21.3545  -12.8154 H   0  0  0  0  0  0  0  0  0  0  0  0
   37.1508  -20.4762  -12.2341 H   0  0  0  0  0  0  0  0  0  0  0  0
   37.1555  -19.5076  -13.7138 H   0  0  0  0  0  0  0  0  0  0  0  0
   36.9154  -21.5892  -15.0764 H   0  0  0  0  0  0  0  0  0  0  0  0
   36.9130  -22.5571  -13.5963 H   0  0  0  0  0  0  0  0  0  0  0  0
   39.1786  -21.6749  -13.0166 H   0  0  0  0  0  0  0  0  0  0  0  0
   39.1809  -20.7090  -14.4980 H   0  0  0  0  0  0  0  0  0  0  0  0
   38.9408  -22.7933  -15.8565 H   0  0  0  0  0  0  0  0  0  0  0  0
   38.9408  -23.7585  -14.3745 H   0  0  0  0  0  0  0  0  0  0  0  0
   41.2064  -22.8764  -13.7991 H   0  0  0  0  0  0  0  0  0  0  0  0
   41.2065  -21.9092  -15.2797 H   0  0  0  0  0  0  0  0  0  0  0  0
   40.9675  -23.9916  -16.6402 H   0  0  0  0  0  0  0  0  0  0  0  0
   40.9675  -24.9589  -15.1596 H   0  0  0  0  0  0  0  0  0  0  0  0
   43.2331  -24.0762  -14.5829 H   0  0  0  0  0  0  0  0  0  0  0  0
   43.2331  -23.1089  -16.0635 H   0  0  0  0  0  0  0  0  0  0  0  0
   42.9943  -25.1914  -17.4240 H   0  0  0  0  0  0  0  0  0  0  0  0
   42.9943  -26.1586  -15.9434 H   0  0  0  0  0  0  0  0  0  0  0  0
   45.2599  -25.2759  -15.3666 H   0  0  0  0  0  0  0  0  0  0  0  0
   45.2599  -24.3084  -16.8471 H   0  0  0  0  0  0  0  0  0  0  0  0
   45.0208  -26.3909  -18.2074 H   0  0  0  0  0  0  0  0  0  0  0  0
   45.0214  -27.3580  -16.7269 H   0  0  0  0  0  0  0  0  0  0  0  0
   47.2859  -26.4740  -16.1487 H   0  0  0  0  0  0  0  0  0  0  0  0
   47.2858  -25.5061  -17.6306 H   0  0  0  0  0  0  0  0  0  0  0  0
   47.0506  -27.5719  -18.9988 H   0  0  0  0  0  0  0  0  0  0  0  0
   47.0370  -28.5607  -17.5189 H   0  0  0  0  0  0  0  0  0  0  0  0
   49.2024  -27.6825  -16.9948 H   0  0  0  0  0  0  0  0  0  0  0  0
   49.0404  -28.6961  -19.6529 H   0  0  0  0  0  0  0  0  0  0  0  0
   51.1361  -27.9076  -19.1331 H   0  0  0  0  0  0  0  0  0  0  0  0
   50.9755  -29.6970  -16.9249 H   0  0  0  0  0  0  0  0  0  0  0  0
   53.0094  -28.0060  -17.9078 H   0  0  0  0  0  0  0  0  0  0  0  0
   52.8397  -29.7796  -15.6764 H   0  0  0  0  0  0  0  0  0  0  0  0
   54.9884  -28.0994  -16.5892 H   0  0  0  0  0  0  0  0  0  0  0  0
   54.8541  -28.2323  -14.2410 H   0  0  0  0  0  0  0  0  0  0  0  0
   55.0262  -31.0466  -14.6674 H   0  0  0  0  0  0  0  0  0  0  0  0
   54.9346  -29.4639  -12.3131 H   0  0  0  0  0  0  0  0  0  0  0  0
   55.1088  -32.2530  -12.7575 H   0  0  0  0  0  0  0  0  0  0  0  0
   55.0001  -30.7148  -10.3789 H   0  0  0  0  0  0  0  0  0  0  0  0
   55.1979  -33.5039  -10.8033 H   0  0  0  0  0  0  0  0  0  0  0  0
   55.0947  -31.9636   -8.4242 H   0  0  0  0  0  0  0  0  0  0  0  0
   53.9425  -33.9301   -8.2633 H   0  0  0  0  0  0  0  0  0  0  0  0
   56.4166  -35.1139   -9.0680 H   0  0  0  0  0  0  0  0  0  0  0  0
   53.8282  -36.2949   -8.2872 H   0  0  0  0  0  0  0  0  0  0  0  0
   55.3208  -36.3403   -7.3185 H   0  0  0  0  0  0  0  0  0  0  0  0
   56.4755  -37.5334   -9.1982 H   0  0  0  0  0  0  0  0  0  0  0  0
   54.9799  -37.4895  -10.1434 H   0  0  0  0  0  0  0  0  0  0  0  0
   53.8085  -38.7749   -8.3475 H   0  0  0  0  0  0  0  0  0  0  0  0
   55.3027  -38.8172   -7.4028 H   0  0  0  0  0  0  0  0  0  0  0  0
   56.4505  -40.0146   -9.2715 H   0  0  0  0  0  0  0  0  0  0  0  0
   54.9562  -39.9722  -10.2165 H   0  0  0  0  0  0  0  0  0  0  0  0
   53.7846  -41.2572   -8.4216 H   0  0  0  0  0  0  0  0  0  0  0  0
   55.2790  -41.2997   -7.4767 H   0  0  0  0  0  0  0  0  0  0  0  0
   56.4270  -42.4953   -9.3477 H   0  0  0  0  0  0  0  0  0  0  0  0
   54.9316  -42.4542  -10.2909 H   0  0  0  0  0  0  0  0  0  0  0  0
   53.7631  -43.7393   -8.4942 H   0  0  0  0  0  0  0  0  0  0  0  0
   55.2585  -43.7804   -7.5510 H   0  0  0  0  0  0  0  0  0  0  0  0
   56.4055  -44.9764   -9.4216 H   0  0  0  0  0  0  0  0  0  0  0  0
   54.9100  -44.9353  -10.3648 H   0  0  0  0  0  0  0  0  0  0  0  0
   53.7415  -46.2204   -8.5681 H   0  0  0  0  0  0  0  0  0  0  0  0
   55.2370  -46.2614   -7.6249 H   0  0  0  0  0  0  0  0  0  0  0  0
   56.3839  -47.4574   -9.4955 H   0  0  0  0  0  0  0  0  0  0  0  0
   54.8885  -47.4163  -10.4387 H   0  0  0  0  0  0  0  0  0  0  0  0
   53.7200  -48.7013   -8.6421 H   0  0  0  0  0  0  0  0  0  0  0  0
   55.2154  -48.7424   -7.6988 H   0  0  0  0  0  0  0  0  0  0  0  0
   56.3624  -49.9391   -9.5682 H   0  0  0  0  0  0  0  0  0  0  0  0
   54.8681  -49.8966  -10.5131 H   0  0  0  0  0  0  0  0  0  0  0  0
   53.6966  -51.1815   -8.7183 H   0  0  0  0  0  0  0  0  0  0  0  0
   55.1910  -51.2241   -7.7734 H   0  0  0  0  0  0  0  0  0  0  0  0
   56.3391  -52.4203   -9.6430 H   0  0  0  0  0  0  0  0  0  0  0  0
   54.8448  -52.3777  -10.5879 H   0  0  0  0  0  0  0  0  0  0  0  0
   53.6732  -53.6623   -8.7917 H   0  0  0  0  0  0  0  0  0  0  0  0
   55.1687  -53.7062   -7.8485 H   0  0  0  0  0  0  0  0  0  0  0  0
   56.3134  -54.9035   -9.7187 H   0  0  0  0  0  0  0  0  0  0  0  0
   54.8197  -54.8582  -10.6631 H   0  0  0  0  0  0  0  0  0  0  0  0
   53.6479  -56.1559   -8.8731 H   0  0  0  0  0  0  0  0  0  0  0  0
   55.1424  -56.2014   -7.9282 H   0  0  0  0  0  0  0  0  0  0  0  0
   54.7861  -57.3645  -10.7375 H   0  0  0  0  0  0  0  0  0  0  0  0
   54.8520  -58.2927   -9.2248 H   0  0  0  0  0  0  0  0  0  0  0  0
   56.2861  -57.4101   -9.7891 H   0  0  0  0  0  0  0  0  0  0  0  0
  1  2  1  0  0  0  0
  1 82  1  0  0  0  0
  2  3  1  0  0  0  0
  2 83  1  0  0  0  0
  2 84  1  0  0  0  0
  3  4  1  0  0  0  0
  3 85  1  0  0  0  0
  3 86  1  0  0  0  0
  4  5  1  0  0  0  0
  4 87  1  0  0  0  0
  4 88  1  0  0  0  0
  5  6  1  0  0  0  0
  5 89  1  0  0  0  0
  5 90  1  0  0  0  0
  6  7  1  0  0  0  0
  6 91  1  0  0  0  0
  6 92  1  0  0  0  0
  7  8  1  0  0  0  0
  7 93  1  0  0  0  0
  7 94  1  0  0  0  0
  8  9  1  0  0  0  0
  8 95  1  0  0  0  0
  8 96  1  0  0  0  0
  9 10  1  0  0  0  0
  9 97  1  0  0  0  0
  9 98  1  0  0  0  0
 10 11  1  0  0  0  0
 10 99  1  0  0  0  0
 10100  1  0  0  0  0
 11 12  1  0  0  0  0
 11101  1  0  0  0  0
 11102  1  0  0  0  0
 12 13  1  0  0  0  0
 12103  1  0  0  0  0
 12104  1  0  0  0  0
 13 14  1  0  0  0  0
 13105  1  0  0  0  0
 13106  1  0  0  0  0
 14 15  1  0  0  0  0
 14107  1  0  0  0  0
 14108  1  0  0  0  0
 15 16  1  0  0  0  0
 15109  1  0  0  0  0
 15110  1  0  0  0  0
 16 17  1  0  0  0  0
 16111  1  0  0  0  0
 16112  1  0  0  0  0
 17 18  1  0  0  0  0
 17113  1  0  0  0  0
 17114  1  0  0  0  0
 18 19  1  0  0  0  0
 18115  1  0  0  0  0
 18116  1  0  0  0  0
 19 20  1  0  0  0  0
 19117  1  0  0  0  0
 19118  1  0  0  0  0
 20 21  1  0  0  0  0
 20119  1  0  0  0  0
 20120  1  0  0  0  0
 21 22  1  0  0  0  0
 21121  1  0  0  0  0
 21122  1  0  0  0  0
 22 23  1  0  0  0  0
 22123  1  0  0  0  0
 22124  1  0  0  0  0
 23 24  1  0  0  0  0
 23125  1  0  0  0  0
 23126  1  0  0  0  0
 24 25  1  0  0  0  0
 24127  1  0  0  0  0
 24128  1  0  0  0  0
 25 26  1  0  0  0  0
 25129  1  0  0  0  0
 25130  1  0  0  0  0
 26 27  1  0  0  0  0
 26131  1  0  0  0  0
 26132  1  0  0  0  0
 27 28  1  0  0  0  0
 27133  1  0  0  0  0
 27134  1  0  0  0  0
 28 29  1  0  0  0  0
 28135  1  0  0  0  0
 28136  1  0  0  0  0
 29 30  1  0  0  0  0
 29137  1  0  0  0  0
 29138  1  0  0  0  0
 30 31  1  0  0  0  0
 30139  1  0  0  0  0
 30140  1  0  0  0  0
 31 32  1  0  0  0  0
 31141  1  0  0  0  0
 31142  1  0  0  0  0
 32 33  1  0  0  0  0
 32143  1  0  0  0  0
 32144  1  0  0  0  0
 33 34  1  0  0  0  0
 33145  1  0  0  0  0
 33146  1  0  0  0  0
 34 35  1  0  0  0  0
 34147  1  0  0  0  0
 34148  1  0  0  0  0
 35 36  1  0  0  0  0
 35149  1  0  0  0  0
 35150  1  0  0  0  0
 36 37  1  0  0  0  0
 36151  1  0  0  0  0
 36152  1  0  0  0  0
 37 38  1  0  0  0  0
 37153  1  0  0  0  0
 37154  1  0  0  0  0
 38 39  1  0  0  0  0
 38155  1  0  0  0  0
 38156  1  0  0  0  0
 39 40  1  0  0  0  0
 39157  1  0  0  0  0
 39158  1  0  0  0  0
 40 41  1  0  0  0  0
 40159  1  0  0  0  0
 40160  1  0  0  0  0
 41 42  1  0  0  0  0
 41161  1  0  0  0  0
 41162  1  0  0  0  0
 42 43  1  0  0  0  0
 42163  1  0  0  0  0
 42164  1  0  0  0  0
 43 44  1  0  0  0  0
 43165  1  0  0  0  0
 43166  1  0  0  0  0
 44 45  1  0  0  0  0
 44167  1  0  0  0  0
 44168  1  0  0  0  0
 45 46  1  0  0  0  0
 45169  1  0  0  0  0
 45170  1  0  0  0  0
 46 47  1  0  0  0  0
 46171  1  0  0  0  0
 46172  1  0  0  0  0
 47 48  1  0  0  0  0
 47173  1  0  0  0  0
 47174  1  0  0  0  0
 48 49  1  0  0  0  0
 48175  1  0  0  0  0
 49 50  1  0  0  0  0
 49176  1  0  0  0  0
 50 51  1  0  0  0  0
 50177  1  0  0  0  0
 51 52  1  0  0  0  0
 51178  1  0  0  0  0
 52 53  1  0  0  0  0
 52179  1  0  0  0  0
 53 54  1  0  0  0  0
 53180  1  0  0  0  0
 54 55  1  0  0  0  0
 54181  1  0  0  0  0
 55 56  1  0  0  0  0
 55182  1  0  0  0  0
 56 57  1  0  0  0  0
 56183  1  0  0  0  0
 57 58  1  0  0  0  0
 57184  1  0  0  0  0
 58 59  1  0  0  0  0
 58185  1  0  0  0  0
 59 60  1  0  0  0  0
 59186  1  0  0  0  0
 60 61  1  0  0  0  0
 60187  1  0  0  0  0
 61 62  1  0  0  0  0
 61188  1  0  0  0  0
 62 63  1  0  0  0  0
 62189  1  0  0  0  0
 63 64  1  0  0  0  0
 63190  1  0  0  0  0
 64 65  1  0  0  0  0
 64191  1  0  0  0  0
 64192  1  0  0  0  0
 65 66  1  0  0  0  0
 65193  1  0  0  0  0
 65194  1  0  0  0  0
 66 67  1  0  0  0  0
 66195  1  0  0  0  0
 66196  1  0  0  0  0
 67 68  1  0  0  0  0
 67197  1  0  0  0  0
 67198  1  0  0  0  0
 68 69  1  0  0  0  0
 68199  1  0  0  0  0
 68200  1  0  0  0  0
 69 70  1  0  0  0  0
 69201  1  0  0  0  0
 69202  1  0  0  0  0
 70 71  1  0  0  0  0
 70203  1  0  0  0  0
 70204  1  0  0  0  0
 71 72  1  0  0  0  0
 71205  1  0  0  0  0
 71206  1  0  0  0  0
 72 73  1  0  0  0  0
 72207  1  0  0  0  0
 72208  1  0  0  0  0
 73 74  1  0  0  0  0
 73209  1  0  0  0  0
 73210  1  0  0  0  0
 74 75  1  0  0  0  0
 74211  1  0  0  0  0
 74212  1  0  0  0  0
 75 76  1  0  0  0  0
 75213  1  0  0  0  0
 75214  1  0  0  0  0
 76 77  1  0  0  0  0
 76215  1  0  0  0  0
 76216  1  0  0  0  0
 77 78  1  0  0  0  0
 77217  1  0  0  0  0
 77218  1  0  0  0  0
 78 79  1  0  0  0  0
 78219  1  0  0  0  0
 78220  1  0  0  0  0
 79 80  1  0  0  0  0
 79221  1  0  0  0  0
 79222  1  0  0  0  0
 80 81  1  0  0  0  0
 80223  1  0  0  0  0
 80224  1  0  0  0  0
 81225  1  0  0  0  0
 81226  1  0  0  0  0
 81227  1  0  0  0  0
M  END
$$$$
