
 OpenBabel04232216553D

 63 66  0  0  0  0  0  0  0  0999 V2000
   -1.4897    1.2611   -4.1802 C   0  0  0  0  0  0  0  0  0  0  0  0
   -2.8374    1.9656   -4.2288 N   0  0  0  0  0  0  0  0  0  0  0  0
   -3.4986    1.2377   -3.2631 C   0  0  0  0  0  0  0  0  0  0  0  0
   -4.5118    0.1729   -3.9538 C   0  0  0  0  0  0  0  0  0  0  0  0
   -4.8867   -0.2265   -5.5492 C   0  0  0  0  0  0  0  0  0  0  0  0
   -5.4271    0.6078   -6.7741 C   0  0  0  0  0  0  0  0  0  0  0  0
   -4.3740    0.9613   -7.8440 C   0  0  0  0  0  0  0  0  0  0  0  0
   -3.6073    2.1881   -7.4099 C   0  0  0  0  0  0  0  0  0  0  0  0
   -2.1021    1.9498   -7.4606 C   0  0  0  0  0  0  0  0  0  0  0  0
   -1.3730    3.1866   -6.9532 C   0  0  0  0  0  0  0  0  0  0  0  0
   -0.0031    2.9126   -6.3116 C   0  0  0  0  0  0  0  0  0  0  0  0
    0.0906    3.6402   -4.9749 C   0  0  0  0  0  0  0  0  0  0  0  0
    1.0359    3.0843   -3.9434 C   0  0  0  0  0  0  0  0  0  0  0  0
    0.6828    3.5730   -2.5170 C   0  0  0  0  0  0  0  0  0  0  0  0
    1.9323    4.0706   -2.0321 N   0  0  0  0  0  0  0  0  0  0  0  0
    2.4074    5.2040   -2.3724 C   0  0  0  0  0  0  0  0  0  0  0  0
    2.3397    6.2530   -3.5594 C   0  0  0  0  0  0  0  0  0  0  0  0
    1.4352    6.2827   -2.5401 C   0  0  0  0  0  0  0  0  0  0  0  0
    0.4171    6.6860   -1.8157 C   0  0  0  0  0  0  0  0  0  0  0  0
    0.0961    5.9122   -0.6164 C   0  0  0  0  0  0  0  0  0  0  0  0
   -0.2402    4.6027   -0.5318 C   0  0  0  0  0  0  0  0  0  0  0  0
   -0.4671    3.5829   -1.6854 C   0  0  0  0  0  0  0  0  0  0  0  0
   -2.9539    1.5333   -1.9836 C   0  0  0  0  0  0  0  0  0  0  0  0
   -2.0434    2.9295   -1.6053 C   0  0  0  0  0  0  0  0  0  0  0  0
   -2.9792    3.8397   -1.1967 C   0  0  0  0  0  0  0  0  0  0  0  0
   -3.0293    5.2255   -1.6534 C   0  0  0  0  0  0  0  0  0  0  0  0
   -3.0807    5.5584   -2.9643 C   0  0  0  0  0  0  0  0  0  0  0  0
   -2.8070    4.6163   -4.0682 C   0  0  0  0  0  0  0  0  0  0  0  0
   -3.2635    3.3481   -4.0496 C   0  0  0  0  0  0  0  0  0  0  0  0
   -0.7667    1.7536   -3.5577 H   0  0  0  0  0  0  0  0  0  0  0  0
   -1.1163    0.8709   -5.1124 H   0  0  0  0  0  0  0  0  0  0  0  0
   -1.5398    0.2987   -3.6161 H   0  0  0  0  0  0  0  0  0  0  0  0
   -5.4861    0.2964   -3.4711 H   0  0  0  0  0  0  0  0  0  0  0  0
   -4.1126   -0.7971   -3.6223 H   0  0  0  0  0  0  0  0  0  0  0  0
   -4.0999   -0.8859   -5.9405 H   0  0  0  0  0  0  0  0  0  0  0  0
   -5.7380   -0.9187   -5.4016 H   0  0  0  0  0  0  0  0  0  0  0  0
   -6.0198    1.4806   -6.4833 H   0  0  0  0  0  0  0  0  0  0  0  0
   -6.1346   -0.0335   -7.3361 H   0  0  0  0  0  0  0  0  0  0  0  0
   -4.8428    1.1843   -8.8155 H   0  0  0  0  0  0  0  0  0  0  0  0
   -3.7187    0.1015   -8.0341 H   0  0  0  0  0  0  0  0  0  0  0  0
   -3.9184    2.4294   -6.3938 H   0  0  0  0  0  0  0  0  0  0  0  0
   -3.8867    3.0614   -8.0075 H   0  0  0  0  0  0  0  0  0  0  0  0
   -1.7701    1.7087   -8.4719 H   0  0  0  0  0  0  0  0  0  0  0  0
   -1.8939    1.0669   -6.8538 H   0  0  0  0  0  0  0  0  0  0  0  0
   -2.0354    3.6627   -6.2394 H   0  0  0  0  0  0  0  0  0  0  0  0
   -1.2847    3.9329   -7.7452 H   0  0  0  0  0  0  0  0  0  0  0  0
    0.7943    3.2458   -6.9750 H   0  0  0  0  0  0  0  0  0  0  0  0
    0.1631    1.8435   -6.1693 H   0  0  0  0  0  0  0  0  0  0  0  0
   -0.8461    3.5240   -4.4831 H   0  0  0  0  0  0  0  0  0  0  0  0
    0.2092    4.7172   -5.1277 H   0  0  0  0  0  0  0  0  0  0  0  0
    2.0247    3.4606   -4.2577 H   0  0  0  0  0  0  0  0  0  0  0  0
    1.1713    2.0018   -3.9489 H   0  0  0  0  0  0  0  0  0  0  0  0
    2.0457    5.8637   -4.5292 H   0  0  0  0  0  0  0  0  0  0  0  0
    3.1339    6.9724   -3.5791 H   0  0  0  0  0  0  0  0  0  0  0  0
   -0.1423    7.5686   -2.0513 H   0  0  0  0  0  0  0  0  0  0  0  0
    0.1680    6.4827    0.2954 H   0  0  0  0  0  0  0  0  0  0  0  0
   -0.3973    4.1685    0.4550 H   0  0  0  0  0  0  0  0  0  0  0  0
   -3.3734    1.0427   -1.1068 H   0  0  0  0  0  0  0  0  0  0  0  0
   -3.9760    3.5113   -0.9026 H   0  0  0  0  0  0  0  0  0  0  0  0
   -3.0915    5.9895   -0.8836 H   0  0  0  0  0  0  0  0  0  0  0  0
   -3.1222    6.6089   -3.2361 H   0  0  0  0  0  0  0  0  0  0  0  0
   -1.9718    4.9873   -4.6374 H   0  0  0  0  0  0  0  0  0  0  0  0
   -4.2219    3.2989   -3.5170 H   0  0  0  0  0  0  0  0  0  0  0  0
  1  2  1  0  0  0  0
  1 30  1  0  0  0  0
  1 31  1  0  0  0  0
  1 32  1  0  0  0  0
  2  3  1  0  0  0  0
  2 29  1  0  0  0  0
  3  4  1  0  0  0  0
  3 23  2  0  0  0  0
  4  5  1  0  0  0  0
  4 33  1  0  0  0  0
  4 34  1  0  0  0  0
  5  6  1  0  0  0  0
  5 35  1  0  0  0  0
  5 36  1  0  0  0  0
  6  7  1  0  0  0  0
  6 37  1  0  0  0  0
  6 38  1  0  0  0  0
  7  8  1  0  0  0  0
  7 39  1  0  0  0  0
  7 40  1  0  0  0  0
  8  9  1  0  0  0  0
  8 41  1  0  0  0  0
  8 42  1  0  0  0  0
  9 10  1  0  0  0  0
  9 43  1  0  0  0  0
  9 44  1  0  0  0  0
 10 11  1  0  0  0  0
 10 45  1  0  0  0  0
 10 46  1  0  0  0  0
 11 12  1  0  0  0  0
 11 47  1  0  0  0  0
 11 48  1  0  0  0  0
 12 13  1  0  0  0  0
 12 49  1  0  0  0  0
 12 50  1  0  0  0  0
 13 14  1  0  0  0  0
 13 51  1  0  0  0  0
 13 52  1  0  0  0  0
 14 15  1  0  0  0  0
 14 22  2  0  0  0  0
 15 16  2  0  0  0  0
 16 17  1  0  0  0  0
 16 18  1  0  0  0  0
 17 18  1  0  0  0  0
 17 53  1  0  0  0  0
 17 54  1  0  0  0  0
 18 19  2  0  0  0  0
 19 20  1  0  0  0  0
 19 55  1  0  0  0  0
 20 21  2  0  0  0  0
 20 56  1  0  0  0  0
 21 22  1  0  0  0  0
 21 57  1  0  0  0  0
 22 24  1  0  0  0  0
 23 24  1  0  0  0  0
 23 58  1  0  0  0  0
 24 25  2  0  0  0  0
 25 26  1  0  0  0  0
 25 59  1  0  0  0  0
 26 27  2  0  0  0  0
 26 60  1  0  0  0  0
 27 28  1  0  0  0  0
 27 61  1  0  0  0  0
 28 29  2  0  0  0  0
 28 62  1  0  0  0  0
 29 63  1  0  0  0  0
M  END
$$$$
