
 OpenBabel04232216473D

 55 56  0  0  0  0  0  0  0  0999 V2000
    2.0544    2.2336    1.1130 C   0  0  0  0  0  0  0  0  0  0  0  0
    3.3712    1.7841    1.7323 C   0  0  0  0  0  0  0  0  0  0  0  0
    3.5368    0.2781    1.5117 C   0  0  0  0  0  0  0  0  0  0  0  0
    4.7626   -0.2327    1.4710 C   0  0  0  0  0  0  0  0  0  0  0  0
    5.5023   -0.5681    2.6474 N   0  0  0  0  0  0  0  0  0  0  0  0
    4.8983   -0.3948    4.0237 C   0  0  0  0  0  0  0  0  0  0  0  0
    3.6266   -1.0883    4.4970 C   0  0  0  0  0  0  0  0  0  0  0  0
    3.7609   -2.5318    4.9396 C   0  0  0  0  0  0  0  0  0  0  0  0
    2.4082   -2.9849    5.5055 C   0  0  0  0  0  0  0  0  0  0  0  0
    2.4350   -4.4432    5.9363 C   0  0  0  0  0  0  0  0  0  0  0  0
    1.0664   -4.8907    6.4460 C   0  0  0  0  0  0  0  0  0  0  0  0
    1.0915   -6.3549    6.8486 C   0  0  0  0  0  0  0  0  0  0  0  0
    5.3628   -0.4426    0.1381 C   0  0  0  0  0  0  0  0  0  0  0  0
    4.5054   -0.6905   -1.0954 C   0  0  0  0  0  0  0  0  0  0  0  0
    4.1130    0.5559   -1.8769 C   0  0  0  0  0  0  0  0  0  0  0  0
    6.6884   -0.5605   -0.0078 C   0  0  0  0  0  0  0  0  0  0  0  0
    7.5738   -0.5012    1.1574 C   0  0  0  0  0  0  0  0  0  0  0  0
    8.7870   -0.4986    0.9575 O   0  0  0  0  0  0  0  0  0  0  0  0
    6.8932   -0.3585    2.5192 C   0  0  0  0  0  0  0  0  0  0  0  0
    7.7861    0.2369    3.3438 C   0  0  0  0  0  0  0  0  0  0  0  0
    7.6257    0.9929    4.5631 C   0  0  0  0  0  0  0  0  0  0  0  0
    6.8995    2.0832    4.7990 C   0  0  0  0  0  0  0  0  0  0  0  0
    7.3188    2.9075    6.2993 Cl  0  0  0  0  0  0  0  0  0  0  0  0
    5.7214    2.6651    4.1215 C   0  0  0  0  0  0  0  0  0  0  0  0
    5.3418    2.6440    2.8162 C   0  0  0  0  0  0  0  0  0  0  0  0
    4.0419    2.7287    2.3285 N   0  0  0  0  0  0  0  0  0  0  0  0
    1.3940    2.6107    1.8935 H   0  0  0  0  0  0  0  0  0  0  0  0
    1.5526    1.4012    0.6026 H   0  0  0  0  0  0  0  0  0  0  0  0
    2.2602    3.0060    0.3716 H   0  0  0  0  0  0  0  0  0  0  0  0
    2.8139   -0.1066    2.1928 H   0  0  0  0  0  0  0  0  0  0  0  0
    4.6084    0.6433    4.1085 H   0  0  0  0  0  0  0  0  0  0  0  0
    5.6508   -0.5942    4.7884 H   0  0  0  0  0  0  0  0  0  0  0  0
    2.7816   -0.9986    3.8201 H   0  0  0  0  0  0  0  0  0  0  0  0
    3.3118   -0.5218    5.3907 H   0  0  0  0  0  0  0  0  0  0  0  0
    4.5325   -2.6156    5.7139 H   0  0  0  0  0  0  0  0  0  0  0  0
    4.0566   -3.1560    4.0916 H   0  0  0  0  0  0  0  0  0  0  0  0
    1.6261   -2.8386    4.7486 H   0  0  0  0  0  0  0  0  0  0  0  0
    2.1355   -2.3551    6.3632 H   0  0  0  0  0  0  0  0  0  0  0  0
    3.1866   -4.5775    6.7234 H   0  0  0  0  0  0  0  0  0  0  0  0
    2.7347   -5.0672    5.0861 H   0  0  0  0  0  0  0  0  0  0  0  0
    0.3090   -4.7424    5.6669 H   0  0  0  0  0  0  0  0  0  0  0  0
    0.7674   -4.2813    7.3072 H   0  0  0  0  0  0  0  0  0  0  0  0
    1.3759   -6.9862    6.0008 H   0  0  0  0  0  0  0  0  0  0  0  0
    0.1037   -6.6723    7.1953 H   0  0  0  0  0  0  0  0  0  0  0  0
    1.8090   -6.5229    7.6578 H   0  0  0  0  0  0  0  0  0  0  0  0
    3.6117   -1.2692   -0.8312 H   0  0  0  0  0  0  0  0  0  0  0  0
    5.0569   -1.3433   -1.7933 H   0  0  0  0  0  0  0  0  0  0  0  0
    3.5452    1.2590   -1.2648 H   0  0  0  0  0  0  0  0  0  0  0  0
    3.4867    0.2747   -2.7310 H   0  0  0  0  0  0  0  0  0  0  0  0
    4.9944    1.0732   -2.2701 H   0  0  0  0  0  0  0  0  0  0  0  0
    7.1721   -0.6863   -0.9710 H   0  0  0  0  0  0  0  0  0  0  0  0
    8.8370    0.2752    3.0481 H   0  0  0  0  0  0  0  0  0  0  0  0
    8.3739    0.6652    5.3014 H   0  0  0  0  0  0  0  0  0  0  0  0
    5.0432    3.1657    4.8114 H   0  0  0  0  0  0  0  0  0  0  0  0
    5.8152    3.5348    2.3752 H   0  0  0  0  0  0  0  0  0  0  0  0
  1  2  1  0  0  0  0
  1 27  1  0  0  0  0
  1 28  1  0  0  0  0
  1 29  1  0  0  0  0
  2  3  1  0  0  0  0
  2 26  2  3  0  0  0
  3  4  2  3  0  0  0
  3 30  1  0  0  0  0
  4  5  1  0  0  0  0
  4 13  1  0  0  0  0
  5  6  1  0  0  0  0
  5 19  1  0  0  0  0
  6  7  1  0  0  0  0
  6 31  1  0  0  0  0
  6 32  1  0  0  0  0
  7  8  1  0  0  0  0
  7 33  1  0  0  0  0
  7 34  1  0  0  0  0
  8  9  1  0  0  0  0
  8 35  1  0  0  0  0
  8 36  1  0  0  0  0
  9 10  1  0  0  0  0
  9 37  1  0  0  0  0
  9 38  1  0  0  0  0
 10 11  1  0  0  0  0
 10 39  1  0  0  0  0
 10 40  1  0  0  0  0
 11 12  1  0  0  0  0
 11 41  1  0  0  0  0
 11 42  1  0  0  0  0
 12 43  1  0  0  0  0
 12 44  1  0  0  0  0
 12 45  1  0  0  0  0
 13 14  1  0  0  0  0
 13 16  2  0  0  0  0
 14 15  1  0  0  0  0
 14 46  1  0  0  0  0
 14 47  1  0  0  0  0
 15 48  1  0  0  0  0
 15 49  1  0  0  0  0
 15 50  1  0  0  0  0
 16 17  1  0  0  0  0
 16 51  1  0  0  0  0
 17 18  2  0  0  0  0
 17 19  1  0  0  0  0
 19 20  2  3  0  0  0
 20 21  1  0  0  0  0
 20 52  1  0  0  0  0
 21 22  2  3  0  0  0
 21 53  1  0  0  0  0
 22 23  1  0  0  0  0
 22 24  1  0  0  0  0
 24 25  2  3  0  0  0
 24 54  1  0  0  0  0
 25 26  1  0  0  0  0
 25 55  1  0  0  0  0
M  END
$$$$
