
 OpenBabel04232216493D

 64 65  0  0  1  0  0  0  0  0999 V2000
    1.0455    0.0020   -0.8961 C   0  0  0  0  0  0  0  0  0  0  0  0
    2.5301   -0.2070   -0.6377 C   0  0  3  0  0  0  0  0  0  0  0  0
    3.0907   -1.5128   -1.2360 C   0  0  0  0  0  0  0  0  0  0  0  0
    3.7559   -2.3781   -0.1346 C   0  0  0  0  0  0  0  0  0  0  0  0
    5.2194   -2.7253   -0.4056 C   0  0  0  0  0  0  0  0  0  0  0  0
    6.1792   -2.2592    0.7068 C   0  0  0  0  0  0  0  0  0  0  0  0
    7.2585   -1.2951    0.1904 C   0  0  0  0  0  0  0  0  0  0  0  0
    7.4041   -0.0220    1.0419 C   0  0  0  0  0  0  0  0  0  0  0  0
    7.3281    1.2642    0.2063 C   0  0  0  0  0  0  0  0  0  0  0  0
    6.3792    2.3432    0.7646 C   0  0  0  0  0  0  0  0  0  0  0  0
    5.1053    2.5523   -0.0667 C   0  0  0  0  0  0  0  0  0  0  0  0
    3.7511    1.9152    0.3391 C   0  0  3  0  0  0  0  0  0  0  0  0
    3.6739    1.2722    1.7946 C   0  0  0  0  0  0  0  0  0  0  0  0
    3.9763    0.0562    1.9920 O   0  0  0  0  0  0  0  0  0  0  0  0
    3.2250    2.0375    3.0139 C   0  0  0  0  0  0  0  0  0  0  0  0
    3.2397    3.4823    3.0622 C   0  0  0  0  0  0  0  0  0  0  0  0
    3.3116    4.1192    4.2515 C   0  0  0  0  0  0  0  0  0  0  0  0
    3.2032    3.3797    5.5647 C   0  0  0  0  0  0  0  0  0  0  0  0
    2.4757    2.0337    5.4266 C   0  0  3  0  0  0  0  0  0  0  0  0
    0.9343    2.1580    5.3659 C   0  0  0  0  0  0  0  0  0  0  0  0
    0.2651    0.7836    5.2372 C   0  0  0  0  0  0  0  0  0  0  0  0
   -1.2557    0.8793    5.1771 C   0  0  0  0  0  0  0  0  0  0  0  0
   -1.8482   -0.5136    5.0314 C   0  0  0  0  0  0  0  0  0  0  0  0
    2.9896    1.3604    4.1730 C   0  0  0  0  0  0  0  0  0  0  0  0
    3.3364    1.0363   -0.8510 C   0  0  0  0  0  3  0  0  0  0  0  0
    0.4899   -0.8199   -0.4292 H   0  0  0  0  0  0  0  0  0  0  0  0
    0.7873    0.0359   -1.9564 H   0  0  0  0  0  0  0  0  0  0  0  0
    0.7038    0.9292   -0.4226 H   0  0  0  0  0  0  0  0  0  0  0  0
    2.5544   -0.3658    0.4232 H   0  0  0  0  0  0  0  0  0  0  0  0
    3.7681   -1.3254   -2.0804 H   0  0  0  0  0  0  0  0  0  0  0  0
    2.2589   -2.1074   -1.6458 H   0  0  0  0  0  0  0  0  0  0  0  0
    3.1826   -3.3091   -0.0402 H   0  0  0  0  0  0  0  0  0  0  0  0
    3.6592   -1.9289    0.8566 H   0  0  0  0  0  0  0  0  0  0  0  0
    5.5297   -2.3483   -1.3834 H   0  0  0  0  0  0  0  0  0  0  0  0
    5.2869   -3.8180   -0.4713 H   0  0  0  0  0  0  0  0  0  0  0  0
    6.6846   -3.1471    1.1094 H   0  0  0  0  0  0  0  0  0  0  0  0
    5.6402   -1.8340    1.5587 H   0  0  0  0  0  0  0  0  0  0  0  0
    7.0831   -1.0424   -0.8596 H   0  0  0  0  0  0  0  0  0  0  0  0
    8.2182   -1.8294    0.2031 H   0  0  0  0  0  0  0  0  0  0  0  0
    8.3953   -0.0532    1.5150 H   0  0  0  0  0  0  0  0  0  0  0  0
    6.6888    0.0015    1.8683 H   0  0  0  0  0  0  0  0  0  0  0  0
    7.0985    1.0551   -0.8440 H   0  0  0  0  0  0  0  0  0  0  0  0
    8.3400    1.6936    0.1908 H   0  0  0  0  0  0  0  0  0  0  0  0
    6.9332    3.2887    0.6738 H   0  0  0  0  0  0  0  0  0  0  0  0
    6.1814    2.2323    1.8332 H   0  0  0  0  0  0  0  0  0  0  0  0
    5.3464    2.2960   -1.1075 H   0  0  0  0  0  0  0  0  0  0  0  0
    4.9284    3.6363   -0.1184 H   0  0  0  0  0  0  0  0  0  0  0  0
    3.0026    2.7211    0.3475 H   0  0  0  0  0  0  0  0  0  0  0  0
    3.3902    4.0360    2.1437 H   0  0  0  0  0  0  0  0  0  0  0  0
    3.5573    5.1708    4.2883 H   0  0  0  0  0  0  0  0  0  0  0  0
    2.7068    4.0137    6.3116 H   0  0  0  0  0  0  0  0  0  0  0  0
    4.2185    3.1899    5.9474 H   0  0  0  0  0  0  0  0  0  0  0  0
    2.7356    1.4092    6.2899 H   0  0  0  0  0  0  0  0  0  0  0  0
    0.6277    2.7695    4.5080 H   0  0  0  0  0  0  0  0  0  0  0  0
    0.5587    2.6650    6.2656 H   0  0  0  0  0  0  0  0  0  0  0  0
    0.5558    0.1473    6.0812 H   0  0  0  0  0  0  0  0  0  0  0  0
    0.6153    0.2887    4.3244 H   0  0  0  0  0  0  0  0  0  0  0  0
   -1.5674    1.5034    4.3316 H   0  0  0  0  0  0  0  0  0  0  0  0
   -1.6392    1.3470    6.0908 H   0  0  0  0  0  0  0  0  0  0  0  0
   -1.5135   -0.9808    4.0989 H   0  0  0  0  0  0  0  0  0  0  0  0
   -2.9403   -0.4714    5.0237 H   0  0  0  0  0  0  0  0  0  0  0  0
   -1.5343   -1.1538    5.8625 H   0  0  0  0  0  0  0  0  0  0  0  0
    3.2178    0.3055    4.2809 H   0  0  0  0  0  0  0  0  0  0  0  0
    3.4120    1.4462   -1.8553 H   0  0  0  0  0  0  0  0  0  0  0  0
  1  2  1  0  0  0  0
  1 26  1  0  0  0  0
  1 27  1  0  0  0  0
  1 28  1  0  0  0  0
  2  3  1  0  0  0  0
  2 25  1  0  0  0  0
  2 29  1  0  0  0  0
  3  4  1  0  0  0  0
  3 30  1  0  0  0  0
  3 31  1  0  0  0  0
  4  5  1  0  0  0  0
  4 32  1  0  0  0  0
  4 33  1  0  0  0  0
  5  6  1  0  0  0  0
  5 34  1  0  0  0  0
  5 35  1  0  0  0  0
  6  7  1  0  0  0  0
  6 36  1  0  0  0  0
  6 37  1  0  0  0  0
  7  8  1  0  0  0  0
  7 38  1  0  0  0  0
  7 39  1  0  0  0  0
  8  9  1  0  0  0  0
  8 40  1  0  0  0  0
  8 41  1  0  0  0  0
  9 10  1  0  0  0  0
  9 42  1  0  0  0  0
  9 43  1  0  0  0  0
 10 11  1  0  0  0  0
 10 44  1  0  0  0  0
 10 45  1  0  0  0  0
 11 12  1  0  0  0  0
 11 46  1  0  0  0  0
 11 47  1  0  0  0  0
 12 13  1  0  0  0  0
 12 25  1  0  0  0  0
 12 48  1  0  0  0  0
 13 14  2  0  0  0  0
 13 15  1  0  0  0  0
 15 16  1  0  0  0  0
 15 24  2  0  0  0  0
 16 17  2  0  0  0  0
 16 49  1  0  0  0  0
 17 18  1  0  0  0  0
 17 50  1  0  0  0  0
 18 19  1  0  0  0  0
 18 51  1  0  0  0  0
 18 52  1  0  0  0  0
 19 20  1  0  0  0  0
 19 24  1  0  0  0  0
 19 53  1  0  0  0  0
 20 21  1  0  0  0  0
 20 54  1  0  0  0  0
 20 55  1  0  0  0  0
 21 22  1  0  0  0  0
 21 56  1  0  0  0  0
 21 57  1  0  0  0  0
 22 23  1  0  0  0  0
 22 58  1  0  0  0  0
 22 59  1  0  0  0  0
 23 60  1  0  0  0  0
 23 61  1  0  0  0  0
 23 62  1  0  0  0  0
 24 63  1  0  0  0  0
 25 64  1  0  0  0  0
M  END
$$$$
