
 OpenBabel04232217013D

234234  0  0  1  0  0  0  0  0999 V2000
    1.0009   -0.0161    0.2069 O   0  0  0  0  0  0  0  0  0  0  0  0
    2.4517    0.0181    0.0966 N   0  0  0  0  0  0  0  0  0  0  0  0
    2.9032    1.0918    0.9798 C   0  0  0  0  0  0  0  0  0  0  0  0
    4.3213    0.6702    1.2964 C   0  0  0  0  0  0  0  0  0  0  0  0
    4.2199   -0.8356    1.4629 C   0  0  0  0  0  0  0  0  0  0  0  0
    2.9608   -1.2387    0.6881 C   0  0  3  0  0  0  0  0  0  0  0  0
    3.3026   -2.2677   -0.3895 C   0  0  0  0  0  0  0  0  0  0  0  0
    2.0727   -2.6900   -1.1760 C   0  0  0  0  0  0  0  0  0  0  0  0
    2.4397   -3.7098   -2.2371 C   0  0  0  0  0  0  0  0  0  0  0  0
    1.1933   -4.1119   -3.0046 C   0  0  0  0  0  0  0  0  0  0  0  0
    1.5504   -5.1306   -4.0687 C   0  0  0  0  0  0  0  0  0  0  0  0
    0.3050   -5.5325   -4.8350 C   0  0  0  0  0  0  0  0  0  0  0  0
    0.6635   -6.5534   -5.8979 C   0  0  0  0  0  0  0  0  0  0  0  0
   -0.5815   -6.9560   -6.6651 C   0  0  0  0  0  0  0  0  0  0  0  0
   -0.2226   -7.9767   -7.7275 C   0  0  0  0  0  0  0  0  0  0  0  0
   -1.4669   -8.3795   -8.4948 C   0  0  0  0  0  0  0  0  0  0  0  0
   -1.1095   -9.4001   -9.5575 C   0  0  0  0  0  0  0  0  0  0  0  0
   -2.3524   -9.8033  -10.3249 C   0  0  0  0  0  0  0  0  0  0  0  0
   -1.9964  -10.8248  -11.3858 C   0  0  0  0  0  0  0  0  0  0  0  0
   -3.2389  -11.2285  -12.1536 C   0  0  0  0  0  0  0  0  0  0  0  0
   -2.8833  -12.2500  -13.2146 C   0  0  0  0  0  0  0  0  0  0  0  0
   -4.1255  -12.6537  -13.9823 C   0  0  0  0  0  0  0  0  0  0  0  0
   -3.7699  -13.6751  -15.0433 C   0  0  0  0  0  0  0  0  0  0  0  0
   -5.0122  -14.0787  -15.8110 C   0  0  0  0  0  0  0  0  0  0  0  0
   -4.6565  -15.1002  -16.8720 C   0  0  0  0  0  0  0  0  0  0  0  0
   -5.8988  -15.5038  -17.6397 C   0  0  0  0  0  0  0  0  0  0  0  0
   -5.5432  -16.5253  -18.7006 C   0  0  0  0  0  0  0  0  0  0  0  0
   -6.7855  -16.9289  -19.4683 C   0  0  0  0  0  0  0  0  0  0  0  0
   -6.4301  -17.9518  -20.5280 C   0  0  0  0  0  0  0  0  0  0  0  0
   -7.6724  -18.3555  -21.2957 C   0  0  0  0  0  0  0  0  0  0  0  0
   -7.3174  -19.3799  -22.3540 C   0  0  0  0  0  0  0  0  0  0  0  0
   -8.5597  -19.7835  -23.1217 C   0  0  0  0  0  0  0  0  0  0  0  0
   -8.2044  -20.8065  -24.1813 C   0  0  0  0  0  0  0  0  0  0  0  0
   -9.4467  -21.2101  -24.9491 C   0  0  0  0  0  0  0  0  0  0  0  0
   -9.0917  -22.2345  -26.0074 C   0  0  0  0  0  0  0  0  0  0  0  0
  -10.3337  -22.6367  -26.7764 C   0  0  0  0  0  0  0  0  0  0  0  0
   -9.9790  -23.6626  -27.8334 C   0  0  0  0  0  0  0  0  0  0  0  0
  -11.2210  -24.0647  -28.6024 C   0  0  0  0  0  0  0  0  0  0  0  0
  -10.8663  -25.0906  -29.6595 C   0  0  0  0  0  0  0  0  0  0  0  0
  -12.1083  -25.4928  -30.4285 C   0  0  0  0  0  0  0  0  0  0  0  0
  -11.7537  -26.5187  -31.4855 C   0  0  0  0  0  0  0  0  0  0  0  0
  -12.9956  -26.9209  -32.2545 C   0  0  0  0  0  0  0  0  0  0  0  0
  -12.6410  -27.9467  -33.3115 C   0  0  0  0  0  0  0  0  0  0  0  0
  -13.8832  -28.3503  -34.0792 C   0  0  0  0  0  0  0  0  0  0  0  0
  -13.5283  -29.3748  -35.1376 C   0  0  0  0  0  0  0  0  0  0  0  0
  -14.7709  -29.7799  -35.9039 C   0  0  0  0  0  0  0  0  0  0  0  0
  -14.4163  -30.8058  -36.9610 C   0  0  0  0  0  0  0  0  0  0  0  0
  -15.6592  -31.2124  -37.7260 C   0  0  0  0  0  0  0  0  0  0  0  0
  -15.3046  -32.2383  -38.7830 C   0  0  0  0  0  0  0  0  0  0  0  0
  -16.5475  -32.6449  -39.5480 C   0  0  0  0  0  0  0  0  0  0  0  0
  -16.1929  -33.6708  -40.6051 C   0  0  0  0  0  0  0  0  0  0  0  0
  -17.4362  -34.0789  -41.3688 C   0  0  0  0  0  0  0  0  0  0  0  0
  -17.0815  -35.1048  -42.4258 C   0  0  0  0  0  0  0  0  0  0  0  0
  -18.3251  -35.5143  -43.1882 C   0  0  0  0  0  0  0  0  0  0  0  0
  -17.9705  -36.5402  -44.2452 C   0  0  0  0  0  0  0  0  0  0  0  0
  -19.2138  -36.9483  -45.0089 C   0  0  0  0  0  0  0  0  0  0  0  0
  -18.8591  -37.9742  -46.0659 C   0  0  0  0  0  0  0  0  0  0  0  0
  -20.1027  -38.3837  -46.8284 C   0  0  0  0  0  0  0  0  0  0  0  0
  -19.7484  -39.4111  -47.8840 C   0  0  0  0  0  0  0  0  0  0  0  0
  -20.9917  -39.8193  -48.6477 C   0  0  0  0  0  0  0  0  0  0  0  0
  -20.6377  -40.8481  -49.7021 C   0  0  0  0  0  0  0  0  0  0  0  0
  -21.8813  -41.2576  -50.4645 C   0  0  0  0  0  0  0  0  0  0  0  0
  -21.5270  -42.2850  -51.5202 C   0  0  0  0  0  0  0  0  0  0  0  0
  -22.7703  -42.6931  -52.2839 C   0  0  0  0  0  0  0  0  0  0  0  0
  -22.4157  -43.7190  -53.3409 C   0  0  0  0  0  0  0  0  0  0  0  0
  -23.6593  -44.1285  -54.1033 C   0  0  0  0  0  0  0  0  0  0  0  0
  -23.3046  -45.1545  -55.1604 C   0  0  0  0  0  0  0  0  0  0  0  0
  -24.5488  -45.5656  -55.9216 C   0  0  0  0  0  0  0  0  0  0  0  0
  -24.1936  -46.5901  -56.9799 C   0  0  0  0  0  0  0  0  0  0  0  0
  -25.4380  -47.0020  -57.7390 C   0  0  0  0  0  0  0  0  0  0  0  0
  -25.0829  -48.0283  -58.7964 C   0  0  0  0  0  0  0  0  0  0  0  0
  -26.3272  -48.4393  -59.5574 C   0  0  0  0  0  0  0  0  0  0  0  0
  -25.9722  -49.4664  -60.6158 C   0  0  0  0  0  0  0  0  0  0  0  0
  -27.2170  -49.8800  -61.3769 C   0  0  0  0  0  0  0  0  0  0  0  0
  -26.8647  -50.9041  -62.4353 C   0  0  0  0  0  0  0  0  0  0  0  0
  -28.1126  -51.3179  -63.1975 C   0  0  0  0  0  0  0  0  0  0  0  0
  -27.7553  -52.3455  -64.2588 C   0  0  0  0  0  0  0  0  0  0  0  0
  -28.9995  -52.7651  -65.0295 C   0  0  0  0  0  0  0  0  0  0  0  0
  -28.6405  -53.7897  -66.0871 C   0  0  0  0  0  0  0  0  0  0  0  0
    0.7340    0.7041   -0.3970 H   0  0  0  0  0  0  0  0  0  0  0  0
    2.3015    1.1491    1.8946 H   0  0  0  0  0  0  0  0  0  0  0  0
    2.8686    2.0585    0.4688 H   0  0  0  0  0  0  0  0  0  0  0  0
    4.7050    1.1552    2.1984 H   0  0  0  0  0  0  0  0  0  0  0  0
    4.9944    0.9080    0.4637 H   0  0  0  0  0  0  0  0  0  0  0  0
    4.0909   -1.0853    2.5219 H   0  0  0  0  0  0  0  0  0  0  0  0
    5.1292   -1.3342    1.1102 H   0  0  0  0  0  0  0  0  0  0  0  0
    2.2377   -1.6764    1.3901 H   0  0  0  0  0  0  0  0  0  0  0  0
    3.7554   -3.1520    0.0803 H   0  0  0  0  0  0  0  0  0  0  0  0
    4.0583   -1.8617   -1.0758 H   0  0  0  0  0  0  0  0  0  0  0  0
    1.6188   -1.8216   -1.6661 H   0  0  0  0  0  0  0  0  0  0  0  0
    1.3243   -3.1113   -0.4941 H   0  0  0  0  0  0  0  0  0  0  0  0
    2.8965   -4.5919   -1.7729 H   0  0  0  0  0  0  0  0  0  0  0  0
    3.1788   -3.2825   -2.9262 H   0  0  0  0  0  0  0  0  0  0  0  0
    0.7385   -3.2288   -3.4711 H   0  0  0  0  0  0  0  0  0  0  0  0
    0.4496   -4.5333   -2.3169 H   0  0  0  0  0  0  0  0  0  0  0  0
    2.0041   -6.0137   -3.6024 H   0  0  0  0  0  0  0  0  0  0  0  0
    2.2928   -4.7078   -4.7567 H   0  0  0  0  0  0  0  0  0  0  0  0
   -0.1481   -4.6496   -5.3025 H   0  0  0  0  0  0  0  0  0  0  0  0
   -0.4381   -5.9540   -4.1472 H   0  0  0  0  0  0  0  0  0  0  0  0
    1.1168   -7.4362   -5.4304 H   0  0  0  0  0  0  0  0  0  0  0  0
    1.4070   -6.1319   -6.5857 H   0  0  0  0  0  0  0  0  0  0  0  0
   -1.0343   -6.0728   -7.1322 H   0  0  0  0  0  0  0  0  0  0  0  0
   -1.3244   -7.3773   -5.9769 H   0  0  0  0  0  0  0  0  0  0  0  0
    0.2307   -8.8595   -7.2602 H   0  0  0  0  0  0  0  0  0  0  0  0
    0.5208   -7.5552   -8.4153 H   0  0  0  0  0  0  0  0  0  0  0  0
   -1.9204   -7.4965   -8.9621 H   0  0  0  0  0  0  0  0  0  0  0  0
   -2.2105   -8.8009   -7.8069 H   0  0  0  0  0  0  0  0  0  0  0  0
   -0.6556  -10.2831   -9.0901 H   0  0  0  0  0  0  0  0  0  0  0  0
   -0.3655   -8.9788  -10.2454 H   0  0  0  0  0  0  0  0  0  0  0  0
   -2.8058   -8.9204  -10.7932 H   0  0  0  0  0  0  0  0  0  0  0  0
   -3.0973  -10.2232   -9.6367 H   0  0  0  0  0  0  0  0  0  0  0  0
   -1.5430  -11.7081  -10.9177 H   0  0  0  0  0  0  0  0  0  0  0  0
   -1.2516  -10.4053  -12.0743 H   0  0  0  0  0  0  0  0  0  0  0  0
   -3.6925  -10.3455  -12.6219 H   0  0  0  0  0  0  0  0  0  0  0  0
   -3.9839  -11.6482  -11.4654 H   0  0  0  0  0  0  0  0  0  0  0  0
   -2.4296  -13.1331  -12.7463 H   0  0  0  0  0  0  0  0  0  0  0  0
   -2.1382  -11.8303  -13.9029 H   0  0  0  0  0  0  0  0  0  0  0  0
   -4.5791  -11.7705  -14.4506 H   0  0  0  0  0  0  0  0  0  0  0  0
   -4.8706  -13.0733  -13.2940 H   0  0  0  0  0  0  0  0  0  0  0  0
   -3.3163  -14.5582  -14.5750 H   0  0  0  0  0  0  0  0  0  0  0  0
   -3.0249  -13.2554  -15.7316 H   0  0  0  0  0  0  0  0  0  0  0  0
   -5.4658  -13.1956  -16.2793 H   0  0  0  0  0  0  0  0  0  0  0  0
   -5.7572  -14.4984  -15.1227 H   0  0  0  0  0  0  0  0  0  0  0  0
   -4.2029  -15.9833  -16.4037 H   0  0  0  0  0  0  0  0  0  0  0  0
   -3.9115  -14.6805  -17.5602 H   0  0  0  0  0  0  0  0  0  0  0  0
   -6.3524  -14.6207  -18.1079 H   0  0  0  0  0  0  0  0  0  0  0  0
   -6.6438  -15.9235  -16.9514 H   0  0  0  0  0  0  0  0  0  0  0  0
   -5.0896  -17.4084  -18.2323 H   0  0  0  0  0  0  0  0  0  0  0  0
   -4.7981  -16.1056  -19.3889 H   0  0  0  0  0  0  0  0  0  0  0  0
   -7.2383  -16.0460  -19.9378 H   0  0  0  0  0  0  0  0  0  0  0  0
   -7.5310  -17.3473  -18.7798 H   0  0  0  0  0  0  0  0  0  0  0  0
   -5.9774  -18.8347  -20.0585 H   0  0  0  0  0  0  0  0  0  0  0  0
   -5.6845  -17.5335  -21.2165 H   0  0  0  0  0  0  0  0  0  0  0  0
   -8.1244  -17.4728  -21.7663 H   0  0  0  0  0  0  0  0  0  0  0  0
   -8.4186  -18.7725  -20.6070 H   0  0  0  0  0  0  0  0  0  0  0  0
   -6.8655  -20.2626  -21.8834 H   0  0  0  0  0  0  0  0  0  0  0  0
   -6.5713  -18.9629  -23.0427 H   0  0  0  0  0  0  0  0  0  0  0  0
   -9.0125  -18.9007  -23.5912 H   0  0  0  0  0  0  0  0  0  0  0  0
   -9.3053  -20.2018  -22.4332 H   0  0  0  0  0  0  0  0  0  0  0  0
   -7.7516  -21.6894  -23.7119 H   0  0  0  0  0  0  0  0  0  0  0  0
   -7.4588  -20.3882  -24.8699 H   0  0  0  0  0  0  0  0  0  0  0  0
   -9.8987  -20.3274  -25.4197 H   0  0  0  0  0  0  0  0  0  0  0  0
  -10.1929  -21.6271  -24.2604 H   0  0  0  0  0  0  0  0  0  0  0  0
   -8.6411  -23.1178  -25.5366 H   0  0  0  0  0  0  0  0  0  0  0  0
   -8.3445  -21.8181  -26.6953 H   0  0  0  0  0  0  0  0  0  0  0  0
  -10.7835  -21.7536  -27.2484 H   0  0  0  0  0  0  0  0  0  0  0  0
  -11.0815  -23.0519  -26.0884 H   0  0  0  0  0  0  0  0  0  0  0  0
   -9.5292  -24.5456  -27.3614 H   0  0  0  0  0  0  0  0  0  0  0  0
   -9.2313  -23.2474  -28.5215 H   0  0  0  0  0  0  0  0  0  0  0  0
  -11.6708  -23.1817  -29.0744 H   0  0  0  0  0  0  0  0  0  0  0  0
  -11.9688  -24.4799  -27.9144 H   0  0  0  0  0  0  0  0  0  0  0  0
  -10.4165  -25.9737  -29.1875 H   0  0  0  0  0  0  0  0  0  0  0  0
  -10.1186  -24.6755  -30.3475 H   0  0  0  0  0  0  0  0  0  0  0  0
  -12.5582  -24.6097  -30.9005 H   0  0  0  0  0  0  0  0  0  0  0  0
  -12.8561  -25.9080  -29.7404 H   0  0  0  0  0  0  0  0  0  0  0  0
  -11.3038  -27.4017  -31.0135 H   0  0  0  0  0  0  0  0  0  0  0  0
  -11.0059  -26.1035  -32.1735 H   0  0  0  0  0  0  0  0  0  0  0  0
  -13.4455  -26.0378  -32.7265 H   0  0  0  0  0  0  0  0  0  0  0  0
  -13.7434  -27.3360  -31.5664 H   0  0  0  0  0  0  0  0  0  0  0  0
  -12.1898  -28.8292  -32.8397 H   0  0  0  0  0  0  0  0  0  0  0  0
  -11.8942  -27.5310  -34.0004 H   0  0  0  0  0  0  0  0  0  0  0  0
  -14.3353  -27.4677  -34.5499 H   0  0  0  0  0  0  0  0  0  0  0  0
  -14.6294  -28.7674  -33.3905 H   0  0  0  0  0  0  0  0  0  0  0  0
  -13.0750  -30.2569  -34.6670 H   0  0  0  0  0  0  0  0  0  0  0  0
  -12.7832  -28.9573  -35.8271 H   0  0  0  0  0  0  0  0  0  0  0  0
  -15.2234  -28.8981  -36.3756 H   0  0  0  0  0  0  0  0  0  0  0  0
  -15.5165  -30.1961  -35.2142 H   0  0  0  0  0  0  0  0  0  0  0  0
  -13.9625  -31.6871  -36.4894 H   0  0  0  0  0  0  0  0  0  0  0  0
  -13.6717  -30.3891  -37.6515 H   0  0  0  0  0  0  0  0  0  0  0  0
  -16.1130  -30.3312  -38.1976 H   0  0  0  0  0  0  0  0  0  0  0  0
  -16.4038  -31.6291  -37.0354 H   0  0  0  0  0  0  0  0  0  0  0  0
  -14.8508  -33.1196  -38.3114 H   0  0  0  0  0  0  0  0  0  0  0  0
  -14.5600  -31.8216  -39.4736 H   0  0  0  0  0  0  0  0  0  0  0  0
  -17.0014  -31.7637  -40.0196 H   0  0  0  0  0  0  0  0  0  0  0  0
  -17.2921  -33.0616  -38.8574 H   0  0  0  0  0  0  0  0  0  0  0  0
  -15.7378  -34.5515  -40.1336 H   0  0  0  0  0  0  0  0  0  0  0  0
  -15.4494  -33.2536  -41.2965 H   0  0  0  0  0  0  0  0  0  0  0  0
  -17.8913  -33.1983  -41.8402 H   0  0  0  0  0  0  0  0  0  0  0  0
  -18.1796  -34.4961  -40.6773 H   0  0  0  0  0  0  0  0  0  0  0  0
  -16.6251  -35.9849  -41.9545 H   0  0  0  0  0  0  0  0  0  0  0  0
  -16.3391  -34.6871  -43.1181 H   0  0  0  0  0  0  0  0  0  0  0  0
  -18.7816  -34.6343  -43.6595 H   0  0  0  0  0  0  0  0  0  0  0  0
  -19.0676  -35.9321  -42.4959 H   0  0  0  0  0  0  0  0  0  0  0  0
  -17.5153  -37.4209  -43.7737 H   0  0  0  0  0  0  0  0  0  0  0  0
  -17.2270  -36.1231  -44.9367 H   0  0  0  0  0  0  0  0  0  0  0  0
  -19.6689  -36.0677  -45.4804 H   0  0  0  0  0  0  0  0  0  0  0  0
  -19.9573  -37.3655  -44.3174 H   0  0  0  0  0  0  0  0  0  0  0  0
  -18.4027  -38.8543  -45.5946 H   0  0  0  0  0  0  0  0  0  0  0  0
  -18.1167  -37.5565  -46.7582 H   0  0  0  0  0  0  0  0  0  0  0  0
  -20.5584  -37.5039  -47.3008 H   0  0  0  0  0  0  0  0  0  0  0  0
  -20.8457  -38.8002  -46.1359 H   0  0  0  0  0  0  0  0  0  0  0  0
  -19.2941  -40.2915  -47.4113 H   0  0  0  0  0  0  0  0  0  0  0  0
  -19.0044  -38.9953  -48.5757 H   0  0  0  0  0  0  0  0  0  0  0  0
  -21.4453  -38.9391  -49.1215 H   0  0  0  0  0  0  0  0  0  0  0  0
  -21.7363  -40.2338  -47.9559 H   0  0  0  0  0  0  0  0  0  0  0  0
  -20.1829  -41.7277  -49.2285 H   0  0  0  0  0  0  0  0  0  0  0  0
  -19.8942  -40.4330  -50.3947 H   0  0  0  0  0  0  0  0  0  0  0  0
  -22.3370  -40.3778  -50.9370 H   0  0  0  0  0  0  0  0  0  0  0  0
  -22.6243  -41.6740  -49.7720 H   0  0  0  0  0  0  0  0  0  0  0  0
  -21.0727  -43.1654  -51.0475 H   0  0  0  0  0  0  0  0  0  0  0  0
  -20.7830  -41.8691  -52.2118 H   0  0  0  0  0  0  0  0  0  0  0  0
  -23.2255  -41.8125  -52.7554 H   0  0  0  0  0  0  0  0  0  0  0  0
  -23.5138  -43.1103  -51.5924 H   0  0  0  0  0  0  0  0  0  0  0  0
  -21.9592  -44.5990  -52.8696 H   0  0  0  0  0  0  0  0  0  0  0  0
  -21.6732  -43.3013  -54.0332 H   0  0  0  0  0  0  0  0  0  0  0  0
  -24.1158  -43.2485  -54.5746 H   0  0  0  0  0  0  0  0  0  0  0  0
  -24.4017  -44.5463  -53.4110 H   0  0  0  0  0  0  0  0  0  0  0  0
  -22.8469  -46.0339  -54.6892 H   0  0  0  0  0  0  0  0  0  0  0  0
  -22.5633  -44.7362  -55.8534 H   0  0  0  0  0  0  0  0  0  0  0  0
  -25.0072  -44.6858  -56.3914 H   0  0  0  0  0  0  0  0  0  0  0  0
  -25.2893  -45.9850  -55.2284 H   0  0  0  0  0  0  0  0  0  0  0  0
  -23.7338  -47.4689  -56.5099 H   0  0  0  0  0  0  0  0  0  0  0  0
  -23.4539  -46.1699  -57.6735 H   0  0  0  0  0  0  0  0  0  0  0  0
  -25.8969  -46.1236  -58.2104 H   0  0  0  0  0  0  0  0  0  0  0  0
  -26.1781  -47.4212  -57.0456 H   0  0  0  0  0  0  0  0  0  0  0  0
  -24.6255  -48.9078  -58.3254 H   0  0  0  0  0  0  0  0  0  0  0  0
  -24.3419  -47.6102  -59.4897 H   0  0  0  0  0  0  0  0  0  0  0  0
  -26.7850  -47.5601  -60.0289 H   0  0  0  0  0  0  0  0  0  0  0  0
  -27.0685  -48.8577  -58.8645 H   0  0  0  0  0  0  0  0  0  0  0  0
  -25.5130  -50.3445  -60.1436 H   0  0  0  0  0  0  0  0  0  0  0  0
  -25.2318  -49.0465  -61.3088 H   0  0  0  0  0  0  0  0  0  0  0  0
  -27.6764  -48.9994  -61.8445 H   0  0  0  0  0  0  0  0  0  0  0  0
  -27.9561  -50.2983  -60.6811 H   0  0  0  0  0  0  0  0  0  0  0  0
  -26.4037  -51.7821  -61.9650 H   0  0  0  0  0  0  0  0  0  0  0  0
  -26.1241  -50.4837  -63.1279 H   0  0  0  0  0  0  0  0  0  0  0  0
  -28.5727  -50.4387  -63.6655 H   0  0  0  0  0  0  0  0  0  0  0  0
  -28.8522  -51.7361  -62.5034 H   0  0  0  0  0  0  0  0  0  0  0  0
  -27.2947  -53.2210  -63.7846 H   0  0  0  0  0  0  0  0  0  0  0  0
  -27.0128  -51.9226  -64.9468 H   0  0  0  0  0  0  0  0  0  0  0  0
  -29.4560  -51.8892  -65.5028 H   0  0  0  0  0  0  0  0  0  0  0  0
  -29.7381  -53.1880  -64.3402 H   0  0  0  0  0  0  0  0  0  0  0  0
  -27.9171  -53.3763  -66.7975 H   0  0  0  0  0  0  0  0  0  0  0  0
  -29.5340  -54.0914  -66.6410 H   0  0  0  0  0  0  0  0  0  0  0  0
  -28.2007  -54.6817  -65.6291 H   0  0  0  0  0  0  0  0  0  0  0  0
  1  2  1  0  0  0  0
  1 80  1  0  0  0  0
  2  3  1  0  0  0  0
  2  6  1  0  0  0  0
  3  4  1  0  0  0  0
  3 81  1  0  0  0  0
  3 82  1  0  0  0  0
  4  5  1  0  0  0  0
  4 83  1  0  0  0  0
  4 84  1  0  0  0  0
  5  6  1  0  0  0  0
  5 85  1  0  0  0  0
  5 86  1  0  0  0  0
  6  7  1  0  0  0  0
  6 87  1  0  0  0  0
  7  8  1  0  0  0  0
  7 88  1  0  0  0  0
  7 89  1  0  0  0  0
  8  9  1  0  0  0  0
  8 90  1  0  0  0  0
  8 91  1  0  0  0  0
  9 10  1  0  0  0  0
  9 92  1  0  0  0  0
  9 93  1  0  0  0  0
 10 11  1  0  0  0  0
 10 94  1  0  0  0  0
 10 95  1  0  0  0  0
 11 12  1  0  0  0  0
 11 96  1  0  0  0  0
 11 97  1  0  0  0  0
 12 13  1  0  0  0  0
 12 98  1  0  0  0  0
 12 99  1  0  0  0  0
 13 14  1  0  0  0  0
 13100  1  0  0  0  0
 13101  1  0  0  0  0
 14 15  1  0  0  0  0
 14102  1  0  0  0  0
 14103  1  0  0  0  0
 15 16  1  0  0  0  0
 15104  1  0  0  0  0
 15105  1  0  0  0  0
 16 17  1  0  0  0  0
 16106  1  0  0  0  0
 16107  1  0  0  0  0
 17 18  1  0  0  0  0
 17108  1  0  0  0  0
 17109  1  0  0  0  0
 18 19  1  0  0  0  0
 18110  1  0  0  0  0
 18111  1  0  0  0  0
 19 20  1  0  0  0  0
 19112  1  0  0  0  0
 19113  1  0  0  0  0
 20 21  1  0  0  0  0
 20114  1  0  0  0  0
 20115  1  0  0  0  0
 21 22  1  0  0  0  0
 21116  1  0  0  0  0
 21117  1  0  0  0  0
 22 23  1  0  0  0  0
 22118  1  0  0  0  0
 22119  1  0  0  0  0
 23 24  1  0  0  0  0
 23120  1  0  0  0  0
 23121  1  0  0  0  0
 24 25  1  0  0  0  0
 24122  1  0  0  0  0
 24123  1  0  0  0  0
 25 26  1  0  0  0  0
 25124  1  0  0  0  0
 25125  1  0  0  0  0
 26 27  1  0  0  0  0
 26126  1  0  0  0  0
 26127  1  0  0  0  0
 27 28  1  0  0  0  0
 27128  1  0  0  0  0
 27129  1  0  0  0  0
 28 29  1  0  0  0  0
 28130  1  0  0  0  0
 28131  1  0  0  0  0
 29 30  1  0  0  0  0
 29132  1  0  0  0  0
 29133  1  0  0  0  0
 30 31  1  0  0  0  0
 30134  1  0  0  0  0
 30135  1  0  0  0  0
 31 32  1  0  0  0  0
 31136  1  0  0  0  0
 31137  1  0  0  0  0
 32 33  1  0  0  0  0
 32138  1  0  0  0  0
 32139  1  0  0  0  0
 33 34  1  0  0  0  0
 33140  1  0  0  0  0
 33141  1  0  0  0  0
 34 35  1  0  0  0  0
 34142  1  0  0  0  0
 34143  1  0  0  0  0
 35 36  1  0  0  0  0
 35144  1  0  0  0  0
 35145  1  0  0  0  0
 36 37  1  0  0  0  0
 36146  1  0  0  0  0
 36147  1  0  0  0  0
 37 38  1  0  0  0  0
 37148  1  0  0  0  0
 37149  1  0  0  0  0
 38 39  1  0  0  0  0
 38150  1  0  0  0  0
 38151  1  0  0  0  0
 39 40  1  0  0  0  0
 39152  1  0  0  0  0
 39153  1  0  0  0  0
 40 41  1  0  0  0  0
 40154  1  0  0  0  0
 40155  1  0  0  0  0
 41 42  1  0  0  0  0
 41156  1  0  0  0  0
 41157  1  0  0  0  0
 42 43  1  0  0  0  0
 42158  1  0  0  0  0
 42159  1  0  0  0  0
 43 44  1  0  0  0  0
 43160  1  0  0  0  0
 43161  1  0  0  0  0
 44 45  1  0  0  0  0
 44162  1  0  0  0  0
 44163  1  0  0  0  0
 45 46  1  0  0  0  0
 45164  1  0  0  0  0
 45165  1  0  0  0  0
 46 47  1  0  0  0  0
 46166  1  0  0  0  0
 46167  1  0  0  0  0
 47 48  1  0  0  0  0
 47168  1  0  0  0  0
 47169  1  0  0  0  0
 48 49  1  0  0  0  0
 48170  1  0  0  0  0
 48171  1  0  0  0  0
 49 50  1  0  0  0  0
 49172  1  0  0  0  0
 49173  1  0  0  0  0
 50 51  1  0  0  0  0
 50174  1  0  0  0  0
 50175  1  0  0  0  0
 51 52  1  0  0  0  0
 51176  1  0  0  0  0
 51177  1  0  0  0  0
 52 53  1  0  0  0  0
 52178  1  0  0  0  0
 52179  1  0  0  0  0
 53 54  1  0  0  0  0
 53180  1  0  0  0  0
 53181  1  0  0  0  0
 54 55  1  0  0  0  0
 54182  1  0  0  0  0
 54183  1  0  0  0  0
 55 56  1  0  0  0  0
 55184  1  0  0  0  0
 55185  1  0  0  0  0
 56 57  1  0  0  0  0
 56186  1  0  0  0  0
 56187  1  0  0  0  0
 57 58  1  0  0  0  0
 57188  1  0  0  0  0
 57189  1  0  0  0  0
 58 59  1  0  0  0  0
 58190  1  0  0  0  0
 58191  1  0  0  0  0
 59 60  1  0  0  0  0
 59192  1  0  0  0  0
 59193  1  0  0  0  0
 60 61  1  0  0  0  0
 60194  1  0  0  0  0
 60195  1  0  0  0  0
 61 62  1  0  0  0  0
 61196  1  0  0  0  0
 61197  1  0  0  0  0
 62 63  1  0  0  0  0
 62198  1  0  0  0  0
 62199  1  0  0  0  0
 63 64  1  0  0  0  0
 63200  1  0  0  0  0
 63201  1  0  0  0  0
 64 65  1  0  0  0  0
 64202  1  0  0  0  0
 64203  1  0  0  0  0
 65 66  1  0  0  0  0
 65204  1  0  0  0  0
 65205  1  0  0  0  0
 66 67  1  0  0  0  0
 66206  1  0  0  0  0
 66207  1  0  0  0  0
 67 68  1  0  0  0  0
 67208  1  0  0  0  0
 67209  1  0  0  0  0
 68 69  1  0  0  0  0
 68210  1  0  0  0  0
 68211  1  0  0  0  0
 69 70  1  0  0  0  0
 69212  1  0  0  0  0
 69213  1  0  0  0  0
 70 71  1  0  0  0  0
 70214  1  0  0  0  0
 70215  1  0  0  0  0
 71 72  1  0  0  0  0
 71216  1  0  0  0  0
 71217  1  0  0  0  0
 72 73  1  0  0  0  0
 72218  1  0  0  0  0
 72219  1  0  0  0  0
 73 74  1  0  0  0  0
 73220  1  0  0  0  0
 73221  1  0  0  0  0
 74 75  1  0  0  0  0
 74222  1  0  0  0  0
 74223  1  0  0  0  0
 75 76  1  0  0  0  0
 75224  1  0  0  0  0
 75225  1  0  0  0  0
 76 77  1  0  0  0  0
 76226  1  0  0  0  0
 76227  1  0  0  0  0
 77 78  1  0  0  0  0
 77228  1  0  0  0  0
 77229  1  0  0  0  0
 78 79  1  0  0  0  0
 78230  1  0  0  0  0
 78231  1  0  0  0  0
 79232  1  0  0  0  0
 79233  1  0  0  0  0
 79234  1  0  0  0  0
M  END
$$$$
