
 OpenBabel04232216433D

 77 79  0  0  1  0  0  0  0  0999 V2000
   12.4314    5.6718    3.7736 C   0  0  0  0  0  0  0  0  0  0  0  0
   10.4587    5.0612    3.9644 C   0  0  0  0  0  0  0  0  0  0  0  0
    9.0768    5.0529    3.1715 C   0  0  0  0  0  0  0  0  0  0  0  0
    7.4815    4.4047    2.6795 C   0  0  0  0  0  0  0  0  0  0  0  0
    6.7258    4.1618    1.3947 C   0  0  0  0  0  0  0  0  0  0  0  0
    7.1626    3.1272    0.3952 N   0  0  0  0  0  0  0  0  0  0  0  0
    8.4215    2.7215    0.8679 C   0  0  0  0  0  0  0  0  0  0  0  0
    9.7388    2.3254    0.3823 C   0  0  0  0  0  0  0  0  0  0  0  0
   10.5601    3.3230    1.1843 C   0  0  0  0  0  0  0  0  0  0  0  0
   11.9710    3.2494    0.8607 C   0  0  0  0  0  0  0  0  0  0  0  0
   12.2935    4.6153    0.9377 N   0  0  0  0  0  0  0  0  0  0  0  0
   13.6894    4.6709    0.9298 C   0  0  0  0  0  0  0  0  0  0  0  0
   13.9554    6.0956    1.1745 C   0  0  0  0  0  0  0  0  0  0  0  0
   15.3934    6.1254    1.0662 C   0  0  0  0  0  0  0  0  0  0  0  0
   15.8224    7.1397    2.0452 C   0  0  3  0  0  0  0  0  0  0  0  0
   14.5461    8.3941    2.8072 C   0  0  0  0  0  0  0  0  0  0  0  0
   13.3477    8.7673    4.2539 C   0  0  0  0  0  0  0  0  0  0  0  0
   12.3536    7.5597    5.3945 C   0  0  0  0  0  0  0  0  0  0  0  0
   12.9138    5.8814    6.2895 C   0  0  0  0  0  0  0  0  0  0  0  0
   14.3486    4.6054    5.9978 C   0  0  0  0  0  0  0  0  0  0  0  0
   15.3122    3.9436    4.5128 C   0  0  0  0  0  0  0  0  0  0  0  0
   16.7540    4.4257    3.4321 C   0  0  0  0  0  0  0  0  0  0  0  0
   17.0982    5.9752    2.6429 C   0  0  0  0  0  0  0  0  0  0  0  0
   17.9536    6.6752    3.4067 C   0  0  0  0  0  0  0  0  0  0  0  0
   16.8756    7.3634    4.1304 C   0  0  0  0  0  0  0  0  0  0  0  0
   17.2769    8.8314    3.8613 C   0  0  0  0  0  0  0  0  0  0  0  0
   15.7784    6.3631    4.4020 C   0  0  0  0  0  0  0  0  0  0  0  0
   16.6361    5.9673    5.7364 C   0  0  0  0  0  0  0  0  0  0  0  0
   16.5288    6.8411    6.7431 C   0  0  0  0  0  0  0  0  0  0  0  0
   15.3506    7.6486    6.6884 C   0  0  0  0  0  0  0  0  0  0  0  0
   14.4852    7.4160    5.6787 C   0  0  0  0  0  0  0  0  0  0  0  0
   14.0875    6.3671    4.5121 N   0  0  0  0  0  0  0  0  0  0  0  0
   12.1919    6.3353    3.0766 H   0  0  0  0  0  0  0  0  0  0  0  0
   12.6898    4.6246    3.5769 H   0  0  0  0  0  0  0  0  0  0  0  0
   10.4323    4.1792    4.6365 H   0  0  0  0  0  0  0  0  0  0  0  0
    8.5375    4.6127    4.0566 H   0  0  0  0  0  0  0  0  0  0  0  0
    7.2092    3.4777    3.2413 H   0  0  0  0  0  0  0  0  0  0  0  0
    6.4166    4.9186    0.6541 H   0  0  0  0  0  0  0  0  0  0  0  0
    6.5374    2.3054    0.2314 H   0  0  0  0  0  0  0  0  0  0  0  0
    8.2902    2.2650    1.8455 H   0  0  0  0  0  0  0  0  0  0  0  0
    8.6625    3.7871    0.8762 H   0  0  0  0  0  0  0  0  0  0  0  0
    9.9289    2.3968   -0.6844 H   0  0  0  0  0  0  0  0  0  0  0  0
    9.9895    1.3385    0.7771 H   0  0  0  0  0  0  0  0  0  0  0  0
   10.4234    3.1453    2.2618 H   0  0  0  0  0  0  0  0  0  0  0  0
   10.2168    4.3687    0.9997 H   0  0  0  0  0  0  0  0  0  0  0  0
   12.1592    2.9000   -0.1507 H   0  0  0  0  0  0  0  0  0  0  0  0
   12.4619    2.6381    1.6167 H   0  0  0  0  0  0  0  0  0  0  0  0
   11.9082    5.0439    1.7676 H   0  0  0  0  0  0  0  0  0  0  0  0
   14.1088    4.3218   -0.0156 H   0  0  0  0  0  0  0  0  0  0  0  0
   14.0927    4.0480    1.7440 H   0  0  0  0  0  0  0  0  0  0  0  0
   13.7100    6.3166    2.1945 H   0  0  0  0  0  0  0  0  0  0  0  0
   13.4695    6.8479    0.5595 H   0  0  0  0  0  0  0  0  0  0  0  0
   15.7991    6.2228    0.0604 H   0  0  0  0  0  0  0  0  0  0  0  0
   15.7540    5.1287    1.3551 H   0  0  0  0  0  0  0  0  0  0  0  0
   16.4118    7.8427    1.4168 H   0  0  0  0  0  0  0  0  0  0  0  0
   13.9494    8.7111    1.9440 H   0  0  0  0  0  0  0  0  0  0  0  0
   15.1780    9.2938    2.9288 H   0  0  0  0  0  0  0  0  0  0  0  0
   12.7509    9.6674    4.0200 H   0  0  0  0  0  0  0  0  0  0  0  0
   13.9705    9.4067    4.9745 H   0  0  0  0  0  0  0  0  0  0  0  0
   11.5703    7.3358    4.6961 H   0  0  0  0  0  0  0  0  0  0  0  0
   11.8121    8.1450    6.1606 H   0  0  0  0  0  0  0  0  0  0  0  0
   12.0311    5.2723    6.3774 H   0  0  0  0  0  0  0  0  0  0  0  0
   13.1481    6.2014    7.3497 H   0  0  0  0  0  0  0  0  0  0  0  0
   13.9503    3.6757    6.4333 H   0  0  0  0  0  0  0  0  0  0  0  0
   15.0908    4.7936    6.8005 H   0  0  0  0  0  0  0  0  0  0  0  0
   14.5521    3.7135    3.7809 H   0  0  0  0  0  0  0  0  0  0  0  0
   15.7020    2.9806    4.8968 H   0  0  0  0  0  0  0  0  0  0  0  0
   16.8892    3.6549    2.6614 H   0  0  0  0  0  0  0  0  0  0  0  0
   17.6643    4.2263    4.0482 H   0  0  0  0  0  0  0  0  0  0  0  0
   18.7833    6.3464    4.0192 H   0  0  0  0  0  0  0  0  0  0  0  0
   17.1219    9.1831    2.8297 H   0  0  0  0  0  0  0  0  0  0  0  0
   18.3766    8.9256    3.9385 H   0  0  0  0  0  0  0  0  0  0  0  0
   16.8756    9.5457    4.5737 H   0  0  0  0  0  0  0  0  0  0  0  0
   17.5862    5.4391    5.6268 H   0  0  0  0  0  0  0  0  0  0  0  0
   17.4299    7.1974    7.2306 H   0  0  0  0  0  0  0  0  0  0  0  0
   15.5677    8.7175    6.7725 H   0  0  0  0  0  0  0  0  0  0  0  0
   14.9556    8.0851    4.9835 H   0  0  0  0  0  0  0  0  0  0  0  0
  1  2  1  0  0  0  0
  1 32  1  0  0  0  0
  1 33  1  0  0  0  0
  1 34  1  0  0  0  0
  2  3  2  3  0  0  0
  2 35  1  0  0  0  0
  3  4  1  0  0  0  0
  3 36  1  0  0  0  0
  4  5  2  3  0  0  0
  4 37  1  0  0  0  0
  5  6  1  0  0  0  0
  5 38  1  0  0  0  0
  6  7  1  0  0  0  0
  6 39  1  0  0  0  0
  7  8  1  0  0  0  0
  7 40  1  0  0  0  0
  7 41  1  0  0  0  0
  8  9  1  0  0  0  0
  8 42  1  0  0  0  0
  8 43  1  0  0  0  0
  9 10  1  0  0  0  0
  9 44  1  0  0  0  0
  9 45  1  0  0  0  0
 10 11  1  0  0  0  0
 10 46  1  0  0  0  0
 10 47  1  0  0  0  0
 11 12  1  0  0  0  0
 11 48  1  0  0  0  0
 12 13  1  0  0  0  0
 12 49  1  0  0  0  0
 12 50  1  0  0  0  0
 13 14  1  0  0  0  0
 13 51  1  0  0  0  0
 13 52  1  0  0  0  0
 14 15  1  0  0  0  0
 14 53  1  0  0  0  0
 14 54  1  0  0  0  0
 15 16  1  0  0  0  0
 15 23  1  0  0  0  0
 15 55  1  0  0  0  0
 16 17  1  0  0  0  0
 16 56  1  0  0  0  0
 16 57  1  0  0  0  0
 17 18  1  0  0  0  0
 17 58  1  0  0  0  0
 17 59  1  0  0  0  0
 18 19  1  0  0  0  0
 18 60  1  0  0  0  0
 18 61  1  0  0  0  0
 19 20  1  0  0  0  0
 19 62  1  0  0  0  0
 19 63  1  0  0  0  0
 20 21  1  0  0  0  0
 20 64  1  0  0  0  0
 20 65  1  0  0  0  0
 21 22  1  0  0  0  0
 21 66  1  0  0  0  0
 21 67  1  0  0  0  0
 22 23  1  0  0  0  0
 22 68  1  0  0  0  0
 22 69  1  0  0  0  0
 23 24  2  3  0  0  0
 24 25  1  0  0  0  0
 24 70  1  0  0  0  0
 25 26  1  0  0  0  0
 25 27  2  3  0  0  0
 26 71  1  0  0  0  0
 26 72  1  0  0  0  0
 26 73  1  0  0  0  0
 27 28  1  0  0  0  0
 27 32  1  0  0  0  0
 28 29  2  0  0  0  0
 28 74  1  0  0  0  0
 29 30  1  0  0  0  0
 29 75  1  0  0  0  0
 30 31  2  0  0  0  0
 30 76  1  0  0  0  0
 31 32  1  0  0  0  0
 31 77  1  0  0  0  0
M  END
$$$$
