
 OpenBabel04232216523D

 71 71  0  0  1  0  0  0  0  0999 V2000
    2.8564    3.4247    0.3078 C   0  0  0  0  0  0  0  0  0  0  0  0
    4.1606    3.6558    1.0651 C   0  0  0  0  0  0  0  0  0  0  0  0
    5.1387    2.4774    1.0857 C   0  0  0  0  0  0  0  0  0  0  0  0
    5.7250    1.9904   -0.2489 C   0  0  0  0  0  0  0  0  0  0  0  0
    6.4681    2.9524   -1.2611 C   0  0  3  0  0  0  0  0  0  0  0  0
    6.6009    2.0775   -2.5497 C   0  0  0  0  0  0  0  0  0  0  0  0
    6.8200    2.7474   -3.9460 C   0  0  3  0  0  0  0  0  0  0  0  0
    6.3608    4.2227   -3.8637 C   0  0  0  0  0  0  0  0  0  0  0  0
    6.4071    5.1148   -5.1006 C   0  0  0  0  0  0  0  0  0  0  0  0
    5.5484    4.6329   -6.2484 C   0  0  0  0  0  0  0  0  0  0  0  0
    4.0744    4.5823   -5.8585 C   0  0  0  0  0  0  0  0  0  0  0  0
    3.1916    4.1852   -7.0340 C   0  0  0  0  0  0  0  0  0  0  0  0
    1.7350    4.1526   -6.5872 C   0  0  0  0  0  0  0  0  0  0  0  0
    0.8147    3.7480   -7.7319 C   0  0  0  0  0  0  0  0  0  0  0  0
   -0.6379    3.7017   -7.2632 C   0  0  0  0  0  0  0  0  0  0  0  0
   -1.5677    3.2774   -8.3857 C   0  0  0  0  0  0  0  0  0  0  0  0
    8.2233    2.3431   -4.4328 C   0  0  0  0  0  0  0  0  0  0  0  0
    9.2439    3.2207   -4.5676 C   0  0  0  0  0  0  0  0  0  0  0  0
    9.8741    3.4418   -3.2461 C   0  0  0  0  0  0  0  0  0  0  0  0
    9.4238    4.4991   -2.5510 C   0  0  0  0  0  0  0  0  0  0  0  0
    9.3863    5.7977   -3.0786 N   0  0  0  0  0  0  0  0  0  0  0  0
   10.6485    6.5521   -3.3328 C   0  0  0  0  0  0  0  0  0  0  0  0
   10.7751    7.7407   -2.3837 C   0  0  0  0  0  0  0  0  0  0  0  0
    9.9199    8.0174   -1.5330 O   0  0  0  0  0  0  0  0  0  0  0  0
   12.0056    8.6361   -2.5691 C   0  0  0  0  0  0  0  0  0  0  0  0
   12.1814    9.5760   -1.5306 O   0  0  0  0  0  0  0  0  0  0  0  0
    8.8585    4.2767   -1.2182 C   0  0  0  0  0  0  0  0  0  0  0  0
    7.7356    3.6687   -0.7228 C   0  0  0  0  0  0  0  0  0  0  0  0
    2.2537    4.3404    0.3181 H   0  0  0  0  0  0  0  0  0  0  0  0
    2.2580    2.6341    0.7741 H   0  0  0  0  0  0  0  0  0  0  0  0
    3.0353    3.1590   -0.7372 H   0  0  0  0  0  0  0  0  0  0  0  0
    3.8906    3.8788    2.1083 H   0  0  0  0  0  0  0  0  0  0  0  0
    4.6604    4.5451    0.6750 H   0  0  0  0  0  0  0  0  0  0  0  0
    4.6072    1.6204    1.5320 H   0  0  0  0  0  0  0  0  0  0  0  0
    5.9550    2.7060    1.7764 H   0  0  0  0  0  0  0  0  0  0  0  0
    4.8697    1.5470   -0.7773 H   0  0  0  0  0  0  0  0  0  0  0  0
    6.3934    1.1466   -0.0242 H   0  0  0  0  0  0  0  0  0  0  0  0
    5.7342    3.7530   -1.4345 H   0  0  0  0  0  0  0  0  0  0  0  0
    5.6591    1.5244   -2.6781 H   0  0  0  0  0  0  0  0  0  0  0  0
    7.3380    1.2938   -2.3369 H   0  0  0  0  0  0  0  0  0  0  0  0
    6.1484    2.2450   -4.6476 H   0  0  0  0  0  0  0  0  0  0  0  0
    6.9030    4.7629   -3.0926 H   0  0  0  0  0  0  0  0  0  0  0  0
    5.3219    4.2165   -3.5008 H   0  0  0  0  0  0  0  0  0  0  0  0
    7.4303    5.2683   -5.4382 H   0  0  0  0  0  0  0  0  0  0  0  0
    6.0584    6.1100   -4.7888 H   0  0  0  0  0  0  0  0  0  0  0  0
    5.8896    3.6505   -6.5945 H   0  0  0  0  0  0  0  0  0  0  0  0
    5.6783    5.3293   -7.0872 H   0  0  0  0  0  0  0  0  0  0  0  0
    3.7622    5.5621   -5.4761 H   0  0  0  0  0  0  0  0  0  0  0  0
    3.9189    3.8575   -5.0513 H   0  0  0  0  0  0  0  0  0  0  0  0
    3.4960    3.1968   -7.4003 H   0  0  0  0  0  0  0  0  0  0  0  0
    3.3227    4.8971   -7.8536 H   0  0  0  0  0  0  0  0  0  0  0  0
    1.4429    5.1401   -6.2104 H   0  0  0  0  0  0  0  0  0  0  0  0
    1.6200    3.4453   -5.7553 H   0  0  0  0  0  0  0  0  0  0  0  0
    1.1131    2.7650   -8.1157 H   0  0  0  0  0  0  0  0  0  0  0  0
    0.9165    4.4639   -8.5568 H   0  0  0  0  0  0  0  0  0  0  0  0
   -0.9407    4.6885   -6.8943 H   0  0  0  0  0  0  0  0  0  0  0  0
   -0.7370    2.9992   -6.4272 H   0  0  0  0  0  0  0  0  0  0  0  0
   -1.5046    3.9715   -9.2295 H   0  0  0  0  0  0  0  0  0  0  0  0
   -2.6029    3.2615   -8.0323 H   0  0  0  0  0  0  0  0  0  0  0  0
   -1.3139    2.2747   -8.7443 H   0  0  0  0  0  0  0  0  0  0  0  0
    8.5083    1.3711   -4.0202 H   0  0  0  0  0  0  0  0  0  0  0  0
    9.0692    4.1490   -5.0940 H   0  0  0  0  0  0  0  0  0  0  0  0
   10.0874    2.5103   -2.7257 H   0  0  0  0  0  0  0  0  0  0  0  0
    8.7409    6.3950   -2.5528 H   0  0  0  0  0  0  0  0  0  0  0  0
   10.6351    6.9451   -4.3573 H   0  0  0  0  0  0  0  0  0  0  0  0
   11.5292    5.9095   -3.2126 H   0  0  0  0  0  0  0  0  0  0  0  0
   11.8955    9.1797   -3.5118 H   0  0  0  0  0  0  0  0  0  0  0  0
   12.9061    8.0090   -2.6136 H   0  0  0  0  0  0  0  0  0  0  0  0
   11.2923    9.8851   -1.2710 H   0  0  0  0  0  0  0  0  0  0  0  0
    9.4862    4.7901   -0.4641 H   0  0  0  0  0  0  0  0  0  0  0  0
    7.6578    3.7836    0.3548 H   0  0  0  0  0  0  0  0  0  0  0  0
  1  2  1  0  0  0  0
  1 29  1  0  0  0  0
  1 30  1  0  0  0  0
  1 31  1  0  0  0  0
  2  3  1  0  0  0  0
  2 32  1  0  0  0  0
  2 33  1  0  0  0  0
  3  4  1  0  0  0  0
  3 34  1  0  0  0  0
  3 35  1  0  0  0  0
  4  5  1  0  0  0  0
  4 36  1  0  0  0  0
  4 37  1  0  0  0  0
  5  6  1  0  0  0  0
  5 28  1  0  0  0  0
  5 38  1  0  0  0  0
  6  7  1  0  0  0  0
  6 39  1  0  0  0  0
  6 40  1  0  0  0  0
  7  8  1  0  0  0  0
  7 17  1  0  0  0  0
  7 41  1  0  0  0  0
  8  9  1  0  0  0  0
  8 42  1  0  0  0  0
  8 43  1  0  0  0  0
  9 10  1  0  0  0  0
  9 44  1  0  0  0  0
  9 45  1  0  0  0  0
 10 11  1  0  0  0  0
 10 46  1  0  0  0  0
 10 47  1  0  0  0  0
 11 12  1  0  0  0  0
 11 48  1  0  0  0  0
 11 49  1  0  0  0  0
 12 13  1  0  0  0  0
 12 50  1  0  0  0  0
 12 51  1  0  0  0  0
 13 14  1  0  0  0  0
 13 52  1  0  0  0  0
 13 53  1  0  0  0  0
 14 15  1  0  0  0  0
 14 54  1  0  0  0  0
 14 55  1  0  0  0  0
 15 16  1  0  0  0  0
 15 56  1  0  0  0  0
 15 57  1  0  0  0  0
 16 58  1  0  0  0  0
 16 59  1  0  0  0  0
 16 60  1  0  0  0  0
 17 18  2  3  0  0  0
 17 61  1  0  0  0  0
 18 19  1  0  0  0  0
 18 62  1  0  0  0  0
 19 20  2  3  0  0  0
 19 63  1  0  0  0  0
 20 21  1  0  0  0  0
 20 27  1  0  0  0  0
 21 22  1  0  0  0  0
 21 64  1  0  0  0  0
 22 23  1  0  0  0  0
 22 65  1  0  0  0  0
 22 66  1  0  0  0  0
 23 24  2  0  0  0  0
 23 25  1  0  0  0  0
 25 26  1  0  0  0  0
 25 67  1  0  0  0  0
 25 68  1  0  0  0  0
 26 69  1  0  0  0  0
 27 28  2  3  0  0  0
 27 70  1  0  0  0  0
 28 71  1  0  0  0  0
M  END
$$$$
