
 OpenBabel04232216443D

 53 54  0  0  0  0  0  0  0  0999 V2000
    4.2040    1.2453    0.2682 C   0  0  0  0  0  0  0  0  0  0  0  0
    4.5118    0.3460   -0.9160 C   0  0  0  0  0  0  0  0  0  0  0  0
    4.1111    0.8439   -2.1215 C   0  0  0  0  0  0  0  0  0  0  0  0
    2.8049    1.5180   -2.6209 C   0  0  0  0  0  0  0  0  0  0  0  0
    1.3764    1.1519   -2.1217 C   0  0  0  0  0  0  0  0  0  0  0  0
    0.3025    1.6328   -3.0473 N   0  0  0  0  0  0  0  0  0  0  0  0
   -0.1529    2.9423   -2.9950 C   0  0  0  0  0  0  0  0  0  0  0  0
    0.2983    3.7277   -2.1712 O   0  0  0  0  0  0  0  0  0  0  0  0
   -1.1558    3.2144   -3.9190 N   0  0  0  0  0  0  0  0  0  0  0  0
   -1.7748    4.4852   -4.1390 C   0  0  0  0  0  0  0  0  0  0  0  0
   -1.2619    5.6875   -3.6462 C   0  0  0  0  0  0  0  0  0  0  0  0
   -1.9201    6.9285   -3.8379 C   0  0  0  0  0  0  0  0  0  0  0  0
   -1.2916    8.1671   -3.2576 C   0  0  0  0  0  0  0  0  0  0  0  0
   -3.1214    6.9769   -4.5650 C   0  0  0  0  0  0  0  0  0  0  0  0
   -3.8997    8.2491   -4.7743 C   0  0  0  0  0  0  0  0  0  0  0  0
   -3.6201    5.7783   -5.0957 C   0  0  0  0  0  0  0  0  0  0  0  0
   -2.9570    4.5525   -4.8897 C   0  0  0  0  0  0  0  0  0  0  0  0
    5.2487    1.0728   -3.0163 C   0  0  0  0  0  0  0  0  0  0  0  0
    5.2623    0.4717   -4.1979 C   0  0  0  0  0  0  0  0  0  0  0  0
    6.4911   -0.1338   -4.6575 C   0  0  0  0  0  0  0  0  0  0  0  0
    6.3662   -1.3668   -5.1570 C   0  0  0  0  0  0  0  0  0  0  0  0
    7.6635   -2.4845   -5.2528 S   0  0  0  0  0  0  0  0  0  0  0  0
    6.7424   -3.8671   -4.0415 S   0  0  0  0  0  0  0  0  0  0  0  0
    7.4953   -3.5519   -2.5298 C   0  0  0  0  0  0  0  0  0  0  0  0
    7.1884   -2.6938   -1.5369 C   0  0  0  0  0  0  0  0  0  0  0  0
    6.2950   -1.4847   -1.4996 C   0  0  0  0  0  0  0  0  0  0  0  0
    5.7380   -0.5296   -0.6911 C   0  0  0  0  0  0  0  0  0  0  0  0
    3.3104    1.8578    0.1201 H   0  0  0  0  0  0  0  0  0  0  0  0
    5.0428    1.9551    0.3709 H   0  0  0  0  0  0  0  0  0  0  0  0
    4.1153    0.7040    1.2113 H   0  0  0  0  0  0  0  0  0  0  0  0
    2.7427    1.2751   -3.6912 H   0  0  0  0  0  0  0  0  0  0  0  0
    2.9299    2.6054   -2.5786 H   0  0  0  0  0  0  0  0  0  0  0  0
    1.2021    1.5859   -1.1306 H   0  0  0  0  0  0  0  0  0  0  0  0
    1.2521    0.0666   -2.0474 H   0  0  0  0  0  0  0  0  0  0  0  0
    0.1660    1.1418   -3.9237 H   0  0  0  0  0  0  0  0  0  0  0  0
   -1.6115    2.4187   -4.3422 H   0  0  0  0  0  0  0  0  0  0  0  0
   -0.3254    5.6923   -3.0959 H   0  0  0  0  0  0  0  0  0  0  0  0
   -0.3680    7.9399   -2.7138 H   0  0  0  0  0  0  0  0  0  0  0  0
   -1.9755    8.6458   -2.5495 H   0  0  0  0  0  0  0  0  0  0  0  0
   -1.0355    8.8727   -4.0552 H   0  0  0  0  0  0  0  0  0  0  0  0
   -3.4113    9.1280   -4.3431 H   0  0  0  0  0  0  0  0  0  0  0  0
   -4.8869    8.1674   -4.3067 H   0  0  0  0  0  0  0  0  0  0  0  0
   -4.0270    8.4450   -5.8433 H   0  0  0  0  0  0  0  0  0  0  0  0
   -4.5429    5.7898   -5.6718 H   0  0  0  0  0  0  0  0  0  0  0  0
   -3.3866    3.6585   -5.3333 H   0  0  0  0  0  0  0  0  0  0  0  0
    6.1676    1.4069   -2.5440 H   0  0  0  0  0  0  0  0  0  0  0  0
    4.3345    0.0387   -4.5864 H   0  0  0  0  0  0  0  0  0  0  0  0
    7.4493    0.2606   -4.3286 H   0  0  0  0  0  0  0  0  0  0  0  0
    5.3663   -1.7735   -5.3095 H   0  0  0  0  0  0  0  0  0  0  0  0
    8.3369   -4.2334   -2.3488 H   0  0  0  0  0  0  0  0  0  0  0  0
    7.8069   -2.8398   -0.6399 H   0  0  0  0  0  0  0  0  0  0  0  0
    7.3119   -1.0323   -1.3127 H   0  0  0  0  0  0  0  0  0  0  0  0
    6.3195   -0.1826    0.1694 H   0  0  0  0  0  0  0  0  0  0  0  0
  1  2  1  0  0  0  0
  1 28  1  0  0  0  0
  1 29  1  0  0  0  0
  1 30  1  0  0  0  0
  2  3  2  0  0  0  0
  2 27  1  0  0  0  0
  3  4  1  0  0  0  0
  3 18  1  0  0  0  0
  4  5  1  0  0  0  0
  4 31  1  0  0  0  0
  4 32  1  0  0  0  0
  5  6  1  0  0  0  0
  5 33  1  0  0  0  0
  5 34  1  0  0  0  0
  6  7  1  0  0  0  0
  6 35  1  0  0  0  0
  7  8  2  0  0  0  0
  7  9  1  0  0  0  0
  9 10  1  0  0  0  0
  9 36  1  0  0  0  0
 10 11  1  0  0  0  0
 10 17  2  0  0  0  0
 11 12  2  0  0  0  0
 11 37  1  0  0  0  0
 12 13  1  0  0  0  0
 12 14  1  0  0  0  0
 13 38  1  0  0  0  0
 13 39  1  0  0  0  0
 13 40  1  0  0  0  0
 14 15  1  0  0  0  0
 14 16  2  0  0  0  0
 15 41  1  0  0  0  0
 15 42  1  0  0  0  0
 15 43  1  0  0  0  0
 16 17  1  0  0  0  0
 16 44  1  0  0  0  0
 17 45  1  0  0  0  0
 18 19  2  0  0  0  0
 18 46  1  0  0  0  0
 19 20  1  0  0  0  0
 19 47  1  0  0  0  0
 20 21  2  0  0  0  0
 20 48  1  0  0  0  0
 21 22  1  0  0  0  0
 21 49  1  0  0  0  0
 22 23  1  0  0  0  0
 23 24  1  0  0  0  0
 24 25  2  0  0  0  0
 24 50  1  0  0  0  0
 25 26  1  0  0  0  0
 25 51  1  0  0  0  0
 26 27  2  0  0  0  0
 26 52  1  0  0  0  0
 27 53  1  0  0  0  0
M  END
$$$$
