
 OpenBabel04232216453D

201201  0  0  0  0  0  0  0  0999 V2000
    1.5338    3.5444   -2.2874 C   0  0  0  0  0  0  0  0  0  0  0  0
    1.6619    5.0297   -2.5937 C   0  0  0  0  0  0  0  0  0  0  0  0
    0.4663    5.5749   -2.1603 C   0  0  0  0  0  3  0  0  0  0  0  0
    1.5814    6.0967   -1.4774 C   0  0  0  0  0  0  0  0  0  0  0  0
    1.6135    7.6089   -1.5898 C   0  0  0  0  0  0  0  0  0  0  0  0
    2.4132    5.5651   -0.3072 C   0  0  0  0  0  0  0  0  0  0  0  0
    1.6456    5.0445    0.9041 C   0  0  0  0  0  0  0  0  0  0  0  0
    2.5696    4.5062    2.0128 C   0  0  0  0  0  0  0  0  0  0  0  0
    3.5461    5.5641    2.5306 C   0  0  0  0  0  0  0  0  0  0  0  0
    2.8115    6.7826    3.0843 C   0  0  0  0  0  0  0  0  0  0  0  0
    3.7926    7.8402    3.5599 C   0  0  0  0  0  0  0  0  0  0  0  0
    3.0396    9.0468    4.1027 C   0  0  0  0  0  0  0  0  0  0  0  0
    4.0195   10.1049    4.5811 C   0  0  0  0  0  0  0  0  0  0  0  0
    3.2673   11.3064    5.1277 C   0  0  0  0  0  0  0  0  0  0  0  0
    4.2483   12.3622    5.6060 C   0  0  0  0  0  0  0  0  0  0  0  0
    3.4950   13.5616    6.1519 C   0  0  0  0  0  0  0  0  0  0  0  0
    4.4765   14.6160    6.6296 C   0  0  0  0  0  0  0  0  0  0  0  0
    3.7227   15.8135    7.1768 C   0  0  0  0  0  0  0  0  0  0  0  0
    4.7044   16.8662    7.6558 C   0  0  0  0  0  0  0  0  0  0  0  0
    3.9504   18.0642    8.2011 C   0  0  0  0  0  0  0  0  0  0  0  0
    4.9323   19.1173    8.6782 C   0  0  0  0  0  0  0  0  0  0  0  0
    4.1781   20.3142    9.2251 C   0  0  0  0  0  0  0  0  0  0  0  0
    5.1600   21.3664    9.7039 C   0  0  0  0  0  0  0  0  0  0  0  0
    4.4058   22.5641   10.2490 C   0  0  0  0  0  0  0  0  0  0  0  0
    5.3877   23.6170   10.7260 C   0  0  0  0  0  0  0  0  0  0  0  0
    4.6336   24.8147   11.2711 C   0  0  0  0  0  0  0  0  0  0  0  0
    5.6155   25.8676   11.7480 C   0  0  0  0  0  0  0  0  0  0  0  0
    4.8613   27.0652   12.2931 C   0  0  0  0  0  0  0  0  0  0  0  0
    5.8433   28.1181   12.7701 C   0  0  0  0  0  0  0  0  0  0  0  0
    5.0890   29.3150   13.3169 C   0  0  0  0  0  0  0  0  0  0  0  0
    6.0710   30.3677   13.7939 C   0  0  0  0  0  0  0  0  0  0  0  0
    5.3168   31.5653   14.3389 C   0  0  0  0  0  0  0  0  0  0  0  0
    6.2988   32.6172   14.8176 C   0  0  0  0  0  0  0  0  0  0  0  0
    5.5446   33.8145   15.3625 C   0  0  0  0  0  0  0  0  0  0  0  0
    6.5268   34.8661   15.8411 C   0  0  0  0  0  0  0  0  0  0  0  0
    5.7723   36.0629   16.3857 C   0  0  0  0  0  0  0  0  0  0  0  0
    6.7544   37.1139   16.8641 C   0  0  0  0  0  0  0  0  0  0  0  0
    5.9991   38.3095   17.4082 C   0  0  0  0  0  0  0  0  0  0  0  0
    6.9816   39.3586   17.8857 C   0  0  0  0  0  0  0  0  0  0  0  0
    6.2247   40.5511   18.4305 C   0  0  0  0  0  0  0  0  0  0  0  0
    7.2085   41.5962   18.9040 C   0  0  0  0  0  0  0  0  0  0  0  0
    6.4505   42.7857   19.4454 C   0  0  0  0  0  0  0  0  0  0  0  0
    7.4401   43.8208   19.9142 C   0  0  0  0  0  0  0  0  0  0  0  0
    6.6799   45.0019   20.4539 C   0  0  0  0  0  0  0  0  0  0  0  0
    7.6760   46.0243   20.9149 C   0  0  0  0  0  0  0  0  0  0  0  0
    6.9072   47.1877   21.4487 C   0  0  0  0  0  0  0  0  0  0  0  0
    7.8953   48.1971   21.9016 C   0  0  0  0  0  0  0  0  0  0  0  0
    7.0878   49.2293   22.3738 O   0  0  0  0  0  0  0  0  0  0  0  0
    8.0381   50.1770   22.7932 O   0  0  0  0  0  0  0  0  0  0  0  0
    7.3360   51.2728   23.3021 O   0  0  0  0  0  0  0  0  0  0  0  0
    8.2693   52.2185   23.7288 O   0  0  0  0  0  0  0  0  0  0  0  0
    7.5470   53.2970   24.2210 O   0  0  0  0  0  0  0  0  0  0  0  0
    8.4413   54.2685   24.6579 O   0  0  0  0  0  0  0  0  0  0  0  0
    7.7380   55.3337   25.1470 O   0  0  0  0  0  0  0  0  0  0  0  0
    8.6775   56.2854   25.5739 O   0  0  0  0  0  0  0  0  0  0  0  0
    7.9411   57.3614   26.0716 O   0  0  0  0  0  0  0  0  0  0  0  0
    8.8935   58.3149   26.5110 O   0  0  0  0  0  0  0  0  0  0  0  0
    8.1369   59.3939   26.9961 O   0  0  0  0  0  0  0  0  0  0  0  0
    9.0892   60.3408   27.4202 O   0  0  0  0  0  0  0  0  0  0  0  0
    8.3816   61.4386   27.9278 O   0  0  0  0  0  0  0  0  0  0  0  0
    9.3356   62.3758   28.3487 O   0  0  0  0  0  0  0  0  0  0  0  0
    8.5209   63.4020   28.8209 C   0  0  0  0  0  0  0  0  0  0  0  0
    9.5258   64.4131   29.2743 C   0  0  0  0  0  0  0  0  0  0  0  0
    8.7503   65.5795   29.8050 C   0  0  0  0  0  0  0  0  0  0  0  0
    9.7398   66.6009   30.2686 C   0  0  0  0  0  0  0  0  0  0  0  0
    8.9759   67.7817   30.8166 C   0  0  0  0  0  0  0  0  0  0  0  0
    9.9659   68.8211   31.2873 C   0  0  0  0  0  0  0  0  0  0  0  0
    9.2070   70.0102   31.8340 C   0  0  0  0  0  0  0  0  0  0  0  0
   10.1908   71.0567   32.3052 C   0  0  0  0  0  0  0  0  0  0  0  0
    9.4348   72.2490   32.8554 C   0  0  0  0  0  0  0  0  0  0  0  0
   10.4168   73.3012   33.3291 C   0  0  0  0  0  0  0  0  0  0  0  0
    9.6626   74.4974   33.8791 C   0  0  0  0  0  0  0  0  0  0  0  0
   10.6429   75.5539   34.3569 C   0  0  0  0  0  0  0  0  0  0  0  0
    9.8908   76.7543   34.9087 C   0  0  0  0  0  0  0  0  0  0  0  0
   10.8708   77.8145   35.3884 C   0  0  0  0  0  0  0  0  0  0  0  0
   10.1278   79.0216   35.9454 C   0  0  0  0  0  0  0  0  0  0  0  0
   11.1059   80.0781   36.4233 C   0  0  0  0  0  0  0  0  0  0  0  0
    0.8783    3.0524   -3.0120 H   0  0  0  0  0  0  0  0  0  0  0  0
    1.0631    3.3649   -1.3029 H   0  0  0  0  0  0  0  0  0  0  0  0
    2.4990    3.0386   -2.2629 H   0  0  0  0  0  0  0  0  0  0  0  0
   -0.5367    5.6778   -2.4990 H   0  0  0  0  0  0  0  0  0  0  0  0
    0.9663    8.0209   -2.3740 H   0  0  0  0  0  0  0  0  0  0  0  0
    2.6277    7.9867   -1.7476 H   0  0  0  0  0  0  0  0  0  0  0  0
    1.2412    8.0389   -0.6471 H   0  0  0  0  0  0  0  0  0  0  0  0
    3.0750    6.3777    0.0116 H   0  0  0  0  0  0  0  0  0  0  0  0
    3.1179    4.7903   -0.6476 H   0  0  0  0  0  0  0  0  0  0  0  0
    0.9465    4.2561    0.6196 H   0  0  0  0  0  0  0  0  0  0  0  0
    1.0304    5.8536    1.3061 H   0  0  0  0  0  0  0  0  0  0  0  0
    3.1362    3.6373    1.6521 H   0  0  0  0  0  0  0  0  0  0  0  0
    1.9549    4.1454    2.8473 H   0  0  0  0  0  0  0  0  0  0  0  0
    4.2192    5.8721    1.7233 H   0  0  0  0  0  0  0  0  0  0  0  0
    4.1871    5.1325    3.3088 H   0  0  0  0  0  0  0  0  0  0  0  0
    2.1548    6.4752    3.9073 H   0  0  0  0  0  0  0  0  0  0  0  0
    2.1752    7.2354    2.3170 H   0  0  0  0  0  0  0  0  0  0  0  0
    4.4333    8.1512    2.7250 H   0  0  0  0  0  0  0  0  0  0  0  0
    4.4400    7.4222    4.3354 H   0  0  0  0  0  0  0  0  0  0  0  0
    2.3913    8.7387    4.9323 H   0  0  0  0  0  0  0  0  0  0  0  0
    2.3903    9.4676    3.3247 H   0  0  0  0  0  0  0  0  0  0  0  0
    4.6665   10.4172    3.7523 H   0  0  0  0  0  0  0  0  0  0  0  0
    4.6688    9.6871    5.3602 H   0  0  0  0  0  0  0  0  0  0  0  0
    2.6202   10.9966    5.9576 H   0  0  0  0  0  0  0  0  0  0  0  0
    2.6181   11.7269    4.3499 H   0  0  0  0  0  0  0  0  0  0  0  0
    4.8955   12.6744    4.7772 H   0  0  0  0  0  0  0  0  0  0  0  0
    4.8976   11.9440    6.3851 H   0  0  0  0  0  0  0  0  0  0  0  0
    2.8479   13.2512    6.9816 H   0  0  0  0  0  0  0  0  0  0  0  0
    2.8458   13.9817    5.3738 H   0  0  0  0  0  0  0  0  0  0  0  0
    5.1228   14.9286    5.8002 H   0  0  0  0  0  0  0  0  0  0  0  0
    5.1267   14.1968    7.4074 H   0  0  0  0  0  0  0  0  0  0  0  0
    3.0754   15.5016    8.0058 H   0  0  0  0  0  0  0  0  0  0  0  0
    3.0736   16.2343    6.3989 H   0  0  0  0  0  0  0  0  0  0  0  0
    5.3526   17.1778    6.8275 H   0  0  0  0  0  0  0  0  0  0  0  0
    5.3526   16.4463    8.4349 H   0  0  0  0  0  0  0  0  0  0  0  0
    3.3033   17.7530    9.0305 H   0  0  0  0  0  0  0  0  0  0  0  0
    3.3012   18.4837    7.4226 H   0  0  0  0  0  0  0  0  0  0  0  0
    5.5785   19.4295    7.8486 H   0  0  0  0  0  0  0  0  0  0  0  0
    5.5824   18.6976    9.4558 H   0  0  0  0  0  0  0  0  0  0  0  0
    3.5309   20.0019   10.0539 H   0  0  0  0  0  0  0  0  0  0  0  0
    3.5291   20.7347    8.4471 H   0  0  0  0  0  0  0  0  0  0  0  0
    5.8082   21.6778    8.8755 H   0  0  0  0  0  0  0  0  0  0  0  0
    5.8082   20.9463   10.4829 H   0  0  0  0  0  0  0  0  0  0  0  0
    3.7587   22.2529   11.0784 H   0  0  0  0  0  0  0  0  0  0  0  0
    3.7567   22.9834    9.4705 H   0  0  0  0  0  0  0  0  0  0  0  0
    6.0348   23.9282    9.8967 H   0  0  0  0  0  0  0  0  0  0  0  0
    6.0370   23.1977   11.5046 H   0  0  0  0  0  0  0  0  0  0  0  0
    3.9865   24.5036   12.1004 H   0  0  0  0  0  0  0  0  0  0  0  0
    3.9844   25.2340   10.4925 H   0  0  0  0  0  0  0  0  0  0  0  0
    6.2626   26.1788   10.9187 H   0  0  0  0  0  0  0  0  0  0  0  0
    6.2647   25.4483   12.5266 H   0  0  0  0  0  0  0  0  0  0  0  0
    4.2143   26.7541   13.1225 H   0  0  0  0  0  0  0  0  0  0  0  0
    4.2121   27.4846   11.5146 H   0  0  0  0  0  0  0  0  0  0  0  0
    6.4894   28.4303   11.9404 H   0  0  0  0  0  0  0  0  0  0  0  0
    6.4934   27.6985   13.5477 H   0  0  0  0  0  0  0  0  0  0  0  0
    4.4429   29.0028   14.1466 H   0  0  0  0  0  0  0  0  0  0  0  0
    4.4389   29.7346   12.5393 H   0  0  0  0  0  0  0  0  0  0  0  0
    6.7181   30.6791   12.9646 H   0  0  0  0  0  0  0  0  0  0  0  0
    6.7202   29.9484   14.5724 H   0  0  0  0  0  0  0  0  0  0  0  0
    4.6686   31.2540   15.1674 H   0  0  0  0  0  0  0  0  0  0  0  0
    4.6686   31.9855   13.5599 H   0  0  0  0  0  0  0  0  0  0  0  0
    6.9470   32.9286   13.9892 H   0  0  0  0  0  0  0  0  0  0  0  0
    6.9469   32.1971   15.5966 H   0  0  0  0  0  0  0  0  0  0  0  0
    4.8965   33.5034   16.1911 H   0  0  0  0  0  0  0  0  0  0  0  0
    4.8966   34.2350   14.5836 H   0  0  0  0  0  0  0  0  0  0  0  0
    7.1750   35.1778   15.0128 H   0  0  0  0  0  0  0  0  0  0  0  0
    7.1749   34.4462   16.6202 H   0  0  0  0  0  0  0  0  0  0  0  0
    5.1242   35.7521   17.2144 H   0  0  0  0  0  0  0  0  0  0  0  0
    5.1242   36.4836   15.6070 H   0  0  0  0  0  0  0  0  0  0  0  0
    7.4026   37.4262   16.0360 H   0  0  0  0  0  0  0  0  0  0  0  0
    7.4025   36.6946   17.6435 H   0  0  0  0  0  0  0  0  0  0  0  0
    5.3511   37.9992   18.2373 H   0  0  0  0  0  0  0  0  0  0  0  0
    5.3512   38.7309   16.6297 H   0  0  0  0  0  0  0  0  0  0  0  0
    7.6289   39.6731   17.0577 H   0  0  0  0  0  0  0  0  0  0  0  0
    7.6308   38.9402   18.6648 H   0  0  0  0  0  0  0  0  0  0  0  0
    5.5790   40.2412   19.2615 H   0  0  0  0  0  0  0  0  0  0  0  0
    5.5751   40.9733   17.6538 H   0  0  0  0  0  0  0  0  0  0  0  0
    7.8558   41.9117   18.0763 H   0  0  0  0  0  0  0  0  0  0  0  0
    7.8579   41.1809   19.6847 H   0  0  0  0  0  0  0  0  0  0  0  0
    5.8042   42.4799   20.2776 H   0  0  0  0  0  0  0  0  0  0  0  0
    5.8021   43.2108   18.6690 H   0  0  0  0  0  0  0  0  0  0  0  0
    8.0861   44.1386   19.0864 H   0  0  0  0  0  0  0  0  0  0  0  0
    8.0901   43.4064   20.6948 H   0  0  0  0  0  0  0  0  0  0  0  0
    6.0366   44.6996   21.2898 H   0  0  0  0  0  0  0  0  0  0  0  0
    6.0305   45.4311   19.6806 H   0  0  0  0  0  0  0  0  0  0  0  0
    8.3194   46.3469   20.0871 H   0  0  0  0  0  0  0  0  0  0  0  0
    8.3275   45.6140   21.6962 H   0  0  0  0  0  0  0  0  0  0  0  0
    6.2569   46.9011   22.2863 H   0  0  0  0  0  0  0  0  0  0  0  0
    6.2469   47.6275   20.6889 H   0  0  0  0  0  0  0  0  0  0  0  0
    8.5260   48.5622   21.0809 H   0  0  0  0  0  0  0  0  0  0  0  0
    8.5344   47.8227   22.7115 H   0  0  0  0  0  0  0  0  0  0  0  0
    7.9009   63.0462   29.6422 H   0  0  0  0  0  0  0  0  0  0  0  0
    7.8907   63.7848   28.0200 H   0  0  0  0  0  0  0  0  0  0  0  0
   10.1746   64.7133   28.4392 H   0  0  0  0  0  0  0  0  0  0  0  0
   10.1771   63.9765   30.0402 H   0  0  0  0  0  0  0  0  0  0  0  0
    8.1067   65.2680   30.6397 H   0  0  0  0  0  0  0  0  0  0  0  0
    8.0934   65.9914   29.0283 H   0  0  0  0  0  0  0  0  0  0  0  0
   10.3800   66.9116   29.4385 H   0  0  0  0  0  0  0  0  0  0  0  0
   10.3886   66.1838   31.0449 H   0  0  0  0  0  0  0  0  0  0  0  0
    8.3346   67.4641   31.6477 H   0  0  0  0  0  0  0  0  0  0  0  0
    8.3250   68.2003   30.0406 H   0  0  0  0  0  0  0  0  0  0  0  0
   10.6091   69.1313   30.4547 H   0  0  0  0  0  0  0  0  0  0  0  0
   10.6167   68.3972   32.0618 H   0  0  0  0  0  0  0  0  0  0  0  0
    8.5634   69.6922   32.6635 H   0  0  0  0  0  0  0  0  0  0  0  0
    8.5537   70.4251   31.0564 H   0  0  0  0  0  0  0  0  0  0  0  0
   10.8329   71.3688   31.4721 H   0  0  0  0  0  0  0  0  0  0  0  0
   10.8444   70.6348   33.0787 H   0  0  0  0  0  0  0  0  0  0  0  0
    8.7923   71.9312   33.6858 H   0  0  0  0  0  0  0  0  0  0  0  0
    8.7807   72.6652   32.0792 H   0  0  0  0  0  0  0  0  0  0  0  0
   11.0599   73.6126   32.4968 H   0  0  0  0  0  0  0  0  0  0  0  0
   11.0696   72.8798   34.1036 H   0  0  0  0  0  0  0  0  0  0  0  0
    9.0180   74.1812   34.7084 H   0  0  0  0  0  0  0  0  0  0  0  0
    9.0104   74.9148   33.1020 H   0  0  0  0  0  0  0  0  0  0  0  0
   11.2873   75.8650   33.5254 H   0  0  0  0  0  0  0  0  0  0  0  0
   11.2948   75.1314   35.1315 H   0  0  0  0  0  0  0  0  0  0  0  0
    9.2462   76.4376   35.7379 H   0  0  0  0  0  0  0  0  0  0  0  0
    9.2387   77.1714   34.1316 H   0  0  0  0  0  0  0  0  0  0  0  0
   11.5145   78.1241   34.5557 H   0  0  0  0  0  0  0  0  0  0  0  0
   11.5238   77.3895   36.1606 H   0  0  0  0  0  0  0  0  0  0  0  0
    9.4860   78.7125   36.7785 H   0  0  0  0  0  0  0  0  0  0  0  0
    9.4765   79.4474   35.1732 H   0  0  0  0  0  0  0  0  0  0  0  0
   11.7512   79.6806   37.2133 H   0  0  0  0  0  0  0  0  0  0  0  0
   10.5662   80.9414   36.8217 H   0  0  0  0  0  0  0  0  0  0  0  0
   11.7418   80.4192   35.6001 H   0  0  0  0  0  0  0  0  0  0  0  0
  1  2  1  0  0  0  0
  1 78  1  0  0  0  0
  1 79  1  0  0  0  0
  1 80  1  0  0  0  0
  2  3  1  0  0  0  0
  2  4  2  0  0  0  0
  3  4  1  0  0  0  0
  3 81  1  0  0  0  0
  4  5  1  0  0  0  0
  4  6  1  0  0  0  0
  5 82  1  0  0  0  0
  5 83  1  0  0  0  0
  5 84  1  0  0  0  0
  6  7  1  0  0  0  0
  6 85  1  0  0  0  0
  6 86  1  0  0  0  0
  7  8  1  0  0  0  0
  7 87  1  0  0  0  0
  7 88  1  0  0  0  0
  8  9  1  0  0  0  0
  8 89  1  0  0  0  0
  8 90  1  0  0  0  0
  9 10  1  0  0  0  0
  9 91  1  0  0  0  0
  9 92  1  0  0  0  0
 10 11  1  0  0  0  0
 10 93  1  0  0  0  0
 10 94  1  0  0  0  0
 11 12  1  0  0  0  0
 11 95  1  0  0  0  0
 11 96  1  0  0  0  0
 12 13  1  0  0  0  0
 12 97  1  0  0  0  0
 12 98  1  0  0  0  0
 13 14  1  0  0  0  0
 13 99  1  0  0  0  0
 13100  1  0  0  0  0
 14 15  1  0  0  0  0
 14101  1  0  0  0  0
 14102  1  0  0  0  0
 15 16  1  0  0  0  0
 15103  1  0  0  0  0
 15104  1  0  0  0  0
 16 17  1  0  0  0  0
 16105  1  0  0  0  0
 16106  1  0  0  0  0
 17 18  1  0  0  0  0
 17107  1  0  0  0  0
 17108  1  0  0  0  0
 18 19  1  0  0  0  0
 18109  1  0  0  0  0
 18110  1  0  0  0  0
 19 20  1  0  0  0  0
 19111  1  0  0  0  0
 19112  1  0  0  0  0
 20 21  1  0  0  0  0
 20113  1  0  0  0  0
 20114  1  0  0  0  0
 21 22  1  0  0  0  0
 21115  1  0  0  0  0
 21116  1  0  0  0  0
 22 23  1  0  0  0  0
 22117  1  0  0  0  0
 22118  1  0  0  0  0
 23 24  1  0  0  0  0
 23119  1  0  0  0  0
 23120  1  0  0  0  0
 24 25  1  0  0  0  0
 24121  1  0  0  0  0
 24122  1  0  0  0  0
 25 26  1  0  0  0  0
 25123  1  0  0  0  0
 25124  1  0  0  0  0
 26 27  1  0  0  0  0
 26125  1  0  0  0  0
 26126  1  0  0  0  0
 27 28  1  0  0  0  0
 27127  1  0  0  0  0
 27128  1  0  0  0  0
 28 29  1  0  0  0  0
 28129  1  0  0  0  0
 28130  1  0  0  0  0
 29 30  1  0  0  0  0
 29131  1  0  0  0  0
 29132  1  0  0  0  0
 30 31  1  0  0  0  0
 30133  1  0  0  0  0
 30134  1  0  0  0  0
 31 32  1  0  0  0  0
 31135  1  0  0  0  0
 31136  1  0  0  0  0
 32 33  1  0  0  0  0
 32137  1  0  0  0  0
 32138  1  0  0  0  0
 33 34  1  0  0  0  0
 33139  1  0  0  0  0
 33140  1  0  0  0  0
 34 35  1  0  0  0  0
 34141  1  0  0  0  0
 34142  1  0  0  0  0
 35 36  1  0  0  0  0
 35143  1  0  0  0  0
 35144  1  0  0  0  0
 36 37  1  0  0  0  0
 36145  1  0  0  0  0
 36146  1  0  0  0  0
 37 38  1  0  0  0  0
 37147  1  0  0  0  0
 37148  1  0  0  0  0
 38 39  1  0  0  0  0
 38149  1  0  0  0  0
 38150  1  0  0  0  0
 39 40  1  0  0  0  0
 39151  1  0  0  0  0
 39152  1  0  0  0  0
 40 41  1  0  0  0  0
 40153  1  0  0  0  0
 40154  1  0  0  0  0
 41 42  1  0  0  0  0
 41155  1  0  0  0  0
 41156  1  0  0  0  0
 42 43  1  0  0  0  0
 42157  1  0  0  0  0
 42158  1  0  0  0  0
 43 44  1  0  0  0  0
 43159  1  0  0  0  0
 43160  1  0  0  0  0
 44 45  1  0  0  0  0
 44161  1  0  0  0  0
 44162  1  0  0  0  0
 45 46  1  0  0  0  0
 45163  1  0  0  0  0
 45164  1  0  0  0  0
 46 47  1  0  0  0  0
 46165  1  0  0  0  0
 46166  1  0  0  0  0
 47 48  1  0  0  0  0
 47167  1  0  0  0  0
 47168  1  0  0  0  0
 48 49  1  0  0  0  0
 49 50  1  0  0  0  0
 50 51  1  0  0  0  0
 51 52  1  0  0  0  0
 52 53  1  0  0  0  0
 53 54  1  0  0  0  0
 54 55  1  0  0  0  0
 55 56  1  0  0  0  0
 56 57  1  0  0  0  0
 57 58  1  0  0  0  0
 58 59  1  0  0  0  0
 59 60  1  0  0  0  0
 60 61  1  0  0  0  0
 61 62  1  0  0  0  0
 62 63  1  0  0  0  0
 62169  1  0  0  0  0
 62170  1  0  0  0  0
 63 64  1  0  0  0  0
 63171  1  0  0  0  0
 63172  1  0  0  0  0
 64 65  1  0  0  0  0
 64173  1  0  0  0  0
 64174  1  0  0  0  0
 65 66  1  0  0  0  0
 65175  1  0  0  0  0
 65176  1  0  0  0  0
 66 67  1  0  0  0  0
 66177  1  0  0  0  0
 66178  1  0  0  0  0
 67 68  1  0  0  0  0
 67179  1  0  0  0  0
 67180  1  0  0  0  0
 68 69  1  0  0  0  0
 68181  1  0  0  0  0
 68182  1  0  0  0  0
 69 70  1  0  0  0  0
 69183  1  0  0  0  0
 69184  1  0  0  0  0
 70 71  1  0  0  0  0
 70185  1  0  0  0  0
 70186  1  0  0  0  0
 71 72  1  0  0  0  0
 71187  1  0  0  0  0
 71188  1  0  0  0  0
 72 73  1  0  0  0  0
 72189  1  0  0  0  0
 72190  1  0  0  0  0
 73 74  1  0  0  0  0
 73191  1  0  0  0  0
 73192  1  0  0  0  0
 74 75  1  0  0  0  0
 74193  1  0  0  0  0
 74194  1  0  0  0  0
 75 76  1  0  0  0  0
 75195  1  0  0  0  0
 75196  1  0  0  0  0
 76 77  1  0  0  0  0
 76197  1  0  0  0  0
 76198  1  0  0  0  0
 77199  1  0  0  0  0
 77200  1  0  0  0  0
 77201  1  0  0  0  0
M  END
$$$$
