
 OpenBabel04232216443D

 63 63  0  0  0  0  0  0  0  0999 V2000
    9.8590    2.2549    3.5711 C   0  0  0  0  0  0  0  0  0  0  0  0
   10.7566    2.1270    5.3085 C   0  0  0  0  0  0  0  0  0  0  0  0
    8.6262    1.7869    4.9938 C   0  0  0  0  0  0  0  0  0  0  0  0
    6.4914    2.2698    3.8213 S   0  0  0  0  0  0  0  0  0  0  0  0
    4.3502    1.2041    2.8140 C   0  0  0  0  0  0  0  0  0  0  0  0
    2.5932    1.5698    3.2155 O   0  0  0  0  0  0  0  0  0  0  0  0
    8.0417    0.6536    4.5328 N   0  0  0  0  0  0  0  0  0  0  0  0
    6.7953   -0.2325    3.9401 C   0  0  0  0  0  0  0  0  0  0  0  0
    5.3159   -0.3075    4.8212 C   0  0  0  0  0  0  0  0  0  0  0  0
    7.4506   -1.3540    3.5083 C   0  0  0  0  0  0  0  0  0  0  0  0
    8.2481   -1.5776    4.7939 C   0  0  0  0  0  0  0  0  0  0  0  0
    9.4996   -1.1111    4.9033 C   0  0  0  0  0  0  0  0  0  0  0  0
    9.7581   -0.4210    6.1981 C   0  0  0  0  0  0  0  0  0  0  0  0
    9.0519    0.1735    6.9936 O   0  0  0  0  0  0  0  0  0  0  0  0
   11.1640   -0.5208    6.2062 C   0  0  0  0  0  0  0  0  0  0  0  0
   11.8326   -0.1967    7.2708 C   0  0  0  0  0  0  0  0  0  0  0  0
   13.1852   -0.3792    6.9946 C   0  0  0  0  0  0  0  0  0  0  0  0
   13.9479   -0.2219    8.0285 C   0  0  0  0  0  0  0  0  0  0  0  0
   15.2894   -0.4669    7.7605 C   0  0  0  0  0  0  0  0  0  0  0  0
   15.9471   -0.3620    8.8776 C   0  0  0  0  0  0  0  0  0  0  0  0
   17.3096   -0.5079    8.8786 C   0  0  0  0  0  0  0  0  0  0  0  0
   17.8008   -0.3971   10.0978 C   0  0  0  0  0  0  0  0  0  0  0  0
   19.1345   -0.7379   10.1898 C   0  0  0  0  0  0  0  0  0  0  0  0
   19.8141   -0.6949   11.3185 C   0  0  0  0  0  0  0  0  0  0  0  0
   21.2217   -0.8627   11.1607 C   0  0  0  0  0  0  0  0  0  0  0  0
   21.7257    0.1519   11.8497 C   0  0  0  0  0  0  0  0  0  0  0  0
   21.7389    1.3261   10.6379 C   0  0  0  0  0  0  0  0  0  0  0  0
   19.8300    1.9175    9.9933 C   0  0  0  0  0  0  0  0  0  0  0  0
   18.3667    2.0003    8.8194 C   0  0  0  0  0  0  0  0  0  0  0  0
   16.3109    2.1557    8.1519 C   0  0  0  0  0  0  0  0  0  0  0  0
   14.6582    2.1659    7.0314 C   0  0  0  0  0  0  0  0  0  0  0  0
   12.6626    2.2619    6.0107 C   0  0  0  0  0  0  0  0  0  0  0  0
    8.9647    3.0664    3.5210 H   0  0  0  0  0  0  0  0  0  0  0  0
    8.9347    1.5459    3.1301 H   0  0  0  0  0  0  0  0  0  0  0  0
   10.0417    1.7900    2.5474 H   0  0  0  0  0  0  0  0  0  0  0  0
    3.8893    0.0320    2.6715 H   0  0  0  0  0  0  0  0  0  0  0  0
    3.9937    1.3444    1.6663 H   0  0  0  0  0  0  0  0  0  0  0  0
    1.8069    0.9994    2.7720 H   0  0  0  0  0  0  0  0  0  0  0  0
    4.3359   -0.0508    4.3916 H   0  0  0  0  0  0  0  0  0  0  0  0
    5.2334    0.5692    5.4799 H   0  0  0  0  0  0  0  0  0  0  0  0
    4.9097   -1.3101    5.0381 H   0  0  0  0  0  0  0  0  0  0  0  0
    8.0591   -1.0314    2.6039 H   0  0  0  0  0  0  0  0  0  0  0  0
    7.6756   -1.1152    5.6700 H   0  0  0  0  0  0  0  0  0  0  0  0
   10.0793   -0.6739    4.0670 H   0  0  0  0  0  0  0  0  0  0  0  0
   11.6888   -0.7315    5.2820 H   0  0  0  0  0  0  0  0  0  0  0  0
   11.3858    0.2858    8.1302 H   0  0  0  0  0  0  0  0  0  0  0  0
   13.6577   -0.4466    6.0058 H   0  0  0  0  0  0  0  0  0  0  0  0
   13.5431    0.1898    8.9518 H   0  0  0  0  0  0  0  0  0  0  0  0
   15.7566   -0.5357    6.7782 H   0  0  0  0  0  0  0  0  0  0  0  0
   15.4551    0.0294    9.7639 H   0  0  0  0  0  0  0  0  0  0  0  0
   17.9043   -0.4249    7.9636 H   0  0  0  0  0  0  0  0  0  0  0  0
   17.3160    0.2440   10.8374 H   0  0  0  0  0  0  0  0  0  0  0  0
   19.6462   -0.7004    9.2320 H   0  0  0  0  0  0  0  0  0  0  0  0
   19.4280   -0.0481   12.1224 H   0  0  0  0  0  0  0  0  0  0  0  0
   21.5485   -0.8169   10.0850 H   0  0  0  0  0  0  0  0  0  0  0  0
   21.7253    0.2053   12.9537 H   0  0  0  0  0  0  0  0  0  0  0  0
   22.6806    1.9465   11.1646 H   0  0  0  0  0  0  0  0  0  0  0  0
   22.7830    0.4848   10.4873 H   0  0  0  0  0  0  0  0  0  0  0  0
   20.1002    2.1593   11.1407 H   0  0  0  0  0  0  0  0  0  0  0  0
   19.3030    1.7755    8.1978 H   0  0  0  0  0  0  0  0  0  0  0  0
   16.3842    2.0718    9.2611 H   0  0  0  0  0  0  0  0  0  0  0  0
   15.3874    1.6555    6.2726 H   0  0  0  0  0  0  0  0  0  0  0  0
   13.1412    1.5424    5.2518 H   0  0  0  0  0  0  0  0  0  0  0  0
  1  2  1  0  0  0  0
  1 33  1  0  0  0  0
  1 34  1  0  0  0  0
  1 35  1  0  0  0  0
  2  3  1  0  0  0  0
  2 32  2  3  0  0  0
  3  4  1  0  0  0  0
  3  7  2  3  0  0  0
  4  5  1  0  0  0  0
  5  6  1  0  0  0  0
  5 36  1  0  0  0  0
  5 37  1  0  0  0  0
  6 38  1  0  0  0  0
  7  8  1  0  0  0  0
  8  9  1  0  0  0  0
  8 10  2  3  0  0  0
  9 39  1  0  0  0  0
  9 40  1  0  0  0  0
  9 41  1  0  0  0  0
 10 11  1  0  0  0  0
 10 42  1  0  0  0  0
 11 12  2  3  0  0  0
 11 43  1  0  0  0  0
 12 13  1  0  0  0  0
 12 44  1  0  0  0  0
 13 14  2  0  0  0  0
 13 15  1  0  0  0  0
 15 16  2  3  0  0  0
 15 45  1  0  0  0  0
 16 17  1  0  0  0  0
 16 46  1  0  0  0  0
 17 18  2  3  0  0  0
 17 47  1  0  0  0  0
 18 19  1  0  0  0  0
 18 48  1  0  0  0  0
 19 20  2  3  0  0  0
 19 49  1  0  0  0  0
 20 21  1  0  0  0  0
 20 50  1  0  0  0  0
 21 22  2  3  0  0  0
 21 51  1  0  0  0  0
 22 23  1  0  0  0  0
 22 52  1  0  0  0  0
 23 24  2  3  0  0  0
 23 53  1  0  0  0  0
 24 25  1  0  0  0  0
 24 54  1  0  0  0  0
 25 26  2  3  0  0  0
 25 55  1  0  0  0  0
 26 27  1  0  0  0  0
 26 56  1  0  0  0  0
 27 28  1  0  0  0  0
 27 57  1  0  0  0  0
 27 58  1  0  0  0  0
 28 29  2  3  0  0  0
 28 59  1  0  0  0  0
 29 30  1  0  0  0  0
 29 60  1  0  0  0  0
 30 31  2  3  0  0  0
 30 61  1  0  0  0  0
 31 32  1  0  0  0  0
 31 62  1  0  0  0  0
 32 63  1  0  0  0  0
M  END
$$$$
