
 OpenBabel04232216493D

 98 98  0  0  1  0  0  0  0  0999 V2000
   21.8893    7.6593   -2.1073 C   0  0  0  0  0  0  0  0  0  0  0  0
   20.9769    7.8589   -0.8943 C   0  0  3  0  0  0  0  0  0  0  0  0
   21.7092    8.6785    0.1767 C   0  0  0  0  0  0  0  0  0  0  0  0
   20.9010    8.9566    1.4448 C   0  0  0  0  0  0  0  0  0  0  0  0
   19.8017    9.9941    1.2238 C   0  0  0  0  0  0  0  0  0  0  0  0
   18.4555    9.4196    0.7563 C   0  0  3  0  0  0  0  0  0  0  0  0
   17.6397    8.9264    1.9720 C   0  0  0  0  0  0  0  0  0  0  0  0
   16.2750    8.3610    1.5782 C   0  0  0  0  0  0  0  0  0  0  0  0
   15.5109    7.8665    2.7973 C   0  0  0  0  0  0  0  0  0  0  0  0
   14.1749    7.2552    2.3801 C   0  0  0  0  0  0  0  0  0  0  0  0
   13.4459    6.7105    3.6051 C   0  0  0  0  0  0  0  0  0  0  0  0
   12.0553    6.1780    3.2870 C   0  0  0  0  0  0  0  0  0  0  0  0
   12.0522    5.0287    2.3081 C   0  0  0  0  0  0  0  0  0  0  0  0
   12.8103    3.7678    2.6768 C   0  0  0  0  0  0  0  0  0  0  0  0
   12.0808    2.5233    2.1728 C   0  0  0  0  0  0  0  0  0  0  0  0
   12.8177    1.2189    2.4616 C   0  0  0  0  0  0  0  0  0  0  0  0
   13.0009    0.9555    3.9524 C   0  0  0  0  0  0  0  0  0  0  0  0
   13.6471   -0.4041    4.1739 C   0  0  0  0  0  0  0  0  0  0  0  0
   13.8599   -0.6592    5.6582 C   0  0  0  0  0  0  0  0  0  0  0  0
   14.5220   -2.0120    5.8573 C   0  0  0  0  0  0  0  0  0  0  0  0
   14.7476   -2.2819    7.3346 C   0  0  0  0  0  0  0  0  0  0  0  0
   15.4099   -3.6374    7.5128 C   0  0  0  0  0  0  0  0  0  0  0  0
   15.6386   -3.9208    8.9866 C   0  0  0  0  0  0  0  0  0  0  0  0
   16.3002   -5.2778    9.1583 C   0  0  0  0  0  0  0  0  0  0  0  0
   16.5297   -5.5643   10.6326 C   0  0  0  0  0  0  0  0  0  0  0  0
   17.1903   -6.9223   10.8089 C   0  0  0  0  0  0  0  0  0  0  0  0
   17.4203   -7.2086   12.2851 C   0  0  0  0  0  0  0  0  0  0  0  0
   18.0843   -8.5667   12.4691 C   0  0  0  0  0  0  0  0  0  0  0  0
   18.3138   -8.8497   13.9491 C   0  0  0  0  0  0  0  0  0  0  0  0
   18.9751  -10.2088   14.1474 C   0  0  0  0  0  0  0  0  0  0  0  0
   19.2021  -10.4904   15.6218 C   0  0  0  0  0  0  0  0  0  0  0  0
   11.4433    5.1271    1.2386 O   0  0  0  0  0  0  0  0  0  0  0  0
   18.5500    8.3178   -0.3121 C   0  0  0  0  0  0  0  0  0  0  0  0
   19.6510    8.4850   -1.3506 C   0  0  0  0  0  0  0  0  0  0  0  0
   22.8347    7.1934   -1.8116 H   0  0  0  0  0  0  0  0  0  0  0  0
   22.1127    8.6125   -2.5976 H   0  0  0  0  0  0  0  0  0  0  0  0
   21.4129    7.0023   -2.8436 H   0  0  0  0  0  0  0  0  0  0  0  0
   20.7734    6.8619   -0.4802 H   0  0  0  0  0  0  0  0  0  0  0  0
   22.0519    9.6294   -0.2512 H   0  0  0  0  0  0  0  0  0  0  0  0
   22.6155    8.1331    0.4696 H   0  0  0  0  0  0  0  0  0  0  0  0
   21.5941    9.3574    2.1951 H   0  0  0  0  0  0  0  0  0  0  0  0
   20.5003    8.0263    1.8625 H   0  0  0  0  0  0  0  0  0  0  0  0
   20.1437   10.7464    0.5016 H   0  0  0  0  0  0  0  0  0  0  0  0
   19.6462   10.5465    2.1601 H   0  0  0  0  0  0  0  0  0  0  0  0
   17.8960   10.2573    0.3163 H   0  0  0  0  0  0  0  0  0  0  0  0
   17.4925    9.7598    2.6712 H   0  0  0  0  0  0  0  0  0  0  0  0
   18.2070    8.1592    2.5138 H   0  0  0  0  0  0  0  0  0  0  0  0
   16.3957    7.5166    0.8912 H   0  0  0  0  0  0  0  0  0  0  0  0
   15.6945    9.1289    1.0536 H   0  0  0  0  0  0  0  0  0  0  0  0
   15.3426    8.6961    3.4936 H   0  0  0  0  0  0  0  0  0  0  0  0
   16.1104    7.1139    3.3248 H   0  0  0  0  0  0  0  0  0  0  0  0
   14.3504    6.4496    1.6564 H   0  0  0  0  0  0  0  0  0  0  0  0
   13.5619    8.0130    1.8774 H   0  0  0  0  0  0  0  0  0  0  0  0
   13.3430    7.5147    4.3438 H   0  0  0  0  0  0  0  0  0  0  0  0
   14.0566    5.9285    4.0713 H   0  0  0  0  0  0  0  0  0  0  0  0
   11.4348    6.9812    2.8754 H   0  0  0  0  0  0  0  0  0  0  0  0
   11.5718    5.8345    4.2065 H   0  0  0  0  0  0  0  0  0  0  0  0
   12.9018    3.7348    3.7667 H   0  0  0  0  0  0  0  0  0  0  0  0
   13.8160    3.8354    2.2480 H   0  0  0  0  0  0  0  0  0  0  0  0
   11.9328    2.5948    1.0885 H   0  0  0  0  0  0  0  0  0  0  0  0
   11.0789    2.4833    2.6182 H   0  0  0  0  0  0  0  0  0  0  0  0
   13.7949    1.2258    1.9635 H   0  0  0  0  0  0  0  0  0  0  0  0
   12.2441    0.3943    2.0197 H   0  0  0  0  0  0  0  0  0  0  0  0
   12.0308    0.9921    4.4624 H   0  0  0  0  0  0  0  0  0  0  0  0
   13.6362    1.7272    4.4013 H   0  0  0  0  0  0  0  0  0  0  0  0
   14.6106   -0.4466    3.6512 H   0  0  0  0  0  0  0  0  0  0  0  0
   13.0134   -1.1929    3.7504 H   0  0  0  0  0  0  0  0  0  0  0  0
   12.8987   -0.6319    6.1860 H   0  0  0  0  0  0  0  0  0  0  0  0
   14.4892    0.1296    6.0885 H   0  0  0  0  0  0  0  0  0  0  0  0
   15.4813   -2.0383    5.3257 H   0  0  0  0  0  0  0  0  0  0  0  0
   13.8924   -2.8010    5.4277 H   0  0  0  0  0  0  0  0  0  0  0  0
   13.7905   -2.2596    7.8700 H   0  0  0  0  0  0  0  0  0  0  0  0
   15.3804   -1.4969    7.7667 H   0  0  0  0  0  0  0  0  0  0  0  0
   16.3668   -3.6577    6.9765 H   0  0  0  0  0  0  0  0  0  0  0  0
   14.7778   -4.4208    7.0765 H   0  0  0  0  0  0  0  0  0  0  0  0
   14.6817   -3.9011    9.5225 H   0  0  0  0  0  0  0  0  0  0  0  0
   16.2714   -3.1382    9.4229 H   0  0  0  0  0  0  0  0  0  0  0  0
   17.2561   -5.2968    8.6203 H   0  0  0  0  0  0  0  0  0  0  0  0
   15.6663   -6.0587    8.7203 H   0  0  0  0  0  0  0  0  0  0  0  0
   15.5725   -5.5424   11.1679 H   0  0  0  0  0  0  0  0  0  0  0  0
   17.1627   -4.7814   11.0683 H   0  0  0  0  0  0  0  0  0  0  0  0
   18.1463   -6.9421   10.2711 H   0  0  0  0  0  0  0  0  0  0  0  0
   16.5559   -7.7030   10.3713 H   0  0  0  0  0  0  0  0  0  0  0  0
   16.4627   -7.1864   12.8197 H   0  0  0  0  0  0  0  0  0  0  0  0
   18.0510   -6.4232   12.7193 H   0  0  0  0  0  0  0  0  0  0  0  0
   19.0413   -8.5861   11.9330 H   0  0  0  0  0  0  0  0  0  0  0  0
   17.4514   -9.3495   12.0328 H   0  0  0  0  0  0  0  0  0  0  0  0
   17.3546   -8.8231   14.4812 H   0  0  0  0  0  0  0  0  0  0  0  0
   18.9442   -8.0633   14.3802 H   0  0  0  0  0  0  0  0  0  0  0  0
   19.9350  -10.2366   13.6193 H   0  0  0  0  0  0  0  0  0  0  0  0
   18.3448  -10.9966   13.7185 H   0  0  0  0  0  0  0  0  0  0  0  0
   19.8521   -9.7309   16.0680 H   0  0  0  0  0  0  0  0  0  0  0  0
   19.6769  -11.4669   15.7519 H   0  0  0  0  0  0  0  0  0  0  0  0
   18.2533  -10.4945   16.1680 H   0  0  0  0  0  0  0  0  0  0  0  0
   17.5936    8.2927   -0.8509 H   0  0  0  0  0  0  0  0  0  0  0  0
   18.6484    7.3338    0.1655 H   0  0  0  0  0  0  0  0  0  0  0  0
   19.7773    9.5374   -1.6298 H   0  0  0  0  0  0  0  0  0  0  0  0
   19.3164    7.9642   -2.2577 H   0  0  0  0  0  0  0  0  0  0  0  0
  1  2  1  0  0  0  0
  1 35  1  0  0  0  0
  1 36  1  0  0  0  0
  1 37  1  0  0  0  0
  2  3  1  0  0  0  0
  2 34  1  0  0  0  0
  2 38  1  0  0  0  0
  3  4  1  0  0  0  0
  3 39  1  0  0  0  0
  3 40  1  0  0  0  0
  4  5  1  0  0  0  0
  4 41  1  0  0  0  0
  4 42  1  0  0  0  0
  5  6  1  0  0  0  0
  5 43  1  0  0  0  0
  5 44  1  0  0  0  0
  6  7  1  0  0  0  0
  6 33  1  0  0  0  0
  6 45  1  0  0  0  0
  7  8  1  0  0  0  0
  7 46  1  0  0  0  0
  7 47  1  0  0  0  0
  8  9  1  0  0  0  0
  8 48  1  0  0  0  0
  8 49  1  0  0  0  0
  9 10  1  0  0  0  0
  9 50  1  0  0  0  0
  9 51  1  0  0  0  0
 10 11  1  0  0  0  0
 10 52  1  0  0  0  0
 10 53  1  0  0  0  0
 11 12  1  0  0  0  0
 11 54  1  0  0  0  0
 11 55  1  0  0  0  0
 12 13  1  0  0  0  0
 12 56  1  0  0  0  0
 12 57  1  0  0  0  0
 13 14  1  0  0  0  0
 13 32  2  0  0  0  0
 14 15  1  0  0  0  0
 14 58  1  0  0  0  0
 14 59  1  0  0  0  0
 15 16  1  0  0  0  0
 15 60  1  0  0  0  0
 15 61  1  0  0  0  0
 16 17  1  0  0  0  0
 16 62  1  0  0  0  0
 16 63  1  0  0  0  0
 17 18  1  0  0  0  0
 17 64  1  0  0  0  0
 17 65  1  0  0  0  0
 18 19  1  0  0  0  0
 18 66  1  0  0  0  0
 18 67  1  0  0  0  0
 19 20  1  0  0  0  0
 19 68  1  0  0  0  0
 19 69  1  0  0  0  0
 20 21  1  0  0  0  0
 20 70  1  0  0  0  0
 20 71  1  0  0  0  0
 21 22  1  0  0  0  0
 21 72  1  0  0  0  0
 21 73  1  0  0  0  0
 22 23  1  0  0  0  0
 22 74  1  0  0  0  0
 22 75  1  0  0  0  0
 23 24  1  0  0  0  0
 23 76  1  0  0  0  0
 23 77  1  0  0  0  0
 24 25  1  0  0  0  0
 24 78  1  0  0  0  0
 24 79  1  0  0  0  0
 25 26  1  0  0  0  0
 25 80  1  0  0  0  0
 25 81  1  0  0  0  0
 26 27  1  0  0  0  0
 26 82  1  0  0  0  0
 26 83  1  0  0  0  0
 27 28  1  0  0  0  0
 27 84  1  0  0  0  0
 27 85  1  0  0  0  0
 28 29  1  0  0  0  0
 28 86  1  0  0  0  0
 28 87  1  0  0  0  0
 29 30  1  0  0  0  0
 29 88  1  0  0  0  0
 29 89  1  0  0  0  0
 30 31  1  0  0  0  0
 30 90  1  0  0  0  0
 30 91  1  0  0  0  0
 31 92  1  0  0  0  0
 31 93  1  0  0  0  0
 31 94  1  0  0  0  0
 33 34  1  0  0  0  0
 33 95  1  0  0  0  0
 33 96  1  0  0  0  0
 34 97  1  0  0  0  0
 34 98  1  0  0  0  0
M  END
$$$$
