
 OpenBabel04232217023D

164163  0  0  0  0  0  0  0  0999 V2000
   20.3013  -26.5491   -7.6613 O   0  0  0  0  0  0  0  0  0  0  0  0
   21.7426  -26.3295   -7.5726 N   0  0  0  0  0  0  0  0  0  0  0  0
   22.1957  -26.2503   -8.9603 C   0  0  0  0  0  0  0  0  0  0  0  0
   21.5697  -25.0946   -9.6350 N   0  0  0  0  0  0  0  0  0  0  0  0
   21.8783  -23.9001   -8.9222 N   0  0  0  0  0  0  0  0  0  0  0  0
   23.2877  -23.6857   -8.9194 N   0  0  0  0  0  0  0  0  0  0  0  0
   23.6059  -22.5033   -8.2239 N   0  0  0  0  0  0  0  0  0  0  0  0
   23.1554  -22.5982   -6.8724 N   0  0  0  0  0  0  0  0  0  0  0  0
   23.7797  -23.7147   -6.2263 N   0  0  0  0  0  0  0  0  0  0  0  0
   25.2011  -23.5428   -6.2401 N   0  0  0  0  0  0  0  0  0  0  0  0
   25.5397  -22.3329   -5.5583 N   0  0  0  0  0  0  0  0  0  0  0  0
   25.0698  -22.4011   -4.2076 N   0  0  0  0  0  0  0  0  0  0  0  0
   25.6732  -23.5207   -3.5495 N   0  0  0  0  0  0  0  0  0  0  0  0
   27.0955  -23.3723   -3.5657 N   0  0  0  0  0  0  0  0  0  0  0  0
   27.4547  -22.1608   -2.8970 N   0  0  0  0  0  0  0  0  0  0  0  0
   26.9843  -22.2050   -1.5466 N   0  0  0  0  0  0  0  0  0  0  0  0
   27.5672  -23.3266   -0.8767 N   0  0  0  0  0  0  0  0  0  0  0  0
   28.9945  -23.2003   -0.8987 N   0  0  0  0  0  0  0  0  0  0  0  0
   29.3675  -21.9796   -0.2421 N   0  0  0  0  0  0  0  0  0  0  0  0
   28.8872  -22.0069    1.1117 N   0  0  0  0  0  0  0  0  0  0  0  0
   29.4585  -23.1372    1.7927 N   0  0  0  0  0  0  0  0  0  0  0  0
   30.8901  -23.0261    1.7783 N   0  0  0  0  0  0  0  0  0  0  0  0
   31.2801  -21.8135    2.4212 N   0  0  0  0  0  0  0  0  0  0  0  0
   30.8071  -21.8139    3.7631 N   0  0  0  0  0  0  0  0  0  0  0  0
   31.3522  -22.9305    4.4577 N   0  0  0  0  0  0  0  0  0  0  0  0
   32.7760  -22.8515    4.4479 N   0  0  0  0  0  0  0  0  0  0  0  0
   33.1916  -21.6393    5.0773 N   0  0  0  0  0  0  0  0  0  0  0  0
   32.7199  -21.6159    6.4223 N   0  0  0  0  0  0  0  0  0  0  0  0
   33.2487  -22.7352    7.1315 N   0  0  0  0  0  0  0  0  0  0  0  0
   34.6745  -22.6741    7.1106 N   0  0  0  0  0  0  0  0  0  0  0  0
   35.0969  -21.4571    7.7258 N   0  0  0  0  0  0  0  0  0  0  0  0
   34.6322  -21.4175    9.0769 N   0  0  0  0  0  0  0  0  0  0  0  0
   35.1567  -22.5306    9.8089 N   0  0  0  0  0  0  0  0  0  0  0  0
   36.5803  -22.4853    9.8135 N   0  0  0  0  0  0  0  0  0  0  0  0
   37.0310  -21.2847   10.4252 N   0  0  0  0  0  0  0  0  0  0  0  0
   36.5702  -21.2160   11.7670 N   0  0  0  0  0  0  0  0  0  0  0  0
   37.0641  -22.3215   12.5115 N   0  0  0  0  0  0  0  0  0  0  0  0
   38.4921  -22.3137   12.5113 N   0  0  0  0  0  0  0  0  0  0  0  0
   38.9676  -21.0986   13.1022 N   0  0  0  0  0  0  0  0  0  0  0  0
   38.4903  -21.0025   14.4517 N   0  0  0  0  0  0  0  0  0  0  0  0
   38.9710  -22.1245   15.2100 N   0  0  0  0  0  0  0  0  0  0  0  0
   40.4043  -22.1376   15.2103 N   0  0  0  0  0  0  0  0  0  0  0  0
   40.8925  -20.9212   15.7792 N   0  0  0  0  0  0  0  0  0  0  0  0
   40.4025  -20.8078   17.1110 N   0  0  0  0  0  0  0  0  0  0  0  0
   40.8488  -21.9368   17.8656 N   0  0  0  0  0  0  0  0  0  0  0  0
   42.2788  -21.9643   17.8504 N   0  0  0  0  0  0  0  0  0  0  0  0
   42.7743  -20.7498   18.4142 N   0  0  0  0  0  0  0  0  0  0  0  0
   42.3038  -20.6248   19.7488 N   0  0  0  0  0  0  0  0  0  0  0  0
   42.7436  -21.7206   20.5340 N   0  0  0  0  0  0  0  0  0  0  0  0
   44.1545  -21.7736   20.5339 N   0  0  0  0  0  0  0  0  0  0  0  0
   44.6720  -20.5734   21.0835 N   0  0  0  0  0  0  0  0  0  0  0  0
   44.2098  -20.4136   22.4188 N   0  0  0  0  0  0  0  0  0  0  0  0
   44.6321  -21.5122   23.2127 N   0  0  0  0  0  0  0  0  0  0  0  0
   46.0505  -21.5929   23.2184 N   0  0  0  0  0  0  0  0  0  0  0  0
   46.5961  -20.3921   23.7540 N   0  0  0  0  0  0  0  0  0  0  0  0
   46.1308  -20.2069   25.0905 N   0  0  0  0  0  0  0  0  0  0  0  0
   46.5347  -21.3085   25.9101 N   0  0  0  0  0  0  0  0  0  0  0  0
   47.9528  -21.4211   25.9073 N   0  0  0  0  0  0  0  0  0  0  0  0
   48.5187  -20.2171   26.4254 N   0  0  0  0  0  0  0  0  0  0  0  0
   48.0480  -20.0065   27.7595 N   0  0  0  0  0  0  0  0  0  0  0  0
   48.4178  -21.1159   28.5806 N   0  0  0  0  0  0  0  0  0  0  0  0
   49.8496  -21.2397   28.5878 N   0  0  0  0  0  0  0  0  0  0  0  0
   50.4362  -20.0239   29.1049 N   0  0  0  0  0  0  0  0  0  0  0  0
   49.9350  -19.8020   30.4344 N   0  0  0  0  0  0  0  0  0  0  0  0
   50.3046  -20.9218   31.2593 N   0  0  0  0  0  0  0  0  0  0  0  0
   51.7383  -21.0594   31.2545 N   0  0  0  0  0  0  0  0  0  0  0  0
   52.3289  -19.8450   31.7606 N   0  0  0  0  0  0  0  0  0  0  0  0
   51.8448  -19.5982   33.0964 N   0  0  0  0  0  0  0  0  0  0  0  0
   52.2026  -20.7104   33.9491 N   0  0  0  0  0  0  0  0  0  0  0  0
   53.6382  -20.8694   33.9564 N   0  0  0  0  0  0  0  0  0  0  0  0
   54.2478  -19.6592   34.4510 N   0  0  0  0  0  0  0  0  0  0  0  0
   53.7624  -19.3963   35.7783 N   0  0  0  0  0  0  0  0  0  0  0  0
   54.0995  -20.5060   36.6244 N   0  0  0  0  0  0  0  0  0  0  0  0
   55.5245  -20.6766   36.6330 N   0  0  0  0  0  0  0  0  0  0  0  0
   56.1447  -19.4746   37.1092 N   0  0  0  0  0  0  0  0  0  0  0  0
   55.6711  -19.1941   38.4320 N   0  0  0  0  0  0  0  0  0  0  0  0
   55.9918  -20.2950   39.2927 N   0  0  0  0  0  0  0  0  0  0  0  0
   57.4120  -20.4864   39.3116 N   0  0  0  0  0  0  0  0  0  0  0  0
   58.0550  -19.2973   39.7859 N   0  0  0  0  0  0  0  0  0  0  0  0
   57.5952  -18.9913   41.1023 N   0  0  0  0  0  0  0  0  0  0  0  0
   57.8918  -20.0703   41.9798 N   0  0  0  0  0  0  0  0  0  0  0  0
   20.0247  -26.5832   -6.7283 H   0  0  0  0  0  0  0  0  0  0  0  0
   22.1060  -27.1815   -7.1464 H   0  0  0  0  0  0  0  0  0  0  0  0
   21.9707  -27.1655   -9.5138 H   0  0  0  0  0  0  0  0  0  0  0  0
   23.2926  -26.1282   -8.9876 H   0  0  0  0  0  0  0  0  0  0  0  0
   20.5465  -25.2758   -9.6212 H   0  0  0  0  0  0  0  0  0  0  0  0
   21.5041  -24.0138   -7.9798 H   0  0  0  0  0  0  0  0  0  0  0  0
   23.5931  -23.6404   -9.8910 H   0  0  0  0  0  0  0  0  0  0  0  0
   23.1394  -21.7332   -8.6892 H   0  0  0  0  0  0  0  0  0  0  0  0
   22.1460  -22.7380   -6.8739 H   0  0  0  0  0  0  0  0  0  0  0  0
   23.5281  -24.5660   -6.7488 H   0  0  0  0  0  0  0  0  0  0  0  0
   25.4978  -23.4837   -7.2148 H   0  0  0  0  0  0  0  0  0  0  0  0
   25.0766  -21.5606   -6.0378 H   0  0  0  0  0  0  0  0  0  0  0  0
   24.0569  -22.5310   -4.2207 H   0  0  0  0  0  0  0  0  0  0  0  0
   25.4167  -24.3705   -4.0559 H   0  0  0  0  0  0  0  0  0  0  0  0
   27.4069  -23.3243   -4.5353 H   0  0  0  0  0  0  0  0  0  0  0  0
   27.0117  -21.3789   -3.3784 H   0  0  0  0  0  0  0  0  0  0  0  0
   25.9705  -22.3149   -1.5538 H   0  0  0  0  0  0  0  0  0  0  0  0
   27.2939  -24.1847   -1.3631 H   0  0  0  0  0  0  0  0  0  0  0  0
   29.3154  -23.1747   -1.8768 H   0  0  0  0  0  0  0  0  0  0  0  0
   28.9441  -21.1851   -0.7464 H   0  0  0  0  0  0  0  0  0  0  0  0
   27.8583  -22.0881    1.1033 H   0  0  0  0  0  0  0  0  0  0  0  0
   29.1687  -24.0064    1.3183 H   0  0  0  0  0  0  0  0  0  0  0  0
   31.2282  -23.0136    0.8131 H   0  0  0  0  0  0  0  0  0  0  0  0
   30.8886  -21.0103    1.9430 H   0  0  0  0  0  0  0  0  0  0  0  0
   29.7997  -21.8835    3.7920 H   0  0  0  0  0  0  0  0  0  0  0  0
   31.0847  -23.7977    4.0171 H   0  0  0  0  0  0  0  0  0  0  0  0
   33.1325  -22.8448    3.5053 H   0  0  0  0  0  0  0  0  0  0  0  0
   32.8083  -20.8362    4.6015 H   0  0  0  0  0  0  0  0  0  0  0  0
   31.7155  -21.6789    6.4552 H   0  0  0  0  0  0  0  0  0  0  0  0
   32.9666  -23.6053    6.7017 H   0  0  0  0  0  0  0  0  0  0  0  0
   35.0273  -22.6892    6.1579 H   0  0  0  0  0  0  0  0  0  0  0  0
   34.7319  -20.6445    7.2319 H   0  0  0  0  0  0  0  0  0  0  0  0
   33.6103  -21.4551    9.1140 H   0  0  0  0  0  0  0  0  0  0  0  0
   34.8664  -23.4088    9.3808 H   0  0  0  0  0  0  0  0  0  0  0  0
   36.9346  -22.5060    8.8644 H   0  0  0  0  0  0  0  0  0  0  0  0
   36.6572  -20.4873    9.9254 H   0  0  0  0  0  0  0  0  0  0  0  0
   35.5569  -21.2591   11.7777 H   0  0  0  0  0  0  0  0  0  0  0  0
   36.7491  -23.1794   12.0666 H   0  0  0  0  0  0  0  0  0  0  0  0
   38.7996  -22.3605   11.5294 H   0  0  0  0  0  0  0  0  0  0  0  0
   38.5826  -20.3195   12.5338 H   0  0  0  0  0  0  0  0  0  0  0  0
   37.4474  -21.0168   14.3964 H   0  0  0  0  0  0  0  0  0  0  0  0
   38.6101  -22.9751   14.7400 H   0  0  0  0  0  0  0  0  0  0  0  0
   40.6994  -22.1985   14.2289 H   0  0  0  0  0  0  0  0  0  0  0  0
   40.5238  -20.1548   15.2181 H   0  0  0  0  0  0  0  0  0  0  0  0
   39.3823  -20.8115   17.0732 H   0  0  0  0  0  0  0  0  0  0  0  0
   40.4856  -22.7900   17.4233 H   0  0  0  0  0  0  0  0  0  0  0  0
   42.6047  -22.0509   16.8809 H   0  0  0  0  0  0  0  0  0  0  0  0
   42.4384  -19.9548   17.8678 H   0  0  0  0  0  0  0  0  0  0  0  0
   41.2923  -20.5998   19.7714 H   0  0  0  0  0  0  0  0  0  0  0  0
   42.3952  -22.5866   20.1455 H   0  0  0  0  0  0  0  0  0  0  0  0
   44.4987  -21.8776   19.5802 H   0  0  0  0  0  0  0  0  0  0  0  0
   44.3669  -19.7708   20.5280 H   0  0  0  0  0  0  0  0  0  0  0  0
   43.1903  -20.3882   22.4285 H   0  0  0  0  0  0  0  0  0  0  0  0
   44.2684  -22.3734   22.8195 H   0  0  0  0  0  0  0  0  0  0  0  0
   46.3750  -21.7069   22.2558 H   0  0  0  0  0  0  0  0  0  0  0  0
   46.2792  -19.6066   23.1726 H   0  0  0  0  0  0  0  0  0  0  0  0
   45.1080  -20.1669   25.0724 H   0  0  0  0  0  0  0  0  0  0  0  0
   46.1343  -22.1599   25.5099 H   0  0  0  0  0  0  0  0  0  0  0  0
   48.2580  -21.5591   24.9331 H   0  0  0  0  0  0  0  0  0  0  0  0
   48.2096  -19.4432   25.8169 H   0  0  0  0  0  0  0  0  0  0  0  0
   47.0269  -19.9501   27.7381 H   0  0  0  0  0  0  0  0  0  0  0  0
   47.9876  -21.9630   28.1687 H   0  0  0  0  0  0  0  0  0  0  0  0
   50.1421  -21.3876   27.6031 H   0  0  0  0  0  0  0  0  0  0  0  0
   50.1232  -19.2487   28.4968 H   0  0  0  0  0  0  0  0  0  0  0  0
   48.9046  -19.7277   30.3815 H   0  0  0  0  0  0  0  0  0  0  0  0
   49.8940  -21.7731   30.8672 H   0  0  0  0  0  0  0  0  0  0  0  0
   52.0459  -21.2200   30.2849 H   0  0  0  0  0  0  0  0  0  0  0  0
   52.0503  -19.0652   31.1588 H   0  0  0  0  0  0  0  0  0  0  0  0
   50.8217  -19.4972   33.0660 H   0  0  0  0  0  0  0  0  0  0  0  0
   51.7720  -21.5620   33.5705 H   0  0  0  0  0  0  0  0  0  0  0  0
   53.9459  -21.0520   32.9878 H   0  0  0  0  0  0  0  0  0  0  0  0
   53.9925  -18.8763   33.8371 H   0  0  0  0  0  0  0  0  0  0  0  0
   52.7374  -19.2776   35.7521 H   0  0  0  0  0  0  0  0  0  0  0  0
   53.6517  -21.3646   36.2744 H   0  0  0  0  0  0  0  0  0  0  0  0
   55.8598  -20.8628   35.6842 H   0  0  0  0  0  0  0  0  0  0  0  0
   55.9104  -18.6941   36.4828 H   0  0  0  0  0  0  0  0  0  0  0  0
   54.6546  -19.0563   38.4206 H   0  0  0  0  0  0  0  0  0  0  0  0
   55.5426  -21.1561   38.9575 H   0  0  0  0  0  0  0  0  0  0  0  0
   57.7633  -20.6987   38.3745 H   0  0  0  0  0  0  0  0  0  0  0  0
   57.8427  -18.5077   39.1609 H   0  0  0  0  0  0  0  0  0  0  0  0
   56.5804  -18.8331   41.0984 H   0  0  0  0  0  0  0  0  0  0  0  0
   58.9043  -20.2375   41.9966 H   0  0  0  0  0  0  0  0  0  0  0  0
   57.4515  -20.9381   41.6635 H   0  0  0  0  0  0  0  0  0  0  0  0
  1  2  1  0  0  0  0
  1 82  1  0  0  0  0
  2  3  1  0  0  0  0
  2 83  1  0  0  0  0
  3  4  1  0  0  0  0
  3 84  1  0  0  0  0
  3 85  1  0  0  0  0
  4  5  1  0  0  0  0
  4 86  1  0  0  0  0
  5  6  1  0  0  0  0
  5 87  1  0  0  0  0
  6  7  1  0  0  0  0
  6 88  1  0  0  0  0
  7  8  1  0  0  0  0
  7 89  1  0  0  0  0
  8  9  1  0  0  0  0
  8 90  1  0  0  0  0
  9 10  1  0  0  0  0
  9 91  1  0  0  0  0
 10 11  1  0  0  0  0
 10 92  1  0  0  0  0
 11 12  1  0  0  0  0
 11 93  1  0  0  0  0
 12 13  1  0  0  0  0
 12 94  1  0  0  0  0
 13 14  1  0  0  0  0
 13 95  1  0  0  0  0
 14 15  1  0  0  0  0
 14 96  1  0  0  0  0
 15 16  1  0  0  0  0
 15 97  1  0  0  0  0
 16 17  1  0  0  0  0
 16 98  1  0  0  0  0
 17 18  1  0  0  0  0
 17 99  1  0  0  0  0
 18 19  1  0  0  0  0
 18100  1  0  0  0  0
 19 20  1  0  0  0  0
 19101  1  0  0  0  0
 20 21  1  0  0  0  0
 20102  1  0  0  0  0
 21 22  1  0  0  0  0
 21103  1  0  0  0  0
 22 23  1  0  0  0  0
 22104  1  0  0  0  0
 23 24  1  0  0  0  0
 23105  1  0  0  0  0
 24 25  1  0  0  0  0
 24106  1  0  0  0  0
 25 26  1  0  0  0  0
 25107  1  0  0  0  0
 26 27  1  0  0  0  0
 26108  1  0  0  0  0
 27 28  1  0  0  0  0
 27109  1  0  0  0  0
 28 29  1  0  0  0  0
 28110  1  0  0  0  0
 29 30  1  0  0  0  0
 29111  1  0  0  0  0
 30 31  1  0  0  0  0
 30112  1  0  0  0  0
 31 32  1  0  0  0  0
 31113  1  0  0  0  0
 32 33  1  0  0  0  0
 32114  1  0  0  0  0
 33 34  1  0  0  0  0
 33115  1  0  0  0  0
 34 35  1  0  0  0  0
 34116  1  0  0  0  0
 35 36  1  0  0  0  0
 35117  1  0  0  0  0
 36 37  1  0  0  0  0
 36118  1  0  0  0  0
 37 38  1  0  0  0  0
 37119  1  0  0  0  0
 38 39  1  0  0  0  0
 38120  1  0  0  0  0
 39 40  1  0  0  0  0
 39121  1  0  0  0  0
 40 41  1  0  0  0  0
 40122  1  0  0  0  0
 41 42  1  0  0  0  0
 41123  1  0  0  0  0
 42 43  1  0  0  0  0
 42124  1  0  0  0  0
 43 44  1  0  0  0  0
 43125  1  0  0  0  0
 44 45  1  0  0  0  0
 44126  1  0  0  0  0
 45 46  1  0  0  0  0
 45127  1  0  0  0  0
 46 47  1  0  0  0  0
 46128  1  0  0  0  0
 47 48  1  0  0  0  0
 47129  1  0  0  0  0
 48 49  1  0  0  0  0
 48130  1  0  0  0  0
 49 50  1  0  0  0  0
 49131  1  0  0  0  0
 50 51  1  0  0  0  0
 50132  1  0  0  0  0
 51 52  1  0  0  0  0
 51133  1  0  0  0  0
 52 53  1  0  0  0  0
 52134  1  0  0  0  0
 53 54  1  0  0  0  0
 53135  1  0  0  0  0
 54 55  1  0  0  0  0
 54136  1  0  0  0  0
 55 56  1  0  0  0  0
 55137  1  0  0  0  0
 56 57  1  0  0  0  0
 56138  1  0  0  0  0
 57 58  1  0  0  0  0
 57139  1  0  0  0  0
 58 59  1  0  0  0  0
 58140  1  0  0  0  0
 59 60  1  0  0  0  0
 59141  1  0  0  0  0
 60 61  1  0  0  0  0
 60142  1  0  0  0  0
 61 62  1  0  0  0  0
 61143  1  0  0  0  0
 62 63  1  0  0  0  0
 62144  1  0  0  0  0
 63 64  1  0  0  0  0
 63145  1  0  0  0  0
 64 65  1  0  0  0  0
 64146  1  0  0  0  0
 65 66  1  0  0  0  0
 65147  1  0  0  0  0
 66 67  1  0  0  0  0
 66148  1  0  0  0  0
 67 68  1  0  0  0  0
 67149  1  0  0  0  0
 68 69  1  0  0  0  0
 68150  1  0  0  0  0
 69 70  1  0  0  0  0
 69151  1  0  0  0  0
 70 71  1  0  0  0  0
 70152  1  0  0  0  0
 71 72  1  0  0  0  0
 71153  1  0  0  0  0
 72 73  1  0  0  0  0
 72154  1  0  0  0  0
 73 74  1  0  0  0  0
 73155  1  0  0  0  0
 74 75  1  0  0  0  0
 74156  1  0  0  0  0
 75 76  1  0  0  0  0
 75157  1  0  0  0  0
 76 77  1  0  0  0  0
 76158  1  0  0  0  0
 77 78  1  0  0  0  0
 77159  1  0  0  0  0
 78 79  1  0  0  0  0
 78160  1  0  0  0  0
 79 80  1  0  0  0  0
 79161  1  0  0  0  0
 80 81  1  0  0  0  0
 80162  1  0  0  0  0
 81163  1  0  0  0  0
 81164  1  0  0  0  0
M  END
$$$$
