
 OpenBabel04232216423D

 15 16  0  0  0  0  0  0  0  0999 V2000
    3.8927    1.8782    1.3935 C   0  0  0  0  0  0  0  0  0  0  0  0
    2.8035    2.8127    1.2066 C   0  0  0  0  0  0  0  0  0  0  0  0
    1.6131    2.1918    1.1940 C   0  0  0  0  0  0  0  0  0  0  0  0
    1.9624    0.7886    1.3785 C   0  0  0  0  0  0  0  0  0  0  0  0
    3.3925    0.6628    1.5513 C   0  0  0  0  0  0  0  0  0  0  0  0
    3.5512   -0.7491    1.8023 C   0  0  0  0  0  0  0  0  0  0  0  0
    4.8332   -1.3658    2.2290 C   0  0  0  0  0  0  0  0  0  0  0  0
    1.3550   -0.3478    1.4357 N   0  0  0  0  0  0  0  0  0  0  0  0
    2.3925   -1.3626    1.7196 N   0  0  0  0  0  0  0  0  0  0  0  0
    4.9347    2.1537    1.4183 H   0  0  0  0  0  0  0  0  0  0  0  0
    2.9485    3.8815    1.1394 H   0  0  0  0  0  0  0  0  0  0  0  0
    0.6205    2.5908    1.1217 H   0  0  0  0  0  0  0  0  0  0  0  0
    5.6810   -0.8754    1.7425 H   0  0  0  0  0  0  0  0  0  0  0  0
    4.8419   -2.4322    1.9944 H   0  0  0  0  0  0  0  0  0  0  0  0
    4.9245   -1.2396    3.3112 H   0  0  0  0  0  0  0  0  0  0  0  0
  1  2  1  0  0  0  0
  1  5  2  0  0  0  0
  1 10  1  0  0  0  0
  2  3  2  0  0  0  0
  2 11  1  0  0  0  0
  3  4  1  0  0  0  0
  3 12  1  0  0  0  0
  4  5  1  0  0  0  0
  4  8  2  0  0  0  0
  5  6  1  0  0  0  0
  6  7  1  0  0  0  0
  6  9  2  0  0  0  0
  7 13  1  0  0  0  0
  7 14  1  0  0  0  0
  7 15  1  0  0  0  0
  8  9  1  0  0  0  0
M  END
$$$$
