
 OpenBabel04232217023D

 83 82  0  0  0  0  0  0  0  0999 V2000
    2.9982    0.7220    1.1736 O   0  0  0  0  0  0  0  0  0  0  0  0
    2.5458    0.0590   -0.0513 O   0  0  0  0  0  0  0  0  0  0  0  0
    2.9704    0.9856   -1.3826 S   0  0  0  0  0  0  0  0  0  0  0  0
    5.0404    0.8712   -1.2849 S   0  0  0  0  0  0  0  0  0  0  0  0
    5.7578    1.9921   -2.8929 S   0  0  0  0  0  0  0  0  0  0  0  0
    7.8500    1.9729   -2.8654 S   0  0  0  0  0  0  0  0  0  0  0  0
    8.5226    3.0988   -4.5130 S   0  0  0  0  0  0  0  0  0  0  0  0
   10.6278    3.0965   -4.5095 S   0  0  0  0  0  0  0  0  0  0  0  0
   11.3143    4.2213   -6.1552 S   0  0  0  0  0  0  0  0  0  0  0  0
   13.4244    4.2141   -6.1445 S   0  0  0  0  0  0  0  0  0  0  0  0
   14.1160    5.3387   -7.7900 S   0  0  0  0  0  0  0  0  0  0  0  0
   16.2257    5.3313   -7.7791 S   0  0  0  0  0  0  0  0  0  0  0  0
   16.9165    6.4561   -9.4248 S   0  0  0  0  0  0  0  0  0  0  0  0
   19.0260    6.4487   -9.4139 S   0  0  0  0  0  0  0  0  0  0  0  0
   19.7166    7.5734  -11.0595 S   0  0  0  0  0  0  0  0  0  0  0  0
   21.8260    7.5659  -11.0485 S   0  0  0  0  0  0  0  0  0  0  0  0
   22.5166    8.6906  -12.6940 S   0  0  0  0  0  0  0  0  0  0  0  0
   24.6260    8.6831  -12.6831 S   0  0  0  0  0  0  0  0  0  0  0  0
   25.3166    9.8078  -14.3286 S   0  0  0  0  0  0  0  0  0  0  0  0
   27.4260    9.8004  -14.3177 S   0  0  0  0  0  0  0  0  0  0  0  0
   28.1166   10.9251  -15.9632 S   0  0  0  0  0  0  0  0  0  0  0  0
   30.2260   10.9176  -15.9522 S   0  0  0  0  0  0  0  0  0  0  0  0
   30.9166   12.0423  -17.5978 S   0  0  0  0  0  0  0  0  0  0  0  0
   33.0260   12.0348  -17.5868 S   0  0  0  0  0  0  0  0  0  0  0  0
   33.7166   13.1595  -19.2323 S   0  0  0  0  0  0  0  0  0  0  0  0
   35.8260   13.1520  -19.2214 S   0  0  0  0  0  0  0  0  0  0  0  0
   36.5166   14.2767  -20.8669 S   0  0  0  0  0  0  0  0  0  0  0  0
   38.6260   14.2693  -20.8560 S   0  0  0  0  0  0  0  0  0  0  0  0
   39.3166   15.3940  -22.5015 S   0  0  0  0  0  0  0  0  0  0  0  0
   41.4260   15.3865  -22.4905 S   0  0  0  0  0  0  0  0  0  0  0  0
   42.1166   16.5112  -24.1360 S   0  0  0  0  0  0  0  0  0  0  0  0
   44.2260   16.5037  -24.1251 S   0  0  0  0  0  0  0  0  0  0  0  0
   44.9166   17.6284  -25.7706 S   0  0  0  0  0  0  0  0  0  0  0  0
   47.0259   17.6209  -25.7597 S   0  0  0  0  0  0  0  0  0  0  0  0
   47.7166   18.7456  -27.4052 S   0  0  0  0  0  0  0  0  0  0  0  0
   49.8259   18.7381  -27.3942 S   0  0  0  0  0  0  0  0  0  0  0  0
   50.5166   19.8628  -29.0398 S   0  0  0  0  0  0  0  0  0  0  0  0
   52.6259   19.8554  -29.0288 S   0  0  0  0  0  0  0  0  0  0  0  0
   53.3166   20.9801  -30.6743 S   0  0  0  0  0  0  0  0  0  0  0  0
   55.4259   20.9726  -30.6634 S   0  0  0  0  0  0  0  0  0  0  0  0
   56.1165   22.0973  -32.3089 S   0  0  0  0  0  0  0  0  0  0  0  0
   58.2259   22.0898  -32.2980 S   0  0  0  0  0  0  0  0  0  0  0  0
   58.9165   23.2145  -33.9435 S   0  0  0  0  0  0  0  0  0  0  0  0
   61.0259   23.2070  -33.9325 S   0  0  0  0  0  0  0  0  0  0  0  0
   61.7165   24.3317  -35.5780 S   0  0  0  0  0  0  0  0  0  0  0  0
   63.8259   24.3243  -35.5671 S   0  0  0  0  0  0  0  0  0  0  0  0
   64.5165   25.4490  -37.2126 S   0  0  0  0  0  0  0  0  0  0  0  0
   66.6259   25.4415  -37.2017 S   0  0  0  0  0  0  0  0  0  0  0  0
   67.3165   26.5662  -38.8472 S   0  0  0  0  0  0  0  0  0  0  0  0
   69.4259   26.5587  -38.8362 S   0  0  0  0  0  0  0  0  0  0  0  0
   70.1165   27.6834  -40.4818 S   0  0  0  0  0  0  0  0  0  0  0  0
   72.2259   27.6759  -40.4708 S   0  0  0  0  0  0  0  0  0  0  0  0
   72.9165   28.8006  -42.1163 S   0  0  0  0  0  0  0  0  0  0  0  0
   75.0259   28.7932  -42.1054 S   0  0  0  0  0  0  0  0  0  0  0  0
   75.7165   29.9179  -43.7509 S   0  0  0  0  0  0  0  0  0  0  0  0
   77.8259   29.9104  -43.7400 S   0  0  0  0  0  0  0  0  0  0  0  0
   78.5165   31.0351  -45.3855 S   0  0  0  0  0  0  0  0  0  0  0  0
   80.6259   31.0276  -45.3745 S   0  0  0  0  0  0  0  0  0  0  0  0
   81.3165   32.1523  -47.0200 S   0  0  0  0  0  0  0  0  0  0  0  0
   83.4259   32.1448  -47.0091 S   0  0  0  0  0  0  0  0  0  0  0  0
   84.1165   33.2695  -48.6546 S   0  0  0  0  0  0  0  0  0  0  0  0
   86.2258   33.2620  -48.6437 S   0  0  0  0  0  0  0  0  0  0  0  0
   86.9165   34.3867  -50.2892 S   0  0  0  0  0  0  0  0  0  0  0  0
   89.0258   34.3793  -50.2782 S   0  0  0  0  0  0  0  0  0  0  0  0
   89.7165   35.5040  -51.9238 S   0  0  0  0  0  0  0  0  0  0  0  0
   91.8258   35.4965  -51.9128 S   0  0  0  0  0  0  0  0  0  0  0  0
   92.5164   36.6212  -53.5583 S   0  0  0  0  0  0  0  0  0  0  0  0
   94.6258   36.6137  -53.5474 S   0  0  0  0  0  0  0  0  0  0  0  0
   95.3164   37.7384  -55.1929 S   0  0  0  0  0  0  0  0  0  0  0  0
   97.4258   37.7309  -55.1819 S   0  0  0  0  0  0  0  0  0  0  0  0
   98.1163   38.8556  -56.8274 S   0  0  0  0  0  0  0  0  0  0  0  0
  100.2254   38.8480  -56.8163 S   0  0  0  0  0  0  0  0  0  0  0  0
  100.9153   39.9725  -58.4615 S   0  0  0  0  0  0  0  0  0  0  0  0
  103.0233   39.9645  -58.4498 S   0  0  0  0  0  0  0  0  0  0  0  0
  103.7111   41.0881  -60.0938 S   0  0  0  0  0  0  0  0  0  0  0  0
  105.8149   41.0781  -60.0785 S   0  0  0  0  0  0  0  0  0  0  0  0
  106.4959   42.1984  -61.7181 S   0  0  0  0  0  0  0  0  0  0  0  0
  108.5860   42.1617  -61.7016 S   0  0  0  0  0  0  0  0  0  0  0  0
  109.2572   43.3234  -63.2905 S   0  0  0  0  0  0  0  0  0  0  0  0
  111.3313   43.2547  -63.2803 S   0  0  0  0  0  0  0  0  0  0  0  0
  111.9272   44.1664  -61.5343 S   0  0  0  0  0  0  0  0  0  0  0  0
    2.6281    0.0163    1.7775 H   0  0  0  0  0  0  0  0  0  0  0  0
  113.2690   44.0868  -61.6200 H   0  0  0  0  0  0  0  0  0  0  0  0
  1  2  1  0  0  0  0
  1 82  1  0  0  0  0
  2  3  1  0  0  0  0
  3  4  1  0  0  0  0
  4  5  1  0  0  0  0
  5  6  1  0  0  0  0
  6  7  1  0  0  0  0
  7  8  1  0  0  0  0
  8  9  1  0  0  0  0
  9 10  1  0  0  0  0
 10 11  1  0  0  0  0
 11 12  1  0  0  0  0
 12 13  1  0  0  0  0
 13 14  1  0  0  0  0
 14 15  1  0  0  0  0
 15 16  1  0  0  0  0
 16 17  1  0  0  0  0
 17 18  1  0  0  0  0
 18 19  1  0  0  0  0
 19 20  1  0  0  0  0
 20 21  1  0  0  0  0
 21 22  1  0  0  0  0
 22 23  1  0  0  0  0
 23 24  1  0  0  0  0
 24 25  1  0  0  0  0
 25 26  1  0  0  0  0
 26 27  1  0  0  0  0
 27 28  1  0  0  0  0
 28 29  1  0  0  0  0
 29 30  1  0  0  0  0
 30 31  1  0  0  0  0
 31 32  1  0  0  0  0
 32 33  1  0  0  0  0
 33 34  1  0  0  0  0
 34 35  1  0  0  0  0
 35 36  1  0  0  0  0
 36 37  1  0  0  0  0
 37 38  1  0  0  0  0
 38 39  1  0  0  0  0
 39 40  1  0  0  0  0
 40 41  1  0  0  0  0
 41 42  1  0  0  0  0
 42 43  1  0  0  0  0
 43 44  1  0  0  0  0
 44 45  1  0  0  0  0
 45 46  1  0  0  0  0
 46 47  1  0  0  0  0
 47 48  1  0  0  0  0
 48 49  1  0  0  0  0
 49 50  1  0  0  0  0
 50 51  1  0  0  0  0
 51 52  1  0  0  0  0
 52 53  1  0  0  0  0
 53 54  1  0  0  0  0
 54 55  1  0  0  0  0
 55 56  1  0  0  0  0
 56 57  1  0  0  0  0
 57 58  1  0  0  0  0
 58 59  1  0  0  0  0
 59 60  1  0  0  0  0
 60 61  1  0  0  0  0
 61 62  1  0  0  0  0
 62 63  1  0  0  0  0
 63 64  1  0  0  0  0
 64 65  1  0  0  0  0
 65 66  1  0  0  0  0
 66 67  1  0  0  0  0
 67 68  1  0  0  0  0
 68 69  1  0  0  0  0
 69 70  1  0  0  0  0
 70 71  1  0  0  0  0
 71 72  1  0  0  0  0
 72 73  1  0  0  0  0
 73 74  1  0  0  0  0
 74 75  1  0  0  0  0
 75 76  1  0  0  0  0
 76 77  1  0  0  0  0
 77 78  1  0  0  0  0
 78 79  1  0  0  0  0
 79 80  1  0  0  0  0
 80 81  1  0  0  0  0
 81 83  1  0  0  0  0
M  END
$$$$
