
 OpenBabel04232216393D

 58 60  0  0  1  0  0  0  0  0999 V2000
    5.7208    1.5107    2.8885 C   0  0  0  0  0  0  0  0  0  0  0  0
    4.4771    1.0734    2.1042 C   0  0  0  0  0  0  0  0  0  0  0  0
    3.9698    1.1941    0.9078 N   0  0  0  0  0  0  0  0  0  0  0  0
    4.7645    1.7316   -0.0749 C   0  0  0  0  0  0  0  0  0  0  0  0
    5.5220    2.8230    0.1567 C   0  0  0  0  0  0  0  0  0  0  0  0
    4.9156    3.7754    1.0727 N   0  0  0  0  0  0  0  0  0  0  0  0
    5.2353    4.9084    1.9683 C   0  0  0  0  0  0  0  0  0  0  0  0
    5.2753    4.6233    3.5612 C   0  0  0  0  0  0  0  0  0  0  0  0
    6.6424    4.8213    4.4162 C   0  0  0  0  0  0  0  0  0  0  0  0
    7.4087    3.5279    5.0950 C   0  0  0  0  0  0  0  0  0  0  0  0
    8.8644    2.7420    4.7159 C   0  0  0  0  0  0  0  0  0  0  0  0
    9.2410    1.4577    3.5853 C   0  0  0  0  0  0  0  0  0  0  0  0
    7.0128    2.6300   -0.1914 C   0  0  0  0  0  0  0  0  0  0  0  0
    7.5949    3.9749   -0.5654 C   0  0  0  0  0  0  0  0  0  0  0  0
    7.7283    1.4519    0.1290 C   0  0  0  0  0  0  0  0  0  0  0  0
    9.2209    1.2191    0.5915 C   0  0  0  0  0  0  0  0  0  0  0  0
    9.7850    1.5902    2.0536 C   0  0  3  0  0  3  0  0  0  0  0  0
   10.7331    2.6633    1.8489 C   0  0  0  0  0  0  0  0  0  0  0  0
   10.2137    3.8910    1.7995 C   0  0  0  0  0  0  0  0  0  0  0  0
    8.8416    4.1656    2.2046 C   0  0  0  0  0  0  0  0  0  0  0  0
    7.8490    3.2297    2.3645 C   0  0  0  0  0  0  0  0  0  0  0  0
    6.7262    2.3345    2.5839 C   0  0  0  0  0  3  0  0  0  0  0  0
    7.1621    0.0605   -0.0371 C   0  0  0  0  0  0  0  0  0  0  0  0
    7.0490   -0.4936   -1.3242 C   0  0  0  0  0  0  0  0  0  0  0  0
    6.5423   -1.7875   -1.5071 C   0  0  0  0  0  0  0  0  0  0  0  0
    6.1289   -2.5403   -0.4102 C   0  0  0  0  0  0  0  0  0  0  0  0
    6.2961   -2.0323    0.8720 C   0  0  0  0  0  0  0  0  0  0  0  0
    6.8629   -0.7686    1.0510 C   0  0  0  0  0  0  0  0  0  0  0  0
    5.6205    1.2317    3.9268 H   0  0  0  0  0  0  0  0  0  0  0  0
    3.8211    0.4663    2.7539 H   0  0  0  0  0  0  0  0  0  0  0  0
    4.9970    1.0437   -0.8805 H   0  0  0  0  0  0  0  0  0  0  0  0
    3.9478    3.4664    1.2149 H   0  0  0  0  0  0  0  0  0  0  0  0
    4.3729    5.5779    1.8423 H   0  0  0  0  0  0  0  0  0  0  0  0
    6.0834    5.5016    1.6246 H   0  0  0  0  0  0  0  0  0  0  0  0
    4.8085    3.6710    3.8202 H   0  0  0  0  0  0  0  0  0  0  0  0
    4.5825    5.3673    3.9835 H   0  0  0  0  0  0  0  0  0  0  0  0
    6.3217    5.4360    5.2735 H   0  0  0  0  0  0  0  0  0  0  0  0
    7.3215    5.5129    3.9090 H   0  0  0  0  0  0  0  0  0  0  0  0
    6.6547    2.7728    5.3307 H   0  0  0  0  0  0  0  0  0  0  0  0
    7.6727    3.9579    6.0771 H   0  0  0  0  0  0  0  0  0  0  0  0
    9.0612    2.2274    5.6707 H   0  0  0  0  0  0  0  0  0  0  0  0
    9.6558    3.5011    4.6566 H   0  0  0  0  0  0  0  0  0  0  0  0
    8.4564    0.6985    3.6483 H   0  0  0  0  0  0  0  0  0  0  0  0
   10.1058    0.9912    4.0872 H   0  0  0  0  0  0  0  0  0  0  0  0
    7.0525    4.3950   -1.4206 H   0  0  0  0  0  0  0  0  0  0  0  0
    8.6503    3.9169   -0.8346 H   0  0  0  0  0  0  0  0  0  0  0  0
    7.4822    4.7247    0.2188 H   0  0  0  0  0  0  0  0  0  0  0  0
    9.8225    1.7387   -0.1725 H   0  0  0  0  0  0  0  0  0  0  0  0
    9.5046    0.1665    0.4423 H   0  0  0  0  0  0  0  0  0  0  0  0
   11.7285    2.4335    1.4686 H   0  0  0  0  0  0  0  0  0  0  0  0
   10.8174    4.7242    1.4520 H   0  0  0  0  0  0  0  0  0  0  0  0
    8.7441    5.1895    2.5238 H   0  0  0  0  0  0  0  0  0  0  0  0
    7.1851    4.0398    2.5119 H   0  0  0  0  0  0  0  0  0  0  0  0
    7.3609    0.0775   -2.1956 H   0  0  0  0  0  0  0  0  0  0  0  0
    6.4635   -2.2063   -2.5070 H   0  0  0  0  0  0  0  0  0  0  0  0
    5.6962   -3.5272   -0.5504 H   0  0  0  0  0  0  0  0  0  0  0  0
    5.9928   -2.6155    1.7369 H   0  0  0  0  0  0  0  0  0  0  0  0
    7.0544   -0.4348    2.0619 H   0  0  0  0  0  0  0  0  0  0  0  0
  1  2  1  0  0  0  0
  1 22  2  3  0  0  0
  1 29  1  0  0  0  0
  2  3  2  3  0  0  0
  2 30  1  0  0  0  0
  3  4  1  0  0  0  0
  4  5  2  3  0  0  0
  4 31  1  0  0  0  0
  5  6  1  0  0  0  0
  5 13  1  0  0  0  0
  6  7  1  0  0  0  0
  6 32  1  0  0  0  0
  7  8  1  0  0  0  0
  7 33  1  0  0  0  0
  7 34  1  0  0  0  0
  8  9  1  0  0  0  0
  8 35  1  0  0  0  0
  8 36  1  0  0  0  0
  9 10  1  0  0  0  0
  9 37  1  0  0  0  0
  9 38  1  0  0  0  0
 10 11  1  0  0  0  0
 10 39  1  0  0  0  0
 10 40  1  0  0  0  0
 11 12  1  0  0  0  0
 11 41  1  0  0  0  0
 11 42  1  0  0  0  0
 12 17  1  0  0  0  0
 12 43  1  0  0  0  0
 12 44  1  0  0  0  0
 13 14  1  0  0  0  0
 13 15  2  3  0  0  0
 14 45  1  0  0  0  0
 14 46  1  0  0  0  0
 14 47  1  0  0  0  0
 15 16  1  0  0  0  0
 15 23  1  0  0  0  0
 16 17  1  0  0  0  0
 16 48  1  0  0  0  0
 16 49  1  0  0  0  0
 17 18  1  0  0  0  0
 18 19  2  3  0  0  0
 18 50  1  0  0  0  0
 19 20  1  0  0  0  0
 19 51  1  0  0  0  0
 20 21  2  3  0  0  0
 20 52  1  0  0  0  0
 21 22  1  0  0  0  0
 21 53  1  0  0  0  0
 23 24  1  0  0  0  0
 23 28  2  0  0  0  0
 24 25  2  0  0  0  0
 24 54  1  0  0  0  0
 25 26  1  0  0  0  0
 25 55  1  0  0  0  0
 26 27  2  0  0  0  0
 26 56  1  0  0  0  0
 27 28  1  0  0  0  0
 27 57  1  0  0  0  0
 28 58  1  0  0  0  0
M  END
$$$$
