
 OpenBabel04232216463D

 72 73  0  0  1  0  0  0  0  0999 V2000
    3.4880    0.7076    0.7119 C   0  0  0  0  0  0  0  0  0  0  0  0
    4.8456   -0.0361    0.3967 C   0  0  0  0  0  0  0  0  0  0  0  0
    4.3133   -1.3441    0.8279 C   0  0  0  0  0  3  0  0  0  0  0  0
    5.6215   -1.7502    1.0991 C   0  0  0  0  0  0  0  0  0  0  0  0
    5.8118   -1.8851   -0.7891 C   0  0  0  0  0  0  0  0  0  0  0  0
    5.8677   -0.6418   -1.9859 C   0  0  0  0  0  0  0  0  0  0  0  0
    4.9867    0.7660   -2.0751 C   0  0  3  0  0  0  0  0  0  0  0  0
    3.5091    0.3856   -2.3726 C   0  0  0  0  0  0  0  0  0  0  0  0
    2.4942    1.5305   -2.5037 C   0  0  0  0  0  0  0  0  0  0  0  0
    2.6751    2.4326   -3.7090 C   0  0  0  0  0  0  0  0  0  0  0  0
    2.5274    1.6755   -5.0200 C   0  0  0  0  0  0  0  0  0  0  0  0
    2.6352    2.6222   -6.2051 C   0  0  0  0  0  0  0  0  0  0  0  0
    2.5148    1.8411   -7.5080 C   0  0  0  0  0  0  0  0  0  0  0  0
    2.6448    2.7613   -8.7152 C   0  0  0  0  0  0  0  0  0  0  0  0
    2.4991    1.9734  -10.0077 C   0  0  0  0  0  0  0  0  0  0  0  0
    5.2916    2.1717   -1.1319 C   0  0  0  0  0  0  0  0  0  0  0  0
    5.2996    2.5132    0.6107 C   0  0  0  0  0  0  0  0  0  0  0  0
    5.7902    1.5051    2.0802 C   0  0  0  0  0  0  0  0  0  0  0  0
    5.8083   -0.3569    2.3983 C   0  0  0  0  0  0  0  0  0  0  0  0
    5.8658   -3.1308    1.6845 C   0  0  0  0  0  0  0  0  0  0  0  0
    7.1774   -3.4352    1.2652 C   0  0  0  0  0  0  0  0  0  0  0  0
    8.2896   -4.1696    1.2421 C   0  0  0  0  0  0  0  0  0  0  0  0
    8.4306   -5.4737    1.9224 C   0  0  0  0  0  0  0  0  0  0  0  0
    9.3253   -3.4636    0.3711 C   0  0  0  0  0  0  0  0  0  0  0  0
    9.6067   -2.1743    0.7267 C   0  0  0  0  0  0  0  0  0  0  0  0
    8.9242   -0.9222    0.0775 C   0  0  0  0  0  0  0  0  0  0  0  0
    7.8036   -0.3921    0.6771 C   0  0  0  0  0  0  0  0  0  0  0  0
    6.3864    0.2766    0.1814 C   0  0  0  0  0  0  0  0  0  0  0  0
    2.7003    0.0297    1.1295 H   0  0  0  0  0  0  0  0  0  0  0  0
    2.9753    1.1561   -0.1157 H   0  0  0  0  0  0  0  0  0  0  0  0
    3.5025    1.4007    1.5586 H   0  0  0  0  0  0  0  0  0  0  0  0
    3.5008   -1.8722    0.3398 H   0  0  0  0  0  0  0  0  0  0  0  0
    4.9848   -2.5386   -1.1194 H   0  0  0  0  0  0  0  0  0  0  0  0
    6.6918   -2.4809   -1.0532 H   0  0  0  0  0  0  0  0  0  0  0  0
    5.6559   -1.1832   -2.9209 H   0  0  0  0  0  0  0  0  0  0  0  0
    6.9250   -0.3564   -2.1054 H   0  0  0  0  0  0  0  0  0  0  0  0
    5.3315    1.1496   -3.0524 H   0  0  0  0  0  0  0  0  0  0  0  0
    3.1426   -0.3278   -1.6293 H   0  0  0  0  0  0  0  0  0  0  0  0
    3.4926   -0.2113   -3.2932 H   0  0  0  0  0  0  0  0  0  0  0  0
    2.5009    2.1805   -1.6233 H   0  0  0  0  0  0  0  0  0  0  0  0
    1.4922    1.0841   -2.5295 H   0  0  0  0  0  0  0  0  0  0  0  0
    3.6485    2.9331   -3.6678 H   0  0  0  0  0  0  0  0  0  0  0  0
    1.9129    3.2205   -3.6557 H   0  0  0  0  0  0  0  0  0  0  0  0
    1.5619    1.1553   -5.0392 H   0  0  0  0  0  0  0  0  0  0  0  0
    3.3099    0.9131   -5.1053 H   0  0  0  0  0  0  0  0  0  0  0  0
    3.5983    3.1461   -6.1707 H   0  0  0  0  0  0  0  0  0  0  0  0
    1.8473    3.3826   -6.1467 H   0  0  0  0  0  0  0  0  0  0  0  0
    1.5491    1.3214   -7.5357 H   0  0  0  0  0  0  0  0  0  0  0  0
    3.2951    1.0704   -7.5472 H   0  0  0  0  0  0  0  0  0  0  0  0
    3.6201    3.2586   -8.7011 H   0  0  0  0  0  0  0  0  0  0  0  0
    1.8772    3.5406   -8.6767 H   0  0  0  0  0  0  0  0  0  0  0  0
    3.2629    1.1923  -10.0781 H   0  0  0  0  0  0  0  0  0  0  0  0
    2.6080    2.6376  -10.8705 H   0  0  0  0  0  0  0  0  0  0  0  0
    1.5152    1.4968  -10.0644 H   0  0  0  0  0  0  0  0  0  0  0  0
    4.6426    2.9523   -1.5456 H   0  0  0  0  0  0  0  0  0  0  0  0
    6.2937    2.4946   -1.4713 H   0  0  0  0  0  0  0  0  0  0  0  0
    4.3136    2.9583    0.8120 H   0  0  0  0  0  0  0  0  0  0  0  0
    5.9551    3.3952    0.6845 H   0  0  0  0  0  0  0  0  0  0  0  0
    5.2218    1.9392    2.9161 H   0  0  0  0  0  0  0  0  0  0  0  0
    6.8285    1.8267    2.2560 H   0  0  0  0  0  0  0  0  0  0  0  0
    4.9528   -0.4889    3.0900 H   0  0  0  0  0  0  0  0  0  0  0  0
    6.7052   -0.5631    3.0026 H   0  0  0  0  0  0  0  0  0  0  0  0
    5.2715   -3.6555    2.3994 H   0  0  0  0  0  0  0  0  0  0  0  0
    7.3899   -2.6301    0.5967 H   0  0  0  0  0  0  0  0  0  0  0  0
    7.4375   -5.8851    2.1454 H   0  0  0  0  0  0  0  0  0  0  0  0
    8.9526   -5.3408    2.8736 H   0  0  0  0  0  0  0  0  0  0  0  0
    8.9585   -6.2034    1.3045 H   0  0  0  0  0  0  0  0  0  0  0  0
    9.0917   -3.6605   -0.6774 H   0  0  0  0  0  0  0  0  0  0  0  0
    9.8166   -2.0057    1.7867 H   0  0  0  0  0  0  0  0  0  0  0  0
    9.7922   -0.2435    0.2089 H   0  0  0  0  0  0  0  0  0  0  0  0
    8.1237    0.2651    1.5034 H   0  0  0  0  0  0  0  0  0  0  0  0
    6.8138    1.2307   -0.0811 H   0  0  0  0  0  0  0  0  0  0  0  0
  1  2  1  0  0  0  0
  1 29  1  0  0  0  0
  1 30  1  0  0  0  0
  1 31  1  0  0  0  0
  2  3  1  0  0  0  0
  2 28  2  3  0  0  0
  3  4  1  0  0  0  0
  3 32  1  0  0  0  0
  4  5  1  0  0  0  0
  4 20  2  0  0  0  0
  5  6  1  0  0  0  0
  5 33  1  0  0  0  0
  5 34  1  0  0  0  0
  6  7  1  0  0  0  0
  6 35  1  0  0  0  0
  6 36  1  0  0  0  0
  7  8  1  0  0  0  0
  7 16  1  0  0  0  0
  7 37  1  0  0  0  0
  8  9  1  0  0  0  0
  8 38  1  0  0  0  0
  8 39  1  0  0  0  0
  9 10  1  0  0  0  0
  9 40  1  0  0  0  0
  9 41  1  0  0  0  0
 10 11  1  0  0  0  0
 10 42  1  0  0  0  0
 10 43  1  0  0  0  0
 11 12  1  0  0  0  0
 11 44  1  0  0  0  0
 11 45  1  0  0  0  0
 12 13  1  0  0  0  0
 12 46  1  0  0  0  0
 12 47  1  0  0  0  0
 13 14  1  0  0  0  0
 13 48  1  0  0  0  0
 13 49  1  0  0  0  0
 14 15  1  0  0  0  0
 14 50  1  0  0  0  0
 14 51  1  0  0  0  0
 15 52  1  0  0  0  0
 15 53  1  0  0  0  0
 15 54  1  0  0  0  0
 16 17  1  0  0  0  0
 16 55  1  0  0  0  0
 16 56  1  0  0  0  0
 17 18  1  0  0  0  0
 17 57  1  0  0  0  0
 17 58  1  0  0  0  0
 18 19  1  0  0  0  0
 18 59  1  0  0  0  0
 18 60  1  0  0  0  0
 19  4  1  0  0  0  0
 19 61  1  0  0  0  0
 19 62  1  0  0  0  0
 20 21  1  0  0  0  0
 20 63  1  0  0  0  0
 21 22  2  3  0  0  0
 21 64  1  0  0  0  0
 22 23  1  0  0  0  0
 22 24  1  0  0  0  0
 23 65  1  0  0  0  0
 23 66  1  0  0  0  0
 23 67  1  0  0  0  0
 24 25  2  3  0  0  0
 24 68  1  0  0  0  0
 25 26  1  0  0  0  0
 25 69  1  0  0  0  0
 26 27  2  3  0  0  0
 26 70  1  0  0  0  0
 27 28  1  0  0  0  0
 27 71  1  0  0  0  0
 28 72  1  0  0  0  0
M  END
$$$$
