
 OpenBabel04232216533D

203202  0  0  0  0  0  0  0  0999 V2000
    9.8347    6.7640   -0.9594 C   0  0  0  0  0  0  0  0  0  0  0  0
    9.4058    5.3241   -0.7559 C   0  0  0  0  0  0  0  0  0  0  0  0
   10.0111    4.4231   -1.8249 C   0  0  0  0  0  0  0  0  0  0  0  0
    9.5801    2.9775   -1.6229 C   0  0  0  0  0  0  0  0  0  0  0  0
   10.1955    2.1011   -2.6971 C   0  0  0  0  0  0  0  0  0  0  0  0
    9.7883    0.6546   -2.5261 C   0  0  0  0  0  0  0  0  0  0  0  0
   10.4211   -0.0663   -3.5659 O   0  0  0  0  0  0  0  0  0  0  0  0
   10.0013   -1.4310   -3.3824 O   0  0  0  0  0  0  0  0  0  0  0  0
   10.5372   -2.2302   -4.4511 O   0  0  0  0  0  0  0  0  0  0  0  0
   10.1427   -3.5554   -4.1594 C   0  0  0  0  0  0  0  0  0  0  0  0
   10.6727   -4.4605   -5.1168 O   0  0  0  0  0  0  0  0  0  0  0  0
   12.0944   -4.4186   -5.1056 C   0  0  0  0  0  0  0  0  0  0  0  0
   12.5827   -5.3579   -6.1843 C   0  0  0  0  0  0  0  0  0  0  0  0
   14.0983   -5.3728   -6.2019 C   0  0  0  0  0  0  0  0  0  0  0  0
   14.5980   -6.3192   -7.2752 C   0  0  0  0  0  0  0  0  0  0  0  0
   16.1147   -6.3267   -7.2782 C   0  0  0  0  0  0  0  0  0  0  0  0
   16.6252   -7.2732   -8.3465 C   0  0  0  0  0  0  0  0  0  0  0  0
   18.1418   -7.2753   -8.3458 C   0  0  0  0  0  0  0  0  0  0  0  0
   18.6533   -8.2235   -9.4126 C   0  0  0  0  0  0  0  0  0  0  0  0
   20.1698   -8.2257   -9.4147 C   0  0  0  0  0  0  0  0  0  0  0  0
   20.6796   -9.1758  -10.4810 C   0  0  0  0  0  0  0  0  0  0  0  0
   22.1961   -9.1803  -10.4831 C   0  0  0  0  0  0  0  0  0  0  0  0
   22.7056  -10.1293  -11.5506 C   0  0  0  0  0  0  0  0  0  0  0  0
   24.2221  -10.1325  -11.5542 C   0  0  0  0  0  0  0  0  0  0  0  0
   24.7319  -11.0813  -12.6218 C   0  0  0  0  0  0  0  0  0  0  0  0
   26.2484  -11.0829  -12.6265 C   0  0  0  0  0  0  0  0  0  0  0  0
   26.7584  -12.0317  -13.6941 C   0  0  0  0  0  0  0  0  0  0  0  0
   28.2750  -12.0332  -13.6988 C   0  0  0  0  0  0  0  0  0  0  0  0
   28.7848  -12.9821  -14.7665 C   0  0  0  0  0  0  0  0  0  0  0  0
   30.3015  -12.9841  -14.7716 C   0  0  0  0  0  0  0  0  0  0  0  0
   30.8110  -13.9334  -15.8391 C   0  0  0  0  0  0  0  0  0  0  0  0
   32.3276  -13.9350  -15.8452 C   0  0  0  0  0  0  0  0  0  0  0  0
   32.8380  -14.8843  -16.9121 C   0  0  0  0  0  0  0  0  0  0  0  0
   34.3544  -14.8863  -16.9149 C   0  0  0  0  0  0  0  0  0  0  0  0
   34.8649  -15.8349  -17.9823 C   0  0  0  0  0  0  0  0  0  0  0  0
   36.3814  -15.8365  -17.9870 C   0  0  0  0  0  0  0  0  0  0  0  0
   36.8917  -16.7839  -19.0559 C   0  0  0  0  0  0  0  0  0  0  0  0
   38.4159  -16.7887  -19.0625 C   0  0  0  0  0  0  0  0  0  0  0  0
   38.9180  -17.7324  -20.1294 C   0  0  0  0  0  0  0  0  0  0  0  0
   40.4346  -17.7328  -20.1340 C   0  0  0  0  0  0  0  0  0  0  0  0
   40.9444  -18.6816  -21.2032 C   0  0  0  0  0  0  0  0  0  0  0  0
   42.4607  -18.6808  -21.2065 C   0  0  0  0  0  0  0  0  0  0  0  0
   42.9717  -19.6237  -22.2753 C   0  0  0  0  0  0  0  0  0  0  0  0
   44.4868  -19.6306  -22.2805 C   0  0  0  0  0  0  0  0  0  0  0  0
   44.9971  -20.5784  -23.3497 C   0  0  0  0  0  0  0  0  0  0  0  0
   46.5142  -20.5796  -23.3546 C   0  0  0  0  0  0  0  0  0  0  0  0
   47.0235  -21.5268  -24.4227 C   0  0  0  0  0  0  0  0  0  0  0  0
   48.5406  -21.5293  -24.4270 C   0  0  0  0  0  0  0  0  0  0  0  0
   49.0476  -22.4763  -25.4974 C   0  0  0  0  0  0  0  0  0  0  0  0
   50.5639  -22.4773  -25.5041 C   0  0  0  0  0  0  0  0  0  0  0  0
   51.0717  -23.4249  -26.5730 C   0  0  0  0  0  0  0  0  0  0  0  0
   52.5871  -23.4282  -26.5844 C   0  0  0  0  0  0  0  0  0  0  0  0
   53.0926  -24.3711  -27.6497 C   0  0  0  0  0  0  0  0  0  0  0  0
   54.6052  -24.3679  -27.6490 C   0  0  0  0  0  0  0  0  0  0  0  0
   55.1106  -25.3124  -28.7205 C   0  0  0  0  0  0  0  0  0  0  0  0
   56.6236  -25.3063  -28.7188 C   0  0  0  0  0  0  0  0  0  0  0  0
   57.1272  -26.2476  -29.7929 C   0  0  0  0  0  0  0  0  0  0  0  0
   58.6357  -26.2379  -29.7888 C   0  0  0  0  0  0  0  0  0  0  0  0
   59.1248  -27.1781  -30.8604 C   0  0  0  0  0  0  0  0  0  0  0  0
   60.6286  -27.1594  -30.8488 C   0  0  0  0  0  0  0  0  0  0  0  0
   61.1171  -28.0984  -31.9156 C   0  0  0  0  0  0  0  0  0  0  0  0
   62.6194  -28.0720  -31.8960 C   0  0  0  0  0  0  0  0  0  0  0  0
   63.1059  -29.0073  -32.9612 C   0  0  0  0  0  0  0  0  0  0  0  0
   64.6029  -28.9814  -32.9574 C   0  0  0  0  0  0  0  0  0  0  0  0
   65.0035  -29.8216  -34.0063 O   0  0  0  0  0  0  0  0  0  0  0  0
   66.4392  -29.7214  -34.0067 O   0  0  0  0  0  0  0  0  0  0  0  0
   66.9695  -30.6748  -34.9298 O   0  0  0  0  0  0  0  0  0  0  0  0
   66.4297  -31.9675  -34.6226 O   0  0  0  0  0  0  0  0  0  0  0  0
   66.7543  -32.8716  -35.6677 O   0  0  0  0  0  0  0  0  0  0  0  0
   66.2683  -34.1672  -35.3360 O   0  0  0  0  0  0  0  0  0  0  0  0
   66.7383  -35.0792  -36.3142 O   0  0  0  0  0  0  0  0  0  0  0  0
   66.2330  -36.3751  -36.0345 O   0  0  0  0  0  0  0  0  0  0  0  0
   66.7062  -37.2585  -37.0386 O   0  0  0  0  0  0  0  0  0  0  0  0
   66.2489  -38.5719  -36.7567 O   0  0  0  0  0  0  0  0  0  0  0  0
   66.7183  -39.4422  -37.7773 O   0  0  0  0  0  0  0  0  0  0  0  0
   66.2310  -40.7560  -37.5282 O   0  0  0  0  0  0  0  0  0  0  0  0
   66.7111  -41.6317  -38.5483 O   0  0  0  0  0  0  0  0  0  0  0  0
   66.3452  -42.9733  -38.2284 O   0  0  0  0  0  0  0  0  0  0  0  0
   66.7267  -43.8497  -39.3021 O   0  0  0  0  0  0  0  0  0  0  0  0
   66.2191  -45.1759  -39.0546 O   0  0  0  0  0  0  0  0  0  0  0  0
   64.7713  -45.1658  -39.0707 O   0  0  0  0  0  0  0  0  0  0  0  0
    9.3954    7.4048   -0.1870 H   0  0  0  0  0  0  0  0  0  0  0  0
    9.5076    7.1345   -1.9374 H   0  0  0  0  0  0  0  0  0  0  0  0
   10.9246    6.8598   -0.9041 H   0  0  0  0  0  0  0  0  0  0  0  0
    8.3137    5.2603   -0.7897 H   0  0  0  0  0  0  0  0  0  0  0  0
    9.7223    4.9853    0.2385 H   0  0  0  0  0  0  0  0  0  0  0  0
   11.1053    4.4898   -1.7916 H   0  0  0  0  0  0  0  0  0  0  0  0
    9.6981    4.7655   -2.8195 H   0  0  0  0  0  0  0  0  0  0  0  0
    8.4862    2.9017   -1.6635 H   0  0  0  0  0  0  0  0  0  0  0  0
    9.8958    2.6256   -0.6326 H   0  0  0  0  0  0  0  0  0  0  0  0
   11.2903    2.1744   -2.6753 H   0  0  0  0  0  0  0  0  0  0  0  0
    9.8944    2.4467   -3.6946 H   0  0  0  0  0  0  0  0  0  0  0  0
    8.7019    0.5409   -2.6070 H   0  0  0  0  0  0  0  0  0  0  0  0
   10.1228    0.2653   -1.5581 H   0  0  0  0  0  0  0  0  0  0  0  0
    9.0517   -3.6182   -4.2094 H   0  0  0  0  0  0  0  0  0  0  0  0
   10.4711   -3.8506   -3.1561 H   0  0  0  0  0  0  0  0  0  0  0  0
   12.4625   -4.7334   -4.1226 H   0  0  0  0  0  0  0  0  0  0  0  0
   12.4606   -3.4059   -5.3133 H   0  0  0  0  0  0  0  0  0  0  0  0
   12.1883   -5.0412   -7.1585 H   0  0  0  0  0  0  0  0  0  0  0  0
   12.1855   -6.3638   -6.0061 H   0  0  0  0  0  0  0  0  0  0  0  0
   14.4795   -5.6861   -5.2219 H   0  0  0  0  0  0  0  0  0  0  0  0
   14.4820   -4.3620   -6.3889 H   0  0  0  0  0  0  0  0  0  0  0  0
   14.2222   -6.0057   -8.2569 H   0  0  0  0  0  0  0  0  0  0  0  0
   14.2179   -7.3313   -7.0891 H   0  0  0  0  0  0  0  0  0  0  0  0
   16.4890   -6.6367   -6.2947 H   0  0  0  0  0  0  0  0  0  0  0  0
   16.4932   -5.3139   -7.4645 H   0  0  0  0  0  0  0  0  0  0  0  0
   16.2515   -6.9642   -9.3304 H   0  0  0  0  0  0  0  0  0  0  0  0
   16.2490   -8.2865   -8.1594 H   0  0  0  0  0  0  0  0  0  0  0  0
   18.5156   -7.5826   -7.3613 H   0  0  0  0  0  0  0  0  0  0  0  0
   18.5177   -6.2620   -8.5338 H   0  0  0  0  0  0  0  0  0  0  0  0
   18.2782   -7.9167  -10.3967 H   0  0  0  0  0  0  0  0  0  0  0  0
   18.2779   -9.2367   -9.2234 H   0  0  0  0  0  0  0  0  0  0  0  0
   20.5451   -8.5314   -8.4303 H   0  0  0  0  0  0  0  0  0  0  0  0
   20.5453   -7.2127   -9.6053 H   0  0  0  0  0  0  0  0  0  0  0  0
   20.3048   -8.8693  -11.4653 H   0  0  0  0  0  0  0  0  0  0  0  0
   20.3028  -10.1884  -10.2911 H   0  0  0  0  0  0  0  0  0  0  0  0
   22.5707   -9.4881   -9.4990 H   0  0  0  0  0  0  0  0  0  0  0  0
   22.5730   -8.1676  -10.6718 H   0  0  0  0  0  0  0  0  0  0  0  0
   22.3298   -9.8223  -12.5344 H   0  0  0  0  0  0  0  0  0  0  0  0
   22.3296  -11.1423  -11.3612 H   0  0  0  0  0  0  0  0  0  0  0  0
   24.5980  -10.4395  -10.5703 H   0  0  0  0  0  0  0  0  0  0  0  0
   24.5979   -9.1194  -11.7436 H   0  0  0  0  0  0  0  0  0  0  0  0
   24.3549  -10.7752  -13.6054 H   0  0  0  0  0  0  0  0  0  0  0  0
   24.3571  -12.0947  -12.4316 H   0  0  0  0  0  0  0  0  0  0  0  0
   26.6253  -11.3890  -11.6428 H   0  0  0  0  0  0  0  0  0  0  0  0
   26.6230  -10.0695  -12.8167 H   0  0  0  0  0  0  0  0  0  0  0  0
   26.3814  -11.7255  -14.6777 H   0  0  0  0  0  0  0  0  0  0  0  0
   26.3838  -13.0450  -13.5039 H   0  0  0  0  0  0  0  0  0  0  0  0
   28.6519  -12.3393  -12.7152 H   0  0  0  0  0  0  0  0  0  0  0  0
   28.6496  -11.0199  -13.8891 H   0  0  0  0  0  0  0  0  0  0  0  0
   28.4077  -12.6759  -15.7500 H   0  0  0  0  0  0  0  0  0  0  0  0
   28.4100  -13.9954  -14.5762 H   0  0  0  0  0  0  0  0  0  0  0  0
   30.6785  -13.2902  -13.7879 H   0  0  0  0  0  0  0  0  0  0  0  0
   30.6762  -11.9708  -14.9619 H   0  0  0  0  0  0  0  0  0  0  0  0
   30.4333  -13.6269  -16.8224 H   0  0  0  0  0  0  0  0  0  0  0  0
   30.4357  -14.9464  -15.6487 H   0  0  0  0  0  0  0  0  0  0  0  0
   32.7068  -14.2401  -14.8621 H   0  0  0  0  0  0  0  0  0  0  0  0
   32.7019  -12.9217  -16.0358 H   0  0  0  0  0  0  0  0  0  0  0  0
   32.4630  -14.5780  -17.8965 H   0  0  0  0  0  0  0  0  0  0  0  0
   32.4623  -15.8974  -16.7225 H   0  0  0  0  0  0  0  0  0  0  0  0
   34.7299  -15.1932  -15.9315 H   0  0  0  0  0  0  0  0  0  0  0  0
   34.7297  -13.8731  -17.1042 H   0  0  0  0  0  0  0  0  0  0  0  0
   34.4881  -15.5288  -18.9661 H   0  0  0  0  0  0  0  0  0  0  0  0
   34.4902  -16.8483  -17.7924 H   0  0  0  0  0  0  0  0  0  0  0  0
   36.7582  -16.1440  -17.0037 H   0  0  0  0  0  0  0  0  0  0  0  0
   36.7561  -14.8229  -18.1758 H   0  0  0  0  0  0  0  0  0  0  0  0
   36.5158  -16.4755  -20.0393 H   0  0  0  0  0  0  0  0  0  0  0  0
   36.5161  -17.7973  -18.8680 H   0  0  0  0  0  0  0  0  0  0  0  0
   38.7843  -17.0966  -18.0767 H   0  0  0  0  0  0  0  0  0  0  0  0
   38.7838  -15.7736  -19.2464 H   0  0  0  0  0  0  0  0  0  0  0  0
   38.5390  -17.4218  -21.1119 H   0  0  0  0  0  0  0  0  0  0  0  0
   38.5416  -18.7430  -19.9411 H   0  0  0  0  0  0  0  0  0  0  0  0
   40.8119  -18.0424  -19.1516 H   0  0  0  0  0  0  0  0  0  0  0  0
   40.8094  -16.7211  -20.3231 H   0  0  0  0  0  0  0  0  0  0  0  0
   40.5682  -18.3742  -22.1871 H   0  0  0  0  0  0  0  0  0  0  0  0
   40.5705  -19.6959  -21.0151 H   0  0  0  0  0  0  0  0  0  0  0  0
   42.8381  -18.9903  -20.2237 H   0  0  0  0  0  0  0  0  0  0  0  0
   42.8353  -17.6682  -21.3956 H   0  0  0  0  0  0  0  0  0  0  0  0
   42.5947  -19.3207  -23.2586 H   0  0  0  0  0  0  0  0  0  0  0  0
   42.5977  -20.6395  -22.0870 H   0  0  0  0  0  0  0  0  0  0  0  0
   44.8631  -19.9384  -21.2969 H   0  0  0  0  0  0  0  0  0  0  0  0
   44.8611  -18.6168  -22.4688 H   0  0  0  0  0  0  0  0  0  0  0  0
   44.6205  -20.2714  -24.3331 H   0  0  0  0  0  0  0  0  0  0  0  0
   44.6229  -21.5922  -23.1613 H   0  0  0  0  0  0  0  0  0  0  0  0
   46.8914  -20.8868  -22.3712 H   0  0  0  0  0  0  0  0  0  0  0  0
   46.8892  -19.5661  -23.5443 H   0  0  0  0  0  0  0  0  0  0  0  0
   46.6462  -21.2224  -25.4062 H   0  0  0  0  0  0  0  0  0  0  0  0
   46.6472  -22.5397  -24.2316 H   0  0  0  0  0  0  0  0  0  0  0  0
   48.9176  -21.8375  -23.4420 H   0  0  0  0  0  0  0  0  0  0  0  0
   48.9162  -20.5154  -24.6168 H   0  0  0  0  0  0  0  0  0  0  0  0
   48.6700  -22.1699  -26.4801 H   0  0  0  0  0  0  0  0  0  0  0  0
   48.6750  -23.4902  -25.3083 H   0  0  0  0  0  0  0  0  0  0  0  0
   50.9422  -22.7844  -24.5215 H   0  0  0  0  0  0  0  0  0  0  0  0
   50.9387  -21.4639  -25.6945 H   0  0  0  0  0  0  0  0  0  0  0  0
   50.6936  -23.1184  -27.5564 H   0  0  0  0  0  0  0  0  0  0  0  0
   50.6978  -24.4390  -26.3840 H   0  0  0  0  0  0  0  0  0  0  0  0
   52.9635  -23.7388  -25.5853 H   0  0  0  0  0  0  0  0  0  0  0  0
   52.9613  -22.4104  -26.7650 H   0  0  0  0  0  0  0  0  0  0  0  0
   52.7114  -24.0562  -28.6414 H   0  0  0  0  0  0  0  0  0  0  0  0
   52.7205  -25.3831  -27.4603 H   0  0  0  0  0  0  0  0  0  0  0  0
   54.9862  -24.6795  -26.6674 H   0  0  0  0  0  0  0  0  0  0  0  0
   54.9823  -23.3550  -27.8331 H   0  0  0  0  0  0  0  0  0  0  0  0
   54.7314  -25.0026  -29.7040 H   0  0  0  0  0  0  0  0  0  0  0  0
   54.7368  -26.3298  -28.5339 H   0  0  0  0  0  0  0  0  0  0  0  0
   57.0008  -25.6218  -27.7383 H   0  0  0  0  0  0  0  0  0  0  0  0
   56.9963  -24.2917  -28.9044 H   0  0  0  0  0  0  0  0  0  0  0  0
   56.7492  -25.9355  -30.7720 H   0  0  0  0  0  0  0  0  0  0  0  0
   56.7535  -27.2603  -29.6084 H   0  0  0  0  0  0  0  0  0  0  0  0
   59.0154  -26.5500  -28.8086 H   0  0  0  0  0  0  0  0  0  0  0  0
   59.0087  -25.2241  -29.9752 H   0  0  0  0  0  0  0  0  0  0  0  0
   58.7456  -26.8662  -31.8423 H   0  0  0  0  0  0  0  0  0  0  0  0
   58.7538  -28.1945  -30.6730 H   0  0  0  0  0  0  0  0  0  0  0  0
   61.0090  -27.4718  -29.8672 H   0  0  0  0  0  0  0  0  0  0  0  0
   61.0025  -26.1431  -31.0358 H   0  0  0  0  0  0  0  0  0  0  0  0
   60.7422  -27.7899  -32.8993 H   0  0  0  0  0  0  0  0  0  0  0  0
   60.7490  -29.1156  -31.7310 H   0  0  0  0  0  0  0  0  0  0  0  0
   62.9955  -28.3838  -30.9141 H   0  0  0  0  0  0  0  0  0  0  0  0
   62.9856  -27.0554  -32.0794 H   0  0  0  0  0  0  0  0  0  0  0  0
   62.7249  -28.7134  -33.9494 H   0  0  0  0  0  0  0  0  0  0  0  0
   62.7404  -30.0303  -32.7919 H   0  0  0  0  0  0  0  0  0  0  0  0
   65.0007  -29.3437  -32.0023 H   0  0  0  0  0  0  0  0  0  0  0  0
   64.9778  -27.9692  -33.1483 H   0  0  0  0  0  0  0  0  0  0  0  0
   64.6716  -46.0893  -38.7893 H   0  0  0  0  0  0  0  0  0  0  0  0
  1  2  1  0  0  0  0
  1 82  1  0  0  0  0
  1 83  1  0  0  0  0
  1 84  1  0  0  0  0
  2  3  1  0  0  0  0
  2 85  1  0  0  0  0
  2 86  1  0  0  0  0
  3  4  1  0  0  0  0
  3 87  1  0  0  0  0
  3 88  1  0  0  0  0
  4  5  1  0  0  0  0
  4 89  1  0  0  0  0
  4 90  1  0  0  0  0
  5  6  1  0  0  0  0
  5 91  1  0  0  0  0
  5 92  1  0  0  0  0
  6  7  1  0  0  0  0
  6 93  1  0  0  0  0
  6 94  1  0  0  0  0
  7  8  1  0  0  0  0
  8  9  1  0  0  0  0
  9 10  1  0  0  0  0
 10 11  1  0  0  0  0
 10 95  1  0  0  0  0
 10 96  1  0  0  0  0
 11 12  1  0  0  0  0
 12 13  1  0  0  0  0
 12 97  1  0  0  0  0
 12 98  1  0  0  0  0
 13 14  1  0  0  0  0
 13 99  1  0  0  0  0
 13100  1  0  0  0  0
 14 15  1  0  0  0  0
 14101  1  0  0  0  0
 14102  1  0  0  0  0
 15 16  1  0  0  0  0
 15103  1  0  0  0  0
 15104  1  0  0  0  0
 16 17  1  0  0  0  0
 16105  1  0  0  0  0
 16106  1  0  0  0  0
 17 18  1  0  0  0  0
 17107  1  0  0  0  0
 17108  1  0  0  0  0
 18 19  1  0  0  0  0
 18109  1  0  0  0  0
 18110  1  0  0  0  0
 19 20  1  0  0  0  0
 19111  1  0  0  0  0
 19112  1  0  0  0  0
 20 21  1  0  0  0  0
 20113  1  0  0  0  0
 20114  1  0  0  0  0
 21 22  1  0  0  0  0
 21115  1  0  0  0  0
 21116  1  0  0  0  0
 22 23  1  0  0  0  0
 22117  1  0  0  0  0
 22118  1  0  0  0  0
 23 24  1  0  0  0  0
 23119  1  0  0  0  0
 23120  1  0  0  0  0
 24 25  1  0  0  0  0
 24121  1  0  0  0  0
 24122  1  0  0  0  0
 25 26  1  0  0  0  0
 25123  1  0  0  0  0
 25124  1  0  0  0  0
 26 27  1  0  0  0  0
 26125  1  0  0  0  0
 26126  1  0  0  0  0
 27 28  1  0  0  0  0
 27127  1  0  0  0  0
 27128  1  0  0  0  0
 28 29  1  0  0  0  0
 28129  1  0  0  0  0
 28130  1  0  0  0  0
 29 30  1  0  0  0  0
 29131  1  0  0  0  0
 29132  1  0  0  0  0
 30 31  1  0  0  0  0
 30133  1  0  0  0  0
 30134  1  0  0  0  0
 31 32  1  0  0  0  0
 31135  1  0  0  0  0
 31136  1  0  0  0  0
 32 33  1  0  0  0  0
 32137  1  0  0  0  0
 32138  1  0  0  0  0
 33 34  1  0  0  0  0
 33139  1  0  0  0  0
 33140  1  0  0  0  0
 34 35  1  0  0  0  0
 34141  1  0  0  0  0
 34142  1  0  0  0  0
 35 36  1  0  0  0  0
 35143  1  0  0  0  0
 35144  1  0  0  0  0
 36 37  1  0  0  0  0
 36145  1  0  0  0  0
 36146  1  0  0  0  0
 37 38  1  0  0  0  0
 37147  1  0  0  0  0
 37148  1  0  0  0  0
 38 39  1  0  0  0  0
 38149  1  0  0  0  0
 38150  1  0  0  0  0
 39 40  1  0  0  0  0
 39151  1  0  0  0  0
 39152  1  0  0  0  0
 40 41  1  0  0  0  0
 40153  1  0  0  0  0
 40154  1  0  0  0  0
 41 42  1  0  0  0  0
 41155  1  0  0  0  0
 41156  1  0  0  0  0
 42 43  1  0  0  0  0
 42157  1  0  0  0  0
 42158  1  0  0  0  0
 43 44  1  0  0  0  0
 43159  1  0  0  0  0
 43160  1  0  0  0  0
 44 45  1  0  0  0  0
 44161  1  0  0  0  0
 44162  1  0  0  0  0
 45 46  1  0  0  0  0
 45163  1  0  0  0  0
 45164  1  0  0  0  0
 46 47  1  0  0  0  0
 46165  1  0  0  0  0
 46166  1  0  0  0  0
 47 48  1  0  0  0  0
 47167  1  0  0  0  0
 47168  1  0  0  0  0
 48 49  1  0  0  0  0
 48169  1  0  0  0  0
 48170  1  0  0  0  0
 49 50  1  0  0  0  0
 49171  1  0  0  0  0
 49172  1  0  0  0  0
 50 51  1  0  0  0  0
 50173  1  0  0  0  0
 50174  1  0  0  0  0
 51 52  1  0  0  0  0
 51175  1  0  0  0  0
 51176  1  0  0  0  0
 52 53  1  0  0  0  0
 52177  1  0  0  0  0
 52178  1  0  0  0  0
 53 54  1  0  0  0  0
 53179  1  0  0  0  0
 53180  1  0  0  0  0
 54 55  1  0  0  0  0
 54181  1  0  0  0  0
 54182  1  0  0  0  0
 55 56  1  0  0  0  0
 55183  1  0  0  0  0
 55184  1  0  0  0  0
 56 57  1  0  0  0  0
 56185  1  0  0  0  0
 56186  1  0  0  0  0
 57 58  1  0  0  0  0
 57187  1  0  0  0  0
 57188  1  0  0  0  0
 58 59  1  0  0  0  0
 58189  1  0  0  0  0
 58190  1  0  0  0  0
 59 60  1  0  0  0  0
 59191  1  0  0  0  0
 59192  1  0  0  0  0
 60 61  1  0  0  0  0
 60193  1  0  0  0  0
 60194  1  0  0  0  0
 61 62  1  0  0  0  0
 61195  1  0  0  0  0
 61196  1  0  0  0  0
 62 63  1  0  0  0  0
 62197  1  0  0  0  0
 62198  1  0  0  0  0
 63 64  1  0  0  0  0
 63199  1  0  0  0  0
 63200  1  0  0  0  0
 64 65  1  0  0  0  0
 64201  1  0  0  0  0
 64202  1  0  0  0  0
 65 66  1  0  0  0  0
 66 67  1  0  0  0  0
 67 68  1  0  0  0  0
 68 69  1  0  0  0  0
 69 70  1  0  0  0  0
 70 71  1  0  0  0  0
 71 72  1  0  0  0  0
 72 73  1  0  0  0  0
 73 74  1  0  0  0  0
 74 75  1  0  0  0  0
 75 76  1  0  0  0  0
 76 77  1  0  0  0  0
 77 78  1  0  0  0  0
 78 79  1  0  0  0  0
 79 80  1  0  0  0  0
 80 81  1  0  0  0  0
 81203  1  0  0  0  0
M  END
$$$$
