
 OpenBabel04232216503D

 54 55  0  0  1  0  0  0  0  0999 V2000
    3.2117    1.3835   -0.0372 C   0  0  0  0  0  0  0  0  0  0  0  0
    4.3816    0.9578    0.8120 C   0  0  0  0  0  0  0  0  0  0  0  0
    3.9563    0.0502    1.7423 C   0  0  0  0  0  0  0  0  0  0  0  0
    4.6895   -1.1761    1.8701 C   0  0  0  0  0  0  0  0  0  0  0  0
    5.6811   -1.3175    2.7457 C   0  0  0  0  0  0  0  0  0  0  0  0
    6.9048   -1.9841    2.2204 C   0  0  0  0  0  0  0  0  0  0  0  0
    7.8465   -2.2756    3.2710 N   0  0  0  0  0  0  0  0  0  0  0  0
    8.9374   -1.3072    3.2418 C   0  0  0  0  0  0  0  0  0  0  0  0
    8.5092    0.1434    3.5704 C   0  0  0  0  0  0  0  0  0  0  0  0
    8.2120    1.1544    2.3751 C   0  0  0  0  0  0  0  0  0  0  0  0
    6.7545    1.6247    1.8507 C   0  0  0  0  0  0  0  0  0  0  0  0
    5.9265    1.1819    0.4320 C   0  0  3  0  0  0  0  0  0  0  0  0
    6.3756    2.0095   -0.9226 C   0  0  0  0  0  0  0  0  0  0  0  0
    5.9200    2.5547   -2.0822 C   0  0  0  0  0  0  0  0  0  0  0  0
    5.8463    3.0539   -3.1984 C   0  0  0  0  0  0  0  0  0  0  0  0
    5.8739    3.4726   -4.3576 C   0  0  0  0  0  0  0  0  0  0  0  0
    5.9224    3.6328   -5.6670 C   0  0  0  0  0  0  0  0  0  0  0  0
    6.1543    4.7459   -6.7191 C   0  0  0  0  0  0  0  0  0  0  0  0
    6.4167    6.2451   -6.4273 C   0  0  3  0  0  0  0  0  0  0  0  0
    7.8161    6.4600   -5.8217 C   0  0  0  0  0  0  0  0  0  0  0  0
    8.1182    7.7421   -5.2599 O   0  0  0  0  0  0  0  0  0  0  0  0
    7.0426    8.4608   -4.6701 C   0  0  0  0  0  0  0  0  0  0  0  0
    6.5771    9.4864   -5.5536 O   0  0  0  0  0  0  0  0  0  0  0  0
    5.5717    8.8730   -6.4124 O   0  0  0  0  0  0  0  0  0  0  0  0
    6.2492    8.3538   -7.4854 C   0  0  0  0  0  3  0  0  0  0  0  0
    6.3739    6.9941   -7.6833 O   0  0  0  0  0  0  0  0  0  0  0  0
    2.2679    1.3547    0.5365 H   0  0  0  0  0  0  0  0  0  0  0  0
    3.0798    0.6327   -0.8297 H   0  0  0  0  0  0  0  0  0  0  0  0
    3.2917    2.3766   -0.4639 H   0  0  0  0  0  0  0  0  0  0  0  0
    2.9074   -0.0685    2.0203 H   0  0  0  0  0  0  0  0  0  0  0  0
    4.6549   -1.7923    0.9712 H   0  0  0  0  0  0  0  0  0  0  0  0
    5.7441   -0.6516    3.6003 H   0  0  0  0  0  0  0  0  0  0  0  0
    7.3525   -1.2825    1.5030 H   0  0  0  0  0  0  0  0  0  0  0  0
    6.6802   -2.8808    1.6374 H   0  0  0  0  0  0  0  0  0  0  0  0
    7.3779   -2.2532    4.1764 H   0  0  0  0  0  0  0  0  0  0  0  0
    9.4674   -1.3535    2.2827 H   0  0  0  0  0  0  0  0  0  0  0  0
    9.6627   -1.6653    3.9866 H   0  0  0  0  0  0  0  0  0  0  0  0
    9.3960    0.5380    4.1002 H   0  0  0  0  0  0  0  0  0  0  0  0
    7.7300    0.1625    4.3423 H   0  0  0  0  0  0  0  0  0  0  0  0
    8.5688    2.0817    2.8644 H   0  0  0  0  0  0  0  0  0  0  0  0
    8.9211    0.9958    1.5599 H   0  0  0  0  0  0  0  0  0  0  0  0
    6.8713    2.7126    1.7335 H   0  0  0  0  0  0  0  0  0  0  0  0
    6.0846    1.5188    2.7131 H   0  0  0  0  0  0  0  0  0  0  0  0
    6.2947    0.1727    0.2048 H   0  0  0  0  0  0  0  0  0  0  0  0
    7.4509    1.8006   -1.0018 H   0  0  0  0  0  0  0  0  0  0  0  0
    5.7169    2.7070   -6.2143 H   0  0  0  0  0  0  0  0  0  0  0  0
    5.2746    4.7234   -7.3827 H   0  0  0  0  0  0  0  0  0  0  0  0
    6.9569    4.4010   -7.3913 H   0  0  0  0  0  0  0  0  0  0  0  0
    5.5903    6.5784   -5.7980 H   0  0  0  0  0  0  0  0  0  0  0  0
    8.5640    6.3268   -6.6177 H   0  0  0  0  0  0  0  0  0  0  0  0
    8.0244    5.7117   -5.0567 H   0  0  0  0  0  0  0  0  0  0  0  0
    7.4366    8.9617   -3.7824 H   0  0  0  0  0  0  0  0  0  0  0  0
    6.2272    7.8181   -4.3192 H   0  0  0  0  0  0  0  0  0  0  0  0
    7.1041    8.9256   -7.8251 H   0  0  0  0  0  0  0  0  0  0  0  0
  1  2  1  0  0  0  0
  1 27  1  0  0  0  0
  1 28  1  0  0  0  0
  1 29  1  0  0  0  0
  2  3  2  3  0  0  0
  2 12  1  0  0  0  0
  3  4  1  0  0  0  0
  3 30  1  0  0  0  0
  4  5  2  3  0  0  0
  4 31  1  0  0  0  0
  5  6  1  0  0  0  0
  5 32  1  0  0  0  0
  6  7  1  0  0  0  0
  6 33  1  0  0  0  0
  6 34  1  0  0  0  0
  7  8  1  0  0  0  0
  7 35  1  0  0  0  0
  8  9  1  0  0  0  0
  8 36  1  0  0  0  0
  8 37  1  0  0  0  0
  9 10  1  0  0  0  0
  9 38  1  0  0  0  0
  9 39  1  0  0  0  0
 10 11  1  0  0  0  0
 10 40  1  0  0  0  0
 10 41  1  0  0  0  0
 11 12  1  0  0  0  0
 11 42  1  0  0  0  0
 11 43  1  0  0  0  0
 12 13  1  0  0  0  0
 12 44  1  0  0  0  0
 13 14  2  0  0  0  0
 13 45  1  0  0  0  0
 14 15  2  0  0  0  0
 15 16  2  0  0  0  0
 16 17  2  0  0  0  0
 17 18  1  0  0  0  0
 17 46  1  0  0  0  0
 18 19  1  0  0  0  0
 18 47  1  0  0  0  0
 18 48  1  0  0  0  0
 19 20  1  0  0  0  0
 19 26  1  0  0  0  0
 19 49  1  0  0  0  0
 20 21  1  0  0  0  0
 20 50  1  0  0  0  0
 20 51  1  0  0  0  0
 21 22  1  0  0  0  0
 22 23  1  0  0  0  0
 22 52  1  0  0  0  0
 22 53  1  0  0  0  0
 23 24  1  0  0  0  0
 24 25  1  0  0  0  0
 25 26  1  0  0  0  0
 25 54  1  0  0  0  0
M  END
$$$$
