
 OpenBabel04232216513D

 29 29  0  0  0  0  0  0  0  0999 V2000
    1.0181    0.0252    0.3106 C   0  0  0  0  0  0  0  0  0  0  0  0
    2.5396   -0.0108    0.2410 C   0  0  0  0  0  0  0  0  0  0  0  0
    2.9710   -0.5199   -1.1177 C   0  0  0  0  0  0  0  0  0  0  0  0
    4.4502   -0.6400   -1.3851 C   0  0  0  0  0  0  0  0  0  0  0  0
    5.1491   -1.0615   -2.5621 C   0  0  0  0  0  0  0  0  0  0  0  0
    4.6793   -1.5111   -3.9361 C   0  0  0  0  0  0  0  0  0  0  0  0
    5.6954   -1.1481   -5.0085 C   0  0  0  0  0  0  0  0  0  0  0  0
    5.2750   -1.5687   -6.4127 C   0  0  0  0  0  0  0  0  0  0  0  0
    6.3462   -1.1482   -7.4100 C   0  0  0  0  0  0  0  0  0  0  0  0
    6.3240   -0.8522   -1.9394 C   0  0  0  0  0  0  0  0  0  0  0  0
    5.6236   -0.4220   -0.7652 C   0  0  0  0  0  0  0  0  0  0  0  0
    0.6800    0.3893    1.2846 H   0  0  0  0  0  0  0  0  0  0  0  0
    0.5988   -0.9747    0.1547 H   0  0  0  0  0  0  0  0  0  0  0  0
    0.6098    0.6857   -0.4620 H   0  0  0  0  0  0  0  0  0  0  0  0
    2.9272   -0.6573    1.0369 H   0  0  0  0  0  0  0  0  0  0  0  0
    2.9377    0.9950    0.4190 H   0  0  0  0  0  0  0  0  0  0  0  0
    2.5425    0.0943   -1.9213 H   0  0  0  0  0  0  0  0  0  0  0  0
    2.5217   -1.5009   -1.3309 H   0  0  0  0  0  0  0  0  0  0  0  0
    3.6733   -1.1246   -4.1374 H   0  0  0  0  0  0  0  0  0  0  0  0
    4.5647   -2.6028   -3.9070 H   0  0  0  0  0  0  0  0  0  0  0  0
    6.6596   -1.6138   -4.7700 H   0  0  0  0  0  0  0  0  0  0  0  0
    5.8552   -0.0625   -4.9931 H   0  0  0  0  0  0  0  0  0  0  0  0
    4.3201   -1.1028   -6.6825 H   0  0  0  0  0  0  0  0  0  0  0  0
    5.1361   -2.6548   -6.4595 H   0  0  0  0  0  0  0  0  0  0  0  0
    6.4842   -0.0623   -7.3949 H   0  0  0  0  0  0  0  0  0  0  0  0
    6.0731   -1.4461   -8.4249 H   0  0  0  0  0  0  0  0  0  0  0  0
    7.3074   -1.6137   -7.1630 H   0  0  0  0  0  0  0  0  0  0  0  0
    7.3698   -0.9501   -2.2084 H   0  0  0  0  0  0  0  0  0  0  0  0
    5.9469   -0.0629    0.2039 H   0  0  0  0  0  0  0  0  0  0  0  0
  1  2  1  0  0  0  0
  1 12  1  0  0  0  0
  1 13  1  0  0  0  0
  1 14  1  0  0  0  0
  2  3  1  0  0  0  0
  2 15  1  0  0  0  0
  2 16  1  0  0  0  0
  3  4  1  0  0  0  0
  3 17  1  0  0  0  0
  3 18  1  0  0  0  0
  4  5  1  0  0  0  0
  4 11  2  0  0  0  0
  5  6  1  0  0  0  0
  5 10  2  0  0  0  0
  6  7  1  0  0  0  0
  6 19  1  0  0  0  0
  6 20  1  0  0  0  0
  7  8  1  0  0  0  0
  7 21  1  0  0  0  0
  7 22  1  0  0  0  0
  8  9  1  0  0  0  0
  8 23  1  0  0  0  0
  8 24  1  0  0  0  0
  9 25  1  0  0  0  0
  9 26  1  0  0  0  0
  9 27  1  0  0  0  0
 10 11  1  0  0  0  0
 10 28  1  0  0  0  0
 11 29  1  0  0  0  0
M  END
$$$$
