
 OpenBabel04232216543D

132131  0  0  0  0  0  0  0  0999 V2000
   26.4550    8.4603   12.9581 C   0  0  0  0  0  0  0  0  0  0  0  0
   26.2229    6.9851   12.6978 C   0  0  0  0  0  0  0  0  0  0  0  0
   26.6224    6.1350   13.9027 C   0  0  0  0  0  0  0  0  0  0  0  0
   26.3358    4.6689   13.6174 C   0  0  0  0  0  0  0  0  0  0  0  0
   26.6912    3.7655   14.7972 C   0  0  0  0  0  0  0  0  0  0  0  0
   26.1847    2.4473   14.4545 N   0  0  0  0  0  0  0  0  0  0  0  0
   26.5649    1.5588   15.4947 N   0  0  0  0  0  0  0  0  0  0  0  0
   26.3152    0.1969   15.1591 N   0  0  0  0  0  0  0  0  0  0  0  0
   27.2510   -0.3407   14.2126 N   0  0  0  0  0  0  0  0  0  0  0  0
   28.5887    0.0616   14.4402 N   0  0  0  0  0  0  0  0  0  0  0  0
   29.1468   -0.7439   15.4773 N   0  0  0  0  0  0  0  0  0  0  0  0
   29.0205   -2.1843   15.1943 N   0  0  0  0  0  0  0  0  0  0  0  0
   29.6752   -2.6518   14.0186 N   0  0  0  0  0  0  0  0  0  0  0  0
   31.0838   -2.6740   14.1425 N   0  0  0  0  0  0  0  0  0  0  0  0
   31.4475   -3.4063   15.3206 N   0  0  0  0  0  0  0  0  0  0  0  0
   31.0595   -4.7870   15.1641 N   0  0  0  0  0  0  0  0  0  0  0  0
   31.6886   -5.4534   14.0452 N   0  0  0  0  0  0  0  0  0  0  0  0
   33.1107   -5.3480   14.0248 N   0  0  0  0  0  0  0  0  0  0  0  0
   33.7333   -6.0584   15.1024 N   0  0  0  0  0  0  0  0  0  0  0  0
   33.5116   -7.4825   15.0085 N   0  0  0  0  0  0  0  0  0  0  0  0
   33.9070   -8.0559   13.7429 N   0  0  0  0  0  0  0  0  0  0  0  0
   35.5463   -8.1563   13.4996 S   0  0  0  0  0  0  0  0  0  0  0  0
   36.2503   -8.9202   14.7888 N   0  0  0  0  0  0  0  0  0  0  0  0
   35.5294  -10.3671   15.1651 S   0  0  0  0  0  0  0  0  0  0  0  0
   36.0360  -11.5480   14.1254 N   0  0  0  0  0  0  0  0  0  0  0  0
   34.8366  -12.0952   13.1213 S   0  0  0  0  0  0  0  0  0  0  0  0
   33.5906  -12.5953   14.0820 N   0  0  0  0  0  0  0  0  0  0  0  0
   33.1891  -14.1837   13.8505 S   0  0  0  0  0  0  0  0  0  0  0  0
   33.8581  -15.0393   15.0971 N   0  0  0  0  0  0  0  0  0  0  0  0
   33.3653  -14.5559   16.6008 S   0  0  0  0  0  0  0  0  0  0  0  0
   34.2238  -13.1693   16.8702 N   0  0  0  0  0  0  0  0  0  0  0  0
   33.7717  -12.3903   18.2576 S   0  0  0  0  0  0  0  0  0  0  0  0
   34.4885  -13.1406   19.5612 N   0  0  0  0  0  0  0  0  0  0  0  0
   36.1454  -13.2166   19.4866 S   0  0  0  0  0  0  0  0  0  0  0  0
   36.7121  -11.6760   19.2694 N   0  0  0  0  0  0  0  0  0  0  0  0
   38.3514  -11.5647   19.4636 S   0  0  0  0  0  0  0  0  0  0  0  0
   39.0263  -12.3936   18.2112 N   0  0  0  0  0  0  0  0  0  0  0  0
   38.8074  -11.6136   16.7721 S   0  0  0  0  0  0  0  0  0  0  0  0
   39.6510  -12.4822   15.6456 N   0  0  0  0  0  0  0  0  0  0  0  0
   39.0941  -14.0345   15.4738 S   0  0  0  0  0  0  0  0  0  0  0  0
   37.5063  -13.9716   15.0117 N   0  0  0  0  0  0  0  0  0  0  0  0
   37.1278  -15.3582   14.2007 S   0  0  0  0  0  0  0  0  0  0  0  0
   37.2182  -14.9587   12.5922 N   0  0  0  0  0  0  0  0  0  0  0  0
   36.8328  -16.2565   11.6391 S   0  0  0  0  0  0  0  0  0  0  0  0
   35.2431  -16.6052   11.9338 N   0  0  0  0  0  0  0  0  0  0  0  0
   34.9017  -18.1756   11.5552 S   0  0  0  0  0  0  0  0  0  0  0  0
   35.4075  -19.0744   12.8532 N   0  0  0  0  0  0  0  0  0  0  0  0
   34.7266  -20.5753   12.8486 S   0  0  0  0  0  0  0  0  0  0  0  0
   35.4062  -21.3299   11.5466 N   0  0  0  0  0  0  0  0  0  0  0  0
   35.3148  -22.9676   11.6550 S   0  0  0  0  0  0  0  0  0  0  0  0
   33.7111  -23.3294   11.4667 N   0  0  0  0  0  0  0  0  0  0  0  0
   33.4819  -24.8640   10.9230 S   0  0  0  0  0  0  0  0  0  0  0  0
   33.9259  -25.8426   12.1820 N   0  0  0  0  0  0  0  0  0  0  0  0
   33.2694  -27.3467   12.0325 S   0  0  0  0  0  0  0  0  0  0  0  0
   34.0233  -28.0585   10.7488 N   0  0  0  0  0  0  0  0  0  0  0  0
   33.6620  -29.6583   10.7228 S   0  0  0  0  0  0  0  0  0  0  0  0
   34.1817  -30.2470    9.2803 N   0  0  0  0  0  0  0  0  0  0  0  0
   35.7979  -30.5570    9.1847 S   0  0  0  0  0  0  0  0  0  0  0  0
   36.2371  -31.4702   10.4899 N   0  0  0  0  0  0  0  0  0  0  0  0
   35.5089  -32.9562   10.5269 S   0  0  0  0  0  0  0  0  0  0  0  0
   36.5393  -33.8709   11.4315 N   0  0  0  0  0  0  0  0  0  0  0  0
   36.1037  -35.4540   11.4869 S   0  0  0  0  0  0  0  0  0  0  0  0
   36.7782  -36.1245   10.1544 N   0  0  0  0  0  0  0  0  0  0  0  0
   36.4280  -37.7370   10.0486 S   0  0  0  0  0  0  0  0  0  0  0  0
   37.2897  -38.2825    8.7488 N   0  0  0  0  0  0  0  0  0  0  0  0
   36.7550  -37.6655    7.3027 S   0  0  0  0  0  0  0  0  0  0  0  0
   37.2760  -36.0845    7.3054 N   0  0  0  0  0  0  0  0  0  0  0  0
   38.9320  -36.0197    7.1610 S   0  0  0  0  0  0  0  0  0  0  0  0
   39.2118  -33.9865    7.1246 S   0  0  0  0  0  0  0  0  0  0  0  0
   38.7044  -33.2765    8.9777 S   0  0  0  0  0  0  0  0  0  0  0  0
   40.2215  -33.6129   10.3176 S   0  0  0  0  0  0  0  0  0  0  0  0
   39.8671  -32.4146   11.9869 S   0  0  0  0  0  0  0  0  0  0  0  0
   39.3414  -33.6760   13.5523 S   0  0  0  0  0  0  0  0  0  0  0  0
   38.7383  -32.4927   15.1468 S   0  0  0  0  0  0  0  0  0  0  0  0
   39.9936  -32.8707   16.7585 S   0  0  0  0  0  0  0  0  0  0  0  0
   38.9888  -32.1779   18.4392 S   0  0  0  0  0  0  0  0  0  0  0  0
   39.8871  -33.0163   20.1041 S   0  0  0  0  0  0  0  0  0  0  0  0
   39.0933  -32.0213   21.7351 S   0  0  0  0  0  0  0  0  0  0  0  0
   40.3591  -32.3926   23.3169 S   0  0  0  0  0  0  0  0  0  0  0  0
   39.4053  -31.6565   24.9872 S   0  0  0  0  0  0  0  0  0  0  0  0
   39.9359  -29.6740   25.0735 S   0  0  0  0  0  0  0  0  0  0  0  0
   26.1617    9.0471   12.0825 H   0  0  0  0  0  0  0  0  0  0  0  0
   27.5108    8.6587   13.1666 H   0  0  0  0  0  0  0  0  0  0  0  0
   25.8628    8.8025   13.8126 H   0  0  0  0  0  0  0  0  0  0  0  0
   26.7986    6.6740   11.8182 H   0  0  0  0  0  0  0  0  0  0  0  0
   25.1637    6.8236   12.4627 H   0  0  0  0  0  0  0  0  0  0  0  0
   26.0591    6.4547   14.7876 H   0  0  0  0  0  0  0  0  0  0  0  0
   27.6873    6.2722   14.1243 H   0  0  0  0  0  0  0  0  0  0  0  0
   26.9000    4.3492   12.7304 H   0  0  0  0  0  0  0  0  0  0  0  0
   25.2704    4.5523   13.3760 H   0  0  0  0  0  0  0  0  0  0  0  0
   26.2072    4.1348   15.7097 H   0  0  0  0  0  0  0  0  0  0  0  0
   27.7774    3.7694   14.9575 H   0  0  0  0  0  0  0  0  0  0  0  0
   26.6010    2.1885   13.5564 H   0  0  0  0  0  0  0  0  0  0  0  0
   26.1074    1.8083   16.3809 H   0  0  0  0  0  0  0  0  0  0  0  0
   25.3259    0.0013   14.9346 H   0  0  0  0  0  0  0  0  0  0  0  0
   27.0124   -0.1772   13.2379 H   0  0  0  0  0  0  0  0  0  0  0  0
   28.6664    1.0619   14.6527 H   0  0  0  0  0  0  0  0  0  0  0  0
   28.6535   -0.5376   16.3568 H   0  0  0  0  0  0  0  0  0  0  0  0
   28.0410   -2.4397   15.0762 H   0  0  0  0  0  0  0  0  0  0  0  0
   29.3236   -2.2068   13.1623 H   0  0  0  0  0  0  0  0  0  0  0  0
   31.4437   -1.7185   14.2103 H   0  0  0  0  0  0  0  0  0  0  0  0
   30.9064   -3.0204   16.1063 H   0  0  0  0  0  0  0  0  0  0  0  0
   30.0377   -4.8063   15.0296 H   0  0  0  0  0  0  0  0  0  0  0  0
   31.3075   -5.1091   13.1552 H   0  0  0  0  0  0  0  0  0  0  0  0
   33.4181   -4.3741   14.0073 H   0  0  0  0  0  0  0  0  0  0  0  0
   33.3368   -5.7093   15.9827 H   0  0  0  0  0  0  0  0  0  0  0  0
   32.5134   -7.6825   15.1458 H   0  0  0  0  0  0  0  0  0  0  0  0
   33.4801   -7.5176   12.9791 H   0  0  0  0  0  0  0  0  0  0  0  0
   36.1657   -8.3123   15.6027 H   0  0  0  0  0  0  0  0  0  0  0  0
   36.8470  -11.2641   13.5737 H   0  0  0  0  0  0  0  0  0  0  0  0
   32.7704  -12.0429   13.8873 H   0  0  0  0  0  0  0  0  0  0  0  0
   34.8720  -15.0069   15.0131 H   0  0  0  0  0  0  0  0  0  0  0  0
   34.0622  -12.5628   16.0471 H   0  0  0  0  0  0  0  0  0  0  0  0
   34.1024  -14.0798   19.6432 H   0  0  0  0  0  0  0  0  0  0  0  0
   36.2857  -11.0668   19.9613 H   0  0  0  0  0  0  0  0  0  0  0  0
   38.6148  -13.3259   18.1983 H   0  0  0  0  0  0  0  0  0  0  0  0
   40.6326  -12.4971   15.9072 H   0  0  0  0  0  0  0  0  0  0  0  0
   36.8873  -13.8268   15.8185 H   0  0  0  0  0  0  0  0  0  0  0  0
   38.1797  -14.6795   12.3738 H   0  0  0  0  0  0  0  0  0  0  0  0
   34.6366  -16.0150   11.3675 H   0  0  0  0  0  0  0  0  0  0  0  0
   35.1082  -18.5923   13.6976 H   0  0  0  0  0  0  0  0  0  0  0  0
   36.3720  -21.0106   11.4834 H   0  0  0  0  0  0  0  0  0  0  0  0
   33.2884  -22.6523   10.8283 H   0  0  0  0  0  0  0  0  0  0  0  0
   33.6181  -25.4141   13.0597 H   0  0  0  0  0  0  0  0  0  0  0  0
   35.0396  -27.9059   10.8150 H   0  0  0  0  0  0  0  0  0  0  0  0
   33.8481  -29.6953    8.4911 H   0  0  0  0  0  0  0  0  0  0  0  0
   36.0652  -30.9521   11.3469 H   0  0  0  0  0  0  0  0  0  0  0  0
   36.6122  -33.4941   12.3712 H   0  0  0  0  0  0  0  0  0  0  0  0
   37.7897  -35.9727   10.0443 H   0  0  0  0  0  0  0  0  0  0  0  0
   37.2500  -39.2975    8.7112 H   0  0  0  0  0  0  0  0  0  0  0  0
   37.0073  -35.7197    8.2295 H   0  0  0  0  0  0  0  0  0  0  0  0
   39.2821  -29.3060   26.1868 H   0  0  0  0  0  0  0  0  0  0  0  0
  1  2  1  0  0  0  0
  1 82  1  0  0  0  0
  1 83  1  0  0  0  0
  1 84  1  0  0  0  0
  2  3  1  0  0  0  0
  2 85  1  0  0  0  0
  2 86  1  0  0  0  0
  3  4  1  0  0  0  0
  3 87  1  0  0  0  0
  3 88  1  0  0  0  0
  4  5  1  0  0  0  0
  4 89  1  0  0  0  0
  4 90  1  0  0  0  0
  5  6  1  0  0  0  0
  5 91  1  0  0  0  0
  5 92  1  0  0  0  0
  6  7  1  0  0  0  0
  6 93  1  0  0  0  0
  7  8  1  0  0  0  0
  7 94  1  0  0  0  0
  8  9  1  0  0  0  0
  8 95  1  0  0  0  0
  9 10  1  0  0  0  0
  9 96  1  0  0  0  0
 10 11  1  0  0  0  0
 10 97  1  0  0  0  0
 11 12  1  0  0  0  0
 11 98  1  0  0  0  0
 12 13  1  0  0  0  0
 12 99  1  0  0  0  0
 13 14  1  0  0  0  0
 13100  1  0  0  0  0
 14 15  1  0  0  0  0
 14101  1  0  0  0  0
 15 16  1  0  0  0  0
 15102  1  0  0  0  0
 16 17  1  0  0  0  0
 16103  1  0  0  0  0
 17 18  1  0  0  0  0
 17104  1  0  0  0  0
 18 19  1  0  0  0  0
 18105  1  0  0  0  0
 19 20  1  0  0  0  0
 19106  1  0  0  0  0
 20 21  1  0  0  0  0
 20107  1  0  0  0  0
 21 22  1  0  0  0  0
 21108  1  0  0  0  0
 22 23  1  0  0  0  0
 23 24  1  0  0  0  0
 23109  1  0  0  0  0
 24 25  1  0  0  0  0
 25 26  1  0  0  0  0
 25110  1  0  0  0  0
 26 27  1  0  0  0  0
 27 28  1  0  0  0  0
 27111  1  0  0  0  0
 28 29  1  0  0  0  0
 29 30  1  0  0  0  0
 29112  1  0  0  0  0
 30 31  1  0  0  0  0
 31 32  1  0  0  0  0
 31113  1  0  0  0  0
 32 33  1  0  0  0  0
 33 34  1  0  0  0  0
 33114  1  0  0  0  0
 34 35  1  0  0  0  0
 35 36  1  0  0  0  0
 35115  1  0  0  0  0
 36 37  1  0  0  0  0
 37 38  1  0  0  0  0
 37116  1  0  0  0  0
 38 39  1  0  0  0  0
 39 40  1  0  0  0  0
 39117  1  0  0  0  0
 40 41  1  0  0  0  0
 41 42  1  0  0  0  0
 41118  1  0  0  0  0
 42 43  1  0  0  0  0
 43 44  1  0  0  0  0
 43119  1  0  0  0  0
 44 45  1  0  0  0  0
 45 46  1  0  0  0  0
 45120  1  0  0  0  0
 46 47  1  0  0  0  0
 47 48  1  0  0  0  0
 47121  1  0  0  0  0
 48 49  1  0  0  0  0
 49 50  1  0  0  0  0
 49122  1  0  0  0  0
 50 51  1  0  0  0  0
 51 52  1  0  0  0  0
 51123  1  0  0  0  0
 52 53  1  0  0  0  0
 53 54  1  0  0  0  0
 53124  1  0  0  0  0
 54 55  1  0  0  0  0
 55 56  1  0  0  0  0
 55125  1  0  0  0  0
 56 57  1  0  0  0  0
 57 58  1  0  0  0  0
 57126  1  0  0  0  0
 58 59  1  0  0  0  0
 59 60  1  0  0  0  0
 59127  1  0  0  0  0
 60 61  1  0  0  0  0
 61 62  1  0  0  0  0
 61128  1  0  0  0  0
 62 63  1  0  0  0  0
 63 64  1  0  0  0  0
 63129  1  0  0  0  0
 64 65  1  0  0  0  0
 65 66  1  0  0  0  0
 65130  1  0  0  0  0
 66 67  1  0  0  0  0
 67 68  1  0  0  0  0
 67131  1  0  0  0  0
 68 69  1  0  0  0  0
 69 70  1  0  0  0  0
 70 71  1  0  0  0  0
 71 72  1  0  0  0  0
 72 73  1  0  0  0  0
 73 74  1  0  0  0  0
 74 75  1  0  0  0  0
 75 76  1  0  0  0  0
 76 77  1  0  0  0  0
 77 78  1  0  0  0  0
 78 79  1  0  0  0  0
 79 80  1  0  0  0  0
 80 81  1  0  0  0  0
 81132  1  0  0  0  0
M  END
$$$$
