
 OpenBabel04232216503D

 68 69  0  0  1  0  0  0  0  0999 V2000
    7.0287   -3.5007   -0.9097 C   0  0  0  0  0  0  0  0  0  0  0  0
    7.6529   -3.3100   -2.5053 C   0  0  3  0  0  0  0  0  0  0  0  0
    5.8947   -2.7473   -2.9323 C   0  0  0  0  0  0  0  0  0  0  0  0
    5.3330   -1.2167   -2.4138 C   0  0  0  0  0  0  0  0  0  0  0  0
    5.4042   -0.2085   -3.5528 C   0  0  0  0  0  0  0  0  0  0  0  0
    6.8660    0.0067   -3.6795 C   0  0  0  0  0  0  0  0  0  0  0  0
    7.2869   -0.9601   -4.7109 C   0  0  0  0  0  0  0  0  0  0  0  0
    8.7244   -1.0464   -4.5008 C   0  0  0  0  0  0  0  0  0  0  0  0
    9.1182   -1.8777   -5.6376 C   0  0  0  0  0  0  0  0  0  0  0  0
   10.5276   -1.5111   -5.7086 C   0  0  0  0  0  0  0  0  0  0  0  0
   10.8041   -1.8732   -7.0973 C   0  0  0  0  0  0  0  0  0  0  0  0
   12.1083   -1.3531   -7.3325 N   0  0  0  0  0  0  0  0  0  0  0  0
   12.7217   -2.4613   -7.7904 C   0  0  0  0  0  0  0  0  0  0  0  0
   12.5430   -2.7844   -8.9571 O   0  0  0  0  0  0  0  0  0  0  0  0
   12.8894   -3.2527   -6.6077 N   0  0  0  0  0  0  0  0  0  0  0  0
   12.3860   -4.5596   -6.7075 C   0  0  0  0  0  0  0  0  0  0  0  0
   11.8761   -5.1097   -5.4529 C   0  0  0  0  0  0  0  0  0  0  0  0
   13.1131   -6.0454   -4.9766 N   0  0  0  0  0  0  0  0  0  0  0  0
   14.6258   -6.3455   -5.6935 C   0  0  0  0  0  0  0  0  0  0  0  0
   15.1901   -7.6085   -6.6368 C   0  0  0  0  0  0  0  0  0  0  0  0
   15.4823   -7.5498   -8.2035 C   0  0  0  0  0  0  0  0  0  0  0  0
   14.1617   -7.5976   -8.9586 C   0  0  0  0  0  0  0  0  0  0  0  0
   14.0422   -6.5894  -10.0856 C   0  0  0  0  0  0  0  0  0  0  0  0
   13.2236   -5.3829   -9.5627 C   0  0  0  0  0  0  0  0  0  0  0  0
   13.4831   -5.0460   -8.0246 C   0  0  0  0  0  0  0  0  0  0  0  0
   10.6449   -4.4143   -4.1416 C   0  0  0  0  0  0  0  0  0  0  0  0
    9.1131   -4.1806   -3.5248 C   0  0  0  0  0  0  0  0  0  0  0  0
    6.1861   -2.7654   -0.7379 H   0  0  0  0  0  0  0  0  0  0  0  0
    7.6460   -3.1340   -0.0956 H   0  0  0  0  0  0  0  0  0  0  0  0
    6.4386   -4.4156   -0.6999 H   0  0  0  0  0  0  0  0  0  0  0  0
    8.1261   -2.2651   -2.2941 H   0  0  0  0  0  0  0  0  0  0  0  0
    5.5526   -2.9408   -3.9429 H   0  0  0  0  0  0  0  0  0  0  0  0
    5.1730   -3.3756   -2.3618 H   0  0  0  0  0  0  0  0  0  0  0  0
    5.8969   -0.8263   -1.5469 H   0  0  0  0  0  0  0  0  0  0  0  0
    4.2851   -1.2022   -2.0756 H   0  0  0  0  0  0  0  0  0  0  0  0
    4.9194    0.7642   -3.4204 H   0  0  0  0  0  0  0  0  0  0  0  0
    4.9511   -0.6586   -4.4488 H   0  0  0  0  0  0  0  0  0  0  0  0
    7.3993   -0.1877   -2.7344 H   0  0  0  0  0  0  0  0  0  0  0  0
    7.1637    1.0145   -3.9729 H   0  0  0  0  0  0  0  0  0  0  0  0
    6.9802   -0.6164   -5.7033 H   0  0  0  0  0  0  0  0  0  0  0  0
    6.9073   -1.9808   -4.6779 H   0  0  0  0  0  0  0  0  0  0  0  0
    9.0877   -1.4721   -3.5671 H   0  0  0  0  0  0  0  0  0  0  0  0
    9.1398   -0.0337   -4.5196 H   0  0  0  0  0  0  0  0  0  0  0  0
    8.5741   -1.5858   -6.5461 H   0  0  0  0  0  0  0  0  0  0  0  0
    8.9185   -2.9481   -5.5455 H   0  0  0  0  0  0  0  0  0  0  0  0
   11.1286   -2.0180   -4.9419 H   0  0  0  0  0  0  0  0  0  0  0  0
   10.7234   -0.4393   -5.5815 H   0  0  0  0  0  0  0  0  0  0  0  0
   10.1219   -1.5462   -7.8758 H   0  0  0  0  0  0  0  0  0  0  0  0
   10.6783   -2.9787   -7.1206 H   0  0  0  0  0  0  0  0  0  0  0  0
   12.5740   -1.1427   -6.4582 H   0  0  0  0  0  0  0  0  0  0  0  0
   13.8903   -3.2909   -6.4452 H   0  0  0  0  0  0  0  0  0  0  0  0
   13.4220   -5.4981   -4.1618 H   0  0  0  0  0  0  0  0  0  0  0  0
   15.2033   -6.5783   -4.7870 H   0  0  0  0  0  0  0  0  0  0  0  0
   15.0909   -5.3939   -5.9874 H   0  0  0  0  0  0  0  0  0  0  0  0
   14.6434   -8.5353   -6.4481 H   0  0  0  0  0  0  0  0  0  0  0  0
   16.2200   -7.8006   -6.2723 H   0  0  0  0  0  0  0  0  0  0  0  0
   16.0582   -8.4373   -8.5414 H   0  0  0  0  0  0  0  0  0  0  0  0
   16.1467   -6.7160   -8.4906 H   0  0  0  0  0  0  0  0  0  0  0  0
   13.3782   -7.3882   -8.2302 H   0  0  0  0  0  0  0  0  0  0  0  0
   13.9373   -8.6060   -9.3102 H   0  0  0  0  0  0  0  0  0  0  0  0
   13.5135   -7.0409  -10.9380 H   0  0  0  0  0  0  0  0  0  0  0  0
   15.0208   -6.2895  -10.5019 H   0  0  0  0  0  0  0  0  0  0  0  0
   12.1645   -5.5314   -9.7671 H   0  0  0  0  0  0  0  0  0  0  0  0
   13.5519   -4.5471  -10.2097 H   0  0  0  0  0  0  0  0  0  0  0  0
   14.0936   -4.1434   -8.2332 H   0  0  0  0  0  0  0  0  0  0  0  0
   14.3748   -5.5350   -7.6889 H   0  0  0  0  0  0  0  0  0  0  0  0
   11.3927   -4.0655   -3.4348 H   0  0  0  0  0  0  0  0  0  0  0  0
    9.6172   -3.9339   -2.5311 H   0  0  0  0  0  0  0  0  0  0  0  0
  1  2  1  0  0  0  0
  1 28  1  0  0  0  0
  1 29  1  0  0  0  0
  1 30  1  0  0  0  0
  2  3  1  0  0  0  0
  2 27  1  0  0  0  0
  2 31  1  0  0  0  0
  3  4  1  0  0  0  0
  3 32  1  0  0  0  0
  3 33  1  0  0  0  0
  4  5  1  0  0  0  0
  4 34  1  0  0  0  0
  4 35  1  0  0  0  0
  5  6  1  0  0  0  0
  5 36  1  0  0  0  0
  5 37  1  0  0  0  0
  6  7  1  0  0  0  0
  6 38  1  0  0  0  0
  6 39  1  0  0  0  0
  7  8  1  0  0  0  0
  7 40  1  0  0  0  0
  7 41  1  0  0  0  0
  8  9  1  0  0  0  0
  8 42  1  0  0  0  0
  8 43  1  0  0  0  0
  9 10  1  0  0  0  0
  9 44  1  0  0  0  0
  9 45  1  0  0  0  0
 10 11  1  0  0  0  0
 10 46  1  0  0  0  0
 10 47  1  0  0  0  0
 11 12  1  0  0  0  0
 11 48  1  0  0  0  0
 11 49  1  0  0  0  0
 12 13  1  0  0  0  0
 12 50  1  0  0  0  0
 13 14  2  0  0  0  0
 13 15  1  0  0  0  0
 15 16  1  0  0  0  0
 15 51  1  0  0  0  0
 16 17  2  3  0  0  0
 16 25  1  0  0  0  0
 17 18  1  0  0  0  0
 17 26  1  0  0  0  0
 18 19  1  0  0  0  0
 18 52  1  0  0  0  0
 19 20  1  0  0  0  0
 19 53  1  0  0  0  0
 19 54  1  0  0  0  0
 20 21  1  0  0  0  0
 20 55  1  0  0  0  0
 20 56  1  0  0  0  0
 21 22  1  0  0  0  0
 21 57  1  0  0  0  0
 21 58  1  0  0  0  0
 22 23  1  0  0  0  0
 22 59  1  0  0  0  0
 22 60  1  0  0  0  0
 23 24  1  0  0  0  0
 23 61  1  0  0  0  0
 23 62  1  0  0  0  0
 24 25  1  0  0  0  0
 24 63  1  0  0  0  0
 24 64  1  0  0  0  0
 25 65  1  0  0  0  0
 25 66  1  0  0  0  0
 26 27  2  3  0  0  0
 26 67  1  0  0  0  0
 27 68  1  0  0  0  0
M  END
$$$$
