
 OpenBabel04232216423D

 35 36  0  0  0  0  0  0  0  0999 V2000
   -0.7479   -2.2619    1.6655 C   0  0  0  0  0  0  0  0  0  0  0  0
   -0.8377   -0.9841    0.9391 C   0  0  0  0  0  0  0  0  0  0  0  0
   -1.8707   -0.5364    0.2044 C   0  0  0  0  0  0  0  0  0  0  0  0
   -3.0552   -1.3495    0.0638 C   0  0  0  0  0  0  0  0  0  0  0  0
   -4.3820   -0.7604    0.3607 C   0  0  0  0  0  0  0  0  0  0  0  0
   -2.9447   -2.6612   -0.1804 C   0  0  0  0  0  0  0  0  0  0  0  0
   -2.1286   -3.2832   -1.1128 N   0  0  0  0  0  0  0  0  0  0  0  0
   -2.8767   -3.5391   -2.1353 C   0  0  0  0  0  0  0  0  0  0  0  0
   -3.3357   -4.9095   -2.4130 C   0  0  0  0  0  0  0  0  0  0  0  0
   -4.6676   -5.0197   -2.3105 C   0  0  0  0  0  0  0  0  0  0  0  0
   -5.3286   -6.1991   -2.4679 N   0  0  0  0  0  0  0  0  0  0  0  0
   -6.3709   -6.2687   -1.7866 N   0  0  0  0  0  0  0  0  0  0  0  0
   -6.6638   -7.6019   -1.5098 N   0  0  0  0  0  0  0  0  0  0  0  0
   -6.0235   -8.1118   -0.5450 N   0  0  0  0  0  0  0  0  0  0  0  0
   -4.9206   -7.3760   -0.0491 N   0  0  0  0  0  0  0  0  0  0  0  0
   -5.1820   -6.5895    0.9598 C   0  0  0  0  0  0  0  0  0  0  0  0
   -6.5617   -6.4800    1.5863 C   0  0  0  0  0  0  0  0  0  0  0  0
   -3.9888   -5.6529    1.4573 C   0  0  0  0  0  0  0  0  0  0  0  0
   -3.0828   -6.2066    2.0526 O   0  0  0  0  0  0  0  0  0  0  0  0
   -3.9677   -4.3424    1.0347 N   0  0  0  0  0  0  0  0  0  0  0  0
   -2.9591   -3.5141    1.0698 C   0  0  0  0  0  0  0  0  0  0  0  0
   -1.6048   -3.3288    1.7888 C   0  0  0  0  0  0  0  0  0  0  0  0
    0.2302   -2.3307    2.1655 H   0  0  0  0  0  0  0  0  0  0  0  0
    0.0278   -0.3335    1.0236 H   0  0  0  0  0  0  0  0  0  0  0  0
   -1.8518    0.4219   -0.3022 H   0  0  0  0  0  0  0  0  0  0  0  0
   -4.3348    0.3210    0.4776 H   0  0  0  0  0  0  0  0  0  0  0  0
   -4.8252   -1.1912    1.2639 H   0  0  0  0  0  0  0  0  0  0  0  0
   -5.0531   -0.9667   -0.4853 H   0  0  0  0  0  0  0  0  0  0  0  0
   -3.5611   -2.7569   -2.5083 H   0  0  0  0  0  0  0  0  0  0  0  0
   -2.6567   -5.7390   -2.5433 H   0  0  0  0  0  0  0  0  0  0  0  0
   -5.2674   -4.1674   -1.9853 H   0  0  0  0  0  0  0  0  0  0  0  0
   -7.0374   -5.5307    1.3275 H   0  0  0  0  0  0  0  0  0  0  0  0
   -6.5127   -6.6095    2.6678 H   0  0  0  0  0  0  0  0  0  0  0  0
   -7.2370   -7.2687    1.2241 H   0  0  0  0  0  0  0  0  0  0  0  0
   -1.2725   -4.1633    2.3961 H   0  0  0  0  0  0  0  0  0  0  0  0
  1  2  1  0  0  0  0
  1 22  2  0  0  0  0
  1 23  1  0  0  0  0
  2  3  2  0  0  0  0
  2 24  1  0  0  0  0
  3  4  1  0  0  0  0
  3 25  1  0  0  0  0
  4  5  1  0  0  0  0
  4  6  2  0  0  0  0
  5 26  1  0  0  0  0
  5 27  1  0  0  0  0
  5 28  1  0  0  0  0
  6  7  1  0  0  0  0
  6 21  1  0  0  0  0
  7  8  2  3  0  0  0
  8  9  1  0  0  0  0
  8 29  1  0  0  0  0
  9 10  2  3  0  0  0
  9 30  1  0  0  0  0
 10 11  1  0  0  0  0
 10 31  1  0  0  0  0
 11 12  2  3  0  0  0
 12 13  1  0  0  0  0
 13 14  2  3  0  0  0
 14 15  1  0  0  0  0
 15 16  2  3  0  0  0
 16 17  1  0  0  0  0
 16 18  1  0  0  0  0
 17 32  1  0  0  0  0
 17 33  1  0  0  0  0
 17 34  1  0  0  0  0
 18 19  2  0  0  0  0
 18 20  1  0  0  0  0
 20 21  2  3  0  0  0
 21 22  1  0  0  0  0
 22 35  1  0  0  0  0
M  END
$$$$
