
 OpenBabel04232216553D

 33 33  0  0  1  0  0  0  0  0999 V2000
    1.1371   -0.0455    0.1224 C   0  0  0  0  0  0  0  0  0  0  0  0
    2.6046    0.0192    0.0164 N   0  0  0  0  0  0  0  0  0  0  0  0
    3.2862    1.1020    0.5619 C   0  0  0  0  0  0  0  0  0  0  0  0
    4.5840    1.3091    0.8514 C   0  0  0  0  0  0  0  0  0  0  0  0
    5.0092    2.5918    1.5075 C   0  0  0  0  0  0  0  0  0  0  0  0
    5.7134    0.3343    0.6116 C   0  0  0  0  0  0  0  0  0  0  0  0
    5.7191   -0.8926    1.5202 C   0  0  0  0  0  0  0  0  0  0  0  0
    4.3975   -1.6475    1.6918 C   0  0  0  0  0  0  0  0  0  0  0  0
    3.7388   -2.1708    0.4104 C   0  0  0  0  0  0  0  0  0  0  0  0
    3.2753   -1.1346   -0.6384 C   0  0  3  0  0  0  0  0  0  0  0  0
    2.4331   -1.8572   -1.7191 C   0  0  0  0  0  0  0  0  0  0  0  0
    2.0721   -0.9714   -2.7767 O   0  0  0  0  0  0  0  0  0  0  0  0
    1.4060   -1.8067   -3.7615 O   0  0  0  0  0  0  0  0  0  0  0  0
    0.9048   -0.9985   -4.8526 O   0  0  0  0  0  0  0  0  0  0  0  0
    0.7447    0.7262    0.7947 H   0  0  0  0  0  0  0  0  0  0  0  0
    0.8240   -1.0064    0.5345 H   0  0  0  0  0  0  0  0  0  0  0  0
    0.6699    0.1077   -0.8558 H   0  0  0  0  0  0  0  0  0  0  0  0
    2.5920    1.8966    0.8246 H   0  0  0  0  0  0  0  0  0  0  0  0
    4.1615    3.2516    1.7413 H   0  0  0  0  0  0  0  0  0  0  0  0
    5.6939    3.1511    0.8542 H   0  0  0  0  0  0  0  0  0  0  0  0
    5.5298    2.3824    2.4540 H   0  0  0  0  0  0  0  0  0  0  0  0
    6.6721    0.8503    0.7633 H   0  0  0  0  0  0  0  0  0  0  0  0
    5.7611    0.0428   -0.4412 H   0  0  0  0  0  0  0  0  0  0  0  0
    6.0473   -0.5822    2.5214 H   0  0  0  0  0  0  0  0  0  0  0  0
    6.4796   -1.5940    1.1575 H   0  0  0  0  0  0  0  0  0  0  0  0
    3.6851   -1.0434    2.2629 H   0  0  0  0  0  0  0  0  0  0  0  0
    4.5968   -2.5195    2.3319 H   0  0  0  0  0  0  0  0  0  0  0  0
    2.8652   -2.7623    0.7208 H   0  0  0  0  0  0  0  0  0  0  0  0
    4.4228   -2.8787   -0.0758 H   0  0  0  0  0  0  0  0  0  0  0  0
    4.1367   -0.7508   -1.1947 H   0  0  0  0  0  0  0  0  0  0  0  0
    1.5211   -2.2903   -1.2945 H   0  0  0  0  0  0  0  0  0  0  0  0
    3.0241   -2.6766   -2.1457 H   0  0  0  0  0  0  0  0  0  0  0  0
   -0.0368   -1.1872   -4.6897 H   0  0  0  0  0  0  0  0  0  0  0  0
  1  2  1  0  0  0  0
  1 15  1  0  0  0  0
  1 16  1  0  0  0  0
  1 17  1  0  0  0  0
  2  3  1  0  0  0  0
  2 10  1  0  0  0  0
  3  4  2  0  0  0  0
  3 18  1  0  0  0  0
  4  5  1  0  0  0  0
  4  6  1  0  0  0  0
  5 19  1  0  0  0  0
  5 20  1  0  0  0  0
  5 21  1  0  0  0  0
  6  7  1  0  0  0  0
  6 22  1  0  0  0  0
  6 23  1  0  0  0  0
  7  8  1  0  0  0  0
  7 24  1  0  0  0  0
  7 25  1  0  0  0  0
  8  9  1  0  0  0  0
  8 26  1  0  0  0  0
  8 27  1  0  0  0  0
  9 10  1  0  0  0  0
  9 28  1  0  0  0  0
  9 29  1  0  0  0  0
 10 11  1  0  0  0  0
 10 30  1  0  0  0  0
 11 12  1  0  0  0  0
 11 31  1  0  0  0  0
 11 32  1  0  0  0  0
 12 13  1  0  0  0  0
 13 14  1  0  0  0  0
 14 33  1  0  0  0  0
M  END
$$$$
