
 OpenBabel04232216533D

104103  0  0  0  0  0  0  0  0999 V2000
    0.8428    0.1404    0.3559 C   0  0  0  0  0  0  0  0  0  0  0  0
    2.3547    0.1937    0.3376 C   0  0  0  0  0  0  0  0  0  0  0  0
    2.9196   -1.2316    0.5560 C   0  0  0  0  0  0  0  0  0  0  0  0
    4.4300   -1.2000    0.5282 C   0  0  0  0  0  0  0  0  0  0  0  0
    4.9368   -2.6256    0.7432 C   0  0  0  0  0  0  0  0  0  0  0  0
    6.4412   -2.6299    0.7109 C   0  0  0  0  0  0  0  0  0  0  0  0
    6.9056   -4.0667    0.9271 C   0  0  0  0  0  0  0  0  0  0  0  0
    8.4073   -4.0608    0.9189 C   0  0  0  0  0  0  0  0  0  0  0  0
    8.7606   -5.3959    1.1622 O   0  0  0  0  0  0  0  0  0  0  0  0
   10.1579   -5.4252    0.8957 O   0  0  0  0  0  0  0  0  0  0  0  0
   10.6578   -6.7270    1.1684 O   0  0  0  0  0  0  0  0  0  0  0  0
   12.0231   -6.6181    1.5580 O   0  0  0  0  0  0  0  0  0  0  0  0
   12.5692   -7.9234    1.7130 O   0  0  0  0  0  0  0  0  0  0  0  0
   13.8464   -7.9853    1.0746 O   0  0  0  0  0  0  0  0  0  0  0  0
   14.4211   -9.2692    1.3154 O   0  0  0  0  0  0  0  0  0  0  0  0
   15.6810   -9.1191    1.9779 O   0  0  0  0  0  0  0  0  0  0  0  0
   16.2516  -10.4100    2.1724 O   0  0  0  0  0  0  0  0  0  0  0  0
   17.3495  -10.5987    1.2770 O   0  0  0  0  0  0  0  0  0  0  0  0
   17.9651  -11.8399    1.6024 O   0  0  0  0  0  0  0  0  0  0  0  0
   19.3159  -11.6412    2.0345 N   0  0  0  0  0  0  0  0  0  0  0  0
   19.8146  -12.9256    2.2417 N   0  0  0  0  0  0  0  0  0  0  0  0
   21.2114  -12.9550    2.0262 N   0  0  0  0  0  0  0  0  0  0  0  0
   21.6640  -14.2237    2.4435 N   0  0  0  0  0  0  0  0  0  0  0  0
   23.0581  -14.2716    2.3906 N   0  0  0  0  0  0  0  0  0  0  0  0
   23.3575  -15.5948    1.9365 O   0  0  0  0  0  0  0  0  0  0  0  0
   24.7551  -15.8288    1.9270 O   0  0  0  0  0  0  0  0  0  0  0  0
   25.1181  -16.5685    3.1092 O   0  0  0  0  0  0  0  0  0  0  0  0
   26.5368  -16.7504    3.1356 O   0  0  0  0  0  0  0  0  0  0  0  0
   26.8743  -17.9362    2.3979 O   0  0  0  0  0  0  0  0  0  0  0  0
   28.2951  -18.1076    2.3973 O   0  0  0  0  0  0  0  0  0  0  0  0
   28.6594  -19.0640    3.4029 O   0  0  0  0  0  0  0  0  0  0  0  0
   30.0734  -19.2580    3.3782 O   0  0  0  0  0  0  0  0  0  0  0  0
   30.3666  -20.4878    2.7096 O   0  0  0  0  0  0  0  0  0  0  0  0
   31.7775  -20.6706    2.6796 O   0  0  0  0  0  0  0  0  0  0  0  0
   32.1339  -21.6810    3.6648 O   0  0  0  0  0  0  0  0  0  0  0  0
   33.5504  -21.7066    3.6817 O   0  0  0  0  0  0  0  0  0  0  0  0
   34.0309  -22.9356    3.1601 O   0  0  0  0  0  0  0  0  0  0  0  0
   35.4158  -22.8805    3.3997 O   0  0  0  0  0  0  0  0  0  0  0  0
   35.9376  -24.0818    3.9148 O   0  0  0  0  0  0  0  0  0  0  0  0
   37.1630  -24.2284    3.2207 O   0  0  0  0  0  0  0  0  0  0  0  0
   37.6825  -25.5185    3.3711 O   0  0  0  0  0  0  0  0  0  0  0  0
   38.8567  -25.3925    4.1581 O   0  0  0  0  0  0  0  0  0  0  0  0
   39.3646  -26.6757    4.4001 O   0  0  0  0  0  0  0  0  0  0  0  0
   40.5434  -26.8800    3.6439 O   0  0  0  0  0  0  0  0  0  0  0  0
   41.0147  -28.1427    4.0334 O   0  0  0  0  0  0  0  0  0  0  0  0
   42.3816  -28.1198    4.3762 O   0  0  0  0  0  0  0  0  0  0  0  0
   42.9056  -29.3232    3.8340 O   0  0  0  0  0  0  0  0  0  0  0  0
   44.3087  -29.3457    3.9368 O   0  0  0  0  0  0  0  0  0  0  0  0
   44.6567  -30.2472    4.9862 O   0  0  0  0  0  0  0  0  0  0  0  0
   46.0567  -30.4642    4.9546 O   0  0  0  0  0  0  0  0  0  0  0  0
   46.3265  -31.6201    4.1605 O   0  0  0  0  0  0  0  0  0  0  0  0
   47.7276  -31.7908    4.0774 O   0  0  0  0  0  0  0  0  0  0  0  0
   48.1384  -32.7638    5.0125 O   0  0  0  0  0  0  0  0  0  0  0  0
   49.5452  -32.8123    4.9388 O   0  0  0  0  0  0  0  0  0  0  0  0
   50.0461  -34.1154    4.6766 O   0  0  0  0  0  0  0  0  0  0  0  0
   51.3541  -34.1004    5.1838 O   0  0  0  0  0  0  0  0  0  0  0  0
   51.8916  -35.4195    5.3932 O   0  0  0  0  0  0  0  0  0  0  0  0
   53.0543  -35.5194    4.5424 O   0  0  0  0  0  0  0  0  0  0  0  0
   53.6656  -36.7845    4.7987 O   0  0  0  0  0  0  0  0  0  0  0  0
   54.7578  -36.6201    5.7187 O   0  0  0  0  0  0  0  0  0  0  0  0
   55.4106  -37.8812    5.8955 O   0  0  0  0  0  0  0  0  0  0  0  0
   56.5046  -37.9931    4.9687 O   0  0  0  0  0  0  0  0  0  0  0  0
   57.1505  -39.2615    5.1421 O   0  0  0  0  0  0  0  0  0  0  0  0
   58.3273  -39.1001    5.9547 O   0  0  0  0  0  0  0  0  0  0  0  0
   58.9557  -40.3763    6.1516 O   0  0  0  0  0  0  0  0  0  0  0  0
   60.0957  -40.5016    5.2799 O   0  0  0  0  0  0  0  0  0  0  0  0
   60.7176  -41.7833    5.4770 O   0  0  0  0  0  0  0  0  0  0  0  0
   61.9153  -41.6359    6.2658 O   0  0  0  0  0  0  0  0  0  0  0  0
   62.5342  -42.9222    6.4572 O   0  0  0  0  0  0  0  0  0  0  0  0
   63.7243  -43.0260    5.6486 O   0  0  0  0  0  0  0  0  0  0  0  0
   64.3550  -44.3055    5.8618 O   0  0  0  0  0  0  0  0  0  0  0  0
   65.6219  -44.1271    6.5288 O   0  0  0  0  0  0  0  0  0  0  0  0
   66.2374  -45.4069    6.7880 O   0  0  0  0  0  0  0  0  0  0  0  0
   67.5123  -45.4828    6.1146 O   0  0  0  0  0  0  0  0  0  0  0  0
   68.0493  -46.8198    6.1945 O   0  0  0  0  0  0  0  0  0  0  0  0
   69.3520  -46.7949    6.8222 O   0  0  0  0  0  0  0  0  0  0  0  0
   69.8184  -48.1415    7.0510 O   0  0  0  0  0  0  0  0  0  0  0  0
   71.0357  -48.3988    6.3112 O   0  0  0  0  0  0  0  0  0  0  0  0
   71.6730  -49.5925    6.8298 O   0  0  0  0  0  0  0  0  0  0  0  0
   73.1039  -49.4100    6.9510 O   0  0  0  0  0  0  0  0  0  0  0  0
   73.4235  -48.5576    8.0776 O   0  0  0  0  0  0  0  0  0  0  0  0
    0.4154    1.1189    0.2259 H   0  0  0  0  0  0  0  0  0  0  0  0
    0.4987   -0.2404    1.3488 H   0  0  0  0  0  0  0  0  0  0  0  0
    0.4607   -0.5350   -0.4006 H   0  0  0  0  0  0  0  0  0  0  0  0
    2.7042    0.9020    1.1222 H   0  0  0  0  0  0  0  0  0  0  0  0
    2.6936    0.5619   -0.6347 H   0  0  0  0  0  0  0  0  0  0  0  0
    2.5112   -1.9092   -0.2112 H   0  0  0  0  0  0  0  0  0  0  0  0
    2.5619   -1.6118    1.5239 H   0  0  0  0  0  0  0  0  0  0  0  0
    4.8125   -0.5471    1.3229 H   0  0  0  0  0  0  0  0  0  0  0  0
    4.7802   -0.8358   -0.4186 H   0  0  0  0  0  0  0  0  0  0  0  0
    4.5361   -3.2687   -0.0398 H   0  0  0  0  0  0  0  0  0  0  0  0
    4.5749   -3.0187    1.7107 H   0  0  0  0  0  0  0  0  0  0  0  0
    6.8474   -2.0064    1.4847 H   0  0  0  0  0  0  0  0  0  0  0  0
    6.8042   -2.2723   -0.2622 H   0  0  0  0  0  0  0  0  0  0  0  0
    6.5340   -4.7197    0.1395 H   0  0  0  0  0  0  0  0  0  0  0  0
    6.5419   -4.4638    1.8715 H   0  0  0  0  0  0  0  0  0  0  0  0
    8.8307   -3.4183    1.7035 H   0  0  0  0  0  0  0  0  0  0  0  0
    8.7940   -3.7351   -0.0597 H   0  0  0  0  0  0  0  0  0  0  0  0
   19.1956  -11.1414    2.9227 H   0  0  0  0  0  0  0  0  0  0  0  0
   19.3279  -13.5254    1.5635 H   0  0  0  0  0  0  0  0  0  0  0  0
   21.6636  -12.2253    2.5740 H   0  0  0  0  0  0  0  0  0  0  0  0
   21.3117  -14.9741    1.8033 H   0  0  0  0  0  0  0  0  0  0  0  0
   23.4890  -14.2548    3.3307 H   0  0  0  0  0  0  0  0  0  0  0  0
   74.3267  -48.3518    7.7825 H   0  0  0  0  0  0  0  0  0  0  0  0
  1  2  1  0  0  0  0
  1 82  1  0  0  0  0
  1 83  1  0  0  0  0
  1 84  1  0  0  0  0
  2  3  1  0  0  0  0
  2 85  1  0  0  0  0
  2 86  1  0  0  0  0
  3  4  1  0  0  0  0
  3 87  1  0  0  0  0
  3 88  1  0  0  0  0
  4  5  1  0  0  0  0
  4 89  1  0  0  0  0
  4 90  1  0  0  0  0
  5  6  1  0  0  0  0
  5 91  1  0  0  0  0
  5 92  1  0  0  0  0
  6  7  1  0  0  0  0
  6 93  1  0  0  0  0
  6 94  1  0  0  0  0
  7  8  1  0  0  0  0
  7 95  1  0  0  0  0
  7 96  1  0  0  0  0
  8  9  1  0  0  0  0
  8 97  1  0  0  0  0
  8 98  1  0  0  0  0
  9 10  1  0  0  0  0
 10 11  1  0  0  0  0
 11 12  1  0  0  0  0
 12 13  1  0  0  0  0
 13 14  1  0  0  0  0
 14 15  1  0  0  0  0
 15 16  1  0  0  0  0
 16 17  1  0  0  0  0
 17 18  1  0  0  0  0
 18 19  1  0  0  0  0
 19 20  1  0  0  0  0
 20 21  1  0  0  0  0
 20 99  1  0  0  0  0
 21 22  1  0  0  0  0
 21100  1  0  0  0  0
 22 23  1  0  0  0  0
 22101  1  0  0  0  0
 23 24  1  0  0  0  0
 23102  1  0  0  0  0
 24 25  1  0  0  0  0
 24103  1  0  0  0  0
 25 26  1  0  0  0  0
 26 27  1  0  0  0  0
 27 28  1  0  0  0  0
 28 29  1  0  0  0  0
 29 30  1  0  0  0  0
 30 31  1  0  0  0  0
 31 32  1  0  0  0  0
 32 33  1  0  0  0  0
 33 34  1  0  0  0  0
 34 35  1  0  0  0  0
 35 36  1  0  0  0  0
 36 37  1  0  0  0  0
 37 38  1  0  0  0  0
 38 39  1  0  0  0  0
 39 40  1  0  0  0  0
 40 41  1  0  0  0  0
 41 42  1  0  0  0  0
 42 43  1  0  0  0  0
 43 44  1  0  0  0  0
 44 45  1  0  0  0  0
 45 46  1  0  0  0  0
 46 47  1  0  0  0  0
 47 48  1  0  0  0  0
 48 49  1  0  0  0  0
 49 50  1  0  0  0  0
 50 51  1  0  0  0  0
 51 52  1  0  0  0  0
 52 53  1  0  0  0  0
 53 54  1  0  0  0  0
 54 55  1  0  0  0  0
 55 56  1  0  0  0  0
 56 57  1  0  0  0  0
 57 58  1  0  0  0  0
 58 59  1  0  0  0  0
 59 60  1  0  0  0  0
 60 61  1  0  0  0  0
 61 62  1  0  0  0  0
 62 63  1  0  0  0  0
 63 64  1  0  0  0  0
 64 65  1  0  0  0  0
 65 66  1  0  0  0  0
 66 67  1  0  0  0  0
 67 68  1  0  0  0  0
 68 69  1  0  0  0  0
 69 70  1  0  0  0  0
 70 71  1  0  0  0  0
 71 72  1  0  0  0  0
 72 73  1  0  0  0  0
 73 74  1  0  0  0  0
 74 75  1  0  0  0  0
 75 76  1  0  0  0  0
 76 77  1  0  0  0  0
 77 78  1  0  0  0  0
 78 79  1  0  0  0  0
 79 80  1  0  0  0  0
 80 81  1  0  0  0  0
 81104  1  0  0  0  0
M  END
$$$$
