
 OpenBabel04232216473D

115115  0  0  1  0  0  0  0  0999 V2000
    4.2696    3.5954    0.2871 C   0  0  0  0  0  0  0  0  0  0  0  0
    3.3804    4.6820   -0.2373 C   0  0  3  0  0  0  0  0  0  0  0  0
    2.0599    4.6262   -0.2178 C   0  0  0  0  0  0  0  0  0  0  0  0
    2.4029    4.2632   -1.4498 C   0  0  0  0  0  0  0  0  0  0  0  0
    3.3141    4.0683   -2.4217 O   0  0  0  0  0  0  0  0  0  0  0  0
    2.6157    3.3593   -3.4569 O   0  0  0  0  0  0  0  0  0  0  0  0
    3.2785    2.0989   -3.7081 O   0  0  0  0  0  0  0  0  0  0  0  0
    2.9014    1.5991   -4.9924 O   0  0  0  0  0  0  0  0  0  0  0  0
    3.4542    2.4410   -6.0009 O   0  0  0  0  0  0  0  0  0  0  0  0
    2.8927    2.0824   -7.2473 O   0  0  0  0  0  0  0  0  0  0  0  0
    3.3576    2.9838   -8.2107 O   0  0  0  0  0  0  0  0  0  0  0  0
    2.9071    2.5320   -9.4583 O   0  0  0  0  0  0  0  0  0  0  0  0
    3.3885    3.4314  -10.4165 O   0  0  0  0  0  0  0  0  0  0  0  0
    2.8992    2.9904  -11.6358 O   0  0  0  0  0  0  0  0  0  0  0  0
    3.3816    3.8819  -12.5828 O   0  0  0  0  0  0  0  0  0  0  0  0
    2.9072    3.4465  -13.8109 O   0  0  0  0  0  0  0  0  0  0  0  0
    3.3900    4.3389  -14.7361 O   0  0  0  0  0  0  0  0  0  0  0  0
    2.9246    3.9161  -15.9446 O   0  0  0  0  0  0  0  0  0  0  0  0
    3.3957    4.7897  -16.8675 O   0  0  0  0  0  0  0  0  0  0  0  0
    2.9132    4.3400  -18.0705 O   0  0  0  0  0  0  0  0  0  0  0  0
    3.3922    5.2219  -19.0010 O   0  0  0  0  0  0  0  0  0  0  0  0
    2.9006    4.7615  -20.1924 O   0  0  0  0  0  0  0  0  0  0  0  0
    3.3732    5.6401  -21.1243 O   0  0  0  0  0  0  0  0  0  0  0  0
    2.8949    5.1942  -22.3204 O   0  0  0  0  0  0  0  0  0  0  0  0
    3.3766    6.0802  -23.2307 O   0  0  0  0  0  0  0  0  0  0  0  0
    2.9026    5.6434  -24.4338 O   0  0  0  0  0  0  0  0  0  0  0  0
    3.3917    6.5386  -25.3368 O   0  0  0  0  0  0  0  0  0  0  0  0
    2.9199    6.1049  -26.5395 O   0  0  0  0  0  0  0  0  0  0  0  0
    3.4076    6.9991  -27.4472 O   0  0  0  0  0  0  0  0  0  0  0  0
    2.9291    6.5545  -28.6444 O   0  0  0  0  0  0  0  0  0  0  0  0
    3.4088    7.4396  -29.5638 O   0  0  0  0  0  0  0  0  0  0  0  0
    2.9251    6.9863  -30.7557 O   0  0  0  0  0  0  0  0  0  0  0  0
    3.4021    7.8683  -31.6791 O   0  0  0  0  0  0  0  0  0  0  0  0
    2.9197    7.4176  -32.8743 O   0  0  0  0  0  0  0  0  0  0  0  0
    3.4018    8.3056  -33.7915 O   0  0  0  0  0  0  0  0  0  0  0  0
    2.9235    7.8624  -34.9942 O   0  0  0  0  0  0  0  0  0  0  0  0
    3.4059    8.7498  -35.9065 O   0  0  0  0  0  0  0  0  0  0  0  0
    2.9285    8.3060  -37.0991 O   0  0  0  0  0  0  0  0  0  0  0  0
    3.4070    9.1931  -38.0368 O   0  0  0  0  0  0  0  0  0  0  0  0
    2.9315    8.7497  -39.2195 O   0  0  0  0  0  0  0  0  0  0  0  0
    3.4106    9.6372  -40.1551 O   0  0  0  0  0  0  0  0  0  0  0  0
    2.9240    9.1844  -41.3692 O   0  0  0  0  0  0  0  0  0  0  0  0
    3.4120   10.0822  -42.2907 O   0  0  0  0  0  0  0  0  0  0  0  0
    2.9359    9.6437  -43.5034 O   0  0  0  0  0  0  0  0  0  0  0  0
    3.4182   10.5362  -44.4398 O   0  0  0  0  0  0  0  0  0  0  0  0
    2.9361   10.0945  -45.6605 O   0  0  0  0  0  0  0  0  0  0  0  0
    3.4133   10.9763  -46.6062 O   0  0  0  0  0  0  0  0  0  0  0  0
    2.9291   10.5228  -47.8312 O   0  0  0  0  0  0  0  0  0  0  0  0
    3.3856   11.4083  -48.7908 O   0  0  0  0  0  0  0  0  0  0  0  0
    2.9048   10.9548  -50.0261 O   0  0  0  0  0  0  0  0  0  0  0  0
    3.4610   11.8844  -50.8915 C   0  0  0  0  0  0  0  0  0  0  0  0
    3.0964   11.4497  -52.1588 O   0  0  0  0  0  0  0  0  0  0  0  0
    3.4659   12.3975  -53.1231 C   0  0  0  0  0  0  0  0  0  0  0  0
    2.9185   12.0250  -54.3707 O   0  0  0  0  0  0  0  0  0  0  0  0
    1.4943   11.9315  -54.2854 C   0  0  0  0  0  0  0  0  0  0  0  0
    0.9341   11.4529  -55.4967 O   0  0  0  0  0  0  0  0  0  0  0  0
    1.4315   10.1495  -55.7918 C   0  0  0  0  0  0  0  0  0  0  0  0
    0.9611    9.7057  -57.0507 O   0  0  0  0  0  0  0  0  0  0  0  0
    1.3534   10.6214  -58.0655 C   0  0  0  0  0  0  0  0  0  0  0  0
    0.7887   10.2581  -59.3068 O   0  0  0  0  0  0  0  0  0  0  0  0
   -0.6350   10.2419  -59.2400 C   0  0  0  0  0  0  0  0  0  0  0  0
   -1.1966    9.7927  -60.4645 O   0  0  0  0  0  0  0  0  0  0  0  0
   -0.7404    8.4810  -60.7732 C   0  0  0  0  0  0  0  0  0  0  0  0
   -1.2386    8.0664  -62.0310 O   0  0  0  0  0  0  0  0  0  0  0  0
   -0.8575    8.9964  -63.0396 C   0  0  0  0  0  0  0  0  0  0  0  0
   -1.4291    8.6545  -64.3002 O   0  0  0  0  0  0  0  0  0  0  0  0
   -2.8520    8.6306  -64.1984 C   0  0  0  0  0  0  0  0  0  0  0  0
   -3.4528    8.1956  -65.4139 O   0  0  0  0  0  0  0  0  0  0  0  0
   -3.0184    6.8824  -65.7614 C   0  0  0  0  0  0  0  0  0  0  0  0
   -3.5663    6.4792  -67.0229 O   0  0  0  0  0  0  0  0  0  0  0  0
   -3.1577    7.3874  -68.0403 C   0  0  0  0  0  0  0  0  0  0  0  0
   -3.7384    7.0404  -69.2915 O   0  0  0  0  0  0  0  0  0  0  0  0
   -5.1605    7.0271  -69.2032 C   0  0  0  0  0  0  0  0  0  0  0  0
   -5.7384    6.6200  -70.4440 O   0  0  0  0  0  0  0  0  0  0  0  0
   -5.3090    5.2964  -70.7496 C   0  0  0  0  0  0  0  0  0  0  0  0
   -5.8509    4.8733  -71.9949 O   0  0  0  0  0  0  0  0  0  0  0  0
   -5.4803    3.5246  -72.2747 C   0  0  0  0  0  0  0  0  0  0  0  0
   -5.9236    2.5894  -71.2902 O   0  0  0  0  0  0  0  0  0  0  0  0
   -7.3367    2.6283  -71.1335 C   0  0  0  0  0  0  0  0  0  0  0  0
    4.7000    3.9059    1.2412 H   0  0  0  0  0  0  0  0  0  0  0  0
    5.0881    3.4055   -0.4168 H   0  0  0  0  0  0  0  0  0  0  0  0
    3.7300    2.6538    0.4345 H   0  0  0  0  0  0  0  0  0  0  0  0
    3.9072    5.6074   -0.4596 H   0  0  0  0  0  0  0  0  0  0  0  0
    1.2040    4.7532    0.4300 H   0  0  0  0  0  0  0  0  0  0  0  0
    4.5522   11.8852  -50.7876 H   0  0  0  0  0  0  0  0  0  0  0  0
    3.0577   12.8773  -50.6478 H   0  0  0  0  0  0  0  0  0  0  0  0
    4.5570   12.4021  -53.1848 H   0  0  0  0  0  0  0  0  0  0  0  0
    3.1086   13.3979  -52.8528 H   0  0  0  0  0  0  0  0  0  0  0  0
    1.0916   12.9282  -54.0866 H   0  0  0  0  0  0  0  0  0  0  0  0
    1.1680   11.2599  -53.4792 H   0  0  0  0  0  0  0  0  0  0  0  0
    1.0818    9.4450  -55.0301 H   0  0  0  0  0  0  0  0  0  0  0  0
    2.5280   10.1251  -55.8119 H   0  0  0  0  0  0  0  0  0  0  0  0
    2.4430   10.6069  -58.1655 H   0  0  0  0  0  0  0  0  0  0  0  0
    1.0355   11.6463  -57.8397 H   0  0  0  0  0  0  0  0  0  0  0  0
   -1.0026   11.2547  -59.0463 H   0  0  0  0  0  0  0  0  0  0  0  0
   -0.9921    9.5807  -58.4414 H   0  0  0  0  0  0  0  0  0  0  0  0
   -1.0945    7.7793  -60.0119 H   0  0  0  0  0  0  0  0  0  0  0  0
    0.3542    8.4386  -60.8128 H   0  0  0  0  0  0  0  0  0  0  0  0
    0.2309    8.9766  -63.1536 H   0  0  0  0  0  0  0  0  0  0  0  0
   -1.1696   10.0195  -62.8015 H   0  0  0  0  0  0  0  0  0  0  0  0
   -3.2158    9.6412  -63.9882 H   0  0  0  0  0  0  0  0  0  0  0  0
   -3.1920    7.9601  -63.4007 H   0  0  0  0  0  0  0  0  0  0  0  0
   -3.3579    6.1710  -65.0027 H   0  0  0  0  0  0  0  0  0  0  0  0
   -1.9253    6.8304  -65.8338 H   0  0  0  0  0  0  0  0  0  0  0  0
   -2.0697    7.3498  -68.1545 H   0  0  0  0  0  0  0  0  0  0  0  0
   -3.4563    8.4152  -67.8062 H   0  0  0  0  0  0  0  0  0  0  0  0
   -5.5224    8.0345  -68.9764 H   0  0  0  0  0  0  0  0  0  0  0  0
   -5.5108    6.3483  -68.4135 H   0  0  0  0  0  0  0  0  0  0  0  0
   -5.6394    4.6295  -69.9434 H   0  0  0  0  0  0  0  0  0  0  0  0
   -4.2163    5.2602  -70.8218 H   0  0  0  0  0  0  0  0  0  0  0  0
   -4.3886    3.4602  -72.3522 H   0  0  0  0  0  0  0  0  0  0  0  0
   -5.8971    3.2492  -73.2481 H   0  0  0  0  0  0  0  0  0  0  0  0
   -7.6151    1.9394  -70.3334 H   0  0  0  0  0  0  0  0  0  0  0  0
   -7.8210    2.3242  -72.0640 H   0  0  0  0  0  0  0  0  0  0  0  0
   -7.6766    3.6299  -70.8486 H   0  0  0  0  0  0  0  0  0  0  0  0
  1  2  1  0  0  0  0
  1 80  1  0  0  0  0
  1 81  1  0  0  0  0
  1 82  1  0  0  0  0
  2  3  1  0  0  0  0
  2  4  1  0  0  0  0
  2 83  1  0  0  0  0
  3  4  2  0  0  0  0
  3 84  1  0  0  0  0
  4  5  1  0  0  0  0
  5  6  1  0  0  0  0
  6  7  1  0  0  0  0
  7  8  1  0  0  0  0
  8  9  1  0  0  0  0
  9 10  1  0  0  0  0
 10 11  1  0  0  0  0
 11 12  1  0  0  0  0
 12 13  1  0  0  0  0
 13 14  1  0  0  0  0
 14 15  1  0  0  0  0
 15 16  1  0  0  0  0
 16 17  1  0  0  0  0
 17 18  1  0  0  0  0
 18 19  1  0  0  0  0
 19 20  1  0  0  0  0
 20 21  1  0  0  0  0
 21 22  1  0  0  0  0
 22 23  1  0  0  0  0
 23 24  1  0  0  0  0
 24 25  1  0  0  0  0
 25 26  1  0  0  0  0
 26 27  1  0  0  0  0
 27 28  1  0  0  0  0
 28 29  1  0  0  0  0
 29 30  1  0  0  0  0
 30 31  1  0  0  0  0
 31 32  1  0  0  0  0
 32 33  1  0  0  0  0
 33 34  1  0  0  0  0
 34 35  1  0  0  0  0
 35 36  1  0  0  0  0
 36 37  1  0  0  0  0
 37 38  1  0  0  0  0
 38 39  1  0  0  0  0
 39 40  1  0  0  0  0
 40 41  1  0  0  0  0
 41 42  1  0  0  0  0
 42 43  1  0  0  0  0
 43 44  1  0  0  0  0
 44 45  1  0  0  0  0
 45 46  1  0  0  0  0
 46 47  1  0  0  0  0
 47 48  1  0  0  0  0
 48 49  1  0  0  0  0
 49 50  1  0  0  0  0
 50 51  1  0  0  0  0
 51 52  1  0  0  0  0
 51 85  1  0  0  0  0
 51 86  1  0  0  0  0
 52 53  1  0  0  0  0
 53 54  1  0  0  0  0
 53 87  1  0  0  0  0
 53 88  1  0  0  0  0
 54 55  1  0  0  0  0
 55 56  1  0  0  0  0
 55 89  1  0  0  0  0
 55 90  1  0  0  0  0
 56 57  1  0  0  0  0
 57 58  1  0  0  0  0
 57 91  1  0  0  0  0
 57 92  1  0  0  0  0
 58 59  1  0  0  0  0
 59 60  1  0  0  0  0
 59 93  1  0  0  0  0
 59 94  1  0  0  0  0
 60 61  1  0  0  0  0
 61 62  1  0  0  0  0
 61 95  1  0  0  0  0
 61 96  1  0  0  0  0
 62 63  1  0  0  0  0
 63 64  1  0  0  0  0
 63 97  1  0  0  0  0
 63 98  1  0  0  0  0
 64 65  1  0  0  0  0
 65 66  1  0  0  0  0
 65 99  1  0  0  0  0
 65100  1  0  0  0  0
 66 67  1  0  0  0  0
 67 68  1  0  0  0  0
 67101  1  0  0  0  0
 67102  1  0  0  0  0
 68 69  1  0  0  0  0
 69 70  1  0  0  0  0
 69103  1  0  0  0  0
 69104  1  0  0  0  0
 70 71  1  0  0  0  0
 71 72  1  0  0  0  0
 71105  1  0  0  0  0
 71106  1  0  0  0  0
 72 73  1  0  0  0  0
 73 74  1  0  0  0  0
 73107  1  0  0  0  0
 73108  1  0  0  0  0
 74 75  1  0  0  0  0
 75 76  1  0  0  0  0
 75109  1  0  0  0  0
 75110  1  0  0  0  0
 76 77  1  0  0  0  0
 77 78  1  0  0  0  0
 77111  1  0  0  0  0
 77112  1  0  0  0  0
 78 79  1  0  0  0  0
 79113  1  0  0  0  0
 79114  1  0  0  0  0
 79115  1  0  0  0  0
M  END
$$$$
