
 OpenBabel04232216453D

 52 52  0  0  0  0  0  0  0  0999 V2000
    9.1282   -1.9274   -1.0392 C   0  0  0  0  0  0  0  0  0  0  0  0
    9.6765   -2.8200    0.1555 C   0  0  0  0  0  0  0  0  0  0  0  0
    8.4233   -2.5665    1.1612 C   0  0  0  0  0  0  0  0  0  0  0  0
    7.0175   -2.4851    0.9290 C   0  0  0  0  0  0  0  0  0  0  0  0
    6.3703   -1.0694    1.0367 C   0  0  0  0  0  0  0  0  0  0  0  0
    6.1600   -3.3478    0.1523 N   0  0  0  0  0  0  0  0  0  0  0  0
    4.7733   -3.8108    0.5128 C   0  0  0  0  0  0  0  0  0  0  0  0
    6.7087   -4.1180   -0.8193 C   0  0  0  0  0  0  0  0  0  0  0  0
    7.2498   -5.3016   -0.6001 C   0  0  0  0  0  0  0  0  0  0  0  0
    8.3657   -5.5082   -1.3125 N   0  0  0  0  0  0  0  0  0  0  0  0
    9.1055   -6.4973   -0.9842 C   0  0  0  0  0  0  0  0  0  0  0  0
    8.6561   -7.7631   -0.3210 C   0  0  0  0  0  0  0  0  0  0  0  0
   10.3916   -6.4051   -1.3721 N   0  0  0  0  0  0  0  0  0  0  0  0
   11.1548   -7.0075   -0.6105 N   0  0  0  0  0  0  0  0  0  0  0  0
   12.3312   -6.9199   -1.2452 N   0  0  0  0  0  0  0  0  0  0  0  0
   13.0430   -7.9823   -1.3034 C   0  0  0  0  0  0  0  0  0  0  0  0
   12.7698   -9.2545   -0.5542 C   0  0  0  0  0  0  0  0  0  0  0  0
   14.1432   -7.7253   -2.0435 N   0  0  0  0  0  0  0  0  0  0  0  0
   15.2736   -8.3025   -1.8678 C   0  0  0  0  0  0  0  0  0  0  0  0
   16.4048   -7.3197   -1.9188 C   0  0  0  0  0  0  0  0  0  0  0  0
   16.6556   -7.0942   -0.6095 C   0  0  0  0  0  0  0  0  0  0  0  0
   16.0202   -5.9418    0.2190 C   0  0  0  0  0  0  0  0  0  0  0  0
   14.6519   -5.8869    0.4983 C   0  0  0  0  0  0  0  0  0  0  0  0
   13.4729   -4.8075    0.9839 C   0  0  0  0  0  0  0  0  0  0  0  0
   13.4499   -4.6560    2.2990 F   0  0  0  0  0  0  0  0  0  0  0  0
   12.3938   -4.2710    0.1706 C   0  0  0  0  0  0  0  0  0  0  0  0
   10.9842   -3.3970   -0.0125 C   0  0  0  0  0  0  0  0  0  0  0  0
    8.0426   -1.9874   -1.1828 H   0  0  0  0  0  0  0  0  0  0  0  0
    9.5086   -2.2047   -2.0178 H   0  0  0  0  0  0  0  0  0  0  0  0
    9.2840   -0.8591   -0.8423 H   0  0  0  0  0  0  0  0  0  0  0  0
    8.7503   -1.6867    1.7381 H   0  0  0  0  0  0  0  0  0  0  0  0
    5.3251   -1.0360    0.6893 H   0  0  0  0  0  0  0  0  0  0  0  0
    6.8931   -0.3814    0.3524 H   0  0  0  0  0  0  0  0  0  0  0  0
    6.4008   -0.6377    2.0385 H   0  0  0  0  0  0  0  0  0  0  0  0
    4.0536   -3.0145    0.7269 H   0  0  0  0  0  0  0  0  0  0  0  0
    4.7923   -4.5440    1.3303 H   0  0  0  0  0  0  0  0  0  0  0  0
    4.3274   -4.3623   -0.3424 H   0  0  0  0  0  0  0  0  0  0  0  0
    6.9156   -3.5744   -1.7319 H   0  0  0  0  0  0  0  0  0  0  0  0
    7.1595   -5.7400    0.3948 H   0  0  0  0  0  0  0  0  0  0  0  0
    7.5719   -7.8143   -0.2393 H   0  0  0  0  0  0  0  0  0  0  0  0
    9.1170   -7.8813    0.6615 H   0  0  0  0  0  0  0  0  0  0  0  0
    8.9815   -8.5674   -0.9872 H   0  0  0  0  0  0  0  0  0  0  0  0
   11.7112   -9.3456   -0.2937 H   0  0  0  0  0  0  0  0  0  0  0  0
   13.3384   -9.2685    0.3825 H   0  0  0  0  0  0  0  0  0  0  0  0
   13.0544  -10.1050   -1.1657 H   0  0  0  0  0  0  0  0  0  0  0  0
   15.4457   -9.2694   -1.3730 H   0  0  0  0  0  0  0  0  0  0  0  0
   16.1058   -6.4773   -2.5412 H   0  0  0  0  0  0  0  0  0  0  0  0
   17.1419   -7.9260   -0.0757 H   0  0  0  0  0  0  0  0  0  0  0  0
   16.6873   -6.1060    1.1059 H   0  0  0  0  0  0  0  0  0  0  0  0
   14.5073   -6.6536    1.2850 H   0  0  0  0  0  0  0  0  0  0  0  0
   12.6395   -4.5190   -0.8549 H   0  0  0  0  0  0  0  0  0  0  0  0
   11.2691   -3.0589   -1.0421 H   0  0  0  0  0  0  0  0  0  0  0  0
  1  2  1  0  0  0  0
  1 28  1  0  0  0  0
  1 29  1  0  0  0  0
  1 30  1  0  0  0  0
  2  3  1  0  0  0  0
  2 27  2  3  0  0  0
  3  4  2  3  0  0  0
  3 31  1  0  0  0  0
  4  5  1  0  0  0  0
  4  6  1  0  0  0  0
  5 32  1  0  0  0  0
  5 33  1  0  0  0  0
  5 34  1  0  0  0  0
  6  7  1  0  0  0  0
  6  8  1  0  0  0  0
  7 35  1  0  0  0  0
  7 36  1  0  0  0  0
  7 37  1  0  0  0  0
  8  9  2  3  0  0  0
  8 38  1  0  0  0  0
  9 10  1  0  0  0  0
  9 39  1  0  0  0  0
 10 11  2  3  0  0  0
 11 12  1  0  0  0  0
 11 13  1  0  0  0  0
 12 40  1  0  0  0  0
 12 41  1  0  0  0  0
 12 42  1  0  0  0  0
 13 14  2  3  0  0  0
 14 15  1  0  0  0  0
 15 16  2  3  0  0  0
 16 17  1  0  0  0  0
 16 18  1  0  0  0  0
 17 43  1  0  0  0  0
 17 44  1  0  0  0  0
 17 45  1  0  0  0  0
 18 19  2  3  0  0  0
 19 20  1  0  0  0  0
 19 46  1  0  0  0  0
 20 21  2  3  0  0  0
 20 47  1  0  0  0  0
 21 22  1  0  0  0  0
 21 48  1  0  0  0  0
 22 23  2  3  0  0  0
 22 49  1  0  0  0  0
 23 24  1  0  0  0  0
 23 50  1  0  0  0  0
 24 25  1  0  0  0  0
 24 26  2  3  0  0  0
 26 27  1  0  0  0  0
 26 51  1  0  0  0  0
 27 52  1  0  0  0  0
M  END
$$$$
