
 OpenBabel04232216453D

 64 66  0  0  0  0  0  0  0  0999 V2000
    2.5545   -1.9003   -0.5002 C   0  0  0  0  0  0  0  0  0  0  0  0
    3.8546   -1.1744   -0.6330 C   0  0  0  0  0  0  0  0  0  0  0  0
    3.5961    0.3061   -0.7281 C   0  0  0  0  0  0  0  0  0  0  0  0
    4.4417    1.1986   -0.2195 C   0  0  0  0  0  0  0  0  0  0  0  0
    4.2517    2.6903   -0.2464 C   0  0  0  0  0  0  0  0  0  0  0  0
    5.6260    0.7329    0.3478 N   0  0  0  0  0  0  0  0  0  0  0  0
    6.6065    1.6108    1.0041 C   0  0  0  0  0  0  0  0  0  0  0  0
    6.0424   -0.5583   -0.0160 C   0  0  0  0  0  0  0  0  0  0  0  0
    6.9843   -1.1542    0.6926 C   0  0  0  0  0  0  0  0  0  0  0  0
    8.4020   -1.4975    0.1492 C   0  0  0  0  0  0  0  0  0  0  0  0
    9.2073   -0.7067    0.9350 C   0  0  0  0  0  0  0  0  0  0  0  0
    8.7236   -2.3283    1.9019 C   0  0  0  0  0  0  0  0  0  0  0  0
    7.5386   -3.8233    1.7084 C   0  0  0  0  0  0  0  0  0  0  0  0
    6.9251   -5.2998    0.6258 C   0  0  0  0  0  0  0  0  0  0  0  0
    6.6219   -5.7067   -1.2356 C   0  0  0  0  0  0  0  0  0  0  0  0
    7.3989   -5.0475   -2.8223 C   0  0  0  0  0  0  0  0  0  0  0  0
    7.1202   -3.4477   -3.4818 C   0  0  0  0  0  0  0  0  0  0  0  0
    8.1009   -2.0450   -3.2701 C   0  0  0  0  0  0  0  0  0  0  0  0
    7.9239   -0.6747   -2.2495 C   0  0  0  0  0  0  0  0  0  0  0  0
    8.9730    0.0197   -0.8889 C   0  0  0  0  0  0  0  0  0  0  0  0
    9.1771   -2.1082   -0.7086 N   0  0  0  0  0  0  0  0  0  0  0  0
   10.5284   -2.2341   -0.4269 C   0  0  0  0  0  0  0  0  0  0  0  0
   10.8886   -3.3688    0.1706 C   0  0  0  0  0  0  0  0  0  0  0  0
    9.9700   -4.4248   -0.1693 C   0  0  0  0  0  0  0  0  0  0  0  0
    8.6620   -4.3796   -0.5590 C   0  0  0  0  0  0  0  0  0  0  0  0
    7.2159   -3.3083   -0.6404 C   0  0  0  0  0  0  0  0  0  0  0  0
    5.8144   -3.0420   -0.6273 C   0  0  0  0  0  0  0  0  0  0  0  0
    5.1535   -1.6200   -0.5297 C   0  0  0  0  0  0  0  0  0  0  0  0
    1.7692   -1.1830   -0.1468 H   0  0  0  0  0  0  0  0  0  0  0  0
    2.5798   -2.6477    0.2937 H   0  0  0  0  0  0  0  0  0  0  0  0
    2.1682   -2.3130   -1.4305 H   0  0  0  0  0  0  0  0  0  0  0  0
    2.6871    0.6401   -1.2252 H   0  0  0  0  0  0  0  0  0  0  0  0
    3.2789    2.9909   -0.6276 H   0  0  0  0  0  0  0  0  0  0  0  0
    5.0309    3.1572   -0.8665 H   0  0  0  0  0  0  0  0  0  0  0  0
    4.3356    3.1072    0.7663 H   0  0  0  0  0  0  0  0  0  0  0  0
    6.2482    2.6263    1.1925 H   0  0  0  0  0  0  0  0  0  0  0  0
    7.4789    1.7213    0.3949 H   0  0  0  0  0  0  0  0  0  0  0  0
    6.8927    1.2259    1.9910 H   0  0  0  0  0  0  0  0  0  0  0  0
    6.9544   -0.8379    1.7303 H   0  0  0  0  0  0  0  0  0  0  0  0
    8.8104    0.0939    1.5370 H   0  0  0  0  0  0  0  0  0  0  0  0
    8.2530   -1.8641    2.7921 H   0  0  0  0  0  0  0  0  0  0  0  0
    9.6456   -2.6910    2.3782 H   0  0  0  0  0  0  0  0  0  0  0  0
    6.5784   -3.4113    2.0594 H   0  0  0  0  0  0  0  0  0  0  0  0
    7.9022   -4.4125    2.5649 H   0  0  0  0  0  0  0  0  0  0  0  0
    5.9492   -5.5450    1.0669 H   0  0  0  0  0  0  0  0  0  0  0  0
    7.5889   -6.1244    0.9396 H   0  0  0  0  0  0  0  0  0  0  0  0
    5.5383   -5.6692   -1.4161 H   0  0  0  0  0  0  0  0  0  0  0  0
    6.8746   -6.7845   -1.2941 H   0  0  0  0  0  0  0  0  0  0  0  0
    7.1205   -5.7637   -3.6048 H   0  0  0  0  0  0  0  0  0  0  0  0
    8.4932   -5.1140   -2.7815 H   0  0  0  0  0  0  0  0  0  0  0  0
    6.0541   -3.1930   -3.3875 H   0  0  0  0  0  0  0  0  0  0  0  0
    7.2567   -3.6482   -4.5555 H   0  0  0  0  0  0  0  0  0  0  0  0
    7.8359   -1.5607   -4.2265 H   0  0  0  0  0  0  0  0  0  0  0  0
    9.1609   -2.2955   -3.3978 H   0  0  0  0  0  0  0  0  0  0  0  0
    6.8686   -0.7329   -2.0031 H   0  0  0  0  0  0  0  0  0  0  0  0
    7.8948    0.1698   -2.9647 H   0  0  0  0  0  0  0  0  0  0  0  0
    8.7114    1.0723   -0.8192 H   0  0  0  0  0  0  0  0  0  0  0  0
    9.9779    0.0514   -1.3427 H   0  0  0  0  0  0  0  0  0  0  0  0
   11.2435   -1.7878   -1.1167 H   0  0  0  0  0  0  0  0  0  0  0  0
   11.1694   -3.3819    1.2267 H   0  0  0  0  0  0  0  0  0  0  0  0
   10.5116   -5.3521   -0.2616 H   0  0  0  0  0  0  0  0  0  0  0  0
    8.5488   -5.4114   -0.8737 H   0  0  0  0  0  0  0  0  0  0  0  0
    7.1186   -3.7624   -1.5510 H   0  0  0  0  0  0  0  0  0  0  0  0
    5.0673   -3.8061   -0.8057 H   0  0  0  0  0  0  0  0  0  0  0  0
  1  2  1  0  0  0  0
  1 29  1  0  0  0  0
  1 30  1  0  0  0  0
  1 31  1  0  0  0  0
  2  3  1  0  0  0  0
  2 28  2  0  0  0  0
  3  4  2  0  0  0  0
  3 32  1  0  0  0  0
  4  5  1  0  0  0  0
  4  6  1  0  0  0  0
  5 33  1  0  0  0  0
  5 34  1  0  0  0  0
  5 35  1  0  0  0  0
  6  7  1  0  0  0  0
  6  8  1  0  0  0  0
  7 36  1  0  0  0  0
  7 37  1  0  0  0  0
  7 38  1  0  0  0  0
  8  9  2  3  0  0  0
  8 28  1  0  0  0  0
  9 10  1  0  0  0  0
  9 39  1  0  0  0  0
 10 11  1  0  0  0  0
 10 21  2  3  0  0  0
 11 12  1  0  0  0  0
 11 20  1  0  0  0  0
 11 40  1  0  0  0  0
 12 13  1  0  0  0  0
 12 41  1  0  0  0  0
 12 42  1  0  0  0  0
 13 14  1  0  0  0  0
 13 43  1  0  0  0  0
 13 44  1  0  0  0  0
 14 15  1  0  0  0  0
 14 45  1  0  0  0  0
 14 46  1  0  0  0  0
 15 16  1  0  0  0  0
 15 47  1  0  0  0  0
 15 48  1  0  0  0  0
 16 17  1  0  0  0  0
 16 49  1  0  0  0  0
 16 50  1  0  0  0  0
 17 18  1  0  0  0  0
 17 51  1  0  0  0  0
 17 52  1  0  0  0  0
 18 19  1  0  0  0  0
 18 53  1  0  0  0  0
 18 54  1  0  0  0  0
 19 20  1  0  0  0  0
 19 55  1  0  0  0  0
 19 56  1  0  0  0  0
 20 57  1  0  0  0  0
 20 58  1  0  0  0  0
 21 22  1  0  0  0  0
 22 23  2  3  0  0  0
 22 59  1  0  0  0  0
 23 24  1  0  0  0  0
 23 60  1  0  0  0  0
 24 25  2  3  0  0  0
 24 61  1  0  0  0  0
 25 26  1  0  0  0  0
 25 62  1  0  0  0  0
 26 27  2  3  0  0  0
 26 63  1  0  0  0  0
 27 28  1  0  0  0  0
 27 64  1  0  0  0  0
M  END
$$$$
