
 OpenBabel04232216543D

 56 57  0  0  0  0  0  0  0  0999 V2000
    6.8571   -1.4332   -2.5655 C   0  0  0  0  0  0  0  0  0  0  0  0
    5.5045   -1.2284   -1.9144 C   0  0  0  0  0  0  0  0  0  0  0  0
    5.4661   -1.6271   -0.4176 C   0  0  0  0  0  0  0  0  0  0  0  0
    5.3675   -3.1585   -0.0692 C   0  0  0  0  0  0  0  0  0  0  0  0
    6.4173   -3.9054    0.7648 N   0  0  0  0  0  0  0  0  0  0  0  0
    6.6916   -3.4155    2.0325 C   0  0  0  0  0  0  0  0  0  0  0  0
    7.1201   -3.8673    3.2289 C   0  0  0  0  0  0  0  0  0  0  0  0
    7.5183   -5.1592    3.7366 C   0  0  0  0  0  0  0  0  0  0  0  0
    7.1351   -6.4542    3.9356 C   0  0  0  0  0  0  0  0  0  0  0  0
    5.8262   -7.1261    4.0455 N   0  0  0  0  0  0  0  0  0  0  0  0
    4.7041   -6.1848    4.2996 C   0  0  0  0  0  0  0  0  0  0  0  0
    3.8703   -6.4223    5.4838 N   0  0  0  0  0  0  0  0  0  0  0  0
    2.7821   -5.8043    5.4454 N   0  0  0  0  0  0  0  0  0  0  0  0
    1.8141   -6.4787    4.6746 N   0  0  0  0  0  0  0  0  0  0  0  0
    1.0338   -7.1451    5.3977 N   0  0  0  0  0  0  0  0  0  0  0  0
    1.7636   -8.0772    6.0896 N   0  0  0  0  0  0  0  0  0  0  0  0
    1.0887   -8.9075    6.8047 C   0  0  0  0  0  0  0  0  0  0  0  0
    1.8131  -10.1782    7.0575 C   0  0  0  0  0  0  0  0  0  0  0  0
    1.5430  -10.8719    5.9414 C   0  0  0  0  0  0  0  0  0  0  0  0
    2.4829  -11.2288    4.9031 C   0  0  0  0  0  0  0  0  0  0  0  0
    3.5589  -10.5824    4.2521 C   0  0  0  0  0  0  0  0  0  0  0  0
    4.1977   -9.1789    4.1538 C   0  0  0  0  0  0  0  0  0  0  0  0
    5.4645   -8.6055    3.9344 C   0  0  0  0  0  0  0  0  0  0  0  0
    6.4170   -9.3830    3.0351 C   0  0  0  0  0  0  0  0  0  0  0  0
    8.4050   -7.2209    3.9389 C   0  0  0  0  0  0  0  0  0  0  0  0
    9.2887   -7.2142    2.8940 C   0  0  0  0  0  0  0  0  0  0  0  0
    9.1937   -6.3054    1.7162 C   0  0  0  0  0  0  0  0  0  0  0  0
    8.0687   -6.0625    0.9996 C   0  0  0  0  0  0  0  0  0  0  0  0
    7.7666   -4.6488   -0.0191 S   0  0  0  0  0  0  0  0  0  0  0  0
    6.8181   -1.1556   -3.6255 H   0  0  0  0  0  0  0  0  0  0  0  0
    7.1683   -2.4765   -2.4970 H   0  0  0  0  0  0  0  0  0  0  0  0
    7.6150   -0.8023   -2.0893 H   0  0  0  0  0  0  0  0  0  0  0  0
    4.7259   -1.7528   -2.4839 H   0  0  0  0  0  0  0  0  0  0  0  0
    5.2596   -0.1565   -2.0093 H   0  0  0  0  0  0  0  0  0  0  0  0
    4.5151   -1.1740   -0.0785 H   0  0  0  0  0  0  0  0  0  0  0  0
    6.2418   -1.0873    0.1316 H   0  0  0  0  0  0  0  0  0  0  0  0
    5.0917   -3.7406   -0.9528 H   0  0  0  0  0  0  0  0  0  0  0  0
    4.4765   -3.1869    0.5804 H   0  0  0  0  0  0  0  0  0  0  0  0
    6.6191   -2.3397    1.9784 H   0  0  0  0  0  0  0  0  0  0  0  0
    7.6082   -3.0466    3.7845 H   0  0  0  0  0  0  0  0  0  0  0  0
    8.5722   -4.9740    3.9534 H   0  0  0  0  0  0  0  0  0  0  0  0
    4.1059   -6.1620    3.3835 H   0  0  0  0  0  0  0  0  0  0  0  0
    5.0850   -5.1688    4.4383 H   0  0  0  0  0  0  0  0  0  0  0  0
    0.0131   -8.8437    7.0394 H   0  0  0  0  0  0  0  0  0  0  0  0
    2.8443  -10.0147    7.3497 H   0  0  0  0  0  0  0  0  0  0  0  0
    0.4904  -11.1107    5.7311 H   0  0  0  0  0  0  0  0  0  0  0  0
    2.1713  -12.1720    4.4712 H   0  0  0  0  0  0  0  0  0  0  0  0
    3.8473  -11.2100    3.3905 H   0  0  0  0  0  0  0  0  0  0  0  0
    3.8064   -9.1078    3.1201 H   0  0  0  0  0  0  0  0  0  0  0  0
    6.0758  -10.3980    2.8157 H   0  0  0  0  0  0  0  0  0  0  0  0
    7.4102   -9.4785    3.4759 H   0  0  0  0  0  0  0  0  0  0  0  0
    6.5009   -8.8628    2.0717 H   0  0  0  0  0  0  0  0  0  0  0  0
    8.7721   -7.5123    4.9256 H   0  0  0  0  0  0  0  0  0  0  0  0
   10.2336   -7.7240    3.0313 H   0  0  0  0  0  0  0  0  0  0  0  0
   10.0690   -5.6644    1.6266 H   0  0  0  0  0  0  0  0  0  0  0  0
    7.1957   -6.6770    1.1806 H   0  0  0  0  0  0  0  0  0  0  0  0
  1  2  1  0  0  0  0
  1 30  1  0  0  0  0
  1 31  1  0  0  0  0
  1 32  1  0  0  0  0
  2  3  1  0  0  0  0
  2 33  1  0  0  0  0
  2 34  1  0  0  0  0
  3  4  1  0  0  0  0
  3 35  1  0  0  0  0
  3 36  1  0  0  0  0
  4  5  1  0  0  0  0
  4 37  1  0  0  0  0
  4 38  1  0  0  0  0
  5  6  1  0  0  0  0
  5 29  1  0  0  0  0
  6  7  2  3  0  0  0
  6 39  1  0  0  0  0
  7  8  1  0  0  0  0
  7 40  1  0  0  0  0
  8  9  2  3  0  0  0
  8 41  1  0  0  0  0
  9 10  1  0  0  0  0
  9 25  1  0  0  0  0
 10 11  1  0  0  0  0
 10 23  1  0  0  0  0
 11 12  1  0  0  0  0
 11 42  1  0  0  0  0
 11 43  1  0  0  0  0
 12 13  2  3  0  0  0
 13 14  1  0  0  0  0
 14 15  2  3  0  0  0
 15 16  1  0  0  0  0
 16 17  2  3  0  0  0
 17 18  1  0  0  0  0
 17 44  1  0  0  0  0
 18 19  2  3  0  0  0
 18 45  1  0  0  0  0
 19 20  1  0  0  0  0
 19 46  1  0  0  0  0
 20 21  2  3  0  0  0
 20 47  1  0  0  0  0
 21 22  1  0  0  0  0
 21 48  1  0  0  0  0
 22 23  2  3  0  0  0
 22 49  1  0  0  0  0
 23 24  1  0  0  0  0
 24 50  1  0  0  0  0
 24 51  1  0  0  0  0
 24 52  1  0  0  0  0
 25 26  2  3  0  0  0
 25 53  1  0  0  0  0
 26 27  1  0  0  0  0
 26 54  1  0  0  0  0
 27 28  2  3  0  0  0
 27 55  1  0  0  0  0
 28 29  1  0  0  0  0
 28 56  1  0  0  0  0
M  END
$$$$
