
 OpenBabel04232216563D

242241  0  0  0  0  0  0  0  0999 V2000
    0.9211    0.0138    0.0399 C   0  0  0  0  0  0  0  0  0  0  0  0
    2.3767    0.0227    0.0437 N   0  0  0  0  0  0  0  0  0  0  0  0
    2.8732    1.2554    0.6523 C   0  0  0  0  0  0  0  0  0  0  0  0
    4.4006    1.2573    0.6536 C   0  0  0  0  0  0  0  0  0  0  0  0
    4.9329    2.5401    1.2881 C   0  0  0  0  0  0  0  0  0  0  0  0
    6.4608    2.5545    1.2951 C   0  0  0  0  0  0  0  0  0  0  0  0
    6.9857    3.8398    1.9295 C   0  0  0  0  0  0  0  0  0  0  0  0
    8.5162    3.8808    1.9470 C   0  0  0  0  0  0  0  0  0  0  0  0
    8.9959    5.4562    2.7232 S   0  0  0  0  0  0  0  0  0  0  0  0
   10.8110    5.3399    2.6608 C   0  0  0  0  0  0  0  0  0  0  0  0
   11.3608    6.6203    3.2893 C   0  0  0  0  0  0  0  0  0  0  0  0
   12.8845    6.6363    3.2947 C   0  0  0  0  0  0  0  0  0  0  0  0
   13.4007    7.9236    3.9287 C   0  0  0  0  0  0  0  0  0  0  0  0
   14.9211    7.9395    3.9321 C   0  0  0  0  0  0  0  0  0  0  0  0
   15.4349    9.2225    4.5639 C   0  0  0  0  0  0  0  0  0  0  0  0
   16.9539    9.2309    4.5658 C   0  0  0  0  0  0  0  0  0  0  0  0
   17.4654   10.5129    5.1951 C   0  0  0  0  0  0  0  0  0  0  0  0
   18.9836   10.5184    5.1977 C   0  0  0  0  0  0  0  0  0  0  0  0
   19.4942   11.8014    5.8252 C   0  0  0  0  0  0  0  0  0  0  0  0
   21.0112   11.8070    5.8255 C   0  0  0  0  0  0  0  0  0  0  0  0
   21.5214   13.0911    6.4513 C   0  0  0  0  0  0  0  0  0  0  0  0
   23.0381   13.0972    6.4497 C   0  0  0  0  0  0  0  0  0  0  0  0
   23.5484   14.3803    7.0771 C   0  0  0  0  0  0  0  0  0  0  0  0
   25.0649   14.3856    7.0774 C   0  0  0  0  0  0  0  0  0  0  0  0
   25.5750   15.6687    7.7049 C   0  0  0  0  0  0  0  0  0  0  0  0
   27.0916   15.6730    7.7070 C   0  0  0  0  0  0  0  0  0  0  0  0
   27.6017   16.9560    8.3344 C   0  0  0  0  0  0  0  0  0  0  0  0
   29.1182   16.9604    8.3366 C   0  0  0  0  0  0  0  0  0  0  0  0
   29.6285   18.2433    8.9639 C   0  0  0  0  0  0  0  0  0  0  0  0
   31.1449   18.2478    8.9661 C   0  0  0  0  0  0  0  0  0  0  0  0
   31.6551   19.5307    9.5935 C   0  0  0  0  0  0  0  0  0  0  0  0
   33.1715   19.5352    9.5956 C   0  0  0  0  0  0  0  0  0  0  0  0
   33.6817   20.8181   10.2230 C   0  0  0  0  0  0  0  0  0  0  0  0
   35.1982   20.8234   10.2234 C   0  0  0  0  0  0  0  0  0  0  0  0
   35.7084   22.1064   10.8507 C   0  0  0  0  0  0  0  0  0  0  0  0
   37.2249   22.1126   10.8493 C   0  0  0  0  0  0  0  0  0  0  0  0
   37.7350   23.3964   11.4748 C   0  0  0  0  0  0  0  0  0  0  0  0
   39.2515   23.4018   11.4751 C   0  0  0  0  0  0  0  0  0  0  0  0
   39.7617   24.6864   12.0989 C   0  0  0  0  0  0  0  0  0  0  0  0
   41.2782   24.6909   12.1010 C   0  0  0  0  0  0  0  0  0  0  0  0
   41.7884   25.9748   12.7266 C   0  0  0  0  0  0  0  0  0  0  0  0
   43.3049   25.9792   12.7288 C   0  0  0  0  0  0  0  0  0  0  0  0
   43.8150   27.2630   13.3543 C   0  0  0  0  0  0  0  0  0  0  0  0
   45.3315   27.2675   13.3565 C   0  0  0  0  0  0  0  0  0  0  0  0
   45.8417   28.5513   13.9821 C   0  0  0  0  0  0  0  0  0  0  0  0
   47.3582   28.5557   13.9842 C   0  0  0  0  0  0  0  0  0  0  0  0
   47.8684   29.8396   14.6098 C   0  0  0  0  0  0  0  0  0  0  0  0
   49.3849   29.8440   14.6119 C   0  0  0  0  0  0  0  0  0  0  0  0
   49.8950   31.1279   15.2374 C   0  0  0  0  0  0  0  0  0  0  0  0
   51.4115   31.1332   15.2379 C   0  0  0  0  0  0  0  0  0  0  0  0
   51.9217   32.4170   15.8635 C   0  0  0  0  0  0  0  0  0  0  0  0
   53.4382   32.4215   15.8656 C   0  0  0  0  0  0  0  0  0  0  0  0
   53.9483   33.7045   16.4928 C   0  0  0  0  0  0  0  0  0  0  0  0
   55.4648   33.7097   16.4933 C   0  0  0  0  0  0  0  0  0  0  0  0
   55.9750   34.9935   17.1189 C   0  0  0  0  0  0  0  0  0  0  0  0
   57.4915   34.9980   17.1210 C   0  0  0  0  0  0  0  0  0  0  0  0
   58.0017   36.2810   17.7484 C   0  0  0  0  0  0  0  0  0  0  0  0
   59.5181   36.2863   17.7488 C   0  0  0  0  0  0  0  0  0  0  0  0
   60.0283   37.5693   18.3761 C   0  0  0  0  0  0  0  0  0  0  0  0
   61.5448   37.5755   18.3747 C   0  0  0  0  0  0  0  0  0  0  0  0
   62.0550   38.8584   19.0020 C   0  0  0  0  0  0  0  0  0  0  0  0
   63.5715   38.8647   19.0006 C   0  0  0  0  0  0  0  0  0  0  0  0
   64.0816   40.1476   19.6279 C   0  0  0  0  0  0  0  0  0  0  0  0
   65.5981   40.1538   19.6265 C   0  0  0  0  0  0  0  0  0  0  0  0
   66.1083   41.4368   20.2538 C   0  0  0  0  0  0  0  0  0  0  0  0
   67.6250   41.4432   20.2525 C   0  0  0  0  0  0  0  0  0  0  0  0
   68.1354   42.7262   20.8798 C   0  0  0  0  0  0  0  0  0  0  0  0
   69.6515   42.7325   20.8784 C   0  0  0  0  0  0  0  0  0  0  0  0
   70.1620   44.0152   21.5058 C   0  0  0  0  0  0  0  0  0  0  0  0
   71.6778   44.0206   21.5060 C   0  0  0  0  0  0  0  0  0  0  0  0
   72.1874   45.3039   22.1337 C   0  0  0  0  0  0  0  0  0  0  0  0
   73.7078   45.3051   22.1319 C   0  0  0  0  0  0  0  0  0  0  0  0
   74.2174   46.5924   22.7615 C   0  0  0  0  0  0  0  0  0  0  0  0
   75.7339   46.5949   22.7604 C   0  0  0  0  0  0  0  0  0  0  0  0
   76.2438   47.8812   23.3895 C   0  0  0  0  0  0  0  0  0  0  0  0
   77.7627   47.8861   23.3873 C   0  0  0  0  0  0  0  0  0  0  0  0
   78.2724   49.1709   24.0157 C   0  0  0  0  0  0  0  0  0  0  0  0
   79.7996   49.1816   24.0163 C   0  0  0  0  0  0  0  0  0  0  0  0
   80.3085   50.4622   24.6449 C   0  0  0  0  0  0  0  0  0  0  0  0
   81.8317   50.4844   24.6489 C   0  0  0  0  0  0  0  0  0  0  0  0
   82.3389   51.7648   25.2773 C   0  0  0  0  0  0  0  0  0  0  0  0
    0.5600   -0.9089   -0.4259 H   0  0  0  0  0  0  0  0  0  0  0  0
    0.5177    0.8598   -0.5256 H   0  0  0  0  0  0  0  0  0  0  0  0
    0.5268    0.0454    1.0609 H   0  0  0  0  0  0  0  0  0  0  0  0
    2.7186   -0.0447   -0.9153 H   0  0  0  0  0  0  0  0  0  0  0  0
    2.5108    1.3350    1.6850 H   0  0  0  0  0  0  0  0  0  0  0  0
    2.5088    2.1261    0.0955 H   0  0  0  0  0  0  0  0  0  0  0  0
    4.7774    1.1737   -0.3744 H   0  0  0  0  0  0  0  0  0  0  0  0
    4.7763    0.3891    1.2087 H   0  0  0  0  0  0  0  0  0  0  0  0
    4.5552    2.6275    2.3152 H   0  0  0  0  0  0  0  0  0  0  0  0
    4.5559    3.4089    0.7336 H   0  0  0  0  0  0  0  0  0  0  0  0
    6.8330    2.4689    0.2684 H   0  0  0  0  0  0  0  0  0  0  0  0
    6.8333    1.6873    1.8538 H   0  0  0  0  0  0  0  0  0  0  0  0
    6.5965    3.9155    2.9523 H   0  0  0  0  0  0  0  0  0  0  0  0
    6.5940    4.6978    1.3675 H   0  0  0  0  0  0  0  0  0  0  0  0
    8.9107    3.8291    0.9274 H   0  0  0  0  0  0  0  0  0  0  0  0
    8.9132    3.0405    2.5253 H   0  0  0  0  0  0  0  0  0  0  0  0
   11.1485    5.2510    1.6229 H   0  0  0  0  0  0  0  0  0  0  0  0
   11.1532    4.4640    3.2218 H   0  0  0  0  0  0  0  0  0  0  0  0
   11.0029    6.7184    4.3228 H   0  0  0  0  0  0  0  0  0  0  0  0
   11.0005    7.4980    2.7363 H   0  0  0  0  0  0  0  0  0  0  0  0
   13.2623    6.5548    2.2686 H   0  0  0  0  0  0  0  0  0  0  0  0
   13.2649    5.7732    3.8539 H   0  0  0  0  0  0  0  0  0  0  0  0
   13.0285    8.0114    4.9572 H   0  0  0  0  0  0  0  0  0  0  0  0
   13.0238    8.7927    3.3749 H   0  0  0  0  0  0  0  0  0  0  0  0
   15.2975    7.8563    2.9051 H   0  0  0  0  0  0  0  0  0  0  0  0
   15.3022    7.0744    4.4886 H   0  0  0  0  0  0  0  0  0  0  0  0
   15.0620    9.3098    5.5920 H   0  0  0  0  0  0  0  0  0  0  0  0
   15.0595   10.0907    4.0083 H   0  0  0  0  0  0  0  0  0  0  0  0
   17.3297    9.1437    3.5386 H   0  0  0  0  0  0  0  0  0  0  0  0
   17.3320    8.3648    5.1235 H   0  0  0  0  0  0  0  0  0  0  0  0
   17.0911   10.6019    6.2224 H   0  0  0  0  0  0  0  0  0  0  0  0
   17.0909   11.3799    4.6369 H   0  0  0  0  0  0  0  0  0  0  0  0
   19.3598   10.4290    4.1709 H   0  0  0  0  0  0  0  0  0  0  0  0
   19.3599    9.6531    5.7574 H   0  0  0  0  0  0  0  0  0  0  0  0
   19.1200   11.8906    6.8525 H   0  0  0  0  0  0  0  0  0  0  0  0
   19.1176   12.6671    5.2663 H   0  0  0  0  0  0  0  0  0  0  0  0
   21.3860   11.7169    4.7985 H   0  0  0  0  0  0  0  0  0  0  0  0
   21.3884   10.9425    6.3857 H   0  0  0  0  0  0  0  0  0  0  0  0
   21.1480   13.1806    7.4788 H   0  0  0  0  0  0  0  0  0  0  0  0
   21.1435   13.9559    5.8920 H   0  0  0  0  0  0  0  0  0  0  0  0
   23.4117   13.0091    5.4220 H   0  0  0  0  0  0  0  0  0  0  0  0
   23.4164   12.2318    7.0078 H   0  0  0  0  0  0  0  0  0  0  0  0
   23.1738   14.4692    8.1044 H   0  0  0  0  0  0  0  0  0  0  0  0
   23.1712   15.2457    6.5183 H   0  0  0  0  0  0  0  0  0  0  0  0
   25.4396   14.2968    6.0502 H   0  0  0  0  0  0  0  0  0  0  0  0
   25.4419   13.5202    7.6364 H   0  0  0  0  0  0  0  0  0  0  0  0
   25.1992   15.7582    8.7317 H   0  0  0  0  0  0  0  0  0  0  0  0
   25.1991   16.5340    7.1452 H   0  0  0  0  0  0  0  0  0  0  0  0
   27.4674   15.5833    6.6802 H   0  0  0  0  0  0  0  0  0  0  0  0
   27.4675   14.8075    8.2667 H   0  0  0  0  0  0  0  0  0  0  0  0
   27.2257   17.0457    9.3612 H   0  0  0  0  0  0  0  0  0  0  0  0
   27.2257   17.8215    7.7748 H   0  0  0  0  0  0  0  0  0  0  0  0
   29.4942   16.8706    7.3098 H   0  0  0  0  0  0  0  0  0  0  0  0
   29.4942   16.0949    8.8961 H   0  0  0  0  0  0  0  0  0  0  0  0
   29.2524   18.3331    9.9907 H   0  0  0  0  0  0  0  0  0  0  0  0
   29.2524   19.1089    8.4043 H   0  0  0  0  0  0  0  0  0  0  0  0
   31.5209   18.1580    7.9393 H   0  0  0  0  0  0  0  0  0  0  0  0
   31.5208   17.3822    9.5257 H   0  0  0  0  0  0  0  0  0  0  0  0
   31.2791   19.6205   10.6202 H   0  0  0  0  0  0  0  0  0  0  0  0
   31.2790   20.3962    9.0339 H   0  0  0  0  0  0  0  0  0  0  0  0
   33.5474   19.4454    8.5688 H   0  0  0  0  0  0  0  0  0  0  0  0
   33.5476   18.6697   10.1552 H   0  0  0  0  0  0  0  0  0  0  0  0
   33.3068   20.9072   11.2502 H   0  0  0  0  0  0  0  0  0  0  0  0
   33.3046   21.6837    9.6642 H   0  0  0  0  0  0  0  0  0  0  0  0
   35.5729   20.7343    9.1960 H   0  0  0  0  0  0  0  0  0  0  0  0
   35.5755   19.9579   10.7820 H   0  0  0  0  0  0  0  0  0  0  0  0
   35.3347   22.1948   11.8784 H   0  0  0  0  0  0  0  0  0  0  0  0
   35.3301   22.9720   10.2928 H   0  0  0  0  0  0  0  0  0  0  0  0
   37.5987   22.0229    9.8216 H   0  0  0  0  0  0  0  0  0  0  0  0
   37.6031   21.2477   11.4083 H   0  0  0  0  0  0  0  0  0  0  0  0
   37.3604   23.4871   12.5020 H   0  0  0  0  0  0  0  0  0  0  0  0
   37.3578   24.2611   10.9148 H   0  0  0  0  0  0  0  0  0  0  0  0
   39.6265   23.3098   10.4482 H   0  0  0  0  0  0  0  0  0  0  0  0
   39.6286   22.5377   12.0363 H   0  0  0  0  0  0  0  0  0  0  0  0
   39.3857   24.7791   13.1254 H   0  0  0  0  0  0  0  0  0  0  0  0
   39.3857   25.5505   11.5369 H   0  0  0  0  0  0  0  0  0  0  0  0
   41.6541   24.5995   11.0744 H   0  0  0  0  0  0  0  0  0  0  0  0
   41.6543   23.8262   12.6620 H   0  0  0  0  0  0  0  0  0  0  0  0
   41.4124   26.0660   13.7533 H   0  0  0  0  0  0  0  0  0  0  0  0
   41.4124   26.8395   12.1658 H   0  0  0  0  0  0  0  0  0  0  0  0
   43.6809   25.8879   11.7022 H   0  0  0  0  0  0  0  0  0  0  0  0
   43.6808   25.1145   13.2896 H   0  0  0  0  0  0  0  0  0  0  0  0
   43.4390   27.3543   14.3810 H   0  0  0  0  0  0  0  0  0  0  0  0
   43.4390   28.1278   12.7935 H   0  0  0  0  0  0  0  0  0  0  0  0
   45.7075   27.1762   12.3299 H   0  0  0  0  0  0  0  0  0  0  0  0
   45.7075   26.4027   13.9173 H   0  0  0  0  0  0  0  0  0  0  0  0
   45.4657   28.6426   15.0087 H   0  0  0  0  0  0  0  0  0  0  0  0
   45.4657   29.4160   13.4213 H   0  0  0  0  0  0  0  0  0  0  0  0
   47.7342   28.4645   12.9576 H   0  0  0  0  0  0  0  0  0  0  0  0
   47.7342   27.6910   14.5450 H   0  0  0  0  0  0  0  0  0  0  0  0
   47.4924   29.9309   15.6364 H   0  0  0  0  0  0  0  0  0  0  0  0
   47.4924   30.7043   14.0490 H   0  0  0  0  0  0  0  0  0  0  0  0
   49.7607   29.7528   13.5853 H   0  0  0  0  0  0  0  0  0  0  0  0
   49.7609   28.9793   15.1728 H   0  0  0  0  0  0  0  0  0  0  0  0
   49.5201   31.2184   16.2646 H   0  0  0  0  0  0  0  0  0  0  0  0
   49.5180   31.9927   14.6776 H   0  0  0  0  0  0  0  0  0  0  0  0
   51.7865   31.0427   14.2108 H   0  0  0  0  0  0  0  0  0  0  0  0
   51.7885   30.2683   15.7978 H   0  0  0  0  0  0  0  0  0  0  0  0
   51.5457   32.5082   16.8900 H   0  0  0  0  0  0  0  0  0  0  0  0
   51.5456   33.2818   15.3026 H   0  0  0  0  0  0  0  0  0  0  0  0
   53.8140   32.3315   14.8387 H   0  0  0  0  0  0  0  0  0  0  0  0
   53.8144   31.5561   16.4252 H   0  0  0  0  0  0  0  0  0  0  0  0
   53.5735   33.7936   17.5202 H   0  0  0  0  0  0  0  0  0  0  0  0
   53.5712   34.5699   15.9342 H   0  0  0  0  0  0  0  0  0  0  0  0
   55.8398   33.6193   15.4662 H   0  0  0  0  0  0  0  0  0  0  0  0
   55.8418   32.8448   17.0532 H   0  0  0  0  0  0  0  0  0  0  0  0
   55.5991   35.0848   18.1455 H   0  0  0  0  0  0  0  0  0  0  0  0
   55.5990   35.8584   16.5581 H   0  0  0  0  0  0  0  0  0  0  0  0
   57.8673   34.9081   16.0942 H   0  0  0  0  0  0  0  0  0  0  0  0
   57.8677   34.1326   17.6807 H   0  0  0  0  0  0  0  0  0  0  0  0
   57.6268   36.3701   18.7756 H   0  0  0  0  0  0  0  0  0  0  0  0
   57.6246   37.1466   17.1897 H   0  0  0  0  0  0  0  0  0  0  0  0
   59.8929   36.1972   16.7215 H   0  0  0  0  0  0  0  0  0  0  0  0
   59.8954   35.4208   18.3074 H   0  0  0  0  0  0  0  0  0  0  0  0
   59.6546   37.6576   19.4038 H   0  0  0  0  0  0  0  0  0  0  0  0
   59.6501   38.4349   17.8182 H   0  0  0  0  0  0  0  0  0  0  0  0
   61.9185   37.4871   17.3469 H   0  0  0  0  0  0  0  0  0  0  0  0
   61.9231   36.7099   18.9325 H   0  0  0  0  0  0  0  0  0  0  0  0
   61.6813   38.9468   20.0298 H   0  0  0  0  0  0  0  0  0  0  0  0
   61.6766   39.7240   18.4442 H   0  0  0  0  0  0  0  0  0  0  0  0
   63.9451   38.7763   17.9728 H   0  0  0  0  0  0  0  0  0  0  0  0
   63.9498   37.9990   19.5584 H   0  0  0  0  0  0  0  0  0  0  0  0
   63.7080   40.2360   20.6557 H   0  0  0  0  0  0  0  0  0  0  0  0
   63.7033   41.0132   19.0701 H   0  0  0  0  0  0  0  0  0  0  0  0
   65.9717   40.0655   18.5987 H   0  0  0  0  0  0  0  0  0  0  0  0
   65.9764   39.2882   20.1844 H   0  0  0  0  0  0  0  0  0  0  0  0
   65.7347   41.5252   21.2816 H   0  0  0  0  0  0  0  0  0  0  0  0
   65.7299   42.3024   19.6960 H   0  0  0  0  0  0  0  0  0  0  0  0
   67.9984   41.3546   19.2247 H   0  0  0  0  0  0  0  0  0  0  0  0
   68.0031   40.5774   20.8102 H   0  0  0  0  0  0  0  0  0  0  0  0
   67.7614   42.8144   21.9075 H   0  0  0  0  0  0  0  0  0  0  0  0
   67.7567   43.5916   20.3221 H   0  0  0  0  0  0  0  0  0  0  0  0
   70.0253   42.6441   19.8505 H   0  0  0  0  0  0  0  0  0  0  0  0
   70.0299   41.8666   21.4364 H   0  0  0  0  0  0  0  0  0  0  0  0
   69.7871   44.1042   22.5332 H   0  0  0  0  0  0  0  0  0  0  0  0
   69.7846   44.8809   20.9469 H   0  0  0  0  0  0  0  0  0  0  0  0
   72.0535   43.9320   20.4794 H   0  0  0  0  0  0  0  0  0  0  0  0
   72.0559   43.1558   22.0648 H   0  0  0  0  0  0  0  0  0  0  0  0
   71.8156   45.3927   23.1605 H   0  0  0  0  0  0  0  0  0  0  0  0
   71.8132   46.1690   21.5750 H   0  0  0  0  0  0  0  0  0  0  0  0
   74.0809   45.2205   21.1069 H   0  0  0  0  0  0  0  0  0  0  0  0
   74.0832   44.4440   22.6928 H   0  0  0  0  0  0  0  0  0  0  0  0
   73.8430   46.6804   23.7874 H   0  0  0  0  0  0  0  0  0  0  0  0
   73.8406   47.4563   22.2027 H   0  0  0  0  0  0  0  0  0  0  0  0
   76.1075   46.5092   21.7354 H   0  0  0  0  0  0  0  0  0  0  0  0
   76.1100   45.7333   23.3204 H   0  0  0  0  0  0  0  0  0  0  0  0
   75.8714   47.9683   24.4170 H   0  0  0  0  0  0  0  0  0  0  0  0
   75.8668   48.7460   22.8308 H   0  0  0  0  0  0  0  0  0  0  0  0
   78.1339   47.7982   22.3599 H   0  0  0  0  0  0  0  0  0  0  0  0
   78.1386   47.0210   23.9453 H   0  0  0  0  0  0  0  0  0  0  0  0
   77.8994   49.2577   25.0424 H   0  0  0  0  0  0  0  0  0  0  0  0
   77.8947   50.0349   23.4573 H   0  0  0  0  0  0  0  0  0  0  0  0
   80.1644   49.0917   22.9868 H   0  0  0  0  0  0  0  0  0  0  0  0
   80.1694   48.3122   24.5717 H   0  0  0  0  0  0  0  0  0  0  0  0
   79.9316   50.5476   25.6728 H   0  0  0  0  0  0  0  0  0  0  0  0
   79.9245   51.3280   24.0887 H   0  0  0  0  0  0  0  0  0  0  0  0
   82.2066   50.4011   23.6219 H   0  0  0  0  0  0  0  0  0  0  0  0
   82.2137   49.6207   25.2061 H   0  0  0  0  0  0  0  0  0  0  0  0
   81.9888   52.6377   24.7205 H   0  0  0  0  0  0  0  0  0  0  0  0
   83.4403   51.7789   25.2793 H   0  0  0  0  0  0  0  0  0  0  0  0
   81.9960   51.8542   26.3112 H   0  0  0  0  0  0  0  0  0  0  0  0
  1  2  1  0  0  0  0
  1 82  1  0  0  0  0
  1 83  1  0  0  0  0
  1 84  1  0  0  0  0
  2  3  1  0  0  0  0
  2 85  1  0  0  0  0
  3  4  1  0  0  0  0
  3 86  1  0  0  0  0
  3 87  1  0  0  0  0
  4  5  1  0  0  0  0
  4 88  1  0  0  0  0
  4 89  1  0  0  0  0
  5  6  1  0  0  0  0
  5 90  1  0  0  0  0
  5 91  1  0  0  0  0
  6  7  1  0  0  0  0
  6 92  1  0  0  0  0
  6 93  1  0  0  0  0
  7  8  1  0  0  0  0
  7 94  1  0  0  0  0
  7 95  1  0  0  0  0
  8  9  1  0  0  0  0
  8 96  1  0  0  0  0
  8 97  1  0  0  0  0
  9 10  1  0  0  0  0
 10 11  1  0  0  0  0
 10 98  1  0  0  0  0
 10 99  1  0  0  0  0
 11 12  1  0  0  0  0
 11100  1  0  0  0  0
 11101  1  0  0  0  0
 12 13  1  0  0  0  0
 12102  1  0  0  0  0
 12103  1  0  0  0  0
 13 14  1  0  0  0  0
 13104  1  0  0  0  0
 13105  1  0  0  0  0
 14 15  1  0  0  0  0
 14106  1  0  0  0  0
 14107  1  0  0  0  0
 15 16  1  0  0  0  0
 15108  1  0  0  0  0
 15109  1  0  0  0  0
 16 17  1  0  0  0  0
 16110  1  0  0  0  0
 16111  1  0  0  0  0
 17 18  1  0  0  0  0
 17112  1  0  0  0  0
 17113  1  0  0  0  0
 18 19  1  0  0  0  0
 18114  1  0  0  0  0
 18115  1  0  0  0  0
 19 20  1  0  0  0  0
 19116  1  0  0  0  0
 19117  1  0  0  0  0
 20 21  1  0  0  0  0
 20118  1  0  0  0  0
 20119  1  0  0  0  0
 21 22  1  0  0  0  0
 21120  1  0  0  0  0
 21121  1  0  0  0  0
 22 23  1  0  0  0  0
 22122  1  0  0  0  0
 22123  1  0  0  0  0
 23 24  1  0  0  0  0
 23124  1  0  0  0  0
 23125  1  0  0  0  0
 24 25  1  0  0  0  0
 24126  1  0  0  0  0
 24127  1  0  0  0  0
 25 26  1  0  0  0  0
 25128  1  0  0  0  0
 25129  1  0  0  0  0
 26 27  1  0  0  0  0
 26130  1  0  0  0  0
 26131  1  0  0  0  0
 27 28  1  0  0  0  0
 27132  1  0  0  0  0
 27133  1  0  0  0  0
 28 29  1  0  0  0  0
 28134  1  0  0  0  0
 28135  1  0  0  0  0
 29 30  1  0  0  0  0
 29136  1  0  0  0  0
 29137  1  0  0  0  0
 30 31  1  0  0  0  0
 30138  1  0  0  0  0
 30139  1  0  0  0  0
 31 32  1  0  0  0  0
 31140  1  0  0  0  0
 31141  1  0  0  0  0
 32 33  1  0  0  0  0
 32142  1  0  0  0  0
 32143  1  0  0  0  0
 33 34  1  0  0  0  0
 33144  1  0  0  0  0
 33145  1  0  0  0  0
 34 35  1  0  0  0  0
 34146  1  0  0  0  0
 34147  1  0  0  0  0
 35 36  1  0  0  0  0
 35148  1  0  0  0  0
 35149  1  0  0  0  0
 36 37  1  0  0  0  0
 36150  1  0  0  0  0
 36151  1  0  0  0  0
 37 38  1  0  0  0  0
 37152  1  0  0  0  0
 37153  1  0  0  0  0
 38 39  1  0  0  0  0
 38154  1  0  0  0  0
 38155  1  0  0  0  0
 39 40  1  0  0  0  0
 39156  1  0  0  0  0
 39157  1  0  0  0  0
 40 41  1  0  0  0  0
 40158  1  0  0  0  0
 40159  1  0  0  0  0
 41 42  1  0  0  0  0
 41160  1  0  0  0  0
 41161  1  0  0  0  0
 42 43  1  0  0  0  0
 42162  1  0  0  0  0
 42163  1  0  0  0  0
 43 44  1  0  0  0  0
 43164  1  0  0  0  0
 43165  1  0  0  0  0
 44 45  1  0  0  0  0
 44166  1  0  0  0  0
 44167  1  0  0  0  0
 45 46  1  0  0  0  0
 45168  1  0  0  0  0
 45169  1  0  0  0  0
 46 47  1  0  0  0  0
 46170  1  0  0  0  0
 46171  1  0  0  0  0
 47 48  1  0  0  0  0
 47172  1  0  0  0  0
 47173  1  0  0  0  0
 48 49  1  0  0  0  0
 48174  1  0  0  0  0
 48175  1  0  0  0  0
 49 50  1  0  0  0  0
 49176  1  0  0  0  0
 49177  1  0  0  0  0
 50 51  1  0  0  0  0
 50178  1  0  0  0  0
 50179  1  0  0  0  0
 51 52  1  0  0  0  0
 51180  1  0  0  0  0
 51181  1  0  0  0  0
 52 53  1  0  0  0  0
 52182  1  0  0  0  0
 52183  1  0  0  0  0
 53 54  1  0  0  0  0
 53184  1  0  0  0  0
 53185  1  0  0  0  0
 54 55  1  0  0  0  0
 54186  1  0  0  0  0
 54187  1  0  0  0  0
 55 56  1  0  0  0  0
 55188  1  0  0  0  0
 55189  1  0  0  0  0
 56 57  1  0  0  0  0
 56190  1  0  0  0  0
 56191  1  0  0  0  0
 57 58  1  0  0  0  0
 57192  1  0  0  0  0
 57193  1  0  0  0  0
 58 59  1  0  0  0  0
 58194  1  0  0  0  0
 58195  1  0  0  0  0
 59 60  1  0  0  0  0
 59196  1  0  0  0  0
 59197  1  0  0  0  0
 60 61  1  0  0  0  0
 60198  1  0  0  0  0
 60199  1  0  0  0  0
 61 62  1  0  0  0  0
 61200  1  0  0  0  0
 61201  1  0  0  0  0
 62 63  1  0  0  0  0
 62202  1  0  0  0  0
 62203  1  0  0  0  0
 63 64  1  0  0  0  0
 63204  1  0  0  0  0
 63205  1  0  0  0  0
 64 65  1  0  0  0  0
 64206  1  0  0  0  0
 64207  1  0  0  0  0
 65 66  1  0  0  0  0
 65208  1  0  0  0  0
 65209  1  0  0  0  0
 66 67  1  0  0  0  0
 66210  1  0  0  0  0
 66211  1  0  0  0  0
 67 68  1  0  0  0  0
 67212  1  0  0  0  0
 67213  1  0  0  0  0
 68 69  1  0  0  0  0
 68214  1  0  0  0  0
 68215  1  0  0  0  0
 69 70  1  0  0  0  0
 69216  1  0  0  0  0
 69217  1  0  0  0  0
 70 71  1  0  0  0  0
 70218  1  0  0  0  0
 70219  1  0  0  0  0
 71 72  1  0  0  0  0
 71220  1  0  0  0  0
 71221  1  0  0  0  0
 72 73  1  0  0  0  0
 72222  1  0  0  0  0
 72223  1  0  0  0  0
 73 74  1  0  0  0  0
 73224  1  0  0  0  0
 73225  1  0  0  0  0
 74 75  1  0  0  0  0
 74226  1  0  0  0  0
 74227  1  0  0  0  0
 75 76  1  0  0  0  0
 75228  1  0  0  0  0
 75229  1  0  0  0  0
 76 77  1  0  0  0  0
 76230  1  0  0  0  0
 76231  1  0  0  0  0
 77 78  1  0  0  0  0
 77232  1  0  0  0  0
 77233  1  0  0  0  0
 78 79  1  0  0  0  0
 78234  1  0  0  0  0
 78235  1  0  0  0  0
 79 80  1  0  0  0  0
 79236  1  0  0  0  0
 79237  1  0  0  0  0
 80 81  1  0  0  0  0
 80238  1  0  0  0  0
 80239  1  0  0  0  0
 81240  1  0  0  0  0
 81241  1  0  0  0  0
 81242  1  0  0  0  0
M  END
$$$$
