
 OpenBabel04232216553D

 55 57  0  0  0  0  0  0  0  0999 V2000
    3.6030    2.3004   -0.9716 C   0  0  0  0  0  0  0  0  0  0  0  0
    3.3505    0.8720   -0.5515 C   0  0  0  0  0  0  0  0  0  0  0  0
    3.2286   -0.1637   -1.6621 C   0  0  0  0  0  0  0  0  0  0  0  0
    4.4535   -0.6640   -2.3979 N   0  0  0  0  0  0  0  0  0  0  0  0
    4.8308   -2.0425   -2.1413 C   0  0  0  0  0  0  0  0  0  0  0  0
    3.5951   -3.0169   -2.0185 C   0  0  0  0  0  0  0  0  0  0  0  0
    3.4205   -4.1707   -3.0472 C   0  0  0  0  0  0  0  0  0  0  0  0
    3.8599   -5.5282   -2.5035 C   0  0  0  0  0  0  0  0  0  0  0  0
    2.9286   -6.0918   -1.4298 C   0  0  0  0  0  0  0  0  0  0  0  0
    1.4365   -5.9884   -1.7558 C   0  0  0  0  0  0  0  0  0  0  0  0
    1.0323   -4.6343   -2.3227 C   0  0  0  0  0  0  0  0  0  0  0  0
    1.9361   -4.2656   -3.4946 C   0  0  0  0  0  0  0  0  0  0  0  0
    5.9905   -2.6426   -2.2438 N   0  0  0  0  0  0  0  0  0  0  0  0
    7.0726   -2.0846   -3.0010 C   0  0  0  0  0  0  0  0  0  0  0  0
    8.3860   -1.9247   -2.7416 C   0  0  0  0  0  0  0  0  0  0  0  0
    9.2183   -1.2684   -1.6354 C   0  0  0  0  0  0  0  0  0  0  0  0
    8.7536   -2.6865   -3.7421 N   0  0  0  0  0  0  0  0  0  0  0  0
    9.9951   -2.6059   -4.4721 C   0  0  0  0  0  0  0  0  0  0  0  0
    7.5363   -2.6562   -4.2498 C   0  0  0  0  0  0  0  0  0  0  0  0
    7.1200   -2.9237   -5.5095 C   0  0  0  0  0  0  0  0  0  0  0  0
    5.9918   -2.4578   -6.3210 C   0  0  0  0  0  0  0  0  0  0  0  0
    5.0855   -1.4862   -6.0551 C   0  0  0  0  0  0  0  0  0  0  0  0
    4.7897   -1.2363   -4.6895 C   0  0  0  0  0  0  0  0  0  0  0  0
    4.5631   -0.2851   -3.7736 C   0  0  0  0  0  0  0  0  0  0  0  0
    3.4135    2.9656   -0.1173 H   0  0  0  0  0  0  0  0  0  0  0  0
    2.9250    2.6079   -1.7742 H   0  0  0  0  0  0  0  0  0  0  0  0
    4.6356    2.4430   -1.2898 H   0  0  0  0  0  0  0  0  0  0  0  0
    2.3648    0.8815   -0.0530 H   0  0  0  0  0  0  0  0  0  0  0  0
    4.0606    0.5592    0.2217 H   0  0  0  0  0  0  0  0  0  0  0  0
    2.4579    0.1313   -2.3859 H   0  0  0  0  0  0  0  0  0  0  0  0
    2.7944   -0.9897   -1.0884 H   0  0  0  0  0  0  0  0  0  0  0  0
    2.7334   -2.3931   -2.2782 H   0  0  0  0  0  0  0  0  0  0  0  0
    3.4696   -3.3257   -0.9815 H   0  0  0  0  0  0  0  0  0  0  0  0
    4.0061   -3.9863   -3.9500 H   0  0  0  0  0  0  0  0  0  0  0  0
    4.8813   -5.4584   -2.1132 H   0  0  0  0  0  0  0  0  0  0  0  0
    3.8973   -6.2383   -3.3409 H   0  0  0  0  0  0  0  0  0  0  0  0
    3.1218   -5.5746   -0.4842 H   0  0  0  0  0  0  0  0  0  0  0  0
    3.1808   -7.1458   -1.2653 H   0  0  0  0  0  0  0  0  0  0  0  0
    0.8542   -6.1909   -0.8491 H   0  0  0  0  0  0  0  0  0  0  0  0
    1.1691   -6.7657   -2.4814 H   0  0  0  0  0  0  0  0  0  0  0  0
    1.0895   -3.8708   -1.5377 H   0  0  0  0  0  0  0  0  0  0  0  0
   -0.0138   -4.6608   -2.6479 H   0  0  0  0  0  0  0  0  0  0  0  0
    1.6040   -3.3172   -3.9383 H   0  0  0  0  0  0  0  0  0  0  0  0
    1.8326   -5.0213   -4.2850 H   0  0  0  0  0  0  0  0  0  0  0  0
    8.6294   -0.8276   -0.8329 H   0  0  0  0  0  0  0  0  0  0  0  0
    9.8242   -0.4704   -2.0968 H   0  0  0  0  0  0  0  0  0  0  0  0
    9.9904   -1.9550   -1.2690 H   0  0  0  0  0  0  0  0  0  0  0  0
   10.8142   -2.2187   -3.8537 H   0  0  0  0  0  0  0  0  0  0  0  0
    9.9084   -1.9450   -5.3461 H   0  0  0  0  0  0  0  0  0  0  0  0
   10.2951   -3.6006   -4.8251 H   0  0  0  0  0  0  0  0  0  0  0  0
    7.8462   -3.4685   -6.1128 H   0  0  0  0  0  0  0  0  0  0  0  0
    5.9856   -2.9051   -7.3116 H   0  0  0  0  0  0  0  0  0  0  0  0
    4.3592   -1.1914   -6.8001 H   0  0  0  0  0  0  0  0  0  0  0  0
    4.7725   -2.2384   -4.2937 H   0  0  0  0  0  0  0  0  0  0  0  0
    4.4907    0.7789   -3.9672 H   0  0  0  0  0  0  0  0  0  0  0  0
  1  2  1  0  0  0  0
  1 25  1  0  0  0  0
  1 26  1  0  0  0  0
  1 27  1  0  0  0  0
  2  3  1  0  0  0  0
  2 28  1  0  0  0  0
  2 29  1  0  0  0  0
  3  4  1  0  0  0  0
  3 30  1  0  0  0  0
  3 31  1  0  0  0  0
  4  5  1  0  0  0  0
  4 24  1  0  0  0  0
  5  6  1  0  0  0  0
  5 13  2  0  0  0  0
  6  7  1  0  0  0  0
  6 32  1  0  0  0  0
  6 33  1  0  0  0  0
  7  8  1  0  0  0  0
  7 12  1  0  0  0  0
  7 34  1  0  0  0  0
  8  9  1  0  0  0  0
  8 35  1  0  0  0  0
  8 36  1  0  0  0  0
  9 10  1  0  0  0  0
  9 37  1  0  0  0  0
  9 38  1  0  0  0  0
 10 11  1  0  0  0  0
 10 39  1  0  0  0  0
 10 40  1  0  0  0  0
 11 12  1  0  0  0  0
 11 41  1  0  0  0  0
 11 42  1  0  0  0  0
 12 43  1  0  0  0  0
 12 44  1  0  0  0  0
 13 14  1  0  0  0  0
 14 15  2  0  0  0  0
 14 19  1  0  0  0  0
 15 16  1  0  0  0  0
 15 17  1  0  0  0  0
 16 45  1  0  0  0  0
 16 46  1  0  0  0  0
 16 47  1  0  0  0  0
 17 18  1  0  0  0  0
 17 19  1  0  0  0  0
 18 48  1  0  0  0  0
 18 49  1  0  0  0  0
 18 50  1  0  0  0  0
 19 20  2  0  0  0  0
 20 21  1  0  0  0  0
 20 51  1  0  0  0  0
 21 22  2  0  0  0  0
 21 52  1  0  0  0  0
 22 23  1  0  0  0  0
 22 53  1  0  0  0  0
 23 24  2  0  0  0  0
 23 54  1  0  0  0  0
 24 55  1  0  0  0  0
M  END
$$$$
