
 OpenBabel04232216483D

 85 85  0  0  0  0  0  0  0  0999 V2000
   -0.2198    0.1460   -0.9584 C   0  0  0  0  0  0  0  0  0  0  0  0
    0.0615   -0.1090   -2.4577 C   0  0  0  0  0  0  0  0  0  0  0  0
   -0.7583   -1.0059   -3.1702 C   0  0  0  0  0  0  0  0  0  0  0  0
    0.0141   -0.7514   -4.2413 C   0  0  0  0  0  0  0  0  0  0  0  0
    0.9238    0.2577   -3.4688 C   0  0  0  0  0  0  0  0  0  0  0  0
    2.0224    1.4291   -2.3564 S   0  0  0  0  0  0  0  0  0  0  0  0
    3.1339    2.2924   -3.2623 O   0  0  0  0  0  0  0  0  0  0  0  0
    2.3554    3.3419   -4.2971 S   0  0  0  0  0  0  0  0  0  0  0  0
    3.8974    4.1289   -5.3970 S   0  0  0  0  0  0  0  0  0  0  0  0
    2.9714    4.9592   -6.4921 O   0  0  0  0  0  0  0  0  0  0  0  0
    3.8560    5.6318   -7.3876 O   0  0  0  0  0  0  0  0  0  0  0  0
    3.1177    6.3733   -8.3692 O   0  0  0  0  0  0  0  0  0  0  0  0
    4.0414    6.9907   -9.1923 O   0  0  0  0  0  0  0  0  0  0  0  0
    3.3381    7.7193  -10.1610 O   0  0  0  0  0  0  0  0  0  0  0  0
    4.2703    8.3364  -10.9882 O   0  0  0  0  0  0  0  0  0  0  0  0
    3.5382    9.0427  -11.9222 O   0  0  0  0  0  0  0  0  0  0  0  0
    4.4617    9.6581  -12.7434 O   0  0  0  0  0  0  0  0  0  0  0  0
    3.7497   10.3537  -13.6636 O   0  0  0  0  0  0  0  0  0  0  0  0
    4.6807   10.9585  -14.4701 O   0  0  0  0  0  0  0  0  0  0  0  0
    4.0224   11.6147  -15.4189 O   0  0  0  0  0  0  0  0  0  0  0  0
    4.8799   12.2460  -16.1875 O   0  0  0  0  0  0  0  0  0  0  0  0
    4.1478   12.9391  -17.1001 O   0  0  0  0  0  0  0  0  0  0  0  0
    5.0784   13.5492  -17.8921 O   0  0  0  0  0  0  0  0  0  0  0  0
    4.3372   14.2216  -18.8231 O   0  0  0  0  0  0  0  0  0  0  0  0
    5.2658   14.8145  -19.6301 O   0  0  0  0  0  0  0  0  0  0  0  0
    4.5348   15.5303  -20.5310 O   0  0  0  0  0  0  0  0  0  0  0  0
    5.4624   16.0651  -21.3746 O   0  0  0  0  0  0  0  0  0  0  0  0
    4.7230   16.7956  -22.2775 O   0  0  0  0  0  0  0  0  0  0  0  0
    5.6984   17.4273  -23.0213 O   0  0  0  0  0  0  0  0  0  0  0  0
    4.9327   18.1092  -23.9640 O   0  0  0  0  0  0  0  0  0  0  0  0
    5.8629   18.7078  -24.7608 O   0  0  0  0  0  0  0  0  0  0  0  0
    5.1307   19.4015  -25.6777 O   0  0  0  0  0  0  0  0  0  0  0  0
    6.0606   20.0022  -26.4730 O   0  0  0  0  0  0  0  0  0  0  0  0
    5.3284   20.6933  -27.3920 O   0  0  0  0  0  0  0  0  0  0  0  0
    6.2584   21.2960  -28.1857 O   0  0  0  0  0  0  0  0  0  0  0  0
    5.5257   21.9896  -29.1029 O   0  0  0  0  0  0  0  0  0  0  0  0
    6.4567   22.5874  -29.9001 O   0  0  0  0  0  0  0  0  0  0  0  0
    5.7231   23.2843  -30.8147 O   0  0  0  0  0  0  0  0  0  0  0  0
    6.6560   23.8916  -31.6047 O   0  0  0  0  0  0  0  0  0  0  0  0
    5.9216   24.5796  -32.5264 O   0  0  0  0  0  0  0  0  0  0  0  0
    6.8518   25.1804  -33.3216 O   0  0  0  0  0  0  0  0  0  0  0  0
    6.1195   25.8751  -34.2378 O   0  0  0  0  0  0  0  0  0  0  0  0
    7.0495   26.4743  -35.0342 O   0  0  0  0  0  0  0  0  0  0  0  0
    6.3173   27.1705  -35.9493 O   0  0  0  0  0  0  0  0  0  0  0  0
    7.2473   27.7676  -36.7473 O   0  0  0  0  0  0  0  0  0  0  0  0
    6.5151   28.4653  -37.6612 O   0  0  0  0  0  0  0  0  0  0  0  0
    7.4451   29.0650  -38.4572 O   0  0  0  0  0  0  0  0  0  0  0  0
    6.7129   29.7641  -39.3701 O   0  0  0  0  0  0  0  0  0  0  0  0
    7.6429   30.3612  -40.1681 O   0  0  0  0  0  0  0  0  0  0  0  0
    6.9107   31.0624  -41.0794 O   0  0  0  0  0  0  0  0  0  0  0  0
    7.8407   31.6616  -41.8759 O   0  0  0  0  0  0  0  0  0  0  0  0
    7.1085   32.3607  -42.7887 O   0  0  0  0  0  0  0  0  0  0  0  0
    8.0385   32.9614  -43.5840 O   0  0  0  0  0  0  0  0  0  0  0  0
    7.3063   33.6584  -44.4984 O   0  0  0  0  0  0  0  0  0  0  0  0
    8.2363   34.2612  -45.2922 O   0  0  0  0  0  0  0  0  0  0  0  0
    7.5042   34.9602  -46.2051 O   0  0  0  0  0  0  0  0  0  0  0  0
    8.4342   35.5608  -47.0005 O   0  0  0  0  0  0  0  0  0  0  0  0
    7.7020   36.2620  -47.9118 O   0  0  0  0  0  0  0  0  0  0  0  0
    8.6320   36.8605  -48.7086 O   0  0  0  0  0  0  0  0  0  0  0  0
    7.8998   37.5598  -49.6214 O   0  0  0  0  0  0  0  0  0  0  0  0
    8.8298   38.1605  -50.4167 O   0  0  0  0  0  0  0  0  0  0  0  0
    8.0976   38.8575  -51.3310 O   0  0  0  0  0  0  0  0  0  0  0  0
    9.0274   39.4598  -52.1248 O   0  0  0  0  0  0  0  0  0  0  0  0
    8.2940   40.1596  -53.0353 O   0  0  0  0  0  0  0  0  0  0  0  0
    9.2251   40.7592  -53.8325 O   0  0  0  0  0  0  0  0  0  0  0  0
    8.4970   41.4546  -54.7482 O   0  0  0  0  0  0  0  0  0  0  0  0
    9.4251   42.0615  -55.5398 O   0  0  0  0  0  0  0  0  0  0  0  0
    8.6881   42.7576  -56.4487 O   0  0  0  0  0  0  0  0  0  0  0  0
    9.6185   43.3635  -57.2559 O   0  0  0  0  0  0  0  0  0  0  0  0
    8.8846   44.0669  -58.1699 O   0  0  0  0  0  0  0  0  0  0  0  0
    9.8143   44.6728  -58.9689 O   0  0  0  0  0  0  0  0  0  0  0  0
    9.0882   45.3841  -59.8980 O   0  0  0  0  0  0  0  0  0  0  0  0
   10.0188   45.9941  -60.6985 O   0  0  0  0  0  0  0  0  0  0  0  0
    9.2883   46.7064  -61.6310 O   0  0  0  0  0  0  0  0  0  0  0  0
   10.2226   47.3220  -62.4423 O   0  0  0  0  0  0  0  0  0  0  0  0
    9.5221   48.0290  -63.4170 O   0  0  0  0  0  0  0  0  0  0  0  0
   10.4573   48.6609  -64.2541 O   0  0  0  0  0  0  0  0  0  0  0  0
    9.7364   49.4395  -65.1943 O   0  0  0  0  0  0  0  0  0  0  0  0
    8.9248   50.3927  -64.5007 O   0  0  0  0  0  0  0  0  0  0  0  0
   -1.0954   -0.4323   -0.6176 H   0  0  0  0  0  0  0  0  0  0  0  0
   -0.3789    1.2040   -0.7944 H   0  0  0  0  0  0  0  0  0  0  0  0
    0.6540   -0.1235   -0.3736 H   0  0  0  0  0  0  0  0  0  0  0  0
   -1.6593   -1.5971   -2.9455 H   0  0  0  0  0  0  0  0  0  0  0  0
   -0.2383   -1.2362   -5.2404 H   0  0  0  0  0  0  0  0  0  0  0  0
    8.5383   50.7623  -65.2912 H   0  0  0  0  0  0  0  0  0  0  0  0
  1  2  1  0  0  0  0
  1 80  1  0  0  0  0
  1 81  1  0  0  0  0
  1 82  1  0  0  0  0
  2  3  1  0  0  0  0
  2  5  2  0  0  0  0
  3  4  2  0  0  0  0
  3 83  1  0  0  0  0
  4  5  1  0  0  0  0
  4 84  1  0  0  0  0
  5  6  1  0  0  0  0
  6  7  1  0  0  0  0
  7  8  1  0  0  0  0
  8  9  1  0  0  0  0
  9 10  1  0  0  0  0
 10 11  1  0  0  0  0
 11 12  1  0  0  0  0
 12 13  1  0  0  0  0
 13 14  1  0  0  0  0
 14 15  1  0  0  0  0
 15 16  1  0  0  0  0
 16 17  1  0  0  0  0
 17 18  1  0  0  0  0
 18 19  1  0  0  0  0
 19 20  1  0  0  0  0
 20 21  1  0  0  0  0
 21 22  1  0  0  0  0
 22 23  1  0  0  0  0
 23 24  1  0  0  0  0
 24 25  1  0  0  0  0
 25 26  1  0  0  0  0
 26 27  1  0  0  0  0
 27 28  1  0  0  0  0
 28 29  1  0  0  0  0
 29 30  1  0  0  0  0
 30 31  1  0  0  0  0
 31 32  1  0  0  0  0
 32 33  1  0  0  0  0
 33 34  1  0  0  0  0
 34 35  1  0  0  0  0
 35 36  1  0  0  0  0
 36 37  1  0  0  0  0
 37 38  1  0  0  0  0
 38 39  1  0  0  0  0
 39 40  1  0  0  0  0
 40 41  1  0  0  0  0
 41 42  1  0  0  0  0
 42 43  1  0  0  0  0
 43 44  1  0  0  0  0
 44 45  1  0  0  0  0
 45 46  1  0  0  0  0
 46 47  1  0  0  0  0
 47 48  1  0  0  0  0
 48 49  1  0  0  0  0
 49 50  1  0  0  0  0
 50 51  1  0  0  0  0
 51 52  1  0  0  0  0
 52 53  1  0  0  0  0
 53 54  1  0  0  0  0
 54 55  1  0  0  0  0
 55 56  1  0  0  0  0
 56 57  1  0  0  0  0
 57 58  1  0  0  0  0
 58 59  1  0  0  0  0
 59 60  1  0  0  0  0
 60 61  1  0  0  0  0
 61 62  1  0  0  0  0
 62 63  1  0  0  0  0
 63 64  1  0  0  0  0
 64 65  1  0  0  0  0
 65 66  1  0  0  0  0
 66 67  1  0  0  0  0
 67 68  1  0  0  0  0
 68 69  1  0  0  0  0
 69 70  1  0  0  0  0
 70 71  1  0  0  0  0
 71 72  1  0  0  0  0
 72 73  1  0  0  0  0
 73 74  1  0  0  0  0
 74 75  1  0  0  0  0
 75 76  1  0  0  0  0
 76 77  1  0  0  0  0
 77 78  1  0  0  0  0
 78 79  1  0  0  0  0
 79 85  1  0  0  0  0
M  END
$$$$
