
 OpenBabel04232216433D

 28 28  0  0  0  0  0  0  0  0999 V2000
    4.4136   -0.0901   -1.7681 C   0  0  0  0  0  0  0  0  0  0  0  0
    4.1557   -0.9169   -0.5326 C   0  0  0  0  0  0  0  0  0  0  0  0
    3.4947   -2.0961   -0.5796 C   0  0  0  0  0  0  0  0  0  0  0  0
    4.1219   -3.2478    0.1095 C   0  0  0  0  0  0  0  0  0  0  0  0
    4.9430   -3.9712   -0.7095 C   0  0  0  0  0  0  0  0  0  0  0  0
    6.1208   -3.2090   -1.1992 C   0  0  0  0  0  0  0  0  0  0  0  0
    6.0689   -2.6088   -2.4069 C   0  0  0  0  0  0  0  0  0  0  0  0
    6.6190   -1.2745   -2.5874 C   0  0  0  0  0  0  0  0  0  0  0  0
    8.0881   -1.1596   -2.9753 C   0  0  0  0  0  0  0  0  0  0  0  0
    8.7192   -2.1894   -3.9408 C   0  0  0  0  0  0  0  0  0  0  0  0
    8.8370   -1.7444   -5.3922 C   0  0  0  0  0  0  0  0  0  0  0  0
    5.8672   -0.1838   -2.2690 C   0  0  0  0  0  0  0  0  0  0  0  0
    4.1965    0.9549   -1.5155 H   0  0  0  0  0  0  0  0  0  0  0  0
    3.7353   -0.3596   -2.5856 H   0  0  0  0  0  0  0  0  0  0  0  0
    4.8029   -0.6938    0.3123 H   0  0  0  0  0  0  0  0  0  0  0  0
    2.9035   -2.3559   -1.4629 H   0  0  0  0  0  0  0  0  0  0  0  0
    4.5699   -2.9075    1.0537 H   0  0  0  0  0  0  0  0  0  0  0  0
    4.4422   -4.4391   -1.5654 H   0  0  0  0  0  0  0  0  0  0  0  0
    6.7684   -2.8103   -0.4182 H   0  0  0  0  0  0  0  0  0  0  0  0
    5.3251   -2.8968   -3.1412 H   0  0  0  0  0  0  0  0  0  0  0  0
    8.6451   -1.2474   -2.0325 H   0  0  0  0  0  0  0  0  0  0  0  0
    8.2993   -0.1473   -3.3457 H   0  0  0  0  0  0  0  0  0  0  0  0
    8.2026   -3.1561   -3.9022 H   0  0  0  0  0  0  0  0  0  0  0  0
    9.7391   -2.3783   -3.5885 H   0  0  0  0  0  0  0  0  0  0  0  0
    7.8695   -1.7510   -5.9013 H   0  0  0  0  0  0  0  0  0  0  0  0
    9.4992   -2.4322   -5.9310 H   0  0  0  0  0  0  0  0  0  0  0  0
    9.2750   -0.7447   -5.4750 H   0  0  0  0  0  0  0  0  0  0  0  0
    6.3418    0.7926   -2.3480 H   0  0  0  0  0  0  0  0  0  0  0  0
  1  2  1  0  0  0  0
  1 12  1  0  0  0  0
  1 13  1  0  0  0  0
  1 14  1  0  0  0  0
  2  3  2  3  0  0  0
  2 15  1  0  0  0  0
  3  4  1  0  0  0  0
  3 16  1  0  0  0  0
  4  5  2  3  0  0  0
  4 17  1  0  0  0  0
  5  6  1  0  0  0  0
  5 18  1  0  0  0  0
  6  7  2  3  0  0  0
  6 19  1  0  0  0  0
  7  8  1  0  0  0  0
  7 20  1  0  0  0  0
  8  9  1  0  0  0  0
  8 12  2  3  0  0  0
  9 10  1  0  0  0  0
  9 21  1  0  0  0  0
  9 22  1  0  0  0  0
 10 11  1  0  0  0  0
 10 23  1  0  0  0  0
 10 24  1  0  0  0  0
 11 25  1  0  0  0  0
 11 26  1  0  0  0  0
 11 27  1  0  0  0  0
 12 28  1  0  0  0  0
M  END
$$$$
