
 OpenBabel04232216513D

 31 31  0  0  0  0  0  0  0  0999 V2000
    3.9590   -2.5697    2.6397 C   0  0  0  0  0  0  0  0  0  0  0  0
    4.5411   -1.3337    1.9704 C   0  0  0  0  0  0  0  0  0  0  0  0
    3.5050   -0.2108    1.8844 C   0  0  0  0  0  0  0  0  0  0  0  0
    4.0847    0.9747    1.1976 C   0  0  0  0  0  0  0  0  0  0  0  0
    4.2591    2.2276    1.6214 C   0  0  0  0  0  0  0  0  0  0  0  0
    3.8910    2.8395    2.9212 C   0  0  0  0  0  0  0  0  0  0  0  0
    5.0864    3.4003    3.6988 C   0  0  0  0  0  0  0  0  0  0  0  0
    4.5760    3.9859    5.0170 C   0  0  0  0  0  0  0  0  0  0  0  0
    5.6723    4.5876    5.8906 C   0  0  0  0  0  0  0  0  0  0  0  0
    5.0689    5.1289    7.1799 C   0  0  0  0  0  0  0  0  0  0  0  0
    3.3947    2.0160    0.4831 C   0  0  0  0  0  0  0  0  0  0  0  0
    4.7141   -3.3596    2.6954 H   0  0  0  0  0  0  0  0  0  0  0  0
    3.1038   -2.9562    2.0760 H   0  0  0  0  0  0  0  0  0  0  0  0
    3.6260   -2.3449    3.6580 H   0  0  0  0  0  0  0  0  0  0  0  0
    4.8884   -1.6025    0.9645 H   0  0  0  0  0  0  0  0  0  0  0  0
    5.4172   -0.9969    2.5375 H   0  0  0  0  0  0  0  0  0  0  0  0
    3.1540    0.0421    2.8917 H   0  0  0  0  0  0  0  0  0  0  0  0
    2.6302   -0.5572    1.3211 H   0  0  0  0  0  0  0  0  0  0  0  0
    3.3628    2.1169    3.5545 H   0  0  0  0  0  0  0  0  0  0  0  0
    3.1807    3.6536    2.7292 H   0  0  0  0  0  0  0  0  0  0  0  0
    5.5930    4.1754    3.1096 H   0  0  0  0  0  0  0  0  0  0  0  0
    5.8193    2.6074    3.8955 H   0  0  0  0  0  0  0  0  0  0  0  0
    4.0636    3.1976    5.5818 H   0  0  0  0  0  0  0  0  0  0  0  0
    3.8299    4.7593    4.7982 H   0  0  0  0  0  0  0  0  0  0  0  0
    6.1799    5.3993    5.3571 H   0  0  0  0  0  0  0  0  0  0  0  0
    6.4258    3.8294    6.1316 H   0  0  0  0  0  0  0  0  0  0  0  0
    4.3220    5.9020    6.9667 H   0  0  0  0  0  0  0  0  0  0  0  0
    5.8413    5.5676    7.8167 H   0  0  0  0  0  0  0  0  0  0  0  0
    4.5744    4.3301    7.7441 H   0  0  0  0  0  0  0  0  0  0  0  0
    3.7818    2.2859   -0.4876 H   0  0  0  0  0  0  0  0  0  0  0  0
    2.3311    2.1148    0.6451 H   0  0  0  0  0  0  0  0  0  0  0  0
  1  2  1  0  0  0  0
  1 12  1  0  0  0  0
  1 13  1  0  0  0  0
  1 14  1  0  0  0  0
  2  3  1  0  0  0  0
  2 15  1  0  0  0  0
  2 16  1  0  0  0  0
  3  4  1  0  0  0  0
  3 17  1  0  0  0  0
  3 18  1  0  0  0  0
  4  5  2  0  0  0  0
  4 11  1  0  0  0  0
  5  6  1  0  0  0  0
  5 11  1  0  0  0  0
  6  7  1  0  0  0  0
  6 19  1  0  0  0  0
  6 20  1  0  0  0  0
  7  8  1  0  0  0  0
  7 21  1  0  0  0  0
  7 22  1  0  0  0  0
  8  9  1  0  0  0  0
  8 23  1  0  0  0  0
  8 24  1  0  0  0  0
  9 10  1  0  0  0  0
  9 25  1  0  0  0  0
  9 26  1  0  0  0  0
 10 27  1  0  0  0  0
 10 28  1  0  0  0  0
 10 29  1  0  0  0  0
 11 30  1  0  0  0  0
 11 31  1  0  0  0  0
M  END
$$$$
