
 OpenBabel04232216433D

 17 17  0  0  0  0  0  0  0  0999 V2000
    0.9905   -1.3173    0.0552 C   0  0  0  0  0  0  0  0  0  0  0  0
   -0.4862   -1.4845    0.0036 C   0  0  0  0  0  0  0  0  0  0  0  0
   -1.4907   -0.6066   -0.0194 C   0  0  0  0  0  0  0  0  0  0  0  0
   -1.4133    0.8202    0.0050 C   0  0  0  0  0  0  0  0  0  0  0  0
   -0.3262    1.5922    0.0154 C   0  0  0  0  0  0  0  0  0  0  0  0
    1.0907    1.1514    0.0049 C   0  0  0  0  0  0  0  0  0  0  0  0
    2.1107    2.2799   -0.0129 C   0  0  0  0  0  0  0  0  0  0  0  0
    1.5997   -0.0115    0.0173 N   0  0  0  0  0  0  0  0  0  0  0  0
    1.4061   -1.8915   -0.7818 H   0  0  0  0  0  0  0  0  0  0  0  0
    1.3438   -1.8201    0.9636 H   0  0  0  0  0  0  0  0  0  0  0  0
   -0.7788   -2.5349   -0.0150 H   0  0  0  0  0  0  0  0  0  0  0  0
   -2.5052   -1.0035   -0.0519 H   0  0  0  0  0  0  0  0  0  0  0  0
   -2.3819    1.3195    0.0129 H   0  0  0  0  0  0  0  0  0  0  0  0
   -0.4752    2.6680    0.0282 H   0  0  0  0  0  0  0  0  0  0  0  0
    1.6402    3.2662   -0.0151 H   0  0  0  0  0  0  0  0  0  0  0  0
    2.7357    2.1890   -0.9066 H   0  0  0  0  0  0  0  0  0  0  0  0
    2.7469    2.2010    0.8746 H   0  0  0  0  0  0  0  0  0  0  0  0
  1  2  1  0  0  0  0
  1  8  1  0  0  0  0
  1  9  1  0  0  0  0
  1 10  1  0  0  0  0
  2  3  2  0  0  0  0
  2 11  1  0  0  0  0
  3  4  1  0  0  0  0
  3 12  1  0  0  0  0
  4  5  2  0  0  0  0
  4 13  1  0  0  0  0
  5  6  1  0  0  0  0
  5 14  1  0  0  0  0
  6  7  1  0  0  0  0
  6  8  2  0  0  0  0
  7 15  1  0  0  0  0
  7 16  1  0  0  0  0
  7 17  1  0  0  0  0
M  END
$$$$
