
 OpenBabel04232216423D

 55 56  0  0  0  0  0  0  0  0999 V2000
    5.5500   -1.0768   -0.8970 C   0  0  0  0  0  0  0  0  0  0  0  0
    4.0623   -0.7151   -0.6500 C   0  0  0  0  0  0  0  0  0  0  0  0
    3.4316   -0.3044    0.4679 C   0  0  0  0  0  0  0  0  0  0  0  0
    4.2477   -0.2912    1.6660 C   0  0  0  0  0  0  0  0  0  0  0  0
    5.1156    0.8267    1.6480 N   0  0  0  0  0  0  0  0  0  0  0  0
    4.6005    2.1370    1.0838 C   0  0  0  0  0  0  0  0  0  0  0  0
    5.5953    3.0907    0.3862 C   0  0  0  0  0  0  0  0  0  0  0  0
    5.9411    2.7572   -1.0779 C   0  0  0  0  0  0  0  0  0  0  0  0
    6.7157    3.8249   -1.6760 O   0  0  0  0  0  0  0  0  0  0  0  0
    7.1141    3.5031   -3.0201 C   0  0  0  0  0  0  0  0  0  0  0  0
    7.9552    4.6274   -3.6372 C   0  0  0  0  0  0  0  0  0  0  0  0
    8.4398    4.2740   -5.0409 C   0  0  0  0  0  0  0  0  0  0  0  0
    4.2195   -1.5872    2.0692 C   0  0  0  0  0  0  0  0  0  0  0  0
    5.0840   -2.6936    2.4293 C   0  0  0  0  0  0  0  0  0  0  0  0
    5.4708   -3.5782    1.4303 C   0  0  0  0  0  0  0  0  0  0  0  0
    6.7041   -3.4178    0.6448 C   0  0  0  0  0  0  0  0  0  0  0  0
    7.7201   -2.7694    1.2140 C   0  0  0  0  0  0  0  0  0  0  0  0
    8.3377   -3.3109    2.5621 C   0  0  0  0  0  0  0  0  0  0  0  0
    7.3910   -4.2420    3.1995 N   0  0  0  0  0  0  0  0  0  0  0  0
    7.4186   -5.3119    3.8533 C   0  0  0  0  0  0  0  0  0  0  0  0
    6.1506   -6.0728    4.2424 C   0  0  0  0  0  0  0  0  0  0  0  0
    4.8676   -5.6856    4.4121 C   0  0  0  0  0  0  0  0  0  0  0  0
    4.2688   -4.5155    3.8105 C   0  0  0  0  0  0  0  0  0  0  0  0
    4.8747   -3.3196    3.7526 C   0  0  0  0  0  0  0  0  0  0  0  0
    7.4698   -1.3101    0.8316 C   0  0  0  0  0  0  0  0  0  0  0  0
    6.6442   -0.6815    0.0502 N   0  0  0  0  0  0  0  0  0  0  0  0
    5.7824   -0.5348   -1.8188 H   0  0  0  0  0  0  0  0  0  0  0  0
    5.5466   -2.1193   -1.1958 H   0  0  0  0  0  0  0  0  0  0  0  0
    3.4023   -0.8766   -1.4998 H   0  0  0  0  0  0  0  0  0  0  0  0
    2.3735   -0.1312    0.5805 H   0  0  0  0  0  0  0  0  0  0  0  0
    5.9220    0.5250    1.0787 H   0  0  0  0  0  0  0  0  0  0  0  0
    4.1554    2.6700    1.9310 H   0  0  0  0  0  0  0  0  0  0  0  0
    3.7775    1.9942    0.3716 H   0  0  0  0  0  0  0  0  0  0  0  0
    6.5056    3.2279    0.9757 H   0  0  0  0  0  0  0  0  0  0  0  0
    5.1141    4.0820    0.3578 H   0  0  0  0  0  0  0  0  0  0  0  0
    5.0250    2.6384   -1.6691 H   0  0  0  0  0  0  0  0  0  0  0  0
    6.5247    1.8361   -1.1234 H   0  0  0  0  0  0  0  0  0  0  0  0
    6.2200    3.3427   -3.6337 H   0  0  0  0  0  0  0  0  0  0  0  0
    7.7039    2.5803   -3.0029 H   0  0  0  0  0  0  0  0  0  0  0  0
    8.8201    4.8425   -2.9987 H   0  0  0  0  0  0  0  0  0  0  0  0
    7.3706    5.5542   -3.6780 H   0  0  0  0  0  0  0  0  0  0  0  0
    9.0801    3.3856   -5.0256 H   0  0  0  0  0  0  0  0  0  0  0  0
    9.0235    5.0970   -5.4687 H   0  0  0  0  0  0  0  0  0  0  0  0
    7.5990    4.0764   -5.7141 H   0  0  0  0  0  0  0  0  0  0  0  0
    3.2560   -2.0853    1.8916 H   0  0  0  0  0  0  0  0  0  0  0  0
    5.5076   -4.6566    1.6381 H   0  0  0  0  0  0  0  0  0  0  0  0
    6.5940   -3.3534   -0.4245 H   0  0  0  0  0  0  0  0  0  0  0  0
    8.5849   -2.5034    3.2591 H   0  0  0  0  0  0  0  0  0  0  0  0
    9.2766   -3.8432    2.3345 H   0  0  0  0  0  0  0  0  0  0  0  0
    8.3318   -5.8084    4.2168 H   0  0  0  0  0  0  0  0  0  0  0  0
    6.3033   -7.1502    4.2220 H   0  0  0  0  0  0  0  0  0  0  0  0
    4.1147   -6.4328    4.6884 H   0  0  0  0  0  0  0  0  0  0  0  0
    3.5820   -4.8032    3.0119 H   0  0  0  0  0  0  0  0  0  0  0  0
    5.6268   -3.0284    4.4788 H   0  0  0  0  0  0  0  0  0  0  0  0
    8.1345   -0.6286    1.4058 H   0  0  0  0  0  0  0  0  0  0  0  0
  1  2  1  0  0  0  0
  1 26  1  0  0  0  0
  1 27  1  0  0  0  0
  1 28  1  0  0  0  0
  2  3  2  3  0  0  0
  2 29  1  0  0  0  0
  3  4  1  0  0  0  0
  3 30  1  0  0  0  0
  4  5  1  0  0  0  0
  4 13  2  3  0  0  0
  5  6  1  0  0  0  0
  5 31  1  0  0  0  0
  6  7  1  0  0  0  0
  6 32  1  0  0  0  0
  6 33  1  0  0  0  0
  7  8  1  0  0  0  0
  7 34  1  0  0  0  0
  7 35  1  0  0  0  0
  8  9  1  0  0  0  0
  8 36  1  0  0  0  0
  8 37  1  0  0  0  0
  9 10  1  0  0  0  0
 10 11  1  0  0  0  0
 10 38  1  0  0  0  0
 10 39  1  0  0  0  0
 11 12  1  0  0  0  0
 11 40  1  0  0  0  0
 11 41  1  0  0  0  0
 12 42  1  0  0  0  0
 12 43  1  0  0  0  0
 12 44  1  0  0  0  0
 13 14  1  0  0  0  0
 13 45  1  0  0  0  0
 14 15  2  3  0  0  0
 14 24  1  0  0  0  0
 15 16  1  0  0  0  0
 15 46  1  0  0  0  0
 16 17  2  3  0  0  0
 16 47  1  0  0  0  0
 17 18  1  0  0  0  0
 17 25  1  0  0  0  0
 18 19  1  0  0  0  0
 18 48  1  0  0  0  0
 18 49  1  0  0  0  0
 19 20  2  3  0  0  0
 20 21  1  0  0  0  0
 20 50  1  0  0  0  0
 21 22  2  3  0  0  0
 21 51  1  0  0  0  0
 22 23  1  0  0  0  0
 22 52  1  0  0  0  0
 23 24  2  3  0  0  0
 23 53  1  0  0  0  0
 24 54  1  0  0  0  0
 25 26  2  3  0  0  0
 25 55  1  0  0  0  0
M  END
$$$$
