
 OpenBabel04232216513D

 56 57  0  0  1  0  0  0  0  0999 V2000
    1.0296   -1.9321    1.5790 C   0  0  0  0  0  0  0  0  0  0  0  0
    2.5364   -1.9548    1.6020 C   0  0  0  0  0  0  0  0  0  0  0  0
    3.1103   -1.3027    0.3652 C   0  0  0  0  0  0  0  0  0  0  0  0
    4.6269   -1.3205    0.3777 C   0  0  0  0  0  0  0  0  0  0  0  0
    5.6615   -0.2037    0.3446 C   0  0  3  0  0  0  0  0  0  0  0  0
    5.6446    0.6219   -0.9155 C   0  0  0  0  0  0  0  0  0  0  0  0
    6.7047    1.6720   -0.8171 C   0  0  0  0  0  0  0  0  0  0  0  0
    6.7630    2.5454   -2.0285 C   0  0  0  0  0  0  0  0  0  0  0  0
    7.8486    3.5826   -1.8722 C   0  0  0  0  0  0  0  0  0  0  0  0
    6.7360   -1.3309    0.4006 C   0  0  3  0  0  0  0  0  0  0  0  0
    7.5699   -1.3592    1.6993 C   0  0  0  0  0  0  0  0  0  0  0  0
    7.3936   -0.5504    2.6111 O   0  0  0  0  0  0  0  0  0  0  0  0
    8.5291   -2.4869    1.7566 C   0  0  0  0  0  0  0  0  0  0  0  0
    9.4290   -2.5098    3.0463 C   0  0  0  0  0  0  0  0  0  0  0  0
   10.3231   -3.5732    3.2451 C   0  0  0  0  0  0  0  0  0  0  0  0
   11.2392   -3.5567    4.3946 N   0  0  0  0  0  0  0  0  0  0  0  0
   10.8291   -4.1422    5.6526 C   0  0  0  0  0  0  0  0  0  0  0  0
   11.5039   -3.4195    6.8066 C   0  0  0  0  0  0  0  0  0  0  0  0
   11.0804   -4.0262    8.1357 C   0  0  0  0  0  0  0  0  0  0  0  0
   11.7556   -3.2999    9.2888 C   0  0  0  0  0  0  0  0  0  0  0  0
   11.3303   -3.9080   10.6084 C   0  0  0  0  0  0  0  0  0  0  0  0
    8.5281   -3.6055    0.9926 C   0  0  0  0  0  0  0  0  0  0  0  0
    5.5563   -2.2918    0.3789 C   0  0  0  0  0  0  0  0  0  0  0  0
    0.6377   -2.3933    2.4892 H   0  0  0  0  0  0  0  0  0  0  0  0
    0.6565   -2.4835    0.7131 H   0  0  0  0  0  0  0  0  0  0  0  0
    0.6678   -0.9010    1.5268 H   0  0  0  0  0  0  0  0  0  0  0  0
    2.8934   -2.9886    1.6867 H   0  0  0  0  0  0  0  0  0  0  0  0
    2.8681   -1.4018    2.4863 H   0  0  0  0  0  0  0  0  0  0  0  0
    2.7620   -0.2737    0.2351 H   0  0  0  0  0  0  0  0  0  0  0  0
    2.7640   -1.8272   -0.5331 H   0  0  0  0  0  0  0  0  0  0  0  0
    5.6434    0.4489    1.2336 H   0  0  0  0  0  0  0  0  0  0  0  0
    4.7080    1.1484   -0.9956 H   0  0  0  0  0  0  0  0  0  0  0  0
    5.7829   -0.0095   -1.8005 H   0  0  0  0  0  0  0  0  0  0  0  0
    7.6121    1.1040   -0.8392 H   0  0  0  0  0  0  0  0  0  0  0  0
    6.6406    2.2447    0.1149 H   0  0  0  0  0  0  0  0  0  0  0  0
    5.7904    3.0156   -2.1653 H   0  0  0  0  0  0  0  0  0  0  0  0
    6.9763    1.9173   -2.8986 H   0  0  0  0  0  0  0  0  0  0  0  0
    7.6583    4.2041   -0.9910 H   0  0  0  0  0  0  0  0  0  0  0  0
    7.8687    4.2165   -2.7593 H   0  0  0  0  0  0  0  0  0  0  0  0
    8.8306    3.1107   -1.7542 H   0  0  0  0  0  0  0  0  0  0  0  0
    7.3973   -1.3806   -0.4820 H   0  0  0  0  0  0  0  0  0  0  0  0
    9.3936   -1.6678    3.7618 H   0  0  0  0  0  0  0  0  0  0  0  0
   12.1698   -3.1550    4.3149 H   0  0  0  0  0  0  0  0  0  0  0  0
   11.1071   -5.2026    5.6759 H   0  0  0  0  0  0  0  0  0  0  0  0
    9.7410   -4.0743    5.7623 H   0  0  0  0  0  0  0  0  0  0  0  0
   11.2371   -2.3559    6.7865 H   0  0  0  0  0  0  0  0  0  0  0  0
   12.5941   -3.4864    6.7037 H   0  0  0  0  0  0  0  0  0  0  0  0
   11.3494   -5.0896    8.1618 H   0  0  0  0  0  0  0  0  0  0  0  0
    9.9908   -3.9581    8.2446 H   0  0  0  0  0  0  0  0  0  0  0  0
   11.4846   -2.2381    9.2693 H   0  0  0  0  0  0  0  0  0  0  0  0
   12.8446   -3.3700    9.1860 H   0  0  0  0  0  0  0  0  0  0  0  0
   10.2456   -3.8306   10.7327 H   0  0  0  0  0  0  0  0  0  0  0  0
   11.8148   -3.3869   11.4374 H   0  0  0  0  0  0  0  0  0  0  0  0
   11.6094   -4.9656   10.6493 H   0  0  0  0  0  0  0  0  0  0  0  0
    8.5137   -4.4686    0.3874 H   0  0  0  0  0  0  0  0  0  0  0  0
    5.5216   -3.3761    0.3785 H   0  0  0  0  0  0  0  0  0  0  0  0
  1  2  1  0  0  0  0
  1 24  1  0  0  0  0
  1 25  1  0  0  0  0
  1 26  1  0  0  0  0
  2  3  1  0  0  0  0
  2 27  1  0  0  0  0
  2 28  1  0  0  0  0
  3  4  1  0  0  0  0
  3 29  1  0  0  0  0
  3 30  1  0  0  0  0
  4  5  1  0  0  0  0
  4 23  2  0  0  0  0
  5  6  1  0  0  0  0
  5 10  1  0  0  0  0
  5 31  1  0  0  0  0
  6  7  1  0  0  0  0
  6 32  1  0  0  0  0
  6 33  1  0  0  0  0
  7  8  1  0  0  0  0
  7 34  1  0  0  0  0
  7 35  1  0  0  0  0
  8  9  1  0  0  0  0
  8 36  1  0  0  0  0
  8 37  1  0  0  0  0
  9 38  1  0  0  0  0
  9 39  1  0  0  0  0
  9 40  1  0  0  0  0
 10 11  1  0  0  0  0
 10 23  1  0  0  0  0
 10 41  1  0  0  0  0
 11 12  2  0  0  0  0
 11 13  1  0  0  0  0
 13 14  1  0  0  0  0
 13 22  2  0  0  0  0
 14 15  2  0  0  0  0
 14 42  1  0  0  0  0
 15 16  1  0  0  0  0
 15 22  1  0  0  0  0
 16 17  1  0  0  0  0
 16 43  1  0  0  0  0
 17 18  1  0  0  0  0
 17 44  1  0  0  0  0
 17 45  1  0  0  0  0
 18 19  1  0  0  0  0
 18 46  1  0  0  0  0
 18 47  1  0  0  0  0
 19 20  1  0  0  0  0
 19 48  1  0  0  0  0
 19 49  1  0  0  0  0
 20 21  1  0  0  0  0
 20 50  1  0  0  0  0
 20 51  1  0  0  0  0
 21 52  1  0  0  0  0
 21 53  1  0  0  0  0
 21 54  1  0  0  0  0
 22 55  1  0  0  0  0
 23 56  1  0  0  0  0
M  END
$$$$
