
 OpenBabel04232216553D

159158  0  0  0  0  0  0  0  0999 V2000
    1.1105   -0.1412   -0.0246 C   0  0  0  0  0  0  0  0  0  0  0  0
    2.6363   -0.1378    0.0333 C   0  0  0  0  0  0  0  0  0  0  0  0
    3.1199    0.1483    1.7563 S   0  0  0  0  0  0  0  0  0  0  0  0
    4.9351    0.1251    1.6470 C   0  0  0  0  0  0  0  0  0  0  0  0
    5.4825    0.3583    3.0537 C   0  0  0  0  0  0  0  0  0  0  0  0
    7.0089    0.3582    3.0781 C   0  0  0  0  0  0  0  0  0  0  0  0
    7.5292    0.5902    4.4892 C   0  0  0  0  0  0  0  0  0  0  0  0
    9.0493    0.5895    4.4979 C   0  0  0  0  0  0  0  0  0  0  0  0
    9.5594    0.8215    5.9094 C   0  0  0  0  0  0  0  0  0  0  0  0
   11.0790    0.8226    5.9162 C   0  0  0  0  0  0  0  0  0  0  0  0
   11.5901    1.0526    7.3275 C   0  0  0  0  0  0  0  0  0  0  0  0
   13.1072    1.0553    7.3318 C   0  0  0  0  0  0  0  0  0  0  0  0
   13.6178    1.2831    8.7421 C   0  0  0  0  0  0  0  0  0  0  0  0
   15.1347    1.2838    8.7469 C   0  0  0  0  0  0  0  0  0  0  0  0
   15.6448    1.5115   10.1571 C   0  0  0  0  0  0  0  0  0  0  0  0
   17.1615    1.5103   10.1621 C   0  0  0  0  0  0  0  0  0  0  0  0
   17.6715    1.7360   11.5725 C   0  0  0  0  0  0  0  0  0  0  0  0
   19.1882    1.7367   11.5772 C   0  0  0  0  0  0  0  0  0  0  0  0
   19.6982    1.9604   12.9879 C   0  0  0  0  0  0  0  0  0  0  0  0
   21.2148    1.9592   12.9929 C   0  0  0  0  0  0  0  0  0  0  0  0
   21.7248    2.1809   14.4039 C   0  0  0  0  0  0  0  0  0  0  0  0
   23.2415    2.1816   14.4086 C   0  0  0  0  0  0  0  0  0  0  0  0
   23.7515    2.4013   15.8199 C   0  0  0  0  0  0  0  0  0  0  0  0
   25.2682    2.4001   15.8249 C   0  0  0  0  0  0  0  0  0  0  0  0
   25.7782    2.6198   17.2362 C   0  0  0  0  0  0  0  0  0  0  0  0
   27.2948    2.6205   17.2409 C   0  0  0  0  0  0  0  0  0  0  0  0
   27.8048    2.8403   18.6523 C   0  0  0  0  0  0  0  0  0  0  0  0
   29.3216    2.8410   18.6570 C   0  0  0  0  0  0  0  0  0  0  0  0
   29.8316    3.0608   20.0684 C   0  0  0  0  0  0  0  0  0  0  0  0
   31.3485    3.0615   20.0732 C   0  0  0  0  0  0  0  0  0  0  0  0
   31.8601    3.2813   21.4847 C   0  0  0  0  0  0  0  0  0  0  0  0
   33.3759    3.2822   21.4905 C   0  0  0  0  0  0  0  0  0  0  0  0
   33.8872    3.5016   22.9003 C   0  0  0  0  0  0  0  0  0  0  0  0
   35.4052    3.5019   22.9143 C   0  0  0  0  0  0  0  0  0  0  0  0
   35.9264    3.7196   24.3135 C   0  0  0  0  0  0  0  0  0  0  0  0
   37.4392    3.7241   24.3428 C   0  0  0  0  0  0  0  0  0  0  0  0
   37.9710    3.9389   25.7348 C   0  0  0  0  0  0  0  0  0  0  0  0
   39.4887    3.9447   25.7812 C   0  0  0  0  0  0  0  0  0  0  0  0
   40.0379    4.1736   27.1699 C   0  0  0  0  0  0  0  0  0  0  0  0
   41.8605    4.1989   27.2206 S   0  0  0  0  0  0  0  0  0  0  0  0
   42.4401    5.7611   26.0128 S   0  0  0  0  0  0  0  0  0  0  0  0
   41.6685    7.4874   26.8340 S   0  0  0  0  0  0  0  0  0  0  0  0
   42.4936    7.7559   28.7113 S   0  0  0  0  0  0  0  0  0  0  0  0
   41.6676    9.5001   29.5187 S   0  0  0  0  0  0  0  0  0  0  0  0
   42.4466    9.7428   31.4534 S   0  0  0  0  0  0  0  0  0  0  0  0
   41.6547   11.5097   32.2779 S   0  0  0  0  0  0  0  0  0  0  0  0
   42.4364   11.7526   34.2198 S   0  0  0  0  0  0  0  0  0  0  0  0
   41.6456   13.5214   35.0506 S   0  0  0  0  0  0  0  0  0  0  0  0
   42.4278   13.7649   36.9941 S   0  0  0  0  0  0  0  0  0  0  0  0
   41.6367   15.5346   37.8256 S   0  0  0  0  0  0  0  0  0  0  0  0
   42.4188   15.7786   39.7693 S   0  0  0  0  0  0  0  0  0  0  0  0
   41.6278   17.5484   40.6011 S   0  0  0  0  0  0  0  0  0  0  0  0
   42.4099   17.7924   42.5450 S   0  0  0  0  0  0  0  0  0  0  0  0
   41.6189   19.5622   43.3768 S   0  0  0  0  0  0  0  0  0  0  0  0
   42.4010   19.8063   45.3207 S   0  0  0  0  0  0  0  0  0  0  0  0
   41.6100   21.5761   46.1525 S   0  0  0  0  0  0  0  0  0  0  0  0
   42.3921   21.8201   48.0963 S   0  0  0  0  0  0  0  0  0  0  0  0
   41.6010   23.5899   48.9281 S   0  0  0  0  0  0  0  0  0  0  0  0
   42.3831   23.8340   50.8720 S   0  0  0  0  0  0  0  0  0  0  0  0
   41.5921   25.6038   51.7038 S   0  0  0  0  0  0  0  0  0  0  0  0
   42.3742   25.8478   53.6476 S   0  0  0  0  0  0  0  0  0  0  0  0
   41.5832   27.6176   54.4795 S   0  0  0  0  0  0  0  0  0  0  0  0
   42.3653   27.8616   56.4233 S   0  0  0  0  0  0  0  0  0  0  0  0
   41.5743   29.6314   57.2551 S   0  0  0  0  0  0  0  0  0  0  0  0
   42.3563   29.8755   59.1990 S   0  0  0  0  0  0  0  0  0  0  0  0
   41.5653   31.6453   60.0308 S   0  0  0  0  0  0  0  0  0  0  0  0
   42.3474   31.8893   61.9746 S   0  0  0  0  0  0  0  0  0  0  0  0
   41.5564   33.6591   62.8064 S   0  0  0  0  0  0  0  0  0  0  0  0
   42.3385   33.9032   64.7503 S   0  0  0  0  0  0  0  0  0  0  0  0
   41.5475   35.6729   65.5821 S   0  0  0  0  0  0  0  0  0  0  0  0
   42.3296   35.9169   67.5258 S   0  0  0  0  0  0  0  0  0  0  0  0
   41.5385   37.6866   68.3573 S   0  0  0  0  0  0  0  0  0  0  0  0
   42.3208   37.9300   70.3008 S   0  0  0  0  0  0  0  0  0  0  0  0
   41.5298   39.6989   71.1314 S   0  0  0  0  0  0  0  0  0  0  0  0
   42.3118   39.9415   73.0724 S   0  0  0  0  0  0  0  0  0  0  0  0
   41.5201   41.7065   73.8980 S   0  0  0  0  0  0  0  0  0  0  0  0
   42.3024   41.9432   75.8311 S   0  0  0  0  0  0  0  0  0  0  0  0
   41.5286   43.7148   76.6217 S   0  0  0  0  0  0  0  0  0  0  0  0
   42.2341   43.9062   78.5667 S   0  0  0  0  0  0  0  0  0  0  0  0
   41.4862   45.6867   79.3195 S   0  0  0  0  0  0  0  0  0  0  0  0
   39.4538   45.4299   79.4594 S   0  0  0  0  0  0  0  0  0  0  0  0
    0.7526   -0.3075   -1.0275 H   0  0  0  0  0  0  0  0  0  0  0  0
    0.6960    0.8246    0.3267 H   0  0  0  0  0  0  0  0  0  0  0  0
    0.6887   -0.9368    0.6213 H   0  0  0  0  0  0  0  0  0  0  0  0
    3.0201    0.6566   -0.6210 H   0  0  0  0  0  0  0  0  0  0  0  0
    3.0129   -1.1049   -0.3264 H   0  0  0  0  0  0  0  0  0  0  0  0
    5.2815    0.9160    0.9661 H   0  0  0  0  0  0  0  0  0  0  0  0
    5.2766   -0.8458    1.2600 H   0  0  0  0  0  0  0  0  0  0  0  0
    5.1189   -0.4237    3.7369 H   0  0  0  0  0  0  0  0  0  0  0  0
    5.1237    1.3217    3.4457 H   0  0  0  0  0  0  0  0  0  0  0  0
    7.3848    1.1389    2.4052 H   0  0  0  0  0  0  0  0  0  0  0  0
    7.3802   -0.5994    2.6927 H   0  0  0  0  0  0  0  0  0  0  0  0
    7.1513   -0.1939    5.1574 H   0  0  0  0  0  0  0  0  0  0  0  0
    7.1538    1.5483    4.8702 H   0  0  0  0  0  0  0  0  0  0  0  0
    9.4251    1.3742    3.8319 H   0  0  0  0  0  0  0  0  0  0  0  0
    9.4228   -0.3684    4.1192 H   0  0  0  0  0  0  0  0  0  0  0  0
    9.1859    0.0369    6.5783 H   0  0  0  0  0  0  0  0  0  0  0  0
    9.1861    1.7790    6.2920 H   0  0  0  0  0  0  0  0  0  0  0  0
   11.4552    1.6086    5.2508 H   0  0  0  0  0  0  0  0  0  0  0  0
   11.4553   -0.1340    5.5348 H   0  0  0  0  0  0  0  0  0  0  0  0
   11.2161    0.2658    7.9933 H   0  0  0  0  0  0  0  0  0  0  0  0
   11.2139    2.0088    7.7103 H   0  0  0  0  0  0  0  0  0  0  0  0
   13.4824    1.8431    6.6670 H   0  0  0  0  0  0  0  0  0  0  0  0
   13.4847    0.0996    6.9478 H   0  0  0  0  0  0  0  0  0  0  0  0
   13.2423    0.4961    9.4076 H   0  0  0  0  0  0  0  0  0  0  0  0
   13.2422    2.2395    9.1261 H   0  0  0  0  0  0  0  0  0  0  0  0
   15.5106    2.0708    8.0816 H   0  0  0  0  0  0  0  0  0  0  0  0
   15.5105    0.3274    8.3631 H   0  0  0  0  0  0  0  0  0  0  0  0
   15.2679    0.7253   10.8228 H   0  0  0  0  0  0  0  0  0  0  0  0
   15.2702    2.4686   10.5404 H   0  0  0  0  0  0  0  0  0  0  0  0
   17.5384    2.2974    9.4974 H   0  0  0  0  0  0  0  0  0  0  0  0
   17.5362    0.5537    9.7775 H   0  0  0  0  0  0  0  0  0  0  0  0
   17.2957    0.9480   12.2367 H   0  0  0  0  0  0  0  0  0  0  0  0
   17.2958    2.6919   11.9578 H   0  0  0  0  0  0  0  0  0  0  0  0
   19.5640    2.5255   10.9140 H   0  0  0  0  0  0  0  0  0  0  0  0
   19.5639    0.7813   11.1906 H   0  0  0  0  0  0  0  0  0  0  0  0
   19.3213    1.1723   13.6514 H   0  0  0  0  0  0  0  0  0  0  0  0
   19.3235    2.9164   13.3739 H   0  0  0  0  0  0  0  0  0  0  0  0
   21.5917    2.7482   12.3304 H   0  0  0  0  0  0  0  0  0  0  0  0
   21.5895    1.0037   12.6056 H   0  0  0  0  0  0  0  0  0  0  0  0
   21.3490    1.3911   15.0659 H   0  0  0  0  0  0  0  0  0  0  0  0
   21.3491    3.1357   14.7919 H   0  0  0  0  0  0  0  0  0  0  0  0
   23.6173    2.9723   13.7476 H   0  0  0  0  0  0  0  0  0  0  0  0
   23.6172    1.2273   14.0193 H   0  0  0  0  0  0  0  0  0  0  0  0
   23.3746    1.6114   16.4812 H   0  0  0  0  0  0  0  0  0  0  0  0
   23.3768    3.3563   16.2086 H   0  0  0  0  0  0  0  0  0  0  0  0
   25.6451    3.1900   15.1636 H   0  0  0  0  0  0  0  0  0  0  0  0
   25.6428    1.4452   15.4362 H   0  0  0  0  0  0  0  0  0  0  0  0
   25.4023    1.8291   17.8972 H   0  0  0  0  0  0  0  0  0  0  0  0
   25.4024    3.5741   17.6255 H   0  0  0  0  0  0  0  0  0  0  0  0
   27.6706    3.4113   16.5800 H   0  0  0  0  0  0  0  0  0  0  0  0
   27.6706    1.6663   16.8516 H   0  0  0  0  0  0  0  0  0  0  0  0
   27.4291    2.0495   19.3132 H   0  0  0  0  0  0  0  0  0  0  0  0
   27.4290    3.7945   19.0415 H   0  0  0  0  0  0  0  0  0  0  0  0
   29.6973    3.6318   17.9960 H   0  0  0  0  0  0  0  0  0  0  0  0
   29.6973    1.8867   18.2677 H   0  0  0  0  0  0  0  0  0  0  0  0
   29.4558    2.2700   20.7292 H   0  0  0  0  0  0  0  0  0  0  0  0
   29.4558    4.0150   20.4576 H   0  0  0  0  0  0  0  0  0  0  0  0
   31.7241    3.8522   19.4121 H   0  0  0  0  0  0  0  0  0  0  0  0
   31.7241    2.1072   19.6838 H   0  0  0  0  0  0  0  0  0  0  0  0
   31.4828    2.4905   22.1454 H   0  0  0  0  0  0  0  0  0  0  0  0
   31.4828    4.2355   21.8737 H   0  0  0  0  0  0  0  0  0  0  0  0
   33.7515    4.0728   20.8287 H   0  0  0  0  0  0  0  0  0  0  0  0
   33.7514    2.3278   21.1004 H   0  0  0  0  0  0  0  0  0  0  0  0
   33.5100    2.7115   23.5637 H   0  0  0  0  0  0  0  0  0  0  0  0
   33.5122    4.4574   23.2910 H   0  0  0  0  0  0  0  0  0  0  0  0
   35.7829    4.2920   22.2470 H   0  0  0  0  0  0  0  0  0  0  0  0
   35.7807    2.5448   22.5198 H   0  0  0  0  0  0  0  0  0  0  0  0
   35.5431    2.9287   24.9849 H   0  0  0  0  0  0  0  0  0  0  0  0
   35.5432    4.6773   24.7127 H   0  0  0  0  0  0  0  0  0  0  0  0
   37.8185    4.5165   23.6694 H   0  0  0  0  0  0  0  0  0  0  0  0
   37.8186    2.7658   23.9394 H   0  0  0  0  0  0  0  0  0  0  0  0
   37.5931    3.1480   26.4091 H   0  0  0  0  0  0  0  0  0  0  0  0
   37.5905    4.8951   26.1402 H   0  0  0  0  0  0  0  0  0  0  0  0
   39.8406    4.7350   25.0858 H   0  0  0  0  0  0  0  0  0  0  0  0
   39.8638    2.9871   25.3654 H   0  0  0  0  0  0  0  0  0  0  0  0
   39.6875    3.3695   27.8392 H   0  0  0  0  0  0  0  0  0  0  0  0
   39.6710    5.1148   27.5834 H   0  0  0  0  0  0  0  0  0  0  0  0
   39.0597   46.6138   79.9658 H   0  0  0  0  0  0  0  0  0  0  0  0
  1  2  1  0  0  0  0
  1 82  1  0  0  0  0
  1 83  1  0  0  0  0
  1 84  1  0  0  0  0
  2  3  1  0  0  0  0
  2 85  1  0  0  0  0
  2 86  1  0  0  0  0
  3  4  1  0  0  0  0
  4  5  1  0  0  0  0
  4 87  1  0  0  0  0
  4 88  1  0  0  0  0
  5  6  1  0  0  0  0
  5 89  1  0  0  0  0
  5 90  1  0  0  0  0
  6  7  1  0  0  0  0
  6 91  1  0  0  0  0
  6 92  1  0  0  0  0
  7  8  1  0  0  0  0
  7 93  1  0  0  0  0
  7 94  1  0  0  0  0
  8  9  1  0  0  0  0
  8 95  1  0  0  0  0
  8 96  1  0  0  0  0
  9 10  1  0  0  0  0
  9 97  1  0  0  0  0
  9 98  1  0  0  0  0
 10 11  1  0  0  0  0
 10 99  1  0  0  0  0
 10100  1  0  0  0  0
 11 12  1  0  0  0  0
 11101  1  0  0  0  0
 11102  1  0  0  0  0
 12 13  1  0  0  0  0
 12103  1  0  0  0  0
 12104  1  0  0  0  0
 13 14  1  0  0  0  0
 13105  1  0  0  0  0
 13106  1  0  0  0  0
 14 15  1  0  0  0  0
 14107  1  0  0  0  0
 14108  1  0  0  0  0
 15 16  1  0  0  0  0
 15109  1  0  0  0  0
 15110  1  0  0  0  0
 16 17  1  0  0  0  0
 16111  1  0  0  0  0
 16112  1  0  0  0  0
 17 18  1  0  0  0  0
 17113  1  0  0  0  0
 17114  1  0  0  0  0
 18 19  1  0  0  0  0
 18115  1  0  0  0  0
 18116  1  0  0  0  0
 19 20  1  0  0  0  0
 19117  1  0  0  0  0
 19118  1  0  0  0  0
 20 21  1  0  0  0  0
 20119  1  0  0  0  0
 20120  1  0  0  0  0
 21 22  1  0  0  0  0
 21121  1  0  0  0  0
 21122  1  0  0  0  0
 22 23  1  0  0  0  0
 22123  1  0  0  0  0
 22124  1  0  0  0  0
 23 24  1  0  0  0  0
 23125  1  0  0  0  0
 23126  1  0  0  0  0
 24 25  1  0  0  0  0
 24127  1  0  0  0  0
 24128  1  0  0  0  0
 25 26  1  0  0  0  0
 25129  1  0  0  0  0
 25130  1  0  0  0  0
 26 27  1  0  0  0  0
 26131  1  0  0  0  0
 26132  1  0  0  0  0
 27 28  1  0  0  0  0
 27133  1  0  0  0  0
 27134  1  0  0  0  0
 28 29  1  0  0  0  0
 28135  1  0  0  0  0
 28136  1  0  0  0  0
 29 30  1  0  0  0  0
 29137  1  0  0  0  0
 29138  1  0  0  0  0
 30 31  1  0  0  0  0
 30139  1  0  0  0  0
 30140  1  0  0  0  0
 31 32  1  0  0  0  0
 31141  1  0  0  0  0
 31142  1  0  0  0  0
 32 33  1  0  0  0  0
 32143  1  0  0  0  0
 32144  1  0  0  0  0
 33 34  1  0  0  0  0
 33145  1  0  0  0  0
 33146  1  0  0  0  0
 34 35  1  0  0  0  0
 34147  1  0  0  0  0
 34148  1  0  0  0  0
 35 36  1  0  0  0  0
 35149  1  0  0  0  0
 35150  1  0  0  0  0
 36 37  1  0  0  0  0
 36151  1  0  0  0  0
 36152  1  0  0  0  0
 37 38  1  0  0  0  0
 37153  1  0  0  0  0
 37154  1  0  0  0  0
 38 39  1  0  0  0  0
 38155  1  0  0  0  0
 38156  1  0  0  0  0
 39 40  1  0  0  0  0
 39157  1  0  0  0  0
 39158  1  0  0  0  0
 40 41  1  0  0  0  0
 41 42  1  0  0  0  0
 42 43  1  0  0  0  0
 43 44  1  0  0  0  0
 44 45  1  0  0  0  0
 45 46  1  0  0  0  0
 46 47  1  0  0  0  0
 47 48  1  0  0  0  0
 48 49  1  0  0  0  0
 49 50  1  0  0  0  0
 50 51  1  0  0  0  0
 51 52  1  0  0  0  0
 52 53  1  0  0  0  0
 53 54  1  0  0  0  0
 54 55  1  0  0  0  0
 55 56  1  0  0  0  0
 56 57  1  0  0  0  0
 57 58  1  0  0  0  0
 58 59  1  0  0  0  0
 59 60  1  0  0  0  0
 60 61  1  0  0  0  0
 61 62  1  0  0  0  0
 62 63  1  0  0  0  0
 63 64  1  0  0  0  0
 64 65  1  0  0  0  0
 65 66  1  0  0  0  0
 66 67  1  0  0  0  0
 67 68  1  0  0  0  0
 68 69  1  0  0  0  0
 69 70  1  0  0  0  0
 70 71  1  0  0  0  0
 71 72  1  0  0  0  0
 72 73  1  0  0  0  0
 73 74  1  0  0  0  0
 74 75  1  0  0  0  0
 75 76  1  0  0  0  0
 76 77  1  0  0  0  0
 77 78  1  0  0  0  0
 78 79  1  0  0  0  0
 79 80  1  0  0  0  0
 80 81  1  0  0  0  0
 81159  1  0  0  0  0
M  END
$$$$
