
 OpenBabel04232217033D

163162  0  0  0  0  0  0  0  0999 V2000
   22.1684  -26.3924   -6.1933 S   0  0  0  0  0  0  0  0  0  0  0  0
   21.6069  -26.2293   -4.6472 N   0  0  0  0  0  0  0  0  0  0  0  0
   21.8468  -24.9063   -4.1986 N   0  0  0  0  0  0  0  0  0  0  0  0
   21.3721  -24.7072   -2.8752 N   0  0  0  0  0  0  0  0  0  0  0  0
   22.0791  -25.4727   -1.8994 N   0  0  0  0  0  0  0  0  0  0  0  0
   23.4937  -25.2547   -1.9755 N   0  0  0  0  0  0  0  0  0  0  0  0
   23.8151  -23.9068   -1.5974 N   0  0  0  0  0  0  0  0  0  0  0  0
   23.3789  -23.6386   -0.2555 N   0  0  0  0  0  0  0  0  0  0  0  0
   24.0433  -24.5145    0.6709 N   0  0  0  0  0  0  0  0  0  0  0  0
   25.4665  -24.3108    0.6099 N   0  0  0  0  0  0  0  0  0  0  0  0
   25.7824  -22.9470    0.9455 N   0  0  0  0  0  0  0  0  0  0  0  0
   25.3105  -22.6474    2.2727 N   0  0  0  0  0  0  0  0  0  0  0  0
   25.9323  -23.5350    3.2224 N   0  0  0  0  0  0  0  0  0  0  0  0
   27.3640  -23.3771    3.1631 N   0  0  0  0  0  0  0  0  0  0  0  0
   27.7088  -22.0106    3.4683 N   0  0  0  0  0  0  0  0  0  0  0  0
   27.2275  -21.6783    4.7868 N   0  0  0  0  0  0  0  0  0  0  0  0
   27.8225  -22.5711    5.7509 N   0  0  0  0  0  0  0  0  0  0  0  0
   29.2584  -22.4428    5.6968 N   0  0  0  0  0  0  0  0  0  0  0  0
   29.6267  -21.0771    5.9825 N   0  0  0  0  0  0  0  0  0  0  0  0
   29.1391  -20.7159    7.2915 N   0  0  0  0  0  0  0  0  0  0  0  0
   29.7097  -21.6053    8.2729 N   0  0  0  0  0  0  0  0  0  0  0  0
   31.1487  -21.5074    8.2249 N   0  0  0  0  0  0  0  0  0  0  0  0
   31.5399  -20.1451    8.4950 N   0  0  0  0  0  0  0  0  0  0  0  0
   31.0492  -19.7606    9.7979 N   0  0  0  0  0  0  0  0  0  0  0  0
   31.5986  -20.6500   10.7929 N   0  0  0  0  0  0  0  0  0  0  0  0
   33.0393  -20.5742   10.7532 N   0  0  0  0  0  0  0  0  0  0  0  0
   33.4506  -19.2145   11.0091 N   0  0  0  0  0  0  0  0  0  0  0  0
   32.9580  -18.8053   12.3025 N   0  0  0  0  0  0  0  0  0  0  0  0
   33.4857  -19.6909   13.3127 N   0  0  0  0  0  0  0  0  0  0  0  0
   34.9280  -19.6404   13.2808 N   0  0  0  0  0  0  0  0  0  0  0  0
   35.3603  -18.2841   13.5204 N   0  0  0  0  0  0  0  0  0  0  0  0
   34.8664  -17.8493   14.8052 N   0  0  0  0  0  0  0  0  0  0  0  0
   35.3725  -18.7308   15.8302 N   0  0  0  0  0  0  0  0  0  0  0  0
   36.8157  -18.7055   15.8064 N   0  0  0  0  0  0  0  0  0  0  0  0
   37.2694  -17.3536   16.0308 N   0  0  0  0  0  0  0  0  0  0  0  0
   36.7748  -16.8937   17.3066 N   0  0  0  0  0  0  0  0  0  0  0  0
   37.2588  -17.7705   18.3462 N   0  0  0  0  0  0  0  0  0  0  0  0
   38.7023  -17.7704   18.3317 N   0  0  0  0  0  0  0  0  0  0  0  0
   39.1777  -16.4237   18.5417 N   0  0  0  0  0  0  0  0  0  0  0  0
   38.6829  -15.9391   19.8082 N   0  0  0  0  0  0  0  0  0  0  0  0
   39.1452  -16.8109   20.8618 N   0  0  0  0  0  0  0  0  0  0  0  0
   40.5885  -16.8356   20.8563 N   0  0  0  0  0  0  0  0  0  0  0  0
   41.0855  -15.4944   21.0514 N   0  0  0  0  0  0  0  0  0  0  0  0
   40.5906  -14.9845   22.3079 N   0  0  0  0  0  0  0  0  0  0  0  0
   41.0305  -15.8503   23.3761 N   0  0  0  0  0  0  0  0  0  0  0  0
   42.4733  -15.9004   23.3808 N   0  0  0  0  0  0  0  0  0  0  0  0
   42.9927  -14.5658   23.5622 N   0  0  0  0  0  0  0  0  0  0  0  0
   42.4992  -14.0311   24.8090 N   0  0  0  0  0  0  0  0  0  0  0  0
   42.9176  -14.8899   25.8912 N   0  0  0  0  0  0  0  0  0  0  0  0
   44.3592  -14.9645   25.9063 N   0  0  0  0  0  0  0  0  0  0  0  0
   44.9003  -13.6367   26.0739 N   0  0  0  0  0  0  0  0  0  0  0  0
   44.4084  -13.0774   27.3105 N   0  0  0  0  0  0  0  0  0  0  0  0
   44.8053  -13.9288   28.4065 N   0  0  0  0  0  0  0  0  0  0  0  0
   46.2454  -14.0279   28.4320 N   0  0  0  0  0  0  0  0  0  0  0  0
   46.8085  -12.7078   28.5862 N   0  0  0  0  0  0  0  0  0  0  0  0
   46.3190  -12.1238   29.8121 N   0  0  0  0  0  0  0  0  0  0  0  0
   46.6937  -12.9677   30.9215 N   0  0  0  0  0  0  0  0  0  0  0  0
   48.1314  -13.0901   30.9604 N   0  0  0  0  0  0  0  0  0  0  0  0
   48.7156  -11.7779   31.1017 N   0  0  0  0  0  0  0  0  0  0  0  0
   48.2288  -11.1705   32.3169 N   0  0  0  0  0  0  0  0  0  0  0  0
   48.5833  -12.0058   33.4394 N   0  0  0  0  0  0  0  0  0  0  0  0
   50.0184  -12.1526   33.4868 N   0  0  0  0  0  0  0  0  0  0  0  0
   50.6247  -10.8491   33.6151 N   0  0  0  0  0  0  0  0  0  0  0  0
   50.1405  -10.2171   34.8190 N   0  0  0  0  0  0  0  0  0  0  0  0
   50.4722  -11.0430   35.9552 N   0  0  0  0  0  0  0  0  0  0  0  0
   51.9037  -11.2128   36.0170 N   0  0  0  0  0  0  0  0  0  0  0  0
   52.5334   -9.9210   36.1344 N   0  0  0  0  0  0  0  0  0  0  0  0
   52.0591   -9.2619   37.3263 N   0  0  0  0  0  0  0  0  0  0  0  0
   52.3620  -10.0751   38.4763 N   0  0  0  0  0  0  0  0  0  0  0  0
   53.7893  -10.2726   38.5514 N   0  0  0  0  0  0  0  0  0  0  0  0
   54.4458   -8.9917   38.6556 N   0  0  0  0  0  0  0  0  0  0  0  0
   53.9783   -8.3056   39.8361 N   0  0  0  0  0  0  0  0  0  0  0  0
   54.2693   -9.1011   41.0038 N   0  0  0  0  0  0  0  0  0  0  0  0
   55.6899   -9.3290   41.1039 N   0  0  0  0  0  0  0  0  0  0  0  0
   56.3847   -8.0683   41.1895 N   0  0  0  0  0  0  0  0  0  0  0  0
   55.9427   -7.3437   42.3559 N   0  0  0  0  0  0  0  0  0  0  0  0
   56.1907   -8.1150   43.5488 N   0  0  0  0  0  0  0  0  0  0  0  0
   57.6046   -8.3624   43.7027 N   0  0  0  0  0  0  0  0  0  0  0  0
   58.3366   -7.1221   43.8417 N   0  0  0  0  0  0  0  0  0  0  0  0
   57.8774   -6.3760   44.9732 N   0  0  0  0  0  0  0  0  0  0  0  0
   58.1346   -7.1525   46.1484 N   0  0  0  0  0  0  0  0  0  0  0  0
   21.8680  -27.6879   -6.3792 H   0  0  0  0  0  0  0  0  0  0  0  0
   22.1013  -26.8808   -4.0349 H   0  0  0  0  0  0  0  0  0  0  0  0
   21.4309  -24.2271   -4.8459 H   0  0  0  0  0  0  0  0  0  0  0  0
   20.3594  -24.8506   -2.8039 H   0  0  0  0  0  0  0  0  0  0  0  0
   21.8613  -26.4701   -1.9636 H   0  0  0  0  0  0  0  0  0  0  0  0
   23.7986  -25.3984   -2.9471 H   0  0  0  0  0  0  0  0  0  0  0  0
   23.3292  -23.2717   -2.2428 H   0  0  0  0  0  0  0  0  0  0  0  0
   22.3673  -23.8151   -0.2174 H   0  0  0  0  0  0  0  0  0  0  0  0
   23.8352  -25.4793    0.3859 H   0  0  0  0  0  0  0  0  0  0  0  0
   25.7553  -24.4852   -0.3619 H   0  0  0  0  0  0  0  0  0  0  0  0
   25.2819  -22.3483    0.2758 H   0  0  0  0  0  0  0  0  0  0  0  0
   24.2968  -22.8209    2.2758 H   0  0  0  0  0  0  0  0  0  0  0  0
   25.6953  -24.4930    2.9314 H   0  0  0  0  0  0  0  0  0  0  0  0
   27.6416  -23.5749    2.1917 H   0  0  0  0  0  0  0  0  0  0  0  0
   27.2139  -21.4239    2.7826 H   0  0  0  0  0  0  0  0  0  0  0  0
   26.2108  -21.8399    4.7760 H   0  0  0  0  0  0  0  0  0  0  0  0
   27.5691  -23.5252    5.4587 H   0  0  0  0  0  0  0  0  0  0  0  0
   29.5336  -22.6583    4.7283 H   0  0  0  0  0  0  0  0  0  0  0  0
   29.1446  -20.4939    5.2834 H   0  0  0  0  0  0  0  0  0  0  0  0
   28.1209  -20.8647    7.2723 H   0  0  0  0  0  0  0  0  0  0  0  0
   29.4367  -22.5566    7.9921 H   0  0  0  0  0  0  0  0  0  0  0  0
   31.4246  -21.7413    7.2598 H   0  0  0  0  0  0  0  0  0  0  0  0
   31.0701  -19.5638    7.7866 H   0  0  0  0  0  0  0  0  0  0  0  0
   30.0279  -19.8910    9.7724 H   0  0  0  0  0  0  0  0  0  0  0  0
   31.3149  -21.6013   10.5185 H   0  0  0  0  0  0  0  0  0  0  0  0
   33.3152  -20.8229    9.7926 H   0  0  0  0  0  0  0  0  0  0  0  0
   32.9966  -18.6346   10.2892 H   0  0  0  0  0  0  0  0  0  0  0  0
   31.9349  -18.9195   12.2711 H   0  0  0  0  0  0  0  0  0  0  0  0
   33.1871  -20.6405   13.0485 H   0  0  0  0  0  0  0  0  0  0  0  0
   35.2049  -19.9065   12.3251 H   0  0  0  0  0  0  0  0  0  0  0  0
   34.9194  -17.7074   12.7897 H   0  0  0  0  0  0  0  0  0  0  0  0
   33.8418  -17.9468   14.7685 H   0  0  0  0  0  0  0  0  0  0  0  0
   35.0591  -19.6785   15.5761 H   0  0  0  0  0  0  0  0  0  0  0  0
   37.0935  -18.9889   14.8559 H   0  0  0  0  0  0  0  0  0  0  0  0
   36.8426  -16.7795   15.2899 H   0  0  0  0  0  0  0  0  0  0  0  0
   35.7488  -16.9742   17.2641 H   0  0  0  0  0  0  0  0  0  0  0  0
   36.9307  -18.7158   18.1020 H   0  0  0  0  0  0  0  0  0  0  0  0
   38.9813  -18.0707   17.3868 H   0  0  0  0  0  0  0  0  0  0  0  0
   38.7657  -15.8519   17.7907 H   0  0  0  0  0  0  0  0  0  0  0  0
   37.6560  -16.0025   19.7601 H   0  0  0  0  0  0  0  0  0  0  0  0
   38.8024  -17.7534   20.6278 H   0  0  0  0  0  0  0  0  0  0  0  0
   40.8682  -17.1532   19.9173 H   0  0  0  0  0  0  0  0  0  0  0  0
   40.6877  -14.9260   20.2902 H   0  0  0  0  0  0  0  0  0  0  0  0
   39.5631  -15.0312   22.2533 H   0  0  0  0  0  0  0  0  0  0  0  0
   40.6729  -16.7897   23.1514 H   0  0  0  0  0  0  0  0  0  0  0  0
   42.7531  -16.2346   22.4476 H   0  0  0  0  0  0  0  0  0  0  0  0
   42.6099  -14.0003   22.7911 H   0  0  0  0  0  0  0  0  0  0  0  0
   41.4714  -14.0608   24.7485 H   0  0  0  0  0  0  0  0  0  0  0  0
   42.5454  -15.8260   25.6767 H   0  0  0  0  0  0  0  0  0  0  0  0
   44.6393  -15.3156   24.9794 H   0  0  0  0  0  0  0  0  0  0  0  0
   44.5322  -13.0747   25.2932 H   0  0  0  0  0  0  0  0  0  0  0  0
   43.3807  -13.0903   27.2439 H   0  0  0  0  0  0  0  0  0  0  0  0
   44.4185  -14.8612   28.2020 H   0  0  0  0  0  0  0  0  0  0  0  0
   46.5252  -14.3958   27.5117 H   0  0  0  0  0  0  0  0  0  0  0  0
   46.4553  -12.1496   27.7959 H   0  0  0  0  0  0  0  0  0  0  0  0
   45.2916  -12.1195   29.7390 H   0  0  0  0  0  0  0  0  0  0  0  0
   46.2929  -13.8961   30.7258 H   0  0  0  0  0  0  0  0  0  0  0  0
   48.4137  -13.4755   30.0481 H   0  0  0  0  0  0  0  0  0  0  0  0
   48.3776  -11.2235   30.3022 H   0  0  0  0  0  0  0  0  0  0  0  0
   47.2022  -11.1492   32.2382 H   0  0  0  0  0  0  0  0  0  0  0  0
   48.1674  -12.9296   33.2547 H   0  0  0  0  0  0  0  0  0  0  0  0
   50.2978  -12.5538   32.5804 H   0  0  0  0  0  0  0  0  0  0  0  0
   50.3017  -10.2994   32.8065 H   0  0  0  0  0  0  0  0  0  0  0  0
   49.1150  -10.1787   34.7329 H   0  0  0  0  0  0  0  0  0  0  0  0
   50.0416  -11.9620   35.7800 H   0  0  0  0  0  0  0  0  0  0  0  0
   52.1836  -11.6326   35.1177 H   0  0  0  0  0  0  0  0  0  0  0  0
   52.2264   -9.3750   35.3140 H   0  0  0  0  0  0  0  0  0  0  0  0
   51.0301   -9.2032   37.2313 H   0  0  0  0  0  0  0  0  0  0  0  0
   51.9159  -10.9887   38.3129 H   0  0  0  0  0  0  0  0  0  0  0  0
   54.0687  -10.7090   37.6619 H   0  0  0  0  0  0  0  0  0  0  0  0
   54.1558   -8.4500   37.8287 H   0  0  0  0  0  0  0  0  0  0  0  0
   52.9547   -8.2311   39.7406 H   0  0  0  0  0  0  0  0  0  0  0  0
   53.8036  -10.0097   40.8572 H   0  0  0  0  0  0  0  0  0  0  0  0
   55.9736   -9.7972   40.2298 H   0  0  0  0  0  0  0  0  0  0  0  0
   56.1243   -7.5273   40.3601 H   0  0  0  0  0  0  0  0  0  0  0  0
   54.9229   -7.2301   42.2542 H   0  0  0  0  0  0  0  0  0  0  0  0
   55.7129   -9.0149   43.4236 H   0  0  0  0  0  0  0  0  0  0  0  0
   57.9102   -8.8252   42.8356 H   0  0  0  0  0  0  0  0  0  0  0  0
   58.1414   -6.5771   42.9896 H   0  0  0  0  0  0  0  0  0  0  0  0
   56.8622   -6.2435   44.8496 H   0  0  0  0  0  0  0  0  0  0  0  0
   59.1298   -7.3777   46.1438 H   0  0  0  0  0  0  0  0  0  0  0  0
   57.6948   -8.0632   45.9698 H   0  0  0  0  0  0  0  0  0  0  0  0
  1  2  1  0  0  0  0
  1 82  1  0  0  0  0
  2  3  1  0  0  0  0
  2 83  1  0  0  0  0
  3  4  1  0  0  0  0
  3 84  1  0  0  0  0
  4  5  1  0  0  0  0
  4 85  1  0  0  0  0
  5  6  1  0  0  0  0
  5 86  1  0  0  0  0
  6  7  1  0  0  0  0
  6 87  1  0  0  0  0
  7  8  1  0  0  0  0
  7 88  1  0  0  0  0
  8  9  1  0  0  0  0
  8 89  1  0  0  0  0
  9 10  1  0  0  0  0
  9 90  1  0  0  0  0
 10 11  1  0  0  0  0
 10 91  1  0  0  0  0
 11 12  1  0  0  0  0
 11 92  1  0  0  0  0
 12 13  1  0  0  0  0
 12 93  1  0  0  0  0
 13 14  1  0  0  0  0
 13 94  1  0  0  0  0
 14 15  1  0  0  0  0
 14 95  1  0  0  0  0
 15 16  1  0  0  0  0
 15 96  1  0  0  0  0
 16 17  1  0  0  0  0
 16 97  1  0  0  0  0
 17 18  1  0  0  0  0
 17 98  1  0  0  0  0
 18 19  1  0  0  0  0
 18 99  1  0  0  0  0
 19 20  1  0  0  0  0
 19100  1  0  0  0  0
 20 21  1  0  0  0  0
 20101  1  0  0  0  0
 21 22  1  0  0  0  0
 21102  1  0  0  0  0
 22 23  1  0  0  0  0
 22103  1  0  0  0  0
 23 24  1  0  0  0  0
 23104  1  0  0  0  0
 24 25  1  0  0  0  0
 24105  1  0  0  0  0
 25 26  1  0  0  0  0
 25106  1  0  0  0  0
 26 27  1  0  0  0  0
 26107  1  0  0  0  0
 27 28  1  0  0  0  0
 27108  1  0  0  0  0
 28 29  1  0  0  0  0
 28109  1  0  0  0  0
 29 30  1  0  0  0  0
 29110  1  0  0  0  0
 30 31  1  0  0  0  0
 30111  1  0  0  0  0
 31 32  1  0  0  0  0
 31112  1  0  0  0  0
 32 33  1  0  0  0  0
 32113  1  0  0  0  0
 33 34  1  0  0  0  0
 33114  1  0  0  0  0
 34 35  1  0  0  0  0
 34115  1  0  0  0  0
 35 36  1  0  0  0  0
 35116  1  0  0  0  0
 36 37  1  0  0  0  0
 36117  1  0  0  0  0
 37 38  1  0  0  0  0
 37118  1  0  0  0  0
 38 39  1  0  0  0  0
 38119  1  0  0  0  0
 39 40  1  0  0  0  0
 39120  1  0  0  0  0
 40 41  1  0  0  0  0
 40121  1  0  0  0  0
 41 42  1  0  0  0  0
 41122  1  0  0  0  0
 42 43  1  0  0  0  0
 42123  1  0  0  0  0
 43 44  1  0  0  0  0
 43124  1  0  0  0  0
 44 45  1  0  0  0  0
 44125  1  0  0  0  0
 45 46  1  0  0  0  0
 45126  1  0  0  0  0
 46 47  1  0  0  0  0
 46127  1  0  0  0  0
 47 48  1  0  0  0  0
 47128  1  0  0  0  0
 48 49  1  0  0  0  0
 48129  1  0  0  0  0
 49 50  1  0  0  0  0
 49130  1  0  0  0  0
 50 51  1  0  0  0  0
 50131  1  0  0  0  0
 51 52  1  0  0  0  0
 51132  1  0  0  0  0
 52 53  1  0  0  0  0
 52133  1  0  0  0  0
 53 54  1  0  0  0  0
 53134  1  0  0  0  0
 54 55  1  0  0  0  0
 54135  1  0  0  0  0
 55 56  1  0  0  0  0
 55136  1  0  0  0  0
 56 57  1  0  0  0  0
 56137  1  0  0  0  0
 57 58  1  0  0  0  0
 57138  1  0  0  0  0
 58 59  1  0  0  0  0
 58139  1  0  0  0  0
 59 60  1  0  0  0  0
 59140  1  0  0  0  0
 60 61  1  0  0  0  0
 60141  1  0  0  0  0
 61 62  1  0  0  0  0
 61142  1  0  0  0  0
 62 63  1  0  0  0  0
 62143  1  0  0  0  0
 63 64  1  0  0  0  0
 63144  1  0  0  0  0
 64 65  1  0  0  0  0
 64145  1  0  0  0  0
 65 66  1  0  0  0  0
 65146  1  0  0  0  0
 66 67  1  0  0  0  0
 66147  1  0  0  0  0
 67 68  1  0  0  0  0
 67148  1  0  0  0  0
 68 69  1  0  0  0  0
 68149  1  0  0  0  0
 69 70  1  0  0  0  0
 69150  1  0  0  0  0
 70 71  1  0  0  0  0
 70151  1  0  0  0  0
 71 72  1  0  0  0  0
 71152  1  0  0  0  0
 72 73  1  0  0  0  0
 72153  1  0  0  0  0
 73 74  1  0  0  0  0
 73154  1  0  0  0  0
 74 75  1  0  0  0  0
 74155  1  0  0  0  0
 75 76  1  0  0  0  0
 75156  1  0  0  0  0
 76 77  1  0  0  0  0
 76157  1  0  0  0  0
 77 78  1  0  0  0  0
 77158  1  0  0  0  0
 78 79  1  0  0  0  0
 78159  1  0  0  0  0
 79 80  1  0  0  0  0
 79160  1  0  0  0  0
 80 81  1  0  0  0  0
 80161  1  0  0  0  0
 81162  1  0  0  0  0
 81163  1  0  0  0  0
M  END
$$$$
