
 OpenBabel04232216403D

186185  0  0  0  0  0  0  0  0999 V2000
    1.4539   -0.4168   -0.9800 C   0  0  0  0  0  0  0  0  0  0  0  0
    2.3137    0.0655   -0.0761 C   0  0  0  0  0  0  0  0  0  0  0  0
    3.0959   -0.8092    0.8565 C   0  0  0  0  0  0  0  0  0  0  0  0
    4.5980   -0.6291    0.6679 C   0  0  0  0  0  0  0  0  0  0  0  0
    5.3661   -1.5350    1.6247 C   0  0  0  0  0  0  0  0  0  0  0  0
    6.8648   -1.3570    1.4364 C   0  0  0  0  0  0  0  0  0  0  0  0
    7.6310   -2.2610    2.3886 C   0  0  0  0  0  0  0  0  0  0  0  0
    9.1262   -2.0743    2.1941 C   0  0  0  0  0  0  0  0  0  0  0  0
    9.8921   -2.9768    3.1446 C   0  0  0  0  0  0  0  0  0  0  0  0
   11.3853   -2.7899    2.9472 C   0  0  0  0  0  0  0  0  0  0  0  0
   12.1492   -3.6940    3.8966 C   0  0  0  0  0  0  0  0  0  0  0  0
   13.6416   -3.5056    3.7004 C   0  0  0  0  0  0  0  0  0  0  0  0
   14.4045   -4.4083    4.6512 C   0  0  0  0  0  0  0  0  0  0  0  0
   15.8967   -4.2212    4.4535 C   0  0  0  0  0  0  0  0  0  0  0  0
   16.6591   -5.1239    5.4044 C   0  0  0  0  0  0  0  0  0  0  0  0
   18.1512   -4.9354    5.2080 C   0  0  0  0  0  0  0  0  0  0  0  0
   18.9136   -5.8367    6.1602 C   0  0  0  0  0  0  0  0  0  0  0  0
   20.4056   -5.6492    5.9622 C   0  0  0  0  0  0  0  0  0  0  0  0
   21.1681   -6.5489    6.9157 C   0  0  0  0  0  0  0  0  0  0  0  0
   22.6601   -6.3601    6.7192 C   0  0  0  0  0  0  0  0  0  0  0  0
   23.4226   -7.2585    7.6741 C   0  0  0  0  0  0  0  0  0  0  0  0
   24.9146   -7.0711    7.4763 C   0  0  0  0  0  0  0  0  0  0  0  0
   25.6770   -7.9709    8.4299 C   0  0  0  0  0  0  0  0  0  0  0  0
   27.1690   -7.7822    8.2334 C   0  0  0  0  0  0  0  0  0  0  0  0
   27.9315   -8.6820    9.1870 C   0  0  0  0  0  0  0  0  0  0  0  0
   29.4234   -8.4947    8.9891 C   0  0  0  0  0  0  0  0  0  0  0  0
   30.1859   -9.3945    9.9427 C   0  0  0  0  0  0  0  0  0  0  0  0
   31.6779   -9.2072    9.7448 C   0  0  0  0  0  0  0  0  0  0  0  0
   32.4403  -10.1070   10.6983 C   0  0  0  0  0  0  0  0  0  0  0  0
   33.9323   -9.9197   10.5005 C   0  0  0  0  0  0  0  0  0  0  0  0
   34.6947  -10.8195   11.4540 C   0  0  0  0  0  0  0  0  0  0  0  0
   36.1867  -10.6322   11.2562 C   0  0  0  0  0  0  0  0  0  0  0  0
   36.9491  -11.5334   12.2084 C   0  0  0  0  0  0  0  0  0  0  0  0
   38.4411  -11.3461   12.0105 C   0  0  0  0  0  0  0  0  0  0  0  0
   39.2035  -12.2474   12.9627 C   0  0  0  0  0  0  0  0  0  0  0  0
   40.6955  -12.0601   12.7648 C   0  0  0  0  0  0  0  0  0  0  0  0
   41.4578  -12.9629   13.7156 C   0  0  0  0  0  0  0  0  0  0  0  0
   42.9498  -12.7770   13.5163 C   0  0  0  0  0  0  0  0  0  0  0  0
   43.7122  -13.6811   14.4657 C   0  0  0  0  0  0  0  0  0  0  0  0
   45.2042  -13.4938   14.2677 C   0  0  0  0  0  0  0  0  0  0  0  0
   45.9665  -14.3965   15.2185 C   0  0  0  0  0  0  0  0  0  0  0  0
   47.4582  -14.2106   15.0192 C   0  0  0  0  0  0  0  0  0  0  0  0
   48.2203  -15.1132   15.9699 C   0  0  0  0  0  0  0  0  0  0  0  0
   49.7115  -14.9270   15.7702 C   0  0  0  0  0  0  0  0  0  0  0  0
   50.4723  -15.8295   16.7208 C   0  0  0  0  0  0  0  0  0  0  0  0
   51.9620  -15.6422   16.5200 C   0  0  0  0  0  0  0  0  0  0  0  0
   52.7195  -16.5444   17.4703 C   0  0  0  0  0  0  0  0  0  0  0  0
   54.2052  -16.3561   17.2655 C   0  0  0  0  0  0  0  0  0  0  0  0
   54.9527  -17.2569   18.2171 C   0  0  0  0  0  0  0  0  0  0  0  0
   56.4176  -17.0616   18.0021 C   0  0  0  0  0  0  0  0  0  0  0  0
   57.1528  -17.9712   18.9633 C   0  0  0  0  0  0  0  0  0  0  0  0
   58.6154  -17.7737   18.7489 C   0  0  0  0  0  0  0  0  0  0  0  0
   59.3324  -18.6669   19.6956 C   0  0  0  0  0  0  0  0  0  0  0  0
   60.6580  -18.3910   19.3956 O   0  0  0  0  0  0  0  0  0  0  0  0
   61.3194  -19.2373   20.2887 O   0  0  0  0  0  0  0  0  0  0  0  0
   62.6905  -19.0668   20.1083 O   0  0  0  0  0  0  0  0  0  0  0  0
   63.3285  -19.8975   20.9861 O   0  0  0  0  0  0  0  0  0  0  0  0
   64.6718  -19.7239   20.7741 O   0  0  0  0  0  0  0  0  0  0  0  0
   65.3253  -20.5513   21.6727 O   0  0  0  0  0  0  0  0  0  0  0  0
   66.6693  -20.3462   21.4628 O   0  0  0  0  0  0  0  0  0  0  0  0
   67.3304  -21.1865   22.3379 O   0  0  0  0  0  0  0  0  0  0  0  0
   68.6678  -20.9770   22.1069 O   0  0  0  0  0  0  0  0  0  0  0  0
   69.3268  -21.7951   22.9908 O   0  0  0  0  0  0  0  0  0  0  0  0
   70.6697  -21.5962   22.7601 O   0  0  0  0  0  0  0  0  0  0  0  0
   71.3072  -22.4340   23.6350 O   0  0  0  0  0  0  0  0  0  0  0  0
   72.6474  -22.2289   23.4250 O   0  0  0  0  0  0  0  0  0  0  0  0
   73.2874  -23.0472   24.3267 O   0  0  0  0  0  0  0  0  0  0  0  0
   74.6273  -22.8675   24.0905 O   0  0  0  0  0  0  0  0  0  0  0  0
   75.2748  -23.6990   24.9693 O   0  0  0  0  0  0  0  0  0  0  0  0
   76.6188  -23.4947   24.7533 O   0  0  0  0  0  0  0  0  0  0  0  0
   77.2735  -24.3327   25.6347 O   0  0  0  0  0  0  0  0  0  0  0  0
   78.6189  -24.1471   25.4246 O   0  0  0  0  0  0  0  0  0  0  0  0
   79.2713  -24.9859   26.3163 O   0  0  0  0  0  0  0  0  0  0  0  0
   80.6325  -24.7913   26.1105 O   0  0  0  0  0  0  0  0  0  0  0  0
   81.3114  -25.6378   26.9869 O   0  0  0  0  0  0  0  0  0  0  0  0
   82.6837  -25.4435   26.7672 O   0  0  0  0  0  0  0  0  0  0  0  0
   83.3894  -26.2284   27.6915 O   0  0  0  0  0  0  0  0  0  0  0  0
   84.7843  -26.0408   27.4801 O   0  0  0  0  0  0  0  0  0  0  0  0
   85.5061  -26.9287   28.3431 O   0  0  0  0  0  0  0  0  0  0  0  0
   85.1215  -28.2966   28.0637 O   0  0  0  0  0  0  0  0  0  0  0  0
    0.9035    0.2512   -1.6325 H   0  0  0  0  0  0  0  0  0  0  0  0
    1.2845   -1.4834   -1.0829 H   0  0  0  0  0  0  0  0  0  0  0  0
    2.4516    1.1413   -0.0006 H   0  0  0  0  0  0  0  0  0  0  0  0
    2.8362   -1.8628    0.6957 H   0  0  0  0  0  0  0  0  0  0  0  0
    2.8204   -0.5653    1.8890 H   0  0  0  0  0  0  0  0  0  0  0  0
    4.8800    0.4161    0.8474 H   0  0  0  0  0  0  0  0  0  0  0  0
    4.8798   -0.8660   -0.3660 H   0  0  0  0  0  0  0  0  0  0  0  0
    5.0938   -2.5830    1.4477 H   0  0  0  0  0  0  0  0  0  0  0  0
    5.0937   -1.3011    2.6612 H   0  0  0  0  0  0  0  0  0  0  0  0
    7.1416   -0.3111    1.6168 H   0  0  0  0  0  0  0  0  0  0  0  0
    7.1413   -1.5920    0.4012 H   0  0  0  0  0  0  0  0  0  0  0  0
    7.3611   -3.3090    2.2092 H   0  0  0  0  0  0  0  0  0  0  0  0
    7.3595   -2.0291    3.4258 H   0  0  0  0  0  0  0  0  0  0  0  0
    9.3990   -1.0272    2.3744 H   0  0  0  0  0  0  0  0  0  0  0  0
    9.4006   -2.3070    1.1578 H   0  0  0  0  0  0  0  0  0  0  0  0
    9.6208   -4.0246    2.9659 H   0  0  0  0  0  0  0  0  0  0  0  0
    9.6212   -2.7437    4.1818 H   0  0  0  0  0  0  0  0  0  0  0  0
   11.6585   -1.7429    3.1278 H   0  0  0  0  0  0  0  0  0  0  0  0
   11.6578   -3.0222    1.9103 H   0  0  0  0  0  0  0  0  0  0  0  0
   11.8779   -4.7413    3.7154 H   0  0  0  0  0  0  0  0  0  0  0  0
   11.8767   -3.4629    4.9338 H   0  0  0  0  0  0  0  0  0  0  0  0
   13.9135   -2.4582    3.8806 H   0  0  0  0  0  0  0  0  0  0  0  0
   13.9150   -3.7382    2.6638 H   0  0  0  0  0  0  0  0  0  0  0  0
   14.1321   -5.4558    4.4722 H   0  0  0  0  0  0  0  0  0  0  0  0
   14.1325   -4.1748    5.6879 H   0  0  0  0  0  0  0  0  0  0  0  0
   16.1693   -3.1738    4.6326 H   0  0  0  0  0  0  0  0  0  0  0  0
   16.1690   -4.4548    3.4168 H   0  0  0  0  0  0  0  0  0  0  0  0
   16.3876   -6.1714    5.2243 H   0  0  0  0  0  0  0  0  0  0  0  0
   16.3860   -4.8913    6.4410 H   0  0  0  0  0  0  0  0  0  0  0  0
   18.4226   -3.8876    5.3868 H   0  0  0  0  0  0  0  0  0  0  0  0
   18.4246   -5.1693    4.1717 H   0  0  0  0  0  0  0  0  0  0  0  0
   18.6413   -6.8844    5.9828 H   0  0  0  0  0  0  0  0  0  0  0  0
   18.6411   -5.6018    7.1966 H   0  0  0  0  0  0  0  0  0  0  0  0
   20.6776   -4.6011    6.1384 H   0  0  0  0  0  0  0  0  0  0  0  0
   20.6781   -5.8854    4.9262 H   0  0  0  0  0  0  0  0  0  0  0  0
   20.8971   -7.5970    6.7386 H   0  0  0  0  0  0  0  0  0  0  0  0
   20.8945   -6.3135    7.9517 H   0  0  0  0  0  0  0  0  0  0  0  0
   22.9311   -5.3118    6.8951 H   0  0  0  0  0  0  0  0  0  0  0  0
   22.9339   -6.5968    5.6836 H   0  0  0  0  0  0  0  0  0  0  0  0
   23.1507   -8.3068    7.4993 H   0  0  0  0  0  0  0  0  0  0  0  0
   23.1498   -7.0208    8.7097 H   0  0  0  0  0  0  0  0  0  0  0  0
   25.1866   -6.0231    7.6525 H   0  0  0  0  0  0  0  0  0  0  0  0
   25.1873   -7.3075    6.4404 H   0  0  0  0  0  0  0  0  0  0  0  0
   25.4059   -9.0190    8.2527 H   0  0  0  0  0  0  0  0  0  0  0  0
   25.4034   -7.7356    9.4659 H   0  0  0  0  0  0  0  0  0  0  0  0
   27.4401   -6.7341    8.4106 H   0  0  0  0  0  0  0  0  0  0  0  0
   27.4426   -8.0175    7.1974 H   0  0  0  0  0  0  0  0  0  0  0  0
   27.6594   -9.7300    9.0107 H   0  0  0  0  0  0  0  0  0  0  0  0
   27.6588   -8.4457   10.2229 H   0  0  0  0  0  0  0  0  0  0  0  0
   29.6956   -7.4467    9.1653 H   0  0  0  0  0  0  0  0  0  0  0  0
   29.6960   -8.7310    7.9531 H   0  0  0  0  0  0  0  0  0  0  0  0
   29.9137  -10.4425    9.7664 H   0  0  0  0  0  0  0  0  0  0  0  0
   29.9133   -9.1582   10.9787 H   0  0  0  0  0  0  0  0  0  0  0  0
   31.9500   -8.1592    9.9210 H   0  0  0  0  0  0  0  0  0  0  0  0
   31.9504   -9.4435    8.7088 H   0  0  0  0  0  0  0  0  0  0  0  0
   32.1682  -11.1550   10.5221 H   0  0  0  0  0  0  0  0  0  0  0  0
   32.1677   -9.8707   11.7343 H   0  0  0  0  0  0  0  0  0  0  0  0
   34.2044   -8.8717   10.6767 H   0  0  0  0  0  0  0  0  0  0  0  0
   34.2048  -10.1560    9.4645 H   0  0  0  0  0  0  0  0  0  0  0  0
   34.4225  -11.8674   11.2778 H   0  0  0  0  0  0  0  0  0  0  0  0
   34.4222  -10.5832   12.4900 H   0  0  0  0  0  0  0  0  0  0  0  0
   36.4590   -9.5844   11.4337 H   0  0  0  0  0  0  0  0  0  0  0  0
   36.4591  -10.8671   10.2198 H   0  0  0  0  0  0  0  0  0  0  0  0
   36.6768  -12.5811   12.0307 H   0  0  0  0  0  0  0  0  0  0  0  0
   36.6768  -11.2985   13.2447 H   0  0  0  0  0  0  0  0  0  0  0  0
   38.7135  -10.2984   12.1881 H   0  0  0  0  0  0  0  0  0  0  0  0
   38.7135  -11.5810   10.9741 H   0  0  0  0  0  0  0  0  0  0  0  0
   38.9311  -13.2950   12.7849 H   0  0  0  0  0  0  0  0  0  0  0  0
   38.9312  -12.0125   13.9990 H   0  0  0  0  0  0  0  0  0  0  0  0
   40.9681  -11.0128   12.9439 H   0  0  0  0  0  0  0  0  0  0  0  0
   40.9676  -12.2938   11.7281 H   0  0  0  0  0  0  0  0  0  0  0  0
   41.1842  -14.0102   13.5375 H   0  0  0  0  0  0  0  0  0  0  0  0
   41.1867  -12.7284   14.7525 H   0  0  0  0  0  0  0  0  0  0  0  0
   43.2235  -11.7299   13.6958 H   0  0  0  0  0  0  0  0  0  0  0  0
   43.2206  -13.0102   12.4792 H   0  0  0  0  0  0  0  0  0  0  0  0
   43.4395  -14.7282   14.2852 H   0  0  0  0  0  0  0  0  0  0  0  0
   43.4404  -13.4488   15.5028 H   0  0  0  0  0  0  0  0  0  0  0  0
   45.4769  -12.4465   14.4469 H   0  0  0  0  0  0  0  0  0  0  0  0
   45.4762  -13.7274   13.2310 H   0  0  0  0  0  0  0  0  0  0  0  0
   45.6929  -15.4439   15.0404 H   0  0  0  0  0  0  0  0  0  0  0  0
   45.6955  -14.1620   16.2553 H   0  0  0  0  0  0  0  0  0  0  0  0
   47.7321  -13.1634   15.1974 H   0  0  0  0  0  0  0  0  0  0  0  0
   47.7295  -14.4452   13.9825 H   0  0  0  0  0  0  0  0  0  0  0  0
   47.9470  -16.1606   15.7919 H   0  0  0  0  0  0  0  0  0  0  0  0
   47.9496  -14.8788   17.0068 H   0  0  0  0  0  0  0  0  0  0  0  0
   49.9859  -13.8799   15.9486 H   0  0  0  0  0  0  0  0  0  0  0  0
   49.9833  -15.1618   14.7337 H   0  0  0  0  0  0  0  0  0  0  0  0
   50.1999  -16.8772   16.5430 H   0  0  0  0  0  0  0  0  0  0  0  0
   50.2026  -15.5953   17.7580 H   0  0  0  0  0  0  0  0  0  0  0  0
   52.2378  -14.5957   16.6990 H   0  0  0  0  0  0  0  0  0  0  0  0
   52.2351  -15.8777   15.4839 H   0  0  0  0  0  0  0  0  0  0  0  0
   52.4480  -17.5927   17.2941 H   0  0  0  0  0  0  0  0  0  0  0  0
   52.4526  -16.3098   18.5082 H   0  0  0  0  0  0  0  0  0  0  0  0
   54.4852  -15.3105   17.4437 H   0  0  0  0  0  0  0  0  0  0  0  0
   54.4807  -16.5953   16.2309 H   0  0  0  0  0  0  0  0  0  0  0  0
   54.6834  -18.3066   18.0440 H   0  0  0  0  0  0  0  0  0  0  0  0
   54.6897  -17.0206   19.2560 H   0  0  0  0  0  0  0  0  0  0  0  0
   56.7189  -16.0240   18.1880 H   0  0  0  0  0  0  0  0  0  0  0  0
   56.7126  -17.3101   16.9759 H   0  0  0  0  0  0  0  0  0  0  0  0
   56.8908  -19.0216   18.7883 H   0  0  0  0  0  0  0  0  0  0  0  0
   56.8951  -17.7348   20.0027 H   0  0  0  0  0  0  0  0  0  0  0  0
   58.9227  -16.7330   18.9206 H   0  0  0  0  0  0  0  0  0  0  0  0
   58.9187  -18.0091   17.7195 H   0  0  0  0  0  0  0  0  0  0  0  0
   59.1172  -19.7272   19.5166 H   0  0  0  0  0  0  0  0  0  0  0  0
   59.1234  -18.4215   20.7439 H   0  0  0  0  0  0  0  0  0  0  0  0
   85.6647  -28.6766   28.7666 H   0  0  0  0  0  0  0  0  0  0  0  0
  1  2  2  0  0  0  0
  1 81  1  0  0  0  0
  1 82  1  0  0  0  0
  2  3  1  0  0  0  0
  2 83  1  0  0  0  0
  3  4  1  0  0  0  0
  3 84  1  0  0  0  0
  3 85  1  0  0  0  0
  4  5  1  0  0  0  0
  4 86  1  0  0  0  0
  4 87  1  0  0  0  0
  5  6  1  0  0  0  0
  5 88  1  0  0  0  0
  5 89  1  0  0  0  0
  6  7  1  0  0  0  0
  6 90  1  0  0  0  0
  6 91  1  0  0  0  0
  7  8  1  0  0  0  0
  7 92  1  0  0  0  0
  7 93  1  0  0  0  0
  8  9  1  0  0  0  0
  8 94  1  0  0  0  0
  8 95  1  0  0  0  0
  9 10  1  0  0  0  0
  9 96  1  0  0  0  0
  9 97  1  0  0  0  0
 10 11  1  0  0  0  0
 10 98  1  0  0  0  0
 10 99  1  0  0  0  0
 11 12  1  0  0  0  0
 11100  1  0  0  0  0
 11101  1  0  0  0  0
 12 13  1  0  0  0  0
 12102  1  0  0  0  0
 12103  1  0  0  0  0
 13 14  1  0  0  0  0
 13104  1  0  0  0  0
 13105  1  0  0  0  0
 14 15  1  0  0  0  0
 14106  1  0  0  0  0
 14107  1  0  0  0  0
 15 16  1  0  0  0  0
 15108  1  0  0  0  0
 15109  1  0  0  0  0
 16 17  1  0  0  0  0
 16110  1  0  0  0  0
 16111  1  0  0  0  0
 17 18  1  0  0  0  0
 17112  1  0  0  0  0
 17113  1  0  0  0  0
 18 19  1  0  0  0  0
 18114  1  0  0  0  0
 18115  1  0  0  0  0
 19 20  1  0  0  0  0
 19116  1  0  0  0  0
 19117  1  0  0  0  0
 20 21  1  0  0  0  0
 20118  1  0  0  0  0
 20119  1  0  0  0  0
 21 22  1  0  0  0  0
 21120  1  0  0  0  0
 21121  1  0  0  0  0
 22 23  1  0  0  0  0
 22122  1  0  0  0  0
 22123  1  0  0  0  0
 23 24  1  0  0  0  0
 23124  1  0  0  0  0
 23125  1  0  0  0  0
 24 25  1  0  0  0  0
 24126  1  0  0  0  0
 24127  1  0  0  0  0
 25 26  1  0  0  0  0
 25128  1  0  0  0  0
 25129  1  0  0  0  0
 26 27  1  0  0  0  0
 26130  1  0  0  0  0
 26131  1  0  0  0  0
 27 28  1  0  0  0  0
 27132  1  0  0  0  0
 27133  1  0  0  0  0
 28 29  1  0  0  0  0
 28134  1  0  0  0  0
 28135  1  0  0  0  0
 29 30  1  0  0  0  0
 29136  1  0  0  0  0
 29137  1  0  0  0  0
 30 31  1  0  0  0  0
 30138  1  0  0  0  0
 30139  1  0  0  0  0
 31 32  1  0  0  0  0
 31140  1  0  0  0  0
 31141  1  0  0  0  0
 32 33  1  0  0  0  0
 32142  1  0  0  0  0
 32143  1  0  0  0  0
 33 34  1  0  0  0  0
 33144  1  0  0  0  0
 33145  1  0  0  0  0
 34 35  1  0  0  0  0
 34146  1  0  0  0  0
 34147  1  0  0  0  0
 35 36  1  0  0  0  0
 35148  1  0  0  0  0
 35149  1  0  0  0  0
 36 37  1  0  0  0  0
 36150  1  0  0  0  0
 36151  1  0  0  0  0
 37 38  1  0  0  0  0
 37152  1  0  0  0  0
 37153  1  0  0  0  0
 38 39  1  0  0  0  0
 38154  1  0  0  0  0
 38155  1  0  0  0  0
 39 40  1  0  0  0  0
 39156  1  0  0  0  0
 39157  1  0  0  0  0
 40 41  1  0  0  0  0
 40158  1  0  0  0  0
 40159  1  0  0  0  0
 41 42  1  0  0  0  0
 41160  1  0  0  0  0
 41161  1  0  0  0  0
 42 43  1  0  0  0  0
 42162  1  0  0  0  0
 42163  1  0  0  0  0
 43 44  1  0  0  0  0
 43164  1  0  0  0  0
 43165  1  0  0  0  0
 44 45  1  0  0  0  0
 44166  1  0  0  0  0
 44167  1  0  0  0  0
 45 46  1  0  0  0  0
 45168  1  0  0  0  0
 45169  1  0  0  0  0
 46 47  1  0  0  0  0
 46170  1  0  0  0  0
 46171  1  0  0  0  0
 47 48  1  0  0  0  0
 47172  1  0  0  0  0
 47173  1  0  0  0  0
 48 49  1  0  0  0  0
 48174  1  0  0  0  0
 48175  1  0  0  0  0
 49 50  1  0  0  0  0
 49176  1  0  0  0  0
 49177  1  0  0  0  0
 50 51  1  0  0  0  0
 50178  1  0  0  0  0
 50179  1  0  0  0  0
 51 52  1  0  0  0  0
 51180  1  0  0  0  0
 51181  1  0  0  0  0
 52 53  1  0  0  0  0
 52182  1  0  0  0  0
 52183  1  0  0  0  0
 53 54  1  0  0  0  0
 53184  1  0  0  0  0
 53185  1  0  0  0  0
 54 55  1  0  0  0  0
 55 56  1  0  0  0  0
 56 57  1  0  0  0  0
 57 58  1  0  0  0  0
 58 59  1  0  0  0  0
 59 60  1  0  0  0  0
 60 61  1  0  0  0  0
 61 62  1  0  0  0  0
 62 63  1  0  0  0  0
 63 64  1  0  0  0  0
 64 65  1  0  0  0  0
 65 66  1  0  0  0  0
 66 67  1  0  0  0  0
 67 68  1  0  0  0  0
 68 69  1  0  0  0  0
 69 70  1  0  0  0  0
 70 71  1  0  0  0  0
 71 72  1  0  0  0  0
 72 73  1  0  0  0  0
 73 74  1  0  0  0  0
 74 75  1  0  0  0  0
 75 76  1  0  0  0  0
 76 77  1  0  0  0  0
 77 78  1  0  0  0  0
 78 79  1  0  0  0  0
 79 80  1  0  0  0  0
 80186  1  0  0  0  0
M  END
$$$$
