
 OpenBabel04232216523D

 63 64  0  0  1  0  0  0  0  0999 V2000
   14.2176    2.3509    1.6275 C   0  0  0  0  0  0  0  0  0  0  0  0
   13.2107    1.2840    1.9994 C   0  0  0  0  0  0  0  0  0  0  0  0
   11.9393    1.3790    1.1721 C   0  0  0  0  0  0  0  0  0  0  0  0
   10.9623    0.2809    1.5623 C   0  0  0  0  0  0  0  0  0  0  0  0
   10.4843    0.3283    3.0161 C   0  0  3  0  0  0  0  0  0  0  0  0
    9.6952    1.5287    3.6511 C   0  0  3  0  0  0  0  0  0  0  0  0
    9.9656    2.9694    3.2910 C   0  0  0  0  0  0  0  0  0  0  0  0
    8.4419    0.7823    3.2505 C   0  0  3  0  0  0  0  0  0  0  0  0
    7.2909    0.7921    4.2537 C   0  0  0  0  0  0  0  0  0  0  0  0
    6.4140    0.7698    2.9888 C   0  0  0  0  0  0  0  0  0  0  0  0
    5.2359    0.6119    2.7411 O   0  0  0  0  0  0  0  0  0  0  0  0
    7.4852    1.0847    2.2292 N   0  0  0  0  0  0  0  0  0  0  0  0
    7.4817    1.5013    0.8316 C   0  0  0  0  0  0  0  0  0  0  0  0
    6.8516    0.4423   -0.0956 C   0  0  0  0  0  0  0  0  0  0  0  0
    6.7706    0.7725   -1.5939 C   0  0  0  0  0  0  0  0  0  0  0  0
    8.1506    1.0523   -2.1792 C   0  0  0  0  0  0  0  0  0  0  0  0
    8.1127    1.3044   -3.6810 C   0  0  0  0  0  0  0  0  0  0  0  0
    9.5136    1.6010   -4.2222 C   0  0  0  0  0  0  0  0  0  0  0  0
    9.4312    1.8488   -5.7225 C   0  0  0  0  0  0  0  0  0  0  0  0
   10.7895    2.1561   -6.3445 C   0  0  0  0  0  0  0  0  0  0  0  0
   10.6209    2.3909   -7.8433 C   0  0  0  0  0  0  0  0  0  0  0  0
   11.9457    2.7033   -8.5239 C   0  0  0  0  0  0  0  0  0  0  0  0
   11.7656    2.9376  -10.0034 C   0  0  0  0  0  0  0  0  0  0  0  0
   10.6922    2.8780  -10.5955 O   0  0  0  0  0  0  0  0  0  0  0  0
    9.2213   -0.4405    3.1360 C   0  0  0  0  0  3  0  0  0  0  0  0
   15.1130    2.2335    2.2448 H   0  0  0  0  0  0  0  0  0  0  0  0
   13.8116    3.3527    1.7995 H   0  0  0  0  0  0  0  0  0  0  0  0
   14.5083    2.2660    0.5766 H   0  0  0  0  0  0  0  0  0  0  0  0
   12.9751    1.3850    3.0636 H   0  0  0  0  0  0  0  0  0  0  0  0
   13.6563    0.2947    1.8518 H   0  0  0  0  0  0  0  0  0  0  0  0
   12.1663    1.2703    0.1048 H   0  0  0  0  0  0  0  0  0  0  0  0
   11.5074    2.3746    1.2593 H   0  0  0  0  0  0  0  0  0  0  0  0
   11.4515   -0.6863    1.3894 H   0  0  0  0  0  0  0  0  0  0  0  0
   10.1111    0.3143    0.8757 H   0  0  0  0  0  0  0  0  0  0  0  0
   11.2533   -0.0579    3.7034 H   0  0  0  0  0  0  0  0  0  0  0  0
    9.8096    1.4975    4.7566 H   0  0  0  0  0  0  0  0  0  0  0  0
   10.0318    3.1296    2.2183 H   0  0  0  0  0  0  0  0  0  0  0  0
   10.9019    3.3030    3.7566 H   0  0  0  0  0  0  0  0  0  0  0  0
    9.1651    3.6201    3.6505 H   0  0  0  0  0  0  0  0  0  0  0  0
    7.1538    1.7172    4.8254 H   0  0  0  0  0  0  0  0  0  0  0  0
    7.1894   -0.0761    4.9086 H   0  0  0  0  0  0  0  0  0  0  0  0
    8.4973    1.7647    0.5421 H   0  0  0  0  0  0  0  0  0  0  0  0
    6.8759    2.4125    0.7812 H   0  0  0  0  0  0  0  0  0  0  0  0
    5.8259    0.2357    0.2368 H   0  0  0  0  0  0  0  0  0  0  0  0
    7.4178   -0.4861    0.0207 H   0  0  0  0  0  0  0  0  0  0  0  0
    6.0894    1.6097   -1.7803 H   0  0  0  0  0  0  0  0  0  0  0  0
    6.3335   -0.0940   -2.1051 H   0  0  0  0  0  0  0  0  0  0  0  0
    8.8052    0.1981   -1.9718 H   0  0  0  0  0  0  0  0  0  0  0  0
    8.5798    1.9309   -1.6888 H   0  0  0  0  0  0  0  0  0  0  0  0
    7.4520    2.1528   -3.8975 H   0  0  0  0  0  0  0  0  0  0  0  0
    7.6975    0.4305   -4.1983 H   0  0  0  0  0  0  0  0  0  0  0  0
   10.1849    0.7581   -4.0157 H   0  0  0  0  0  0  0  0  0  0  0  0
    9.9341    2.4800   -3.7180 H   0  0  0  0  0  0  0  0  0  0  0  0
    8.7483    2.6870   -5.9119 H   0  0  0  0  0  0  0  0  0  0  0  0
    9.0000    0.9665   -6.2109 H   0  0  0  0  0  0  0  0  0  0  0  0
   11.4785    1.3210   -6.1715 H   0  0  0  0  0  0  0  0  0  0  0  0
   11.2252    3.0455   -5.8725 H   0  0  0  0  0  0  0  0  0  0  0  0
    9.9195    3.2190   -8.0095 H   0  0  0  0  0  0  0  0  0  0  0  0
   10.1713    1.5027   -8.3057 H   0  0  0  0  0  0  0  0  0  0  0  0
   12.6489    1.8734   -8.3953 H   0  0  0  0  0  0  0  0  0  0  0  0
   12.3946    3.6040   -8.0943 H   0  0  0  0  0  0  0  0  0  0  0  0
   12.6911    3.1758  -10.5548 H   0  0  0  0  0  0  0  0  0  0  0  0
    8.9659   -1.3831    2.6737 H   0  0  0  0  0  0  0  0  0  0  0  0
  1  2  1  0  0  0  0
  1 26  1  0  0  0  0
  1 27  1  0  0  0  0
  1 28  1  0  0  0  0
  2  3  1  0  0  0  0
  2 29  1  0  0  0  0
  2 30  1  0  0  0  0
  3  4  1  0  0  0  0
  3 31  1  0  0  0  0
  3 32  1  0  0  0  0
  4  5  1  0  0  0  0
  4 33  1  0  0  0  0
  4 34  1  0  0  0  0
  5  6  1  0  0  0  0
  5 25  1  0  0  0  0
  5 35  1  0  0  0  0
  6  7  1  0  0  0  0
  6  8  1  0  0  0  0
  6 36  1  0  0  0  0
  7 37  1  0  0  0  0
  7 38  1  0  0  0  0
  7 39  1  0  0  0  0
  8  9  1  0  0  0  0
  8 12  1  0  0  0  0
  8 25  1  0  0  0  0
  9 10  1  0  0  0  0
  9 40  1  0  0  0  0
  9 41  1  0  0  0  0
 10 11  2  0  0  0  0
 10 12  1  0  0  0  0
 12 13  1  0  0  0  0
 13 14  1  0  0  0  0
 13 42  1  0  0  0  0
 13 43  1  0  0  0  0
 14 15  1  0  0  0  0
 14 44  1  0  0  0  0
 14 45  1  0  0  0  0
 15 16  1  0  0  0  0
 15 46  1  0  0  0  0
 15 47  1  0  0  0  0
 16 17  1  0  0  0  0
 16 48  1  0  0  0  0
 16 49  1  0  0  0  0
 17 18  1  0  0  0  0
 17 50  1  0  0  0  0
 17 51  1  0  0  0  0
 18 19  1  0  0  0  0
 18 52  1  0  0  0  0
 18 53  1  0  0  0  0
 19 20  1  0  0  0  0
 19 54  1  0  0  0  0
 19 55  1  0  0  0  0
 20 21  1  0  0  0  0
 20 56  1  0  0  0  0
 20 57  1  0  0  0  0
 21 22  1  0  0  0  0
 21 58  1  0  0  0  0
 21 59  1  0  0  0  0
 22 23  1  0  0  0  0
 22 60  1  0  0  0  0
 22 61  1  0  0  0  0
 23 24  2  0  0  0  0
 23 62  1  0  0  0  0
 25 63  1  0  0  0  0
M  END
$$$$
