
 OpenBabel04232216503D

 16 16  0  0  1  0  0  0  0  0999 V2000
    1.0344   -0.0529    0.0885 C   0  0  0  0  0  0  0  0  0  0  0  0
    2.5548   -0.0534    0.0813 C   0  0  3  0  0  0  0  0  0  0  0  0
    3.0347    1.1620   -0.6107 N   0  0  0  0  0  0  0  0  0  0  0  0
    3.7288    0.6982   -1.5960 C   0  0  0  0  0  0  0  0  0  0  0  0
    4.3623    1.4712   -2.5090 N   0  0  0  0  0  0  0  0  0  0  0  0
    3.7300   -0.8059   -1.5917 C   0  0  0  0  0  0  0  0  0  0  0  0
    4.3733   -1.5799   -2.5014 N   0  0  0  0  0  0  0  0  0  0  0  0
    3.0344   -1.2698   -0.6104 N   0  0  0  0  0  0  0  0  0  0  0  0
    0.6476    0.8404    0.5894 H   0  0  0  0  0  0  0  0  0  0  0  0
    0.6474   -0.9365    0.6061 H   0  0  0  0  0  0  0  0  0  0  0  0
    0.6342   -0.0626   -0.9319 H   0  0  0  0  0  0  0  0  0  0  0  0
    2.9353   -0.0529    1.1092 H   0  0  0  0  0  0  0  0  0  0  0  0
    4.2892    2.4743   -2.3949 H   0  0  0  0  0  0  0  0  0  0  0  0
    4.9058    1.1037   -3.2724 H   0  0  0  0  0  0  0  0  0  0  0  0
    4.8832   -1.2110   -3.2865 H   0  0  0  0  0  0  0  0  0  0  0  0
    4.2694   -2.5825   -2.4084 H   0  0  0  0  0  0  0  0  0  0  0  0
  1  2  1  0  0  0  0
  1  9  1  0  0  0  0
  1 10  1  0  0  0  0
  1 11  1  0  0  0  0
  2  3  1  0  0  0  0
  2  8  1  0  0  0  0
  2 12  1  0  0  0  0
  3  4  2  0  0  0  0
  4  5  1  0  0  0  0
  4  6  1  0  0  0  0
  5 13  1  0  0  0  0
  5 14  1  0  0  0  0
  6  7  1  0  0  0  0
  6  8  2  0  0  0  0
  7 15  1  0  0  0  0
  7 16  1  0  0  0  0
M  END
$$$$
