
 OpenBabel04232216453D

 51 52  0  0  0  0  0  0  0  0999 V2000
   10.9293   -6.4463   -0.4257 C   0  0  0  0  0  0  0  0  0  0  0  0
   10.9324   -4.9612   -0.7602 C   0  0  0  0  0  0  0  0  0  0  0  0
   12.2794   -4.3039   -0.7167 C   0  0  0  0  0  0  0  0  0  0  0  0
   12.6173   -3.0262   -0.4986 C   0  0  0  0  0  0  0  0  0  0  0  0
   14.0682   -2.6846   -0.2639 C   0  0  0  0  0  0  0  0  0  0  0  0
   11.6383   -1.9671   -0.2563 C   0  0  0  0  0  0  0  0  0  0  0  0
   12.1263   -0.4998   -0.1747 C   0  0  0  0  0  0  0  0  0  0  0  0
   11.2476    0.6136   -0.8095 C   0  0  0  0  0  0  0  0  0  0  0  0
   11.9272    1.9817   -0.9895 C   0  0  0  0  0  0  0  0  0  0  0  0
   13.1235    1.9715   -1.9340 C   0  0  0  0  0  0  0  0  0  0  0  0
   13.6286    3.3804   -2.2543 C   0  0  0  0  0  0  0  0  0  0  0  0
   14.8568    3.3193   -3.1706 C   0  0  0  0  0  0  0  0  0  0  0  0
   15.3981    4.7005   -3.5015 C   0  0  0  0  0  0  0  0  0  0  0  0
   10.3194   -2.2200   -0.3799 C   0  0  0  0  0  0  0  0  0  0  0  0
    9.6010   -2.0232    0.9227 C   0  0  0  0  0  0  0  0  0  0  0  0
    9.6026   -2.8186    1.8461 O   0  0  0  0  0  0  0  0  0  0  0  0
    8.7865   -0.7994    0.9352 C   0  0  0  0  0  0  0  0  0  0  0  0
    9.1296    0.0542    2.1124 C   0  0  0  0  0  0  0  0  0  0  0  0
    8.0073   -0.5343   -0.1350 C   0  0  0  0  0  0  0  0  0  0  0  0
    7.8445   -1.3685   -1.3603 C   0  0  0  0  0  0  0  0  0  0  0  0
    8.3055   -2.6387   -1.5042 C   0  0  0  0  0  0  0  0  0  0  0  0
    9.6053   -3.1073   -1.1645 N   0  0  0  0  0  0  0  0  0  0  0  0
    9.7688   -4.4583   -1.0260 N   0  0  0  0  0  0  0  0  0  0  0  0
   11.9395   -6.8365   -0.2694 H   0  0  0  0  0  0  0  0  0  0  0  0
   10.4535   -7.0117   -1.2302 H   0  0  0  0  0  0  0  0  0  0  0  0
   10.3619   -6.6007    0.5009 H   0  0  0  0  0  0  0  0  0  0  0  0
   13.0996   -5.0369   -0.8054 H   0  0  0  0  0  0  0  0  0  0  0  0
   14.6912   -3.5769   -0.1801 H   0  0  0  0  0  0  0  0  0  0  0  0
   14.1874   -2.1342    0.6771 H   0  0  0  0  0  0  0  0  0  0  0  0
   14.4597   -2.0821   -1.0885 H   0  0  0  0  0  0  0  0  0  0  0  0
   13.0645   -0.4462   -0.7344 H   0  0  0  0  0  0  0  0  0  0  0  0
   12.3645   -0.2454    0.8631 H   0  0  0  0  0  0  0  0  0  0  0  0
   10.3840    0.8133   -0.1783 H   0  0  0  0  0  0  0  0  0  0  0  0
   10.8569    0.2839   -1.7800 H   0  0  0  0  0  0  0  0  0  0  0  0
   12.2218    2.3837   -0.0108 H   0  0  0  0  0  0  0  0  0  0  0  0
   11.1684    2.6811   -1.3871 H   0  0  0  0  0  0  0  0  0  0  0  0
   12.8500    1.4623   -2.8658 H   0  0  0  0  0  0  0  0  0  0  0  0
   13.9408    1.4022   -1.4771 H   0  0  0  0  0  0  0  0  0  0  0  0
   13.8873    3.9058   -1.3286 H   0  0  0  0  0  0  0  0  0  0  0  0
   12.8358    3.9600   -2.7454 H   0  0  0  0  0  0  0  0  0  0  0  0
   14.5987    2.8041   -4.1033 H   0  0  0  0  0  0  0  0  0  0  0  0
   15.6475    2.7339   -2.6865 H   0  0  0  0  0  0  0  0  0  0  0  0
   14.6513    5.2997   -4.0319 H   0  0  0  0  0  0  0  0  0  0  0  0
   16.2809    4.6147   -4.1432 H   0  0  0  0  0  0  0  0  0  0  0  0
   15.6910    5.2371   -2.5937 H   0  0  0  0  0  0  0  0  0  0  0  0
    8.4891    0.9246    2.2130 H   0  0  0  0  0  0  0  0  0  0  0  0
   10.1686    0.4031    2.0069 H   0  0  0  0  0  0  0  0  0  0  0  0
    9.1016   -0.5267    3.0412 H   0  0  0  0  0  0  0  0  0  0  0  0
    7.5222    0.4402   -0.1942 H   0  0  0  0  0  0  0  0  0  0  0  0
    8.1859   -0.7095   -2.1722 H   0  0  0  0  0  0  0  0  0  0  0  0
    7.6237   -3.4413   -1.2225 H   0  0  0  0  0  0  0  0  0  0  0  0
  1  2  1  0  0  0  0
  1 24  1  0  0  0  0
  1 25  1  0  0  0  0
  1 26  1  0  0  0  0
  2  3  1  0  0  0  0
  2 23  2  0  0  0  0
  3  4  2  0  0  0  0
  3 27  1  0  0  0  0
  4  5  1  0  0  0  0
  4  6  1  0  0  0  0
  5 28  1  0  0  0  0
  5 29  1  0  0  0  0
  5 30  1  0  0  0  0
  6  7  1  0  0  0  0
  6 14  2  0  0  0  0
  7  8  1  0  0  0  0
  7 31  1  0  0  0  0
  7 32  1  0  0  0  0
  8  9  1  0  0  0  0
  8 33  1  0  0  0  0
  8 34  1  0  0  0  0
  9 10  1  0  0  0  0
  9 35  1  0  0  0  0
  9 36  1  0  0  0  0
 10 11  1  0  0  0  0
 10 37  1  0  0  0  0
 10 38  1  0  0  0  0
 11 12  1  0  0  0  0
 11 39  1  0  0  0  0
 11 40  1  0  0  0  0
 12 13  1  0  0  0  0
 12 41  1  0  0  0  0
 12 42  1  0  0  0  0
 13 43  1  0  0  0  0
 13 44  1  0  0  0  0
 13 45  1  0  0  0  0
 14 15  1  0  0  0  0
 14 22  1  0  0  0  0
 15 16  2  0  0  0  0
 15 17  1  0  0  0  0
 17 18  1  0  0  0  0
 17 19  2  0  0  0  0
 18 46  1  0  0  0  0
 18 47  1  0  0  0  0
 18 48  1  0  0  0  0
 19 20  1  0  0  0  0
 19 49  1  0  0  0  0
 20 21  2  0  0  0  0
 20 50  1  0  0  0  0
 21 22  1  0  0  0  0
 21 51  1  0  0  0  0
 22 23  1  0  0  0  0
M  END
$$$$
