
 OpenBabel04232216443D

 65 66  0  0  0  0  0  0  0  0999 V2000
    5.9147    0.0673    3.4883 C   0  0  0  0  0  0  0  0  0  0  0  0
    6.1701   -1.4744    3.7017 C   0  0  0  0  0  0  0  0  0  0  0  0
    5.1111   -2.1112    3.0033 C   0  0  0  0  0  0  0  0  0  0  0  0
    3.5048   -1.8075    3.2821 C   0  0  0  0  0  0  0  0  0  0  0  0
    2.4833   -2.9151    2.8816 C   0  0  0  0  0  0  0  0  0  0  0  0
    4.9753   -1.9328    1.4223 C   0  0  0  0  0  0  0  0  0  0  0  0
    5.1926   -3.2558    0.7427 C   0  0  0  0  0  0  0  0  0  0  0  0
    6.6638   -3.3115    0.5514 C   0  0  0  0  0  0  0  0  0  0  0  0
    7.2759   -4.2427    1.5421 C   0  0  0  0  0  0  0  0  0  0  0  0
    8.7480   -4.0339    1.3112 C   0  0  0  0  0  0  0  0  0  0  0  0
    9.4908   -5.1143    1.9975 C   0  0  0  0  0  0  0  0  0  0  0  0
   10.2600   -4.4188    3.0454 C   0  0  0  0  0  0  0  0  0  0  0  0
   11.2096   -3.6872    2.9024 O   0  0  0  0  0  0  0  0  0  0  0  0
    9.6783   -4.8321    4.3779 C   0  0  0  0  0  0  0  0  0  0  0  0
    8.6804   -4.0801    4.9058 C   0  0  0  0  0  0  0  0  0  0  0  0
    8.5778   -2.5560    4.6242 C   0  0  0  0  0  0  0  0  0  0  0  0
   10.1220   -1.9498    5.2014 C   0  0  0  0  0  0  0  0  0  0  0  0
   11.4599   -2.8594    5.8162 C   0  0  0  0  0  0  0  0  0  0  0  0
   11.7267   -3.3564    7.3287 C   0  0  0  0  0  0  0  0  0  0  0  0
   12.5042   -4.7320    7.6616 C   0  0  0  0  0  0  0  0  0  0  0  0
   11.8342   -5.7219    8.6819 C   0  0  0  0  0  0  0  0  0  0  0  0
   11.1587   -6.9854    8.1270 C   0  0  0  0  0  0  0  0  0  0  0  0
   10.2420   -6.6314    6.9802 C   0  0  0  0  0  0  0  0  0  0  0  0
   10.9423   -6.8754    5.6680 C   0  0  0  0  0  0  0  0  0  0  0  0
   10.1455   -6.2699    4.5169 C   0  0  0  0  0  0  0  0  0  0  0  0
    7.6165   -1.7109    4.1658 N   0  0  0  0  0  0  0  0  0  0  0  0
    4.8460    0.3161    3.3709 H   0  0  0  0  0  0  0  0  0  0  0  0
    6.3799    0.4078    2.5522 H   0  0  0  0  0  0  0  0  0  0  0  0
    6.2628    0.6877    4.3124 H   0  0  0  0  0  0  0  0  0  0  0  0
    3.1877   -0.9405    2.6651 H   0  0  0  0  0  0  0  0  0  0  0  0
    3.3107   -1.4681    4.2999 H   0  0  0  0  0  0  0  0  0  0  0  0
    2.7674   -3.4942    1.9968 H   0  0  0  0  0  0  0  0  0  0  0  0
    1.5038   -2.4758    2.6258 H   0  0  0  0  0  0  0  0  0  0  0  0
    2.3117   -3.6128    3.7032 H   0  0  0  0  0  0  0  0  0  0  0  0
    5.6155   -1.1263    1.0437 H   0  0  0  0  0  0  0  0  0  0  0  0
    3.9864   -1.6032    1.0615 H   0  0  0  0  0  0  0  0  0  0  0  0
    4.6913   -3.3014   -0.2298 H   0  0  0  0  0  0  0  0  0  0  0  0
    4.7974   -4.0902    1.3382 H   0  0  0  0  0  0  0  0  0  0  0  0
    7.1313   -2.3270    0.6876 H   0  0  0  0  0  0  0  0  0  0  0  0
    6.9068   -3.6211   -0.4625 H   0  0  0  0  0  0  0  0  0  0  0  0
    6.9393   -5.2700    1.3771 H   0  0  0  0  0  0  0  0  0  0  0  0
    6.9948   -4.0015    2.5942 H   0  0  0  0  0  0  0  0  0  0  0  0
    9.0037   -3.0214    1.6815 H   0  0  0  0  0  0  0  0  0  0  0  0
    8.9804   -4.0488    0.2529 H   0  0  0  0  0  0  0  0  0  0  0  0
   10.1517   -5.6816    1.3413 H   0  0  0  0  0  0  0  0  0  0  0  0
    8.7850   -5.8381    2.4360 H   0  0  0  0  0  0  0  0  0  0  0  0
    8.1481   -4.3935    5.7907 H   0  0  0  0  0  0  0  0  0  0  0  0
    9.9346   -1.1280    5.9023 H   0  0  0  0  0  0  0  0  0  0  0  0
   10.5448   -1.4853    4.2938 H   0  0  0  0  0  0  0  0  0  0  0  0
   12.2913   -2.1471    5.6578 H   0  0  0  0  0  0  0  0  0  0  0  0
   11.7351   -3.6798    5.1556 H   0  0  0  0  0  0  0  0  0  0  0  0
   10.8392   -3.2621    7.9509 H   0  0  0  0  0  0  0  0  0  0  0  0
   12.4505   -2.6197    7.7193 H   0  0  0  0  0  0  0  0  0  0  0  0
   13.4339   -4.4475    8.1863 H   0  0  0  0  0  0  0  0  0  0  0  0
   12.8837   -5.2424    6.7758 H   0  0  0  0  0  0  0  0  0  0  0  0
   11.0994   -5.1793    9.2839 H   0  0  0  0  0  0  0  0  0  0  0  0
   12.5908   -6.0875    9.3947 H   0  0  0  0  0  0  0  0  0  0  0  0
   10.5620   -7.4578    8.9201 H   0  0  0  0  0  0  0  0  0  0  0  0
   11.9033   -7.7399    7.8348 H   0  0  0  0  0  0  0  0  0  0  0  0
    9.9292   -5.5911    7.0672 H   0  0  0  0  0  0  0  0  0  0  0  0
    9.3346   -7.2426    7.0075 H   0  0  0  0  0  0  0  0  0  0  0  0
   11.0181   -7.9659    5.5033 H   0  0  0  0  0  0  0  0  0  0  0  0
   11.9820   -6.5426    5.6411 H   0  0  0  0  0  0  0  0  0  0  0  0
    9.2938   -6.9484    4.3986 H   0  0  0  0  0  0  0  0  0  0  0  0
   10.8318   -6.5194    3.6774 H   0  0  0  0  0  0  0  0  0  0  0  0
  1  2  1  0  0  0  0
  1 27  1  0  0  0  0
  1 28  1  0  0  0  0
  1 29  1  0  0  0  0
  2  3  2  3  0  0  0
  2 26  1  0  0  0  0
  3  4  1  0  0  0  0
  3  6  1  0  0  0  0
  4  5  1  0  0  0  0
  4 30  1  0  0  0  0
  4 31  1  0  0  0  0
  5 32  1  0  0  0  0
  5 33  1  0  0  0  0
  5 34  1  0  0  0  0
  6  7  1  0  0  0  0
  6 35  1  0  0  0  0
  6 36  1  0  0  0  0
  7  8  1  0  0  0  0
  7 37  1  0  0  0  0
  7 38  1  0  0  0  0
  8  9  1  0  0  0  0
  8 39  1  0  0  0  0
  8 40  1  0  0  0  0
  9 10  1  0  0  0  0
  9 41  1  0  0  0  0
  9 42  1  0  0  0  0
 10 11  1  0  0  0  0
 10 43  1  0  0  0  0
 10 44  1  0  0  0  0
 11 12  1  0  0  0  0
 11 45  1  0  0  0  0
 11 46  1  0  0  0  0
 12 13  2  0  0  0  0
 12 14  1  0  0  0  0
 14 15  2  3  0  0  0
 14 25  1  0  0  0  0
 15 16  1  0  0  0  0
 15 47  1  0  0  0  0
 16 17  1  0  0  0  0
 16 26  2  3  0  0  0
 17 18  1  0  0  0  0
 17 48  1  0  0  0  0
 17 49  1  0  0  0  0
 18 19  1  0  0  0  0
 18 50  1  0  0  0  0
 18 51  1  0  0  0  0
 19 20  1  0  0  0  0
 19 52  1  0  0  0  0
 19 53  1  0  0  0  0
 20 21  1  0  0  0  0
 20 54  1  0  0  0  0
 20 55  1  0  0  0  0
 21 22  1  0  0  0  0
 21 56  1  0  0  0  0
 21 57  1  0  0  0  0
 22 23  1  0  0  0  0
 22 58  1  0  0  0  0
 22 59  1  0  0  0  0
 23 24  1  0  0  0  0
 23 60  1  0  0  0  0
 23 61  1  0  0  0  0
 24 25  1  0  0  0  0
 24 62  1  0  0  0  0
 24 63  1  0  0  0  0
 25 64  1  0  0  0  0
 25 65  1  0  0  0  0
M  END
$$$$
