
 OpenBabel04232216403D

 64 64  0  0  0  0  0  0  0  0999 V2000
    1.2865   -0.7654    0.8218 C   0  0  0  0  0  0  0  0  0  0  0  0
    2.1305    0.0050    0.1257 C   0  0  0  0  0  0  0  0  0  0  0  0
    2.9125   -0.4780   -1.0571 C   0  0  0  0  0  0  0  0  0  0  0  0
    4.4122   -0.3672   -0.7968 C   0  0  0  0  0  0  0  0  0  0  0  0
    5.1970   -0.8699   -2.0006 C   0  0  0  0  0  0  0  0  0  0  0  0
    6.6981   -0.7604   -1.7614 C   0  0  0  0  0  0  0  0  0  0  0  0
    7.4456   -1.2667   -2.9849 C   0  0  0  0  0  0  0  0  0  0  0  0
    8.9532   -1.1820   -2.7941 C   0  0  0  0  0  0  0  0  0  0  0  0
    9.6445   -1.7117   -4.0423 C   0  0  0  0  0  0  0  0  0  0  0  0
   11.1598   -1.6730   -3.9040 C   0  0  0  0  0  0  0  0  0  0  0  0
   11.7998   -2.2432   -5.1639 C   0  0  0  0  0  0  0  0  0  0  0  0
   13.3109   -2.0678   -5.2168 C   0  0  0  0  0  0  0  0  0  0  0  0
   14.1279   -2.8045   -4.1482 C   0  0  0  0  0  0  0  0  0  0  0  0
   15.6195   -2.6098   -4.4266 C   0  0  0  0  0  0  0  0  0  0  0  0
   15.9891   -2.0605   -5.4716 O   0  0  0  0  0  0  0  0  0  0  0  0
   16.5665   -3.1095   -3.4271 C   0  0  0  0  0  0  0  0  0  0  0  0
   17.9862   -3.2237   -3.4839 C   0  0  0  0  0  0  0  0  0  0  0  0
   19.0093   -2.8985   -4.5506 C   0  0  0  0  0  0  0  0  0  0  0  0
   20.0172   -4.0191   -4.7401 C   0  0  0  0  0  0  0  0  0  0  0  0
   20.6681   -4.5051   -3.8073 O   0  0  0  0  0  0  0  0  0  0  0  0
   20.3128   -4.4734   -6.1596 C   0  0  0  0  0  0  0  0  0  0  0  0
   21.2131   -3.4587   -6.8528 C   0  0  0  0  0  0  0  0  0  0  0  0
   21.7850   -3.9737   -8.1708 C   0  0  0  0  0  0  0  0  0  0  0  0
   22.6464   -2.9072   -8.8343 C   0  0  0  0  0  0  0  0  0  0  0  0
   17.9743   -3.6505   -2.2033 C   0  0  0  0  0  0  0  0  0  0  0  0
   16.5346   -3.5856   -2.1755 C   0  0  0  0  0  0  0  0  0  0  0  0
    0.7435   -0.3659    1.6738 H   0  0  0  0  0  0  0  0  0  0  0  0
    1.1193   -1.8061    0.5616 H   0  0  0  0  0  0  0  0  0  0  0  0
    2.2687    1.0438    0.4188 H   0  0  0  0  0  0  0  0  0  0  0  0
    2.6401    0.1247   -1.9313 H   0  0  0  0  0  0  0  0  0  0  0  0
    2.6567   -1.5183   -1.2953 H   0  0  0  0  0  0  0  0  0  0  0  0
    4.6859   -0.9523    0.0901 H   0  0  0  0  0  0  0  0  0  0  0  0
    4.6834    0.6762   -0.5914 H   0  0  0  0  0  0  0  0  0  0  0  0
    4.9231   -0.2897   -2.8906 H   0  0  0  0  0  0  0  0  0  0  0  0
    4.9333   -1.9154   -2.2046 H   0  0  0  0  0  0  0  0  0  0  0  0
    6.9816   -1.3484   -0.8802 H   0  0  0  0  0  0  0  0  0  0  0  0
    6.9718    0.2824   -1.5609 H   0  0  0  0  0  0  0  0  0  0  0  0
    7.1529   -0.6788   -3.8640 H   0  0  0  0  0  0  0  0  0  0  0  0
    7.1593   -2.3069   -3.1849 H   0  0  0  0  0  0  0  0  0  0  0  0
    9.2548   -1.7698   -1.9191 H   0  0  0  0  0  0  0  0  0  0  0  0
    9.2515   -0.1428   -2.6100 H   0  0  0  0  0  0  0  0  0  0  0  0
    9.3370   -1.1124   -4.9092 H   0  0  0  0  0  0  0  0  0  0  0  0
    9.3172   -2.7414   -4.2342 H   0  0  0  0  0  0  0  0  0  0  0  0
   11.4687   -2.2538   -3.0269 H   0  0  0  0  0  0  0  0  0  0  0  0
   11.4885   -0.6386   -3.7480 H   0  0  0  0  0  0  0  0  0  0  0  0
   11.3816   -1.7218   -6.0355 H   0  0  0  0  0  0  0  0  0  0  0  0
   11.5340   -3.3007   -5.2780 H   0  0  0  0  0  0  0  0  0  0  0  0
   13.5457   -0.9977   -5.1661 H   0  0  0  0  0  0  0  0  0  0  0  0
   13.6373   -2.4101   -6.2069 H   0  0  0  0  0  0  0  0  0  0  0  0
   13.9054   -3.8788   -4.1718 H   0  0  0  0  0  0  0  0  0  0  0  0
   13.8887   -2.4207   -3.1493 H   0  0  0  0  0  0  0  0  0  0  0  0
   19.6223   -2.0535   -4.2038 H   0  0  0  0  0  0  0  0  0  0  0  0
   18.5480   -2.6120   -5.4994 H   0  0  0  0  0  0  0  0  0  0  0  0
   19.3742   -4.6286   -6.6999 H   0  0  0  0  0  0  0  0  0  0  0  0
   20.8113   -5.4478   -6.0960 H   0  0  0  0  0  0  0  0  0  0  0  0
   22.0426   -3.1872   -6.1852 H   0  0  0  0  0  0  0  0  0  0  0  0
   20.6464   -2.5365   -7.0332 H   0  0  0  0  0  0  0  0  0  0  0  0
   20.9748   -4.2612   -8.8510 H   0  0  0  0  0  0  0  0  0  0  0  0
   22.3950   -4.8685   -7.9944 H   0  0  0  0  0  0  0  0  0  0  0  0
   22.0595   -2.0060   -9.0401 H   0  0  0  0  0  0  0  0  0  0  0  0
   23.0532   -3.2726   -9.7818 H   0  0  0  0  0  0  0  0  0  0  0  0
   23.4858   -2.6268   -8.1890 H   0  0  0  0  0  0  0  0  0  0  0  0
   18.7236   -3.9300   -1.4702 H   0  0  0  0  0  0  0  0  0  0  0  0
   15.7870   -3.7894   -1.4197 H   0  0  0  0  0  0  0  0  0  0  0  0
  1  2  2  0  0  0  0
  1 27  1  0  0  0  0
  1 28  1  0  0  0  0
  2  3  1  0  0  0  0
  2 29  1  0  0  0  0
  3  4  1  0  0  0  0
  3 30  1  0  0  0  0
  3 31  1  0  0  0  0
  4  5  1  0  0  0  0
  4 32  1  0  0  0  0
  4 33  1  0  0  0  0
  5  6  1  0  0  0  0
  5 34  1  0  0  0  0
  5 35  1  0  0  0  0
  6  7  1  0  0  0  0
  6 36  1  0  0  0  0
  6 37  1  0  0  0  0
  7  8  1  0  0  0  0
  7 38  1  0  0  0  0
  7 39  1  0  0  0  0
  8  9  1  0  0  0  0
  8 40  1  0  0  0  0
  8 41  1  0  0  0  0
  9 10  1  0  0  0  0
  9 42  1  0  0  0  0
  9 43  1  0  0  0  0
 10 11  1  0  0  0  0
 10 44  1  0  0  0  0
 10 45  1  0  0  0  0
 11 12  1  0  0  0  0
 11 46  1  0  0  0  0
 11 47  1  0  0  0  0
 12 13  1  0  0  0  0
 12 48  1  0  0  0  0
 12 49  1  0  0  0  0
 13 14  1  0  0  0  0
 13 50  1  0  0  0  0
 13 51  1  0  0  0  0
 14 15  2  0  0  0  0
 14 16  1  0  0  0  0
 16 17  1  0  0  0  0
 16 26  2  0  0  0  0
 17 18  1  0  0  0  0
 17 25  2  0  0  0  0
 18 19  1  0  0  0  0
 18 52  1  0  0  0  0
 18 53  1  0  0  0  0
 19 20  2  0  0  0  0
 19 21  1  0  0  0  0
 21 22  1  0  0  0  0
 21 54  1  0  0  0  0
 21 55  1  0  0  0  0
 22 23  1  0  0  0  0
 22 56  1  0  0  0  0
 22 57  1  0  0  0  0
 23 24  1  0  0  0  0
 23 58  1  0  0  0  0
 23 59  1  0  0  0  0
 24 60  1  0  0  0  0
 24 61  1  0  0  0  0
 24 62  1  0  0  0  0
 25 26  1  0  0  0  0
 25 63  1  0  0  0  0
 26 64  1  0  0  0  0
M  END
$$$$
