
 OpenBabel04232216533D

231230  0  0  0  0  0  0  0  0999 V2000
    1.6214   -6.2030   -4.2958 C   0  0  0  0  0  0  0  0  0  0  0  0
    3.1406   -6.2129   -4.3344 C   0  0  0  0  0  0  0  0  0  0  0  0
    3.6430   -7.1479   -5.4271 C   0  0  0  0  0  0  0  0  0  0  0  0
    5.1650   -7.1561   -5.4665 C   0  0  0  0  0  0  0  0  0  0  0  0
    5.6554   -8.0989   -6.5658 C   0  0  0  0  0  0  0  0  0  0  0  0
    7.1676   -8.1056   -6.6039 C   0  0  0  0  0  0  0  0  0  0  0  0
    7.6560   -9.0472   -7.7008 C   0  0  0  0  0  0  0  0  0  0  0  0
    9.1696   -9.0531   -7.7391 C   0  0  0  0  0  0  0  0  0  0  0  0
    9.6553   -9.9889   -8.8289 C   0  0  0  0  0  0  0  0  0  0  0  0
   11.1716   -9.9940   -8.8714 C   0  0  0  0  0  0  0  0  0  0  0  0
   11.6524  -10.9292   -9.9635 C   0  0  0  0  0  0  0  0  0  0  0  0
   13.1695  -10.9353  -10.0033 C   0  0  0  0  0  0  0  0  0  0  0  0
   13.6510  -11.8695  -11.0972 C   0  0  0  0  0  0  0  0  0  0  0  0
   15.1673  -11.8769  -11.1354 C   0  0  0  0  0  0  0  0  0  0  0  0
   15.6495  -12.8107  -12.2288 C   0  0  0  0  0  0  0  0  0  0  0  0
   17.1654  -12.8197  -12.2657 C   0  0  0  0  0  0  0  0  0  0  0  0
   17.6478  -13.7523  -13.3600 C   0  0  0  0  0  0  0  0  0  0  0  0
   19.1640  -13.7630  -13.3958 C   0  0  0  0  0  0  0  0  0  0  0  0
   19.6463  -14.6968  -14.4893 C   0  0  0  0  0  0  0  0  0  0  0  0
   21.1625  -14.7060  -14.5265 C   0  0  0  0  0  0  0  0  0  0  0  0
   21.6448  -15.6385  -15.6211 C   0  0  0  0  0  0  0  0  0  0  0  0
   23.1611  -15.6461  -15.6598 C   0  0  0  0  0  0  0  0  0  0  0  0
   23.6438  -16.5799  -16.7537 C   0  0  0  0  0  0  0  0  0  0  0  0
   25.1604  -16.5861  -16.7934 C   0  0  0  0  0  0  0  0  0  0  0  0
   25.6435  -17.5202  -17.8871 C   0  0  0  0  0  0  0  0  0  0  0  0
   27.1606  -17.5279  -17.9262 C   0  0  0  0  0  0  0  0  0  0  0  0
   27.6456  -18.4629  -19.0208 C   0  0  0  0  0  0  0  0  0  0  0  0
   29.1630  -18.4726  -19.0619 C   0  0  0  0  0  0  0  0  0  0  0  0
   29.6469  -19.4077  -20.1578 C   0  0  0  0  0  0  0  0  0  0  0  0
   31.1652  -19.4204  -20.2053 C   0  0  0  0  0  0  0  0  0  0  0  0
   31.6547  -20.3556  -21.3035 C   0  0  0  0  0  0  0  0  0  0  0  0
   33.1781  -20.3662  -21.3317 C   0  0  0  0  0  0  0  0  0  0  0  0
   33.7045  -21.3176  -22.3957 C   0  0  0  0  0  0  0  0  0  0  0  0
   35.5211  -21.2724  -22.5149 S   0  0  0  0  0  0  0  0  0  0  0  0
   36.0016  -21.7572  -20.8320 C   0  0  0  0  0  0  0  0  0  0  0  0
   37.8091  -21.8239  -20.6569 S   0  0  0  0  0  0  0  0  0  0  0  0
   38.3081  -20.0738  -20.9789 C   0  0  0  0  0  0  0  0  0  0  0  0
   40.1467  -20.0579  -20.8717 S   0  0  0  0  0  0  0  0  0  0  0  0
   40.5750  -18.3411  -21.2886 C   0  0  0  0  0  0  0  0  0  0  0  0
   42.3911  -18.0788  -21.1921 S   0  0  0  0  0  0  0  0  0  0  0  0
   43.0178  -19.2615  -22.4336 C   0  0  0  0  0  0  0  0  0  0  0  0
   44.8443  -19.2453  -22.5381 S   0  0  0  0  0  0  0  0  0  0  0  0
   45.3485  -19.8376  -20.8690 C   0  0  0  0  0  0  0  0  0  0  0  0
   47.1904  -19.8086  -20.7997 S   0  0  0  0  0  0  0  0  0  0  0  0
   47.5257  -20.4840  -19.1350 C   0  0  0  0  0  0  0  0  0  0  0  0
   46.9434  -22.2027  -18.9854 S   0  0  0  0  0  0  0  0  0  0  0  0
   47.4219  -22.6053  -17.2732 C   0  0  0  0  0  0  0  0  0  0  0  0
   46.7824  -21.6694  -16.2580 C   0  0  0  0  0  0  0  0  0  0  0  0
   47.1346  -22.0770  -14.8303 C   0  0  0  0  0  0  0  0  0  0  0  0
   46.5085  -21.0981  -13.8446 C   0  0  0  0  0  0  0  0  0  0  0  0
   46.8603  -21.4861  -12.4189 C   0  0  0  0  0  0  0  0  0  0  0  0
   46.2352  -20.5068  -11.4390 C   0  0  0  0  0  0  0  0  0  0  0  0
   46.5868  -20.9009  -10.0152 C   0  0  0  0  0  0  0  0  0  0  0  0
   45.9607  -19.9250   -9.0347 C   0  0  0  0  0  0  0  0  0  0  0  0
   46.3147  -20.3202   -7.6135 C   0  0  0  0  0  0  0  0  0  0  0  0
   45.6870  -19.3453   -6.6351 C   0  0  0  0  0  0  0  0  0  0  0  0
   46.0428  -19.7396   -5.2141 C   0  0  0  0  0  0  0  0  0  0  0  0
   45.4162  -18.7635   -4.2361 C   0  0  0  0  0  0  0  0  0  0  0  0
   45.7725  -19.1580   -2.8154 C   0  0  0  0  0  0  0  0  0  0  0  0
   45.1478  -18.1808   -1.8380 C   0  0  0  0  0  0  0  0  0  0  0  0
   45.5040  -18.5752   -0.4174 C   0  0  0  0  0  0  0  0  0  0  0  0
   44.8794  -17.5979    0.5599 C   0  0  0  0  0  0  0  0  0  0  0  0
   45.2354  -17.9923    1.9803 C   0  0  0  0  0  0  0  0  0  0  0  0
   44.6110  -17.0150    2.9577 C   0  0  0  0  0  0  0  0  0  0  0  0
   44.9675  -17.4098    4.3785 C   0  0  0  0  0  0  0  0  0  0  0  0
   44.3373  -16.4316    5.3466 C   0  0  0  0  0  0  0  0  0  0  0  0
   44.7058  -16.8201    6.7753 C   0  0  0  0  0  0  0  0  0  0  0  0
   44.0658  -15.8453    7.7487 C   0  0  0  0  0  0  0  0  0  0  0  0
   44.4287  -16.2422    9.1735 C   0  0  0  0  0  0  0  0  0  0  0  0
   43.8039  -15.2668   10.1487 C   0  0  0  0  0  0  0  0  0  0  0  0
   44.1587  -15.6607   11.5720 C   0  0  0  0  0  0  0  0  0  0  0  0
   43.5328  -14.6853   12.5466 C   0  0  0  0  0  0  0  0  0  0  0  0
   43.8896  -15.0809   13.9667 C   0  0  0  0  0  0  0  0  0  0  0  0
   43.2633  -14.1050   14.9491 C   0  0  0  0  0  0  0  0  0  0  0  0
   43.6184  -14.4983   16.3667 C   0  0  0  0  0  0  0  0  0  0  0  0
   42.9880  -13.5198   17.3466 C   0  0  0  0  0  0  0  0  0  0  0  0
   43.3429  -13.9128   18.7725 C   0  0  0  0  0  0  0  0  0  0  0  0
   42.7165  -12.9399   19.7561 C   0  0  0  0  0  0  0  0  0  0  0  0
   43.0698  -13.3289   21.1828 C   0  0  0  0  0  0  0  0  0  0  0  0
   42.4453  -12.3593   22.1873 C   0  0  0  0  0  0  0  0  0  0  0  0
   42.8031  -12.7517   23.6007 C   0  0  0  0  0  0  0  0  0  0  0  0
    1.2696   -5.5308   -3.5108 H   0  0  0  0  0  0  0  0  0  0  0  0
    1.2342   -7.2063   -4.0931 H   0  0  0  0  0  0  0  0  0  0  0  0
    1.2137   -5.8626   -5.2528 H   0  0  0  0  0  0  0  0  0  0  0  0
    3.5303   -6.5329   -3.3610 H   0  0  0  0  0  0  0  0  0  0  0  0
    3.5097   -5.1965   -4.5143 H   0  0  0  0  0  0  0  0  0  0  0  0
    3.2509   -6.8288   -6.3989 H   0  0  0  0  0  0  0  0  0  0  0  0
    3.2735   -8.1634   -5.2464 H   0  0  0  0  0  0  0  0  0  0  0  0
    5.5635   -7.4803   -4.4994 H   0  0  0  0  0  0  0  0  0  0  0  0
    5.5411   -6.1441   -5.6528 H   0  0  0  0  0  0  0  0  0  0  0  0
    5.2556   -7.7721   -7.5334 H   0  0  0  0  0  0  0  0  0  0  0  0
    5.2799   -9.1066   -6.3788 H   0  0  0  0  0  0  0  0  0  0  0  0
    7.5708   -8.4292   -5.6374 H   0  0  0  0  0  0  0  0  0  0  0  0
    7.5487   -7.0935   -6.7930 H   0  0  0  0  0  0  0  0  0  0  0  0
    7.2582   -8.7271   -8.6688 H   0  0  0  0  0  0  0  0  0  0  0  0
    7.2820  -10.0596   -7.5133 H   0  0  0  0  0  0  0  0  0  0  0  0
    9.5730   -9.3750   -6.7702 H   0  0  0  0  0  0  0  0  0  0  0  0
    9.5469   -8.0401   -7.9268 H   0  0  0  0  0  0  0  0  0  0  0  0
    9.2574   -9.6718   -9.8034 H   0  0  0  0  0  0  0  0  0  0  0  0
    9.2840  -11.0058   -8.6462 H   0  0  0  0  0  0  0  0  0  0  0  0
   11.5710  -10.3144   -7.9018 H   0  0  0  0  0  0  0  0  0  0  0  0
   11.5442   -8.9796   -9.0569 H   0  0  0  0  0  0  0  0  0  0  0  0
   11.2553  -10.6085  -10.9341 H   0  0  0  0  0  0  0  0  0  0  0  0
   11.2808  -11.9442   -9.7789 H   0  0  0  0  0  0  0  0  0  0  0  0
   13.5677  -11.2577   -9.0337 H   0  0  0  0  0  0  0  0  0  0  0  0
   13.5433   -9.9201  -10.1874 H   0  0  0  0  0  0  0  0  0  0  0  0
   13.2539  -11.5466  -12.0672 H   0  0  0  0  0  0  0  0  0  0  0  0
   13.2765  -12.8842  -10.9143 H   0  0  0  0  0  0  0  0  0  0  0  0
   15.5641  -12.2001  -10.1651 H   0  0  0  0  0  0  0  0  0  0  0  0
   15.5417  -10.8620  -11.3175 H   0  0  0  0  0  0  0  0  0  0  0  0
   15.2531  -12.4865  -13.1990 H   0  0  0  0  0  0  0  0  0  0  0  0
   15.2736  -13.8248  -12.0472 H   0  0  0  0  0  0  0  0  0  0  0  0
   17.5611  -13.1447  -11.2955 H   0  0  0  0  0  0  0  0  0  0  0  0
   17.5414  -11.8051  -12.4461 H   0  0  0  0  0  0  0  0  0  0  0  0
   17.2531  -13.4261  -14.3301 H   0  0  0  0  0  0  0  0  0  0  0  0
   17.2706  -14.7666  -13.1804 H   0  0  0  0  0  0  0  0  0  0  0  0
   19.5591  -14.0878  -12.4253 H   0  0  0  0  0  0  0  0  0  0  0  0
   19.5409  -12.7488  -13.5767 H   0  0  0  0  0  0  0  0  0  0  0  0
   19.2502  -14.3727  -15.4596 H   0  0  0  0  0  0  0  0  0  0  0  0
   19.2703  -15.7112  -14.3078 H   0  0  0  0  0  0  0  0  0  0  0  0
   21.5585  -15.0311  -13.5565 H   0  0  0  0  0  0  0  0  0  0  0  0
   21.5383  -13.6913  -14.7070 H   0  0  0  0  0  0  0  0  0  0  0  0
   21.2476  -15.3140  -16.5908 H   0  0  0  0  0  0  0  0  0  0  0  0
   21.2699  -16.6534  -15.4400 H   0  0  0  0  0  0  0  0  0  0  0  0
   23.5584  -15.9694  -14.6897 H   0  0  0  0  0  0  0  0  0  0  0  0
   23.5355  -14.6312  -15.8420 H   0  0  0  0  0  0  0  0  0  0  0  0
   23.2454  -16.2571  -17.7234 H   0  0  0  0  0  0  0  0  0  0  0  0
   23.2701  -17.5947  -16.5704 H   0  0  0  0  0  0  0  0  0  0  0  0
   25.5583  -16.9084  -15.8234 H   0  0  0  0  0  0  0  0  0  0  0  0
   25.5337  -15.5711  -16.9765 H   0  0  0  0  0  0  0  0  0  0  0  0
   25.2460  -17.1969  -18.8569 H   0  0  0  0  0  0  0  0  0  0  0  0
   25.2688  -18.5347  -17.7045 H   0  0  0  0  0  0  0  0  0  0  0  0
   27.5575  -17.8512  -16.9560 H   0  0  0  0  0  0  0  0  0  0  0  0
   27.5348  -16.5133  -18.1086 H   0  0  0  0  0  0  0  0  0  0  0  0
   27.2468  -18.1392  -19.9898 H   0  0  0  0  0  0  0  0  0  0  0  0
   27.2694  -19.4767  -18.8376 H   0  0  0  0  0  0  0  0  0  0  0  0
   29.5597  -18.7954  -18.0914 H   0  0  0  0  0  0  0  0  0  0  0  0
   29.5369  -17.4574  -19.2436 H   0  0  0  0  0  0  0  0  0  0  0  0
   29.2466  -19.0835  -21.1261 H   0  0  0  0  0  0  0  0  0  0  0  0
   29.2711  -20.4215  -19.9730 H   0  0  0  0  0  0  0  0  0  0  0  0
   31.5621  -19.7435  -19.2346 H   0  0  0  0  0  0  0  0  0  0  0  0
   31.5399  -18.4051  -20.3845 H   0  0  0  0  0  0  0  0  0  0  0  0
   31.2593  -20.0313  -22.2737 H   0  0  0  0  0  0  0  0  0  0  0  0
   31.2778  -21.3693  -21.1194 H   0  0  0  0  0  0  0  0  0  0  0  0
   33.5286  -20.6663  -20.3397 H   0  0  0  0  0  0  0  0  0  0  0  0
   33.5427  -19.3485  -21.5192 H   0  0  0  0  0  0  0  0  0  0  0  0
   33.3192  -21.0150  -23.3763 H   0  0  0  0  0  0  0  0  0  0  0  0
   33.3669  -22.3441  -22.2193 H   0  0  0  0  0  0  0  0  0  0  0  0
   35.6202  -22.7659  -20.6336 H   0  0  0  0  0  0  0  0  0  0  0  0
   35.6049  -21.0891  -20.0643 H   0  0  0  0  0  0  0  0  0  0  0  0
   37.8817  -19.4186  -20.2132 H   0  0  0  0  0  0  0  0  0  0  0  0
   37.9900  -19.7528  -21.9743 H   0  0  0  0  0  0  0  0  0  0  0  0
   40.1325  -17.6748  -20.5411 H   0  0  0  0  0  0  0  0  0  0  0  0
   40.2132  -18.0406  -22.2766 H   0  0  0  0  0  0  0  0  0  0  0  0
   42.6444  -18.9554  -23.4171 H   0  0  0  0  0  0  0  0  0  0  0  0
   42.6862  -20.2875  -22.2532 H   0  0  0  0  0  0  0  0  0  0  0  0
   44.9752  -20.8545  -20.7228 H   0  0  0  0  0  0  0  0  0  0  0  0
   44.9552  -19.1769  -20.0926 H   0  0  0  0  0  0  0  0  0  0  0  0
   47.0801  -19.8177  -18.3920 H   0  0  0  0  0  0  0  0  0  0  0  0
   48.6126  -20.4708  -18.9917 H   0  0  0  0  0  0  0  0  0  0  0  0
   48.5130  -22.6076  -17.1834 H   0  0  0  0  0  0  0  0  0  0  0  0
   47.0812  -23.6302  -17.0859 H   0  0  0  0  0  0  0  0  0  0  0  0
   45.6921  -21.6711  -16.3746 H   0  0  0  0  0  0  0  0  0  0  0  0
   47.1311  -20.6434  -16.4082 H   0  0  0  0  0  0  0  0  0  0  0  0
   48.2240  -22.0839  -14.7026 H   0  0  0  0  0  0  0  0  0  0  0  0
   46.7754  -23.0934  -14.6272 H   0  0  0  0  0  0  0  0  0  0  0  0
   45.4194  -21.0883  -13.9698 H   0  0  0  0  0  0  0  0  0  0  0  0
   46.8665  -20.0822  -14.0506 H   0  0  0  0  0  0  0  0  0  0  0  0
   47.9495  -21.4932  -12.2919 H   0  0  0  0  0  0  0  0  0  0  0  0
   46.5015  -22.5009  -12.2095 H   0  0  0  0  0  0  0  0  0  0  0  0
   45.1456  -20.4960  -11.5640 H   0  0  0  0  0  0  0  0  0  0  0  0
   46.5949  -19.4910  -11.6436 H   0  0  0  0  0  0  0  0  0  0  0  0
   47.6765  -20.9096   -9.8879 H   0  0  0  0  0  0  0  0  0  0  0  0
   46.2281  -21.9171   -9.8093 H   0  0  0  0  0  0  0  0  0  0  0  0
   44.8710  -19.9173   -9.1603 H   0  0  0  0  0  0  0  0  0  0  0  0
   46.3183  -18.9085   -9.2401 H   0  0  0  0  0  0  0  0  0  0  0  0
   47.4044  -20.3266   -7.4874 H   0  0  0  0  0  0  0  0  0  0  0  0
   45.9583  -21.3371   -7.4079 H   0  0  0  0  0  0  0  0  0  0  0  0
   44.5972  -19.3397   -6.7596 H   0  0  0  0  0  0  0  0  0  0  0  0
   46.0424  -18.3280   -6.8406 H   0  0  0  0  0  0  0  0  0  0  0  0
   47.1325  -19.7461   -5.0892 H   0  0  0  0  0  0  0  0  0  0  0  0
   45.6862  -20.7563   -5.0075 H   0  0  0  0  0  0  0  0  0  0  0  0
   44.3266  -18.7568   -4.3604 H   0  0  0  0  0  0  0  0  0  0  0  0
   45.7730  -17.7468   -4.4424 H   0  0  0  0  0  0  0  0  0  0  0  0
   46.8624  -19.1658   -2.6913 H   0  0  0  0  0  0  0  0  0  0  0  0
   45.4149  -20.1742   -2.6086 H   0  0  0  0  0  0  0  0  0  0  0  0
   44.0579  -18.1728   -1.9619 H   0  0  0  0  0  0  0  0  0  0  0  0
   45.5055  -17.1646   -2.0448 H   0  0  0  0  0  0  0  0  0  0  0  0
   46.5939  -18.5831   -0.2934 H   0  0  0  0  0  0  0  0  0  0  0  0
   45.1463  -19.5914   -0.2104 H   0  0  0  0  0  0  0  0  0  0  0  0
   43.7895  -17.5899    0.4359 H   0  0  0  0  0  0  0  0  0  0  0  0
   45.2372  -16.5817    0.3530 H   0  0  0  0  0  0  0  0  0  0  0  0
   46.3255  -18.0004    2.1044 H   0  0  0  0  0  0  0  0  0  0  0  0
   44.8778  -19.0085    2.1874 H   0  0  0  0  0  0  0  0  0  0  0  0
   43.5211  -17.0070    2.8337 H   0  0  0  0  0  0  0  0  0  0  0  0
   44.9685  -15.9987    2.7509 H   0  0  0  0  0  0  0  0  0  0  0  0
   46.0570  -17.4175    4.5022 H   0  0  0  0  0  0  0  0  0  0  0  0
   44.6090  -18.4258    4.5854 H   0  0  0  0  0  0  0  0  0  0  0  0
   43.2536  -16.4235    5.2311 H   0  0  0  0  0  0  0  0  0  0  0  0
   44.7014  -15.4139    5.1479 H   0  0  0  0  0  0  0  0  0  0  0  0
   45.7962  -16.8328    6.8968 H   0  0  0  0  0  0  0  0  0  0  0  0
   44.3452  -17.8522    6.9842 H   0  0  0  0  0  0  0  0  0  0  0  0
   42.9825  -15.8413    7.6281 H   0  0  0  0  0  0  0  0  0  0  0  0
   44.4305  -14.8318    7.5439 H   0  0  0  0  0  0  0  0  0  0  0  0
   45.5194  -16.2495    9.2970 H   0  0  0  0  0  0  0  0  0  0  0  0
   44.0723  -17.2596    9.3794 H   0  0  0  0  0  0  0  0  0  0  0  0
   42.7129  -15.2600   10.0251 H   0  0  0  0  0  0  0  0  0  0  0  0
   44.1609  -14.2498    9.9430 H   0  0  0  0  0  0  0  0  0  0  0  0
   45.2490  -15.6687   11.6940 H   0  0  0  0  0  0  0  0  0  0  0  0
   43.8020  -16.6779   11.7753 H   0  0  0  0  0  0  0  0  0  0  0  0
   42.4437  -14.6792   12.4223 H   0  0  0  0  0  0  0  0  0  0  0  0
   43.8894  -13.6694   12.3405 H   0  0  0  0  0  0  0  0  0  0  0  0
   44.9799  -15.0881   14.0905 H   0  0  0  0  0  0  0  0  0  0  0  0
   43.5337  -16.0985   14.1724 H   0  0  0  0  0  0  0  0  0  0  0  0
   42.1735  -14.0995   14.8196 H   0  0  0  0  0  0  0  0  0  0  0  0
   43.6202  -13.0888   14.7379 H   0  0  0  0  0  0  0  0  0  0  0  0
   44.7088  -14.5047   16.4922 H   0  0  0  0  0  0  0  0  0  0  0  0
   43.2640  -15.5165   16.5734 H   0  0  0  0  0  0  0  0  0  0  0  0
   41.9008  -13.5183   17.2202 H   0  0  0  0  0  0  0  0  0  0  0  0
   43.3461  -12.5065   17.1393 H   0  0  0  0  0  0  0  0  0  0  0  0
   44.4329  -13.9186   18.8963 H   0  0  0  0  0  0  0  0  0  0  0  0
   42.9885  -14.9311   18.9775 H   0  0  0  0  0  0  0  0  0  0  0  0
   41.6252  -12.9336   19.6306 H   0  0  0  0  0  0  0  0  0  0  0  0
   43.0701  -11.9206   19.5488 H   0  0  0  0  0  0  0  0  0  0  0  0
   44.1597  -13.3345   21.3039 H   0  0  0  0  0  0  0  0  0  0  0  0
   42.7172  -14.3477   21.3841 H   0  0  0  0  0  0  0  0  0  0  0  0
   41.3580  -12.3552   22.0638 H   0  0  0  0  0  0  0  0  0  0  0  0
   42.7992  -11.3425   21.9809 H   0  0  0  0  0  0  0  0  0  0  0  0
   42.4394  -13.7576   23.8318 H   0  0  0  0  0  0  0  0  0  0  0  0
   42.3549  -12.0550   24.3099 H   0  0  0  0  0  0  0  0  0  0  0  0
   43.8893  -12.7379   23.7487 H   0  0  0  0  0  0  0  0  0  0  0  0
  1  2  1  0  0  0  0
  1 82  1  0  0  0  0
  1 83  1  0  0  0  0
  1 84  1  0  0  0  0
  2  3  1  0  0  0  0
  2 85  1  0  0  0  0
  2 86  1  0  0  0  0
  3  4  1  0  0  0  0
  3 87  1  0  0  0  0
  3 88  1  0  0  0  0
  4  5  1  0  0  0  0
  4 89  1  0  0  0  0
  4 90  1  0  0  0  0
  5  6  1  0  0  0  0
  5 91  1  0  0  0  0
  5 92  1  0  0  0  0
  6  7  1  0  0  0  0
  6 93  1  0  0  0  0
  6 94  1  0  0  0  0
  7  8  1  0  0  0  0
  7 95  1  0  0  0  0
  7 96  1  0  0  0  0
  8  9  1  0  0  0  0
  8 97  1  0  0  0  0
  8 98  1  0  0  0  0
  9 10  1  0  0  0  0
  9 99  1  0  0  0  0
  9100  1  0  0  0  0
 10 11  1  0  0  0  0
 10101  1  0  0  0  0
 10102  1  0  0  0  0
 11 12  1  0  0  0  0
 11103  1  0  0  0  0
 11104  1  0  0  0  0
 12 13  1  0  0  0  0
 12105  1  0  0  0  0
 12106  1  0  0  0  0
 13 14  1  0  0  0  0
 13107  1  0  0  0  0
 13108  1  0  0  0  0
 14 15  1  0  0  0  0
 14109  1  0  0  0  0
 14110  1  0  0  0  0
 15 16  1  0  0  0  0
 15111  1  0  0  0  0
 15112  1  0  0  0  0
 16 17  1  0  0  0  0
 16113  1  0  0  0  0
 16114  1  0  0  0  0
 17 18  1  0  0  0  0
 17115  1  0  0  0  0
 17116  1  0  0  0  0
 18 19  1  0  0  0  0
 18117  1  0  0  0  0
 18118  1  0  0  0  0
 19 20  1  0  0  0  0
 19119  1  0  0  0  0
 19120  1  0  0  0  0
 20 21  1  0  0  0  0
 20121  1  0  0  0  0
 20122  1  0  0  0  0
 21 22  1  0  0  0  0
 21123  1  0  0  0  0
 21124  1  0  0  0  0
 22 23  1  0  0  0  0
 22125  1  0  0  0  0
 22126  1  0  0  0  0
 23 24  1  0  0  0  0
 23127  1  0  0  0  0
 23128  1  0  0  0  0
 24 25  1  0  0  0  0
 24129  1  0  0  0  0
 24130  1  0  0  0  0
 25 26  1  0  0  0  0
 25131  1  0  0  0  0
 25132  1  0  0  0  0
 26 27  1  0  0  0  0
 26133  1  0  0  0  0
 26134  1  0  0  0  0
 27 28  1  0  0  0  0
 27135  1  0  0  0  0
 27136  1  0  0  0  0
 28 29  1  0  0  0  0
 28137  1  0  0  0  0
 28138  1  0  0  0  0
 29 30  1  0  0  0  0
 29139  1  0  0  0  0
 29140  1  0  0  0  0
 30 31  1  0  0  0  0
 30141  1  0  0  0  0
 30142  1  0  0  0  0
 31 32  1  0  0  0  0
 31143  1  0  0  0  0
 31144  1  0  0  0  0
 32 33  1  0  0  0  0
 32145  1  0  0  0  0
 32146  1  0  0  0  0
 33 34  1  0  0  0  0
 33147  1  0  0  0  0
 33148  1  0  0  0  0
 34 35  1  0  0  0  0
 35 36  1  0  0  0  0
 35149  1  0  0  0  0
 35150  1  0  0  0  0
 36 37  1  0  0  0  0
 37 38  1  0  0  0  0
 37151  1  0  0  0  0
 37152  1  0  0  0  0
 38 39  1  0  0  0  0
 39 40  1  0  0  0  0
 39153  1  0  0  0  0
 39154  1  0  0  0  0
 40 41  1  0  0  0  0
 41 42  1  0  0  0  0
 41155  1  0  0  0  0
 41156  1  0  0  0  0
 42 43  1  0  0  0  0
 43 44  1  0  0  0  0
 43157  1  0  0  0  0
 43158  1  0  0  0  0
 44 45  1  0  0  0  0
 45 46  1  0  0  0  0
 45159  1  0  0  0  0
 45160  1  0  0  0  0
 46 47  1  0  0  0  0
 47 48  1  0  0  0  0
 47161  1  0  0  0  0
 47162  1  0  0  0  0
 48 49  1  0  0  0  0
 48163  1  0  0  0  0
 48164  1  0  0  0  0
 49 50  1  0  0  0  0
 49165  1  0  0  0  0
 49166  1  0  0  0  0
 50 51  1  0  0  0  0
 50167  1  0  0  0  0
 50168  1  0  0  0  0
 51 52  1  0  0  0  0
 51169  1  0  0  0  0
 51170  1  0  0  0  0
 52 53  1  0  0  0  0
 52171  1  0  0  0  0
 52172  1  0  0  0  0
 53 54  1  0  0  0  0
 53173  1  0  0  0  0
 53174  1  0  0  0  0
 54 55  1  0  0  0  0
 54175  1  0  0  0  0
 54176  1  0  0  0  0
 55 56  1  0  0  0  0
 55177  1  0  0  0  0
 55178  1  0  0  0  0
 56 57  1  0  0  0  0
 56179  1  0  0  0  0
 56180  1  0  0  0  0
 57 58  1  0  0  0  0
 57181  1  0  0  0  0
 57182  1  0  0  0  0
 58 59  1  0  0  0  0
 58183  1  0  0  0  0
 58184  1  0  0  0  0
 59 60  1  0  0  0  0
 59185  1  0  0  0  0
 59186  1  0  0  0  0
 60 61  1  0  0  0  0
 60187  1  0  0  0  0
 60188  1  0  0  0  0
 61 62  1  0  0  0  0
 61189  1  0  0  0  0
 61190  1  0  0  0  0
 62 63  1  0  0  0  0
 62191  1  0  0  0  0
 62192  1  0  0  0  0
 63 64  1  0  0  0  0
 63193  1  0  0  0  0
 63194  1  0  0  0  0
 64 65  1  0  0  0  0
 64195  1  0  0  0  0
 64196  1  0  0  0  0
 65 66  1  0  0  0  0
 65197  1  0  0  0  0
 65198  1  0  0  0  0
 66 67  1  0  0  0  0
 66199  1  0  0  0  0
 66200  1  0  0  0  0
 67 68  1  0  0  0  0
 67201  1  0  0  0  0
 67202  1  0  0  0  0
 68 69  1  0  0  0  0
 68203  1  0  0  0  0
 68204  1  0  0  0  0
 69 70  1  0  0  0  0
 69205  1  0  0  0  0
 69206  1  0  0  0  0
 70 71  1  0  0  0  0
 70207  1  0  0  0  0
 70208  1  0  0  0  0
 71 72  1  0  0  0  0
 71209  1  0  0  0  0
 71210  1  0  0  0  0
 72 73  1  0  0  0  0
 72211  1  0  0  0  0
 72212  1  0  0  0  0
 73 74  1  0  0  0  0
 73213  1  0  0  0  0
 73214  1  0  0  0  0
 74 75  1  0  0  0  0
 74215  1  0  0  0  0
 74216  1  0  0  0  0
 75 76  1  0  0  0  0
 75217  1  0  0  0  0
 75218  1  0  0  0  0
 76 77  1  0  0  0  0
 76219  1  0  0  0  0
 76220  1  0  0  0  0
 77 78  1  0  0  0  0
 77221  1  0  0  0  0
 77222  1  0  0  0  0
 78 79  1  0  0  0  0
 78223  1  0  0  0  0
 78224  1  0  0  0  0
 79 80  1  0  0  0  0
 79225  1  0  0  0  0
 79226  1  0  0  0  0
 80 81  1  0  0  0  0
 80227  1  0  0  0  0
 80228  1  0  0  0  0
 81229  1  0  0  0  0
 81230  1  0  0  0  0
 81231  1  0  0  0  0
M  END
$$$$
