
 OpenBabel04232216563D

 90 90  0  0  1  0  0  0  0  0999 V2000
    4.5673    1.0660    1.3208 C   0  0  0  0  0  0  0  0  0  0  0  0
    4.2296   -0.1903    1.9794 N   0  0  0  0  0  0  0  0  0  0  0  0
    3.1849    0.0056    3.0181 C   0  0  0  0  0  0  0  0  0  0  0  0
    2.5441   -1.3090    2.5163 C   0  0  0  0  0  0  0  0  0  0  0  0
    3.2137   -0.9446    1.1738 C   0  0  3  0  0  0  0  0  0  0  0  0
    3.8561   -2.0726    0.3729 C   0  0  0  0  0  0  0  0  0  0  0  0
    2.8250   -2.9028   -0.1424 O   0  0  0  0  0  0  0  0  0  0  0  0
    3.3163   -4.2576   -0.0030 O   0  0  0  0  0  0  0  0  0  0  0  0
    2.2871   -5.2068   -0.3670 O   0  0  0  0  0  0  0  0  0  0  0  0
    2.4552   -5.6227   -1.7450 O   0  0  0  0  0  0  0  0  0  0  0  0
    1.5774   -6.7333   -2.0499 O   0  0  0  0  0  0  0  0  0  0  0  0
    2.2606   -7.9877   -1.7858 O   0  0  0  0  0  0  0  0  0  0  0  0
    1.3909   -9.1060   -2.0846 O   0  0  0  0  0  0  0  0  0  0  0  0
    1.7769   -9.7174   -3.3391 O   0  0  0  0  0  0  0  0  0  0  0  0
    0.6530  -10.3996   -3.9359 O   0  0  0  0  0  0  0  0  0  0  0  0
    0.7579  -11.8278   -3.7259 O   0  0  0  0  0  0  0  0  0  0  0  0
   -0.3228  -12.4986   -4.4105 O   0  0  0  0  0  0  0  0  0  0  0  0
    0.1739  -13.6065   -5.1906 O   0  0  0  0  0  0  0  0  0  0  0  0
   -0.3128  -14.8491   -4.6326 O   0  0  0  0  0  0  0  0  0  0  0  0
    0.1013  -15.9640   -5.4484 O   0  0  0  0  0  0  0  0  0  0  0  0
   -0.8656  -16.1999   -6.4985 O   0  0  0  0  0  0  0  0  0  0  0  0
   -0.4215  -17.2786   -7.3457 O   0  0  0  0  0  0  0  0  0  0  0  0
   -0.9056  -18.5455   -6.8446 O   0  0  0  0  0  0  0  0  0  0  0  0
   -0.6074  -19.5893   -7.7987 O   0  0  0  0  0  0  0  0  0  0  0  0
   -1.8246  -20.1442   -8.3410 O   0  0  0  0  0  0  0  0  0  0  0  0
   -1.8951  -21.5560   -8.0345 O   0  0  0  0  0  0  0  0  0  0  0  0
   -3.0870  -22.1217   -8.6155 O   0  0  0  0  0  0  0  0  0  0  0  0
   -2.7591  -22.9889   -9.7245 O   0  0  0  0  0  0  0  0  0  0  0  0
   -3.2963  -24.3103   -9.4792 O   0  0  0  0  0  0  0  0  0  0  0  0
   -2.4273  -25.3162  -10.0296 O   0  0  0  0  0  0  0  0  0  0  0  0
   -3.0415  -25.9310  -11.1849 O   0  0  0  0  0  0  0  0  0  0  0  0
   -2.5003  -27.2559  -11.3751 O   0  0  0  0  0  0  0  0  0  0  0  0
   -3.5126  -28.2562  -11.1591 O   0  0  0  0  0  0  0  0  0  0  0  0
   -4.0151  -28.7198  -12.4295 O   0  0  0  0  0  0  0  0  0  0  0  0
   -5.1828  -29.5320  -12.2148 O   0  0  0  0  0  0  0  0  0  0  0  0
   -4.8715  -30.9164  -12.4290 O   0  0  0  0  0  0  0  0  0  0  0  0
   -5.3399  -31.2785  -13.7568 O   0  0  0  0  0  0  0  0  0  0  0  0
   -4.5574  -32.3956  -14.1841 O   0  0  0  0  0  0  0  0  0  0  0  0
   -5.1435  -33.6241  -13.7219 O   0  0  0  0  0  0  0  0  0  0  0  0
   -4.6887  -34.6828  -14.5696 O   0  0  0  0  0  0  0  0  0  0  0  0
   -5.7630  -35.2390  -15.3305 O   0  0  0  0  0  0  0  0  0  0  0  0
   -5.5997  -36.6597  -15.3207 O   0  0  0  0  0  0  0  0  0  0  0  0
   -6.8037  -37.2948  -15.7260 O   0  0  0  0  0  0  0  0  0  0  0  0
   -6.5667  -38.0493  -16.9194 O   0  0  0  0  0  0  0  0  0  0  0  0
   -7.4140  -39.1926  -16.8860 O   0  0  0  0  0  0  0  0  0  0  0  0
   -6.6591  -40.3905  -17.0579 O   0  0  0  0  0  0  0  0  0  0  0  0
   -7.5637  -41.4306  -17.4372 O   0  0  0  0  0  0  0  0  0  0  0  0
   -7.1311  -42.0301  -18.6620 O   0  0  0  0  0  0  0  0  0  0  0  0
   -8.1579  -42.8933  -19.1488 O   0  0  0  0  0  0  0  0  0  0  0  0
   -7.8094  -44.2616  -18.8974 O   0  0  0  0  0  0  0  0  0  0  0  0
   -8.9449  -45.0735  -19.2110 O   0  0  0  0  0  0  0  0  0  0  0  0
   -8.7382  -45.8175  -20.4228 O   0  0  0  0  0  0  0  0  0  0  0  0
   -9.3897  -47.1021  -20.2291 O   0  0  0  0  0  0  0  0  0  0  0  0
   -8.6069  -48.1123  -20.8543 O   0  0  0  0  0  0  0  0  0  0  0  0
   -9.3972  -48.7089  -21.8903 O   0  0  0  0  0  0  0  0  0  0  0  0
   -9.0145  -50.0800  -22.0198 O   0  0  0  0  0  0  0  0  0  0  0  0
  -10.1591  -50.9198  -21.8696 O   0  0  0  0  0  0  0  0  0  0  0  0
  -10.3920  -51.6533  -23.0875 O   0  0  0  0  0  0  0  0  0  0  0  0
  -11.1471  -52.8273  -22.7751 O   0  0  0  0  0  0  0  0  0  0  0  0
  -10.5815  -53.9696  -23.4415 O   0  0  0  0  0  0  0  0  0  0  0  0
  -11.3832  -54.2824  -24.6029 O   0  0  0  0  0  0  0  0  0  0  0  0
  -11.0553  -55.5962  -25.0965 O   0  0  0  0  0  0  0  0  0  0  0  0
  -11.7836  -56.6044  -24.3573 O   0  0  0  0  0  0  0  0  0  0  0  0
  -11.4770  -57.9144  -24.8706 O   0  0  0  0  0  0  0  0  0  0  0  0
  -12.2987  -58.2016  -26.0234 O   0  0  0  0  0  0  0  0  0  0  0  0
  -11.7243  -59.2963  -26.7598 O   0  0  0  0  0  0  0  0  0  0  0  0
  -12.5369  -60.4864  -26.6283 O   0  0  0  0  0  0  0  0  0  0  0  0
  -12.5671  -61.1752  -27.8970 O   0  0  0  0  0  0  0  0  0  0  0  0
  -13.6424  -62.1344  -27.9380 O   0  0  0  0  0  0  0  0  0  0  0  0
  -13.1175  -63.4739  -27.7955 O   0  0  0  0  0  0  0  0  0  0  0  0
  -14.1339  -64.4443  -28.1262 O   0  0  0  0  0  0  0  0  0  0  0  0
  -13.5572  -65.5516  -28.8525 O   0  0  0  0  0  0  0  0  0  0  0  0
  -14.5969  -66.4594  -29.2818 O   0  0  0  0  0  0  0  0  0  0  0  0
  -14.1995  -67.1410  -30.4944 O   0  0  0  0  0  0  0  0  0  0  0  0
  -15.2085  -68.1021  -30.8825 O   0  0  0  0  0  0  0  0  0  0  0  0
  -14.7897  -69.4506  -30.5552 O   0  0  0  0  0  0  0  0  0  0  0  0
  -15.7152  -70.4071  -31.1310 O   0  0  0  0  0  0  0  0  0  0  0  0
  -15.0300  -71.3324  -32.0119 O   0  0  0  0  0  0  0  0  0  0  0  0
  -14.7632  -70.7227  -33.2994 O   0  0  0  0  0  0  0  0  0  0  0  0
    5.2255    1.6572    1.9640 H   0  0  0  0  0  0  0  0  0  0  0  0
    3.6945    1.6766    1.0646 H   0  0  0  0  0  0  0  0  0  0  0  0
    5.1154    0.8601    0.3937 H   0  0  0  0  0  0  0  0  0  0  0  0
    2.5339    0.8803    2.8878 H   0  0  0  0  0  0  0  0  0  0  0  0
    3.5494   -0.0134    4.0488 H   0  0  0  0  0  0  0  0  0  0  0  0
    1.4560   -1.3458    2.5181 H   0  0  0  0  0  0  0  0  0  0  0  0
    2.9403   -2.2072    3.0129 H   0  0  0  0  0  0  0  0  0  0  0  0
    2.5726   -0.3171    0.5387 H   0  0  0  0  0  0  0  0  0  0  0  0
    4.5514   -2.6486    0.9956 H   0  0  0  0  0  0  0  0  0  0  0  0
    4.4246   -1.6655   -0.4783 H   0  0  0  0  0  0  0  0  0  0  0  0
  -13.9293  -71.1976  -33.4563 H   0  0  0  0  0  0  0  0  0  0  0  0
  1  2  1  0  0  0  0
  1 80  1  0  0  0  0
  1 81  1  0  0  0  0
  1 82  1  0  0  0  0
  2  3  1  0  0  0  0
  2  5  1  0  0  0  0
  3  4  1  0  0  0  0
  3 83  1  0  0  0  0
  3 84  1  0  0  0  0
  4  5  1  0  0  0  0
  4 85  1  0  0  0  0
  4 86  1  0  0  0  0
  5  6  1  0  0  0  0
  5 87  1  0  0  0  0
  6  7  1  0  0  0  0
  6 88  1  0  0  0  0
  6 89  1  0  0  0  0
  7  8  1  0  0  0  0
  8  9  1  0  0  0  0
  9 10  1  0  0  0  0
 10 11  1  0  0  0  0
 11 12  1  0  0  0  0
 12 13  1  0  0  0  0
 13 14  1  0  0  0  0
 14 15  1  0  0  0  0
 15 16  1  0  0  0  0
 16 17  1  0  0  0  0
 17 18  1  0  0  0  0
 18 19  1  0  0  0  0
 19 20  1  0  0  0  0
 20 21  1  0  0  0  0
 21 22  1  0  0  0  0
 22 23  1  0  0  0  0
 23 24  1  0  0  0  0
 24 25  1  0  0  0  0
 25 26  1  0  0  0  0
 26 27  1  0  0  0  0
 27 28  1  0  0  0  0
 28 29  1  0  0  0  0
 29 30  1  0  0  0  0
 30 31  1  0  0  0  0
 31 32  1  0  0  0  0
 32 33  1  0  0  0  0
 33 34  1  0  0  0  0
 34 35  1  0  0  0  0
 35 36  1  0  0  0  0
 36 37  1  0  0  0  0
 37 38  1  0  0  0  0
 38 39  1  0  0  0  0
 39 40  1  0  0  0  0
 40 41  1  0  0  0  0
 41 42  1  0  0  0  0
 42 43  1  0  0  0  0
 43 44  1  0  0  0  0
 44 45  1  0  0  0  0
 45 46  1  0  0  0  0
 46 47  1  0  0  0  0
 47 48  1  0  0  0  0
 48 49  1  0  0  0  0
 49 50  1  0  0  0  0
 50 51  1  0  0  0  0
 51 52  1  0  0  0  0
 52 53  1  0  0  0  0
 53 54  1  0  0  0  0
 54 55  1  0  0  0  0
 55 56  1  0  0  0  0
 56 57  1  0  0  0  0
 57 58  1  0  0  0  0
 58 59  1  0  0  0  0
 59 60  1  0  0  0  0
 60 61  1  0  0  0  0
 61 62  1  0  0  0  0
 62 63  1  0  0  0  0
 63 64  1  0  0  0  0
 64 65  1  0  0  0  0
 65 66  1  0  0  0  0
 66 67  1  0  0  0  0
 67 68  1  0  0  0  0
 68 69  1  0  0  0  0
 69 70  1  0  0  0  0
 70 71  1  0  0  0  0
 71 72  1  0  0  0  0
 72 73  1  0  0  0  0
 73 74  1  0  0  0  0
 74 75  1  0  0  0  0
 75 76  1  0  0  0  0
 76 77  1  0  0  0  0
 77 78  1  0  0  0  0
 78 79  1  0  0  0  0
 79 90  1  0  0  0  0
M  END
$$$$
