
 OpenBabel04232216473D

183183  0  0  1  0  0  0  0  0999 V2000
   -7.7944  -21.4574  -10.7008 C   0  0  0  0  0  0  0  0  0  0  0  0
   -6.8275  -21.9498  -11.7435 C   0  0  3  0  0  0  0  0  0  0  0  0
   -6.4293  -23.2442  -11.8264 C   0  0  0  0  0  0  0  0  0  0  0  0
   -5.4603  -22.5628  -11.2625 C   0  0  0  0  0  0  0  0  0  0  0  0
   -4.6913  -21.3350  -10.7240 C   0  0  0  0  0  0  0  0  0  0  0  0
   -3.1618  -21.3304  -10.8290 C   0  0  0  0  0  0  0  0  0  0  0  0
   -2.4839  -20.0481  -10.2686 C   0  0  0  0  0  0  0  0  0  0  0  0
   -2.9352  -18.7827  -11.0028 C   0  0  0  0  0  0  0  0  0  0  0  0
   -2.2678  -17.5165  -10.4741 C   0  0  0  0  0  0  0  0  0  0  0  0
   -2.7577  -16.2816  -11.2283 C   0  0  0  0  0  0  0  0  0  0  0  0
   -2.0876  -15.0351  -10.6837 C   0  0  0  0  0  0  0  0  0  0  0  0
   -2.5810  -13.9016  -11.3952 O   0  0  0  0  0  0  0  0  0  0  0  0
   -1.9336  -12.7211  -10.9238 C   0  0  0  0  0  0  0  0  0  0  0  0
   -0.5178  -12.7815  -11.0676 O   0  0  0  0  0  0  0  0  0  0  0  0
   -0.1753  -12.9388  -12.4376 C   0  0  0  0  0  0  0  0  0  0  0  0
    1.2322  -13.0282  -12.5763 O   0  0  0  0  0  0  0  0  0  0  0  0
    1.5600  -13.1717  -13.9459 C   0  0  0  0  0  0  0  0  0  0  0  0
    1.1072  -12.0536  -14.7018 O   0  0  0  0  0  0  0  0  0  0  0  0
    1.4265  -12.2224  -16.0560 C   0  0  0  0  0  0  0  0  0  0  0  0
    0.9434  -11.1166  -16.8201 O   0  0  0  0  0  0  0  0  0  0  0  0
    1.2896  -11.2955  -18.1736 C   0  0  0  0  0  0  0  0  0  0  0  0
    0.6956  -12.4701  -18.7154 O   0  0  0  0  0  0  0  0  0  0  0  0
    1.0644  -12.6370  -20.0585 C   0  0  0  0  0  0  0  0  0  0  0  0
    0.4302  -13.9146  -20.5596 C   0  0  0  0  0  0  0  0  0  0  0  0
    0.7879  -14.1119  -22.0189 C   0  0  0  0  0  0  0  0  0  0  0  0
    0.1629  -15.3877  -22.5476 C   0  0  0  0  0  0  0  0  0  0  0  0
    0.5270  -15.5720  -24.0094 C   0  0  0  0  0  0  0  0  0  0  0  0
   -0.0981  -16.8485  -24.5388 C   0  0  0  0  0  0  0  0  0  0  0  0
    0.2665  -17.0350  -25.9990 C   0  0  0  0  0  0  0  0  0  0  0  0
   -0.3581  -18.3132  -26.5258 C   0  0  0  0  0  0  0  0  0  0  0  0
    0.0062  -18.5004  -27.9860 C   0  0  0  0  0  0  0  0  0  0  0  0
   -0.6189  -19.7768  -28.5152 C   0  0  0  0  0  0  0  0  0  0  0  0
   -0.2519  -19.9635  -29.9753 C   0  0  0  0  0  0  0  0  0  0  0  0
   -0.8774  -21.2402  -30.5040 C   0  0  0  0  0  0  0  0  0  0  0  0
   -0.5119  -21.4294  -31.9642 C   0  0  0  0  0  0  0  0  0  0  0  0
   -1.1390  -22.7082  -32.4911 C   0  0  0  0  0  0  0  0  0  0  0  0
   -0.7767  -22.8974  -33.9508 C   0  0  0  0  0  0  0  0  0  0  0  0
   -1.3960  -24.1742  -34.4870 C   0  0  0  0  0  0  0  0  0  0  0  0
   -1.0159  -24.3391  -35.9410 C   0  0  0  0  0  0  0  0  0  0  0  0
   -1.5909  -25.5389  -36.4152 O   0  0  0  0  0  0  0  0  0  0  0  0
   -1.2747  -25.7141  -37.7881 C   0  0  0  0  0  0  0  0  0  0  0  0
   -1.8478  -26.8992  -38.2956 O   0  0  0  0  0  0  0  0  0  0  0  0
   -3.2638  -26.8527  -38.1637 C   0  0  0  0  0  0  0  0  0  0  0  0
   -3.8544  -28.0341  -38.6423 O   0  0  0  0  0  0  0  0  0  0  0  0
   -3.3714  -29.1577  -37.9134 C   0  0  0  0  0  0  0  0  0  0  0  0
   -3.9314  -30.3484  -38.3966 O   0  0  0  0  0  0  0  0  0  0  0  0
   -3.6002  -30.5336  -39.7668 C   0  0  0  0  0  0  0  0  0  0  0  0
   -4.1755  -31.7126  -40.2583 O   0  0  0  0  0  0  0  0  0  0  0  0
   -5.5905  -31.6603  -40.1293 C   0  0  0  0  0  0  0  0  0  0  0  0
   -6.1843  -32.8529  -40.6011 O   0  0  0  0  0  0  0  0  0  0  0  0
   -5.6694  -33.9497  -39.8572 C   0  0  0  0  0  0  0  0  0  0  0  0
   -6.2227  -35.1742  -40.3091 O   0  0  0  0  0  0  0  0  0  0  0  0
   -5.8975  -35.3607  -41.6833 C   0  0  0  0  0  0  0  0  0  0  0  0
   -6.4576  -36.5637  -42.1664 O   0  0  0  0  0  0  0  0  0  0  0  0
   -7.8736  -36.5258  -42.0398 C   0  0  0  0  0  0  0  0  0  0  0  0
   -8.4504  -37.7331  -42.4939 O   0  0  0  0  0  0  0  0  0  0  0  0
   -7.9259  -38.8213  -41.7416 C   0  0  0  0  0  0  0  0  0  0  0  0
   -8.4692  -40.0611  -42.1804 O   0  0  0  0  0  0  0  0  0  0  0  0
   -8.1296  -40.2541  -43.5451 C   0  0  0  0  0  0  0  0  0  0  0  0
   -8.6671  -41.4728  -44.0081 O   0  0  0  0  0  0  0  0  0  0  0  0
  -10.0843  -41.4678  -43.8669 C   0  0  0  0  0  0  0  0  0  0  0  0
  -10.6455  -42.6988  -44.3025 O   0  0  0  0  0  0  0  0  0  0  0  0
  -10.1027  -43.7523  -43.5170 C   0  0  0  0  0  0  0  0  0  0  0  0
  -10.6139  -45.0010  -43.9350 O   0  0  0  0  0  0  0  0  0  0  0  0
  -10.2866  -45.2052  -45.3029 C   0  0  0  0  0  0  0  0  0  0  0  0
  -10.8014  -46.4508  -45.7648 O   0  0  0  0  0  0  0  0  0  0  0  0
  -12.2185  -46.4609  -45.6279 C   0  0  0  0  0  0  0  0  0  0  0  0
  -12.7482  -47.7000  -46.0599 O   0  0  0  0  0  0  0  0  0  0  0  0
  -12.1887  -48.7412  -45.2741 C   0  0  0  0  0  0  0  0  0  0  0  0
  -12.6995  -50.0021  -45.6879 O   0  0  0  0  0  0  0  0  0  0  0  0
  -12.3508  -50.2293  -47.0468 C   0  0  0  0  0  0  0  0  0  0  0  0
  -12.8581  -51.4916  -47.4737 O   0  0  0  0  0  0  0  0  0  0  0  0
  -12.4982  -51.7131  -48.8270 C   0  0  0  0  0  0  0  0  0  0  0  0
  -11.0805  -51.7370  -48.9833 O   0  0  0  0  0  0  0  0  0  0  0  0
  -10.7469  -51.9503  -50.3395 C   0  0  0  0  0  0  0  0  0  0  0  0
  -11.2863  -50.9318  -51.1589 O   0  0  0  0  0  0  0  0  0  0  0  0
  -10.9527  -51.1495  -52.5150 C   0  0  0  0  0  0  0  0  0  0  0  0
  -11.5045  -50.1326  -53.3436 O   0  0  0  0  0  0  0  0  0  0  0  0
  -11.0040  -48.8576  -52.9584 C   0  0  0  0  0  0  0  0  0  0  0  0
   -8.8043  -21.3980  -11.1320 H   0  0  0  0  0  0  0  0  0  0  0  0
   -7.4867  -20.4697  -10.3589 H   0  0  0  0  0  0  0  0  0  0  0  0
   -7.8164  -22.1346   -9.8417 H   0  0  0  0  0  0  0  0  0  0  0  0
   -6.7688  -21.3296  -12.6388 H   0  0  0  0  0  0  0  0  0  0  0  0
   -6.8595  -24.1642  -12.1529 H   0  0  0  0  0  0  0  0  0  0  0  0
   -4.9519  -21.2146   -9.6637 H   0  0  0  0  0  0  0  0  0  0  0  0
   -5.0718  -20.4459  -11.2461 H   0  0  0  0  0  0  0  0  0  0  0  0
   -2.8750  -21.4379  -11.8794 H   0  0  0  0  0  0  0  0  0  0  0  0
   -2.7639  -22.1939  -10.2834 H   0  0  0  0  0  0  0  0  0  0  0  0
   -1.3903  -20.1430  -10.3591 H   0  0  0  0  0  0  0  0  0  0  0  0
   -2.6882  -19.9466   -9.1947 H   0  0  0  0  0  0  0  0  0  0  0  0
   -4.0174  -18.6703  -10.8983 H   0  0  0  0  0  0  0  0  0  0  0  0
   -2.7180  -18.8866  -12.0716 H   0  0  0  0  0  0  0  0  0  0  0  0
   -1.1791  -17.5959  -10.5761 H   0  0  0  0  0  0  0  0  0  0  0  0
   -2.4854  -17.3964   -9.4058 H   0  0  0  0  0  0  0  0  0  0  0  0
   -3.8451  -16.1745  -11.1393 H   0  0  0  0  0  0  0  0  0  0  0  0
   -2.5491  -16.3726  -12.3023 H   0  0  0  0  0  0  0  0  0  0  0  0
   -0.9996  -15.1227  -10.8064 H   0  0  0  0  0  0  0  0  0  0  0  0
   -2.3133  -14.9081   -9.6205 H   0  0  0  0  0  0  0  0  0  0  0  0
   -2.1713  -12.5843   -9.8645 H   0  0  0  0  0  0  0  0  0  0  0  0
   -2.3163  -11.8562  -11.4763 H   0  0  0  0  0  0  0  0  0  0  0  0
   -0.5654  -12.0813  -12.9985 H   0  0  0  0  0  0  0  0  0  0  0  0
   -0.6259  -13.8603  -12.8338 H   0  0  0  0  0  0  0  0  0  0  0  0
    1.1174  -14.1026  -14.3273 H   0  0  0  0  0  0  0  0  0  0  0  0
    2.6486  -13.2401  -14.0302 H   0  0  0  0  0  0  0  0  0  0  0  0
    0.9702  -13.1493  -16.4261 H   0  0  0  0  0  0  0  0  0  0  0  0
    2.5152  -12.2823  -16.1556 H   0  0  0  0  0  0  0  0  0  0  0  0
    2.3818  -11.3387  -18.2708 H   0  0  0  0  0  0  0  0  0  0  0  0
    0.9221  -10.4308  -18.7355 H   0  0  0  0  0  0  0  0  0  0  0  0
    2.1543  -12.6933  -20.1487 H   0  0  0  0  0  0  0  0  0  0  0  0
    0.6993  -11.7823  -20.6344 H   0  0  0  0  0  0  0  0  0  0  0  0
   -0.6590  -13.8700  -20.4288 H   0  0  0  0  0  0  0  0  0  0  0  0
    0.7719  -14.7662  -19.9566 H   0  0  0  0  0  0  0  0  0  0  0  0
    1.8785  -14.1567  -22.1322 H   0  0  0  0  0  0  0  0  0  0  0  0
    0.4378  -13.2542  -22.6072 H   0  0  0  0  0  0  0  0  0  0  0  0
   -0.9274  -15.3436  -22.4370 H   0  0  0  0  0  0  0  0  0  0  0  0
    0.5156  -16.2465  -21.9636 H   0  0  0  0  0  0  0  0  0  0  0  0
    1.6175  -15.6157  -24.1214 H   0  0  0  0  0  0  0  0  0  0  0  0
    0.1751  -14.7133  -24.5945 H   0  0  0  0  0  0  0  0  0  0  0  0
   -1.1887  -16.8042  -24.4289 H   0  0  0  0  0  0  0  0  0  0  0  0
    0.2530  -17.7073  -23.9535 H   0  0  0  0  0  0  0  0  0  0  0  0
    1.3571  -17.0782  -26.1101 H   0  0  0  0  0  0  0  0  0  0  0  0
   -0.0856  -16.1773  -26.5854 H   0  0  0  0  0  0  0  0  0  0  0  0
   -1.4487  -18.2696  -26.4151 H   0  0  0  0  0  0  0  0  0  0  0  0
   -0.0054  -19.1709  -25.9396 H   0  0  0  0  0  0  0  0  0  0  0  0
    1.0966  -18.5446  -28.0961 H   0  0  0  0  0  0  0  0  0  0  0  0
   -0.3447  -17.6418  -28.5715 H   0  0  0  0  0  0  0  0  0  0  0  0
   -1.7097  -19.7316  -28.4066 H   0  0  0  0  0  0  0  0  0  0  0  0
   -0.2687  -20.6354  -27.9289 H   0  0  0  0  0  0  0  0  0  0  0  0
    0.8388  -20.0082  -30.0841 H   0  0  0  0  0  0  0  0  0  0  0  0
   -0.6016  -19.1047  -30.5617 H   0  0  0  0  0  0  0  0  0  0  0  0
   -1.9680  -21.1948  -30.3945 H   0  0  0  0  0  0  0  0  0  0  0  0
   -0.5275  -22.0983  -29.9169 H   0  0  0  0  0  0  0  0  0  0  0  0
    0.5788  -21.4740  -32.0732 H   0  0  0  0  0  0  0  0  0  0  0  0
   -0.8615  -20.5707  -32.5507 H   0  0  0  0  0  0  0  0  0  0  0  0
   -2.2290  -22.6619  -32.3798 H   0  0  0  0  0  0  0  0  0  0  0  0
   -0.7862  -23.5651  -31.9049 H   0  0  0  0  0  0  0  0  0  0  0  0
    0.3141  -22.9368  -34.0622 H   0  0  0  0  0  0  0  0  0  0  0  0
   -1.1285  -22.0386  -34.5357 H   0  0  0  0  0  0  0  0  0  0  0  0
   -2.4886  -24.1489  -34.3848 H   0  0  0  0  0  0  0  0  0  0  0  0
   -1.0571  -25.0444  -33.9103 H   0  0  0  0  0  0  0  0  0  0  0  0
    0.0721  -24.3996  -36.0461 H   0  0  0  0  0  0  0  0  0  0  0  0
   -1.3890  -23.4924  -36.5285 H   0  0  0  0  0  0  0  0  0  0  0  0
   -0.1901  -25.7938  -37.8992 H   0  0  0  0  0  0  0  0  0  0  0  0
   -1.6405  -24.8707  -38.3812 H   0  0  0  0  0  0  0  0  0  0  0  0
   -3.6556  -26.0156  -38.7469 H   0  0  0  0  0  0  0  0  0  0  0  0
   -3.5565  -26.7294  -37.1161 H   0  0  0  0  0  0  0  0  0  0  0  0
   -3.6414  -29.0473  -36.8594 H   0  0  0  0  0  0  0  0  0  0  0  0
   -2.2810  -29.2308  -37.9962 H   0  0  0  0  0  0  0  0  0  0  0  0
   -2.5137  -30.5936  -39.8744 H   0  0  0  0  0  0  0  0  0  0  0  0
   -3.9687  -29.6895  -40.3637 H   0  0  0  0  0  0  0  0  0  0  0  0
   -5.9814  -30.8252  -40.7122 H   0  0  0  0  0  0  0  0  0  0  0  0
   -5.8783  -31.5280  -39.0778 H   0  0  0  0  0  0  0  0  0  0  0  0
   -5.9419  -33.8342  -38.8034 H   0  0  0  0  0  0  0  0  0  0  0  0
   -4.5798  -34.0201  -39.9420 H   0  0  0  0  0  0  0  0  0  0  0  0
   -4.8112  -35.4171  -41.7983 H   0  0  0  0  0  0  0  0  0  0  0  0
   -6.2802  -34.5347  -42.2963 H   0  0  0  0  0  0  0  0  0  0  0  0
   -8.2767  -35.7042  -42.6353 H   0  0  0  0  0  0  0  0  0  0  0  0
   -8.1619  -36.3873  -40.9908 H   0  0  0  0  0  0  0  0  0  0  0  0
   -8.1980  -38.6955  -40.6887 H   0  0  0  0  0  0  0  0  0  0  0  0
   -6.8341  -38.8772  -41.8240 H   0  0  0  0  0  0  0  0  0  0  0  0
   -7.0432  -40.2998  -43.6590 H   0  0  0  0  0  0  0  0  0  0  0  0
   -8.5281  -39.4487  -44.1723 H   0  0  0  0  0  0  0  0  0  0  0  0
  -10.5091  -40.6652  -44.4775 H   0  0  0  0  0  0  0  0  0  0  0  0
  -10.3789  -41.3137  -42.8204 H   0  0  0  0  0  0  0  0  0  0  0  0
  -10.3728  -43.6082  -42.4686 H   0  0  0  0  0  0  0  0  0  0  0  0
   -9.0105  -43.7877  -43.6082 H   0  0  0  0  0  0  0  0  0  0  0  0
   -9.1985  -45.2359  -45.4197 H   0  0  0  0  0  0  0  0  0  0  0  0
  -10.6968  -44.4140  -45.9416 H   0  0  0  0  0  0  0  0  0  0  0  0
  -12.6516  -45.6681  -46.2448 H   0  0  0  0  0  0  0  0  0  0  0  0
  -12.5136  -46.3055  -44.5826 H   0  0  0  0  0  0  0  0  0  0  0  0
  -12.4660  -48.6007  -44.2242 H   0  0  0  0  0  0  0  0  0  0  0  0
  -11.0943  -48.7608  -45.3545 H   0  0  0  0  0  0  0  0  0  0  0  0
  -11.2552  -50.2203  -47.1427 H   0  0  0  0  0  0  0  0  0  0  0  0
  -12.7734  -49.4426  -47.6869 H   0  0  0  0  0  0  0  0  0  0  0  0
  -12.9461  -50.9234  -49.4477 H   0  0  0  0  0  0  0  0  0  0  0  0
  -12.9088  -52.6784  -49.1380 H   0  0  0  0  0  0  0  0  0  0  0  0
  -11.1358  -52.9243  -50.6443 H   0  0  0  0  0  0  0  0  0  0  0  0
   -9.6585  -51.9462  -50.4220 H   0  0  0  0  0  0  0  0  0  0  0  0
  -11.3553  -52.1155  -52.8333 H   0  0  0  0  0  0  0  0  0  0  0  0
   -9.8637  -51.1591  -52.6241 H   0  0  0  0  0  0  0  0  0  0  0  0
  -11.4453  -48.1011  -53.6082 H   0  0  0  0  0  0  0  0  0  0  0  0
   -9.9149  -48.8332  -53.0621 H   0  0  0  0  0  0  0  0  0  0  0  0
  -11.2823  -48.6312  -51.9227 H   0  0  0  0  0  0  0  0  0  0  0  0
  1  2  1  0  0  0  0
  1 80  1  0  0  0  0
  1 81  1  0  0  0  0
  1 82  1  0  0  0  0
  2  3  1  0  0  0  0
  2  4  1  0  0  0  0
  2 83  1  0  0  0  0
  3  4  2  0  0  0  0
  3 84  1  0  0  0  0
  4  5  1  0  0  0  0
  5  6  1  0  0  0  0
  5 85  1  0  0  0  0
  5 86  1  0  0  0  0
  6  7  1  0  0  0  0
  6 87  1  0  0  0  0
  6 88  1  0  0  0  0
  7  8  1  0  0  0  0
  7 89  1  0  0  0  0
  7 90  1  0  0  0  0
  8  9  1  0  0  0  0
  8 91  1  0  0  0  0
  8 92  1  0  0  0  0
  9 10  1  0  0  0  0
  9 93  1  0  0  0  0
  9 94  1  0  0  0  0
 10 11  1  0  0  0  0
 10 95  1  0  0  0  0
 10 96  1  0  0  0  0
 11 12  1  0  0  0  0
 11 97  1  0  0  0  0
 11 98  1  0  0  0  0
 12 13  1  0  0  0  0
 13 14  1  0  0  0  0
 13 99  1  0  0  0  0
 13100  1  0  0  0  0
 14 15  1  0  0  0  0
 15 16  1  0  0  0  0
 15101  1  0  0  0  0
 15102  1  0  0  0  0
 16 17  1  0  0  0  0
 17 18  1  0  0  0  0
 17103  1  0  0  0  0
 17104  1  0  0  0  0
 18 19  1  0  0  0  0
 19 20  1  0  0  0  0
 19105  1  0  0  0  0
 19106  1  0  0  0  0
 20 21  1  0  0  0  0
 21 22  1  0  0  0  0
 21107  1  0  0  0  0
 21108  1  0  0  0  0
 22 23  1  0  0  0  0
 23 24  1  0  0  0  0
 23109  1  0  0  0  0
 23110  1  0  0  0  0
 24 25  1  0  0  0  0
 24111  1  0  0  0  0
 24112  1  0  0  0  0
 25 26  1  0  0  0  0
 25113  1  0  0  0  0
 25114  1  0  0  0  0
 26 27  1  0  0  0  0
 26115  1  0  0  0  0
 26116  1  0  0  0  0
 27 28  1  0  0  0  0
 27117  1  0  0  0  0
 27118  1  0  0  0  0
 28 29  1  0  0  0  0
 28119  1  0  0  0  0
 28120  1  0  0  0  0
 29 30  1  0  0  0  0
 29121  1  0  0  0  0
 29122  1  0  0  0  0
 30 31  1  0  0  0  0
 30123  1  0  0  0  0
 30124  1  0  0  0  0
 31 32  1  0  0  0  0
 31125  1  0  0  0  0
 31126  1  0  0  0  0
 32 33  1  0  0  0  0
 32127  1  0  0  0  0
 32128  1  0  0  0  0
 33 34  1  0  0  0  0
 33129  1  0  0  0  0
 33130  1  0  0  0  0
 34 35  1  0  0  0  0
 34131  1  0  0  0  0
 34132  1  0  0  0  0
 35 36  1  0  0  0  0
 35133  1  0  0  0  0
 35134  1  0  0  0  0
 36 37  1  0  0  0  0
 36135  1  0  0  0  0
 36136  1  0  0  0  0
 37 38  1  0  0  0  0
 37137  1  0  0  0  0
 37138  1  0  0  0  0
 38 39  1  0  0  0  0
 38139  1  0  0  0  0
 38140  1  0  0  0  0
 39 40  1  0  0  0  0
 39141  1  0  0  0  0
 39142  1  0  0  0  0
 40 41  1  0  0  0  0
 41 42  1  0  0  0  0
 41143  1  0  0  0  0
 41144  1  0  0  0  0
 42 43  1  0  0  0  0
 43 44  1  0  0  0  0
 43145  1  0  0  0  0
 43146  1  0  0  0  0
 44 45  1  0  0  0  0
 45 46  1  0  0  0  0
 45147  1  0  0  0  0
 45148  1  0  0  0  0
 46 47  1  0  0  0  0
 47 48  1  0  0  0  0
 47149  1  0  0  0  0
 47150  1  0  0  0  0
 48 49  1  0  0  0  0
 49 50  1  0  0  0  0
 49151  1  0  0  0  0
 49152  1  0  0  0  0
 50 51  1  0  0  0  0
 51 52  1  0  0  0  0
 51153  1  0  0  0  0
 51154  1  0  0  0  0
 52 53  1  0  0  0  0
 53 54  1  0  0  0  0
 53155  1  0  0  0  0
 53156  1  0  0  0  0
 54 55  1  0  0  0  0
 55 56  1  0  0  0  0
 55157  1  0  0  0  0
 55158  1  0  0  0  0
 56 57  1  0  0  0  0
 57 58  1  0  0  0  0
 57159  1  0  0  0  0
 57160  1  0  0  0  0
 58 59  1  0  0  0  0
 59 60  1  0  0  0  0
 59161  1  0  0  0  0
 59162  1  0  0  0  0
 60 61  1  0  0  0  0
 61 62  1  0  0  0  0
 61163  1  0  0  0  0
 61164  1  0  0  0  0
 62 63  1  0  0  0  0
 63 64  1  0  0  0  0
 63165  1  0  0  0  0
 63166  1  0  0  0  0
 64 65  1  0  0  0  0
 65 66  1  0  0  0  0
 65167  1  0  0  0  0
 65168  1  0  0  0  0
 66 67  1  0  0  0  0
 67 68  1  0  0  0  0
 67169  1  0  0  0  0
 67170  1  0  0  0  0
 68 69  1  0  0  0  0
 69 70  1  0  0  0  0
 69171  1  0  0  0  0
 69172  1  0  0  0  0
 70 71  1  0  0  0  0
 71 72  1  0  0  0  0
 71173  1  0  0  0  0
 71174  1  0  0  0  0
 72 73  1  0  0  0  0
 73 74  1  0  0  0  0
 73175  1  0  0  0  0
 73176  1  0  0  0  0
 74 75  1  0  0  0  0
 75 76  1  0  0  0  0
 75177  1  0  0  0  0
 75178  1  0  0  0  0
 76 77  1  0  0  0  0
 77 78  1  0  0  0  0
 77179  1  0  0  0  0
 77180  1  0  0  0  0
 78 79  1  0  0  0  0
 79181  1  0  0  0  0
 79182  1  0  0  0  0
 79183  1  0  0  0  0
M  END
$$$$
