
 OpenBabel04232216473D

 58 59  0  0  0  0  0  0  0  0999 V2000
    0.6175   -0.0260    1.5390 C   0  0  0  0  0  0  0  0  0  0  0  0
    2.1106    0.2760    1.4678 C   0  0  0  0  0  0  0  0  0  0  0  0
    3.0033   -0.9413    1.5039 C   0  0  0  0  0  0  0  0  0  0  0  0
    4.3299   -0.9314    1.5998 C   0  0  0  0  0  0  0  0  0  0  0  0
    5.2550   -2.0923    1.5574 C   0  0  0  0  0  0  0  0  0  0  0  0
    4.8503   -3.3955    1.5896 N   0  0  0  0  0  0  0  0  0  0  0  0
    5.6292   -4.4348    2.2708 C   0  0  0  0  0  0  0  0  0  0  0  0
    4.7442   -5.5877    2.7291 C   0  0  0  0  0  0  0  0  0  0  0  0
    3.9956   -6.2975    1.6005 C   0  0  0  0  0  0  0  0  0  0  0  0
    4.9353   -6.8299    0.5231 C   0  0  0  0  0  0  0  0  0  0  0  0
    4.1669   -7.4814   -0.6179 C   0  0  0  0  0  0  0  0  0  0  0  0
    5.1464   -7.9769   -1.6769 C   0  0  0  0  0  0  0  0  0  0  0  0
    4.4102   -8.6222   -2.8443 C   0  0  0  0  0  0  0  0  0  0  0  0
    5.4015   -9.1295   -3.8849 C   0  0  0  0  0  0  0  0  0  0  0  0
    4.6781   -9.7908   -5.0530 C   0  0  0  0  0  0  0  0  0  0  0  0
    5.6653  -10.3030   -6.0845 C   0  0  0  0  0  0  0  0  0  0  0  0
    6.5069   -1.5591    1.5260 C   0  0  0  0  0  0  0  0  0  0  0  0
    7.8588   -2.1711    1.4534 C   0  0  0  0  0  0  0  0  0  0  0  0
    6.4115   -0.1188    1.6345 C   0  0  0  0  0  0  0  0  0  0  0  0
    5.1288    0.2605    1.7175 C   0  0  0  0  0  0  0  0  0  0  0  0
    4.7616    1.6240    1.8722 C   0  0  0  0  0  0  0  0  0  0  0  0
    3.5639    2.1574    1.6007 C   0  0  0  0  0  0  0  0  0  0  0  0
    3.5080    3.6623    1.5163 C   0  0  0  0  0  0  0  0  0  0  0  0
    2.3603    1.5429    1.4211 N   0  0  0  0  0  0  0  0  0  0  0  0
    0.4102   -1.0964    1.6169 H   0  0  0  0  0  0  0  0  0  0  0  0
    0.1051    0.3823    0.6659 H   0  0  0  0  0  0  0  0  0  0  0  0
    0.2224    0.4606    2.4387 H   0  0  0  0  0  0  0  0  0  0  0  0
    2.4725   -1.8807    1.3911 H   0  0  0  0  0  0  0  0  0  0  0  0
    3.8491   -3.5092    1.6902 H   0  0  0  0  0  0  0  0  0  0  0  0
    6.1272   -4.0111    3.1493 H   0  0  0  0  0  0  0  0  0  0  0  0
    6.4128   -4.8014    1.6009 H   0  0  0  0  0  0  0  0  0  0  0  0
    4.0148   -5.2171    3.4593 H   0  0  0  0  0  0  0  0  0  0  0  0
    5.3759   -6.3144    3.2531 H   0  0  0  0  0  0  0  0  0  0  0  0
    3.2623   -5.6173    1.1515 H   0  0  0  0  0  0  0  0  0  0  0  0
    3.4250   -7.1293    2.0301 H   0  0  0  0  0  0  0  0  0  0  0  0
    5.6329   -7.5502    0.9676 H   0  0  0  0  0  0  0  0  0  0  0  0
    5.5347   -6.0169    0.1004 H   0  0  0  0  0  0  0  0  0  0  0  0
    3.4782   -6.7532   -1.0627 H   0  0  0  0  0  0  0  0  0  0  0  0
    3.5649   -8.3149   -0.2390 H   0  0  0  0  0  0  0  0  0  0  0  0
    5.8381   -8.6997   -1.2284 H   0  0  0  0  0  0  0  0  0  0  0  0
    5.7510   -7.1373   -2.0434 H   0  0  0  0  0  0  0  0  0  0  0  0
    3.7309   -7.8914   -3.3014 H   0  0  0  0  0  0  0  0  0  0  0  0
    3.7959   -9.4523   -2.4777 H   0  0  0  0  0  0  0  0  0  0  0  0
    6.0865   -9.8500   -3.4200 H   0  0  0  0  0  0  0  0  0  0  0  0
    6.0124   -8.2951   -4.2512 H   0  0  0  0  0  0  0  0  0  0  0  0
    3.9975   -9.0720   -5.5244 H   0  0  0  0  0  0  0  0  0  0  0  0
    4.0683  -10.6251   -4.6880 H   0  0  0  0  0  0  0  0  0  0  0  0
    6.2703   -9.4844   -6.4879 H   0  0  0  0  0  0  0  0  0  0  0  0
    5.1353  -10.7777   -6.9173 H   0  0  0  0  0  0  0  0  0  0  0  0
    6.3418  -11.0438   -5.6446 H   0  0  0  0  0  0  0  0  0  0  0  0
    7.8470   -3.2559    1.4051 H   0  0  0  0  0  0  0  0  0  0  0  0
    8.4520   -1.8755    2.3193 H   0  0  0  0  0  0  0  0  0  0  0  0
    8.3797   -1.8188    0.5485 H   0  0  0  0  0  0  0  0  0  0  0  0
    7.2750    0.5350    1.6496 H   0  0  0  0  0  0  0  0  0  0  0  0
    5.5647    2.2822    2.1903 H   0  0  0  0  0  0  0  0  0  0  0  0
    4.5084    4.1110    1.5226 H   0  0  0  0  0  0  0  0  0  0  0  0
    2.9422    4.0740    2.3561 H   0  0  0  0  0  0  0  0  0  0  0  0
    3.0368    3.9722    0.5760 H   0  0  0  0  0  0  0  0  0  0  0  0
  1  2  1  0  0  0  0
  1 25  1  0  0  0  0
  1 26  1  0  0  0  0
  1 27  1  0  0  0  0
  2  3  1  0  0  0  0
  2 24  2  0  0  0  0
  3  4  2  0  0  0  0
  3 28  1  0  0  0  0
  4  5  1  0  0  0  0
  4 20  1  0  0  0  0
  5  6  1  0  0  0  0
  5 17  2  0  0  0  0
  6  7  1  0  0  0  0
  6 29  1  0  0  0  0
  7  8  1  0  0  0  0
  7 30  1  0  0  0  0
  7 31  1  0  0  0  0
  8  9  1  0  0  0  0
  8 32  1  0  0  0  0
  8 33  1  0  0  0  0
  9 10  1  0  0  0  0
  9 34  1  0  0  0  0
  9 35  1  0  0  0  0
 10 11  1  0  0  0  0
 10 36  1  0  0  0  0
 10 37  1  0  0  0  0
 11 12  1  0  0  0  0
 11 38  1  0  0  0  0
 11 39  1  0  0  0  0
 12 13  1  0  0  0  0
 12 40  1  0  0  0  0
 12 41  1  0  0  0  0
 13 14  1  0  0  0  0
 13 42  1  0  0  0  0
 13 43  1  0  0  0  0
 14 15  1  0  0  0  0
 14 44  1  0  0  0  0
 14 45  1  0  0  0  0
 15 16  1  0  0  0  0
 15 46  1  0  0  0  0
 15 47  1  0  0  0  0
 16 48  1  0  0  0  0
 16 49  1  0  0  0  0
 16 50  1  0  0  0  0
 17 18  1  0  0  0  0
 17 19  1  0  0  0  0
 18 51  1  0  0  0  0
 18 52  1  0  0  0  0
 18 53  1  0  0  0  0
 19 20  2  0  0  0  0
 19 54  1  0  0  0  0
 20 21  1  0  0  0  0
 21 22  2  0  0  0  0
 21 55  1  0  0  0  0
 22 23  1  0  0  0  0
 22 24  1  0  0  0  0
 23 56  1  0  0  0  0
 23 57  1  0  0  0  0
 23 58  1  0  0  0  0
M  END
$$$$
