
 OpenBabel04232216513D

 85 85  0  0  1  0  0  0  0  0999 V2000
   11.8849   -3.7142   -4.7723 C   0  0  0  0  0  0  0  0  0  0  0  0
   14.2334   -4.8617   -5.2413 C   0  0  0  0  0  0  0  0  0  0  0  0
   16.6575   -6.1066   -6.0540 C   0  0  3  0  0  0  0  0  0  0  0  0
   14.0646   -5.7117   -5.1247 C   0  0  0  0  0  0  0  0  0  0  0  0
   12.0640   -5.4330   -4.1589 C   0  0  0  0  0  0  0  0  0  0  0  0
   10.1806   -4.4432   -3.0994 C   0  0  0  0  0  0  0  0  0  0  0  0
    8.7798   -4.2491   -1.8053 C   0  0  0  0  0  0  0  0  0  0  0  0
    9.6581   -3.6042   -0.9428 C   0  0  0  0  0  0  0  0  0  0  0  0
   10.1413   -5.0074   -1.2688 C   0  0  0  0  0  0  0  0  0  0  0  0
   11.6574   -4.3015   -1.7047 C   0  0  0  0  0  0  0  0  0  0  0  0
   12.7470   -4.7931   -2.1838 C   0  0  0  0  0  0  0  0  0  0  0  0
   13.8919   -5.3805   -2.6790 C   0  0  0  0  0  0  0  0  0  0  0  0
   14.3117   -6.5801   -3.2681 C   0  0  0  0  0  0  0  0  0  0  0  0
   15.7804   -6.3941   -3.6059 C   0  0  0  0  0  0  0  0  0  0  0  0
   16.4300   -7.3825   -4.2662 C   0  0  0  0  0  0  0  0  0  0  0  0
   17.8582   -7.0984   -4.5206 C   0  0  0  0  0  0  0  0  0  0  0  0
   18.5206   -8.1965   -4.8628 C   0  0  0  0  0  0  0  0  0  0  0  0
   20.0421   -8.1713   -4.8032 C   0  0  0  0  0  0  0  0  0  0  0  0
   20.6729   -9.0698   -5.6035 C   0  0  0  0  0  0  0  0  0  0  0  0
   22.1385   -9.1117   -5.5495 C   0  0  0  0  0  0  0  0  0  0  0  0
   22.7764  -10.1378   -6.1622 C   0  0  0  0  0  0  0  0  0  0  0  0
   24.2364  -10.0775   -6.2333 C   0  0  0  0  0  0  0  0  0  0  0  0
   24.8031  -11.2292   -6.7318 C   0  0  0  0  0  0  0  0  0  0  0  0
   26.4051  -11.2839   -6.8524 C   0  0  0  0  0  0  0  0  0  0  0  0
   27.1279  -12.3005   -7.5190 C   0  0  0  0  0  0  0  0  0  0  0  0
   28.7525  -12.2482   -7.5389 C   0  0  0  0  0  0  0  0  0  0  0  0
   29.4711  -13.2457   -8.1786 C   0  0  0  0  0  0  0  0  0  0  0  0
   30.9516  -13.1533   -8.0846 C   0  0  0  0  0  0  0  0  0  0  0  0
   31.5996  -14.2042   -8.6986 C   0  0  0  0  0  0  0  0  0  0  0  0
   33.0527  -14.0545   -8.5519 C   0  0  0  0  0  0  0  0  0  0  0  0
   33.6457  -15.1490   -9.1257 C   0  0  0  0  0  0  0  0  0  0  0  0
   35.1628  -15.0215   -8.8816 C   0  0  0  0  0  0  0  0  0  0  0  0
   35.6307  -16.0064   -9.7086 C   0  0  0  0  0  0  0  0  0  0  0  0
   35.6420  -14.4032  -10.4631 C   0  0  0  0  0  0  0  0  0  0  0  0
   33.7150  -13.4626  -10.4121 C   0  0  0  0  0  0  0  0  0  0  0  0
   31.2890  -12.4283  -10.0319 C   0  0  0  0  0  0  0  0  0  0  0  0
   29.2546  -11.3108   -9.5795 C   0  0  0  0  0  0  0  0  0  0  0  0
   26.6990  -10.3057   -8.9792 C   0  0  0  0  0  0  0  0  0  0  0  0
   24.3344   -9.3570   -8.3749 C   0  0  0  0  0  0  0  0  0  0  0  0
   21.7536   -8.2298   -7.5562 C   0  0  0  0  0  0  0  0  0  0  0  0
   19.3551   -7.3495   -6.7872 C   0  0  0  0  0  0  0  0  0  0  0  0
   10.3624   -3.0738   -3.9567 H   0  0  0  0  0  0  0  0  0  0  0  0
   10.1127   -3.3947   -4.3935 H   0  0  0  0  0  0  0  0  0  0  0  0
   10.3167   -2.9450   -4.1932 H   0  0  0  0  0  0  0  0  0  0  0  0
   13.1068   -4.0380   -4.1797 H   0  0  0  0  0  0  0  0  0  0  0  0
   13.0032   -3.8440   -4.5072 H   0  0  0  0  0  0  0  0  0  0  0  0
   14.9890   -6.4359   -5.6981 H   0  0  0  0  0  0  0  0  0  0  0  0
   12.4415   -5.3177   -4.9558 H   0  0  0  0  0  0  0  0  0  0  0  0
   10.4342   -4.8812   -3.9566 H   0  0  0  0  0  0  0  0  0  0  0  0
    8.9931   -3.2599   -2.4936 H   0  0  0  0  0  0  0  0  0  0  0  0
    7.5216   -4.4639   -2.1236 H   0  0  0  0  0  0  0  0  0  0  0  0
    9.7526   -2.3324   -1.4229 H   0  0  0  0  0  0  0  0  0  0  0  0
    9.1718   -5.5628   -2.4147 H   0  0  0  0  0  0  0  0  0  0  0  0
   11.6920   -3.2110   -2.0770 H   0  0  0  0  0  0  0  0  0  0  0  0
   12.2221   -5.7616   -2.5746 H   0  0  0  0  0  0  0  0  0  0  0  0
   14.2131   -4.2983   -2.9161 H   0  0  0  0  0  0  0  0  0  0  0  0
   13.6024   -7.1795   -4.2729 H   0  0  0  0  0  0  0  0  0  0  0  0
   16.1682   -5.3186   -3.5290 H   0  0  0  0  0  0  0  0  0  0  0  0
   15.8107   -7.9034   -5.1545 H   0  0  0  0  0  0  0  0  0  0  0  0
   18.3373   -6.1795   -4.2126 H   0  0  0  0  0  0  0  0  0  0  0  0
   17.9388   -8.8711   -5.7072 H   0  0  0  0  0  0  0  0  0  0  0  0
   20.5703   -7.1553   -4.8706 H   0  0  0  0  0  0  0  0  0  0  0  0
   20.1828   -9.6589   -6.4949 H   0  0  0  0  0  0  0  0  0  0  0  0
   22.7222   -8.1487   -5.5313 H   0  0  0  0  0  0  0  0  0  0  0  0
   22.2864  -10.7384   -7.0936 H   0  0  0  0  0  0  0  0  0  0  0  0
   24.8955   -9.1274   -6.2325 H   0  0  0  0  0  0  0  0  0  0  0  0
   24.4259  -11.6738   -7.7515 H   0  0  0  0  0  0  0  0  0  0  0  0
   26.9895  -10.2358   -6.8735 H   0  0  0  0  0  0  0  0  0  0  0  0
   26.7069  -12.7075   -8.5508 H   0  0  0  0  0  0  0  0  0  0  0  0
   29.2671  -11.1728   -7.5427 H   0  0  0  0  0  0  0  0  0  0  0  0
   28.9838  -13.6508   -9.1947 H   0  0  0  0  0  0  0  0  0  0  0  0
   31.4984  -12.0722   -8.1660 H   0  0  0  0  0  0  0  0  0  0  0  0
   31.1502  -14.6113   -9.8033 H   0  0  0  0  0  0  0  0  0  0  0  0
   33.6541  -12.9900   -8.7582 H   0  0  0  0  0  0  0  0  0  0  0  0
   33.3188  -15.5241  -10.3903 H   0  0  0  0  0  0  0  0  0  0  0  0
   35.8174  -13.7774   -9.0810 H   0  0  0  0  0  0  0  0  0  0  0  0
   35.1676  -16.5285  -10.7688 H   0  0  0  0  0  0  0  0  0  0  0  0
   37.4331  -14.6742  -10.2140 H   0  0  0  0  0  0  0  0  0  0  0  0
   35.2590  -14.4261  -10.9055 H   0  0  0  0  0  0  0  0  0  0  0  0
   33.0585  -12.9851  -10.5268 H   0  0  0  0  0  0  0  0  0  0  0  0
   30.5766  -12.4648  -10.0496 H   0  0  0  0  0  0  0  0  0  0  0  0
   28.0497  -11.3389   -9.3846 H   0  0  0  0  0  0  0  0  0  0  0  0
   25.5486  -10.4725   -8.6986 H   0  0  0  0  0  0  0  0  0  0  0  0
   22.7518   -9.3624   -7.9863 H   0  0  0  0  0  0  0  0  0  0  0  0
   18.0431   -7.6669   -6.8351 H   0  0  0  0  0  0  0  0  0  0  0  0
  1  2  1  0  0  0  0
  1 42  1  0  0  0  0
  1 43  1  0  0  0  0
  1 44  1  0  0  0  0
  2  3  1  0  0  0  0
  2 45  1  0  0  0  0
  2 46  1  0  0  0  0
  3  4  1  0  0  0  0
  3 41  1  0  0  0  0
  3 47  1  0  0  0  0
  4  5  2  3  0  0  0
  4 48  1  0  0  0  0
  5  6  1  0  0  0  0
  5 49  1  0  0  0  0
  6  7  2  3  0  0  0
  6 50  1  0  0  0  0
  7  8  1  0  0  0  0
  7 51  1  0  0  0  0
  8  9  2  3  0  0  0
  8 52  1  0  0  0  0
  9 10  1  0  0  0  0
  9 53  1  0  0  0  0
 10 11  2  3  0  0  0
 10 54  1  0  0  0  0
 11 12  1  0  0  0  0
 11 55  1  0  0  0  0
 12 13  2  3  0  0  0
 12 56  1  0  0  0  0
 13 14  1  0  0  0  0
 13 57  1  0  0  0  0
 14 15  2  3  0  0  0
 14 58  1  0  0  0  0
 15 16  1  0  0  0  0
 15 59  1  0  0  0  0
 16 17  2  3  0  0  0
 16 60  1  0  0  0  0
 17 18  1  0  0  0  0
 17 61  1  0  0  0  0
 18 19  2  3  0  0  0
 18 62  1  0  0  0  0
 19 20  1  0  0  0  0
 19 63  1  0  0  0  0
 20 21  2  3  0  0  0
 20 64  1  0  0  0  0
 21 22  1  0  0  0  0
 21 65  1  0  0  0  0
 22 23  2  3  0  0  0
 22 66  1  0  0  0  0
 23 24  1  0  0  0  0
 23 67  1  0  0  0  0
 24 25  2  3  0  0  0
 24 68  1  0  0  0  0
 25 26  1  0  0  0  0
 25 69  1  0  0  0  0
 26 27  2  3  0  0  0
 26 70  1  0  0  0  0
 27 28  1  0  0  0  0
 27 71  1  0  0  0  0
 28 29  2  3  0  0  0
 28 72  1  0  0  0  0
 29 30  1  0  0  0  0
 29 73  1  0  0  0  0
 30 31  2  3  0  0  0
 30 74  1  0  0  0  0
 31 32  1  0  0  0  0
 31 75  1  0  0  0  0
 32 33  2  3  0  0  0
 32 76  1  0  0  0  0
 33 34  1  0  0  0  0
 33 77  1  0  0  0  0
 34 35  2  3  0  0  0
 34 78  1  0  0  0  0
 35 36  1  0  0  0  0
 35 79  1  0  0  0  0
 36 37  2  3  0  0  0
 36 80  1  0  0  0  0
 37 38  1  0  0  0  0
 37 81  1  0  0  0  0
 38 39  2  3  0  0  0
 38 82  1  0  0  0  0
 39 40  1  0  0  0  0
 39 83  1  0  0  0  0
 40 41  2  3  0  0  0
 40 84  1  0  0  0  0
 41 85  1  0  0  0  0
M  END
$$$$
