
 OpenBabel04232216553D

 88 87  0  0  0  0  0  0  0  0999 V2000
    0.4853   -0.0003    0.1239 C   0  0  0  0  0  0  0  0  0  0  0  0
    1.9433   -0.0767    0.1697 N   0  0  0  0  0  0  0  0  0  0  0  0
    2.4665   -1.3243   -0.4167 C   0  0  0  0  0  0  0  0  0  0  0  0
    2.0428   -2.5716    0.3487 C   0  0  0  0  0  0  0  0  0  0  0  0
    2.3117    0.9674   -0.7768 O   0  0  0  0  0  0  0  0  0  0  0  0
    3.6805    1.4006   -0.6230 O   0  0  0  0  0  0  0  0  0  0  0  0
    4.3075    1.4472   -1.9284 O   0  0  0  0  0  0  0  0  0  0  0  0
    5.7414    1.5540   -1.8055 O   0  0  0  0  0  0  0  0  0  0  0  0
    6.1485    2.9357   -1.9415 O   0  0  0  0  0  0  0  0  0  0  0  0
    7.5885    3.0273   -2.0070 O   0  0  0  0  0  0  0  0  0  0  0  0
    8.0347    3.0635   -3.3840 O   0  0  0  0  0  0  0  0  0  0  0  0
    9.4564    3.3288   -3.4329 O   0  0  0  0  0  0  0  0  0  0  0  0
    9.7037    4.6574   -3.9433 O   0  0  0  0  0  0  0  0  0  0  0  0
   10.9307    4.6827   -4.7071 O   0  0  0  0  0  0  0  0  0  0  0  0
   11.4658    6.0278   -4.7426 O   0  0  0  0  0  0  0  0  0  0  0  0
   12.9043    6.0009   -4.6157 O   0  0  0  0  0  0  0  0  0  0  0  0
   13.5164    5.7868   -5.9109 O   0  0  0  0  0  0  0  0  0  0  0  0
   14.8662    6.3031   -5.9141 O   0  0  0  0  0  0  0  0  0  0  0  0
   14.9898    7.3725   -6.8761 O   0  0  0  0  0  0  0  0  0  0  0  0
   16.2882    7.3366   -7.5091 O   0  0  0  0  0  0  0  0  0  0  0  0
   17.0121    8.5554   -7.2163 O   0  0  0  0  0  0  0  0  0  0  0  0
   18.4325    8.3007   -7.1968 O   0  0  0  0  0  0  0  0  0  0  0  0
   19.0319    8.6840   -8.4562 O   0  0  0  0  0  0  0  0  0  0  0  0
   20.0807    9.6533   -8.2292 O   0  0  0  0  0  0  0  0  0  0  0  0
   20.1978   10.5363   -9.3645 O   0  0  0  0  0  0  0  0  0  0  0  0
   21.4080   10.2552  -10.1029 O   0  0  0  0  0  0  0  0  0  0  0  0
   22.3317   11.3581   -9.9647 O   0  0  0  0  0  0  0  0  0  0  0  0
   23.6850   10.8669   -9.9318 O   0  0  0  0  0  0  0  0  0  0  0  0
   24.4587   11.4571  -10.9965 O   0  0  0  0  0  0  0  0  0  0  0  0
   25.5235   12.2486  -10.4272 O   0  0  0  0  0  0  0  0  0  0  0  0
   25.9280   13.2775  -11.3434 O   0  0  0  0  0  0  0  0  0  0  0  0
   26.9756   12.7801  -12.1993 O   0  0  0  0  0  0  0  0  0  0  0  0
   27.3322   13.7931  -13.1484 O   0  0  0  0  0  0  0  0  0  0  0  0
   28.5703   14.4233  -12.7786 O   0  0  0  0  0  0  0  0  0  0  0  0
   29.2018   14.9117  -13.9720 O   0  0  0  0  0  0  0  0  0  0  0  0
   30.6024   14.6273  -13.9595 O   0  0  0  0  0  0  0  0  0  0  0  0
   31.3368   15.8486  -13.7591 O   0  0  0  0  0  0  0  0  0  0  0  0
   32.7415   15.5697  -13.8677 O   0  0  0  0  0  0  0  0  0  0  0  0
   33.2909   16.2129  -15.0317 O   0  0  0  0  0  0  0  0  0  0  0  0
   34.3448   17.0986  -14.6144 O   0  0  0  0  0  0  0  0  0  0  0  0
   34.7659   17.9320  -15.7041 O   0  0  0  0  0  0  0  0  0  0  0  0
   35.8572   17.2999  -16.4056 O   0  0  0  0  0  0  0  0  0  0  0  0
   36.3252   18.1655  -17.4565 O   0  0  0  0  0  0  0  0  0  0  0  0
   37.3996   19.0022  -16.9812 O   0  0  0  0  0  0  0  0  0  0  0  0
   38.0531   19.6143  -18.1107 O   0  0  0  0  0  0  0  0  0  0  0  0
   39.4842   19.5179  -17.9840 O   0  0  0  0  0  0  0  0  0  0  0  0
   40.0539   20.8450  -17.9046 O   0  0  0  0  0  0  0  0  0  0  0  0
   41.4677   20.7914  -18.1853 O   0  0  0  0  0  0  0  0  0  0  0  0
   41.7055   20.8246  -19.6119 O   0  0  0  0  0  0  0  0  0  0  0  0
   43.1039   21.0649  -19.8705 O   0  0  0  0  0  0  0  0  0  0  0  0
   43.4063   22.4723  -19.7240 O   0  0  0  0  0  0  0  0  0  0  0  0
   44.8225   22.6947  -19.8772 O   0  0  0  0  0  0  0  0  0  0  0  0
   45.1695   22.7266  -21.2823 O   0  0  0  0  0  0  0  0  0  0  0  0
   46.5918   22.9135  -21.4396 O   0  0  0  0  0  0  0  0  0  0  0  0
   46.9190   24.3210  -21.3599 O   0  0  0  0  0  0  0  0  0  0  0  0
   48.3388   24.5121  -21.5363 O   0  0  0  0  0  0  0  0  0  0  0  0
   48.6605   24.5836  -22.9455 O   0  0  0  0  0  0  0  0  0  0  0  0
   50.0808   24.7757  -23.1223 O   0  0  0  0  0  0  0  0  0  0  0  0
   50.4060   26.1851  -23.0603 O   0  0  0  0  0  0  0  0  0  0  0  0
   51.8286   26.3759  -23.2288 O   0  0  0  0  0  0  0  0  0  0  0  0
   52.1627   26.4338  -24.6372 O   0  0  0  0  0  0  0  0  0  0  0  0
   53.5837   26.6443  -24.8075 O   0  0  0  0  0  0  0  0  0  0  0  0
   53.8914   28.0578  -24.7352 O   0  0  0  0  0  0  0  0  0  0  0  0
   55.3163   28.2746  -24.8635 O   0  0  0  0  0  0  0  0  0  0  0  0
   55.6652   28.4784  -26.2557 O   0  0  0  0  0  0  0  0  0  0  0  0
   57.1011   28.3801  -26.4426 O   0  0  0  0  0  0  0  0  0  0  0  0
   57.6855   29.6977  -26.5703 O   0  0  0  0  0  0  0  0  0  0  0  0
   59.1280   29.5640  -26.7089 O   0  0  0  0  0  0  0  0  0  0  0  0
   59.6200   30.3882  -27.8325 O   0  0  0  0  0  0  0  0  0  0  0  0
   60.8058   31.0969  -27.4104 O   0  0  0  0  0  0  0  0  0  0  0  0
   61.3087   31.9151  -28.5074 O   0  0  0  0  0  0  0  0  0  0  0  0
   62.5382   31.3516  -29.0392 O   0  0  0  0  0  0  0  0  0  0  0  0
   63.2097   32.3103  -29.9032 O   0  0  0  0  0  0  0  0  0  0  0  0
   64.4403   32.7795  -29.2900 O   0  0  0  0  0  0  0  0  0  0  0  0
   65.0098   33.8666  -30.0642 O   0  0  0  0  0  0  0  0  0  0  0  0
   66.1481   33.4076  -30.8409 O   0  0  0  0  0  0  0  0  0  0  0  0
   66.8219   34.5366  -31.4569 O   0  0  0  0  0  0  0  0  0  0  0  0
   68.2493   34.4952  -31.2018 O   0  0  0  0  0  0  0  0  0  0  0  0
   68.5532   35.0093  -29.8811 O   0  0  0  0  0  0  0  0  0  0  0  0
    0.0145   -0.7345    0.7870 H   0  0  0  0  0  0  0  0  0  0  0  0
    0.0994   -0.1434   -0.8903 H   0  0  0  0  0  0  0  0  0  0  0  0
    0.1580    0.9878    0.4705 H   0  0  0  0  0  0  0  0  0  0  0  0
    3.5625   -1.2775   -0.3795 H   0  0  0  0  0  0  0  0  0  0  0  0
    2.1855   -1.4187   -1.4690 H   0  0  0  0  0  0  0  0  0  0  0  0
    2.2503   -2.4724    1.4173 H   0  0  0  0  0  0  0  0  0  0  0  0
    2.5860   -3.4455   -0.0208 H   0  0  0  0  0  0  0  0  0  0  0  0
    0.9709   -2.7747    0.2198 H   0  0  0  0  0  0  0  0  0  0  0  0
   69.4049   34.5485  -29.7941 H   0  0  0  0  0  0  0  0  0  0  0  0
  1  2  1  0  0  0  0
  1 80  1  0  0  0  0
  1 81  1  0  0  0  0
  1 82  1  0  0  0  0
  2  3  1  0  0  0  0
  2  5  1  0  0  0  0
  3  4  1  0  0  0  0
  3 83  1  0  0  0  0
  3 84  1  0  0  0  0
  4 85  1  0  0  0  0
  4 86  1  0  0  0  0
  4 87  1  0  0  0  0
  5  6  1  0  0  0  0
  6  7  1  0  0  0  0
  7  8  1  0  0  0  0
  8  9  1  0  0  0  0
  9 10  1  0  0  0  0
 10 11  1  0  0  0  0
 11 12  1  0  0  0  0
 12 13  1  0  0  0  0
 13 14  1  0  0  0  0
 14 15  1  0  0  0  0
 15 16  1  0  0  0  0
 16 17  1  0  0  0  0
 17 18  1  0  0  0  0
 18 19  1  0  0  0  0
 19 20  1  0  0  0  0
 20 21  1  0  0  0  0
 21 22  1  0  0  0  0
 22 23  1  0  0  0  0
 23 24  1  0  0  0  0
 24 25  1  0  0  0  0
 25 26  1  0  0  0  0
 26 27  1  0  0  0  0
 27 28  1  0  0  0  0
 28 29  1  0  0  0  0
 29 30  1  0  0  0  0
 30 31  1  0  0  0  0
 31 32  1  0  0  0  0
 32 33  1  0  0  0  0
 33 34  1  0  0  0  0
 34 35  1  0  0  0  0
 35 36  1  0  0  0  0
 36 37  1  0  0  0  0
 37 38  1  0  0  0  0
 38 39  1  0  0  0  0
 39 40  1  0  0  0  0
 40 41  1  0  0  0  0
 41 42  1  0  0  0  0
 42 43  1  0  0  0  0
 43 44  1  0  0  0  0
 44 45  1  0  0  0  0
 45 46  1  0  0  0  0
 46 47  1  0  0  0  0
 47 48  1  0  0  0  0
 48 49  1  0  0  0  0
 49 50  1  0  0  0  0
 50 51  1  0  0  0  0
 51 52  1  0  0  0  0
 52 53  1  0  0  0  0
 53 54  1  0  0  0  0
 54 55  1  0  0  0  0
 55 56  1  0  0  0  0
 56 57  1  0  0  0  0
 57 58  1  0  0  0  0
 58 59  1  0  0  0  0
 59 60  1  0  0  0  0
 60 61  1  0  0  0  0
 61 62  1  0  0  0  0
 62 63  1  0  0  0  0
 63 64  1  0  0  0  0
 64 65  1  0  0  0  0
 65 66  1  0  0  0  0
 66 67  1  0  0  0  0
 67 68  1  0  0  0  0
 68 69  1  0  0  0  0
 69 70  1  0  0  0  0
 70 71  1  0  0  0  0
 71 72  1  0  0  0  0
 72 73  1  0  0  0  0
 73 74  1  0  0  0  0
 74 75  1  0  0  0  0
 75 76  1  0  0  0  0
 76 77  1  0  0  0  0
 77 78  1  0  0  0  0
 78 79  1  0  0  0  0
 79 88  1  0  0  0  0
M  END
$$$$
