
 OpenBabel04232217003D

 48 50  0  0  1  0  0  0  0  0999 V2000
    1.2696    0.5650   -1.0366 O   0  0  0  0  0  0  0  0  0  0  0  0
    2.5814    0.2982   -1.2919 C   0  0  0  0  0  0  0  0  0  0  0  0
    3.1333   -0.4851   -0.1106 C   0  0  0  0  0  0  0  0  0  0  0  0
    4.3976   -0.7905    0.2452 C   0  0  0  0  0  0  0  0  0  0  0  0
    4.7783   -1.8488    1.2828 C   0  0  0  0  0  0  0  0  0  0  0  0
    5.9359   -1.4741    2.2288 C   0  0  0  0  0  0  0  0  0  0  0  0
    7.0221   -0.5894    1.5910 C   0  0  0  0  0  0  0  0  0  0  0  0
    6.3857    0.4951    0.7019 C   0  0  3  0  0  0  0  0  0  0  0  0
    7.4031    1.5560    0.2646 C   0  0  0  0  0  0  0  0  0  0  0  0
    6.7150    2.7634   -0.3835 C   0  0  0  0  0  0  0  0  0  0  0  0
    7.7140    3.8469   -0.7494 C   0  0  0  0  0  0  0  0  0  0  0  0
    5.5979   -0.2667   -0.3633 C   0  0  0  0  0  0  0  0  0  0  0  0
    5.9697   -0.5730   -1.6249 C   0  0  0  0  0  0  0  0  0  0  0  0
    5.1764   -1.3792   -2.5677 C   0  0  0  0  0  0  0  0  0  0  0  0
    4.4112   -2.6113   -2.1544 C   0  0  0  0  0  0  0  0  0  0  0  0
    4.9557   -0.8846   -3.7939 C   0  0  0  0  0  0  0  0  0  0  0  0
    5.6383    0.2061   -4.2192 F   0  0  0  0  0  0  0  0  0  0  0  0
    3.8463   -1.2858   -4.6302 C   0  0  0  0  0  0  0  0  0  0  0  0
    2.6605   -0.6347   -4.7239 C   0  0  0  0  0  0  0  0  0  0  0  0
    2.3511   -0.2540   -6.0842 C   0  0  0  0  0  0  0  0  0  0  0  0
    2.6282    1.0471   -6.2932 C   0  0  0  0  0  0  0  0  0  0  0  0
    2.9032    1.6763   -4.9666 C   0  0  0  0  0  0  0  0  0  0  0  0
    2.0452    0.7454   -3.6792 S   0  0  3  0  0  0  0  0  0  0  0  0
    3.1168    0.5722   -2.4442 N   0  0  0  0  0  0  0  0  0  0  0  0
    0.9981    0.4124   -0.1249 H   0  0  0  0  0  0  0  0  0  0  0  0
    2.3560   -1.0240    0.4218 H   0  0  0  0  0  0  0  0  0  0  0  0
    5.1089   -2.7413    0.7480 H   0  0  0  0  0  0  0  0  0  0  0  0
    3.9061   -2.1699    1.8703 H   0  0  0  0  0  0  0  0  0  0  0  0
    6.4036   -2.3919    2.6046 H   0  0  0  0  0  0  0  0  0  0  0  0
    5.5232   -0.9559    3.1032 H   0  0  0  0  0  0  0  0  0  0  0  0
    7.7037   -1.2104    0.9937 H   0  0  0  0  0  0  0  0  0  0  0  0
    7.6275   -0.1418    2.3889 H   0  0  0  0  0  0  0  0  0  0  0  0
    5.6669    1.0411    1.3374 H   0  0  0  0  0  0  0  0  0  0  0  0
    8.1546    1.1292   -0.4095 H   0  0  0  0  0  0  0  0  0  0  0  0
    7.9438    1.9098    1.1527 H   0  0  0  0  0  0  0  0  0  0  0  0
    5.9751    3.1853    0.3096 H   0  0  0  0  0  0  0  0  0  0  0  0
    6.1725    2.4553   -1.2825 H   0  0  0  0  0  0  0  0  0  0  0  0
    8.2250    4.2296    0.1409 H   0  0  0  0  0  0  0  0  0  0  0  0
    7.2020    4.6848   -1.2317 H   0  0  0  0  0  0  0  0  0  0  0  0
    8.4687    3.4633   -1.4422 H   0  0  0  0  0  0  0  0  0  0  0  0
    6.8661   -0.1141   -2.0365 H   0  0  0  0  0  0  0  0  0  0  0  0
    4.7979   -3.0683   -1.2453 H   0  0  0  0  0  0  0  0  0  0  0  0
    4.4986   -3.3914   -2.9232 H   0  0  0  0  0  0  0  0  0  0  0  0
    3.3438   -2.4033   -2.0254 H   0  0  0  0  0  0  0  0  0  0  0  0
    4.1737   -1.8888   -5.4719 H   0  0  0  0  0  0  0  0  0  0  0  0
    2.0784   -0.9731   -6.8475 H   0  0  0  0  0  0  0  0  0  0  0  0
    2.6413    1.5739   -7.2378 H   0  0  0  0  0  0  0  0  0  0  0  0
    3.5598    2.5492   -4.8921 H   0  0  0  0  0  0  0  0  0  0  0  0
  1  2  1  0  0  0  0
  1 25  1  0  0  0  0
  2  3  1  0  0  0  0
  2 24  2  3  0  0  0
  3  4  2  3  0  0  0
  3 26  1  0  0  0  0
  4  5  1  0  0  0  0
  4 12  1  0  0  0  0
  5  6  1  0  0  0  0
  5 27  1  0  0  0  0
  5 28  1  0  0  0  0
  6  7  1  0  0  0  0
  6 29  1  0  0  0  0
  6 30  1  0  0  0  0
  7  8  1  0  0  0  0
  7 31  1  0  0  0  0
  7 32  1  0  0  0  0
  8  9  1  0  0  0  0
  8 12  1  0  0  0  0
  8 33  1  0  0  0  0
  9 10  1  0  0  0  0
  9 34  1  0  0  0  0
  9 35  1  0  0  0  0
 10 11  1  0  0  0  0
 10 36  1  0  0  0  0
 10 37  1  0  0  0  0
 11 38  1  0  0  0  0
 11 39  1  0  0  0  0
 11 40  1  0  0  0  0
 12 13  2  3  0  0  0
 13 14  1  0  0  0  0
 13 41  1  0  0  0  0
 14 15  1  0  0  0  0
 14 16  2  3  0  0  0
 15 42  1  0  0  0  0
 15 43  1  0  0  0  0
 15 44  1  0  0  0  0
 16 17  1  0  0  0  0
 16 18  1  0  0  0  0
 18 19  2  3  0  0  0
 18 45  1  0  0  0  0
 19 20  1  0  0  0  0
 19 23  1  0  0  0  0
 20 21  2  0  0  0  0
 20 46  1  0  0  0  0
 21 22  1  0  0  0  0
 21 47  1  0  0  0  0
 22 23  2  0  0  0  0
 22 48  1  0  0  0  0
 23 24  1  0  0  0  0
M  END
$$$$
