
 OpenBabel04232216513D

 31 31  0  0  1  0  0  0  0  0999 V2000
    0.9911   -0.1764    1.1952 C   0  0  0  0  0  0  0  0  0  0  0  0
    2.0319   -0.1149    0.0920 C   0  0  0  0  0  0  0  0  0  0  0  0
    3.0425   -1.2545    0.1850 C   0  0  3  0  0  0  0  0  0  0  0  0
    2.5483   -2.6824   -0.0025 C   0  0  0  0  0  0  0  0  0  0  0  0
    3.3636   -2.9159   -1.0525 C   0  0  0  0  0  0  0  0  0  0  0  0
    3.6642   -4.1311   -1.9284 C   0  0  0  0  0  0  0  0  0  0  0  0
    4.6425   -3.7790   -3.0392 C   0  0  0  0  0  0  0  0  0  0  0  0
    4.9560   -4.9558   -3.9559 C   0  0  0  0  0  0  0  0  0  0  0  0
    5.9452   -4.5405   -5.0404 C   0  0  0  0  0  0  0  0  0  0  0  0
    6.1911   -5.6494   -5.8964 O   0  0  0  0  0  0  0  0  0  0  0  0
    7.2130   -5.1928   -6.8187 O   0  0  0  0  0  0  0  0  0  0  0  0
    7.5872   -6.2624   -7.7167 O   0  0  0  0  0  0  0  0  0  0  0  0
    3.8180   -1.4726   -1.1330 C   0  0  0  0  0  0  0  0  0  0  0  0
    0.3224    0.6872    1.1216 H   0  0  0  0  0  0  0  0  0  0  0  0
    1.4567   -0.1683    2.1844 H   0  0  0  0  0  0  0  0  0  0  0  0
    0.3811   -1.0813    1.1111 H   0  0  0  0  0  0  0  0  0  0  0  0
    2.5715    0.8376    0.1644 H   0  0  0  0  0  0  0  0  0  0  0  0
    1.5208   -0.1166   -0.8780 H   0  0  0  0  0  0  0  0  0  0  0  0
    3.7015   -1.1266    1.0536 H   0  0  0  0  0  0  0  0  0  0  0  0
    1.8766   -3.3099    0.5760 H   0  0  0  0  0  0  0  0  0  0  0  0
    2.7176   -4.5342   -2.3129 H   0  0  0  0  0  0  0  0  0  0  0  0
    4.0321   -4.9452   -1.2897 H   0  0  0  0  0  0  0  0  0  0  0  0
    5.5756   -3.4064   -2.5973 H   0  0  0  0  0  0  0  0  0  0  0  0
    4.2300   -2.9580   -3.6395 H   0  0  0  0  0  0  0  0  0  0  0  0
    4.0380   -5.3335   -4.4219 H   0  0  0  0  0  0  0  0  0  0  0  0
    5.3726   -5.7911   -3.3801 H   0  0  0  0  0  0  0  0  0  0  0  0
    6.8883   -4.2113   -4.5878 H   0  0  0  0  0  0  0  0  0  0  0  0
    5.5354   -3.7182   -5.6380 H   0  0  0  0  0  0  0  0  0  0  0  0
    7.8218   -5.6857   -8.4624 H   0  0  0  0  0  0  0  0  0  0  0  0
    3.4431   -0.9208   -2.0031 H   0  0  0  0  0  0  0  0  0  0  0  0
    4.8959   -1.2982   -1.0602 H   0  0  0  0  0  0  0  0  0  0  0  0
  1  2  1  0  0  0  0
  1 14  1  0  0  0  0
  1 15  1  0  0  0  0
  1 16  1  0  0  0  0
  2  3  1  0  0  0  0
  2 17  1  0  0  0  0
  2 18  1  0  0  0  0
  3  4  1  0  0  0  0
  3 13  1  0  0  0  0
  3 19  1  0  0  0  0
  4  5  2  0  0  0  0
  4 20  1  0  0  0  0
  5  6  1  0  0  0  0
  5 13  1  0  0  0  0
  6  7  1  0  0  0  0
  6 21  1  0  0  0  0
  6 22  1  0  0  0  0
  7  8  1  0  0  0  0
  7 23  1  0  0  0  0
  7 24  1  0  0  0  0
  8  9  1  0  0  0  0
  8 25  1  0  0  0  0
  8 26  1  0  0  0  0
  9 10  1  0  0  0  0
  9 27  1  0  0  0  0
  9 28  1  0  0  0  0
 10 11  1  0  0  0  0
 11 12  1  0  0  0  0
 12 29  1  0  0  0  0
 13 30  1  0  0  0  0
 13 31  1  0  0  0  0
M  END
$$$$
