
 OpenBabel04232216573D

219218  0  0  0  0  0  0  0  0999 V2000
    1.1273    0.0725    0.1215 C   0  0  0  0  0  0  0  0  0  0  0  0
    2.9231    0.1486   -0.0474 S   0  0  0  0  0  0  0  0  0  0  0  0
    3.4165   -0.5650    1.5555 C   0  0  0  0  0  0  0  0  0  0  0  0
    4.9414   -0.5830    1.6104 C   0  0  0  0  0  0  0  0  0  0  0  0
    5.4445   -1.1647    2.9150 C   0  0  0  0  0  0  0  0  0  0  0  0
    6.9744   -1.1814    2.9307 C   0  0  0  0  0  0  0  0  0  0  0  0
    7.5068   -1.7660    4.2334 C   0  0  0  0  0  0  0  0  0  0  0  0
    9.0331   -1.7761    4.2326 C   0  0  0  0  0  0  0  0  0  0  0  0
    9.5500   -2.3617    5.5369 C   0  0  0  0  0  0  0  0  0  0  0  0
   11.0702   -2.3704    5.5421 C   0  0  0  0  0  0  0  0  0  0  0  0
   11.5846   -2.9572    6.8443 C   0  0  0  0  0  0  0  0  0  0  0  0
   13.1030   -2.9676    6.8480 C   0  0  0  0  0  0  0  0  0  0  0  0
   13.6139   -3.5522    8.1524 C   0  0  0  0  0  0  0  0  0  0  0  0
   15.1307   -3.5595    8.1558 C   0  0  0  0  0  0  0  0  0  0  0  0
   15.6407   -4.1453    9.4586 C   0  0  0  0  0  0  0  0  0  0  0  0
   17.1575   -4.1518    9.4601 C   0  0  0  0  0  0  0  0  0  0  0  0
   17.6685   -4.7350   10.7638 C   0  0  0  0  0  0  0  0  0  0  0  0
   19.1850   -4.7414   10.7659 C   0  0  0  0  0  0  0  0  0  0  0  0
   19.6955   -5.3231   12.0704 C   0  0  0  0  0  0  0  0  0  0  0  0
   21.2122   -5.3284   12.0734 C   0  0  0  0  0  0  0  0  0  0  0  0
   21.7226   -5.9095   13.3782 C   0  0  0  0  0  0  0  0  0  0  0  0
   23.2393   -5.9134   13.3821 C   0  0  0  0  0  0  0  0  0  0  0  0
   23.7494   -6.4933   14.6874 C   0  0  0  0  0  0  0  0  0  0  0  0
   25.2661   -6.4967   14.6914 C   0  0  0  0  0  0  0  0  0  0  0  0
   25.7761   -7.0774   15.9962 C   0  0  0  0  0  0  0  0  0  0  0  0
   27.2930   -7.0805   16.0007 C   0  0  0  0  0  0  0  0  0  0  0  0
   27.8024   -7.6618   17.3055 C   0  0  0  0  0  0  0  0  0  0  0  0
   29.3178   -7.6667   17.3091 C   0  0  0  0  0  0  0  0  0  0  0  0
   29.8300   -8.2465   18.6161 C   0  0  0  0  0  0  0  0  0  0  0  0
   31.3457   -8.2505   18.6159 C   0  0  0  0  0  0  0  0  0  0  0  0
   31.8546   -8.8322   19.9199 C   0  0  0  0  0  0  0  0  0  0  0  0
   33.3726   -8.8353   19.9245 C   0  0  0  0  0  0  0  0  0  0  0  0
   33.8826   -9.4165   21.2293 C   0  0  0  0  0  0  0  0  0  0  0  0
   35.3992   -9.4198   21.2334 C   0  0  0  0  0  0  0  0  0  0  0  0
   35.9091  -10.0017   22.5378 C   0  0  0  0  0  0  0  0  0  0  0  0
   37.4259  -10.0037   22.5423 C   0  0  0  0  0  0  0  0  0  0  0  0
   37.9363  -10.5867   23.8461 C   0  0  0  0  0  0  0  0  0  0  0  0
   39.4530  -10.5910   23.8494 C   0  0  0  0  0  0  0  0  0  0  0  0
   39.9630  -11.1742   25.1534 C   0  0  0  0  0  0  0  0  0  0  0  0
   41.4797  -11.1776   25.1573 C   0  0  0  0  0  0  0  0  0  0  0  0
   41.9900  -11.7616   26.4607 C   0  0  0  0  0  0  0  0  0  0  0  0
   43.5066  -11.7651   26.4648 C   0  0  0  0  0  0  0  0  0  0  0  0
   44.0164  -12.3480   27.7688 C   0  0  0  0  0  0  0  0  0  0  0  0
   45.5329  -12.3511   27.7729 C   0  0  0  0  0  0  0  0  0  0  0  0
   46.0421  -12.9326   29.0777 C   0  0  0  0  0  0  0  0  0  0  0  0
   47.5598  -12.9347   29.0812 C   0  0  0  0  0  0  0  0  0  0  0  0
   48.0690  -13.5202   30.3845 C   0  0  0  0  0  0  0  0  0  0  0  0
   49.5861  -13.5239   30.3881 C   0  0  0  0  0  0  0  0  0  0  0  0
   50.0996  -14.1096   31.6907 C   0  0  0  0  0  0  0  0  0  0  0  0
   51.6181  -14.1164   31.6944 C   0  0  0  0  0  0  0  0  0  0  0  0
   52.1340  -14.6994   32.9990 C   0  0  0  0  0  0  0  0  0  0  0  0
   53.6545  -14.7066   33.0065 C   0  0  0  0  0  0  0  0  0  0  0  0
   54.1673  -15.2929   34.3133 C   0  0  0  0  0  0  0  0  0  0  0  0
   55.6896  -15.3112   34.3335 C   0  0  0  0  0  0  0  0  0  0  0  0
   56.2046  -15.8948   35.6485 C   0  0  0  0  0  0  0  0  0  0  0  0
   57.7322  -15.9068   35.6655 C   0  0  0  0  0  0  0  0  0  0  0  0
   58.2988  -16.4810   36.9684 C   0  0  0  0  0  0  0  0  0  0  0  0
   60.1194  -16.4109   36.8482 S   0  0  0  0  0  0  0  0  0  0  0  0
   60.6408  -17.1458   38.4461 C   0  0  0  0  0  0  0  0  0  0  0  0
   62.4840  -17.1743   38.4272 S   0  0  0  0  0  0  0  0  0  0  0  0
   62.8813  -17.9713   40.0154 C   0  0  0  0  0  0  0  0  0  0  0  0
   62.2745  -19.6882   40.1045 S   0  0  0  0  0  0  0  0  0  0  0  0
   62.8256  -20.1909   41.7676 C   0  0  0  0  0  0  0  0  0  0  0  0
   62.1144  -19.1572   43.0896 S   0  0  0  0  0  0  0  0  0  0  0  0
   62.8226  -19.9343   44.5851 C   0  0  0  0  0  0  0  0  0  0  0  0
   64.6426  -19.8782   44.6028 S   0  0  0  0  0  0  0  0  0  0  0  0
   65.0064  -20.6940   46.1920 C   0  0  0  0  0  0  0  0  0  0  0  0
   64.3468  -22.3898   46.2633 S   0  0  0  0  0  0  0  0  0  0  0  0
   64.8989  -22.9315   47.9252 C   0  0  0  0  0  0  0  0  0  0  0  0
   64.1968  -21.8923   49.2481 S   0  0  0  0  0  0  0  0  0  0  0  0
   64.8866  -22.6888   50.7489 C   0  0  0  0  0  0  0  0  0  0  0  0
   66.7093  -22.6609   50.7777 S   0  0  0  0  0  0  0  0  0  0  0  0
   67.0583  -23.4694   52.3763 C   0  0  0  0  0  0  0  0  0  0  0  0
   66.4419  -25.1816   52.4275 S   0  0  0  0  0  0  0  0  0  0  0  0
   66.9519  -25.7026   54.1116 C   0  0  0  0  0  0  0  0  0  0  0  0
   66.1728  -24.6409   55.3597 S   0  0  0  0  0  0  0  0  0  0  0  0
   66.7329  -25.3921   56.9408 C   0  0  0  0  0  0  0  0  0  0  0  0
   66.0158  -24.3300   58.2670 S   0  0  0  0  0  0  0  0  0  0  0  0
   66.7149  -25.0357   59.7826 C   0  0  0  0  0  0  0  0  0  0  0  0
   68.5251  -25.0723   59.8848 S   0  0  0  0  0  0  0  0  0  0  0  0
   68.9119  -23.3115   59.6971 C   0  0  0  0  0  0  0  0  0  0  0  0
    0.6792    0.4796   -0.7893 H   0  0  0  0  0  0  0  0  0  0  0  0
    0.7905    0.6740    0.9693 H   0  0  0  0  0  0  0  0  0  0  0  0
    0.7907   -0.9604    0.2386 H   0  0  0  0  0  0  0  0  0  0  0  0
    3.0212   -1.5825    1.6465 H   0  0  0  0  0  0  0  0  0  0  0  0
    3.0154    0.0431    2.3735 H   0  0  0  0  0  0  0  0  0  0  0  0
    5.3350    0.4364    1.5050 H   0  0  0  0  0  0  0  0  0  0  0  0
    5.3406   -1.1731    0.7749 H   0  0  0  0  0  0  0  0  0  0  0  0
    5.0688   -2.1902    3.0498 H   0  0  0  0  0  0  0  0  0  0  0  0
    5.0778   -0.5781    3.7662 H   0  0  0  0  0  0  0  0  0  0  0  0
    7.3582   -0.1660    2.8050 H   0  0  0  0  0  0  0  0  0  0  0  0
    7.3470   -1.7745    2.0837 H   0  0  0  0  0  0  0  0  0  0  0  0
    7.1363   -2.7869    4.3564 H   0  0  0  0  0  0  0  0  0  0  0  0
    7.1418   -1.1832    5.0843 H   0  0  0  0  0  0  0  0  0  0  0  0
    9.4144   -0.7563    4.1096 H   0  0  0  0  0  0  0  0  0  0  0  0
    9.4072   -2.3671    3.3883 H   0  0  0  0  0  0  0  0  0  0  0  0
    9.1754   -3.3844    5.6625 H   0  0  0  0  0  0  0  0  0  0  0  0
    9.1696   -1.7705    6.3810 H   0  0  0  0  0  0  0  0  0  0  0  0
   11.4526   -1.3495    5.4182 H   0  0  0  0  0  0  0  0  0  0  0  0
   11.4461   -2.9616    4.6964 H   0  0  0  0  0  0  0  0  0  0  0  0
   11.2064   -3.9794    6.9719 H   0  0  0  0  0  0  0  0  0  0  0  0
   11.2151   -2.3675    7.6933 H   0  0  0  0  0  0  0  0  0  0  0  0
   13.4849   -1.9471    6.7222 H   0  0  0  0  0  0  0  0  0  0  0  0
   13.4750   -3.5599    6.0032 H   0  0  0  0  0  0  0  0  0  0  0  0
   13.2354   -4.5742    8.2776 H   0  0  0  0  0  0  0  0  0  0  0  0
   13.2412   -2.9619    8.9986 H   0  0  0  0  0  0  0  0  0  0  0  0
   15.5102   -2.5376    8.0319 H   0  0  0  0  0  0  0  0  0  0  0  0
   15.5040   -4.1493    7.3095 H   0  0  0  0  0  0  0  0  0  0  0  0
   15.2622   -5.1675    9.5829 H   0  0  0  0  0  0  0  0  0  0  0  0
   15.2682   -3.5559   10.3055 H   0  0  0  0  0  0  0  0  0  0  0  0
   17.5360   -3.1300    9.3339 H   0  0  0  0  0  0  0  0  0  0  0  0
   17.5301   -4.7427    8.6143 H   0  0  0  0  0  0  0  0  0  0  0  0
   17.2896   -5.7568   10.8897 H   0  0  0  0  0  0  0  0  0  0  0  0
   17.2954   -4.1436   11.6090 H   0  0  0  0  0  0  0  0  0  0  0  0
   19.5635   -3.7198   10.6385 H   0  0  0  0  0  0  0  0  0  0  0  0
   19.5577   -5.3337    9.9212 H   0  0  0  0  0  0  0  0  0  0  0  0
   19.3178   -6.3452   12.1971 H   0  0  0  0  0  0  0  0  0  0  0  0
   19.3219   -4.7315   12.9153 H   0  0  0  0  0  0  0  0  0  0  0  0
   21.5901   -4.3065   11.9461 H   0  0  0  0  0  0  0  0  0  0  0  0
   21.5857   -5.9205   11.2289 H   0  0  0  0  0  0  0  0  0  0  0  0
   21.3455   -6.9318   13.5052 H   0  0  0  0  0  0  0  0  0  0  0  0
   21.3483   -5.3178   14.2227 H   0  0  0  0  0  0  0  0  0  0  0  0
   23.6159   -4.8910   13.2547 H   0  0  0  0  0  0  0  0  0  0  0  0
   23.6142   -6.5054   12.5381 H   0  0  0  0  0  0  0  0  0  0  0  0
   23.3731   -7.5158   14.8148 H   0  0  0  0  0  0  0  0  0  0  0  0
   23.3745   -5.9016   15.5317 H   0  0  0  0  0  0  0  0  0  0  0  0
   25.6428   -5.4742   14.5646 H   0  0  0  0  0  0  0  0  0  0  0  0
   25.6409   -7.0881   13.8469 H   0  0  0  0  0  0  0  0  0  0  0  0
   25.3998   -8.1001   16.1231 H   0  0  0  0  0  0  0  0  0  0  0  0
   25.4009   -6.4863   16.8407 H   0  0  0  0  0  0  0  0  0  0  0  0
   27.6692   -6.0576   15.8741 H   0  0  0  0  0  0  0  0  0  0  0  0
   27.6680   -7.6710   15.1554 H   0  0  0  0  0  0  0  0  0  0  0  0
   27.4243   -8.6842   17.4324 H   0  0  0  0  0  0  0  0  0  0  0  0
   27.4292   -7.0697   18.1500 H   0  0  0  0  0  0  0  0  0  0  0  0
   29.6938   -6.6440   17.1852 H   0  0  0  0  0  0  0  0  0  0  0  0
   29.6931   -8.2552   16.4637 H   0  0  0  0  0  0  0  0  0  0  0  0
   29.4546   -9.2687   18.7438 H   0  0  0  0  0  0  0  0  0  0  0  0
   29.4584   -7.6560   19.4607 H   0  0  0  0  0  0  0  0  0  0  0  0
   31.7240   -7.2285   18.4894 H   0  0  0  0  0  0  0  0  0  0  0  0
   31.7187   -8.8415   17.7720 H   0  0  0  0  0  0  0  0  0  0  0  0
   31.4793   -9.8555   20.0465 H   0  0  0  0  0  0  0  0  0  0  0  0
   31.4803   -8.2424   20.7657 H   0  0  0  0  0  0  0  0  0  0  0  0
   33.7486   -7.8130   19.7978 H   0  0  0  0  0  0  0  0  0  0  0  0
   33.7475   -9.4268   19.0800 H   0  0  0  0  0  0  0  0  0  0  0  0
   33.5061  -10.4392   21.3557 H   0  0  0  0  0  0  0  0  0  0  0  0
   33.5076   -8.8255   22.0741 H   0  0  0  0  0  0  0  0  0  0  0  0
   35.7758   -8.3972   21.1076 H   0  0  0  0  0  0  0  0  0  0  0  0
   35.7742  -10.0102   20.3884 H   0  0  0  0  0  0  0  0  0  0  0  0
   35.5334  -11.0247   22.6635 H   0  0  0  0  0  0  0  0  0  0  0  0
   35.5333   -9.4115   23.3827 H   0  0  0  0  0  0  0  0  0  0  0  0
   37.8015   -8.9806   22.4174 H   0  0  0  0  0  0  0  0  0  0  0  0
   37.8015  -10.5933   21.6970 H   0  0  0  0  0  0  0  0  0  0  0  0
   37.5592  -11.6093   23.9711 H   0  0  0  0  0  0  0  0  0  0  0  0
   37.5620   -9.9968   24.6918 H   0  0  0  0  0  0  0  0  0  0  0  0
   39.8304   -9.5687   23.7240 H   0  0  0  0  0  0  0  0  0  0  0  0
   39.8272  -11.1813   23.0039 H   0  0  0  0  0  0  0  0  0  0  0  0
   39.5864  -12.1970   25.2782 H   0  0  0  0  0  0  0  0  0  0  0  0
   39.5879  -10.5844   25.9988 H   0  0  0  0  0  0  0  0  0  0  0  0
   41.8564  -10.1548   25.0328 H   0  0  0  0  0  0  0  0  0  0  0  0
   41.8544  -11.7671   24.3115 H   0  0  0  0  0  0  0  0  0  0  0  0
   41.6133  -12.7843   26.5853 H   0  0  0  0  0  0  0  0  0  0  0  0
   41.6150  -11.1727   27.3068 H   0  0  0  0  0  0  0  0  0  0  0  0
   43.8837  -10.7426   26.3398 H   0  0  0  0  0  0  0  0  0  0  0  0
   43.8817  -12.3552   25.6195 H   0  0  0  0  0  0  0  0  0  0  0  0
   43.6401  -13.3708   27.8943 H   0  0  0  0  0  0  0  0  0  0  0  0
   43.6418  -11.7581   28.6144 H   0  0  0  0  0  0  0  0  0  0  0  0
   45.9097  -11.3286   27.6470 H   0  0  0  0  0  0  0  0  0  0  0  0
   45.9082  -12.9418   26.9282 H   0  0  0  0  0  0  0  0  0  0  0  0
   45.6656  -13.9553   29.2035 H   0  0  0  0  0  0  0  0  0  0  0  0
   45.6661  -12.3429   29.9230 H   0  0  0  0  0  0  0  0  0  0  0  0
   47.9360  -11.9134   28.9557 H   0  0  0  0  0  0  0  0  0  0  0  0
   47.9345  -13.5247   28.2355 H   0  0  0  0  0  0  0  0  0  0  0  0
   47.6916  -14.5426   30.5089 H   0  0  0  0  0  0  0  0  0  0  0  0
   47.6935  -12.9313   31.2302 H   0  0  0  0  0  0  0  0  0  0  0  0
   49.9617  -12.5008   30.2635 H   0  0  0  0  0  0  0  0  0  0  0  0
   49.9594  -14.1121   29.5407 H   0  0  0  0  0  0  0  0  0  0  0  0
   49.7205  -15.1314   31.8155 H   0  0  0  0  0  0  0  0  0  0  0  0
   49.7252  -13.5195   32.5366 H   0  0  0  0  0  0  0  0  0  0  0  0
   51.9946  -13.0940   31.5679 H   0  0  0  0  0  0  0  0  0  0  0  0
   51.9911  -14.7072   30.8484 H   0  0  0  0  0  0  0  0  0  0  0  0
   51.7549  -15.7214   33.1240 H   0  0  0  0  0  0  0  0  0  0  0  0
   51.7583  -14.1092   33.8439 H   0  0  0  0  0  0  0  0  0  0  0  0
   54.0296  -13.6828   32.8819 H   0  0  0  0  0  0  0  0  0  0  0  0
   54.0273  -15.2935   32.1586 H   0  0  0  0  0  0  0  0  0  0  0  0
   53.7817  -16.3129   34.4357 H   0  0  0  0  0  0  0  0  0  0  0  0
   53.7914  -14.7003   35.1554 H   0  0  0  0  0  0  0  0  0  0  0  0
   56.0698  -14.2905   34.2020 H   0  0  0  0  0  0  0  0  0  0  0  0
   56.0606  -15.9042   33.4885 H   0  0  0  0  0  0  0  0  0  0  0  0
   55.8201  -16.9141   35.7725 H   0  0  0  0  0  0  0  0  0  0  0  0
   55.8262  -15.2975   36.4867 H   0  0  0  0  0  0  0  0  0  0  0  0
   58.0889  -14.8784   35.5200 H   0  0  0  0  0  0  0  0  0  0  0  0
   58.0847  -16.4956   34.8080 H   0  0  0  0  0  0  0  0  0  0  0  0
   57.9673  -17.5162   37.0995 H   0  0  0  0  0  0  0  0  0  0  0  0
   57.9604  -15.8861   37.8224 H   0  0  0  0  0  0  0  0  0  0  0  0
   60.2464  -18.1577   38.5236 H   0  0  0  0  0  0  0  0  0  0  0  0
   60.2837  -16.5286   39.2761 H   0  0  0  0  0  0  0  0  0  0  0  0
   62.4967  -17.3506   40.8278 H   0  0  0  0  0  0  0  0  0  0  0  0
   63.9735  -17.9879   40.0934 H   0  0  0  0  0  0  0  0  0  0  0  0
   63.9182  -20.1876   41.7886 H   0  0  0  0  0  0  0  0  0  0  0  0
   62.4845  -21.2217   41.9081 H   0  0  0  0  0  0  0  0  0  0  0  0
   62.4360  -20.9534   44.6550 H   0  0  0  0  0  0  0  0  0  0  0  0
   62.4456  -19.3633   45.4399 H   0  0  0  0  0  0  0  0  0  0  0  0
   64.6099  -20.0708   46.9969 H   0  0  0  0  0  0  0  0  0  0  0  0
   66.0961  -20.7301   46.2887 H   0  0  0  0  0  0  0  0  0  0  0  0
   65.9913  -22.9361   47.9441 H   0  0  0  0  0  0  0  0  0  0  0  0
   64.5456  -23.9594   48.0558 H   0  0  0  0  0  0  0  0  0  0  0  0
   64.4882  -23.7038   50.8143 H   0  0  0  0  0  0  0  0  0  0  0  0
   64.5106  -22.1155   51.6030 H   0  0  0  0  0  0  0  0  0  0  0  0
   66.6482  -22.8463   53.1746 H   0  0  0  0  0  0  0  0  0  0  0  0
   68.1476  -23.4906   52.4830 H   0  0  0  0  0  0  0  0  0  0  0  0
   68.0434  -25.7022   54.1840 H   0  0  0  0  0  0  0  0  0  0  0  0
   66.5942  -26.7289   54.2415 H   0  0  0  0  0  0  0  0  0  0  0  0
   67.8244  -25.3827   56.9869 H   0  0  0  0  0  0  0  0  0  0  0  0
   66.3535  -26.4128   57.0375 H   0  0  0  0  0  0  0  0  0  0  0  0
   66.3263  -26.0477   59.9188 H   0  0  0  0  0  0  0  0  0  0  0  0
   66.3400  -24.4437   60.6259 H   0  0  0  0  0  0  0  0  0  0  0  0
   69.9994  -23.1972   59.6859 H   0  0  0  0  0  0  0  0  0  0  0  0
   68.5118  -22.7302   60.5319 H   0  0  0  0  0  0  0  0  0  0  0  0
   68.5301  -22.9173   58.7528 H   0  0  0  0  0  0  0  0  0  0  0  0
  1  2  1  0  0  0  0
  1 82  1  0  0  0  0
  1 83  1  0  0  0  0
  1 84  1  0  0  0  0
  2  3  1  0  0  0  0
  3  4  1  0  0  0  0
  3 85  1  0  0  0  0
  3 86  1  0  0  0  0
  4  5  1  0  0  0  0
  4 87  1  0  0  0  0
  4 88  1  0  0  0  0
  5  6  1  0  0  0  0
  5 89  1  0  0  0  0
  5 90  1  0  0  0  0
  6  7  1  0  0  0  0
  6 91  1  0  0  0  0
  6 92  1  0  0  0  0
  7  8  1  0  0  0  0
  7 93  1  0  0  0  0
  7 94  1  0  0  0  0
  8  9  1  0  0  0  0
  8 95  1  0  0  0  0
  8 96  1  0  0  0  0
  9 10  1  0  0  0  0
  9 97  1  0  0  0  0
  9 98  1  0  0  0  0
 10 11  1  0  0  0  0
 10 99  1  0  0  0  0
 10100  1  0  0  0  0
 11 12  1  0  0  0  0
 11101  1  0  0  0  0
 11102  1  0  0  0  0
 12 13  1  0  0  0  0
 12103  1  0  0  0  0
 12104  1  0  0  0  0
 13 14  1  0  0  0  0
 13105  1  0  0  0  0
 13106  1  0  0  0  0
 14 15  1  0  0  0  0
 14107  1  0  0  0  0
 14108  1  0  0  0  0
 15 16  1  0  0  0  0
 15109  1  0  0  0  0
 15110  1  0  0  0  0
 16 17  1  0  0  0  0
 16111  1  0  0  0  0
 16112  1  0  0  0  0
 17 18  1  0  0  0  0
 17113  1  0  0  0  0
 17114  1  0  0  0  0
 18 19  1  0  0  0  0
 18115  1  0  0  0  0
 18116  1  0  0  0  0
 19 20  1  0  0  0  0
 19117  1  0  0  0  0
 19118  1  0  0  0  0
 20 21  1  0  0  0  0
 20119  1  0  0  0  0
 20120  1  0  0  0  0
 21 22  1  0  0  0  0
 21121  1  0  0  0  0
 21122  1  0  0  0  0
 22 23  1  0  0  0  0
 22123  1  0  0  0  0
 22124  1  0  0  0  0
 23 24  1  0  0  0  0
 23125  1  0  0  0  0
 23126  1  0  0  0  0
 24 25  1  0  0  0  0
 24127  1  0  0  0  0
 24128  1  0  0  0  0
 25 26  1  0  0  0  0
 25129  1  0  0  0  0
 25130  1  0  0  0  0
 26 27  1  0  0  0  0
 26131  1  0  0  0  0
 26132  1  0  0  0  0
 27 28  1  0  0  0  0
 27133  1  0  0  0  0
 27134  1  0  0  0  0
 28 29  1  0  0  0  0
 28135  1  0  0  0  0
 28136  1  0  0  0  0
 29 30  1  0  0  0  0
 29137  1  0  0  0  0
 29138  1  0  0  0  0
 30 31  1  0  0  0  0
 30139  1  0  0  0  0
 30140  1  0  0  0  0
 31 32  1  0  0  0  0
 31141  1  0  0  0  0
 31142  1  0  0  0  0
 32 33  1  0  0  0  0
 32143  1  0  0  0  0
 32144  1  0  0  0  0
 33 34  1  0  0  0  0
 33145  1  0  0  0  0
 33146  1  0  0  0  0
 34 35  1  0  0  0  0
 34147  1  0  0  0  0
 34148  1  0  0  0  0
 35 36  1  0  0  0  0
 35149  1  0  0  0  0
 35150  1  0  0  0  0
 36 37  1  0  0  0  0
 36151  1  0  0  0  0
 36152  1  0  0  0  0
 37 38  1  0  0  0  0
 37153  1  0  0  0  0
 37154  1  0  0  0  0
 38 39  1  0  0  0  0
 38155  1  0  0  0  0
 38156  1  0  0  0  0
 39 40  1  0  0  0  0
 39157  1  0  0  0  0
 39158  1  0  0  0  0
 40 41  1  0  0  0  0
 40159  1  0  0  0  0
 40160  1  0  0  0  0
 41 42  1  0  0  0  0
 41161  1  0  0  0  0
 41162  1  0  0  0  0
 42 43  1  0  0  0  0
 42163  1  0  0  0  0
 42164  1  0  0  0  0
 43 44  1  0  0  0  0
 43165  1  0  0  0  0
 43166  1  0  0  0  0
 44 45  1  0  0  0  0
 44167  1  0  0  0  0
 44168  1  0  0  0  0
 45 46  1  0  0  0  0
 45169  1  0  0  0  0
 45170  1  0  0  0  0
 46 47  1  0  0  0  0
 46171  1  0  0  0  0
 46172  1  0  0  0  0
 47 48  1  0  0  0  0
 47173  1  0  0  0  0
 47174  1  0  0  0  0
 48 49  1  0  0  0  0
 48175  1  0  0  0  0
 48176  1  0  0  0  0
 49 50  1  0  0  0  0
 49177  1  0  0  0  0
 49178  1  0  0  0  0
 50 51  1  0  0  0  0
 50179  1  0  0  0  0
 50180  1  0  0  0  0
 51 52  1  0  0  0  0
 51181  1  0  0  0  0
 51182  1  0  0  0  0
 52 53  1  0  0  0  0
 52183  1  0  0  0  0
 52184  1  0  0  0  0
 53 54  1  0  0  0  0
 53185  1  0  0  0  0
 53186  1  0  0  0  0
 54 55  1  0  0  0  0
 54187  1  0  0  0  0
 54188  1  0  0  0  0
 55 56  1  0  0  0  0
 55189  1  0  0  0  0
 55190  1  0  0  0  0
 56 57  1  0  0  0  0
 56191  1  0  0  0  0
 56192  1  0  0  0  0
 57 58  1  0  0  0  0
 57193  1  0  0  0  0
 57194  1  0  0  0  0
 58 59  1  0  0  0  0
 59 60  1  0  0  0  0
 59195  1  0  0  0  0
 59196  1  0  0  0  0
 60 61  1  0  0  0  0
 61 62  1  0  0  0  0
 61197  1  0  0  0  0
 61198  1  0  0  0  0
 62 63  1  0  0  0  0
 63 64  1  0  0  0  0
 63199  1  0  0  0  0
 63200  1  0  0  0  0
 64 65  1  0  0  0  0
 65 66  1  0  0  0  0
 65201  1  0  0  0  0
 65202  1  0  0  0  0
 66 67  1  0  0  0  0
 67 68  1  0  0  0  0
 67203  1  0  0  0  0
 67204  1  0  0  0  0
 68 69  1  0  0  0  0
 69 70  1  0  0  0  0
 69205  1  0  0  0  0
 69206  1  0  0  0  0
 70 71  1  0  0  0  0
 71 72  1  0  0  0  0
 71207  1  0  0  0  0
 71208  1  0  0  0  0
 72 73  1  0  0  0  0
 73 74  1  0  0  0  0
 73209  1  0  0  0  0
 73210  1  0  0  0  0
 74 75  1  0  0  0  0
 75 76  1  0  0  0  0
 75211  1  0  0  0  0
 75212  1  0  0  0  0
 76 77  1  0  0  0  0
 77 78  1  0  0  0  0
 77213  1  0  0  0  0
 77214  1  0  0  0  0
 78 79  1  0  0  0  0
 79 80  1  0  0  0  0
 79215  1  0  0  0  0
 79216  1  0  0  0  0
 80 81  1  0  0  0  0
 81217  1  0  0  0  0
 81218  1  0  0  0  0
 81219  1  0  0  0  0
M  END
$$$$
