
 OpenBabel04232216443D

 63 64  0  0  0  0  0  0  0  0999 V2000
    7.2066   -2.5243    1.6238 C   0  0  0  0  0  0  0  0  0  0  0  0
    7.8929   -3.7247    0.6137 C   0  0  0  0  0  0  0  0  0  0  0  0
    6.4773   -3.5617   -0.1394 C   0  0  0  0  0  0  0  0  0  0  0  0
    4.5829   -3.3148    0.0008 C   0  0  0  0  0  0  0  0  0  0  0  0
    3.2776   -3.7444   -1.1152 C   0  0  0  0  0  0  0  0  0  0  0  0
    6.3929   -2.5292   -1.3751 C   0  0  0  0  0  0  0  0  0  0  0  0
    6.1627   -3.5535   -2.4494 C   0  0  0  0  0  0  0  0  0  0  0  0
    7.5388   -4.1460   -2.5039 C   0  0  0  0  0  0  0  0  0  0  0  0
    7.7317   -5.6387   -2.5655 C   0  0  0  0  0  0  0  0  0  0  0  0
    9.2648   -5.8133   -2.3344 C   0  0  0  0  0  0  0  0  0  0  0  0
   10.0910   -6.9325   -3.1506 C   0  0  0  0  0  0  0  0  0  0  0  0
   11.7533   -6.9120   -3.6838 C   0  0  0  0  0  0  0  0  0  0  0  0
   12.0347   -6.0024   -4.4970 O   0  0  0  0  0  0  0  0  0  0  0  0
   13.1559   -7.4944   -2.7566 C   0  0  0  0  0  0  0  0  0  0  0  0
   12.6414   -6.3983   -1.7751 C   0  0  0  0  0  0  0  0  0  0  0  0
   11.4676   -6.2150   -1.0509 C   0  0  0  0  0  0  0  0  0  0  0  0
   11.1473   -4.9401    0.0689 C   0  0  0  0  0  0  0  0  0  0  0  0
   13.0725   -5.4020    0.5416 C   0  0  0  0  0  0  0  0  0  0  0  0
   14.9547   -5.9045   -0.2514 C   0  0  0  0  0  0  0  0  0  0  0  0
   16.2036   -7.0351   -1.1641 C   0  0  0  0  0  0  0  0  0  0  0  0
   17.9033   -7.4707   -1.9747 C   0  0  0  0  0  0  0  0  0  0  0  0
   18.1089   -8.9412   -2.9674 C   0  0  0  0  0  0  0  0  0  0  0  0
   17.3758   -9.7346   -1.8902 C   0  0  0  0  0  0  0  0  0  0  0  0
   15.6467   -9.5565   -2.3788 C   0  0  0  0  0  0  0  0  0  0  0  0
   14.0221   -8.6061   -2.2580 C   0  0  0  0  0  0  0  0  0  0  0  0
    9.7764   -4.1338    0.5197 N   0  0  0  0  0  0  0  0  0  0  0  0
    6.2198   -2.9074    2.0227 H   0  0  0  0  0  0  0  0  0  0  0  0
    6.7972   -1.6646    1.0019 H   0  0  0  0  0  0  0  0  0  0  0  0
    7.6731   -2.0242    2.4487 H   0  0  0  0  0  0  0  0  0  0  0  0
    4.4166   -2.2346   -0.1532 H   0  0  0  0  0  0  0  0  0  0  0  0
    4.1858   -3.4283    1.0024 H   0  0  0  0  0  0  0  0  0  0  0  0
    3.4832   -3.7523   -2.2003 H   0  0  0  0  0  0  0  0  0  0  0  0
    2.4377   -2.9996   -1.0693 H   0  0  0  0  0  0  0  0  0  0  0  0
    2.7704   -4.6899   -0.8658 H   0  0  0  0  0  0  0  0  0  0  0  0
    7.2740   -1.8639   -1.3914 H   0  0  0  0  0  0  0  0  0  0  0  0
    5.5782   -1.7656   -1.4196 H   0  0  0  0  0  0  0  0  0  0  0  0
    5.7339   -3.1311   -3.3631 H   0  0  0  0  0  0  0  0  0  0  0  0
    5.4401   -4.3103   -2.1190 H   0  0  0  0  0  0  0  0  0  0  0  0
    7.9644   -4.0556   -1.5180 H   0  0  0  0  0  0  0  0  0  0  0  0
    8.2256   -3.4521   -2.9861 H   0  0  0  0  0  0  0  0  0  0  0  0
    7.3085   -6.0543   -3.4688 H   0  0  0  0  0  0  0  0  0  0  0  0
    7.1857   -6.0864   -1.7023 H   0  0  0  0  0  0  0  0  0  0  0  0
    9.2425   -6.0522   -1.2535 H   0  0  0  0  0  0  0  0  0  0  0  0
    9.7644   -4.8280   -2.3782 H   0  0  0  0  0  0  0  0  0  0  0  0
    9.5397   -6.9647   -4.0892 H   0  0  0  0  0  0  0  0  0  0  0  0
    9.9584   -7.8577   -2.5947 H   0  0  0  0  0  0  0  0  0  0  0  0
   13.1970   -5.5009   -2.0921 H   0  0  0  0  0  0  0  0  0  0  0  0
   10.9118   -7.0957   -0.7792 H   0  0  0  0  0  0  0  0  0  0  0  0
   12.8333   -6.5265    0.6515 H   0  0  0  0  0  0  0  0  0  0  0  0
   13.2374   -5.2461    1.6025 H   0  0  0  0  0  0  0  0  0  0  0  0
   14.6896   -6.8617    0.2002 H   0  0  0  0  0  0  0  0  0  0  0  0
   14.7438   -5.4728   -1.1757 H   0  0  0  0  0  0  0  0  0  0  0  0
   15.7671   -7.0459   -2.1680 H   0  0  0  0  0  0  0  0  0  0  0  0
   16.1717   -7.9654   -0.5762 H   0  0  0  0  0  0  0  0  0  0  0  0
   18.7134   -7.5474   -1.2237 H   0  0  0  0  0  0  0  0  0  0  0  0
   18.2282   -6.7228   -2.7102 H   0  0  0  0  0  0  0  0  0  0  0  0
   19.2367   -8.8379   -3.0925 H   0  0  0  0  0  0  0  0  0  0  0  0
   18.4721   -9.9841   -3.2847 H   0  0  0  0  0  0  0  0  0  0  0  0
   17.6294  -10.8365   -1.8420 H   0  0  0  0  0  0  0  0  0  0  0  0
   17.9556   -9.4684   -0.9689 H   0  0  0  0  0  0  0  0  0  0  0  0
   15.3782  -10.3992   -1.7276 H   0  0  0  0  0  0  0  0  0  0  0  0
   15.7191   -9.9600   -3.3997 H   0  0  0  0  0  0  0  0  0  0  0  0
   13.6623   -9.0524   -1.3303 H   0  0  0  0  0  0  0  0  0  0  0  0
  1  2  1  0  0  0  0
  1 27  1  0  0  0  0
  1 28  1  0  0  0  0
  1 29  1  0  0  0  0
  2  3  2  3  0  0  0
  2 26  1  0  0  0  0
  3  4  1  0  0  0  0
  3  6  1  0  0  0  0
  4  5  1  0  0  0  0
  4 30  1  0  0  0  0
  4 31  1  0  0  0  0
  5 32  1  0  0  0  0
  5 33  1  0  0  0  0
  5 34  1  0  0  0  0
  6  7  1  0  0  0  0
  6 35  1  0  0  0  0
  6 36  1  0  0  0  0
  7  8  1  0  0  0  0
  7 37  1  0  0  0  0
  7 38  1  0  0  0  0
  8  9  1  0  0  0  0
  8 39  1  0  0  0  0
  8 40  1  0  0  0  0
  9 10  1  0  0  0  0
  9 41  1  0  0  0  0
  9 42  1  0  0  0  0
 10 11  1  0  0  0  0
 10 43  1  0  0  0  0
 10 44  1  0  0  0  0
 11 12  1  0  0  0  0
 11 45  1  0  0  0  0
 11 46  1  0  0  0  0
 12 13  2  0  0  0  0
 12 14  1  0  0  0  0
 14 15  1  0  0  0  0
 14 25  2  3  0  0  0
 15 16  2  3  0  0  0
 15 47  1  0  0  0  0
 16 17  1  0  0  0  0
 16 48  1  0  0  0  0
 17 18  1  0  0  0  0
 17 26  2  3  0  0  0
 18 19  1  0  0  0  0
 18 49  1  0  0  0  0
 18 50  1  0  0  0  0
 19 20  1  0  0  0  0
 19 51  1  0  0  0  0
 19 52  1  0  0  0  0
 20 21  1  0  0  0  0
 20 53  1  0  0  0  0
 20 54  1  0  0  0  0
 21 22  1  0  0  0  0
 21 55  1  0  0  0  0
 21 56  1  0  0  0  0
 22 23  1  0  0  0  0
 22 57  1  0  0  0  0
 22 58  1  0  0  0  0
 23 24  1  0  0  0  0
 23 59  1  0  0  0  0
 23 60  1  0  0  0  0
 24 25  1  0  0  0  0
 24 61  1  0  0  0  0
 24 62  1  0  0  0  0
 25 63  1  0  0  0  0
M  END
$$$$
