
 OpenBabel04232216583D

 46 45  0  0  0  0  0  0  0  0999 V2000
    2.9078   -0.5699    2.7066 N   0  0  0  0  0  0  0  0  0  0  0  0
    4.3573   -0.5871    2.6923 N   0  0  0  0  0  0  0  0  0  0  0  0
    4.8770   -0.3185    1.3426 C   0  0  0  0  0  0  0  0  0  0  0  0
    4.4741    1.0208    0.8952 N   0  0  0  0  0  0  0  0  0  0  0  0
    4.9428    2.0250    1.8246 N   0  0  0  0  0  0  0  0  0  0  0  0
    6.3468    2.1252    1.7470 N   0  0  0  0  0  0  0  0  0  0  0  0
    6.8264    3.0773    2.6895 N   0  0  0  0  0  0  0  0  0  0  0  0
    8.2834    3.0203    2.6907 C   0  0  0  0  0  0  0  0  0  0  0  0
    8.7575    4.0914    3.5506 N   0  0  0  0  0  0  0  0  0  0  0  0
   10.1894    4.0497    3.6248 N   0  0  0  0  0  0  0  0  0  0  0  0
   10.6115    5.0540    4.5323 N   0  0  0  0  0  0  0  0  0  0  0  0
   10.1734    4.7248    5.8564 N   0  0  0  0  0  0  0  0  0  0  0  0
   10.6518    5.7563    6.7752 C   0  0  0  0  0  0  0  0  0  0  0  0
   10.1376    5.4502    8.1791 C   0  0  0  0  0  0  0  0  0  0  0  0
   10.6158    6.5073    9.1725 C   0  0  0  0  0  0  0  0  0  0  0  0
   10.1069    6.2026   10.5792 C   0  0  0  0  0  0  0  0  0  0  0  0
   10.5827    7.2536   11.5779 C   0  0  0  0  0  0  0  0  0  0  0  0
   10.0760    6.9485   12.9775 C   0  0  0  0  0  0  0  0  0  0  0  0
    2.5529   -0.6166    3.6603 H   0  0  0  0  0  0  0  0  0  0  0  0
    2.5067   -1.3681    2.2145 H   0  0  0  0  0  0  0  0  0  0  0  0
    4.7536   -1.4761    3.0121 H   0  0  0  0  0  0  0  0  0  0  0  0
    4.4998   -1.0635    0.6334 H   0  0  0  0  0  0  0  0  0  0  0  0
    5.9669   -0.4200    1.3395 H   0  0  0  0  0  0  0  0  0  0  0  0
    3.4520    1.0053    0.9526 H   0  0  0  0  0  0  0  0  0  0  0  0
    4.6330    1.7703    2.7715 H   0  0  0  0  0  0  0  0  0  0  0  0
    6.5964    2.3814    0.7857 H   0  0  0  0  0  0  0  0  0  0  0  0
    6.4968    2.8514    3.6322 H   0  0  0  0  0  0  0  0  0  0  0  0
    8.6606    3.1822    1.6756 H   0  0  0  0  0  0  0  0  0  0  0  0
    8.6312    2.0401    3.0415 H   0  0  0  0  0  0  0  0  0  0  0  0
    8.3954    3.9486    4.4976 H   0  0  0  0  0  0  0  0  0  0  0  0
   10.6065    4.2233    2.7028 H   0  0  0  0  0  0  0  0  0  0  0  0
   10.2118    5.9559    4.2312 H   0  0  0  0  0  0  0  0  0  0  0  0
   10.5647    3.8187    6.1194 H   0  0  0  0  0  0  0  0  0  0  0  0
   10.2816    6.7418    6.4652 H   0  0  0  0  0  0  0  0  0  0  0  0
   11.7486    5.7894    6.7783 H   0  0  0  0  0  0  0  0  0  0  0  0
   10.4870    4.4600    8.4989 H   0  0  0  0  0  0  0  0  0  0  0  0
    9.0404    5.4209    8.1752 H   0  0  0  0  0  0  0  0  0  0  0  0
   10.2625    7.4967    8.8572 H   0  0  0  0  0  0  0  0  0  0  0  0
   11.7126    6.5409    9.1744 H   0  0  0  0  0  0  0  0  0  0  0  0
   10.4596    5.2118   10.8903 H   0  0  0  0  0  0  0  0  0  0  0  0
    9.0108    6.1683   10.5737 H   0  0  0  0  0  0  0  0  0  0  0  0
   10.2291    8.2456   11.2736 H   0  0  0  0  0  0  0  0  0  0  0  0
   11.6785    7.2888   11.5897 H   0  0  0  0  0  0  0  0  0  0  0  0
    8.9813    6.9360   13.0037 H   0  0  0  0  0  0  0  0  0  0  0  0
   10.4250    7.7099   13.6828 H   0  0  0  0  0  0  0  0  0  0  0  0
   10.4388    5.9742   13.3214 H   0  0  0  0  0  0  0  0  0  0  0  0
  1  2  1  0  0  0  0
  1 19  1  0  0  0  0
  1 20  1  0  0  0  0
  2  3  1  0  0  0  0
  2 21  1  0  0  0  0
  3  4  1  0  0  0  0
  3 22  1  0  0  0  0
  3 23  1  0  0  0  0
  4  5  1  0  0  0  0
  4 24  1  0  0  0  0
  5  6  1  0  0  0  0
  5 25  1  0  0  0  0
  6  7  1  0  0  0  0
  6 26  1  0  0  0  0
  7  8  1  0  0  0  0
  7 27  1  0  0  0  0
  8  9  1  0  0  0  0
  8 28  1  0  0  0  0
  8 29  1  0  0  0  0
  9 10  1  0  0  0  0
  9 30  1  0  0  0  0
 10 11  1  0  0  0  0
 10 31  1  0  0  0  0
 11 12  1  0  0  0  0
 11 32  1  0  0  0  0
 12 13  1  0  0  0  0
 12 33  1  0  0  0  0
 13 14  1  0  0  0  0
 13 34  1  0  0  0  0
 13 35  1  0  0  0  0
 14 15  1  0  0  0  0
 14 36  1  0  0  0  0
 14 37  1  0  0  0  0
 15 16  1  0  0  0  0
 15 38  1  0  0  0  0
 15 39  1  0  0  0  0
 16 17  1  0  0  0  0
 16 40  1  0  0  0  0
 16 41  1  0  0  0  0
 17 18  1  0  0  0  0
 17 42  1  0  0  0  0
 17 43  1  0  0  0  0
 18 44  1  0  0  0  0
 18 45  1  0  0  0  0
 18 46  1  0  0  0  0
M  END
$$$$
