
 OpenBabel04232216563D

152151  0  0  1  0  0  0  0  0999 V2000
    0.8206   -0.1404   -0.1183 C   0  0  0  0  0  0  0  0  0  0  0  0
    2.2756   -0.0701   -0.0896 N   0  0  0  0  0  0  0  0  0  0  0  0
    2.8764   -1.3960   -0.2477 C   0  0  0  0  0  0  0  0  0  0  0  0
    4.4240   -1.3411   -0.2208 C   0  0  3  0  0  0  0  0  0  0  0  0
    4.9993   -0.6851    1.0552 C   0  0  0  0  0  0  0  0  0  0  0  0
    4.7432   -1.4328    2.3550 C   0  0  0  0  0  0  0  0  0  0  0  0
    4.9691   -2.7657   -0.4659 C   0  0  0  0  0  0  0  0  0  0  0  0
    6.4926   -2.8201   -0.5011 C   0  0  0  0  0  0  0  0  0  0  0  0
    6.9903   -4.2381   -0.7389 C   0  0  0  0  0  0  0  0  0  0  0  0
    8.5110   -4.2413   -0.7414 C   0  0  0  0  0  0  0  0  0  0  0  0
    9.0344   -5.6487   -0.9648 C   0  0  0  0  0  0  0  0  0  0  0  0
   10.5571   -5.6476   -0.9678 C   0  0  0  0  0  0  0  0  0  0  0  0
   11.0722   -7.0572   -1.1907 C   0  0  0  0  0  0  0  0  0  0  0  0
   12.5894   -7.0592   -1.1951 C   0  0  0  0  0  0  0  0  0  0  0  0
   13.1009   -8.4701   -1.4186 C   0  0  0  0  0  0  0  0  0  0  0  0
   14.6171   -8.4747   -1.4237 C   0  0  0  0  0  0  0  0  0  0  0  0
   15.1264   -9.8858   -1.6476 C   0  0  0  0  0  0  0  0  0  0  0  0
   16.6422   -9.8900   -1.6529 C   0  0  0  0  0  0  0  0  0  0  0  0
   17.1511  -11.3006   -1.8768 C   0  0  0  0  0  0  0  0  0  0  0  0
   18.6673  -11.3037   -1.8818 C   0  0  0  0  0  0  0  0  0  0  0  0
   19.1756  -12.7136   -2.1055 C   0  0  0  0  0  0  0  0  0  0  0  0
   20.6933  -12.7146   -2.1082 C   0  0  0  0  0  0  0  0  0  0  0  0
   21.1998  -14.1262   -2.3327 C   0  0  0  0  0  0  0  0  0  0  0  0
   22.7118  -14.1155   -2.3304 C   0  0  0  0  0  0  0  0  0  0  0  0
   23.2143  -15.5391   -2.5466 C   0  0  0  0  0  0  0  0  0  0  0  0
   24.7301  -15.5411   -2.5569 C   0  0  0  0  0  0  0  0  0  0  0  0
   25.2368  -16.9556   -2.7769 C   0  0  0  0  0  0  0  0  0  0  0  0
   26.7462  -16.9613   -2.7863 C   0  0  0  0  0  0  0  0  0  0  0  0
   27.2819  -18.3833   -3.0107 C   0  0  0  0  0  0  0  0  0  0  0  0
   28.7600  -18.3425   -2.9992 C   0  0  0  0  0  0  0  0  0  0  0  0
   29.2624  -19.7541   -3.2228 C   0  0  0  0  0  0  0  0  0  0  0  0
   30.7738  -19.7278   -3.2192 C   0  0  0  0  0  0  0  0  0  0  0  0
   31.2505  -21.1529   -3.4442 C   0  0  0  0  0  0  0  0  0  0  0  0
   32.7364  -21.1585   -3.4457 C   0  0  0  0  0  0  0  0  0  0  0  0
   33.1550  -22.5738   -3.6420 C   0  0  0  0  0  0  0  0  0  0  0  0
   34.5312  -22.4954   -3.6608 O   0  0  0  0  0  0  0  0  0  0  0  0
   35.0473  -23.7592   -3.8734 C   0  0  0  0  0  0  0  0  0  0  0  0
   36.4157  -23.5855   -3.9027 O   0  0  0  0  0  0  0  0  0  0  0  0
   36.8466  -24.9009   -4.1101 O   0  0  0  0  0  0  0  0  0  0  0  0
   38.2167  -24.9444   -3.8789 O   0  0  0  0  0  0  0  0  0  0  0  0
   38.6283  -26.2239   -4.2281 O   0  0  0  0  0  0  0  0  0  0  0  0
   40.0048  -26.1822   -4.3929 O   0  0  0  0  0  0  0  0  0  0  0  0
   40.4287  -27.5013   -4.4409 O   0  0  0  0  0  0  0  0  0  0  0  0
   41.8110  -27.4777   -4.3652 O   0  0  0  0  0  0  0  0  0  0  0  0
   42.2341  -28.7445   -4.7260 O   0  0  0  0  0  0  0  0  0  0  0  0
   43.6144  -28.6996   -4.7588 O   0  0  0  0  0  0  0  0  0  0  0  0
   44.0343  -30.0167   -4.7562 O   0  0  0  0  0  0  0  0  0  0  0  0
   45.4099  -29.9750   -4.8289 O   0  0  0  0  0  0  0  0  0  0  0  0
   45.8127  -31.2339   -5.2273 O   0  0  0  0  0  0  0  0  0  0  0  0
   47.1768  -31.2471   -5.0425 O   0  0  0  0  0  0  0  0  0  0  0  0
   47.5729  -32.5650   -5.1127 O   0  0  0  0  0  0  0  0  0  0  0  0
   48.9381  -32.5055   -5.2743 O   0  0  0  0  0  0  0  0  0  0  0  0
   49.3529  -33.7768   -5.5935 O   0  0  0  0  0  0  0  0  0  0  0  0
   50.7198  -33.7414   -5.4446 O   0  0  0  0  0  0  0  0  0  0  0  0
   51.1489  -35.0400   -5.5563 O   0  0  0  0  0  0  0  0  0  0  0  0
   52.5139  -34.9531   -5.7009 O   0  0  0  0  0  0  0  0  0  0  0  0
   52.9384  -36.2392   -5.9188 O   0  0  0  0  0  0  0  0  0  0  0  0
   54.3028  -36.2140   -5.7541 O   0  0  0  0  0  0  0  0  0  0  0  0
   54.7123  -37.4955   -6.0286 O   0  0  0  0  0  0  0  0  0  0  0  0
   56.0776  -37.4398   -6.1707 O   0  0  0  0  0  0  0  0  0  0  0  0
   56.4802  -38.7554   -6.2210 O   0  0  0  0  0  0  0  0  0  0  0  0
   57.8501  -38.7357   -6.1082 O   0  0  0  0  0  0  0  0  0  0  0  0
   58.2804  -39.9606   -6.5748 O   0  0  0  0  0  0  0  0  0  0  0  0
   59.6508  -39.9542   -6.4090 O   0  0  0  0  0  0  0  0  0  0  0  0
   60.0646  -41.2613   -6.5552 O   0  0  0  0  0  0  0  0  0  0  0  0
   61.4303  -41.2044   -6.7732 O   0  0  0  0  0  0  0  0  0  0  0  0
   61.8577  -42.5189   -6.8723 O   0  0  0  0  0  0  0  0  0  0  0  0
   63.2393  -42.5017   -6.7432 O   0  0  0  0  0  0  0  0  0  0  0  0
   63.6834  -43.7653   -7.1267 O   0  0  0  0  0  0  0  0  0  0  0  0
   65.0763  -43.7322   -7.0935 O   0  0  0  0  0  0  0  0  0  0  0  0
   65.5284  -45.0574   -7.0935 O   0  0  0  0  0  0  0  0  0  0  0  0
   66.9220  -45.0142   -7.2481 O   0  0  0  0  0  0  0  0  0  0  0  0
   67.3687  -46.2980   -7.6165 O   0  0  0  0  0  0  0  0  0  0  0  0
   68.7625  -46.3496   -7.3816 O   0  0  0  0  0  0  0  0  0  0  0  0
   69.2082  -47.6822   -7.5829 O   0  0  0  0  0  0  0  0  0  0  0  0
   70.6015  -47.6600   -7.8825 O   0  0  0  0  0  0  0  0  0  0  0  0
   71.0913  -49.0061   -7.9573 O   0  0  0  0  0  0  0  0  0  0  0  0
   72.5256  -49.0043   -7.8228 O   0  0  0  0  0  0  0  0  0  0  0  0
   72.9079  -48.4975   -6.5211 O   0  0  0  0  0  0  0  0  0  0  0  0
    0.4111    0.8593    0.0558 H   0  0  0  0  0  0  0  0  0  0  0  0
    0.4337   -0.8012    0.6639 H   0  0  0  0  0  0  0  0  0  0  0  0
    0.4579   -0.4816   -1.0929 H   0  0  0  0  0  0  0  0  0  0  0  0
    2.5587    0.3258    0.8049 H   0  0  0  0  0  0  0  0  0  0  0  0
    2.5600   -1.8198   -1.2099 H   0  0  0  0  0  0  0  0  0  0  0  0
    2.5148   -2.0732    0.5351 H   0  0  0  0  0  0  0  0  0  0  0  0
    4.7439   -0.7195   -1.0702 H   0  0  0  0  0  0  0  0  0  0  0  0
    4.6043    0.3312    1.1622 H   0  0  0  0  0  0  0  0  0  0  0  0
    6.0861   -0.5438    0.9407 H   0  0  0  0  0  0  0  0  0  0  0  0
    3.6975   -1.7302    2.4545 H   0  0  0  0  0  0  0  0  0  0  0  0
    4.9972   -0.7976    3.2088 H   0  0  0  0  0  0  0  0  0  0  0  0
    5.3644   -2.3325    2.4189 H   0  0  0  0  0  0  0  0  0  0  0  0
    4.5831   -3.1355   -1.4246 H   0  0  0  0  0  0  0  0  0  0  0  0
    4.5938   -3.4497    0.3038 H   0  0  0  0  0  0  0  0  0  0  0  0
    6.9117   -2.4735    0.4486 H   0  0  0  0  0  0  0  0  0  0  0  0
    6.8707   -2.1559   -1.2874 H   0  0  0  0  0  0  0  0  0  0  0  0
    6.6089   -4.6216   -1.6913 H   0  0  0  0  0  0  0  0  0  0  0  0
    6.6197   -4.9012    0.0535 H   0  0  0  0  0  0  0  0  0  0  0  0
    8.8903   -3.8561    0.2108 H   0  0  0  0  0  0  0  0  0  0  0  0
    8.8857   -3.5820   -1.5327 H   0  0  0  0  0  0  0  0  0  0  0  0
    8.6616   -6.0444   -1.9150 H   0  0  0  0  0  0  0  0  0  0  0  0
    8.6679   -6.3125   -0.1740 H   0  0  0  0  0  0  0  0  0  0  0  0
   10.9318   -5.2592   -0.0140 H   0  0  0  0  0  0  0  0  0  0  0  0
   10.9257   -4.9852   -1.7585 H   0  0  0  0  0  0  0  0  0  0  0  0
   10.6963   -7.4473   -2.1450 H   0  0  0  0  0  0  0  0  0  0  0  0
   10.7012   -7.7221   -0.4007 H   0  0  0  0  0  0  0  0  0  0  0  0
   12.9674   -6.6715   -0.2410 H   0  0  0  0  0  0  0  0  0  0  0  0
   12.9627   -6.3966   -1.9859 H   0  0  0  0  0  0  0  0  0  0  0  0
   12.7222   -8.8584   -2.3723 H   0  0  0  0  0  0  0  0  0  0  0  0
   12.7273   -9.1327   -0.6279 H   0  0  0  0  0  0  0  0  0  0  0  0
   14.9959   -8.0868   -0.4701 H   0  0  0  0  0  0  0  0  0  0  0  0
   14.9896   -7.8125   -2.2145 H   0  0  0  0  0  0  0  0  0  0  0  0
   14.7475  -10.2734   -2.6013 H   0  0  0  0  0  0  0  0  0  0  0  0
   14.7529  -10.5480   -0.8567 H   0  0  0  0  0  0  0  0  0  0  0  0
   17.0215   -9.5025   -0.6991 H   0  0  0  0  0  0  0  0  0  0  0  0
   17.0160   -9.2277   -2.4437 H   0  0  0  0  0  0  0  0  0  0  0  0
   16.7727  -11.6882   -2.8311 H   0  0  0  0  0  0  0  0  0  0  0  0
   16.7780  -11.9634   -1.0860 H   0  0  0  0  0  0  0  0  0  0  0  0
   19.0463  -10.9163   -0.9279 H   0  0  0  0  0  0  0  0  0  0  0  0
   19.0412  -10.6414   -2.6725 H   0  0  0  0  0  0  0  0  0  0  0  0
   18.8003  -13.1017   -3.0601 H   0  0  0  0  0  0  0  0  0  0  0  0
   18.8035  -13.3772   -1.3156 H   0  0  0  0  0  0  0  0  0  0  0  0
   21.0697  -12.3284   -1.1535 H   0  0  0  0  0  0  0  0  0  0  0  0
   21.0668  -12.0527   -2.8985 H   0  0  0  0  0  0  0  0  0  0  0  0
   20.8254  -14.5115   -3.2863 H   0  0  0  0  0  0  0  0  0  0  0  0
   20.8267  -14.7883   -1.5432 H   0  0  0  0  0  0  0  0  0  0  0  0
   23.0891  -13.7362   -1.3764 H   0  0  0  0  0  0  0  0  0  0  0  0
   23.0884  -13.4595   -3.1231 H   0  0  0  0  0  0  0  0  0  0  0  0
   22.8397  -15.9179   -3.5100 H   0  0  0  0  0  0  0  0  0  0  0  0
   22.8120  -16.1926   -1.7630 H   0  0  0  0  0  0  0  0  0  0  0  0
   25.1096  -15.1555   -1.5977 H   0  0  0  0  0  0  0  0  0  0  0  0
   25.0884  -14.8911   -3.3274 H   0  0  0  0  0  0  0  0  0  0  0  0
   24.8675  -17.3380   -3.7377 H   0  0  0  0  0  0  0  0  0  0  0  0
   24.8657  -17.6186   -1.9924 H   0  0  0  0  0  0  0  0  0  0  0  0
   27.1289  -16.5732   -1.8308 H   0  0  0  0  0  0  0  0  0  0  0  0
   27.1321  -16.2946   -3.5678 H   0  0  0  0  0  0  0  0  0  0  0  0
   26.8889  -18.7520   -3.9606 H   0  0  0  0  0  0  0  0  0  0  0  0
   26.8873  -19.0291   -2.2153 H   0  0  0  0  0  0  0  0  0  0  0  0
   29.1443  -17.9644   -2.0455 H   0  0  0  0  0  0  0  0  0  0  0  0
   29.1460  -17.6876   -3.7880 H   0  0  0  0  0  0  0  0  0  0  0  0
   28.9004  -20.1416   -4.1783 H   0  0  0  0  0  0  0  0  0  0  0  0
   28.9008  -20.4178   -2.4336 H   0  0  0  0  0  0  0  0  0  0  0  0
   31.1578  -19.3580   -2.2694 H   0  0  0  0  0  0  0  0  0  0  0  0
   31.1570  -19.0845   -4.0103 H   0  0  0  0  0  0  0  0  0  0  0  0
   30.8581  -21.5330   -4.3969 H   0  0  0  0  0  0  0  0  0  0  0  0
   30.8618  -21.8066   -2.6504 H   0  0  0  0  0  0  0  0  0  0  0  0
   33.1508  -20.7868   -2.5032 H   0  0  0  0  0  0  0  0  0  0  0  0
   33.1501  -20.5120   -4.2368 H   0  0  0  0  0  0  0  0  0  0  0  0
   32.7615  -22.9437   -4.6337 H   0  0  0  0  0  0  0  0  0  0  0  0
   32.7824  -23.2192   -2.8602 H   0  0  0  0  0  0  0  0  0  0  0  0
   34.7114  -24.1713   -4.8384 H   0  0  0  0  0  0  0  0  0  0  0  0
   34.7613  -24.4442   -3.0616 H   0  0  0  0  0  0  0  0  0  0  0  0
   73.8444  -48.3792   -6.7452 H   0  0  0  0  0  0  0  0  0  0  0  0
  1  2  1  0  0  0  0
  1 80  1  0  0  0  0
  1 81  1  0  0  0  0
  1 82  1  0  0  0  0
  2  3  1  0  0  0  0
  2 83  1  0  0  0  0
  3  4  1  0  0  0  0
  3 84  1  0  0  0  0
  3 85  1  0  0  0  0
  4  5  1  0  0  0  0
  4  7  1  0  0  0  0
  4 86  1  0  0  0  0
  5  6  1  0  0  0  0
  5 87  1  0  0  0  0
  5 88  1  0  0  0  0
  6 89  1  0  0  0  0
  6 90  1  0  0  0  0
  6 91  1  0  0  0  0
  7  8  1  0  0  0  0
  7 92  1  0  0  0  0
  7 93  1  0  0  0  0
  8  9  1  0  0  0  0
  8 94  1  0  0  0  0
  8 95  1  0  0  0  0
  9 10  1  0  0  0  0
  9 96  1  0  0  0  0
  9 97  1  0  0  0  0
 10 11  1  0  0  0  0
 10 98  1  0  0  0  0
 10 99  1  0  0  0  0
 11 12  1  0  0  0  0
 11100  1  0  0  0  0
 11101  1  0  0  0  0
 12 13  1  0  0  0  0
 12102  1  0  0  0  0
 12103  1  0  0  0  0
 13 14  1  0  0  0  0
 13104  1  0  0  0  0
 13105  1  0  0  0  0
 14 15  1  0  0  0  0
 14106  1  0  0  0  0
 14107  1  0  0  0  0
 15 16  1  0  0  0  0
 15108  1  0  0  0  0
 15109  1  0  0  0  0
 16 17  1  0  0  0  0
 16110  1  0  0  0  0
 16111  1  0  0  0  0
 17 18  1  0  0  0  0
 17112  1  0  0  0  0
 17113  1  0  0  0  0
 18 19  1  0  0  0  0
 18114  1  0  0  0  0
 18115  1  0  0  0  0
 19 20  1  0  0  0  0
 19116  1  0  0  0  0
 19117  1  0  0  0  0
 20 21  1  0  0  0  0
 20118  1  0  0  0  0
 20119  1  0  0  0  0
 21 22  1  0  0  0  0
 21120  1  0  0  0  0
 21121  1  0  0  0  0
 22 23  1  0  0  0  0
 22122  1  0  0  0  0
 22123  1  0  0  0  0
 23 24  1  0  0  0  0
 23124  1  0  0  0  0
 23125  1  0  0  0  0
 24 25  1  0  0  0  0
 24126  1  0  0  0  0
 24127  1  0  0  0  0
 25 26  1  0  0  0  0
 25128  1  0  0  0  0
 25129  1  0  0  0  0
 26 27  1  0  0  0  0
 26130  1  0  0  0  0
 26131  1  0  0  0  0
 27 28  1  0  0  0  0
 27132  1  0  0  0  0
 27133  1  0  0  0  0
 28 29  1  0  0  0  0
 28134  1  0  0  0  0
 28135  1  0  0  0  0
 29 30  1  0  0  0  0
 29136  1  0  0  0  0
 29137  1  0  0  0  0
 30 31  1  0  0  0  0
 30138  1  0  0  0  0
 30139  1  0  0  0  0
 31 32  1  0  0  0  0
 31140  1  0  0  0  0
 31141  1  0  0  0  0
 32 33  1  0  0  0  0
 32142  1  0  0  0  0
 32143  1  0  0  0  0
 33 34  1  0  0  0  0
 33144  1  0  0  0  0
 33145  1  0  0  0  0
 34 35  1  0  0  0  0
 34146  1  0  0  0  0
 34147  1  0  0  0  0
 35 36  1  0  0  0  0
 35148  1  0  0  0  0
 35149  1  0  0  0  0
 36 37  1  0  0  0  0
 37 38  1  0  0  0  0
 37150  1  0  0  0  0
 37151  1  0  0  0  0
 38 39  1  0  0  0  0
 39 40  1  0  0  0  0
 40 41  1  0  0  0  0
 41 42  1  0  0  0  0
 42 43  1  0  0  0  0
 43 44  1  0  0  0  0
 44 45  1  0  0  0  0
 45 46  1  0  0  0  0
 46 47  1  0  0  0  0
 47 48  1  0  0  0  0
 48 49  1  0  0  0  0
 49 50  1  0  0  0  0
 50 51  1  0  0  0  0
 51 52  1  0  0  0  0
 52 53  1  0  0  0  0
 53 54  1  0  0  0  0
 54 55  1  0  0  0  0
 55 56  1  0  0  0  0
 56 57  1  0  0  0  0
 57 58  1  0  0  0  0
 58 59  1  0  0  0  0
 59 60  1  0  0  0  0
 60 61  1  0  0  0  0
 61 62  1  0  0  0  0
 62 63  1  0  0  0  0
 63 64  1  0  0  0  0
 64 65  1  0  0  0  0
 65 66  1  0  0  0  0
 66 67  1  0  0  0  0
 67 68  1  0  0  0  0
 68 69  1  0  0  0  0
 69 70  1  0  0  0  0
 70 71  1  0  0  0  0
 71 72  1  0  0  0  0
 72 73  1  0  0  0  0
 73 74  1  0  0  0  0
 74 75  1  0  0  0  0
 75 76  1  0  0  0  0
 76 77  1  0  0  0  0
 77 78  1  0  0  0  0
 78 79  1  0  0  0  0
 79152  1  0  0  0  0
M  END
$$$$
