
 OpenBabel04232216523D

 60 61  0  0  1  0  0  0  0  0999 V2000
   -3.7776   -0.8548   -1.6381 C   0  0  0  0  0  0  0  0  0  0  0  0
   -2.3849   -1.3340   -2.0172 C   0  0  0  0  0  0  0  0  0  0  0  0
   -1.4534   -0.1518   -2.2707 C   0  0  0  0  0  0  0  0  0  0  0  0
   -0.0466   -0.6039   -2.6653 C   0  0  0  0  0  0  0  0  0  0  0  0
    0.8372    0.6179   -2.9178 C   0  0  3  0  0  0  0  0  0  0  0  0
    2.3116    0.3131   -3.3227 C   0  0  3  0  0  0  0  0  0  0  0  0
    2.7104    0.9413   -4.6567 C   0  0  0  0  0  0  0  0  0  0  0  0
    4.1651    0.6265   -5.0027 C   0  0  0  0  0  0  0  0  0  0  0  0
    4.6177    1.3082   -6.2999 C   0  0  0  0  0  0  0  0  0  0  0  0
    4.5210    2.8365   -6.2850 C   0  0  0  0  0  0  0  0  0  0  0  0
    5.3499    3.4477   -5.1617 C   0  0  0  0  0  0  0  0  0  0  0  0
    5.1892    4.9588   -5.1047 C   0  0  0  0  0  0  0  0  0  0  0  0
    6.0455    5.5514   -4.0034 C   0  0  0  0  0  0  0  0  0  0  0  0
    6.7511    4.8378   -3.2897 O   0  0  0  0  0  0  0  0  0  0  0  0
    5.9616    7.0061   -3.8663 C   0  0  0  0  0  0  0  0  0  0  0  0
    5.2567    8.0443   -4.5211 C   0  0  0  0  0  0  0  0  0  0  0  0
    5.8496    8.9321   -3.6913 C   0  0  0  0  0  0  0  0  0  0  0  0
    6.5463    7.8644   -3.0260 C   0  0  0  0  0  0  0  0  0  0  0  0
    7.5197    7.6722   -1.8848 C   0  0  0  0  0  0  0  0  0  0  0  0
    7.9912    8.8721   -1.0942 C   0  0  0  0  0  0  0  0  0  0  0  0
    6.8720    9.5472   -0.3039 C   0  0  0  0  0  0  0  0  0  0  0  0
    7.4230   10.6023    0.6424 C   0  0  0  0  0  0  0  0  0  0  0  0
    2.6988    1.0948   -2.0774 C   0  0  0  0  0  0  0  0  0  0  0  0
    1.4258    1.2933   -1.6918 C   0  0  0  0  0  0  0  0  0  0  0  0
   -4.4354   -1.7075   -1.4450 H   0  0  0  0  0  0  0  0  0  0  0  0
   -4.2190   -0.2597   -2.4443 H   0  0  0  0  0  0  0  0  0  0  0  0
   -3.7464   -0.2368   -0.7349 H   0  0  0  0  0  0  0  0  0  0  0  0
   -2.4497   -1.9603   -2.9144 H   0  0  0  0  0  0  0  0  0  0  0  0
   -1.9846   -1.9590   -1.2108 H   0  0  0  0  0  0  0  0  0  0  0  0
   -1.4026    0.4749   -1.3722 H   0  0  0  0  0  0  0  0  0  0  0  0
   -1.8697    0.4767   -3.0681 H   0  0  0  0  0  0  0  0  0  0  0  0
   -0.1025   -1.2062   -3.5804 H   0  0  0  0  0  0  0  0  0  0  0  0
    0.3817   -1.2444   -1.8843 H   0  0  0  0  0  0  0  0  0  0  0  0
    0.3403    1.3072   -3.6168 H   0  0  0  0  0  0  0  0  0  0  0  0
    2.5621   -0.7561   -3.2904 H   0  0  0  0  0  0  0  0  0  0  0  0
    2.5449    2.0237   -4.6123 H   0  0  0  0  0  0  0  0  0  0  0  0
    2.0654    0.5535   -5.4540 H   0  0  0  0  0  0  0  0  0  0  0  0
    4.2819   -0.4577   -5.1189 H   0  0  0  0  0  0  0  0  0  0  0  0
    4.8269    0.9026   -4.1737 H   0  0  0  0  0  0  0  0  0  0  0  0
    4.0184    0.9279   -7.1355 H   0  0  0  0  0  0  0  0  0  0  0  0
    5.6565    1.0206   -6.5037 H   0  0  0  0  0  0  0  0  0  0  0  0
    3.4755    3.1531   -6.1977 H   0  0  0  0  0  0  0  0  0  0  0  0
    4.8727    3.2241   -7.2488 H   0  0  0  0  0  0  0  0  0  0  0  0
    6.4056    3.1847   -5.3036 H   0  0  0  0  0  0  0  0  0  0  0  0
    5.0488    3.0395   -4.1907 H   0  0  0  0  0  0  0  0  0  0  0  0
    4.1419    5.2111   -4.9005 H   0  0  0  0  0  0  0  0  0  0  0  0
    5.4836    5.4060   -6.0600 H   0  0  0  0  0  0  0  0  0  0  0  0
    4.5475    8.0928   -5.3401 H   0  0  0  0  0  0  0  0  0  0  0  0
    5.8037   10.0103   -3.5679 H   0  0  0  0  0  0  0  0  0  0  0  0
    8.3877    7.1378   -2.2970 H   0  0  0  0  0  0  0  0  0  0  0  0
    7.1015    6.9044   -1.2182 H   0  0  0  0  0  0  0  0  0  0  0  0
    8.4805    9.5978   -1.7539 H   0  0  0  0  0  0  0  0  0  0  0  0
    8.7564    8.5209   -0.3890 H   0  0  0  0  0  0  0  0  0  0  0  0
    6.3186    8.8007    0.2775 H   0  0  0  0  0  0  0  0  0  0  0  0
    6.1603   10.0209   -0.9874 H   0  0  0  0  0  0  0  0  0  0  0  0
    8.0898   10.1522    1.3851 H   0  0  0  0  0  0  0  0  0  0  0  0
    6.6047   11.0945    1.1766 H   0  0  0  0  0  0  0  0  0  0  0  0
    7.9839   11.3673    0.0960 H   0  0  0  0  0  0  0  0  0  0  0  0
    3.6612    1.3648   -1.6504 H   0  0  0  0  0  0  0  0  0  0  0  0
    0.9693    1.7950   -0.8432 H   0  0  0  0  0  0  0  0  0  0  0  0
  1  2  1  0  0  0  0
  1 25  1  0  0  0  0
  1 26  1  0  0  0  0
  1 27  1  0  0  0  0
  2  3  1  0  0  0  0
  2 28  1  0  0  0  0
  2 29  1  0  0  0  0
  3  4  1  0  0  0  0
  3 30  1  0  0  0  0
  3 31  1  0  0  0  0
  4  5  1  0  0  0  0
  4 32  1  0  0  0  0
  4 33  1  0  0  0  0
  5  6  1  0  0  0  0
  5 24  1  0  0  0  0
  5 34  1  0  0  0  0
  6  7  1  0  0  0  0
  6 23  1  0  0  0  0
  6 35  1  0  0  0  0
  7  8  1  0  0  0  0
  7 36  1  0  0  0  0
  7 37  1  0  0  0  0
  8  9  1  0  0  0  0
  8 38  1  0  0  0  0
  8 39  1  0  0  0  0
  9 10  1  0  0  0  0
  9 40  1  0  0  0  0
  9 41  1  0  0  0  0
 10 11  1  0  0  0  0
 10 42  1  0  0  0  0
 10 43  1  0  0  0  0
 11 12  1  0  0  0  0
 11 44  1  0  0  0  0
 11 45  1  0  0  0  0
 12 13  1  0  0  0  0
 12 46  1  0  0  0  0
 12 47  1  0  0  0  0
 13 14  2  0  0  0  0
 13 15  1  0  0  0  0
 15 16  1  0  0  0  0
 15 18  2  0  0  0  0
 16 17  2  0  0  0  0
 16 48  1  0  0  0  0
 17 18  1  0  0  0  0
 17 49  1  0  0  0  0
 18 19  1  0  0  0  0
 19 20  1  0  0  0  0
 19 50  1  0  0  0  0
 19 51  1  0  0  0  0
 20 21  1  0  0  0  0
 20 52  1  0  0  0  0
 20 53  1  0  0  0  0
 21 22  1  0  0  0  0
 21 54  1  0  0  0  0
 21 55  1  0  0  0  0
 22 56  1  0  0  0  0
 22 57  1  0  0  0  0
 22 58  1  0  0  0  0
 23 24  2  0  0  0  0
 23 59  1  0  0  0  0
 24 60  1  0  0  0  0
M  END
$$$$
