
 OpenBabel04232217033D

 92 91  0  0  0  0  0  0  0  0999 V2000
   25.1121   -0.0566    9.0070 S   0  0  0  0  0  0  0  0  0  0  0  0
   24.5807   -1.3609    9.8956 O   0  0  0  0  0  0  0  0  0  0  0  0
   24.9472   -2.6143    9.2499 O   0  0  0  0  0  0  0  0  0  0  0  0
   24.4562   -3.9161   10.1618 S   0  0  0  0  0  0  0  0  0  0  0  0
   22.6404   -3.7031   10.0734 C   0  0  0  0  0  0  0  0  0  0  0  0
   21.9715   -4.8437   10.8550 C   0  0  0  0  0  0  0  0  0  0  0  0
   20.4854   -4.7190   10.8610 N   0  0  0  0  0  0  0  0  0  0  0  0
   19.9890   -4.8238    9.5059 N   0  0  0  0  0  0  0  0  0  0  0  0
   18.5671   -4.7170    9.5451 N   0  0  0  0  0  0  0  0  0  0  0  0
   18.0178   -4.7484    8.2285 N   0  0  0  0  0  0  0  0  0  0  0  0
   16.3472   -4.6152    8.2174 S   0  0  0  0  0  0  0  0  0  0  0  0
   15.8359   -3.1535    8.8822 N   0  0  0  0  0  0  0  0  0  0  0  0
   16.4543   -1.8642    8.0319 S   0  0  0  0  0  0  0  0  0  0  0  0
   15.7432   -0.2131    9.0424 S   0  0  0  0  0  0  0  0  0  0  0  0
   16.4667   -0.2043   10.9856 S   0  0  0  0  0  0  0  0  0  0  0  0
   18.5466   -0.1404   10.9931 S   0  0  0  0  0  0  0  0  0  0  0  0
   19.2230   -0.1811   12.9939 S   0  0  0  0  0  0  0  0  0  0  0  0
   21.3369   -0.1811   12.9870 S   0  0  0  0  0  0  0  0  0  0  0  0
   22.0293   -0.2026   14.9819 S   0  0  0  0  0  0  0  0  0  0  0  0
   24.1402   -0.2025   14.9695 S   0  0  0  0  0  0  0  0  0  0  0  0
   24.8312   -0.2248   16.9634 S   0  0  0  0  0  0  0  0  0  0  0  0
   26.9409   -0.2246   16.9505 S   0  0  0  0  0  0  0  0  0  0  0  0
   27.6316   -0.2473   18.9437 S   0  0  0  0  0  0  0  0  0  0  0  0
   29.7410   -0.2471   18.9305 S   0  0  0  0  0  0  0  0  0  0  0  0
   30.4316   -0.2698   20.9235 S   0  0  0  0  0  0  0  0  0  0  0  0
   32.5410   -0.2697   20.9102 S   0  0  0  0  0  0  0  0  0  0  0  0
   33.2316   -0.2924   22.9033 S   0  0  0  0  0  0  0  0  0  0  0  0
   35.3410   -0.2922   22.8900 S   0  0  0  0  0  0  0  0  0  0  0  0
   36.0316   -0.3149   24.8830 S   0  0  0  0  0  0  0  0  0  0  0  0
   38.1410   -0.3147   24.8698 S   0  0  0  0  0  0  0  0  0  0  0  0
   38.8316   -0.3374   26.8628 S   0  0  0  0  0  0  0  0  0  0  0  0
   40.9410   -0.3373   26.8496 S   0  0  0  0  0  0  0  0  0  0  0  0
   41.6316   -0.3600   28.8426 S   0  0  0  0  0  0  0  0  0  0  0  0
   43.7409   -0.3598   28.8293 S   0  0  0  0  0  0  0  0  0  0  0  0
   44.4316   -0.3825   30.8224 S   0  0  0  0  0  0  0  0  0  0  0  0
   46.5409   -0.3823   30.8091 S   0  0  0  0  0  0  0  0  0  0  0  0
   47.2316   -0.4050   32.8021 S   0  0  0  0  0  0  0  0  0  0  0  0
   49.3409   -0.4049   32.7889 S   0  0  0  0  0  0  0  0  0  0  0  0
   50.0316   -0.4276   34.7819 S   0  0  0  0  0  0  0  0  0  0  0  0
   52.1409   -0.4274   34.7687 S   0  0  0  0  0  0  0  0  0  0  0  0
   52.8315   -0.4501   36.7617 S   0  0  0  0  0  0  0  0  0  0  0  0
   54.9409   -0.4499   36.7484 S   0  0  0  0  0  0  0  0  0  0  0  0
   55.6315   -0.4726   38.7415 S   0  0  0  0  0  0  0  0  0  0  0  0
   57.7409   -0.4725   38.7282 S   0  0  0  0  0  0  0  0  0  0  0  0
   58.4315   -0.4952   40.7212 S   0  0  0  0  0  0  0  0  0  0  0  0
   60.5409   -0.4950   40.7080 S   0  0  0  0  0  0  0  0  0  0  0  0
   61.2315   -0.5177   42.7010 S   0  0  0  0  0  0  0  0  0  0  0  0
   63.3409   -0.5176   42.6878 S   0  0  0  0  0  0  0  0  0  0  0  0
   64.0315   -0.5402   44.6808 S   0  0  0  0  0  0  0  0  0  0  0  0
   66.1409   -0.5401   44.6675 S   0  0  0  0  0  0  0  0  0  0  0  0
   66.8315   -0.5628   46.6605 S   0  0  0  0  0  0  0  0  0  0  0  0
   68.9409   -0.5626   46.6473 S   0  0  0  0  0  0  0  0  0  0  0  0
   69.6315   -0.5853   48.6403 S   0  0  0  0  0  0  0  0  0  0  0  0
   71.7409   -0.5852   48.6271 S   0  0  0  0  0  0  0  0  0  0  0  0
   72.4315   -0.6078   50.6201 S   0  0  0  0  0  0  0  0  0  0  0  0
   74.5409   -0.6077   50.6068 S   0  0  0  0  0  0  0  0  0  0  0  0
   75.2315   -0.6304   52.5999 S   0  0  0  0  0  0  0  0  0  0  0  0
   77.3409   -0.6302   52.5866 S   0  0  0  0  0  0  0  0  0  0  0  0
   78.0315   -0.6529   54.5796 S   0  0  0  0  0  0  0  0  0  0  0  0
   80.1408   -0.6528   54.5664 S   0  0  0  0  0  0  0  0  0  0  0  0
   80.8315   -0.6754   56.5594 S   0  0  0  0  0  0  0  0  0  0  0  0
   82.9408   -0.6753   56.5462 S   0  0  0  0  0  0  0  0  0  0  0  0
   83.6315   -0.6980   58.5392 S   0  0  0  0  0  0  0  0  0  0  0  0
   85.7408   -0.6978   58.5259 S   0  0  0  0  0  0  0  0  0  0  0  0
   86.4315   -0.7205   60.5190 S   0  0  0  0  0  0  0  0  0  0  0  0
   88.5408   -0.7204   60.5057 S   0  0  0  0  0  0  0  0  0  0  0  0
   89.2314   -0.7431   62.4987 S   0  0  0  0  0  0  0  0  0  0  0  0
   91.3408   -0.7429   62.4855 S   0  0  0  0  0  0  0  0  0  0  0  0
   92.0314   -0.7656   64.4785 S   0  0  0  0  0  0  0  0  0  0  0  0
   94.1408   -0.7654   64.4653 S   0  0  0  0  0  0  0  0  0  0  0  0
   94.8314   -0.7881   66.4583 S   0  0  0  0  0  0  0  0  0  0  0  0
   96.9408   -0.7880   66.4450 S   0  0  0  0  0  0  0  0  0  0  0  0
   97.6313   -0.8107   68.4380 S   0  0  0  0  0  0  0  0  0  0  0  0
   99.7405   -0.8105   68.4246 S   0  0  0  0  0  0  0  0  0  0  0  0
  100.4305   -0.8331   70.4172 S   0  0  0  0  0  0  0  0  0  0  0  0
  102.5377   -0.8333   70.4026 S   0  0  0  0  0  0  0  0  0  0  0  0
  103.2247   -0.8557   72.3920 S   0  0  0  0  0  0  0  0  0  0  0  0
  105.3215   -0.8366   72.3629 S   0  0  0  0  0  0  0  0  0  0  0  0
  106.0049   -0.9197   74.3294 S   0  0  0  0  0  0  0  0  0  0  0  0
  108.0864   -0.8708   74.2896 S   0  0  0  0  0  0  0  0  0  0  0  0
  108.6977   -2.5948   73.3442 S   0  0  0  0  0  0  0  0  0  0  0  0
   24.5860    0.9222    9.7606 H   0  0  0  0  0  0  0  0  0  0  0  0
   22.3171   -3.7187    9.0282 H   0  0  0  0  0  0  0  0  0  0  0  0
   22.3628   -2.7367   10.5086 H   0  0  0  0  0  0  0  0  0  0  0  0
   22.3027   -4.8073   11.9092 H   0  0  0  0  0  0  0  0  0  0  0  0
   22.2750   -5.8150   10.4656 H   0  0  0  0  0  0  0  0  0  0  0  0
   20.2228   -3.8524   11.2417 H   0  0  0  0  0  0  0  0  0  0  0  0
   20.2507   -5.6928    9.0876 H   0  0  0  0  0  0  0  0  0  0  0  0
   18.3354   -3.8327    9.9880 H   0  0  0  0  0  0  0  0  0  0  0  0
   18.3280   -5.6370    7.8205 H   0  0  0  0  0  0  0  0  0  0  0  0
   16.1651   -3.1279    9.8516 H   0  0  0  0  0  0  0  0  0  0  0  0
  110.0439   -2.4982   73.3696 H   0  0  0  0  0  0  0  0  0  0  0  0
  1  2  1  0  0  0  0
  1 82  1  0  0  0  0
  2  3  1  0  0  0  0
  3  4  1  0  0  0  0
  4  5  1  0  0  0  0
  5  6  1  0  0  0  0
  5 83  1  0  0  0  0
  5 84  1  0  0  0  0
  6  7  1  0  0  0  0
  6 85  1  0  0  0  0
  6 86  1  0  0  0  0
  7  8  1  0  0  0  0
  7 87  1  0  0  0  0
  8  9  1  0  0  0  0
  8 88  1  0  0  0  0
  9 10  1  0  0  0  0
  9 89  1  0  0  0  0
 10 11  1  0  0  0  0
 10 90  1  0  0  0  0
 11 12  1  0  0  0  0
 12 13  1  0  0  0  0
 12 91  1  0  0  0  0
 13 14  1  0  0  0  0
 14 15  1  0  0  0  0
 15 16  1  0  0  0  0
 16 17  1  0  0  0  0
 17 18  1  0  0  0  0
 18 19  1  0  0  0  0
 19 20  1  0  0  0  0
 20 21  1  0  0  0  0
 21 22  1  0  0  0  0
 22 23  1  0  0  0  0
 23 24  1  0  0  0  0
 24 25  1  0  0  0  0
 25 26  1  0  0  0  0
 26 27  1  0  0  0  0
 27 28  1  0  0  0  0
 28 29  1  0  0  0  0
 29 30  1  0  0  0  0
 30 31  1  0  0  0  0
 31 32  1  0  0  0  0
 32 33  1  0  0  0  0
 33 34  1  0  0  0  0
 34 35  1  0  0  0  0
 35 36  1  0  0  0  0
 36 37  1  0  0  0  0
 37 38  1  0  0  0  0
 38 39  1  0  0  0  0
 39 40  1  0  0  0  0
 40 41  1  0  0  0  0
 41 42  1  0  0  0  0
 42 43  1  0  0  0  0
 43 44  1  0  0  0  0
 44 45  1  0  0  0  0
 45 46  1  0  0  0  0
 46 47  1  0  0  0  0
 47 48  1  0  0  0  0
 48 49  1  0  0  0  0
 49 50  1  0  0  0  0
 50 51  1  0  0  0  0
 51 52  1  0  0  0  0
 52 53  1  0  0  0  0
 53 54  1  0  0  0  0
 54 55  1  0  0  0  0
 55 56  1  0  0  0  0
 56 57  1  0  0  0  0
 57 58  1  0  0  0  0
 58 59  1  0  0  0  0
 59 60  1  0  0  0  0
 60 61  1  0  0  0  0
 61 62  1  0  0  0  0
 62 63  1  0  0  0  0
 63 64  1  0  0  0  0
 64 65  1  0  0  0  0
 65 66  1  0  0  0  0
 66 67  1  0  0  0  0
 67 68  1  0  0  0  0
 68 69  1  0  0  0  0
 69 70  1  0  0  0  0
 70 71  1  0  0  0  0
 71 72  1  0  0  0  0
 72 73  1  0  0  0  0
 73 74  1  0  0  0  0
 74 75  1  0  0  0  0
 75 76  1  0  0  0  0
 76 77  1  0  0  0  0
 77 78  1  0  0  0  0
 78 79  1  0  0  0  0
 79 80  1  0  0  0  0
 80 81  1  0  0  0  0
 81 92  1  0  0  0  0
M  END
$$$$
