
 OpenBabel04232217003D

141140  0  0  0  0  0  0  0  0999 V2000
   47.2682  -15.7290   -8.9688 O   0  0  0  0  0  0  0  0  0  0  0  0
   48.4522  -15.9652   -8.8043 C   0  0  0  0  0  0  0  0  0  0  0  0
   49.3157  -16.9595   -9.5450 C   0  0  0  0  0  0  0  0  0  0  0  0
   49.2395  -16.8809  -11.0268 N   0  0  0  0  0  0  0  0  0  0  0  0
   49.7228  -15.6147  -11.5572 N   0  0  0  0  0  0  0  0  0  0  0  0
   51.0400  -15.1631  -11.1614 N   0  0  0  0  0  0  0  0  0  0  0  0
   51.5401  -14.2059  -12.1317 N   0  0  0  0  0  0  0  0  0  0  0  0
   52.9771  -14.1228  -12.1678 N   0  0  0  0  0  0  0  0  0  0  0  0
   53.3979  -12.9430  -13.2573 S   0  0  0  0  0  0  0  0  0  0  0  0
   55.0437  -12.9253  -13.3533 N   0  0  0  0  0  0  0  0  0  0  0  0
   55.6879  -14.2889  -14.0359 S   0  0  0  0  0  0  0  0  0  0  0  0
   55.1328  -14.2365  -15.5958 N   0  0  0  0  0  0  0  0  0  0  0  0
   55.8479  -15.3177  -16.6184 S   0  0  0  0  0  0  0  0  0  0  0  0
   55.2942  -16.8210  -16.2714 N   0  0  0  0  0  0  0  0  0  0  0  0
   53.8836  -17.0676  -16.3272 N   0  0  0  0  0  0  0  0  0  0  0  0
   53.0416  -18.1149  -17.1531 N   0  0  0  0  0  0  0  0  0  0  0  0
   53.6899  -19.4030  -17.8134 N   0  0  0  0  0  0  0  0  0  0  0  0
   53.3868  -20.8559  -17.3697 N   0  0  0  0  0  0  0  0  0  0  0  0
   54.4615  -22.1168  -17.0013 N   0  0  0  0  0  0  0  0  0  0  0  0
   55.9395  -22.2006  -17.0105 N   0  0  0  0  0  0  0  0  0  0  0  0
   56.8499  -22.1010  -15.7853 N   0  0  0  0  0  0  0  0  0  0  0  0
   56.4621  -22.6443  -14.5219 N   0  0  0  0  0  0  0  0  0  0  0  0
   57.4155  -21.9898  -13.2715 S   0  0  0  0  0  0  0  0  0  0  0  0
   56.8039  -20.5637  -12.6652 N   0  0  0  0  0  0  0  0  0  0  0  0
   55.4834  -20.7361  -11.7068 S   0  0  0  0  0  0  0  0  0  0  0  0
   54.6048  -19.3496  -11.4194 N   0  0  0  0  0  0  0  0  0  0  0  0
   54.9808  -17.8895  -12.0927 S   0  0  0  0  0  0  0  0  0  0  0  0
   53.9162  -17.5093  -13.3201 N   0  0  0  0  0  0  0  0  0  0  0  0
   52.3353  -17.3011  -12.9284 S   0  0  0  0  0  0  0  0  0  0  0  0
   51.3772  -17.2262  -14.3297 N   0  0  0  0  0  0  0  0  0  0  0  0
   51.3276  -15.6889  -14.9969 S   0  0  0  0  0  0  0  0  0  0  0  0
   50.7049  -15.7521  -16.5380 N   0  0  0  0  0  0  0  0  0  0  0  0
   49.1509  -16.2934  -16.6102 S   0  0  0  0  0  0  0  0  0  0  0  0
   48.2075  -15.1393  -15.8760 N   0  0  0  0  0  0  0  0  0  0  0  0
   46.6555  -15.4907  -15.9432 S   0  0  0  0  0  0  0  0  0  0  0  0
   46.2835  -17.0044  -15.3402 N   0  0  0  0  0  0  0  0  0  0  0  0
   46.6256  -17.1539  -13.7432 S   0  0  0  0  0  0  0  0  0  0  0  0
   46.0933  -18.6429  -13.2684 N   0  0  0  0  0  0  0  0  0  0  0  0
   47.0071  -19.9182  -13.8005 S   0  0  0  0  0  0  0  0  0  0  0  0
   48.5923  -19.6037  -13.4146 N   0  0  0  0  0  0  0  0  0  0  0  0
   49.0773  -20.4148  -12.0568 S   0  0  0  0  0  0  0  0  0  0  0  0
   50.6854  -20.0445  -11.8893 N   0  0  0  0  0  0  0  0  0  0  0  0
   51.6603  -21.3366  -12.2439 S   0  0  0  0  0  0  0  0  0  0  0  0
   51.7497  -21.4759  -13.9000 N   0  0  0  0  0  0  0  0  0  0  0  0
   52.6290  -20.2254  -14.5740 S   0  0  0  0  0  0  0  0  0  0  0  0
   54.2651  -20.5921  -14.6424 N   0  0  0  0  0  0  0  0  0  0  0  0
   55.3274  -19.3849  -15.1869 S   0  0  0  0  0  0  0  0  0  0  0  0
   56.1546  -19.7953  -16.5750 N   0  0  0  0  0  0  0  0  0  0  0  0
   56.3912  -18.7962  -17.8545 S   0  0  0  0  0  0  0  0  0  0  0  0
   57.9663  -18.4666  -17.9745 N   0  0  0  0  0  0  0  0  0  0  0  0
   58.8010  -19.7533  -18.5597 S   0  0  0  0  0  0  0  0  0  0  0  0
   58.0975  -20.2494  -19.9743 N   0  0  0  0  0  0  0  0  0  0  0  0
   58.0304  -19.0986  -21.1822 S   0  0  0  0  0  0  0  0  0  0  0  0
   59.4576  -18.2316  -21.2478 N   0  0  0  0  0  0  0  0  0  0  0  0
   60.7882  -19.1715  -21.5209 S   0  0  0  0  0  0  0  0  0  0  0  0
   60.6071  -19.8674  -23.0066 N   0  0  0  0  0  0  0  0  0  0  0  0
   60.9818  -18.7858  -24.2264 S   0  0  0  0  0  0  0  0  0  0  0  0
   60.4975  -19.5652  -25.5927 N   0  0  0  0  0  0  0  0  0  0  0  0
   61.6430  -20.6304  -26.1529 S   0  0  0  0  0  0  0  0  0  0  0  0
   61.7456  -21.9395  -25.1328 N   0  0  0  0  0  0  0  0  0  0  0  0
   60.3635  -22.8666  -25.0835 S   0  0  0  0  0  0  0  0  0  0  0  0
   60.1411  -23.5435  -26.5791 N   0  0  0  0  0  0  0  0  0  0  0  0
   61.1413  -24.8256  -26.8528 S   0  0  0  0  0  0  0  0  0  0  0  0
   60.8059  -25.3316  -28.3976 N   0  0  0  0  0  0  0  0  0  0  0  0
   59.4797  -26.3294  -28.4561 S   0  0  0  0  0  0  0  0  0  0  0  0
   58.0872  -25.4575  -28.2662 N   0  0  0  0  0  0  0  0  0  0  0  0
   57.9296  -24.1563  -29.2710 S   0  0  0  0  0  0  0  0  0  0  0  0
   57.5007  -24.6992  -30.7620 N   0  0  0  0  0  0  0  0  0  0  0  0
   56.1015  -25.5880  -30.7319 S   0  0  0  0  0  0  0  0  0  0  0  0
   56.0918  -26.2273  -32.4360 C   0  0  0  0  0  0  0  0  0  0  0  0
   57.6859  -26.9566  -32.9291 S   0  0  0  0  0  0  0  0  0  0  0  0
   57.6851  -28.4767  -31.9202 C   0  0  0  0  0  0  0  0  0  0  0  0
   59.2216  -29.3791  -32.3003 S   0  0  0  0  0  0  0  0  0  0  0  0
   59.1175  -30.7875  -31.1480 C   0  0  0  0  0  0  0  0  0  0  0  0
   57.8884  -31.6690  -31.3483 C   0  0  0  0  0  0  0  0  0  0  0  0
   57.9097  -32.8733  -30.3961 C   0  0  0  0  0  0  0  0  0  0  0  0
   56.6449  -33.7209  -30.5516 C   0  0  0  0  0  0  0  0  0  0  0  0
   56.6395  -34.9093  -29.5912 C   0  0  0  0  0  0  0  0  0  0  0  0
   55.3557  -35.7344  -29.7302 C   0  0  0  0  0  0  0  0  0  0  0  0
   55.3331  -36.8945  -28.7465 C   0  0  0  0  0  0  0  0  0  0  0  0
   48.9914  -15.4921   -7.9572 H   0  0  0  0  0  0  0  0  0  0  0  0
   49.0030  -17.9681   -9.2298 H   0  0  0  0  0  0  0  0  0  0  0  0
   50.3638  -16.8672   -9.2291 H   0  0  0  0  0  0  0  0  0  0  0  0
   48.2657  -17.0485  -11.3097 H   0  0  0  0  0  0  0  0  0  0  0  0
   49.0425  -14.8584  -11.6693 H   0  0  0  0  0  0  0  0  0  0  0  0
   51.7060  -15.9540  -11.1960 H   0  0  0  0  0  0  0  0  0  0  0  0
   51.1634  -13.2644  -11.9693 H   0  0  0  0  0  0  0  0  0  0  0  0
   53.4210  -14.9929  -12.4881 H   0  0  0  0  0  0  0  0  0  0  0  0
   55.4830  -12.6320  -12.4797 H   0  0  0  0  0  0  0  0  0  0  0  0
   55.3574  -13.3017  -15.9423 H   0  0  0  0  0  0  0  0  0  0  0  0
   55.6968  -17.0951  -15.3554 H   0  0  0  0  0  0  0  0  0  0  0  0
   53.3543  -16.3151  -15.8503 H   0  0  0  0  0  0  0  0  0  0  0  0
   52.8365  -17.5472  -17.9900 H   0  0  0  0  0  0  0  0  0  0  0  0
   54.6720  -19.2112  -17.6870 H   0  0  0  0  0  0  0  0  0  0  0  0
   52.7576  -20.8209  -16.5676 H   0  0  0  0  0  0  0  0  0  0  0  0
   54.1062  -22.9099  -17.5555 H   0  0  0  0  0  0  0  0  0  0  0  0
   56.4245  -21.8752  -17.8539 H   0  0  0  0  0  0  0  0  0  0  0  0
   57.1046  -21.1195  -15.5975 H   0  0  0  0  0  0  0  0  0  0  0  0
   56.7217  -23.6349  -14.5648 H   0  0  0  0  0  0  0  0  0  0  0  0
   56.7710  -19.7916  -13.3217 H   0  0  0  0  0  0  0  0  0  0  0  0
   54.5750  -19.2292  -10.4057 H   0  0  0  0  0  0  0  0  0  0  0  0
   53.9610  -18.2275  -14.0470 H   0  0  0  0  0  0  0  0  0  0  0  0
   50.4206  -17.4322  -14.0261 H   0  0  0  0  0  0  0  0  0  0  0  0
   51.2682  -16.3293  -17.1387 H   0  0  0  0  0  0  0  0  0  0  0  0
   48.3429  -14.2353  -16.3260 H   0  0  0  0  0  0  0  0  0  0  0  0
   46.6116  -17.7733  -15.9241 H   0  0  0  0  0  0  0  0  0  0  0  0
   45.0826  -18.7720  -13.3815 H   0  0  0  0  0  0  0  0  0  0  0  0
   48.6675  -18.6056  -13.2483 H   0  0  0  0  0  0  0  0  0  0  0  0
   50.8608  -19.7439  -10.9187 H   0  0  0  0  0  0  0  0  0  0  0  0
   50.7896  -21.4917  -14.2561 H   0  0  0  0  0  0  0  0  0  0  0  0
   54.5484  -20.8533  -13.6890 H   0  0  0  0  0  0  0  0  0  0  0  0
   55.6130  -20.6300  -16.8754 H   0  0  0  0  0  0  0  0  0  0  0  0
   58.3187  -18.1245  -17.0833 H   0  0  0  0  0  0  0  0  0  0  0  0
   57.1589  -20.6300  -19.8212 H   0  0  0  0  0  0  0  0  0  0  0  0
   59.5665  -17.7109  -20.3707 H   0  0  0  0  0  0  0  0  0  0  0  0
   59.6565  -20.2456  -23.1591 H   0  0  0  0  0  0  0  0  0  0  0  0
   60.3157  -18.8569  -26.3165 H   0  0  0  0  0  0  0  0  0  0  0  0
   61.9906  -21.6119  -24.1973 H   0  0  0  0  0  0  0  0  0  0  0  0
   60.1994  -22.8448  -27.3196 H   0  0  0  0  0  0  0  0  0  0  0  0
   61.6152  -25.8193  -28.7968 H   0  0  0  0  0  0  0  0  0  0  0  0
   57.8847  -25.2162  -27.2968 H   0  0  0  0  0  0  0  0  0  0  0  0
   58.2474  -25.1983  -31.2591 H   0  0  0  0  0  0  0  0  0  0  0  0
   55.8913  -25.3844  -33.1048 H   0  0  0  0  0  0  0  0  0  0  0  0
   55.2819  -26.9508  -32.5597 H   0  0  0  0  0  0  0  0  0  0  0  0
   56.8075  -29.0761  -32.1699 H   0  0  0  0  0  0  0  0  0  0  0  0
   57.6842  -28.2211  -30.8572 H   0  0  0  0  0  0  0  0  0  0  0  0
   59.1679  -30.4052  -30.1242 H   0  0  0  0  0  0  0  0  0  0  0  0
   60.0222  -31.3868  -31.3110 H   0  0  0  0  0  0  0  0  0  0  0  0
   57.8444  -32.0286  -32.3818 H   0  0  0  0  0  0  0  0  0  0  0  0
   56.9736  -31.0937  -31.1597 H   0  0  0  0  0  0  0  0  0  0  0  0
   57.9913  -32.5214  -29.3595 H   0  0  0  0  0  0  0  0  0  0  0  0
   58.7963  -33.4892  -30.5982 H   0  0  0  0  0  0  0  0  0  0  0  0
   56.5703  -34.0828  -31.5842 H   0  0  0  0  0  0  0  0  0  0  0  0
   55.7640  -33.0952  -30.3643 H   0  0  0  0  0  0  0  0  0  0  0  0
   56.7279  -34.5494  -28.5586 H   0  0  0  0  0  0  0  0  0  0  0  0
   57.5058  -35.5494  -29.7872 H   0  0  0  0  0  0  0  0  0  0  0  0
   55.2732  -36.1259  -30.7509 H   0  0  0  0  0  0  0  0  0  0  0  0
   54.4795  -35.0987  -29.5554 H   0  0  0  0  0  0  0  0  0  0  0  0
   56.1792  -37.5679  -28.9171 H   0  0  0  0  0  0  0  0  0  0  0  0
   54.4107  -37.4726  -28.8578 H   0  0  0  0  0  0  0  0  0  0  0  0
   55.3845  -36.5332  -27.7141 H   0  0  0  0  0  0  0  0  0  0  0  0
  1  2  2  0  0  0  0
  2  3  1  0  0  0  0
  2 81  1  0  0  0  0
  3  4  1  0  0  0  0
  3 82  1  0  0  0  0
  3 83  1  0  0  0  0
  4  5  1  0  0  0  0
  4 84  1  0  0  0  0
  5  6  1  0  0  0  0
  5 85  1  0  0  0  0
  6  7  1  0  0  0  0
  6 86  1  0  0  0  0
  7  8  1  0  0  0  0
  7 87  1  0  0  0  0
  8  9  1  0  0  0  0
  8 88  1  0  0  0  0
  9 10  1  0  0  0  0
 10 11  1  0  0  0  0
 10 89  1  0  0  0  0
 11 12  1  0  0  0  0
 12 13  1  0  0  0  0
 12 90  1  0  0  0  0
 13 14  1  0  0  0  0
 14 15  1  0  0  0  0
 14 91  1  0  0  0  0
 15 16  1  0  0  0  0
 15 92  1  0  0  0  0
 16 17  1  0  0  0  0
 16 93  1  0  0  0  0
 17 18  1  0  0  0  0
 17 94  1  0  0  0  0
 18 19  1  0  0  0  0
 18 95  1  0  0  0  0
 19 20  1  0  0  0  0
 19 96  1  0  0  0  0
 20 21  1  0  0  0  0
 20 97  1  0  0  0  0
 21 22  1  0  0  0  0
 21 98  1  0  0  0  0
 22 23  1  0  0  0  0
 22 99  1  0  0  0  0
 23 24  1  0  0  0  0
 24 25  1  0  0  0  0
 24100  1  0  0  0  0
 25 26  1  0  0  0  0
 26 27  1  0  0  0  0
 26101  1  0  0  0  0
 27 28  1  0  0  0  0
 28 29  1  0  0  0  0
 28102  1  0  0  0  0
 29 30  1  0  0  0  0
 30 31  1  0  0  0  0
 30103  1  0  0  0  0
 31 32  1  0  0  0  0
 32 33  1  0  0  0  0
 32104  1  0  0  0  0
 33 34  1  0  0  0  0
 34 35  1  0  0  0  0
 34105  1  0  0  0  0
 35 36  1  0  0  0  0
 36 37  1  0  0  0  0
 36106  1  0  0  0  0
 37 38  1  0  0  0  0
 38 39  1  0  0  0  0
 38107  1  0  0  0  0
 39 40  1  0  0  0  0
 40 41  1  0  0  0  0
 40108  1  0  0  0  0
 41 42  1  0  0  0  0
 42 43  1  0  0  0  0
 42109  1  0  0  0  0
 43 44  1  0  0  0  0
 44 45  1  0  0  0  0
 44110  1  0  0  0  0
 45 46  1  0  0  0  0
 46 47  1  0  0  0  0
 46111  1  0  0  0  0
 47 48  1  0  0  0  0
 48 49  1  0  0  0  0
 48112  1  0  0  0  0
 49 50  1  0  0  0  0
 50 51  1  0  0  0  0
 50113  1  0  0  0  0
 51 52  1  0  0  0  0
 52 53  1  0  0  0  0
 52114  1  0  0  0  0
 53 54  1  0  0  0  0
 54 55  1  0  0  0  0
 54115  1  0  0  0  0
 55 56  1  0  0  0  0
 56 57  1  0  0  0  0
 56116  1  0  0  0  0
 57 58  1  0  0  0  0
 58 59  1  0  0  0  0
 58117  1  0  0  0  0
 59 60  1  0  0  0  0
 60 61  1  0  0  0  0
 60118  1  0  0  0  0
 61 62  1  0  0  0  0
 62 63  1  0  0  0  0
 62119  1  0  0  0  0
 63 64  1  0  0  0  0
 64 65  1  0  0  0  0
 64120  1  0  0  0  0
 65 66  1  0  0  0  0
 66 67  1  0  0  0  0
 66121  1  0  0  0  0
 67 68  1  0  0  0  0
 68 69  1  0  0  0  0
 68122  1  0  0  0  0
 69 70  1  0  0  0  0
 70 71  1  0  0  0  0
 70123  1  0  0  0  0
 70124  1  0  0  0  0
 71 72  1  0  0  0  0
 72 73  1  0  0  0  0
 72125  1  0  0  0  0
 72126  1  0  0  0  0
 73 74  1  0  0  0  0
 74 75  1  0  0  0  0
 74127  1  0  0  0  0
 74128  1  0  0  0  0
 75 76  1  0  0  0  0
 75129  1  0  0  0  0
 75130  1  0  0  0  0
 76 77  1  0  0  0  0
 76131  1  0  0  0  0
 76132  1  0  0  0  0
 77 78  1  0  0  0  0
 77133  1  0  0  0  0
 77134  1  0  0  0  0
 78 79  1  0  0  0  0
 78135  1  0  0  0  0
 78136  1  0  0  0  0
 79 80  1  0  0  0  0
 79137  1  0  0  0  0
 79138  1  0  0  0  0
 80139  1  0  0  0  0
 80140  1  0  0  0  0
 80141  1  0  0  0  0
M  END
$$$$
