
 OpenBabel04232217023D

158157  0  0  0  0  0  0  0  0999 V2000
   45.6821  -33.9528   -3.3139 O   0  0  0  0  0  0  0  0  0  0  0  0
   45.0093  -34.1474   -4.8243 S   0  0  0  0  0  0  0  0  0  0  0  0
   45.1296  -35.9584   -5.0046 C   0  0  0  0  0  0  0  0  0  0  0  0
   44.6729  -36.3680   -6.4018 C   0  0  0  0  0  0  0  0  0  0  0  0
   44.8148  -37.9101   -6.6337 C   0  0  0  0  0  0  0  0  0  0  0  0
   44.3315  -38.2517   -7.9831 N   0  0  0  0  0  0  0  0  0  0  0  0
   44.5279  -39.6430   -8.1593 N   0  0  0  0  0  0  0  0  0  0  0  0
   44.0548  -40.0713   -9.4508 N   0  0  0  0  0  0  0  0  0  0  0  0
   44.3550  -41.6926   -9.6644 S   0  0  0  0  0  0  0  0  0  0  0  0
   43.6919  -41.8170  -11.6030 S   0  0  0  0  0  0  0  0  0  0  0  0
   45.0946  -40.7793  -12.6895 S   0  0  0  0  0  0  0  0  0  0  0  0
   46.6397  -42.0977  -12.9103 S   0  0  0  0  0  0  0  0  0  0  0  0
   47.9230  -41.2465  -14.2594 S   0  0  0  0  0  0  0  0  0  0  0  0
   49.7667  -41.7054  -13.4987 S   0  0  0  0  0  0  0  0  0  0  0  0
   51.1443  -41.0203  -14.8454 S   0  0  0  0  0  0  0  0  0  0  0  0
   51.1687  -39.0112  -14.5444 S   0  0  0  0  0  0  0  0  0  0  0  0
   51.8451  -38.8055  -12.8803 C   0  0  0  0  0  0  0  0  0  0  0  0
   53.5771  -39.1995  -12.6095 S   0  0  0  0  0  0  0  0  0  0  0  0
   54.5437  -38.0523  -13.6907 C   0  0  0  0  0  0  0  0  0  0  0  0
   56.3202  -38.2424  -13.2113 S   0  0  0  0  0  0  0  0  0  0  0  0
   57.1379  -36.8815  -14.0918 C   0  0  0  0  0  0  0  0  0  0  0  0
   58.3084  -35.8546  -13.0868 S   0  0  0  0  0  0  0  0  0  0  0  0
   57.4147  -35.4893  -11.5278 C   0  0  0  0  0  0  0  0  0  0  0  0
   57.2654  -33.7508  -10.9223 S   0  0  0  0  0  0  0  0  0  0  0  0
   55.4169  -33.3610  -10.9077 C   0  0  0  0  0  0  0  0  0  0  0  0
   54.3743  -34.7553  -10.4649 S   0  0  0  0  0  0  0  0  0  0  0  0
   52.7520  -33.9695  -10.4942 C   0  0  0  0  0  0  0  0  0  0  0  0
   51.6180  -34.2605  -11.9009 S   0  0  0  0  0  0  0  0  0  0  0  0
   52.4869  -35.3947  -13.0191 C   0  0  0  0  0  0  0  0  0  0  0  0
   51.5338  -35.8043  -14.5449 S   0  0  0  0  0  0  0  0  0  0  0  0
   52.4316  -35.2770  -16.0396 C   0  0  0  0  0  0  0  0  0  0  0  0
   54.1350  -35.8607  -16.3381 S   0  0  0  0  0  0  0  0  0  0  0  0
   54.9297  -34.4587  -17.2705 C   0  0  0  0  0  0  0  0  0  0  0  0
   53.9016  -33.0052  -17.3576 S   0  0  0  0  0  0  0  0  0  0  0  0
   54.9072  -31.6022  -16.9236 C   0  0  0  0  0  0  0  0  0  0  0  0
   54.7493  -30.6060  -18.2937 S   0  0  0  0  0  0  0  0  0  0  0  0
   53.0119  -30.2863  -18.4605 C   0  0  0  0  0  0  0  0  0  0  0  0
   52.7955  -28.6620  -17.7323 S   0  0  0  0  0  0  0  0  0  0  0  0
   51.0269  -28.6528  -17.7744 C   0  0  0  0  0  0  0  0  0  0  0  0
   50.2369  -29.8383  -16.6618 S   0  0  0  0  0  0  0  0  0  0  0  0
   51.2342  -29.5957  -15.1605 C   0  0  0  0  0  0  0  0  0  0  0  0
   50.8599  -30.8583  -13.9274 S   0  0  0  0  0  0  0  0  0  0  0  0
   52.0881  -32.0859  -14.4746 C   0  0  0  0  0  0  0  0  0  0  0  0
   53.7602  -31.6709  -13.7608 S   0  0  0  0  0  0  0  0  0  0  0  0
   54.7615  -33.1058  -14.2194 C   0  0  0  0  0  0  0  0  0  0  0  0
   56.5583  -33.1855  -14.0834 S   0  0  0  0  0  0  0  0  0  0  0  0
   57.3177  -32.1315  -15.2585 C   0  0  0  0  0  0  0  0  0  0  0  0
   59.0365  -31.6837  -15.0390 S   0  0  0  0  0  0  0  0  0  0  0  0
   59.0740  -30.3962  -16.3487 C   0  0  0  0  0  0  0  0  0  0  0  0
   58.0589  -28.9456  -15.9003 S   0  0  0  0  0  0  0  0  0  0  0  0
   57.9416  -28.0074  -17.4710 C   0  0  0  0  0  0  0  0  0  0  0  0
   57.4264  -28.9690  -18.9286 S   0  0  0  0  0  0  0  0  0  0  0  0
   55.8519  -28.2517  -19.4936 C   0  0  0  0  0  0  0  0  0  0  0  0
   54.9031  -29.2419  -20.9871 S   0  0  0  0  0  0  0  0  0  0  0  0
   55.6478  -30.9916  -21.1849 C   0  0  0  0  0  0  0  0  0  0  0  0
   54.8351  -32.5622  -20.7833 S   0  0  0  0  0  0  0  0  0  0  0  0
   56.1893  -33.8161  -20.6887 C   0  0  0  0  0  0  0  0  0  0  0  0
   57.9634  -33.4282  -20.6693 S   0  0  0  0  0  0  0  0  0  0  0  0
   58.3966  -32.7437  -19.0779 C   0  0  0  0  0  0  0  0  0  0  0  0
   60.2112  -32.3897  -18.9690 S   0  0  0  0  0  0  0  0  0  0  0  0
   60.5199  -30.9921  -20.1319 C   0  0  0  0  0  0  0  0  0  0  0  0
   60.6306  -29.3787  -19.3581 S   0  0  0  0  0  0  0  0  0  0  0  0
   60.2315  -28.1017  -20.5971 C   0  0  0  0  0  0  0  0  0  0  0  0
   59.4990  -28.2741  -22.2375 S   0  0  0  0  0  0  0  0  0  0  0  0
   58.0367  -29.2333  -22.0371 C   0  0  0  0  0  0  0  0  0  0  0  0
   57.3941  -30.0367  -23.5309 S   0  0  0  0  0  0  0  0  0  0  0  0
   58.3105  -31.6113  -23.5972 C   0  0  0  0  0  0  0  0  0  0  0  0
   57.3995  -33.1427  -23.8480 S   0  0  0  0  0  0  0  0  0  0  0  0
   58.7536  -34.3993  -23.7906 C   0  0  0  0  0  0  0  0  0  0  0  0
   60.4505  -33.8856  -24.1909 S   0  0  0  0  0  0  0  0  0  0  0  0
   61.0833  -33.3311  -22.6030 C   0  0  0  0  0  0  0  0  0  0  0  0
   62.8023  -32.7884  -22.5912 S   0  0  0  0  0  0  0  0  0  0  0  0
   62.7572  -31.4086  -23.7970 C   0  0  0  0  0  0  0  0  0  0  0  0
   62.0297  -29.9217  -23.1223 S   0  0  0  0  0  0  0  0  0  0  0  0
   61.8791  -28.7671  -24.5462 C   0  0  0  0  0  0  0  0  0  0  0  0
   61.2642  -29.4160  -26.1358 S   0  0  0  0  0  0  0  0  0  0  0  0
   59.4450  -29.4744  -25.8470 C   0  0  0  0  0  0  0  0  0  0  0  0
   58.6104  -30.3433  -27.2615 S   0  0  0  0  0  0  0  0  0  0  0  0
   56.9325  -30.9193  -26.7165 C   0  0  0  0  0  0  0  0  0  0  0  0
   55.6636  -29.6316  -26.5288 S   0  0  0  0  0  0  0  0  0  0  0  0
   54.3334  -30.5775  -25.6832 C   0  0  0  0  0  0  0  0  0  0  0  0
   45.2294  -33.2243   -2.8221 H   0  0  0  0  0  0  0  0  0  0  0  0
   44.5045  -36.4361   -4.2265 H   0  0  0  0  0  0  0  0  0  0  0  0
   46.1640  -36.2610   -4.8301 H   0  0  0  0  0  0  0  0  0  0  0  0
   45.2510  -35.8356   -7.1713 H   0  0  0  0  0  0  0  0  0  0  0  0
   43.6197  -36.0973   -6.5374 H   0  0  0  0  0  0  0  0  0  0  0  0
   44.2093  -38.4318   -5.8857 H   0  0  0  0  0  0  0  0  0  0  0  0
   45.8535  -38.1998   -6.5125 H   0  0  0  0  0  0  0  0  0  0  0  0
   44.8527  -37.7089   -8.6825 H   0  0  0  0  0  0  0  0  0  0  0  0
   44.0132  -40.1827   -7.4566 H   0  0  0  0  0  0  0  0  0  0  0  0
   44.5277  -39.5723  -10.2070 H   0  0  0  0  0  0  0  0  0  0  0  0
   51.2446  -39.4593  -12.2020 H   0  0  0  0  0  0  0  0  0  0  0  0
   51.5444  -37.8293  -12.4854 H   0  0  0  0  0  0  0  0  0  0  0  0
   54.2953  -37.0175  -13.4871 H   0  0  0  0  0  0  0  0  0  0  0  0
   54.3846  -38.2946  -14.7502 H   0  0  0  0  0  0  0  0  0  0  0  0
   56.4510  -36.2480  -14.6548 H   0  0  0  0  0  0  0  0  0  0  0  0
   57.7711  -37.3612  -14.8520 H   0  0  0  0  0  0  0  0  0  0  0  0
   58.0931  -35.9127  -10.7832 H   0  0  0  0  0  0  0  0  0  0  0  0
   56.4811  -36.0211  -11.4811 H   0  0  0  0  0  0  0  0  0  0  0  0
   55.1640  -33.0142  -11.8989 H   0  0  0  0  0  0  0  0  0  0  0  0
   55.2855  -32.5070  -10.2336 H   0  0  0  0  0  0  0  0  0  0  0  0
   52.8204  -32.8867  -10.3198 H   0  0  0  0  0  0  0  0  0  0  0  0
   52.2149  -34.3691   -9.6308 H   0  0  0  0  0  0  0  0  0  0  0  0
   52.5620  -36.2882  -12.4188 H   0  0  0  0  0  0  0  0  0  0  0  0
   53.5018  -35.1460  -13.2478 H   0  0  0  0  0  0  0  0  0  0  0  0
   52.2893  -34.2104  -16.0805 H   0  0  0  0  0  0  0  0  0  0  0  0
   51.8678  -35.6646  -16.8965 H   0  0  0  0  0  0  0  0  0  0  0  0
   54.9929  -34.7825  -18.3014 H   0  0  0  0  0  0  0  0  0  0  0  0
   55.9596  -34.2885  -16.9349 H   0  0  0  0  0  0  0  0  0  0  0  0
   55.9670  -31.7430  -17.0059 H   0  0  0  0  0  0  0  0  0  0  0  0
   54.6636  -30.9459  -16.0893 H   0  0  0  0  0  0  0  0  0  0  0  0
   52.3896  -31.0543  -18.0111 H   0  0  0  0  0  0  0  0  0  0  0  0
   52.7496  -30.2568  -19.5202 H   0  0  0  0  0  0  0  0  0  0  0  0
   50.7304  -28.8509  -18.8083 H   0  0  0  0  0  0  0  0  0  0  0  0
   50.7149  -27.6439  -17.5149 H   0  0  0  0  0  0  0  0  0  0  0  0
   51.0136  -28.6008  -14.7342 H   0  0  0  0  0  0  0  0  0  0  0  0
   52.3085  -29.6738  -15.3624 H   0  0  0  0  0  0  0  0  0  0  0  0
   52.0736  -32.1084  -15.5619 H   0  0  0  0  0  0  0  0  0  0  0  0
   51.7064  -33.0458  -14.1530 H   0  0  0  0  0  0  0  0  0  0  0  0
   54.3694  -33.6221  -15.0506 H   0  0  0  0  0  0  0  0  0  0  0  0
   54.5411  -33.8110  -13.4473 H   0  0  0  0  0  0  0  0  0  0  0  0
   56.7500  -31.1969  -15.1864 H   0  0  0  0  0  0  0  0  0  0  0  0
   57.2945  -32.6369  -16.2006 H   0  0  0  0  0  0  0  0  0  0  0  0
   58.6394  -30.8531  -17.2344 H   0  0  0  0  0  0  0  0  0  0  0  0
   60.1168  -30.1448  -16.5571 H   0  0  0  0  0  0  0  0  0  0  0  0
   58.9390  -27.5902  -17.6450 H   0  0  0  0  0  0  0  0  0  0  0  0
   57.2739  -27.1632  -17.2872 H   0  0  0  0  0  0  0  0  0  0  0  0
   55.9697  -27.2212  -19.8360 H   0  0  0  0  0  0  0  0  0  0  0  0
   55.2073  -28.1656  -18.6239 H   0  0  0  0  0  0  0  0  0  0  0  0
   56.6514  -31.0241  -20.8040 H   0  0  0  0  0  0  0  0  0  0  0  0
   55.5940  -31.1040  -22.2600 H   0  0  0  0  0  0  0  0  0  0  0  0
   56.0405  -34.4422  -21.5776 H   0  0  0  0  0  0  0  0  0  0  0  0
   56.0019  -34.5218  -19.8844 H   0  0  0  0  0  0  0  0  0  0  0  0
   58.1768  -33.4829  -18.3068 H   0  0  0  0  0  0  0  0  0  0  0  0
   57.8244  -31.8479  -18.8767 H   0  0  0  0  0  0  0  0  0  0  0  0
   59.8094  -31.0208  -20.9384 H   0  0  0  0  0  0  0  0  0  0  0  0
   61.5228  -31.1761  -20.5121 H   0  0  0  0  0  0  0  0  0  0  0  0
   61.1993  -27.6357  -20.8045 H   0  0  0  0  0  0  0  0  0  0  0  0
   59.6642  -27.3215  -20.0794 H   0  0  0  0  0  0  0  0  0  0  0  0
   57.2901  -28.4994  -21.7485 H   0  0  0  0  0  0  0  0  0  0  0  0
   58.1745  -29.9823  -21.2764 H   0  0  0  0  0  0  0  0  0  0  0  0
   58.9723  -31.6306  -22.7540 H   0  0  0  0  0  0  0  0  0  0  0  0
   58.8837  -31.6245  -24.5094 H   0  0  0  0  0  0  0  0  0  0  0  0
   58.4750  -35.1153  -24.5686 H   0  0  0  0  0  0  0  0  0  0  0  0
   58.7339  -34.9773  -22.8616 H   0  0  0  0  0  0  0  0  0  0  0  0
   61.0199  -34.2228  -21.8705 H   0  0  0  0  0  0  0  0  0  0  0  0
   60.4748  -32.5896  -22.1308 H   0  0  0  0  0  0  0  0  0  0  0  0
   62.2329  -31.7238  -24.6887 H   0  0  0  0  0  0  0  0  0  0  0  0
   63.7951  -31.1726  -24.0255 H   0  0  0  0  0  0  0  0  0  0  0  0
   62.8609  -28.3386  -24.7054 H   0  0  0  0  0  0  0  0  0  0  0  0
   61.2527  -27.9074  -24.2611 H   0  0  0  0  0  0  0  0  0  0  0  0
   59.0187  -28.4792  -25.6950 H   0  0  0  0  0  0  0  0  0  0  0  0
   59.4361  -30.0225  -24.9285 H   0  0  0  0  0  0  0  0  0  0  0  0
   56.9806  -31.5589  -25.8479 H   0  0  0  0  0  0  0  0  0  0  0  0
   56.5752  -31.5850  -27.5110 H   0  0  0  0  0  0  0  0  0  0  0  0
   53.5764  -29.8722  -25.3188 H   0  0  0  0  0  0  0  0  0  0  0  0
   54.6999  -31.1325  -24.8141 H   0  0  0  0  0  0  0  0  0  0  0  0
   53.8325  -31.2713  -26.3658 H   0  0  0  0  0  0  0  0  0  0  0  0
  1  2  1  0  0  0  0
  1 82  1  0  0  0  0
  2  3  1  0  0  0  0
  3  4  1  0  0  0  0
  3 83  1  0  0  0  0
  3 84  1  0  0  0  0
  4  5  1  0  0  0  0
  4 85  1  0  0  0  0
  4 86  1  0  0  0  0
  5  6  1  0  0  0  0
  5 87  1  0  0  0  0
  5 88  1  0  0  0  0
  6  7  1  0  0  0  0
  6 89  1  0  0  0  0
  7  8  1  0  0  0  0
  7 90  1  0  0  0  0
  8  9  1  0  0  0  0
  8 91  1  0  0  0  0
  9 10  1  0  0  0  0
 10 11  1  0  0  0  0
 11 12  1  0  0  0  0
 12 13  1  0  0  0  0
 13 14  1  0  0  0  0
 14 15  1  0  0  0  0
 15 16  1  0  0  0  0
 16 17  1  0  0  0  0
 17 18  1  0  0  0  0
 17 92  1  0  0  0  0
 17 93  1  0  0  0  0
 18 19  1  0  0  0  0
 19 20  1  0  0  0  0
 19 94  1  0  0  0  0
 19 95  1  0  0  0  0
 20 21  1  0  0  0  0
 21 22  1  0  0  0  0
 21 96  1  0  0  0  0
 21 97  1  0  0  0  0
 22 23  1  0  0  0  0
 23 24  1  0  0  0  0
 23 98  1  0  0  0  0
 23 99  1  0  0  0  0
 24 25  1  0  0  0  0
 25 26  1  0  0  0  0
 25100  1  0  0  0  0
 25101  1  0  0  0  0
 26 27  1  0  0  0  0
 27 28  1  0  0  0  0
 27102  1  0  0  0  0
 27103  1  0  0  0  0
 28 29  1  0  0  0  0
 29 30  1  0  0  0  0
 29104  1  0  0  0  0
 29105  1  0  0  0  0
 30 31  1  0  0  0  0
 31 32  1  0  0  0  0
 31106  1  0  0  0  0
 31107  1  0  0  0  0
 32 33  1  0  0  0  0
 33 34  1  0  0  0  0
 33108  1  0  0  0  0
 33109  1  0  0  0  0
 34 35  1  0  0  0  0
 35 36  1  0  0  0  0
 35110  1  0  0  0  0
 35111  1  0  0  0  0
 36 37  1  0  0  0  0
 37 38  1  0  0  0  0
 37112  1  0  0  0  0
 37113  1  0  0  0  0
 38 39  1  0  0  0  0
 39 40  1  0  0  0  0
 39114  1  0  0  0  0
 39115  1  0  0  0  0
 40 41  1  0  0  0  0
 41 42  1  0  0  0  0
 41116  1  0  0  0  0
 41117  1  0  0  0  0
 42 43  1  0  0  0  0
 43 44  1  0  0  0  0
 43118  1  0  0  0  0
 43119  1  0  0  0  0
 44 45  1  0  0  0  0
 45 46  1  0  0  0  0
 45120  1  0  0  0  0
 45121  1  0  0  0  0
 46 47  1  0  0  0  0
 47 48  1  0  0  0  0
 47122  1  0  0  0  0
 47123  1  0  0  0  0
 48 49  1  0  0  0  0
 49 50  1  0  0  0  0
 49124  1  0  0  0  0
 49125  1  0  0  0  0
 50 51  1  0  0  0  0
 51 52  1  0  0  0  0
 51126  1  0  0  0  0
 51127  1  0  0  0  0
 52 53  1  0  0  0  0
 53 54  1  0  0  0  0
 53128  1  0  0  0  0
 53129  1  0  0  0  0
 54 55  1  0  0  0  0
 55 56  1  0  0  0  0
 55130  1  0  0  0  0
 55131  1  0  0  0  0
 56 57  1  0  0  0  0
 57 58  1  0  0  0  0
 57132  1  0  0  0  0
 57133  1  0  0  0  0
 58 59  1  0  0  0  0
 59 60  1  0  0  0  0
 59134  1  0  0  0  0
 59135  1  0  0  0  0
 60 61  1  0  0  0  0
 61 62  1  0  0  0  0
 61136  1  0  0  0  0
 61137  1  0  0  0  0
 62 63  1  0  0  0  0
 63 64  1  0  0  0  0
 63138  1  0  0  0  0
 63139  1  0  0  0  0
 64 65  1  0  0  0  0
 65 66  1  0  0  0  0
 65140  1  0  0  0  0
 65141  1  0  0  0  0
 66 67  1  0  0  0  0
 67 68  1  0  0  0  0
 67142  1  0  0  0  0
 67143  1  0  0  0  0
 68 69  1  0  0  0  0
 69 70  1  0  0  0  0
 69144  1  0  0  0  0
 69145  1  0  0  0  0
 70 71  1  0  0  0  0
 71 72  1  0  0  0  0
 71146  1  0  0  0  0
 71147  1  0  0  0  0
 72 73  1  0  0  0  0
 73 74  1  0  0  0  0
 73148  1  0  0  0  0
 73149  1  0  0  0  0
 74 75  1  0  0  0  0
 75 76  1  0  0  0  0
 75150  1  0  0  0  0
 75151  1  0  0  0  0
 76 77  1  0  0  0  0
 77 78  1  0  0  0  0
 77152  1  0  0  0  0
 77153  1  0  0  0  0
 78 79  1  0  0  0  0
 79 80  1  0  0  0  0
 79154  1  0  0  0  0
 79155  1  0  0  0  0
 80 81  1  0  0  0  0
 81156  1  0  0  0  0
 81157  1  0  0  0  0
 81158  1  0  0  0  0
M  END
$$$$
