
 OpenBabel04232216503D

 50 52  0  0  0  0  0  0  0  0999 V2000
    2.4838   -0.3855   -0.8451 C   0  0  0  0  0  0  0  0  0  0  0  0
    3.3214   -0.6176   -2.0798 C   0  0  0  0  0  0  0  0  0  0  0  0
    4.3877   -1.4967   -2.1363 N   0  0  0  0  0  0  0  0  0  0  0  0
    5.5496   -0.9939   -1.7625 C   0  0  0  0  0  0  0  0  0  0  0  0
    5.6772   -0.4140   -0.4475 N   0  0  0  0  0  0  0  0  0  0  0  0
    6.4735    0.7556   -0.0264 C   0  0  0  0  0  0  0  0  0  0  0  0
    7.6627    0.3423    0.8733 C   0  0  0  0  0  0  0  0  0  0  0  0
    7.2793   -0.6219    1.9924 C   0  0  0  0  0  0  0  0  0  0  0  0
    6.2674   -1.6806    1.5558 C   0  0  0  0  0  0  0  0  0  0  0  0
    5.1243   -1.0919    0.7373 C   0  0  0  0  0  0  0  0  0  0  0  0
    6.7395   -1.0778   -2.8610 C   0  0  0  0  0  0  0  0  0  0  0  0
    7.7902   -0.3987   -2.3942 C   0  0  0  0  0  0  0  0  0  0  0  0
    8.3777    0.7228   -3.0895 C   0  0  0  0  0  0  0  0  0  0  0  0
    9.6843    1.0013   -3.0294 C   0  0  0  0  0  0  0  0  0  0  0  0
   10.2569    1.4668   -4.2926 C   0  0  0  0  0  0  0  0  0  0  0  0
   11.1710    0.6242   -4.8281 C   0  0  0  0  0  0  0  0  0  0  0  0
   10.7367   -0.0858   -6.0572 C   0  0  0  0  0  0  0  0  0  0  0  0
   10.3268   -1.3730   -5.9230 C   0  0  0  0  0  0  0  0  0  0  0  0
    8.9663   -1.8141   -5.4323 C   0  0  0  0  0  0  0  0  0  0  0  0
    7.8534   -1.0527   -5.3306 C   0  0  0  0  0  0  0  0  0  0  0  0
    6.5892   -1.1334   -4.4066 C   0  0  0  0  0  0  0  0  0  0  0  0
    5.5635   -0.3745   -4.8446 C   0  0  0  0  0  0  0  0  0  0  0  0
    4.2148   -0.8706   -5.0472 C   0  0  0  0  0  0  0  0  0  0  0  0
    3.1094   -0.6494   -4.3371 C   0  0  0  0  0  0  0  0  0  0  0  0
    2.8828   -0.0194   -3.1509 N   0  0  0  0  0  0  0  0  0  0  0  0
    1.4297   -0.3334   -1.1588 H   0  0  0  0  0  0  0  0  0  0  0  0
    2.7239    0.5700   -0.3734 H   0  0  0  0  0  0  0  0  0  0  0  0
    2.5470   -1.2097   -0.1381 H   0  0  0  0  0  0  0  0  0  0  0  0
    5.8298    1.4104    0.5782 H   0  0  0  0  0  0  0  0  0  0  0  0
    6.7808    1.3849   -0.8654 H   0  0  0  0  0  0  0  0  0  0  0  0
    8.1351    1.2380    1.2935 H   0  0  0  0  0  0  0  0  0  0  0  0
    8.4700   -0.1454    0.3259 H   0  0  0  0  0  0  0  0  0  0  0  0
    6.8813   -0.0476    2.8350 H   0  0  0  0  0  0  0  0  0  0  0  0
    8.1836   -1.1272    2.3577 H   0  0  0  0  0  0  0  0  0  0  0  0
    5.8679   -2.1793    2.4460 H   0  0  0  0  0  0  0  0  0  0  0  0
    6.7719   -2.4456    0.9545 H   0  0  0  0  0  0  0  0  0  0  0  0
    4.5700   -0.3670    1.3522 H   0  0  0  0  0  0  0  0  0  0  0  0
    4.4298   -1.8925    0.4767 H   0  0  0  0  0  0  0  0  0  0  0  0
    8.0769   -0.5094   -1.3755 H   0  0  0  0  0  0  0  0  0  0  0  0
    7.7494    1.1924   -3.8483 H   0  0  0  0  0  0  0  0  0  0  0  0
   10.3231    0.4837   -2.3226 H   0  0  0  0  0  0  0  0  0  0  0  0
    9.5354    1.9313   -4.9668 H   0  0  0  0  0  0  0  0  0  0  0  0
   11.8130    0.0657   -4.1547 H   0  0  0  0  0  0  0  0  0  0  0  0
   10.2026    0.5855   -6.7209 H   0  0  0  0  0  0  0  0  0  0  0  0
   11.0453   -2.0018   -5.3781 H   0  0  0  0  0  0  0  0  0  0  0  0
    9.0094   -2.8069   -4.9837 H   0  0  0  0  0  0  0  0  0  0  0  0
    7.8585   -0.1472   -5.9358 H   0  0  0  0  0  0  0  0  0  0  0  0
    5.7694    0.3529   -5.6281 H   0  0  0  0  0  0  0  0  0  0  0  0
    4.0854   -1.4180   -5.9794 H   0  0  0  0  0  0  0  0  0  0  0  0
    2.1749   -1.0084   -4.7709 H   0  0  0  0  0  0  0  0  0  0  0  0
  1  2  1  0  0  0  0
  1 26  1  0  0  0  0
  1 27  1  0  0  0  0
  1 28  1  0  0  0  0
  2  3  1  0  0  0  0
  2 25  2  3  0  0  0
  3  4  2  3  0  0  0
  4  5  1  0  0  0  0
  4 11  1  0  0  0  0
  5  6  1  0  0  0  0
  5 10  1  0  0  0  0
  6  7  1  0  0  0  0
  6 29  1  0  0  0  0
  6 30  1  0  0  0  0
  7  8  1  0  0  0  0
  7 31  1  0  0  0  0
  7 32  1  0  0  0  0
  8  9  1  0  0  0  0
  8 33  1  0  0  0  0
  8 34  1  0  0  0  0
  9 10  1  0  0  0  0
  9 35  1  0  0  0  0
  9 36  1  0  0  0  0
 10 37  1  0  0  0  0
 10 38  1  0  0  0  0
 11 12  2  3  0  0  0
 11 21  1  0  0  0  0
 12 13  1  0  0  0  0
 12 39  1  0  0  0  0
 13 14  2  3  0  0  0
 13 40  1  0  0  0  0
 14 15  1  0  0  0  0
 14 41  1  0  0  0  0
 15 16  2  3  0  0  0
 15 42  1  0  0  0  0
 16 17  1  0  0  0  0
 16 43  1  0  0  0  0
 17 18  2  3  0  0  0
 17 44  1  0  0  0  0
 18 19  1  0  0  0  0
 18 45  1  0  0  0  0
 19 20  2  3  0  0  0
 19 46  1  0  0  0  0
 20 21  1  0  0  0  0
 20 47  1  0  0  0  0
 21 22  2  3  0  0  0
 22 23  1  0  0  0  0
 22 48  1  0  0  0  0
 23 24  2  3  0  0  0
 23 49  1  0  0  0  0
 24 25  1  0  0  0  0
 24 50  1  0  0  0  0
M  END
$$$$
