
 OpenBabel04232216573D

129128  0  0  0  0  0  0  0  0999 V2000
   39.4065    8.0127   16.5409 N   0  0  0  0  0  0  0  0  0  0  0  0
   39.9722    7.4277   15.5275 C   0  0  0  0  0  0  0  0  0  0  0  0
   40.4399    5.9930   15.5736 C   0  0  0  0  0  0  0  0  0  0  0  0
   41.8793    5.8806   15.2838 N   0  0  0  0  0  0  0  0  0  0  0  0
   42.6918    6.7079   16.1052 N   0  0  0  0  0  0  0  0  0  0  0  0
   42.4910    6.4777   17.4773 N   0  0  0  0  0  0  0  0  0  0  0  0
   43.2180    7.4583   18.1795 N   0  0  0  0  0  0  0  0  0  0  0  0
   42.5258    8.5772   18.6996 N   0  0  0  0  0  0  0  0  0  0  0  0
   41.1631    8.3594   18.9487 N   0  0  0  0  0  0  0  0  0  0  0  0
   40.9312    7.6310   20.1374 N   0  0  0  0  0  0  0  0  0  0  0  0
   39.5223    7.6497   20.4448 N   0  0  0  0  0  0  0  0  0  0  0  0
   38.7151    6.8711   19.5321 N   0  0  0  0  0  0  0  0  0  0  0  0
   39.1953    5.5267   19.4551 N   0  0  0  0  0  0  0  0  0  0  0  0
   38.8198    4.8288   20.6385 N   0  0  0  0  0  0  0  0  0  0  0  0
   39.1662    3.2198   20.5791 S   0  0  0  0  0  0  0  0  0  0  0  0
   40.8006    3.0888   20.3846 N   0  0  0  0  0  0  0  0  0  0  0  0
   41.6322    3.6261   21.7066 S   0  0  0  0  0  0  0  0  0  0  0  0
   43.2208    3.2759   21.4274 N   0  0  0  0  0  0  0  0  0  0  0  0
   43.8343    3.9116   20.0352 S   0  0  0  0  0  0  0  0  0  0  0  0
   43.6920    5.5427   20.1240 N   0  0  0  0  0  0  0  0  0  0  0  0
   44.7290    6.2379   21.1750 S   0  0  0  0  0  0  0  0  0  0  0  0
   46.2274    6.2852   20.4744 N   0  0  0  0  0  0  0  0  0  0  0  0
   46.3430    6.9768   18.9692 S   0  0  0  0  0  0  0  0  0  0  0  0
   45.8959    8.5639   19.0025 N   0  0  0  0  0  0  0  0  0  0  0  0
   46.6064    9.4374   20.1825 S   0  0  0  0  0  0  0  0  0  0  0  0
   45.7780    9.0852   21.5607 N   0  0  0  0  0  0  0  0  0  0  0  0
   46.0196   10.1264   22.8090 S   0  0  0  0  0  0  0  0  0  0  0  0
   45.5612   11.5675   22.2517 N   0  0  0  0  0  0  0  0  0  0  0  0
   44.0027   11.9511   22.4208 S   0  0  0  0  0  0  0  0  0  0  0  0
   43.4259   11.7690   20.8926 N   0  0  0  0  0  0  0  0  0  0  0  0
   41.8717   12.2908   20.7711 S   0  0  0  0  0  0  0  0  0  0  0  0
   41.9383   13.9456   20.6976 N   0  0  0  0  0  0  0  0  0  0  0  0
   42.6245   14.5607   19.3211 S   0  0  0  0  0  0  0  0  0  0  0  0
   41.9852   13.7214   18.0581 N   0  0  0  0  0  0  0  0  0  0  0  0
   42.4992   14.2123   16.5776 S   0  0  0  0  0  0  0  0  0  0  0  0
   44.1378   13.9883   16.5312 N   0  0  0  0  0  0  0  0  0  0  0  0
   44.5580   12.3821   16.6370 S   0  0  0  0  0  0  0  0  0  0  0  0
   46.1952   12.3126   16.4372 N   0  0  0  0  0  0  0  0  0  0  0  0
   47.0349   13.4072   17.3480 S   0  0  0  0  0  0  0  0  0  0  0  0
   46.9508   12.9336   18.9164 N   0  0  0  0  0  0  0  0  0  0  0  0
   48.4635   12.5567   19.4845 S   0  0  0  0  0  0  0  0  0  0  0  0
   48.1621   11.9458   20.9708 N   0  0  0  0  0  0  0  0  0  0  0  0
   48.8262   12.7250   22.2452 S   0  0  0  0  0  0  0  0  0  0  0  0
   48.1606   14.2296   22.2421 N   0  0  0  0  0  0  0  0  0  0  0  0
   46.7553   14.4976   23.0598 S   0  0  0  0  0  0  0  0  0  0  0  0
   46.6118   13.5026   24.3732 N   0  0  0  0  0  0  0  0  0  0  0  0
   45.9375   14.3325   25.6344 S   0  0  0  0  0  0  0  0  0  0  0  0
   45.3659   13.1496   26.6367 N   0  0  0  0  0  0  0  0  0  0  0  0
   43.8056   13.4432   27.0965 S   0  0  0  0  0  0  0  0  0  0  0  0
   42.8083   12.7769   25.9625 N   0  0  0  0  0  0  0  0  0  0  0  0
   42.7870   11.1252   25.9233 S   0  0  0  0  0  0  0  0  0  0  0  0
   42.3242   10.5375   27.3929 N   0  0  0  0  0  0  0  0  0  0  0  0
   40.7721   10.8705   27.8426 S   0  0  0  0  0  0  0  0  0  0  0  0
   39.7260   10.1840   26.7663 N   0  0  0  0  0  0  0  0  0  0  0  0
   39.7579    8.5337   26.6920 S   0  0  0  0  0  0  0  0  0  0  0  0
   39.3109    7.9332   28.1589 N   0  0  0  0  0  0  0  0  0  0  0  0
   37.6971    8.0976   28.4614 S   0  0  0  0  0  0  0  0  0  0  0  0
   37.4683    7.3689   29.9288 N   0  0  0  0  0  0  0  0  0  0  0  0
   37.1403    5.7522   29.7776 S   0  0  0  0  0  0  0  0  0  0  0  0
   38.5792    4.9921   29.4733 N   0  0  0  0  0  0  0  0  0  0  0  0
   39.7110    5.2307   30.6499 S   0  0  0  0  0  0  0  0  0  0  0  0
   39.1681    4.5863   32.0657 N   0  0  0  0  0  0  0  0  0  0  0  0
   39.5850    2.9997   32.2304 S   0  0  0  0  0  0  0  0  0  0  0  0
   39.2586    2.6211   33.8080 N   0  0  0  0  0  0  0  0  0  0  0  0
   40.5827    2.7431   34.7993 S   0  0  0  0  0  0  0  0  0  0  0  0
   40.8861    4.2957   35.2312 N   0  0  0  0  0  0  0  0  0  0  0  0
   39.6669    5.2104   35.8256 S   0  0  0  0  0  0  0  0  0  0  0  0
   39.4263    4.7509   37.4030 N   0  0  0  0  0  0  0  0  0  0  0  0
   40.7548    4.9218   38.3735 S   0  0  0  0  0  0  0  0  0  0  0  0
   41.0440    6.5400   38.5090 N   0  0  0  0  0  0  0  0  0  0  0  0
   42.2254    6.8819   39.6122 S   0  0  0  0  0  0  0  0  0  0  0  0
   43.6165    6.1353   39.1105 N   0  0  0  0  0  0  0  0  0  0  0  0
   44.3258    6.9073   37.8346 S   0  0  0  0  0  0  0  0  0  0  0  0
   45.7853    6.1593   37.6269 N   0  0  0  0  0  0  0  0  0  0  0  0
   45.6941    4.4835   37.5471 S   0  0  0  0  0  0  0  0  0  0  0  0
   44.5990    4.0777   36.3849 N   0  0  0  0  0  0  0  0  0  0  0  0
   45.2364    4.3037   34.8873 S   0  0  0  0  0  0  0  0  0  0  0  0
   43.9563    4.0371   33.9122 N   0  0  0  0  0  0  0  0  0  0  0  0
   43.4562    5.4315   33.2174 S   0  0  0  0  0  0  0  0  0  0  0  0
   42.3717    4.8438   32.1657 N   0  0  0  0  0  0  0  0  0  0  0  0
   39.1580    8.9736   16.2714 H   0  0  0  0  0  0  0  0  0  0  0  0
   40.1246    7.9806   14.5871 H   0  0  0  0  0  0  0  0  0  0  0  0
   39.8946    5.4459   14.7982 H   0  0  0  0  0  0  0  0  0  0  0  0
   40.1889    5.5342   16.5353 H   0  0  0  0  0  0  0  0  0  0  0  0
   42.0600    6.0726   14.2966 H   0  0  0  0  0  0  0  0  0  0  0  0
   42.6087    7.7109   15.9237 H   0  0  0  0  0  0  0  0  0  0  0  0
   42.8355    5.5373   17.7111 H   0  0  0  0  0  0  0  0  0  0  0  0
   43.9110    7.0575   18.8314 H   0  0  0  0  0  0  0  0  0  0  0  0
   42.6117    9.3459   18.0258 H   0  0  0  0  0  0  0  0  0  0  0  0
   40.7504    7.8961   18.1239 H   0  0  0  0  0  0  0  0  0  0  0  0
   41.4436    8.0672   20.9155 H   0  0  0  0  0  0  0  0  0  0  0  0
   39.1760    8.6102   20.4100 H   0  0  0  0  0  0  0  0  0  0  0  0
   38.8142    7.3090   18.6072 H   0  0  0  0  0  0  0  0  0  0  0  0
   40.2139    5.6405   19.4383 H   0  0  0  0  0  0  0  0  0  0  0  0
   37.8315    4.9978   20.8282 H   0  0  0  0  0  0  0  0  0  0  0  0
   41.0790    3.6111   19.5589 H   0  0  0  0  0  0  0  0  0  0  0  0
   43.3566    2.2665   21.4444 H   0  0  0  0  0  0  0  0  0  0  0  0
   42.7259    5.8795   20.2241 H   0  0  0  0  0  0  0  0  0  0  0  0
   46.6162    5.3423   20.4569 H   0  0  0  0  0  0  0  0  0  0  0  0
   44.8881    8.7253   18.9334 H   0  0  0  0  0  0  0  0  0  0  0  0
   46.0057    8.1249   21.8363 H   0  0  0  0  0  0  0  0  0  0  0  0
   46.2723   12.3051   22.1535 H   0  0  0  0  0  0  0  0  0  0  0  0
   43.5017   10.7850   20.6314 H   0  0  0  0  0  0  0  0  0  0  0  0
   42.4561   14.2839   21.5081 H   0  0  0  0  0  0  0  0  0  0  0  0
   40.9681   13.7029   18.1251 H   0  0  0  0  0  0  0  0  0  0  0  0
   44.5472   14.4940   17.3347 H   0  0  0  0  0  0  0  0  0  0  0  0
   46.4283   12.4110   15.4513 H   0  0  0  0  0  0  0  0  0  0  0  0
   46.2870   12.1759   19.0927 H   0  0  0  0  0  0  0  0  0  0  0  0
   48.2063   10.9206   21.0308 H   0  0  0  0  0  0  0  0  0  0  0  0
   48.0495   14.5200   21.2713 H   0  0  0  0  0  0  0  0  0  0  0  0
   45.9857   12.7198   24.1574 H   0  0  0  0  0  0  0  0  0  0  0  0
   45.9513   13.1268   27.4738 H   0  0  0  0  0  0  0  0  0  0  0  0
   43.0286   13.1483   25.0390 H   0  0  0  0  0  0  0  0  0  0  0  0
   42.9703   10.8585   28.1126 H   0  0  0  0  0  0  0  0  0  0  0  0
   39.8771   10.5813   25.8399 H   0  0  0  0  0  0  0  0  0  0  0  0
   39.8754    8.3408   28.9013 H   0  0  0  0  0  0  0  0  0  0  0  0
   36.6954    7.8153   30.4206 H   0  0  0  0  0  0  0  0  0  0  0  0
   38.9514    5.3520   28.5887 H   0  0  0  0  0  0  0  0  0  0  0  0
   38.1657    4.7437   32.1848 H   0  0  0  0  0  0  0  0  0  0  0  0
   38.9412    1.6453   33.8286 H   0  0  0  0  0  0  0  0  0  0  0  0
   41.5641    4.8014   34.6564 H   0  0  0  0  0  0  0  0  0  0  0  0
   39.1673    3.7665   37.3757 H   0  0  0  0  0  0  0  0  0  0  0  0
   40.1746    7.0351   38.7146 H   0  0  0  0  0  0  0  0  0  0  0  0
   43.4152    5.1771   38.8155 H   0  0  0  0  0  0  0  0  0  0  0  0
   46.3594    6.3799   38.4209 H   0  0  0  0  0  0  0  0  0  0  0  0
   43.7120    4.5818   36.4931 H   0  0  0  0  0  0  0  0  0  0  0  0
   44.2046    3.3665   33.1819 H   0  0  0  0  0  0  0  0  0  0  0  0
   41.5072    5.4007   32.1235 H   0  0  0  0  0  0  0  0  0  0  0  0
   42.0061    3.9266   32.4372 H   0  0  0  0  0  0  0  0  0  0  0  0
  1  2  2  0  0  0  0
  1 81  1  0  0  0  0
  2  3  1  0  0  0  0
  2 82  1  0  0  0  0
  3  4  1  0  0  0  0
  3 83  1  0  0  0  0
  3 84  1  0  0  0  0
  4  5  1  0  0  0  0
  4 85  1  0  0  0  0
  5  6  1  0  0  0  0
  5 86  1  0  0  0  0
  6  7  1  0  0  0  0
  6 87  1  0  0  0  0
  7  8  1  0  0  0  0
  7 88  1  0  0  0  0
  8  9  1  0  0  0  0
  8 89  1  0  0  0  0
  9 10  1  0  0  0  0
  9 90  1  0  0  0  0
 10 11  1  0  0  0  0
 10 91  1  0  0  0  0
 11 12  1  0  0  0  0
 11 92  1  0  0  0  0
 12 13  1  0  0  0  0
 12 93  1  0  0  0  0
 13 14  1  0  0  0  0
 13 94  1  0  0  0  0
 14 15  1  0  0  0  0
 14 95  1  0  0  0  0
 15 16  1  0  0  0  0
 16 17  1  0  0  0  0
 16 96  1  0  0  0  0
 17 18  1  0  0  0  0
 18 19  1  0  0  0  0
 18 97  1  0  0  0  0
 19 20  1  0  0  0  0
 20 21  1  0  0  0  0
 20 98  1  0  0  0  0
 21 22  1  0  0  0  0
 22 23  1  0  0  0  0
 22 99  1  0  0  0  0
 23 24  1  0  0  0  0
 24 25  1  0  0  0  0
 24100  1  0  0  0  0
 25 26  1  0  0  0  0
 26 27  1  0  0  0  0
 26101  1  0  0  0  0
 27 28  1  0  0  0  0
 28 29  1  0  0  0  0
 28102  1  0  0  0  0
 29 30  1  0  0  0  0
 30 31  1  0  0  0  0
 30103  1  0  0  0  0
 31 32  1  0  0  0  0
 32 33  1  0  0  0  0
 32104  1  0  0  0  0
 33 34  1  0  0  0  0
 34 35  1  0  0  0  0
 34105  1  0  0  0  0
 35 36  1  0  0  0  0
 36 37  1  0  0  0  0
 36106  1  0  0  0  0
 37 38  1  0  0  0  0
 38 39  1  0  0  0  0
 38107  1  0  0  0  0
 39 40  1  0  0  0  0
 40 41  1  0  0  0  0
 40108  1  0  0  0  0
 41 42  1  0  0  0  0
 42 43  1  0  0  0  0
 42109  1  0  0  0  0
 43 44  1  0  0  0  0
 44 45  1  0  0  0  0
 44110  1  0  0  0  0
 45 46  1  0  0  0  0
 46 47  1  0  0  0  0
 46111  1  0  0  0  0
 47 48  1  0  0  0  0
 48 49  1  0  0  0  0
 48112  1  0  0  0  0
 49 50  1  0  0  0  0
 50 51  1  0  0  0  0
 50113  1  0  0  0  0
 51 52  1  0  0  0  0
 52 53  1  0  0  0  0
 52114  1  0  0  0  0
 53 54  1  0  0  0  0
 54 55  1  0  0  0  0
 54115  1  0  0  0  0
 55 56  1  0  0  0  0
 56 57  1  0  0  0  0
 56116  1  0  0  0  0
 57 58  1  0  0  0  0
 58 59  1  0  0  0  0
 58117  1  0  0  0  0
 59 60  1  0  0  0  0
 60 61  1  0  0  0  0
 60118  1  0  0  0  0
 61 62  1  0  0  0  0
 62 63  1  0  0  0  0
 62119  1  0  0  0  0
 63 64  1  0  0  0  0
 64 65  1  0  0  0  0
 64120  1  0  0  0  0
 65 66  1  0  0  0  0
 66 67  1  0  0  0  0
 66121  1  0  0  0  0
 67 68  1  0  0  0  0
 68 69  1  0  0  0  0
 68122  1  0  0  0  0
 69 70  1  0  0  0  0
 70 71  1  0  0  0  0
 70123  1  0  0  0  0
 71 72  1  0  0  0  0
 72 73  1  0  0  0  0
 72124  1  0  0  0  0
 73 74  1  0  0  0  0
 74 75  1  0  0  0  0
 74125  1  0  0  0  0
 75 76  1  0  0  0  0
 76 77  1  0  0  0  0
 76126  1  0  0  0  0
 77 78  1  0  0  0  0
 78 79  1  0  0  0  0
 78127  1  0  0  0  0
 79 80  1  0  0  0  0
 80128  1  0  0  0  0
 80129  1  0  0  0  0
M  END
$$$$
