
 OpenBabel04232216423D

 39 43  0  0  1  0  0  0  0  0999 V2000
    4.2887    1.4478    4.2104 C   0  0  0  0  0  0  0  0  0  0  0  0
    3.1485    0.4535    3.7326 C   0  0  3  0  0  0  0  0  0  0  0  0
    2.8931    0.4787    2.2430 C   0  0  0  0  0  0  0  0  0  0  0  0
    2.6417    1.7406    1.8692 C   0  0  0  0  0  0  0  0  0  0  0  0
    1.9199    2.3516    0.8793 N   0  0  0  0  0  0  0  0  0  0  0  0
    1.6119    3.5155    1.2186 C   0  0  0  0  0  0  0  0  0  0  0  0
    1.8867    4.3658    2.2950 C   0  0  0  0  0  0  0  0  0  0  0  0
    0.9873    4.7816    1.0178 C   0  0  3  0  0  3  0  0  0  0  0  0
    0.4782    5.9618    1.4936 N   0  0  0  0  0  0  0  0  0  0  0  0
    1.0041    6.2891    2.6293 C   0  0  0  0  0  0  0  0  0  0  0  0
    1.9494    5.3642    3.1620 C   0  0  0  0  0  0  0  0  0  0  0  0
    2.7064    5.2684    4.3692 C   0  0  0  0  0  0  0  0  0  0  0  0
    2.8492    6.0192    5.4854 C   0  0  0  0  0  0  0  0  0  0  0  0
    3.6375    5.3476    6.5545 C   0  0  0  0  0  0  0  0  0  0  0  0
    3.0247    4.3102    7.1780 C   0  0  0  0  0  0  0  0  0  0  0  0
    3.2428    2.8608    6.8284 C   0  0  0  0  0  0  0  0  0  0  0  0
    3.8492    1.6344    6.8247 C   0  0  0  0  0  0  0  0  0  0  0  0
    3.9436    0.7971    5.5193 C   0  0  0  0  0  0  0  0  0  0  0  0
    3.9109   -0.6335    4.6652 C   0  0  0  0  0  0  0  0  0  0  0  0
    3.0191   -1.8228    4.8534 C   0  0  0  0  0  0  0  0  0  0  0  0
    3.4265   -2.8129    4.0266 C   0  0  0  0  0  0  0  0  0  0  0  0
    4.6460   -2.4220    3.3667 C   0  0  0  0  0  0  0  0  0  0  0  0
    5.0368   -1.2177    3.8322 C   0  0  0  0  0  0  0  0  0  0  0  0
    5.3347    1.2618    3.9316 H   0  0  0  0  0  0  0  0  0  0  0  0
    4.1630    2.5198    4.1346 H   0  0  0  0  0  0  0  0  0  0  0  0
    2.1384    0.6369    4.1600 H   0  0  0  0  0  0  0  0  0  0  0  0
    2.6131   -0.3971    1.6762 H   0  0  0  0  0  0  0  0  0  0  0  0
    2.9658    2.4456    2.6191 H   0  0  0  0  0  0  0  0  0  0  0  0
    0.7512    7.1979    3.1949 H   0  0  0  0  0  0  0  0  0  0  0  0
    3.2885    4.3495    4.3889 H   0  0  0  0  0  0  0  0  0  0  0  0
    2.3838    6.9804    5.6442 H   0  0  0  0  0  0  0  0  0  0  0  0
    4.6919    5.2820    6.2817 H   0  0  0  0  0  0  0  0  0  0  0  0
    1.9724    4.5123    7.4336 H   0  0  0  0  0  0  0  0  0  0  0  0
    2.9087    2.7375    7.9033 H   0  0  0  0  0  0  0  0  0  0  0  0
    4.5270    1.3629    7.6305 H   0  0  0  0  0  0  0  0  0  0  0  0
    2.1247   -1.8789    5.4520 H   0  0  0  0  0  0  0  0  0  0  0  0
    2.9409   -3.7625    3.8361 H   0  0  0  0  0  0  0  0  0  0  0  0
    5.1295   -2.9958    2.5867 H   0  0  0  0  0  0  0  0  0  0  0  0
    5.8974   -0.7056    3.4362 H   0  0  0  0  0  0  0  0  0  0  0  0
  1  2  1  0  0  0  0
  1 18  1  0  0  0  0
  1 24  1  0  0  0  0
  1 25  1  0  0  0  0
  2  3  1  0  0  0  0
  2 19  1  0  0  0  0
  2 26  1  0  0  0  0
  3  4  2  3  0  0  0
  3 27  1  0  0  0  0
  4  5  1  0  0  0  0
  4 28  1  0  0  0  0
  5  6  2  3  0  0  0
  6  7  1  0  0  0  0
  6  8  1  0  0  0  0
  7  8  1  0  0  0  0
  7 11  2  0  0  0  0
  8  9  1  0  0  0  0
  9 10  2  0  0  0  0
 10 11  1  0  0  0  0
 10 29  1  0  0  0  0
 11 12  1  0  0  0  0
 12 13  2  3  0  0  0
 12 30  1  0  0  0  0
 13 14  1  0  0  0  0
 13 31  1  0  0  0  0
 14 15  2  3  0  0  0
 14 32  1  0  0  0  0
 15 16  1  0  0  0  0
 15 33  1  0  0  0  0
 16 17  2  3  0  0  0
 16 34  1  0  0  0  0
 17 18  1  0  0  0  0
 17 35  1  0  0  0  0
 18 19  2  0  0  0  0
 19 20  1  0  0  0  0
 19 23  1  0  0  0  0
 20 21  2  0  0  0  0
 20 36  1  0  0  0  0
 21 22  1  0  0  0  0
 21 37  1  0  0  0  0
 22 23  2  0  0  0  0
 22 38  1  0  0  0  0
 23 39  1  0  0  0  0
M  END
$$$$
