
 OpenBabel04232216553D

230230  0  0  1  0  0  0  0  0999 V2000
    1.2184    0.0701   -0.1842 C   0  0  0  0  0  0  0  0  0  0  0  0
    2.6770    0.0114   -0.1154 N   0  0  0  0  0  0  0  0  0  0  0  0
    3.2985   -0.7518   -1.1893 C   0  0  0  0  0  0  0  0  0  0  0  0
    3.3523    0.7535   -1.1720 C   0  0  3  0  0  0  0  0  0  0  0  0
    4.6151    1.4952   -0.8138 C   0  0  0  0  0  0  0  0  0  0  0  0
    4.3703    3.0027   -0.8696 C   0  0  0  0  0  0  0  0  0  0  0  0
    5.6219    3.7939   -0.5070 C   0  0  0  0  0  0  0  0  0  0  0  0
    5.3334    5.2850   -0.5824 C   0  0  0  0  0  0  0  0  0  0  0  0
    6.5168    6.0063   -0.2415 O   0  0  0  0  0  0  0  0  0  0  0  0
    6.2749    7.4072   -0.3043 C   0  0  0  0  0  0  0  0  0  0  0  0
    7.5471    8.1352    0.0615 C   0  0  0  0  0  0  0  0  0  0  0  0
    7.3018    9.5333   -0.0023 O   0  0  0  0  0  0  0  0  0  0  0  0
    8.4805   10.2584    0.3368 C   0  0  0  0  0  0  0  0  0  0  0  0
    8.1913   11.7439    0.2608 C   0  0  0  0  0  0  0  0  0  0  0  0
    9.3734   12.4657    0.6009 O   0  0  0  0  0  0  0  0  0  0  0  0
    9.1221   13.8627    0.5353 C   0  0  0  0  0  0  0  0  0  0  0  0
   10.3880   14.6093    0.8974 C   0  0  0  0  0  0  0  0  0  0  0  0
   10.1363   16.1037    0.8320 C   0  0  0  0  0  0  0  0  0  0  0  0
   11.3954   16.8737    1.1922 C   0  0  0  0  0  0  0  0  0  0  0  0
   11.1293   18.3607    1.1227 C   0  0  0  0  0  0  0  0  0  0  0  0
   12.3883   19.1258    1.4829 C   0  0  0  0  0  0  0  0  0  0  0  0
   12.1245   20.6192    1.4141 C   0  0  0  0  0  0  0  0  0  0  0  0
   13.3865   21.3824    1.7752 C   0  0  0  0  0  0  0  0  0  0  0  0
   13.1241   22.8780    1.7072 C   0  0  0  0  0  0  0  0  0  0  0  0
   14.3826   23.6382    2.0667 C   0  0  0  0  0  0  0  0  0  0  0  0
   14.1194   25.1305    1.9981 C   0  0  0  0  0  0  0  0  0  0  0  0
   15.3809   25.8939    2.3570 C   0  0  0  0  0  0  0  0  0  0  0  0
   15.1192   27.3832    2.2887 C   0  0  0  0  0  0  0  0  0  0  0  0
   16.3758   28.1465    2.6482 C   0  0  0  0  0  0  0  0  0  0  0  0
   16.1162   29.6369    2.5785 C   0  0  0  0  0  0  0  0  0  0  0  0
   17.3732   30.4012    2.9381 C   0  0  0  0  0  0  0  0  0  0  0  0
   17.1144   31.8915    2.8665 C   0  0  0  0  0  0  0  0  0  0  0  0
   18.3718   32.6557    3.2241 C   0  0  0  0  0  0  0  0  0  0  0  0
   18.1129   34.1459    3.1525 C   0  0  0  0  0  0  0  0  0  0  0  0
   19.3703   34.9101    3.5101 C   0  0  0  0  0  0  0  0  0  0  0  0
   19.1115   36.4003    3.4385 C   0  0  0  0  0  0  0  0  0  0  0  0
   20.3688   37.1645    3.7962 C   0  0  0  0  0  0  0  0  0  0  0  0
   20.1100   38.6547    3.7246 C   0  0  0  0  0  0  0  0  0  0  0  0
   21.3673   39.4189    4.0822 C   0  0  0  0  0  0  0  0  0  0  0  0
   21.1090   40.9090    4.0087 C   0  0  0  0  0  0  0  0  0  0  0  0
   22.3669   41.6732    4.3644 C   0  0  0  0  0  0  0  0  0  0  0  0
   22.1086   43.1634    4.2909 C   0  0  0  0  0  0  0  0  0  0  0  0
   23.3665   43.9276    4.6465 C   0  0  0  0  0  0  0  0  0  0  0  0
   23.1082   45.4178    4.5730 C   0  0  0  0  0  0  0  0  0  0  0  0
   24.3667   46.1820    4.9267 C   0  0  0  0  0  0  0  0  0  0  0  0
   24.1089   47.6722    4.8513 C   0  0  0  0  0  0  0  0  0  0  0  0
   25.3679   48.4364    5.2031 C   0  0  0  0  0  0  0  0  0  0  0  0
   25.1097   49.9266    5.1295 C   0  0  0  0  0  0  0  0  0  0  0  0
   26.3692   50.6907    5.4794 C   0  0  0  0  0  0  0  0  0  0  0  0
   26.1114   52.1809    5.4040 C   0  0  0  0  0  0  0  0  0  0  0  0
   27.3710   52.9451    5.7538 C   0  0  0  0  0  0  0  0  0  0  0  0
   27.1132   54.4353    5.6783 C   0  0  0  0  0  0  0  0  0  0  0  0
   28.3733   55.1995    6.0263 C   0  0  0  0  0  0  0  0  0  0  0  0
   28.1155   56.6897    5.9508 C   0  0  0  0  0  0  0  0  0  0  0  0
   29.3756   57.4538    6.2987 C   0  0  0  0  0  0  0  0  0  0  0  0
   29.1184   58.9440    6.2213 C   0  0  0  0  0  0  0  0  0  0  0  0
   30.3785   59.7082    6.5692 C   0  0  0  0  0  0  0  0  0  0  0  0
   30.1218   61.1984    6.4899 C   0  0  0  0  0  0  0  0  0  0  0  0
   31.3814   61.9626    6.8397 C   0  0  0  0  0  0  0  0  0  0  0  0
   31.1242   63.4527    6.7623 C   0  0  0  0  0  0  0  0  0  0  0  0
   32.3842   64.2169    7.1103 C   0  0  0  0  0  0  0  0  0  0  0  0
   32.1264   65.7071    7.0348 C   0  0  0  0  0  0  0  0  0  0  0  0
   33.3860   66.4713    7.3846 C   0  0  0  0  0  0  0  0  0  0  0  0
   33.1288   67.9614    7.3073 C   0  0  0  0  0  0  0  0  0  0  0  0
   34.3888   68.7256    7.6552 C   0  0  0  0  0  0  0  0  0  0  0  0
   34.1310   70.2157    7.5797 C   0  0  0  0  0  0  0  0  0  0  0  0
   35.3912   70.9798    7.9277 C   0  0  0  0  0  0  0  0  0  0  0  0
   35.1328   72.4709    7.8541 C   0  0  0  0  0  0  0  0  0  0  0  0
   36.3938   73.2354    8.2043 C   0  0  0  0  0  0  0  0  0  0  0  0
   36.1337   74.7269    8.1283 C   0  0  0  0  0  0  0  0  0  0  0  0
   37.3966   75.4876    8.4771 C   0  0  0  0  0  0  0  0  0  0  0  0
   37.1347   76.9799    8.4024 C   0  0  0  0  0  0  0  0  0  0  0  0
   38.3989   77.7426    8.7515 C   0  0  0  0  0  0  0  0  0  0  0  0
   38.1373   79.2349    8.6750 C   0  0  0  0  0  0  0  0  0  0  0  0
   39.4005   79.9994    9.0259 C   0  0  0  0  0  0  0  0  0  0  0  0
   39.1396   81.4940    8.9495 C   0  0  0  0  0  0  0  0  0  0  0  0
   40.4029   82.2617    9.3004 C   0  0  0  0  0  0  0  0  0  0  0  0
   40.1520   83.7605    9.2248 C   0  0  0  0  0  0  0  0  0  0  0  0
   41.4142   84.5230    9.5754 C   0  0  0  0  0  0  0  0  0  0  0  0
    0.8118   -0.4880    0.6646 H   0  0  0  0  0  0  0  0  0  0  0  0
    0.7886   -0.3634   -1.0938 H   0  0  0  0  0  0  0  0  0  0  0  0
    0.8613    1.1013   -0.0907 H   0  0  0  0  0  0  0  0  0  0  0  0
    2.6623   -1.2210   -1.9384 H   0  0  0  0  0  0  0  0  0  0  0  0
    4.1763   -1.3238   -0.9232 H   0  0  0  0  0  0  0  0  0  0  0  0
    2.7800    1.2588   -1.9437 H   0  0  0  0  0  0  0  0  0  0  0  0
    5.4085    1.2303   -1.5218 H   0  0  0  0  0  0  0  0  0  0  0  0
    4.9719    1.2175    0.1858 H   0  0  0  0  0  0  0  0  0  0  0  0
    3.5503    3.2711   -0.1926 H   0  0  0  0  0  0  0  0  0  0  0  0
    4.0441    3.2839   -1.8797 H   0  0  0  0  0  0  0  0  0  0  0  0
    6.4440    3.5425   -1.1868 H   0  0  0  0  0  0  0  0  0  0  0  0
    5.9635    3.5319    0.5004 H   0  0  0  0  0  0  0  0  0  0  0  0
    4.5362    5.5506    0.1175 H   0  0  0  0  0  0  0  0  0  0  0  0
    5.0275    5.5591   -1.5977 H   0  0  0  0  0  0  0  0  0  0  0  0
    5.4710    7.6813    0.3895 H   0  0  0  0  0  0  0  0  0  0  0  0
    5.9571    7.6887   -1.3157 H   0  0  0  0  0  0  0  0  0  0  0  0
    8.3501    7.8620   -0.6334 H   0  0  0  0  0  0  0  0  0  0  0  0
    7.8634    7.8548    1.0733 H   0  0  0  0  0  0  0  0  0  0  0  0
    9.2905   10.0014   -0.3554 H   0  0  0  0  0  0  0  0  0  0  0  0
    8.8042    9.9941    1.3501 H   0  0  0  0  0  0  0  0  0  0  0  0
    7.3828   12.0046    0.9532 H   0  0  0  0  0  0  0  0  0  0  0  0
    7.8688   12.0119   -0.7518 H   0  0  0  0  0  0  0  0  0  0  0  0
    8.3204   14.1232    1.2371 H   0  0  0  0  0  0  0  0  0  0  0  0
    8.8077   14.1303   -0.4809 H   0  0  0  0  0  0  0  0  0  0  0  0
   11.1998   14.3234    0.2148 H   0  0  0  0  0  0  0  0  0  0  0  0
   10.7211   14.3166    1.9024 H   0  0  0  0  0  0  0  0  0  0  0  0
    9.3244   16.3761    1.5204 H   0  0  0  0  0  0  0  0  0  0  0  0
    9.8062   16.3829   -0.1781 H   0  0  0  0  0  0  0  0  0  0  0  0
   12.2035   16.5997    0.5019 H   0  0  0  0  0  0  0  0  0  0  0  0
   11.7213   16.5929    2.2020 H   0  0  0  0  0  0  0  0  0  0  0  0
   10.3183   18.6318    1.8122 H   0  0  0  0  0  0  0  0  0  0  0  0
   10.8005   18.6386    0.1122 H   0  0  0  0  0  0  0  0  0  0  0  0
   13.1980   18.8593    0.7939 H   0  0  0  0  0  0  0  0  0  0  0  0
   12.7162   18.8524    2.4924 H   0  0  0  0  0  0  0  0  0  0  0  0
   11.3160   20.8893    2.1036 H   0  0  0  0  0  0  0  0  0  0  0  0
   11.7978   20.8961    0.4048 H   0  0  0  0  0  0  0  0  0  0  0  0
   14.1960   21.1138    1.0858 H   0  0  0  0  0  0  0  0  0  0  0  0
   13.7141   21.1069    2.7848 H   0  0  0  0  0  0  0  0  0  0  0  0
   12.3131   23.1437    2.3958 H   0  0  0  0  0  0  0  0  0  0  0  0
   12.7951   23.1505    0.6965 H   0  0  0  0  0  0  0  0  0  0  0  0
   15.1928   23.3682    1.3776 H   0  0  0  0  0  0  0  0  0  0  0  0
   14.7110   23.3614    3.0767 H   0  0  0  0  0  0  0  0  0  0  0  0
   13.3110   25.3978    2.6885 H   0  0  0  0  0  0  0  0  0  0  0  0
   13.7907   25.4043    0.9889 H   0  0  0  0  0  0  0  0  0  0  0  0
   16.1889   25.6225    1.6667 H   0  0  0  0  0  0  0  0  0  0  0  0
   15.7094   25.6161    3.3659 H   0  0  0  0  0  0  0  0  0  0  0  0
   14.3080   27.6521    2.9771 H   0  0  0  0  0  0  0  0  0  0  0  0
   14.7897   27.6588    1.2788 H   0  0  0  0  0  0  0  0  0  0  0  0
   17.1871   27.8763    1.9606 H   0  0  0  0  0  0  0  0  0  0  0  0
   16.7042   27.8716    3.6584 H   0  0  0  0  0  0  0  0  0  0  0  0
   15.3051   29.9077    3.2660 H   0  0  0  0  0  0  0  0  0  0  0  0
   15.7881   29.9123    1.5683 H   0  0  0  0  0  0  0  0  0  0  0  0
   18.1850   30.1297    2.2514 H   0  0  0  0  0  0  0  0  0  0  0  0
   17.7009   30.1272    3.9489 H   0  0  0  0  0  0  0  0  0  0  0  0
   16.3036   32.1633    3.5542 H   0  0  0  0  0  0  0  0  0  0  0  0
   16.7855   32.1655    1.8561 H   0  0  0  0  0  0  0  0  0  0  0  0
   19.1825   32.3839    2.5364 H   0  0  0  0  0  0  0  0  0  0  0  0
   18.7007   32.3818    4.2345 H   0  0  0  0  0  0  0  0  0  0  0  0
   17.3022   34.4178    3.8402 H   0  0  0  0  0  0  0  0  0  0  0  0
   17.7840   34.4198    2.1421 H   0  0  0  0  0  0  0  0  0  0  0  0
   20.1810   34.6383    2.8224 H   0  0  0  0  0  0  0  0  0  0  0  0
   19.6993   34.6362    4.5205 H   0  0  0  0  0  0  0  0  0  0  0  0
   18.3007   36.6721    4.1262 H   0  0  0  0  0  0  0  0  0  0  0  0
   18.7825   36.6742    2.4281 H   0  0  0  0  0  0  0  0  0  0  0  0
   21.1795   36.8926    3.1085 H   0  0  0  0  0  0  0  0  0  0  0  0
   20.6978   36.8906    4.8065 H   0  0  0  0  0  0  0  0  0  0  0  0
   19.2992   38.9266    4.4122 H   0  0  0  0  0  0  0  0  0  0  0  0
   19.7810   38.9285    2.7141 H   0  0  0  0  0  0  0  0  0  0  0  0
   22.1784   39.1459    3.3953 H   0  0  0  0  0  0  0  0  0  0  0  0
   21.6955   39.1460    5.0931 H   0  0  0  0  0  0  0  0  0  0  0  0
   20.2988   41.1822    4.6965 H   0  0  0  0  0  0  0  0  0  0  0  0
   20.7795   41.1817    2.9981 H   0  0  0  0  0  0  0  0  0  0  0  0
   23.1771   41.4001    3.6765 H   0  0  0  0  0  0  0  0  0  0  0  0
   22.6965   41.4006    5.3749 H   0  0  0  0  0  0  0  0  0  0  0  0
   21.2985   43.4366    4.9786 H   0  0  0  0  0  0  0  0  0  0  0  0
   21.7791   43.4360    3.2802 H   0  0  0  0  0  0  0  0  0  0  0  0
   24.1767   43.6544    3.9586 H   0  0  0  0  0  0  0  0  0  0  0  0
   23.6961   43.6551    5.6570 H   0  0  0  0  0  0  0  0  0  0  0  0
   22.2990   45.6912    5.2618 H   0  0  0  0  0  0  0  0  0  0  0  0
   22.7773   45.6902    3.5628 H   0  0  0  0  0  0  0  0  0  0  0  0
   25.1763   45.9076    4.2386 H   0  0  0  0  0  0  0  0  0  0  0  0
   24.6968   45.9107    5.9374 H   0  0  0  0  0  0  0  0  0  0  0  0
   23.3003   47.9468    5.5403 H   0  0  0  0  0  0  0  0  0  0  0  0
   23.7775   47.9433    3.8409 H   0  0  0  0  0  0  0  0  0  0  0  0
   26.1761   48.1627    4.5131 H   0  0  0  0  0  0  0  0  0  0  0  0
   25.7003   48.1643    6.2128 H   0  0  0  0  0  0  0  0  0  0  0  0
   24.3024   50.2004    5.8205 H   0  0  0  0  0  0  0  0  0  0  0  0
   24.7760   50.1985    4.1201 H   0  0  0  0  0  0  0  0  0  0  0  0
   27.1768   50.4159    4.7892 H   0  0  0  0  0  0  0  0  0  0  0  0
   26.7021   50.4198    6.4893 H   0  0  0  0  0  0  0  0  0  0  0  0
   25.3038   52.4558    6.0940 H   0  0  0  0  0  0  0  0  0  0  0  0
   25.7785   52.4518    4.3940 H   0  0  0  0  0  0  0  0  0  0  0  0
   28.1786   52.6702    5.0636 H   0  0  0  0  0  0  0  0  0  0  0  0
   27.7039   52.6743    6.7637 H   0  0  0  0  0  0  0  0  0  0  0  0
   26.3065   54.7104    6.3695 H   0  0  0  0  0  0  0  0  0  0  0  0
   26.7790   54.7060    4.6688 H   0  0  0  0  0  0  0  0  0  0  0  0
   29.1799   54.9244    5.3351 H   0  0  0  0  0  0  0  0  0  0  0  0
   28.7076   54.9288    7.0358 H   0  0  0  0  0  0  0  0  0  0  0  0
   27.3089   56.9648    6.6419 H   0  0  0  0  0  0  0  0  0  0  0  0
   27.7813   56.9603    4.9412 H   0  0  0  0  0  0  0  0  0  0  0  0
   30.1827   57.1777    5.6084 H   0  0  0  0  0  0  0  0  0  0  0  0
   29.7091   57.1842    7.3088 H   0  0  0  0  0  0  0  0  0  0  0  0
   28.3113   59.2202    6.9116 H   0  0  0  0  0  0  0  0  0  0  0  0
   28.7849   59.2135    5.2112 H   0  0  0  0  0  0  0  0  0  0  0  0
   31.1860   59.4310    5.8798 H   0  0  0  0  0  0  0  0  0  0  0  0
   30.7111   59.4396    7.5799 H   0  0  0  0  0  0  0  0  0  0  0  0
   29.3134   61.4754    7.1782 H   0  0  0  0  0  0  0  0  0  0  0  0
   29.7905   61.4671    5.4789 H   0  0  0  0  0  0  0  0  0  0  0  0
   32.1893   61.6865    6.1505 H   0  0  0  0  0  0  0  0  0  0  0  0
   31.7135   61.6929    7.8502 H   0  0  0  0  0  0  0  0  0  0  0  0
   30.3170   63.7288    7.4526 H   0  0  0  0  0  0  0  0  0  0  0  0
   30.7907   63.7224    5.7523 H   0  0  0  0  0  0  0  0  0  0  0  0
   33.1909   63.9418    6.4191 H   0  0  0  0  0  0  0  0  0  0  0  0
   32.7184   63.9463    8.1198 H   0  0  0  0  0  0  0  0  0  0  0  0
   31.3189   65.9821    7.7249 H   0  0  0  0  0  0  0  0  0  0  0  0
   31.7935   65.9779    6.0249 H   0  0  0  0  0  0  0  0  0  0  0  0
   34.1940   66.1953    6.6954 H   0  0  0  0  0  0  0  0  0  0  0  0
   33.7181   66.2015    8.3951 H   0  0  0  0  0  0  0  0  0  0  0  0
   32.3217   68.2376    7.9975 H   0  0  0  0  0  0  0  0  0  0  0  0
   32.7953   68.2311    6.2972 H   0  0  0  0  0  0  0  0  0  0  0  0
   35.1955   68.4505    6.9640 H   0  0  0  0  0  0  0  0  0  0  0  0
   34.7231   68.4550    8.6647 H   0  0  0  0  0  0  0  0  0  0  0  0
   33.3244   70.4908    8.2709 H   0  0  0  0  0  0  0  0  0  0  0  0
   33.7968   70.4865    6.5702 H   0  0  0  0  0  0  0  0  0  0  0  0
   36.1974   70.7058    7.2356 H   0  0  0  0  0  0  0  0  0  0  0  0
   35.7262   70.7082    8.9367 H   0  0  0  0  0  0  0  0  0  0  0  0
   34.3256   72.7440    8.5452 H   0  0  0  0  0  0  0  0  0  0  0  0
   34.7990   72.7419    6.8447 H   0  0  0  0  0  0  0  0  0  0  0  0
   37.2001   72.9593    7.5136 H   0  0  0  0  0  0  0  0  0  0  0  0
   36.7253   72.9633    9.2141 H   0  0  0  0  0  0  0  0  0  0  0  0
   35.3274   74.9996    8.8201 H   0  0  0  0  0  0  0  0  0  0  0  0
   35.8000   74.9953    7.1184 H   0  0  0  0  0  0  0  0  0  0  0  0
   38.2017   75.2140    7.7840 H   0  0  0  0  0  0  0  0  0  0  0  0
   37.7303   75.2164    9.4862 H   0  0  0  0  0  0  0  0  0  0  0  0
   36.3293   77.2531    9.0954 H   0  0  0  0  0  0  0  0  0  0  0  0
   36.8008   77.2507    7.3931 H   0  0  0  0  0  0  0  0  0  0  0  0
   39.2040   77.4677    8.0592 H   0  0  0  0  0  0  0  0  0  0  0  0
   38.7313   77.4720    9.7611 H   0  0  0  0  0  0  0  0  0  0  0  0
   37.3304   79.5085    9.3660 H   0  0  0  0  0  0  0  0  0  0  0  0
   37.8054   79.5045    7.6648 H   0  0  0  0  0  0  0  0  0  0  0  0
   40.2067   79.7239    8.3349 H   0  0  0  0  0  0  0  0  0  0  0  0
   39.7318   79.7279   10.0358 H   0  0  0  0  0  0  0  0  0  0  0  0
   38.3321   81.7656    9.6403 H   0  0  0  0  0  0  0  0  0  0  0  0
   38.8071   81.7615    7.9391 H   0  0  0  0  0  0  0  0  0  0  0  0
   41.2087   81.9819    8.6105 H   0  0  0  0  0  0  0  0  0  0  0  0
   40.7327   81.9880   10.3103 H   0  0  0  0  0  0  0  0  0  0  0  0
   39.3478   84.0397    9.9156 H   0  0  0  0  0  0  0  0  0  0  0  0
   39.8240   84.0336    8.2150 H   0  0  0  0  0  0  0  0  0  0  0  0
   41.7442   84.2771   10.5899 H   0  0  0  0  0  0  0  0  0  0  0  0
   41.2345   85.5993    9.5212 H   0  0  0  0  0  0  0  0  0  0  0  0
   42.2225   84.2709    8.8814 H   0  0  0  0  0  0  0  0  0  0  0  0
  1  2  1  0  0  0  0
  1 80  1  0  0  0  0
  1 81  1  0  0  0  0
  1 82  1  0  0  0  0
  2  3  1  0  0  0  0
  2  4  1  0  0  0  0
  3  4  1  0  0  0  0
  3 83  1  0  0  0  0
  3 84  1  0  0  0  0
  4  5  1  0  0  0  0
  4 85  1  0  0  0  0
  5  6  1  0  0  0  0
  5 86  1  0  0  0  0
  5 87  1  0  0  0  0
  6  7  1  0  0  0  0
  6 88  1  0  0  0  0
  6 89  1  0  0  0  0
  7  8  1  0  0  0  0
  7 90  1  0  0  0  0
  7 91  1  0  0  0  0
  8  9  1  0  0  0  0
  8 92  1  0  0  0  0
  8 93  1  0  0  0  0
  9 10  1  0  0  0  0
 10 11  1  0  0  0  0
 10 94  1  0  0  0  0
 10 95  1  0  0  0  0
 11 12  1  0  0  0  0
 11 96  1  0  0  0  0
 11 97  1  0  0  0  0
 12 13  1  0  0  0  0
 13 14  1  0  0  0  0
 13 98  1  0  0  0  0
 13 99  1  0  0  0  0
 14 15  1  0  0  0  0
 14100  1  0  0  0  0
 14101  1  0  0  0  0
 15 16  1  0  0  0  0
 16 17  1  0  0  0  0
 16102  1  0  0  0  0
 16103  1  0  0  0  0
 17 18  1  0  0  0  0
 17104  1  0  0  0  0
 17105  1  0  0  0  0
 18 19  1  0  0  0  0
 18106  1  0  0  0  0
 18107  1  0  0  0  0
 19 20  1  0  0  0  0
 19108  1  0  0  0  0
 19109  1  0  0  0  0
 20 21  1  0  0  0  0
 20110  1  0  0  0  0
 20111  1  0  0  0  0
 21 22  1  0  0  0  0
 21112  1  0  0  0  0
 21113  1  0  0  0  0
 22 23  1  0  0  0  0
 22114  1  0  0  0  0
 22115  1  0  0  0  0
 23 24  1  0  0  0  0
 23116  1  0  0  0  0
 23117  1  0  0  0  0
 24 25  1  0  0  0  0
 24118  1  0  0  0  0
 24119  1  0  0  0  0
 25 26  1  0  0  0  0
 25120  1  0  0  0  0
 25121  1  0  0  0  0
 26 27  1  0  0  0  0
 26122  1  0  0  0  0
 26123  1  0  0  0  0
 27 28  1  0  0  0  0
 27124  1  0  0  0  0
 27125  1  0  0  0  0
 28 29  1  0  0  0  0
 28126  1  0  0  0  0
 28127  1  0  0  0  0
 29 30  1  0  0  0  0
 29128  1  0  0  0  0
 29129  1  0  0  0  0
 30 31  1  0  0  0  0
 30130  1  0  0  0  0
 30131  1  0  0  0  0
 31 32  1  0  0  0  0
 31132  1  0  0  0  0
 31133  1  0  0  0  0
 32 33  1  0  0  0  0
 32134  1  0  0  0  0
 32135  1  0  0  0  0
 33 34  1  0  0  0  0
 33136  1  0  0  0  0
 33137  1  0  0  0  0
 34 35  1  0  0  0  0
 34138  1  0  0  0  0
 34139  1  0  0  0  0
 35 36  1  0  0  0  0
 35140  1  0  0  0  0
 35141  1  0  0  0  0
 36 37  1  0  0  0  0
 36142  1  0  0  0  0
 36143  1  0  0  0  0
 37 38  1  0  0  0  0
 37144  1  0  0  0  0
 37145  1  0  0  0  0
 38 39  1  0  0  0  0
 38146  1  0  0  0  0
 38147  1  0  0  0  0
 39 40  1  0  0  0  0
 39148  1  0  0  0  0
 39149  1  0  0  0  0
 40 41  1  0  0  0  0
 40150  1  0  0  0  0
 40151  1  0  0  0  0
 41 42  1  0  0  0  0
 41152  1  0  0  0  0
 41153  1  0  0  0  0
 42 43  1  0  0  0  0
 42154  1  0  0  0  0
 42155  1  0  0  0  0
 43 44  1  0  0  0  0
 43156  1  0  0  0  0
 43157  1  0  0  0  0
 44 45  1  0  0  0  0
 44158  1  0  0  0  0
 44159  1  0  0  0  0
 45 46  1  0  0  0  0
 45160  1  0  0  0  0
 45161  1  0  0  0  0
 46 47  1  0  0  0  0
 46162  1  0  0  0  0
 46163  1  0  0  0  0
 47 48  1  0  0  0  0
 47164  1  0  0  0  0
 47165  1  0  0  0  0
 48 49  1  0  0  0  0
 48166  1  0  0  0  0
 48167  1  0  0  0  0
 49 50  1  0  0  0  0
 49168  1  0  0  0  0
 49169  1  0  0  0  0
 50 51  1  0  0  0  0
 50170  1  0  0  0  0
 50171  1  0  0  0  0
 51 52  1  0  0  0  0
 51172  1  0  0  0  0
 51173  1  0  0  0  0
 52 53  1  0  0  0  0
 52174  1  0  0  0  0
 52175  1  0  0  0  0
 53 54  1  0  0  0  0
 53176  1  0  0  0  0
 53177  1  0  0  0  0
 54 55  1  0  0  0  0
 54178  1  0  0  0  0
 54179  1  0  0  0  0
 55 56  1  0  0  0  0
 55180  1  0  0  0  0
 55181  1  0  0  0  0
 56 57  1  0  0  0  0
 56182  1  0  0  0  0
 56183  1  0  0  0  0
 57 58  1  0  0  0  0
 57184  1  0  0  0  0
 57185  1  0  0  0  0
 58 59  1  0  0  0  0
 58186  1  0  0  0  0
 58187  1  0  0  0  0
 59 60  1  0  0  0  0
 59188  1  0  0  0  0
 59189  1  0  0  0  0
 60 61  1  0  0  0  0
 60190  1  0  0  0  0
 60191  1  0  0  0  0
 61 62  1  0  0  0  0
 61192  1  0  0  0  0
 61193  1  0  0  0  0
 62 63  1  0  0  0  0
 62194  1  0  0  0  0
 62195  1  0  0  0  0
 63 64  1  0  0  0  0
 63196  1  0  0  0  0
 63197  1  0  0  0  0
 64 65  1  0  0  0  0
 64198  1  0  0  0  0
 64199  1  0  0  0  0
 65 66  1  0  0  0  0
 65200  1  0  0  0  0
 65201  1  0  0  0  0
 66 67  1  0  0  0  0
 66202  1  0  0  0  0
 66203  1  0  0  0  0
 67 68  1  0  0  0  0
 67204  1  0  0  0  0
 67205  1  0  0  0  0
 68 69  1  0  0  0  0
 68206  1  0  0  0  0
 68207  1  0  0  0  0
 69 70  1  0  0  0  0
 69208  1  0  0  0  0
 69209  1  0  0  0  0
 70 71  1  0  0  0  0
 70210  1  0  0  0  0
 70211  1  0  0  0  0
 71 72  1  0  0  0  0
 71212  1  0  0  0  0
 71213  1  0  0  0  0
 72 73  1  0  0  0  0
 72214  1  0  0  0  0
 72215  1  0  0  0  0
 73 74  1  0  0  0  0
 73216  1  0  0  0  0
 73217  1  0  0  0  0
 74 75  1  0  0  0  0
 74218  1  0  0  0  0
 74219  1  0  0  0  0
 75 76  1  0  0  0  0
 75220  1  0  0  0  0
 75221  1  0  0  0  0
 76 77  1  0  0  0  0
 76222  1  0  0  0  0
 76223  1  0  0  0  0
 77 78  1  0  0  0  0
 77224  1  0  0  0  0
 77225  1  0  0  0  0
 78 79  1  0  0  0  0
 78226  1  0  0  0  0
 78227  1  0  0  0  0
 79228  1  0  0  0  0
 79229  1  0  0  0  0
 79230  1  0  0  0  0
M  END
$$$$
