
 OpenBabel04232216513D

 70 71  0  0  1  0  0  0  0  0999 V2000
    4.1341   -0.6018   -1.3428 C   0  0  0  0  0  0  0  0  0  0  0  0
    4.9640    0.6210   -1.0156 C   0  0  0  0  0  0  0  0  0  0  0  0
    5.4547    0.5459    0.4203 C   0  0  0  0  0  0  0  0  0  0  0  0
    4.3795    0.5013    1.4712 C   0  0  3  0  0  0  0  0  0  0  0  0
    4.7740    0.3898    2.8715 C   0  0  0  0  0  0  0  0  0  0  0  0
    6.2363    0.5286    3.2261 C   0  0  0  0  0  0  0  0  0  0  0  0
    6.4928    1.1125    4.6124 C   0  0  0  0  0  0  0  0  0  0  0  0
    8.0058    1.2629    4.8383 C   0  0  0  0  0  0  0  0  0  0  0  0
    8.3399    1.8415    6.2100 C   0  0  0  0  0  0  0  0  0  0  0  0
    9.8566    1.9619    6.4133 C   0  0  0  0  0  0  0  0  0  0  0  0
   10.1518    2.5404    7.7924 C   0  0  0  0  0  0  0  0  0  0  0  0
   11.6435    2.6946    8.0845 C   0  0  0  0  0  0  0  0  0  0  0  0
   11.8397    3.2784    9.4739 C   0  0  0  0  0  0  0  0  0  0  0  0
   10.8687    3.5744   10.1864 O   0  0  0  0  0  0  0  0  0  0  0  0
   13.2339    3.4906    9.9883 C   0  0  0  0  0  0  0  0  0  0  0  0
   13.4060    3.5673   11.3229 C   0  0  0  0  0  0  0  0  0  0  0  0
   12.5254    3.3724   12.3528 N   0  0  0  0  0  0  0  0  0  0  0  0
   12.7668    3.3814   13.7871 C   0  0  0  0  0  0  0  0  0  0  0  0
   14.2438    3.2350   14.1880 C   0  0  0  0  0  0  0  0  0  0  0  0
   14.8498    1.8786   13.7777 C   0  0  0  0  0  0  0  0  0  0  0  0
   16.2459    2.0222   13.1527 C   0  0  0  0  0  0  0  0  0  0  0  0
   16.6323    0.8136   12.2858 C   0  0  0  0  0  0  0  0  0  0  0  0
   16.9692    1.1900   10.8311 C   0  0  0  0  0  0  0  0  0  0  0  0
   15.7348    1.5901   10.0087 C   0  0  0  0  0  0  0  0  0  0  0  0
   15.7588    3.0597    9.5537 C   0  0  0  0  0  0  0  0  0  0  0  0
   14.3941    3.5470    9.0166 C   0  0  0  0  0  0  0  0  0  0  0  0
    4.1854   -0.6626    2.3044 C   0  0  0  0  0  0  0  0  0  0  0  0
    3.8257   -0.5992   -2.3900 H   0  0  0  0  0  0  0  0  0  0  0  0
    3.2371   -0.6283   -0.7178 H   0  0  0  0  0  0  0  0  0  0  0  0
    4.7107   -1.5126   -1.1493 H   0  0  0  0  0  0  0  0  0  0  0  0
    4.3945    1.5413   -1.1894 H   0  0  0  0  0  0  0  0  0  0  0  0
    5.8409    0.6603   -1.6768 H   0  0  0  0  0  0  0  0  0  0  0  0
    6.0770    1.4303    0.5851 H   0  0  0  0  0  0  0  0  0  0  0  0
    6.0989   -0.3390    0.5111 H   0  0  0  0  0  0  0  0  0  0  0  0
    3.5262    1.1455    1.2833 H   0  0  0  0  0  0  0  0  0  0  0  0
    6.7315    1.1985    2.5137 H   0  0  0  0  0  0  0  0  0  0  0  0
    6.7283   -0.4446    3.1311 H   0  0  0  0  0  0  0  0  0  0  0  0
    6.0596    0.4567    5.3727 H   0  0  0  0  0  0  0  0  0  0  0  0
    6.0086    2.0940    4.7048 H   0  0  0  0  0  0  0  0  0  0  0  0
    8.4336    1.9126    4.0641 H   0  0  0  0  0  0  0  0  0  0  0  0
    8.4850    0.2820    4.7345 H   0  0  0  0  0  0  0  0  0  0  0  0
    7.9158    1.2012    6.9928 H   0  0  0  0  0  0  0  0  0  0  0  0
    7.8779    2.8308    6.3168 H   0  0  0  0  0  0  0  0  0  0  0  0
   10.2881    2.6081    5.6394 H   0  0  0  0  0  0  0  0  0  0  0  0
   10.3274    0.9762    6.3152 H   0  0  0  0  0  0  0  0  0  0  0  0
    9.6986    1.8986    8.5586 H   0  0  0  0  0  0  0  0  0  0  0  0
    9.6678    3.5219    7.8780 H   0  0  0  0  0  0  0  0  0  0  0  0
   12.0916    3.3725    7.3484 H   0  0  0  0  0  0  0  0  0  0  0  0
   12.1406    1.7182    8.0352 H   0  0  0  0  0  0  0  0  0  0  0  0
   14.4033    3.7713   11.6867 H   0  0  0  0  0  0  0  0  0  0  0  0
   11.5412    3.3304   12.0542 H   0  0  0  0  0  0  0  0  0  0  0  0
   12.1871    2.5725   14.2462 H   0  0  0  0  0  0  0  0  0  0  0  0
   12.3777    4.3220   14.1905 H   0  0  0  0  0  0  0  0  0  0  0  0
   14.3209    3.3395   15.2762 H   0  0  0  0  0  0  0  0  0  0  0  0
   14.8167    4.0726   13.7737 H   0  0  0  0  0  0  0  0  0  0  0  0
   14.1821    1.3564   13.0849 H   0  0  0  0  0  0  0  0  0  0  0  0
   14.9236    1.2393   14.6670 H   0  0  0  0  0  0  0  0  0  0  0  0
   16.9799    2.1339   13.9608 H   0  0  0  0  0  0  0  0  0  0  0  0
   16.3141    2.9406   12.5633 H   0  0  0  0  0  0  0  0  0  0  0  0
   15.8457    0.0488   12.2894 H   0  0  0  0  0  0  0  0  0  0  0  0
   17.5167    0.3389   12.7276 H   0  0  0  0  0  0  0  0  0  0  0  0
   17.4196    0.3078   10.3585 H   0  0  0  0  0  0  0  0  0  0  0  0
   17.7353    1.9740   10.8141 H   0  0  0  0  0  0  0  0  0  0  0  0
   14.8267    1.3611   10.5737 H   0  0  0  0  0  0  0  0  0  0  0  0
   15.6885    0.9616    9.1103 H   0  0  0  0  0  0  0  0  0  0  0  0
   16.5050    3.1662    8.7558 H   0  0  0  0  0  0  0  0  0  0  0  0
   16.0966    3.7168   10.3625 H   0  0  0  0  0  0  0  0  0  0  0  0
   14.1813    2.9399    8.1316 H   0  0  0  0  0  0  0  0  0  0  0  0
   14.4972    4.5814    8.6664 H   0  0  0  0  0  0  0  0  0  0  0  0
    3.1656   -1.0032    2.4834 H   0  0  0  0  0  0  0  0  0  0  0  0
  1  2  1  0  0  0  0
  1 28  1  0  0  0  0
  1 29  1  0  0  0  0
  1 30  1  0  0  0  0
  2  3  1  0  0  0  0
  2 31  1  0  0  0  0
  2 32  1  0  0  0  0
  3  4  1  0  0  0  0
  3 33  1  0  0  0  0
  3 34  1  0  0  0  0
  4  5  1  0  0  0  0
  4 27  1  0  0  0  0
  4 35  1  0  0  0  0
  5  6  1  0  0  0  0
  5 27  2  0  0  0  0
  6  7  1  0  0  0  0
  6 36  1  0  0  0  0
  6 37  1  0  0  0  0
  7  8  1  0  0  0  0
  7 38  1  0  0  0  0
  7 39  1  0  0  0  0
  8  9  1  0  0  0  0
  8 40  1  0  0  0  0
  8 41  1  0  0  0  0
  9 10  1  0  0  0  0
  9 42  1  0  0  0  0
  9 43  1  0  0  0  0
 10 11  1  0  0  0  0
 10 44  1  0  0  0  0
 10 45  1  0  0  0  0
 11 12  1  0  0  0  0
 11 46  1  0  0  0  0
 11 47  1  0  0  0  0
 12 13  1  0  0  0  0
 12 48  1  0  0  0  0
 12 49  1  0  0  0  0
 13 14  2  0  0  0  0
 13 15  1  0  0  0  0
 15 16  2  3  0  0  0
 15 26  1  0  0  0  0
 16 17  1  0  0  0  0
 16 50  1  0  0  0  0
 17 18  1  0  0  0  0
 17 51  1  0  0  0  0
 18 19  1  0  0  0  0
 18 52  1  0  0  0  0
 18 53  1  0  0  0  0
 19 20  1  0  0  0  0
 19 54  1  0  0  0  0
 19 55  1  0  0  0  0
 20 21  1  0  0  0  0
 20 56  1  0  0  0  0
 20 57  1  0  0  0  0
 21 22  1  0  0  0  0
 21 58  1  0  0  0  0
 21 59  1  0  0  0  0
 22 23  1  0  0  0  0
 22 60  1  0  0  0  0
 22 61  1  0  0  0  0
 23 24  1  0  0  0  0
 23 62  1  0  0  0  0
 23 63  1  0  0  0  0
 24 25  1  0  0  0  0
 24 64  1  0  0  0  0
 24 65  1  0  0  0  0
 25 26  1  0  0  0  0
 25 66  1  0  0  0  0
 25 67  1  0  0  0  0
 26 68  1  0  0  0  0
 26 69  1  0  0  0  0
 27 70  1  0  0  0  0
M  END
$$$$
