
 OpenBabel04232216523D

 49 51  0  0  1  0  0  0  0  0999 V2000
    2.7131   -0.4127   -1.9828 C   0  0  0  0  0  0  0  0  0  0  0  0
    3.8508    0.2886   -1.2564 C   0  0  0  0  0  0  0  0  0  0  0  0
    4.4350   -0.5249   -0.0897 C   0  0  0  0  0  0  0  0  0  0  0  0
    5.1206    0.3030    1.0250 C   0  0  3  0  0  0  0  0  0  0  0  0
    4.5077    1.6193    1.5158 C   0  0  0  0  0  0  0  0  0  0  0  0
    3.2458    1.5702    2.4191 C   0  0  0  0  0  0  0  0  0  0  0  0
    3.0037    0.3063    3.3513 C   0  0  3  0  0  0  0  0  0  0  0  0
    3.0090    0.8674    4.8031 C   0  0  0  0  0  0  0  0  0  0  0  0
    4.1943   -0.7049    3.1785 C   0  0  3  0  0  3  0  0  0  0  0  0
    4.1602   -2.0333    3.7735 C   0  0  0  0  0  0  0  0  0  0  0  0
    5.1244   -2.7113    3.9806 O   0  0  0  0  0  0  0  0  0  0  0  0
    2.8539   -2.5863    4.1175 C   0  0  0  0  0  3  0  0  0  0  0  0
    1.7184   -1.7315    4.0392 C   0  0  0  0  0  0  0  0  0  0  0  0
    1.6205   -0.5627    3.0585 C   0  0  0  0  0  0  0  0  0  0  0  0
    1.5897   -0.6563    1.5240 C   0  0  0  0  0  0  0  0  0  0  0  0
    1.2484   -2.0360    1.0524 C   0  0  0  0  0  0  0  0  0  0  0  0
   -0.2359   -2.1744    1.2942 C   0  0  0  0  0  0  0  0  0  0  0  0
   -0.7121   -1.5698    2.6535 C   0  0  0  0  0  0  0  0  0  0  0  0
    0.0875   -0.2975    3.2606 C   0  0  0  0  0  0  0  0  0  0  0  0
    5.3887   -0.5261    2.2820 C   0  0  0  0  0  0  0  0  0  0  0  0
    2.6152   -0.0162   -3.0068 H   0  0  0  0  0  0  0  0  0  0  0  0
    1.7581   -0.2247   -1.4868 H   0  0  0  0  0  0  0  0  0  0  0  0
    2.8617   -1.4939   -2.0562 H   0  0  0  0  0  0  0  0  0  0  0  0
    3.4678    1.2591   -0.9258 H   0  0  0  0  0  0  0  0  0  0  0  0
    4.6612    0.4898   -1.9671 H   0  0  0  0  0  0  0  0  0  0  0  0
    5.1795   -1.2215   -0.5152 H   0  0  0  0  0  0  0  0  0  0  0  0
    3.7214   -1.2419    0.3104 H   0  0  0  0  0  0  0  0  0  0  0  0
    6.1075    0.5567    0.5980 H   0  0  0  0  0  0  0  0  0  0  0  0
    4.3512    2.3137    0.6899 H   0  0  0  0  0  0  0  0  0  0  0  0
    5.2970    2.1083    2.1198 H   0  0  0  0  0  0  0  0  0  0  0  0
    2.3614    1.7825    1.8066 H   0  0  0  0  0  0  0  0  0  0  0  0
    3.3206    2.4753    3.0458 H   0  0  0  0  0  0  0  0  0  0  0  0
    3.9037    1.4769    4.9842 H   0  0  0  0  0  0  0  0  0  0  0  0
    3.0056    0.0886    5.5673 H   0  0  0  0  0  0  0  0  0  0  0  0
    2.1374    1.5093    4.9678 H   0  0  0  0  0  0  0  0  0  0  0  0
    2.7958   -3.4980    4.6739 H   0  0  0  0  0  0  0  0  0  0  0  0
    1.1883   -1.6646    5.0032 H   0  0  0  0  0  0  0  0  0  0  0  0
    2.4613   -0.2492    1.0656 H   0  0  0  0  0  0  0  0  0  0  0  0
    0.8518    0.0473    1.0945 H   0  0  0  0  0  0  0  0  0  0  0  0
    1.8447   -2.7918    1.5690 H   0  0  0  0  0  0  0  0  0  0  0  0
    1.4845   -2.1442   -0.0119 H   0  0  0  0  0  0  0  0  0  0  0  0
   -0.5109   -3.2313    1.2008 H   0  0  0  0  0  0  0  0  0  0  0  0
   -0.7529   -1.6502    0.4812 H   0  0  0  0  0  0  0  0  0  0  0  0
   -0.6606   -2.3951    3.3798 H   0  0  0  0  0  0  0  0  0  0  0  0
   -1.7821   -1.3346    2.5642 H   0  0  0  0  0  0  0  0  0  0  0  0
   -0.2135   -0.1869    4.3023 H   0  0  0  0  0  0  0  0  0  0  0  0
   -0.2659    0.6151    2.7560 H   0  0  0  0  0  0  0  0  0  0  0  0
    5.7876   -1.5052    1.9580 H   0  0  0  0  0  0  0  0  0  0  0  0
    6.1851   -0.0612    2.8673 H   0  0  0  0  0  0  0  0  0  0  0  0
  1  2  1  0  0  0  0
  1 21  1  0  0  0  0
  1 22  1  0  0  0  0
  1 23  1  0  0  0  0
  2  3  1  0  0  0  0
  2 24  1  0  0  0  0
  2 25  1  0  0  0  0
  3  4  1  0  0  0  0
  3 26  1  0  0  0  0
  3 27  1  0  0  0  0
  4  5  1  0  0  0  0
  4 20  1  0  0  0  0
  4 28  1  0  0  0  0
  5  6  1  0  0  0  0
  5 29  1  0  0  0  0
  5 30  1  0  0  0  0
  6  7  1  0  0  0  0
  6 31  1  0  0  0  0
  6 32  1  0  0  0  0
  7  8  1  0  0  0  0
  7  9  1  0  0  0  0
  7 14  1  0  0  0  0
  8 33  1  0  0  0  0
  8 34  1  0  0  0  0
  8 35  1  0  0  0  0
  9 10  1  0  0  0  0
  9 20  1  0  0  0  0
 10 11  2  0  0  0  0
 10 12  1  0  0  0  0
 12 13  1  0  0  0  0
 12 36  1  0  0  0  0
 13 14  2  0  0  0  0
 13 37  1  0  0  0  0
 14 15  1  0  0  0  0
 14 19  1  0  0  0  0
 15 16  1  0  0  0  0
 15 38  1  0  0  0  0
 15 39  1  0  0  0  0
 16 17  1  0  0  0  0
 16 40  1  0  0  0  0
 16 41  1  0  0  0  0
 17 18  1  0  0  0  0
 17 42  1  0  0  0  0
 17 43  1  0  0  0  0
 18 19  1  0  0  0  0
 18 44  1  0  0  0  0
 18 45  1  0  0  0  0
 19 46  1  0  0  0  0
 19 47  1  0  0  0  0
 20 48  1  0  0  0  0
 20 49  1  0  0  0  0
M  END
$$$$
