
 OpenBabel04232216513D

 54 56  0  0  1  0  0  0  0  0999 V2000
    3.8022   -2.7596    4.7434 C   0  0  0  0  0  0  0  0  0  0  0  0
    5.0665   -3.5355    5.7228 C   0  0  0  0  0  0  0  0  0  0  0  0
    6.6956   -3.9127    5.2905 C   0  0  3  0  0  0  0  0  0  0  0  0
    7.8705   -4.8266    6.4093 N   0  0  0  0  0  0  0  0  0  0  0  0
    7.5479   -6.2572    6.6280 C   0  0  0  0  0  0  0  0  0  0  0  0
    8.0258   -7.0321    7.9001 C   0  0  0  0  0  0  0  0  0  0  0  0
    7.6162   -7.1490    5.6069 C   0  0  0  0  0  0  0  0  0  0  0  0
    6.1960   -7.5869    5.5853 C   0  0  0  0  0  0  0  0  0  0  0  0
    5.4346   -7.3035    4.5918 N   0  0  0  0  0  0  0  0  0  0  0  0
    6.0554   -6.6130    3.5700 C   0  0  0  0  0  0  0  0  0  0  0  0
    7.3354   -6.3870    3.3826 N   0  0  0  0  0  0  0  0  0  0  0  0
    8.2634   -6.8314    4.3150 C   0  0  0  0  0  0  0  0  0  0  0  0
    9.6512   -6.7395    4.3278 C   0  0  0  0  0  0  0  0  0  0  0  0
    6.9040   -2.8511    4.1007 C   0  0  0  0  0  0  0  0  0  0  0  0
    6.4247   -3.1711    2.6444 C   0  0  0  0  0  0  0  0  0  0  0  0
    6.9512   -2.8359    1.4316 N   0  0  0  0  0  0  0  0  0  0  0  0
    8.3252   -3.0938    1.2679 C   0  0  0  0  0  0  0  0  0  0  0  0
    9.2262   -2.6853    2.1890 C   0  0  0  0  0  0  0  0  0  0  0  0
    9.3665   -3.7943    3.0763 C   0  0  0  0  0  0  0  0  0  0  0  0
   10.4500   -4.5281    3.0740 C   0  0  0  0  0  0  0  0  0  0  0  0
   10.6944   -5.7279    3.8003 C   0  0  0  0  0  0  0  0  0  0  0  0
   12.0148   -5.6041    4.0907 C   0  0  0  0  0  0  0  0  0  0  0  0
   13.1359   -6.2795    4.6449 C   0  0  0  0  0  0  0  0  0  0  0  0
   13.4995   -5.8673    5.8733 C   0  0  0  0  0  0  0  0  0  0  0  0
   12.8278   -6.7203    6.8028 C   0  0  0  0  0  0  0  0  0  0  0  0
   11.5653   -6.6634    7.1821 C   0  0  0  0  0  0  0  0  0  0  0  0
   10.4273   -5.5845    7.2788 C   0  0  0  0  0  0  0  0  0  0  0  0
    9.5153   -4.7133    6.5920 C   0  0  0  0  0  0  0  0  0  0  0  0
    2.8922   -2.5648    5.3514 H   0  0  0  0  0  0  0  0  0  0  0  0
    3.4451   -3.3940    3.9141 H   0  0  0  0  0  0  0  0  0  0  0  0
    4.0714   -1.7900    4.3002 H   0  0  0  0  0  0  0  0  0  0  0  0
    4.6014   -4.4016    5.2611 H   0  0  0  0  0  0  0  0  0  0  0  0
    5.1838   -2.5284    6.1212 H   0  0  0  0  0  0  0  0  0  0  0  0
    6.4614   -4.7907    4.7427 H   0  0  0  0  0  0  0  0  0  0  0  0
    7.2827   -7.7350    8.2904 H   0  0  0  0  0  0  0  0  0  0  0  0
    8.3492   -6.4091    8.7360 H   0  0  0  0  0  0  0  0  0  0  0  0
    8.8810   -7.6820    7.6270 H   0  0  0  0  0  0  0  0  0  0  0  0
    5.7791   -8.0410    6.5108 H   0  0  0  0  0  0  0  0  0  0  0  0
    5.3347   -6.1180    2.8907 H   0  0  0  0  0  0  0  0  0  0  0  0
   10.1123   -7.3324    5.1179 H   0  0  0  0  0  0  0  0  0  0  0  0
    7.7207   -2.1527    4.2178 H   0  0  0  0  0  0  0  0  0  0  0  0
    6.0850   -2.1276    4.2245 H   0  0  0  0  0  0  0  0  0  0  0  0
    5.4473   -3.6439    2.5080 H   0  0  0  0  0  0  0  0  0  0  0  0
    8.4343   -4.0388    0.8501 H   0  0  0  0  0  0  0  0  0  0  0  0
    9.1548   -1.7223    2.7122 H   0  0  0  0  0  0  0  0  0  0  0  0
    8.5376   -4.2365    3.6482 H   0  0  0  0  0  0  0  0  0  0  0  0
   11.2749   -4.0296    2.5386 H   0  0  0  0  0  0  0  0  0  0  0  0
   12.4483   -4.5978    3.9446 H   0  0  0  0  0  0  0  0  0  0  0  0
   13.1840   -7.3273    4.3687 H   0  0  0  0  0  0  0  0  0  0  0  0
   14.5690   -5.7997    6.1044 H   0  0  0  0  0  0  0  0  0  0  0  0
   13.4489   -7.6184    7.0275 H   0  0  0  0  0  0  0  0  0  0  0  0
   11.2780   -7.5762    7.7254 H   0  0  0  0  0  0  0  0  0  0  0  0
   10.2189   -5.6793    8.3493 H   0  0  0  0  0  0  0  0  0  0  0  0
    9.2962   -3.9683    7.3587 H   0  0  0  0  0  0  0  0  0  0  0  0
  1  2  1  0  0  0  0
  1 29  1  0  0  0  0
  1 30  1  0  0  0  0
  1 31  1  0  0  0  0
  2  3  1  0  0  0  0
  2 32  1  0  0  0  0
  2 33  1  0  0  0  0
  3  4  1  0  0  0  0
  3 14  1  0  0  0  0
  3 34  1  0  0  0  0
  4  5  1  0  0  0  0
  4 28  1  0  0  0  0
  5  6  1  0  0  0  0
  5  7  2  0  0  0  0
  6 35  1  0  0  0  0
  6 36  1  0  0  0  0
  6 37  1  0  0  0  0
  7  8  1  0  0  0  0
  7 12  1  0  0  0  0
  8  9  2  0  0  0  0
  8 38  1  0  0  0  0
  9 10  1  0  0  0  0
 10 11  2  0  0  0  0
 10 39  1  0  0  0  0
 11 12  1  0  0  0  0
 12 13  2  0  0  0  0
 13 21  1  0  0  0  0
 13 40  1  0  0  0  0
 14 15  1  0  0  0  0
 14 41  1  0  0  0  0
 14 42  1  0  0  0  0
 15 16  2  3  0  0  0
 15 43  1  0  0  0  0
 16 17  1  0  0  0  0
 17 18  2  3  0  0  0
 17 44  1  0  0  0  0
 18 19  1  0  0  0  0
 18 45  1  0  0  0  0
 19 20  2  3  0  0  0
 19 46  1  0  0  0  0
 20 21  1  0  0  0  0
 20 47  1  0  0  0  0
 21 22  2  0  0  0  0
 22 23  1  0  0  0  0
 22 48  1  0  0  0  0
 23 24  2  0  0  0  0
 23 49  1  0  0  0  0
 24 25  1  0  0  0  0
 24 50  1  0  0  0  0
 25 26  2  0  0  0  0
 25 51  1  0  0  0  0
 26 27  1  0  0  0  0
 26 52  1  0  0  0  0
 27 28  2  0  0  0  0
 27 53  1  0  0  0  0
 28 54  1  0  0  0  0
M  END
$$$$
