
 OpenBabel04232216493D

 69 70  0  0  1  0  0  0  0  0999 V2000
    0.3277   -0.6722   -0.1693 C   0  0  0  0  0  0  0  0  0  0  0  0
    1.8206   -0.5419    0.0946 C   0  0  3  0  0  0  0  0  0  0  0  0
    2.7290   -1.5052   -0.7177 C   0  0  0  0  0  0  0  0  0  0  0  0
    3.6290   -2.3229    0.2337 C   0  0  0  0  0  0  0  0  0  0  0  0
    5.0654   -2.5456   -0.2712 C   0  0  0  0  0  0  0  0  0  0  0  0
    6.1105   -2.2118    0.8092 C   0  0  0  0  0  0  0  0  0  0  0  0
    7.1477   -1.1668    0.3714 C   0  0  0  0  0  0  0  0  0  0  0  0
    7.1679    0.0782    1.2814 C   0  0  0  0  0  0  0  0  0  0  0  0
    6.5128    1.3314    0.6601 C   0  0  0  0  0  0  0  0  0  0  0  0
    5.3998    2.0041    1.5335 C   0  0  0  0  0  0  0  0  0  0  0  0
    4.0415    2.3366    0.8415 C   0  0  0  0  0  0  0  0  0  0  0  0
    2.5333    1.7161    1.1962 C   0  0  3  0  0  0  0  0  0  0  0  0
    2.2523    0.8866    2.5651 C   0  0  0  0  0  0  0  0  0  0  0  0
    3.2516    0.2159    2.9421 O   0  0  0  0  0  0  0  0  0  0  0  0
    0.9056    0.7210    3.5207 C   0  0  0  0  0  0  0  0  0  0  0  0
    1.4389    0.8639    4.7811 C   0  0  0  0  0  0  0  0  0  0  0  0
    1.0035    0.5326    6.0392 N   0  0  0  0  0  0  0  0  0  0  0  0
    0.4000    1.5565    6.9150 C   0  0  0  0  0  0  0  0  0  0  0  0
   -0.9035    1.9690    6.2856 C   0  0  0  0  0  0  0  0  0  0  0  0
   -2.0906    2.2540    7.1846 C   0  0  0  0  0  0  0  0  0  0  0  0
   -3.3487    1.9213    6.3775 C   0  0  0  0  0  0  0  0  0  0  0  0
   -3.5595    0.4031    6.2189 C   0  0  0  0  0  0  0  0  0  0  0  0
   -3.1218   -0.3021    4.8760 C   0  0  0  0  0  0  0  0  0  0  0  0
   -1.6067   -0.6610    4.4138 C   0  0  0  0  0  0  0  0  0  0  0  0
   -0.6251    0.2111    3.3172 C   0  0  0  0  0  0  0  0  0  0  0  0
    2.1910    0.9180   -0.1091 C   0  0  0  0  0  0  0  0  0  0  0  0
   -0.0444   -1.6152    0.2235 H   0  0  0  0  0  0  0  0  0  0  0  0
    0.1008   -0.5870   -1.2338 H   0  0  0  0  0  0  0  0  0  0  0  0
   -0.2023    0.1420    0.3445 H   0  0  0  0  0  0  0  0  0  0  0  0
    1.9356   -0.8174    1.1375 H   0  0  0  0  0  0  0  0  0  0  0  0
    3.3365   -0.9703   -1.4569 H   0  0  0  0  0  0  0  0  0  0  0  0
    2.1078   -2.2045   -1.2848 H   0  0  0  0  0  0  0  0  0  0  0  0
    3.1562   -3.3016    0.3929 H   0  0  0  0  0  0  0  0  0  0  0  0
    3.6627   -1.8558    1.2209 H   0  0  0  0  0  0  0  0  0  0  0  0
    5.2535   -1.9951   -1.1956 H   0  0  0  0  0  0  0  0  0  0  0  0
    5.1697   -3.6091   -0.5261 H   0  0  0  0  0  0  0  0  0  0  0  0
    6.6470   -3.1388    1.0520 H   0  0  0  0  0  0  0  0  0  0  0  0
    5.6382   -1.9083    1.7493 H   0  0  0  0  0  0  0  0  0  0  0  0
    7.0412   -0.8890   -0.6827 H   0  0  0  0  0  0  0  0  0  0  0  0
    8.1337   -1.6485    0.4418 H   0  0  0  0  0  0  0  0  0  0  0  0
    8.2283    0.3069    1.4701 H   0  0  0  0  0  0  0  0  0  0  0  0
    6.7462   -0.1418    2.2658 H   0  0  0  0  0  0  0  0  0  0  0  0
    6.1887    1.1485   -0.3692 H   0  0  0  0  0  0  0  0  0  0  0  0
    7.3377    2.0616    0.5604 H   0  0  0  0  0  0  0  0  0  0  0  0
    5.8361    2.9891    1.7718 H   0  0  0  0  0  0  0  0  0  0  0  0
    5.2764    1.5164    2.4990 H   0  0  0  0  0  0  0  0  0  0  0  0
    4.2468    2.2375   -0.2366 H   0  0  0  0  0  0  0  0  0  0  0  0
    3.9231    3.4279    0.9203 H   0  0  0  0  0  0  0  0  0  0  0  0
    1.8875    2.6056    1.2302 H   0  0  0  0  0  0  0  0  0  0  0  0
    2.4512    1.2372    4.9073 H   0  0  0  0  0  0  0  0  0  0  0  0
    0.4496   -0.3200    6.0625 H   0  0  0  0  0  0  0  0  0  0  0  0
    1.0751    2.4126    7.0059 H   0  0  0  0  0  0  0  0  0  0  0  0
    0.2611    1.1145    7.9107 H   0  0  0  0  0  0  0  0  0  0  0  0
   -1.2173    1.1291    5.6978 H   0  0  0  0  0  0  0  0  0  0  0  0
   -0.7715    2.7576    5.5458 H   0  0  0  0  0  0  0  0  0  0  0  0
   -2.0599    3.3074    7.4562 H   0  0  0  0  0  0  0  0  0  0  0  0
   -2.0437    1.6596    8.1109 H   0  0  0  0  0  0  0  0  0  0  0  0
   -3.3269    2.3961    5.3842 H   0  0  0  0  0  0  0  0  0  0  0  0
   -4.1978    2.3641    6.9101 H   0  0  0  0  0  0  0  0  0  0  0  0
   -4.6544    0.2689    6.3005 H   0  0  0  0  0  0  0  0  0  0  0  0
   -3.1682   -0.1300    7.0966 H   0  0  0  0  0  0  0  0  0  0  0  0
   -3.5747   -1.3004    5.0463 H   0  0  0  0  0  0  0  0  0  0  0  0
   -3.7051    0.1115    4.0485 H   0  0  0  0  0  0  0  0  0  0  0  0
   -1.7868   -1.6008    3.8603 H   0  0  0  0  0  0  0  0  0  0  0  0
   -1.0607   -1.0048    5.2903 H   0  0  0  0  0  0  0  0  0  0  0  0
   -1.2345    1.0707    3.0102 H   0  0  0  0  0  0  0  0  0  0  0  0
   -0.5802   -0.4688    2.4591 H   0  0  0  0  0  0  0  0  0  0  0  0
    3.0027    0.9772   -0.8480 H   0  0  0  0  0  0  0  0  0  0  0  0
    1.3923    1.4806   -0.6302 H   0  0  0  0  0  0  0  0  0  0  0  0
  1  2  1  0  0  0  0
  1 27  1  0  0  0  0
  1 28  1  0  0  0  0
  1 29  1  0  0  0  0
  2  3  1  0  0  0  0
  2 26  1  0  0  0  0
  2 30  1  0  0  0  0
  3  4  1  0  0  0  0
  3 31  1  0  0  0  0
  3 32  1  0  0  0  0
  4  5  1  0  0  0  0
  4 33  1  0  0  0  0
  4 34  1  0  0  0  0
  5  6  1  0  0  0  0
  5 35  1  0  0  0  0
  5 36  1  0  0  0  0
  6  7  1  0  0  0  0
  6 37  1  0  0  0  0
  6 38  1  0  0  0  0
  7  8  1  0  0  0  0
  7 39  1  0  0  0  0
  7 40  1  0  0  0  0
  8  9  1  0  0  0  0
  8 41  1  0  0  0  0
  8 42  1  0  0  0  0
  9 10  1  0  0  0  0
  9 43  1  0  0  0  0
  9 44  1  0  0  0  0
 10 11  1  0  0  0  0
 10 45  1  0  0  0  0
 10 46  1  0  0  0  0
 11 12  1  0  0  0  0
 11 47  1  0  0  0  0
 11 48  1  0  0  0  0
 12 13  1  0  0  0  0
 12 26  1  0  0  0  0
 12 49  1  0  0  0  0
 13 14  2  0  0  0  0
 13 15  1  0  0  0  0
 15 16  2  3  0  0  0
 15 25  1  0  0  0  0
 16 17  1  0  0  0  0
 16 50  1  0  0  0  0
 17 18  1  0  0  0  0
 17 51  1  0  0  0  0
 18 19  1  0  0  0  0
 18 52  1  0  0  0  0
 18 53  1  0  0  0  0
 19 20  1  0  0  0  0
 19 54  1  0  0  0  0
 19 55  1  0  0  0  0
 20 21  1  0  0  0  0
 20 56  1  0  0  0  0
 20 57  1  0  0  0  0
 21 22  1  0  0  0  0
 21 58  1  0  0  0  0
 21 59  1  0  0  0  0
 22 23  1  0  0  0  0
 22 60  1  0  0  0  0
 22 61  1  0  0  0  0
 23 24  1  0  0  0  0
 23 62  1  0  0  0  0
 23 63  1  0  0  0  0
 24 25  1  0  0  0  0
 24 64  1  0  0  0  0
 24 65  1  0  0  0  0
 25 66  1  0  0  0  0
 25 67  1  0  0  0  0
 26 68  1  0  0  0  0
 26 69  1  0  0  0  0
M  END
$$$$
