
 OpenBabel04232216443D

 62 64  0  0  0  0  0  0  0  0999 V2000
    6.3126    0.9299    0.7222 C   0  0  0  0  0  0  0  0  0  0  0  0
    8.0735    0.8445    1.1752 C   0  0  0  0  0  0  0  0  0  0  0  0
    8.5645   -0.4255    0.5197 C   0  0  0  0  0  0  0  0  0  0  0  0
    8.6395   -0.5599   -0.8350 N   0  0  0  0  0  0  0  0  0  0  0  0
    7.1793   -0.3320   -1.9015 C   0  0  0  0  0  0  0  0  0  0  0  0
    6.3815    1.2929   -2.5097 C   0  0  0  0  0  0  0  0  0  0  0  0
    5.0064    1.7847   -3.4785 C   0  0  0  0  0  0  0  0  0  0  0  0
    5.1740    1.5914   -4.8185 F   0  0  0  0  0  0  0  0  0  0  0  0
    9.2169   -1.6504    0.3857 C   0  0  0  0  0  0  0  0  0  0  0  0
   10.3141   -2.4516    1.7196 C   0  0  0  0  0  0  0  0  0  0  0  0
    8.8121   -2.8653    2.5054 C   0  0  0  0  0  0  0  0  0  0  0  0
   11.8766   -2.2071    2.3957 C   0  0  0  0  0  0  0  0  0  0  0  0
   13.3502   -2.4122    3.7032 C   0  0  0  0  0  0  0  0  0  0  0  0
   15.2720   -2.3181    4.2791 C   0  0  0  0  0  0  0  0  0  0  0  0
   16.6321   -2.2390    5.7766 C   0  0  0  0  0  0  0  0  0  0  0  0
   17.7877   -0.9454    5.9241 C   0  0  0  0  0  0  0  0  0  0  0  0
   16.8569    0.0548    6.6752 C   0  0  0  0  0  0  0  0  0  0  0  0
   16.0953    0.7910    5.4874 C   0  0  0  0  0  0  0  0  0  0  0  0
   14.4382    0.7271    5.2769 C   0  0  0  0  0  0  0  0  0  0  0  0
   13.7417    1.2115    3.6948 C   0  0  0  0  0  0  0  0  0  0  0  0
   12.0632    1.7691    2.9384 C   0  0  0  0  0  0  0  0  0  0  0  0
   12.0122   -0.9750    2.0176 N   0  0  0  0  0  0  0  0  0  0  0  0
   10.8511   -0.3118    2.1489 C   0  0  0  0  0  0  0  0  0  0  0  0
    9.7182   -0.4907    3.3334 C   0  0  0  0  0  0  0  0  0  0  0  0
    9.9713    0.1833    4.4597 C   0  0  0  0  0  0  0  0  0  0  0  0
    9.8689    1.6569    4.2097 C   0  0  0  0  0  0  0  0  0  0  0  0
   10.1479    1.9527    2.9421 C   0  0  0  0  0  0  0  0  0  0  0  0
    8.7970    1.7655    1.9380 N   0  0  0  0  0  0  0  0  0  0  0  0
    5.5687    0.6937    1.5023 H   0  0  0  0  0  0  0  0  0  0  0  0
    5.9995    0.1275    0.0165 H   0  0  0  0  0  0  0  0  0  0  0  0
    5.9457    1.8366    0.2248 H   0  0  0  0  0  0  0  0  0  0  0  0
    6.3201   -0.9916   -1.6220 H   0  0  0  0  0  0  0  0  0  0  0  0
    7.4977   -0.6888   -2.8770 H   0  0  0  0  0  0  0  0  0  0  0  0
    7.1646    1.7622   -3.1114 H   0  0  0  0  0  0  0  0  0  0  0  0
    6.1735    1.9284   -1.6568 H   0  0  0  0  0  0  0  0  0  0  0  0
    4.9096    2.8983   -3.4052 H   0  0  0  0  0  0  0  0  0  0  0  0
    3.9782    1.4719   -3.2151 H   0  0  0  0  0  0  0  0  0  0  0  0
    7.9593   -2.5784    1.8684 H   0  0  0  0  0  0  0  0  0  0  0  0
    8.4878   -2.2774    3.3657 H   0  0  0  0  0  0  0  0  0  0  0  0
    8.5990   -3.9131    2.6900 H   0  0  0  0  0  0  0  0  0  0  0  0
   12.9234   -2.2227    4.7472 H   0  0  0  0  0  0  0  0  0  0  0  0
   13.7118   -1.4719    3.3353 H   0  0  0  0  0  0  0  0  0  0  0  0
   15.7937   -3.1943    3.8209 H   0  0  0  0  0  0  0  0  0  0  0  0
   15.6974   -1.4238    3.8479 H   0  0  0  0  0  0  0  0  0  0  0  0
   16.2972   -2.4803    6.7815 H   0  0  0  0  0  0  0  0  0  0  0  0
   17.3403   -3.0584    5.5453 H   0  0  0  0  0  0  0  0  0  0  0  0
   18.5850   -1.6886    6.2355 H   0  0  0  0  0  0  0  0  0  0  0  0
   18.6509   -0.4642    6.5050 H   0  0  0  0  0  0  0  0  0  0  0  0
   17.4500    0.7837    7.2853 H   0  0  0  0  0  0  0  0  0  0  0  0
   16.2749   -0.4695    7.4412 H   0  0  0  0  0  0  0  0  0  0  0  0
   16.5658    0.3951    4.5780 H   0  0  0  0  0  0  0  0  0  0  0  0
   16.4436    1.8282    5.5425 H   0  0  0  0  0  0  0  0  0  0  0  0
   14.0220    1.3159    6.0959 H   0  0  0  0  0  0  0  0  0  0  0  0
   14.1919   -0.3248    5.4930 H   0  0  0  0  0  0  0  0  0  0  0  0
   14.0060    0.3477    3.0736 H   0  0  0  0  0  0  0  0  0  0  0  0
   14.4476    1.9635    3.3424 H   0  0  0  0  0  0  0  0  0  0  0  0
   12.1591    2.6826    3.5193 H   0  0  0  0  0  0  0  0  0  0  0  0
   11.9078    0.8371    3.4611 H   0  0  0  0  0  0  0  0  0  0  0  0
   10.6139    0.3908    1.3291 H   0  0  0  0  0  0  0  0  0  0  0  0
    8.6885   -0.2425    3.0245 H   0  0  0  0  0  0  0  0  0  0  0  0
   10.9484   -0.1078    4.9012 H   0  0  0  0  0  0  0  0  0  0  0  0
   10.6055    2.0821    4.9098 H   0  0  0  0  0  0  0  0  0  0  0  0
  1  2  1  0  0  0  0
  1 29  1  0  0  0  0
  1 30  1  0  0  0  0
  1 31  1  0  0  0  0
  2  3  1  0  0  0  0
  2 28  2  0  0  0  0
  3  4  1  0  0  0  0
  3  9  2  0  0  0  0
  4  5  1  0  0  0  0
  4  9  1  0  0  0  0
  5  6  1  0  0  0  0
  5 32  1  0  0  0  0
  5 33  1  0  0  0  0
  6  7  1  0  0  0  0
  6 34  1  0  0  0  0
  6 35  1  0  0  0  0
  7  8  1  0  0  0  0
  7 36  1  0  0  0  0
  7 37  1  0  0  0  0
  9 10  1  0  0  0  0
 10 11  1  0  0  0  0
 10 12  2  0  0  0  0
 11 38  1  0  0  0  0
 11 39  1  0  0  0  0
 11 40  1  0  0  0  0
 12 13  1  0  0  0  0
 12 22  1  0  0  0  0
 13 14  1  0  0  0  0
 13 41  1  0  0  0  0
 13 42  1  0  0  0  0
 14 15  1  0  0  0  0
 14 43  1  0  0  0  0
 14 44  1  0  0  0  0
 15 16  1  0  0  0  0
 15 45  1  0  0  0  0
 15 46  1  0  0  0  0
 16 17  1  0  0  0  0
 16 47  1  0  0  0  0
 16 48  1  0  0  0  0
 17 18  1  0  0  0  0
 17 49  1  0  0  0  0
 17 50  1  0  0  0  0
 18 19  1  0  0  0  0
 18 51  1  0  0  0  0
 18 52  1  0  0  0  0
 19 20  1  0  0  0  0
 19 53  1  0  0  0  0
 19 54  1  0  0  0  0
 20 21  1  0  0  0  0
 20 55  1  0  0  0  0
 20 56  1  0  0  0  0
 21 27  1  0  0  0  0
 21 57  1  0  0  0  0
 21 58  1  0  0  0  0
 22 23  2  0  0  0  0
 23 24  1  0  0  0  0
 23 59  1  0  0  0  0
 24 25  2  0  0  0  0
 24 60  1  0  0  0  0
 25 26  1  0  0  0  0
 25 61  1  0  0  0  0
 26 27  2  0  0  0  0
 26 62  1  0  0  0  0
 27 28  1  0  0  0  0
M  END
$$$$
