
 OpenBabel04232217013D

130130  0  0  0  0  0  0  0  0999 V2000
    6.6181    0.6075   -1.2171 O   0  0  0  0  0  0  0  0  0  0  0  0
    7.2205    0.1879   -2.4058 N   0  0  0  0  0  0  0  0  0  0  0  0
    7.2572    1.0380   -3.3627 C   0  0  0  0  0  0  0  0  0  0  0  0
    6.3630    0.1353   -3.6154 C   0  0  0  0  0  0  0  0  0  0  0  0
    5.6559   -0.9590   -3.3798 O   0  0  0  0  0  0  0  0  0  0  0  0
    5.0064   -1.5065   -4.4821 C   0  0  0  0  0  0  0  0  0  0  0  0
    4.1059   -2.6469   -3.9837 C   0  0  0  0  0  0  0  0  0  0  0  0
    3.3530   -3.4112   -5.0779 C   0  0  0  0  0  0  0  0  0  0  0  0
    4.2837   -4.1336   -6.0482 C   0  0  0  0  0  0  0  0  0  0  0  0
    3.5053   -4.8919   -7.1210 C   0  0  0  0  0  0  0  0  0  0  0  0
    4.4713   -5.5534   -8.0990 C   0  0  0  0  0  0  0  0  0  0  0  0
    3.7210   -6.2921   -9.1981 C   0  0  0  0  0  0  0  0  0  0  0  0
    4.7029   -6.9387  -10.1653 C   0  0  0  0  0  0  0  0  0  0  0  0
    3.9549   -7.6770  -11.2635 C   0  0  0  0  0  0  0  0  0  0  0  0
    4.9368   -8.3228  -12.2264 C   0  0  0  0  0  0  0  0  0  0  0  0
    4.1846   -9.0596  -13.3205 C   0  0  0  0  0  0  0  0  0  0  0  0
    5.1661   -9.7059  -14.2804 C   0  0  0  0  0  0  0  0  0  0  0  0
    4.4118  -10.4408  -15.3715 C   0  0  0  0  0  0  0  0  0  0  0  0
    5.3941  -11.0855  -16.3286 C   0  0  0  0  0  0  0  0  0  0  0  0
    4.6380  -11.8184  -17.4168 C   0  0  0  0  0  0  0  0  0  0  0  0
    5.6215  -12.4605  -18.3701 C   0  0  0  0  0  0  0  0  0  0  0  0
    4.8623  -13.1903  -19.4537 C   0  0  0  0  0  0  0  0  0  0  0  0
    5.8482  -13.8281  -20.4008 C   0  0  0  0  0  0  0  0  0  0  0  0
    5.0853  -14.5534  -21.4779 C   0  0  0  0  0  0  0  0  0  0  0  0
    6.0780  -15.1836  -22.4135 C   0  0  0  0  0  0  0  0  0  0  0  0
    5.3125  -15.9032  -23.4821 C   0  0  0  0  0  0  0  0  0  0  0  0
    6.3152  -16.5242  -24.4008 C   0  0  0  0  0  0  0  0  0  0  0  0
    5.5399  -17.2324  -25.4530 C   0  0  0  0  0  0  0  0  0  0  0  0
    6.5296  -17.8477  -26.3625 C   0  0  0  0  0  0  0  0  0  0  0  0
    5.7036  -18.4626  -27.2891 O   0  0  0  0  0  0  0  0  0  0  0  0
    6.6416  -19.0479  -28.1470 O   0  0  0  0  0  0  0  0  0  0  0  0
    5.9289  -19.7567  -29.1007 O   0  0  0  0  0  0  0  0  0  0  0  0
    6.8683  -20.2895  -29.9724 O   0  0  0  0  0  0  0  0  0  0  0  0
    6.1551  -20.9229  -30.9791 O   0  0  0  0  0  0  0  0  0  0  0  0
    7.0867  -21.5453  -31.7877 O   0  0  0  0  0  0  0  0  0  0  0  0
    6.3630  -22.2417  -32.7408 O   0  0  0  0  0  0  0  0  0  0  0  0
    7.2911  -22.7364  -33.6292 O   0  0  0  0  0  0  0  0  0  0  0  0
    6.5665  -23.3694  -34.6176 O   0  0  0  0  0  0  0  0  0  0  0  0
    7.4956  -24.0141  -35.4049 O   0  0  0  0  0  0  0  0  0  0  0  0
    6.7708  -24.7289  -36.3323 O   0  0  0  0  0  0  0  0  0  0  0  0
    7.6981  -25.1785  -37.2452 O   0  0  0  0  0  0  0  0  0  0  0  0
    6.9770  -25.8226  -38.2225 O   0  0  0  0  0  0  0  0  0  0  0  0
    7.9098  -26.4704  -38.9967 O   0  0  0  0  0  0  0  0  0  0  0  0
    7.1856  -27.0903  -39.9856 O   0  0  0  0  0  0  0  0  0  0  0  0
    8.1111  -27.5812  -40.8712 O   0  0  0  0  0  0  0  0  0  0  0  0
    7.3786  -28.2990  -41.7816 O   0  0  0  0  0  0  0  0  0  0  0  0
    8.2982  -28.9497  -42.5629 O   0  0  0  0  0  0  0  0  0  0  0  0
    7.5647  -29.4958  -43.5833 O   0  0  0  0  0  0  0  0  0  0  0  0
    8.4853  -29.9796  -44.4745 O   0  0  0  0  0  0  0  0  0  0  0  0
    7.7579  -30.7376  -45.3532 O   0  0  0  0  0  0  0  0  0  0  0  0
    8.6852  -31.3343  -46.1643 O   0  0  0  0  0  0  0  0  0  0  0  0
    7.9549  -31.9016  -47.1735 O   0  0  0  0  0  0  0  0  0  0  0  0
    8.8802  -32.4461  -48.0217 O   0  0  0  0  0  0  0  0  0  0  0  0
    8.1505  -33.2116  -48.8922 O   0  0  0  0  0  0  0  0  0  0  0  0
    9.0746  -33.7753  -49.7291 O   0  0  0  0  0  0  0  0  0  0  0  0
    8.3581  -34.2181  -50.8105 O   0  0  0  0  0  0  0  0  0  0  0  0
    9.2813  -34.8424  -51.6065 O   0  0  0  0  0  0  0  0  0  0  0  0
    8.5568  -35.6311  -52.4615 O   0  0  0  0  0  0  0  0  0  0  0  0
    9.4855  -36.1573  -53.3220 O   0  0  0  0  0  0  0  0  0  0  0  0
    8.7621  -36.7134  -54.3454 O   0  0  0  0  0  0  0  0  0  0  0  0
    9.6925  -37.3208  -55.1503 O   0  0  0  0  0  0  0  0  0  0  0  0
    8.9704  -38.0641  -56.0519 O   0  0  0  0  0  0  0  0  0  0  0  0
    9.9002  -38.5517  -56.9384 O   0  0  0  0  0  0  0  0  0  0  0  0
    9.1841  -39.1007  -57.9772 O   0  0  0  0  0  0  0  0  0  0  0  0
   10.1125  -39.7852  -58.7317 O   0  0  0  0  0  0  0  0  0  0  0  0
    9.3989  -40.4852  -59.6803 O   0  0  0  0  0  0  0  0  0  0  0  0
   10.3371  -40.9854  -60.5639 O   0  0  0  0  0  0  0  0  0  0  0  0
    9.6216  -41.6431  -61.5477 O   0  0  0  0  0  0  0  0  0  0  0  0
   10.5507  -42.2548  -62.3769 O   0  0  0  0  0  0  0  0  0  0  0  0
    9.8187  -42.9163  -63.3495 O   0  0  0  0  0  0  0  0  0  0  0  0
   10.7342  -43.4907  -64.2342 O   0  0  0  0  0  0  0  0  0  0  0  0
    9.9948  -44.1577  -65.2147 O   0  0  0  0  0  0  0  0  0  0  0  0
   10.9081  -44.7511  -66.0877 O   0  0  0  0  0  0  0  0  0  0  0  0
   10.1767  -45.4275  -67.0868 O   0  0  0  0  0  0  0  0  0  0  0  0
   11.1015  -46.0152  -67.9563 O   0  0  0  0  0  0  0  0  0  0  0  0
   10.3940  -46.7088  -68.9791 O   0  0  0  0  0  0  0  0  0  0  0  0
   11.3374  -47.3035  -69.8586 O   0  0  0  0  0  0  0  0  0  0  0  0
   10.6405  -48.0015  -70.8882 O   0  0  0  0  0  0  0  0  0  0  0  0
   11.5872  -48.6056  -71.7816 O   0  0  0  0  0  0  0  0  0  0  0  0
    7.3768    0.8906   -0.6785 H   0  0  0  0  0  0  0  0  0  0  0  0
    7.7279    1.9449   -3.6653 H   0  0  0  0  0  0  0  0  0  0  0  0
    5.7784   -1.8908   -5.1507 H   0  0  0  0  0  0  0  0  0  0  0  0
    4.4066   -0.7575   -5.0091 H   0  0  0  0  0  0  0  0  0  0  0  0
    3.3703   -2.2321   -3.2841 H   0  0  0  0  0  0  0  0  0  0  0  0
    4.7046   -3.3533   -3.3963 H   0  0  0  0  0  0  0  0  0  0  0  0
    2.6943   -2.7273   -5.6253 H   0  0  0  0  0  0  0  0  0  0  0  0
    2.7039   -4.1530   -4.5931 H   0  0  0  0  0  0  0  0  0  0  0  0
    4.9203   -4.8347   -5.4952 H   0  0  0  0  0  0  0  0  0  0  0  0
    4.9445   -3.4123   -6.5407 H   0  0  0  0  0  0  0  0  0  0  0  0
    2.8481   -4.2012   -7.6634 H   0  0  0  0  0  0  0  0  0  0  0  0
    2.8655   -5.6530   -6.6577 H   0  0  0  0  0  0  0  0  0  0  0  0
    5.1214   -6.2543   -7.5611 H   0  0  0  0  0  0  0  0  0  0  0  0
    5.1205   -4.7920   -8.5490 H   0  0  0  0  0  0  0  0  0  0  0  0
    3.0731   -5.5939   -9.7419 H   0  0  0  0  0  0  0  0  0  0  0  0
    3.0743   -7.0605   -8.7577 H   0  0  0  0  0  0  0  0  0  0  0  0
    5.3536   -7.6380   -9.6258 H   0  0  0  0  0  0  0  0  0  0  0  0
    5.3501   -6.1722  -10.6095 H   0  0  0  0  0  0  0  0  0  0  0  0
    3.3062   -6.9795  -11.8076 H   0  0  0  0  0  0  0  0  0  0  0  0
    3.3079   -8.4453  -10.8229 H   0  0  0  0  0  0  0  0  0  0  0  0
    5.5863   -9.0224  -11.6860 H   0  0  0  0  0  0  0  0  0  0  0  0
    5.5841   -7.5571  -12.6713 H   0  0  0  0  0  0  0  0  0  0  0  0
    3.5364   -8.3617  -13.8647 H   0  0  0  0  0  0  0  0  0  0  0  0
    3.5367   -9.8265  -12.8784 H   0  0  0  0  0  0  0  0  0  0  0  0
    5.8145  -10.4059  -13.7391 H   0  0  0  0  0  0  0  0  0  0  0  0
    5.8143   -8.9411  -14.7256 H   0  0  0  0  0  0  0  0  0  0  0  0
    3.7638   -9.7429  -15.9160 H   0  0  0  0  0  0  0  0  0  0  0  0
    3.7638  -11.2077  -14.9293 H   0  0  0  0  0  0  0  0  0  0  0  0
    6.0424  -11.7859  -15.7877 H   0  0  0  0  0  0  0  0  0  0  0  0
    6.0424  -10.3210  -16.7744 H   0  0  0  0  0  0  0  0  0  0  0  0
    3.9902  -11.1208  -17.9620 H   0  0  0  0  0  0  0  0  0  0  0  0
    3.9903  -12.5859  -16.9753 H   0  0  0  0  0  0  0  0  0  0  0  0
    6.2698  -13.1619  -17.8304 H   0  0  0  0  0  0  0  0  0  0  0  0
    6.2699  -11.6967  -18.8172 H   0  0  0  0  0  0  0  0  0  0  0  0
    4.2150  -12.4936  -20.0007 H   0  0  0  0  0  0  0  0  0  0  0  0
    4.2150  -13.9591  -19.0137 H   0  0  0  0  0  0  0  0  0  0  0  0
    6.4965  -14.5310  -19.8628 H   0  0  0  0  0  0  0  0  0  0  0  0
    6.4966  -13.0653  -20.8498 H   0  0  0  0  0  0  0  0  0  0  0  0
    4.4387  -13.8584  -22.0282 H   0  0  0  0  0  0  0  0  0  0  0  0
    4.4387  -15.3245  -21.0408 H   0  0  0  0  0  0  0  0  0  0  0  0
    6.7257  -15.8877  -21.8763 H   0  0  0  0  0  0  0  0  0  0  0  0
    6.7260  -14.4213  -22.8640 H   0  0  0  0  0  0  0  0  0  0  0  0
    4.6674  -15.2104  -24.0376 H   0  0  0  0  0  0  0  0  0  0  0  0
    4.6654  -16.6766  -23.0489 H   0  0  0  0  0  0  0  0  0  0  0  0
    6.9613  -17.2310  -23.8647 H   0  0  0  0  0  0  0  0  0  0  0  0
    6.9636  -15.7636  -24.8542 H   0  0  0  0  0  0  0  0  0  0  0  0
    4.8872  -16.5519  -26.0164 H   0  0  0  0  0  0  0  0  0  0  0  0
    4.8840  -18.0077  -25.0345 H   0  0  0  0  0  0  0  0  0  0  0  0
    7.1608  -18.5915  -25.8591 H   0  0  0  0  0  0  0  0  0  0  0  0
    7.1673  -17.1047  -26.8586 H   0  0  0  0  0  0  0  0  0  0  0  0
   10.9125  -48.9955  -72.3563 H   0  0  0  0  0  0  0  0  0  0  0  0
  1  2  1  0  0  0  0
  1 80  1  0  0  0  0
  2  3  1  0  0  0  0
  2  4  1  0  0  0  0
  3  4  2  0  0  0  0
  3 81  1  0  0  0  0
  4  5  1  0  0  0  0
  5  6  1  0  0  0  0
  6  7  1  0  0  0  0
  6 82  1  0  0  0  0
  6 83  1  0  0  0  0
  7  8  1  0  0  0  0
  7 84  1  0  0  0  0
  7 85  1  0  0  0  0
  8  9  1  0  0  0  0
  8 86  1  0  0  0  0
  8 87  1  0  0  0  0
  9 10  1  0  0  0  0
  9 88  1  0  0  0  0
  9 89  1  0  0  0  0
 10 11  1  0  0  0  0
 10 90  1  0  0  0  0
 10 91  1  0  0  0  0
 11 12  1  0  0  0  0
 11 92  1  0  0  0  0
 11 93  1  0  0  0  0
 12 13  1  0  0  0  0
 12 94  1  0  0  0  0
 12 95  1  0  0  0  0
 13 14  1  0  0  0  0
 13 96  1  0  0  0  0
 13 97  1  0  0  0  0
 14 15  1  0  0  0  0
 14 98  1  0  0  0  0
 14 99  1  0  0  0  0
 15 16  1  0  0  0  0
 15100  1  0  0  0  0
 15101  1  0  0  0  0
 16 17  1  0  0  0  0
 16102  1  0  0  0  0
 16103  1  0  0  0  0
 17 18  1  0  0  0  0
 17104  1  0  0  0  0
 17105  1  0  0  0  0
 18 19  1  0  0  0  0
 18106  1  0  0  0  0
 18107  1  0  0  0  0
 19 20  1  0  0  0  0
 19108  1  0  0  0  0
 19109  1  0  0  0  0
 20 21  1  0  0  0  0
 20110  1  0  0  0  0
 20111  1  0  0  0  0
 21 22  1  0  0  0  0
 21112  1  0  0  0  0
 21113  1  0  0  0  0
 22 23  1  0  0  0  0
 22114  1  0  0  0  0
 22115  1  0  0  0  0
 23 24  1  0  0  0  0
 23116  1  0  0  0  0
 23117  1  0  0  0  0
 24 25  1  0  0  0  0
 24118  1  0  0  0  0
 24119  1  0  0  0  0
 25 26  1  0  0  0  0
 25120  1  0  0  0  0
 25121  1  0  0  0  0
 26 27  1  0  0  0  0
 26122  1  0  0  0  0
 26123  1  0  0  0  0
 27 28  1  0  0  0  0
 27124  1  0  0  0  0
 27125  1  0  0  0  0
 28 29  1  0  0  0  0
 28126  1  0  0  0  0
 28127  1  0  0  0  0
 29 30  1  0  0  0  0
 29128  1  0  0  0  0
 29129  1  0  0  0  0
 30 31  1  0  0  0  0
 31 32  1  0  0  0  0
 32 33  1  0  0  0  0
 33 34  1  0  0  0  0
 34 35  1  0  0  0  0
 35 36  1  0  0  0  0
 36 37  1  0  0  0  0
 37 38  1  0  0  0  0
 38 39  1  0  0  0  0
 39 40  1  0  0  0  0
 40 41  1  0  0  0  0
 41 42  1  0  0  0  0
 42 43  1  0  0  0  0
 43 44  1  0  0  0  0
 44 45  1  0  0  0  0
 45 46  1  0  0  0  0
 46 47  1  0  0  0  0
 47 48  1  0  0  0  0
 48 49  1  0  0  0  0
 49 50  1  0  0  0  0
 50 51  1  0  0  0  0
 51 52  1  0  0  0  0
 52 53  1  0  0  0  0
 53 54  1  0  0  0  0
 54 55  1  0  0  0  0
 55 56  1  0  0  0  0
 56 57  1  0  0  0  0
 57 58  1  0  0  0  0
 58 59  1  0  0  0  0
 59 60  1  0  0  0  0
 60 61  1  0  0  0  0
 61 62  1  0  0  0  0
 62 63  1  0  0  0  0
 63 64  1  0  0  0  0
 64 65  1  0  0  0  0
 65 66  1  0  0  0  0
 66 67  1  0  0  0  0
 67 68  1  0  0  0  0
 68 69  1  0  0  0  0
 69 70  1  0  0  0  0
 70 71  1  0  0  0  0
 71 72  1  0  0  0  0
 72 73  1  0  0  0  0
 73 74  1  0  0  0  0
 74 75  1  0  0  0  0
 75 76  1  0  0  0  0
 76 77  1  0  0  0  0
 77 78  1  0  0  0  0
 78 79  1  0  0  0  0
 79130  1  0  0  0  0
M  END
$$$$
