
 OpenBabel04232216433D

 30 30  0  0  0  0  0  0  0  0999 V2000
   -0.4745   -1.5065    0.6455 C   0  0  0  0  0  0  0  0  0  0  0  0
    0.9244   -1.2699    0.4393 C   0  0  0  0  0  3  0  0  0  0  0  0
    1.6396   -0.0549    0.7305 C   0  0  0  0  0  0  0  0  0  0  0  0
    1.1356    1.1840    0.6716 C   0  0  0  0  0  0  0  0  0  0  0  0
   -0.1911    1.5961    0.2798 C   0  0  0  0  0  0  0  0  0  0  0  0
   -1.2839    0.7390   -0.3366 C   0  0  0  0  0  0  0  0  0  0  0  0
   -1.0522    0.6413   -1.8836 C   0  0  0  0  0  0  0  0  0  0  0  0
   -1.6537   -0.6167   -2.5227 C   0  0  0  0  0  0  0  0  0  0  0  0
   -1.4773   -0.7129   -4.0331 C   0  0  0  0  0  0  0  0  0  0  0  0
   -2.0162   -2.0554   -4.5146 C   0  0  0  0  0  0  0  0  0  0  0  0
   -2.6252    1.4790   -0.0845 C   0  0  0  0  0  0  0  0  0  0  0  0
   -1.4347   -0.6330    0.3160 C   0  0  0  0  0  0  0  0  0  0  0  0
   -0.7514   -2.4856    1.0288 H   0  0  0  0  0  0  0  0  0  0  0  0
    1.5365   -2.1540    0.2684 H   0  0  0  0  0  0  0  0  0  0  0  0
    2.6799   -0.1846    1.0228 H   0  0  0  0  0  0  0  0  0  0  0  0
    1.7998    2.0045    0.9390 H   0  0  0  0  0  0  0  0  0  0  0  0
   -0.3341    2.6744    0.2628 H   0  0  0  0  0  0  0  0  0  0  0  0
    0.0223    0.6565   -2.1089 H   0  0  0  0  0  0  0  0  0  0  0  0
   -1.4679    1.5334   -2.3772 H   0  0  0  0  0  0  0  0  0  0  0  0
   -2.7229   -0.6800   -2.2819 H   0  0  0  0  0  0  0  0  0  0  0  0
   -1.1686   -1.5017   -2.0919 H   0  0  0  0  0  0  0  0  0  0  0  0
   -0.4172   -0.6308   -4.3010 H   0  0  0  0  0  0  0  0  0  0  0  0
   -2.0108    0.1029   -4.5328 H   0  0  0  0  0  0  0  0  0  0  0  0
   -1.4599   -2.8834   -4.0585 H   0  0  0  0  0  0  0  0  0  0  0  0
   -1.9306   -2.1454   -5.5993 H   0  0  0  0  0  0  0  0  0  0  0  0
   -3.0710   -2.1706   -4.2411 H   0  0  0  0  0  0  0  0  0  0  0  0
   -2.5727    2.5332   -0.3822 H   0  0  0  0  0  0  0  0  0  0  0  0
   -2.9070    1.4546    0.9766 H   0  0  0  0  0  0  0  0  0  0  0  0
   -3.4463    1.0259   -0.6524 H   0  0  0  0  0  0  0  0  0  0  0  0
   -2.4598   -0.9807    0.4498 H   0  0  0  0  0  0  0  0  0  0  0  0
  1  2  1  0  0  0  0
  1 12  2  0  0  0  0
  1 13  1  0  0  0  0
  2  3  1  0  0  0  0
  2 14  1  0  0  0  0
  3  4  2  0  0  0  0
  3 15  1  0  0  0  0
  4  5  1  0  0  0  0
  4 16  1  0  0  0  0
  5  6  2  0  0  0  0
  5 17  1  0  0  0  0
  6  7  1  0  0  0  0
  6 11  1  0  0  0  0
  6 12  1  0  0  0  0
  7  8  1  0  0  0  0
  7 18  1  0  0  0  0
  7 19  1  0  0  0  0
  8  9  1  0  0  0  0
  8 20  1  0  0  0  0
  8 21  1  0  0  0  0
  9 10  1  0  0  0  0
  9 22  1  0  0  0  0
  9 23  1  0  0  0  0
 10 24  1  0  0  0  0
 10 25  1  0  0  0  0
 10 26  1  0  0  0  0
 11 27  1  0  0  0  0
 11 28  1  0  0  0  0
 11 29  1  0  0  0  0
 12 30  1  0  0  0  0
M  END
$$$$
