
 OpenBabel04232216513D

 36 36  0  0  0  0  0  0  0  0999 V2000
    0.5768   -0.3631   -0.0051 C   0  0  0  0  0  0  0  0  0  0  0  0
    2.0985   -0.3630   -0.0939 C   0  0  0  0  0  0  0  0  0  0  0  0
    2.8327   -0.6231    1.2335 C   0  0  0  0  0  0  0  0  0  0  0  0
    4.3678   -0.8959    1.0994 C   0  0  0  0  0  0  0  0  0  0  0  0
    5.1090   -0.5284   -0.1956 C   0  0  0  0  0  0  0  0  0  0  0  0
    5.8777    0.7975   -0.2177 C   0  0  0  0  0  0  0  0  0  0  0  0
    5.0287    2.0515   -0.0419 C   0  0  0  0  0  0  0  0  0  0  0  0
    4.9387    2.4928    1.4180 C   0  0  0  0  0  0  0  0  0  0  0  0
    3.7648    3.4353    1.6744 C   0  0  0  0  0  0  0  0  0  0  0  0
    2.7717    2.8825    2.6990 C   0  0  0  0  0  0  0  0  0  0  0  0
    1.9351    1.7166    2.1619 C   0  0  0  0  0  0  0  0  0  0  0  0
    2.4923    0.3106    2.4334 C   0  0  0  0  0  0  0  0  0  0  0  0
    0.1575   -0.0711   -0.9772 H   0  0  0  0  0  0  0  0  0  0  0  0
    0.1895    0.3410    0.7338 H   0  0  0  0  0  0  0  0  0  0  0  0
    0.1994   -1.3560    0.2422 H   0  0  0  0  0  0  0  0  0  0  0  0
    2.4245    0.5812   -0.5343 H   0  0  0  0  0  0  0  0  0  0  0  0
    2.3693   -1.1505   -0.8078 H   0  0  0  0  0  0  0  0  0  0  0  0
    2.4428   -1.5994    1.5673 H   0  0  0  0  0  0  0  0  0  0  0  0
    4.4677   -1.9885    1.1831 H   0  0  0  0  0  0  0  0  0  0  0  0
    4.9245   -0.5280    1.9688 H   0  0  0  0  0  0  0  0  0  0  0  0
    4.4593   -0.5902   -1.0726 H   0  0  0  0  0  0  0  0  0  0  0  0
    5.8665   -1.3090   -0.3543 H   0  0  0  0  0  0  0  0  0  0  0  0
    6.3679    0.8606   -1.1988 H   0  0  0  0  0  0  0  0  0  0  0  0
    6.6874    0.7753    0.5210 H   0  0  0  0  0  0  0  0  0  0  0  0
    4.0422    1.9114   -0.4914 H   0  0  0  0  0  0  0  0  0  0  0  0
    5.4954    2.8712   -0.6050 H   0  0  0  0  0  0  0  0  0  0  0  0
    5.8705    3.0143    1.6733 H   0  0  0  0  0  0  0  0  0  0  0  0
    4.8995    1.6362    2.0894 H   0  0  0  0  0  0  0  0  0  0  0  0
    3.2358    3.6848    0.7458 H   0  0  0  0  0  0  0  0  0  0  0  0
    4.1577    4.3823    2.0621 H   0  0  0  0  0  0  0  0  0  0  0  0
    2.0817    3.6986    2.9468 H   0  0  0  0  0  0  0  0  0  0  0  0
    3.2772    2.6153    3.6322 H   0  0  0  0  0  0  0  0  0  0  0  0
    1.7164    1.8960    1.1086 H   0  0  0  0  0  0  0  0  0  0  0  0
    0.9665    1.7707    2.6793 H   0  0  0  0  0  0  0  0  0  0  0  0
    1.7055   -0.2151    2.9981 H   0  0  0  0  0  0  0  0  0  0  0  0
    3.3250    0.3518    3.1409 H   0  0  0  0  0  0  0  0  0  0  0  0
  1  2  1  0  0  0  0
  1 13  1  0  0  0  0
  1 14  1  0  0  0  0
  1 15  1  0  0  0  0
  2  3  1  0  0  0  0
  2 16  1  0  0  0  0
  2 17  1  0  0  0  0
  3  4  1  0  0  0  0
  3 12  1  0  0  0  0
  3 18  1  0  0  0  0
  4  5  1  0  0  0  0
  4 19  1  0  0  0  0
  4 20  1  0  0  0  0
  5  6  1  0  0  0  0
  5 21  1  0  0  0  0
  5 22  1  0  0  0  0
  6  7  1  0  0  0  0
  6 23  1  0  0  0  0
  6 24  1  0  0  0  0
  7  8  1  0  0  0  0
  7 25  1  0  0  0  0
  7 26  1  0  0  0  0
  8  9  1  0  0  0  0
  8 27  1  0  0  0  0
  8 28  1  0  0  0  0
  9 10  1  0  0  0  0
  9 29  1  0  0  0  0
  9 30  1  0  0  0  0
 10 11  1  0  0  0  0
 10 31  1  0  0  0  0
 10 32  1  0  0  0  0
 11 12  1  0  0  0  0
 11 33  1  0  0  0  0
 11 34  1  0  0  0  0
 12 35  1  0  0  0  0
 12 36  1  0  0  0  0
M  END
$$$$
