
 OpenBabel04232216483D

 62 63  0  0  1  0  0  0  0  0999 V2000
    0.9870   -0.0757    0.0844 C   0  0  0  0  0  0  0  0  0  0  0  0
    2.5052   -0.0296    0.0355 C   0  0  3  0  0  0  0  0  0  0  0  0
    3.0832    1.1259    0.8513 C   0  0  0  0  0  0  0  0  0  0  0  0
    4.4902    0.6464    1.1277 C   0  0  0  0  0  0  0  0  0  0  0  0
    4.3028   -0.8596    1.3487 C   0  0  3  0  0  0  0  0  0  0  0  0
    5.5277   -1.6380    0.8509 C   0  0  0  0  0  0  0  0  0  0  0  0
    5.3845   -3.1455    1.0630 C   0  0  0  0  0  0  0  0  0  0  0  0
    6.6087   -3.8936    0.5468 C   0  0  0  0  0  0  0  0  0  0  0  0
    6.4383   -5.3951    0.7572 C   0  0  0  0  0  0  0  0  0  0  0  0
    7.6492   -6.1638    0.2422 C   0  0  0  0  0  0  0  0  0  0  0  0
    7.4705   -7.6644    0.4548 C   0  0  0  0  0  0  0  0  0  0  0  0
    8.6728   -8.4242   -0.0668 C   0  0  0  0  0  0  0  0  0  0  0  0
    8.5076   -9.9119    0.1572 C   0  0  0  0  0  0  0  0  0  0  0  0
    7.9687  -10.6309   -0.6941 O   0  0  0  0  0  0  0  0  0  0  0  0
    8.9996  -10.4996    1.4325 C   0  0  0  0  0  0  0  0  0  0  0  0
    9.5787   -9.7776    2.5341 C   0  0  0  0  0  0  0  0  0  0  0  0
    9.9532  -10.6348    3.4946 C   0  0  0  0  0  0  0  0  0  0  0  0
   10.5984  -10.3407    4.6698 N   0  0  0  0  0  0  0  0  0  0  0  0
   10.0137   -9.4974    5.7071 C   0  0  0  0  0  0  0  0  0  0  0  0
    9.1269  -10.3065    6.6603 C   0  0  0  0  0  0  0  0  0  0  0  0
    8.5450   -9.4038    7.7542 C   0  0  0  0  0  0  0  0  0  0  0  0
    7.6583  -10.1684    8.7243 C   0  0  0  0  0  0  0  0  0  0  0  0
    9.5965  -12.0437    3.0594 C   0  0  0  0  0  0  0  0  0  0  0  0
    8.9809  -11.8127    1.7117 C   0  0  0  0  0  0  0  0  0  0  0  0
    3.0946   -1.2472    0.5974 N   0  0  0  0  0  2  0  0  0  0  0  0
    0.5610    0.8246   -0.3713 H   0  0  0  0  0  0  0  0  0  0  0  0
    0.6156   -0.1440    1.1136 H   0  0  0  0  0  0  0  0  0  0  0  0
    0.6038   -0.9450   -0.4615 H   0  0  0  0  0  0  0  0  0  0  0  0
    2.8167    0.0797   -1.0120 H   0  0  0  0  0  0  0  0  0  0  0  0
    2.5396    1.2644    1.7915 H   0  0  0  0  0  0  0  0  0  0  0  0
    3.0635    2.0722    0.3002 H   0  0  0  0  0  0  0  0  0  0  0  0
    4.9345    1.1381    1.9992 H   0  0  0  0  0  0  0  0  0  0  0  0
    5.1354    0.8508    0.2639 H   0  0  0  0  0  0  0  0  0  0  0  0
    4.1641   -1.0491    2.4217 H   0  0  0  0  0  0  0  0  0  0  0  0
    6.4216   -1.2822    1.3790 H   0  0  0  0  0  0  0  0  0  0  0  0
    5.6907   -1.4411   -0.2170 H   0  0  0  0  0  0  0  0  0  0  0  0
    4.4961   -3.5201    0.5379 H   0  0  0  0  0  0  0  0  0  0  0  0
    5.2404   -3.3555    2.1290 H   0  0  0  0  0  0  0  0  0  0  0  0
    7.5064   -3.5423    1.0691 H   0  0  0  0  0  0  0  0  0  0  0  0
    6.7495   -3.6836   -0.5204 H   0  0  0  0  0  0  0  0  0  0  0  0
    5.5361   -5.7404    0.2371 H   0  0  0  0  0  0  0  0  0  0  0  0
    6.2949   -5.6031    1.8246 H   0  0  0  0  0  0  0  0  0  0  0  0
    8.5514   -5.8206    0.7664 H   0  0  0  0  0  0  0  0  0  0  0  0
    7.7955   -5.9533   -0.8239 H   0  0  0  0  0  0  0  0  0  0  0  0
    6.5640   -8.0073   -0.0605 H   0  0  0  0  0  0  0  0  0  0  0  0
    7.3186   -7.8710    1.5205 H   0  0  0  0  0  0  0  0  0  0  0  0
    9.6043   -8.0774    0.4057 H   0  0  0  0  0  0  0  0  0  0  0  0
    8.8106   -8.2603   -1.1405 H   0  0  0  0  0  0  0  0  0  0  0  0
    9.7452   -8.7149    2.5707 H   0  0  0  0  0  0  0  0  0  0  0  0
   11.2293  -11.0611    5.0089 H   0  0  0  0  0  0  0  0  0  0  0  0
    9.4302   -8.6854    5.2570 H   0  0  0  0  0  0  0  0  0  0  0  0
   10.8310   -9.0336    6.2698 H   0  0  0  0  0  0  0  0  0  0  0  0
    9.7117  -11.1140    7.1222 H   0  0  0  0  0  0  0  0  0  0  0  0
    8.3117  -10.7859    6.1076 H   0  0  0  0  0  0  0  0  0  0  0  0
    7.9577   -8.6000    7.2946 H   0  0  0  0  0  0  0  0  0  0  0  0
    9.3585   -8.9289    8.3148 H   0  0  0  0  0  0  0  0  0  0  0  0
    6.8092  -10.6255    8.2066 H   0  0  0  0  0  0  0  0  0  0  0  0
    7.2626   -9.4904    9.4881 H   0  0  0  0  0  0  0  0  0  0  0  0
    8.2197  -10.9585    9.2329 H   0  0  0  0  0  0  0  0  0  0  0  0
    8.8630  -12.4903    3.7410 H   0  0  0  0  0  0  0  0  0  0  0  0
   10.4777  -12.6882    2.9883 H   0  0  0  0  0  0  0  0  0  0  0  0
    8.5942  -12.5825    1.0586 H   0  0  0  0  0  0  0  0  0  0  0  0
  1  2  1  0  0  0  0
  1 26  1  0  0  0  0
  1 27  1  0  0  0  0
  1 28  1  0  0  0  0
  2  3  1  0  0  0  0
  2 25  1  0  0  0  0
  2 29  1  0  0  0  0
  3  4  1  0  0  0  0
  3 30  1  0  0  0  0
  3 31  1  0  0  0  0
  4  5  1  0  0  0  0
  4 32  1  0  0  0  0
  4 33  1  0  0  0  0
  5  6  1  0  0  0  0
  5 25  1  0  0  0  0
  5 34  1  0  0  0  0
  6  7  1  0  0  0  0
  6 35  1  0  0  0  0
  6 36  1  0  0  0  0
  7  8  1  0  0  0  0
  7 37  1  0  0  0  0
  7 38  1  0  0  0  0
  8  9  1  0  0  0  0
  8 39  1  0  0  0  0
  8 40  1  0  0  0  0
  9 10  1  0  0  0  0
  9 41  1  0  0  0  0
  9 42  1  0  0  0  0
 10 11  1  0  0  0  0
 10 43  1  0  0  0  0
 10 44  1  0  0  0  0
 11 12  1  0  0  0  0
 11 45  1  0  0  0  0
 11 46  1  0  0  0  0
 12 13  1  0  0  0  0
 12 47  1  0  0  0  0
 12 48  1  0  0  0  0
 13 14  2  0  0  0  0
 13 15  1  0  0  0  0
 15 16  1  0  0  0  0
 15 24  2  0  0  0  0
 16 17  2  0  0  0  0
 16 49  1  0  0  0  0
 17 18  1  0  0  0  0
 17 23  1  0  0  0  0
 18 19  1  0  0  0  0
 18 50  1  0  0  0  0
 19 20  1  0  0  0  0
 19 51  1  0  0  0  0
 19 52  1  0  0  0  0
 20 21  1  0  0  0  0
 20 53  1  0  0  0  0
 20 54  1  0  0  0  0
 21 22  1  0  0  0  0
 21 55  1  0  0  0  0
 21 56  1  0  0  0  0
 22 57  1  0  0  0  0
 22 58  1  0  0  0  0
 22 59  1  0  0  0  0
 23 24  1  0  0  0  0
 23 60  1  0  0  0  0
 23 61  1  0  0  0  0
 24 62  1  0  0  0  0
M  END
$$$$
