
 OpenBabel04232216553D

228227  0  0  0  0  0  0  0  0999 V2000
    8.3605   -2.5708   -0.7406 C   0  0  0  0  0  0  0  0  0  0  0  0
    9.8238   -2.5663   -0.8041 N   0  0  0  0  0  0  0  0  0  0  0  0
   10.2624   -1.8923   -2.0286 C   0  0  0  0  0  0  0  0  0  0  0  0
   10.3659   -1.9292    0.4047 C   0  0  0  0  0  0  0  0  0  0  0  0
   11.8898   -1.9270    0.4213 C   0  0  0  0  0  0  0  0  0  0  0  0
   12.4195   -1.2639    1.6832 C   0  0  0  0  0  0  0  0  0  0  0  0
   13.9406   -1.2668    1.6457 C   0  0  0  0  0  0  0  0  0  0  0  0
   14.4868   -0.5898    2.8873 C   0  0  0  0  0  0  0  0  0  0  0  0
   16.0032   -0.5964    2.8513 C   0  0  0  0  0  0  0  0  0  0  0  0
   16.5432    0.0782    4.0974 C   0  0  0  0  0  0  0  0  0  0  0  0
   18.0590    0.0711    4.0700 C   0  0  0  0  0  0  0  0  0  0  0  0
   18.5969    0.7466    5.3166 C   0  0  0  0  0  0  0  0  0  0  0  0
   20.1133    0.7414    5.2904 C   0  0  0  0  0  0  0  0  0  0  0  0
   20.6517    1.4149    6.5370 C   0  0  0  0  0  0  0  0  0  0  0  0
   22.1683    1.4081    6.5114 C   0  0  0  0  0  0  0  0  0  0  0  0
   22.7073    2.0821    7.7586 C   0  0  0  0  0  0  0  0  0  0  0  0
   24.2241    2.0770    7.7326 C   0  0  0  0  0  0  0  0  0  0  0  0
   24.7635    2.7527    8.9793 C   0  0  0  0  0  0  0  0  0  0  0  0
   26.2807    2.7469    8.9554 C   0  0  0  0  0  0  0  0  0  0  0  0
   26.8207    3.4247   10.2017 C   0  0  0  0  0  0  0  0  0  0  0  0
   28.3384    3.4204   10.1769 C   0  0  0  0  0  0  0  0  0  0  0  0
   28.8839    4.0998   11.4207 C   0  0  0  0  0  0  0  0  0  0  0  0
   30.4028    4.0930   11.3920 C   0  0  0  0  0  0  0  0  0  0  0  0
   30.9534    4.7747   12.6325 C   0  0  0  0  0  0  0  0  0  0  0  0
   32.4770    4.7738   12.6103 C   0  0  0  0  0  0  0  0  0  0  0  0
   33.0104    5.4497   13.8668 C   0  0  0  0  0  0  0  0  0  0  0  0
   34.5316    5.4361   13.8936 C   0  0  0  0  0  0  0  0  0  0  0  0
   35.2062    6.3251   15.3321 S   0  0  0  0  0  0  0  0  0  0  0  0
   34.4499    5.4029   16.7026 C   0  0  0  0  0  0  0  0  0  0  0  0
   34.9641    6.0546   18.3183 S   0  0  0  0  0  0  0  0  0  0  0  0
   34.2765    7.7693   18.2953 C   0  0  0  0  0  0  0  0  0  0  0  0
   34.8215    8.5255   19.8737 S   0  0  0  0  0  0  0  0  0  0  0  0
   34.2256   10.2361   19.7412 C   0  0  0  0  0  0  0  0  0  0  0  0
   34.6285   11.1853   21.2556 S   0  0  0  0  0  0  0  0  0  0  0  0
   36.4713   11.1714   21.2730 C   0  0  0  0  0  0  0  0  0  0  0  0
   36.9895   12.0009   22.8239 S   0  0  0  0  0  0  0  0  0  0  0  0
   38.8090   11.9124   22.7153 C   0  0  0  0  0  0  0  0  0  0  0  0
   39.3748   12.5705   23.9806 C   0  0  0  0  0  0  0  0  0  0  0  0
   40.9010   12.5801   23.9972 C   0  0  0  0  0  0  0  0  0  0  0  0
   41.4222   13.2486   25.2700 C   0  0  0  0  0  0  0  0  0  0  0  0
   42.9453   13.2580   25.2865 C   0  0  0  0  0  0  0  0  0  0  0  0
   43.4607   13.9243   26.5527 C   0  0  0  0  0  0  0  0  0  0  0  0
   44.9820   13.9290   26.5624 C   0  0  0  0  0  0  0  0  0  0  0  0
   45.4953   14.5958   27.8273 C   0  0  0  0  0  0  0  0  0  0  0  0
   47.0145   14.6016   27.8358 C   0  0  0  0  0  0  0  0  0  0  0  0
   47.5242   15.2675   29.0990 C   0  0  0  0  0  0  0  0  0  0  0  0
   49.0449   15.2725   29.1078 C   0  0  0  0  0  0  0  0  0  0  0  0
   49.5497   15.9435   30.3745 C   0  0  0  0  0  0  0  0  0  0  0  0
   51.0675   15.9438   30.3799 C   0  0  0  0  0  0  0  0  0  0  0  0
   51.5766   16.6115   31.6484 C   0  0  0  0  0  0  0  0  0  0  0  0
   53.0964   16.6158   31.6490 C   0  0  0  0  0  0  0  0  0  0  0  0
   53.6094   17.2798   32.9092 C   0  0  0  0  0  0  0  0  0  0  0  0
   55.1263   17.2822   32.9122 C   0  0  0  0  0  0  0  0  0  0  0  0
   55.6370   17.9468   34.1771 C   0  0  0  0  0  0  0  0  0  0  0  0
   57.1534   17.9493   34.1810 C   0  0  0  0  0  0  0  0  0  0  0  0
   57.6639   18.6116   35.4469 C   0  0  0  0  0  0  0  0  0  0  0  0
   59.1805   18.6138   35.4512 C   0  0  0  0  0  0  0  0  0  0  0  0
   59.6906   19.2778   36.7158 C   0  0  0  0  0  0  0  0  0  0  0  0
   61.2073   19.2801   36.7200 C   0  0  0  0  0  0  0  0  0  0  0  0
   61.7173   19.9441   37.9845 C   0  0  0  0  0  0  0  0  0  0  0  0
   63.2330   19.9463   37.9882 C   0  0  0  0  0  0  0  0  0  0  0  0
   63.7442   20.6105   39.2532 C   0  0  0  0  0  0  0  0  0  0  0  0
   65.2610   20.6127   39.2575 C   0  0  0  0  0  0  0  0  0  0  0  0
   65.7708   21.2766   40.5224 C   0  0  0  0  0  0  0  0  0  0  0  0
   67.2875   21.2789   40.5267 C   0  0  0  0  0  0  0  0  0  0  0  0
   67.7973   21.9438   41.7910 C   0  0  0  0  0  0  0  0  0  0  0  0
   69.3136   21.9464   41.7971 C   0  0  0  0  0  0  0  0  0  0  0  0
   69.8230   22.6114   43.0596 C   0  0  0  0  0  0  0  0  0  0  0  0
   71.3406   22.6136   43.0645 C   0  0  0  0  0  0  0  0  0  0  0  0
   71.8541   23.2783   44.3268 C   0  0  0  0  0  0  0  0  0  0  0  0
   73.3690   23.2805   44.3304 C   0  0  0  0  0  0  0  0  0  0  0  0
   73.8850   23.9474   45.5958 C   0  0  0  0  0  0  0  0  0  0  0  0
   75.4001   23.9510   45.6012 C   0  0  0  0  0  0  0  0  0  0  0  0
   75.9112   24.6162   46.8674 C   0  0  0  0  0  0  0  0  0  0  0  0
   77.4287   24.6187   46.8729 C   0  0  0  0  0  0  0  0  0  0  0  0
   77.9435   25.2851   48.1415 C   0  0  0  0  0  0  0  0  0  0  0  0
   79.4730   25.2858   48.1469 C   0  0  0  0  0  0  0  0  0  0  0  0
   79.9939   25.9559   49.4190 C   0  0  0  0  0  0  0  0  0  0  0  0
   81.5150   25.9588   49.4286 C   0  0  0  0  0  0  0  0  0  0  0  0
    7.9405   -3.0855   -1.6084 H   0  0  0  0  0  0  0  0  0  0  0  0
    7.9504   -1.5534   -0.7064 H   0  0  0  0  0  0  0  0  0  0  0  0
    8.0140   -3.1106    0.1481 H   0  0  0  0  0  0  0  0  0  0  0  0
    9.8249   -2.3710   -2.9094 H   0  0  0  0  0  0  0  0  0  0  0  0
   11.3454   -1.9746   -2.1667 H   0  0  0  0  0  0  0  0  0  0  0  0
    9.9914   -0.8310   -2.0323 H   0  0  0  0  0  0  0  0  0  0  0  0
   10.0196   -2.4862    1.2877 H   0  0  0  0  0  0  0  0  0  0  0  0
    9.9925   -0.9025    0.5087 H   0  0  0  0  0  0  0  0  0  0  0  0
   12.2905   -1.3653   -0.4292 H   0  0  0  0  0  0  0  0  0  0  0  0
   12.2703   -2.9524    0.3470 H   0  0  0  0  0  0  0  0  0  0  0  0
   12.0631   -1.7962    2.5729 H   0  0  0  0  0  0  0  0  0  0  0  0
   12.0533   -0.2345    1.7447 H   0  0  0  0  0  0  0  0  0  0  0  0
   14.2950   -0.7420    0.7496 H   0  0  0  0  0  0  0  0  0  0  0  0
   14.3130   -2.2968    1.5841 H   0  0  0  0  0  0  0  0  0  0  0  0
   14.1309   -1.1117    3.7823 H   0  0  0  0  0  0  0  0  0  0  0  0
   14.1190    0.4417    2.9411 H   0  0  0  0  0  0  0  0  0  0  0  0
   16.3608   -0.0722    1.9561 H   0  0  0  0  0  0  0  0  0  0  0  0
   16.3729   -1.6275    2.7927 H   0  0  0  0  0  0  0  0  0  0  0  0
   16.1824   -0.4448    4.9913 H   0  0  0  0  0  0  0  0  0  0  0  0
   16.1744    1.1097    4.1533 H   0  0  0  0  0  0  0  0  0  0  0  0
   18.4199    0.5934    3.1755 H   0  0  0  0  0  0  0  0  0  0  0  0
   18.4274   -0.9607    4.0147 H   0  0  0  0  0  0  0  0  0  0  0  0
   18.2362    0.2235    6.2109 H   0  0  0  0  0  0  0  0  0  0  0  0
   18.2272    1.7779    5.3726 H   0  0  0  0  0  0  0  0  0  0  0  0
   20.4732    1.2651    4.3960 H   0  0  0  0  0  0  0  0  0  0  0  0
   20.4823   -0.2903    5.2325 H   0  0  0  0  0  0  0  0  0  0  0  0
   20.2903    0.8916    7.4309 H   0  0  0  0  0  0  0  0  0  0  0  0
   20.2829    2.4466    6.5937 H   0  0  0  0  0  0  0  0  0  0  0  0
   22.5292    1.9313    5.6172 H   0  0  0  0  0  0  0  0  0  0  0  0
   22.5365    0.3763    6.4545 H   0  0  0  0  0  0  0  0  0  0  0  0
   22.3465    1.5579    8.6522 H   0  0  0  0  0  0  0  0  0  0  0  0
   22.3373    3.1133    7.8157 H   0  0  0  0  0  0  0  0  0  0  0  0
   24.5842    2.6000    6.8381 H   0  0  0  0  0  0  0  0  0  0  0  0
   24.5933    1.0456    7.6763 H   0  0  0  0  0  0  0  0  0  0  0  0
   24.4017    2.2304    9.8735 H   0  0  0  0  0  0  0  0  0  0  0  0
   24.3943    3.7843    9.0343 H   0  0  0  0  0  0  0  0  0  0  0  0
   26.6419    3.2677    8.0600 H   0  0  0  0  0  0  0  0  0  0  0  0
   26.6492    1.7150    8.9012 H   0  0  0  0  0  0  0  0  0  0  0  0
   26.4594    2.9029   11.0963 H   0  0  0  0  0  0  0  0  0  0  0  0
   26.4503    4.4559   10.2555 H   0  0  0  0  0  0  0  0  0  0  0  0
   28.6976    3.9403    9.2802 H   0  0  0  0  0  0  0  0  0  0  0  0
   28.7070    2.3885   10.1232 H   0  0  0  0  0  0  0  0  0  0  0  0
   28.5234    3.5805   12.3174 H   0  0  0  0  0  0  0  0  0  0  0  0
   28.5147    5.1315   11.4736 H   0  0  0  0  0  0  0  0  0  0  0  0
   30.7602    4.6097   10.4928 H   0  0  0  0  0  0  0  0  0  0  0  0
   30.7686    3.0600   11.3403 H   0  0  0  0  0  0  0  0  0  0  0  0
   30.5919    4.2550   13.5292 H   0  0  0  0  0  0  0  0  0  0  0  0
   30.5809    5.8053   12.6859 H   0  0  0  0  0  0  0  0  0  0  0  0
   32.8367    5.2953   11.7161 H   0  0  0  0  0  0  0  0  0  0  0  0
   32.8429    3.7412   12.5573 H   0  0  0  0  0  0  0  0  0  0  0  0
   32.6042    4.9164   14.7317 H   0  0  0  0  0  0  0  0  0  0  0  0
   32.6390    6.4812   13.9085 H   0  0  0  0  0  0  0  0  0  0  0  0
   34.9157    5.9454   13.0020 H   0  0  0  0  0  0  0  0  0  0  0  0
   34.9223    4.4130   13.8748 H   0  0  0  0  0  0  0  0  0  0  0  0
   34.7935    4.3628   16.6524 H   0  0  0  0  0  0  0  0  0  0  0  0
   33.3585    5.4011   16.6646 H   0  0  0  0  0  0  0  0  0  0  0  0
   33.1841    7.7351   18.2419 H   0  0  0  0  0  0  0  0  0  0  0  0
   34.6801    8.3367   17.4524 H   0  0  0  0  0  0  0  0  0  0  0  0
   33.1323   10.2215   19.6702 H   0  0  0  0  0  0  0  0  0  0  0  0
   34.6179   10.7592   18.8646 H   0  0  0  0  0  0  0  0  0  0  0  0
   36.8512   11.7210   20.4080 H   0  0  0  0  0  0  0  0  0  0  0  0
   36.8535   10.1475   21.2724 H   0  0  0  0  0  0  0  0  0  0  0  0
   39.1546   12.4486   21.8258 H   0  0  0  0  0  0  0  0  0  0  0  0
   39.1392   10.8701   22.6537 H   0  0  0  0  0  0  0  0  0  0  0  0
   39.0186   12.0392   24.8729 H   0  0  0  0  0  0  0  0  0  0  0  0
   39.0188   13.6064   24.0566 H   0  0  0  0  0  0  0  0  0  0  0  0
   41.2819   13.1195   23.1222 H   0  0  0  0  0  0  0  0  0  0  0  0
   41.2836   11.5542   23.9430 H   0  0  0  0  0  0  0  0  0  0  0  0
   41.0494   12.7166   26.1539 H   0  0  0  0  0  0  0  0  0  0  0  0
   41.0489   14.2786   25.3335 H   0  0  0  0  0  0  0  0  0  0  0  0
   43.3242   13.7934   24.4076 H   0  0  0  0  0  0  0  0  0  0  0  0
   43.3244   12.2305   25.2296 H   0  0  0  0  0  0  0  0  0  0  0  0
   43.0867   13.3915   27.4358 H   0  0  0  0  0  0  0  0  0  0  0  0
   43.0872   14.9539   26.6133 H   0  0  0  0  0  0  0  0  0  0  0  0
   45.3591   14.4623   25.6812 H   0  0  0  0  0  0  0  0  0  0  0  0
   45.3589   12.9005   26.5046 H   0  0  0  0  0  0  0  0  0  0  0  0
   45.1209   14.0624   28.7093 H   0  0  0  0  0  0  0  0  0  0  0  0
   45.1200   15.6246   27.8858 H   0  0  0  0  0  0  0  0  0  0  0  0
   47.3914   15.1369   26.9557 H   0  0  0  0  0  0  0  0  0  0  0  0
   47.3933   13.5739   27.7775 H   0  0  0  0  0  0  0  0  0  0  0  0
   47.1492   14.7339   29.9831 H   0  0  0  0  0  0  0  0  0  0  0  0
   47.1465   16.2968   29.1587 H   0  0  0  0  0  0  0  0  0  0  0  0
   49.4206   15.8075   28.2234 H   0  0  0  0  0  0  0  0  0  0  0  0
   49.4190   14.2467   29.0518 H   0  0  0  0  0  0  0  0  0  0  0  0
   49.1676   15.4046   31.2564 H   0  0  0  0  0  0  0  0  0  0  0  0
   49.1720   16.9626   30.4291 H   0  0  0  0  0  0  0  0  0  0  0  0
   51.4427   16.4854   29.5023 H   0  0  0  0  0  0  0  0  0  0  0  0
   51.4434   14.9231   30.3242 H   0  0  0  0  0  0  0  0  0  0  0  0
   51.2122   16.0677   32.5344 H   0  0  0  0  0  0  0  0  0  0  0  0
   51.2004   17.6389   31.7233 H   0  0  0  0  0  0  0  0  0  0  0  0
   53.4692   17.1473   30.7651 H   0  0  0  0  0  0  0  0  0  0  0  0
   53.4721   15.5850   31.5879 H   0  0  0  0  0  0  0  0  0  0  0  0
   53.2354   16.7455   33.7919 H   0  0  0  0  0  0  0  0  0  0  0  0
   53.2334   18.3081   32.9690 H   0  0  0  0  0  0  0  0  0  0  0  0
   55.5012   17.8182   32.0314 H   0  0  0  0  0  0  0  0  0  0  0  0
   55.5030   16.2544   32.8518 H   0  0  0  0  0  0  0  0  0  0  0  0
   55.2615   17.4120   35.0583 H   0  0  0  0  0  0  0  0  0  0  0  0
   55.2613   18.9758   34.2373 H   0  0  0  0  0  0  0  0  0  0  0  0
   57.5296   18.4850   33.3011 H   0  0  0  0  0  0  0  0  0  0  0  0
   57.5296   16.9204   34.1202 H   0  0  0  0  0  0  0  0  0  0  0  0
   57.2881   18.0758   36.3273 H   0  0  0  0  0  0  0  0  0  0  0  0
   57.2880   19.6404   35.5082 H   0  0  0  0  0  0  0  0  0  0  0  0
   59.5564   19.1486   34.5702 H   0  0  0  0  0  0  0  0  0  0  0  0
   59.5563   17.5849   35.3912 H   0  0  0  0  0  0  0  0  0  0  0  0
   59.3148   18.7431   37.5969 H   0  0  0  0  0  0  0  0  0  0  0  0
   59.3148   20.3067   36.7758 H   0  0  0  0  0  0  0  0  0  0  0  0
   61.5830   19.8148   35.8390 H   0  0  0  0  0  0  0  0  0  0  0  0
   61.5831   18.2512   36.6601 H   0  0  0  0  0  0  0  0  0  0  0  0
   61.3415   19.4095   38.8657 H   0  0  0  0  0  0  0  0  0  0  0  0
   61.3415   20.9730   38.0445 H   0  0  0  0  0  0  0  0  0  0  0  0
   63.6098   20.4811   37.1077 H   0  0  0  0  0  0  0  0  0  0  0  0
   63.6097   18.9175   37.9286 H   0  0  0  0  0  0  0  0  0  0  0  0
   63.3681   20.0759   40.1346 H   0  0  0  0  0  0  0  0  0  0  0  0
   63.3686   21.6390   39.3135 H   0  0  0  0  0  0  0  0  0  0  0  0
   65.6369   21.1471   38.3768 H   0  0  0  0  0  0  0  0  0  0  0  0
   65.6367   19.5835   39.1975 H   0  0  0  0  0  0  0  0  0  0  0  0
   65.3949   20.7419   41.4035 H   0  0  0  0  0  0  0  0  0  0  0  0
   65.3951   22.3055   40.5823 H   0  0  0  0  0  0  0  0  0  0  0  0
   67.6631   21.8134   39.6454 H   0  0  0  0  0  0  0  0  0  0  0  0
   67.6633   20.2500   40.4667 H   0  0  0  0  0  0  0  0  0  0  0  0
   67.4212   21.4099   42.6728 H   0  0  0  0  0  0  0  0  0  0  0  0
   67.4219   22.9725   41.8500 H   0  0  0  0  0  0  0  0  0  0  0  0
   69.6903   22.4796   40.9147 H   0  0  0  0  0  0  0  0  0  0  0  0
   69.6902   20.9170   41.7370 H   0  0  0  0  0  0  0  0  0  0  0  0
   69.4478   22.0778   43.9425 H   0  0  0  0  0  0  0  0  0  0  0  0
   69.4467   23.6412   43.1197 H   0  0  0  0  0  0  0  0  0  0  0  0
   71.7158   23.1473   42.1814 H   0  0  0  0  0  0  0  0  0  0  0  0
   71.7159   21.5843   43.0046 H   0  0  0  0  0  0  0  0  0  0  0  0
   71.4787   22.7459   45.2097 H   0  0  0  0  0  0  0  0  0  0  0  0
   71.4788   24.3081   44.3841 H   0  0  0  0  0  0  0  0  0  0  0  0
   73.7457   23.8147   43.4488 H   0  0  0  0  0  0  0  0  0  0  0  0
   73.7463   22.2518   44.2716 H   0  0  0  0  0  0  0  0  0  0  0  0
   73.5066   23.4140   46.4768 H   0  0  0  0  0  0  0  0  0  0  0  0
   73.5064   24.9762   45.6531 H   0  0  0  0  0  0  0  0  0  0  0  0
   75.7755   24.4854   44.7201 H   0  0  0  0  0  0  0  0  0  0  0  0
   75.7760   22.9223   45.5415 H   0  0  0  0  0  0  0  0  0  0  0  0
   75.5341   24.0812   47.7474 H   0  0  0  0  0  0  0  0  0  0  0  0
   75.5343   25.6443   46.9264 H   0  0  0  0  0  0  0  0  0  0  0  0
   77.8056   25.1548   45.9945 H   0  0  0  0  0  0  0  0  0  0  0  0
   77.8053   23.5913   46.8156 H   0  0  0  0  0  0  0  0  0  0  0  0
   77.5676   24.7504   49.0236 H   0  0  0  0  0  0  0  0  0  0  0  0
   77.5696   26.3152   48.2002 H   0  0  0  0  0  0  0  0  0  0  0  0
   79.8449   25.8183   47.2693 H   0  0  0  0  0  0  0  0  0  0  0  0
   79.8423   24.2594   48.0912 H   0  0  0  0  0  0  0  0  0  0  0  0
   79.6235   25.4248   50.3030 H   0  0  0  0  0  0  0  0  0  0  0  0
   79.6259   26.9863   49.4794 H   0  0  0  0  0  0  0  0  0  0  0  0
   81.9018   24.9353   49.3917 H   0  0  0  0  0  0  0  0  0  0  0  0
   81.8877   26.4367   50.3360 H   0  0  0  0  0  0  0  0  0  0  0  0
   81.9041   26.5054   48.5637 H   0  0  0  0  0  0  0  0  0  0  0  0
  1  2  1  0  0  0  0
  1 80  1  0  0  0  0
  1 81  1  0  0  0  0
  1 82  1  0  0  0  0
  2  3  1  0  0  0  0
  2  4  1  0  0  0  0
  3 83  1  0  0  0  0
  3 84  1  0  0  0  0
  3 85  1  0  0  0  0
  4  5  1  0  0  0  0
  4 86  1  0  0  0  0
  4 87  1  0  0  0  0
  5  6  1  0  0  0  0
  5 88  1  0  0  0  0
  5 89  1  0  0  0  0
  6  7  1  0  0  0  0
  6 90  1  0  0  0  0
  6 91  1  0  0  0  0
  7  8  1  0  0  0  0
  7 92  1  0  0  0  0
  7 93  1  0  0  0  0
  8  9  1  0  0  0  0
  8 94  1  0  0  0  0
  8 95  1  0  0  0  0
  9 10  1  0  0  0  0
  9 96  1  0  0  0  0
  9 97  1  0  0  0  0
 10 11  1  0  0  0  0
 10 98  1  0  0  0  0
 10 99  1  0  0  0  0
 11 12  1  0  0  0  0
 11100  1  0  0  0  0
 11101  1  0  0  0  0
 12 13  1  0  0  0  0
 12102  1  0  0  0  0
 12103  1  0  0  0  0
 13 14  1  0  0  0  0
 13104  1  0  0  0  0
 13105  1  0  0  0  0
 14 15  1  0  0  0  0
 14106  1  0  0  0  0
 14107  1  0  0  0  0
 15 16  1  0  0  0  0
 15108  1  0  0  0  0
 15109  1  0  0  0  0
 16 17  1  0  0  0  0
 16110  1  0  0  0  0
 16111  1  0  0  0  0
 17 18  1  0  0  0  0
 17112  1  0  0  0  0
 17113  1  0  0  0  0
 18 19  1  0  0  0  0
 18114  1  0  0  0  0
 18115  1  0  0  0  0
 19 20  1  0  0  0  0
 19116  1  0  0  0  0
 19117  1  0  0  0  0
 20 21  1  0  0  0  0
 20118  1  0  0  0  0
 20119  1  0  0  0  0
 21 22  1  0  0  0  0
 21120  1  0  0  0  0
 21121  1  0  0  0  0
 22 23  1  0  0  0  0
 22122  1  0  0  0  0
 22123  1  0  0  0  0
 23 24  1  0  0  0  0
 23124  1  0  0  0  0
 23125  1  0  0  0  0
 24 25  1  0  0  0  0
 24126  1  0  0  0  0
 24127  1  0  0  0  0
 25 26  1  0  0  0  0
 25128  1  0  0  0  0
 25129  1  0  0  0  0
 26 27  1  0  0  0  0
 26130  1  0  0  0  0
 26131  1  0  0  0  0
 27 28  1  0  0  0  0
 27132  1  0  0  0  0
 27133  1  0  0  0  0
 28 29  1  0  0  0  0
 29 30  1  0  0  0  0
 29134  1  0  0  0  0
 29135  1  0  0  0  0
 30 31  1  0  0  0  0
 31 32  1  0  0  0  0
 31136  1  0  0  0  0
 31137  1  0  0  0  0
 32 33  1  0  0  0  0
 33 34  1  0  0  0  0
 33138  1  0  0  0  0
 33139  1  0  0  0  0
 34 35  1  0  0  0  0
 35 36  1  0  0  0  0
 35140  1  0  0  0  0
 35141  1  0  0  0  0
 36 37  1  0  0  0  0
 37 38  1  0  0  0  0
 37142  1  0  0  0  0
 37143  1  0  0  0  0
 38 39  1  0  0  0  0
 38144  1  0  0  0  0
 38145  1  0  0  0  0
 39 40  1  0  0  0  0
 39146  1  0  0  0  0
 39147  1  0  0  0  0
 40 41  1  0  0  0  0
 40148  1  0  0  0  0
 40149  1  0  0  0  0
 41 42  1  0  0  0  0
 41150  1  0  0  0  0
 41151  1  0  0  0  0
 42 43  1  0  0  0  0
 42152  1  0  0  0  0
 42153  1  0  0  0  0
 43 44  1  0  0  0  0
 43154  1  0  0  0  0
 43155  1  0  0  0  0
 44 45  1  0  0  0  0
 44156  1  0  0  0  0
 44157  1  0  0  0  0
 45 46  1  0  0  0  0
 45158  1  0  0  0  0
 45159  1  0  0  0  0
 46 47  1  0  0  0  0
 46160  1  0  0  0  0
 46161  1  0  0  0  0
 47 48  1  0  0  0  0
 47162  1  0  0  0  0
 47163  1  0  0  0  0
 48 49  1  0  0  0  0
 48164  1  0  0  0  0
 48165  1  0  0  0  0
 49 50  1  0  0  0  0
 49166  1  0  0  0  0
 49167  1  0  0  0  0
 50 51  1  0  0  0  0
 50168  1  0  0  0  0
 50169  1  0  0  0  0
 51 52  1  0  0  0  0
 51170  1  0  0  0  0
 51171  1  0  0  0  0
 52 53  1  0  0  0  0
 52172  1  0  0  0  0
 52173  1  0  0  0  0
 53 54  1  0  0  0  0
 53174  1  0  0  0  0
 53175  1  0  0  0  0
 54 55  1  0  0  0  0
 54176  1  0  0  0  0
 54177  1  0  0  0  0
 55 56  1  0  0  0  0
 55178  1  0  0  0  0
 55179  1  0  0  0  0
 56 57  1  0  0  0  0
 56180  1  0  0  0  0
 56181  1  0  0  0  0
 57 58  1  0  0  0  0
 57182  1  0  0  0  0
 57183  1  0  0  0  0
 58 59  1  0  0  0  0
 58184  1  0  0  0  0
 58185  1  0  0  0  0
 59 60  1  0  0  0  0
 59186  1  0  0  0  0
 59187  1  0  0  0  0
 60 61  1  0  0  0  0
 60188  1  0  0  0  0
 60189  1  0  0  0  0
 61 62  1  0  0  0  0
 61190  1  0  0  0  0
 61191  1  0  0  0  0
 62 63  1  0  0  0  0
 62192  1  0  0  0  0
 62193  1  0  0  0  0
 63 64  1  0  0  0  0
 63194  1  0  0  0  0
 63195  1  0  0  0  0
 64 65  1  0  0  0  0
 64196  1  0  0  0  0
 64197  1  0  0  0  0
 65 66  1  0  0  0  0
 65198  1  0  0  0  0
 65199  1  0  0  0  0
 66 67  1  0  0  0  0
 66200  1  0  0  0  0
 66201  1  0  0  0  0
 67 68  1  0  0  0  0
 67202  1  0  0  0  0
 67203  1  0  0  0  0
 68 69  1  0  0  0  0
 68204  1  0  0  0  0
 68205  1  0  0  0  0
 69 70  1  0  0  0  0
 69206  1  0  0  0  0
 69207  1  0  0  0  0
 70 71  1  0  0  0  0
 70208  1  0  0  0  0
 70209  1  0  0  0  0
 71 72  1  0  0  0  0
 71210  1  0  0  0  0
 71211  1  0  0  0  0
 72 73  1  0  0  0  0
 72212  1  0  0  0  0
 72213  1  0  0  0  0
 73 74  1  0  0  0  0
 73214  1  0  0  0  0
 73215  1  0  0  0  0
 74 75  1  0  0  0  0
 74216  1  0  0  0  0
 74217  1  0  0  0  0
 75 76  1  0  0  0  0
 75218  1  0  0  0  0
 75219  1  0  0  0  0
 76 77  1  0  0  0  0
 76220  1  0  0  0  0
 76221  1  0  0  0  0
 77 78  1  0  0  0  0
 77222  1  0  0  0  0
 77223  1  0  0  0  0
 78 79  1  0  0  0  0
 78224  1  0  0  0  0
 78225  1  0  0  0  0
 79226  1  0  0  0  0
 79227  1  0  0  0  0
 79228  1  0  0  0  0
M  END
$$$$
