
 OpenBabel04232216493D

 71 72  0  0  0  0  0  0  0  0999 V2000
    3.0969   -3.9404   -2.7206 C   0  0  0  0  0  0  0  0  0  0  0  0
    4.3973   -3.6015   -2.0718 C   0  0  0  0  0  0  0  0  0  0  0  0
    5.3060   -2.7228   -2.7946 C   0  0  0  0  0  0  0  0  0  0  0  0
    6.2936   -2.3361   -1.9703 C   0  0  0  0  0  0  0  0  0  0  0  0
    5.8853   -2.7817   -0.6387 C   0  0  0  0  0  0  0  0  0  0  0  0
    6.0254   -1.8901    0.3768 C   0  0  0  0  0  0  0  0  0  0  0  0
    7.3505   -1.1279    0.4566 C   0  0  0  0  0  0  0  0  0  0  0  0
    7.2930    0.3972    0.3864 C   0  0  0  0  0  0  0  0  0  0  0  0
    8.7072    0.9945    0.5011 C   0  0  0  0  0  0  0  0  0  0  0  0
    9.6730    0.6195   -0.6362 C   0  0  0  0  0  0  0  0  0  0  0  0
    9.1653    0.9645   -2.0356 C   0  0  0  0  0  0  0  0  0  0  0  0
    8.9502    2.4647   -2.2069 C   0  0  0  0  0  0  0  0  0  0  0  0
    8.3129    2.7777   -3.5537 C   0  0  0  0  0  0  0  0  0  0  0  0
    8.1225    4.2812   -3.7036 C   0  0  0  0  0  0  0  0  0  0  0  0
    7.4846    4.6027   -5.0497 C   0  0  0  0  0  0  0  0  0  0  0  0
    7.3268    6.1074   -5.2274 C   0  0  0  0  0  0  0  0  0  0  0  0
    6.7120    6.4279   -6.5856 C   0  0  0  0  0  0  0  0  0  0  0  0
    6.5521    7.9258   -6.7708 C   0  0  0  0  0  0  0  0  0  0  0  0
    5.0176   -1.7213    1.4668 C   0  0  0  0  0  0  0  0  0  0  0  0
    3.5474   -2.0724    1.1384 C   0  0  0  0  0  0  0  0  0  0  0  0
    2.3963   -1.1181    1.4257 C   0  0  0  0  0  0  0  0  0  0  0  0
    5.4688   -1.4868    2.7272 C   0  0  0  0  0  0  0  0  0  0  0  0
    4.7787   -2.0206    3.9100 C   0  0  0  0  0  0  0  0  0  0  0  0
    5.2557   -3.2308    4.3072 C   0  0  0  0  0  0  0  0  0  0  0  0
    4.6919   -4.3543    3.5382 C   0  0  0  0  0  0  0  0  0  0  0  0
    5.3110   -4.7634    2.3985 C   0  0  0  0  0  0  0  0  0  0  0  0
    4.5833   -5.3692    1.3127 C   0  0  0  0  0  0  0  0  0  0  0  0
    4.4039   -4.9570    0.0432 C   0  0  0  0  0  0  0  0  0  0  0  0
    4.8749   -3.8604   -0.8168 C   0  0  0  0  0  0  0  0  0  0  0  0
    3.0300   -3.4827   -3.7164 H   0  0  0  0  0  0  0  0  0  0  0  0
    2.2832   -3.4975   -2.1391 H   0  0  0  0  0  0  0  0  0  0  0  0
    2.9351   -5.0159   -2.8291 H   0  0  0  0  0  0  0  0  0  0  0  0
    5.2262   -2.4822   -3.8439 H   0  0  0  0  0  0  0  0  0  0  0  0
    7.0787   -1.6523   -2.2500 H   0  0  0  0  0  0  0  0  0  0  0  0
    8.0228   -1.4836   -0.3310 H   0  0  0  0  0  0  0  0  0  0  0  0
    7.8821   -1.4300    1.3670 H   0  0  0  0  0  0  0  0  0  0  0  0
    6.6864    0.7896    1.2092 H   0  0  0  0  0  0  0  0  0  0  0  0
    6.8055    0.7255   -0.5391 H   0  0  0  0  0  0  0  0  0  0  0  0
    9.1547    0.6697    1.4486 H   0  0  0  0  0  0  0  0  0  0  0  0
    8.6280    2.0847    0.5731 H   0  0  0  0  0  0  0  0  0  0  0  0
    9.9000   -0.4520   -0.5984 H   0  0  0  0  0  0  0  0  0  0  0  0
   10.6299    1.1287   -0.4669 H   0  0  0  0  0  0  0  0  0  0  0  0
    8.2373    0.4240   -2.2483 H   0  0  0  0  0  0  0  0  0  0  0  0
    9.8953    0.6163   -2.7770 H   0  0  0  0  0  0  0  0  0  0  0  0
    9.9125    2.9821   -2.1150 H   0  0  0  0  0  0  0  0  0  0  0  0
    8.2969    2.8545   -1.4199 H   0  0  0  0  0  0  0  0  0  0  0  0
    7.3386    2.2748   -3.6221 H   0  0  0  0  0  0  0  0  0  0  0  0
    8.9394    2.3914   -4.3635 H   0  0  0  0  0  0  0  0  0  0  0  0
    9.0936    4.7857   -3.6209 H   0  0  0  0  0  0  0  0  0  0  0  0
    7.4910    4.6628   -2.8930 H   0  0  0  0  0  0  0  0  0  0  0  0
    6.5047    4.1144   -5.1164 H   0  0  0  0  0  0  0  0  0  0  0  0
    8.1063    4.1959   -5.8557 H   0  0  0  0  0  0  0  0  0  0  0  0
    8.3063    6.5934   -5.1400 H   0  0  0  0  0  0  0  0  0  0  0  0
    6.6939    6.5097   -4.4268 H   0  0  0  0  0  0  0  0  0  0  0  0
    5.7333    5.9425   -6.6758 H   0  0  0  0  0  0  0  0  0  0  0  0
    7.3476    6.0286   -7.3848 H   0  0  0  0  0  0  0  0  0  0  0  0
    5.8985    8.3461   -5.9999 H   0  0  0  0  0  0  0  0  0  0  0  0
    6.1116    8.1414   -7.7485 H   0  0  0  0  0  0  0  0  0  0  0  0
    7.5214    8.4310   -6.7126 H   0  0  0  0  0  0  0  0  0  0  0  0
    3.2818   -3.0161    1.6312 H   0  0  0  0  0  0  0  0  0  0  0  0
    3.4229   -2.2407    0.0715 H   0  0  0  0  0  0  0  0  0  0  0  0
    2.4280   -0.6814    2.4222 H   0  0  0  0  0  0  0  0  0  0  0  0
    1.4582   -1.6852    1.3365 H   0  0  0  0  0  0  0  0  0  0  0  0
    2.3527   -0.3264    0.6727 H   0  0  0  0  0  0  0  0  0  0  0  0
    6.5198   -1.2794    2.9233 H   0  0  0  0  0  0  0  0  0  0  0  0
    3.6961   -1.9264    3.8163 H   0  0  0  0  0  0  0  0  0  0  0  0
    6.3411   -3.3277    4.4134 H   0  0  0  0  0  0  0  0  0  0  0  0
    3.6363   -4.5468    3.7036 H   0  0  0  0  0  0  0  0  0  0  0  0
    6.3494   -4.4871    2.2171 H   0  0  0  0  0  0  0  0  0  0  0  0
    4.0425   -6.2624    1.6234 H   0  0  0  0  0  0  0  0  0  0  0  0
    3.7392   -5.6225   -0.5217 H   0  0  0  0  0  0  0  0  0  0  0  0
  1  2  1  0  0  0  0
  1 30  1  0  0  0  0
  1 31  1  0  0  0  0
  1 32  1  0  0  0  0
  2  3  1  0  0  0  0
  2 29  2  0  0  0  0
  3  4  2  0  0  0  0
  3 33  1  0  0  0  0
  4  5  1  0  0  0  0
  4 34  1  0  0  0  0
  5  6  2  0  0  0  0
  5 29  1  0  0  0  0
  6  7  1  0  0  0  0
  6 19  1  0  0  0  0
  7  8  1  0  0  0  0
  7 35  1  0  0  0  0
  7 36  1  0  0  0  0
  8  9  1  0  0  0  0
  8 37  1  0  0  0  0
  8 38  1  0  0  0  0
  9 10  1  0  0  0  0
  9 39  1  0  0  0  0
  9 40  1  0  0  0  0
 10 11  1  0  0  0  0
 10 41  1  0  0  0  0
 10 42  1  0  0  0  0
 11 12  1  0  0  0  0
 11 43  1  0  0  0  0
 11 44  1  0  0  0  0
 12 13  1  0  0  0  0
 12 45  1  0  0  0  0
 12 46  1  0  0  0  0
 13 14  1  0  0  0  0
 13 47  1  0  0  0  0
 13 48  1  0  0  0  0
 14 15  1  0  0  0  0
 14 49  1  0  0  0  0
 14 50  1  0  0  0  0
 15 16  1  0  0  0  0
 15 51  1  0  0  0  0
 15 52  1  0  0  0  0
 16 17  1  0  0  0  0
 16 53  1  0  0  0  0
 16 54  1  0  0  0  0
 17 18  1  0  0  0  0
 17 55  1  0  0  0  0
 17 56  1  0  0  0  0
 18 57  1  0  0  0  0
 18 58  1  0  0  0  0
 18 59  1  0  0  0  0
 19 20  1  0  0  0  0
 19 22  2  0  0  0  0
 20 21  1  0  0  0  0
 20 60  1  0  0  0  0
 20 61  1  0  0  0  0
 21 62  1  0  0  0  0
 21 63  1  0  0  0  0
 21 64  1  0  0  0  0
 22 23  1  0  0  0  0
 22 65  1  0  0  0  0
 23 24  2  0  0  0  0
 23 66  1  0  0  0  0
 24 25  1  0  0  0  0
 24 67  1  0  0  0  0
 25 26  2  0  0  0  0
 25 68  1  0  0  0  0
 26 27  1  0  0  0  0
 26 69  1  0  0  0  0
 27 28  2  0  0  0  0
 27 70  1  0  0  0  0
 28 29  1  0  0  0  0
 28 71  1  0  0  0  0
M  END
$$$$
