
 OpenBabel04232216513D

 50 51  0  0  1  0  0  0  0  0999 V2000
    1.4711    0.5472    2.4129 C   0  0  0  0  0  0  0  0  0  0  0  0
    1.3884   -0.8534    3.0741 C   0  0  0  0  0  0  0  0  0  0  0  0
    2.3081   -1.3049    4.3248 C   0  0  3  0  0  0  0  0  0  0  0  0
    1.6210   -1.0751    5.7768 C   0  0  0  0  0  0  0  0  0  0  0  0
    1.8385   -1.8035    7.2534 C   0  0  0  0  0  0  0  0  0  0  0  0
    3.1737   -1.8808    8.0624 C   0  0  0  0  0  0  0  0  0  0  0  0
    3.3353   -2.3561    9.5720 C   0  0  0  0  0  0  0  0  0  0  0  0
    2.4546   -2.5886   10.5151 N   0  0  0  0  0  0  0  0  0  0  0  0
    3.2245   -2.9754   11.6247 C   0  0  0  0  0  0  0  0  0  0  0  0
    4.5207   -3.0325   11.4581 N   0  0  0  0  0  0  0  0  0  0  0  0
    4.6933   -2.6074   10.1782 C   0  0  0  0  0  0  0  0  0  0  0  0
    5.8262   -2.3516    9.5102 C   0  0  0  0  0  0  0  0  0  0  0  0
    7.1322   -2.5397    9.8828 N   0  0  0  0  0  0  0  0  0  0  0  0
    7.8658   -1.7750    9.2206 N   0  0  0  0  0  0  0  0  0  0  0  0
    9.1766   -2.1923    9.1346 N   0  0  0  0  0  0  0  0  0  0  0  0
    9.7116   -1.9804    7.9694 C   0  0  0  0  0  0  0  0  0  0  0  0
   11.2136   -2.1191    7.8667 C   0  0  0  0  0  0  0  0  0  0  0  0
    9.0575   -1.4771    6.7003 C   0  0  0  0  0  0  0  0  0  0  0  0
    7.7777   -1.7273    6.4051 C   0  0  0  0  0  0  0  0  0  0  0  0
    6.9735   -0.9361    5.4486 C   0  0  0  0  0  0  0  0  0  0  0  0
    6.1260   -0.1905    5.9385 O   0  0  0  0  0  0  0  0  0  0  0  0
    7.0548   -1.3487    4.1172 N   0  0  0  0  0  0  0  0  0  0  0  0
    8.2500   -0.9919    3.3685 C   0  0  0  0  0  0  0  0  0  0  0  0
    3.6713   -0.7276    4.0257 C   0  0  0  0  0  0  0  0  0  0  0  0
    4.7805   -1.4293    3.7499 C   0  0  0  0  0  0  0  0  0  0  0  0
    5.9519   -0.7844    3.3902 O   0  0  0  0  0  0  0  0  0  0  0  0
    0.7569    0.5942    1.5733 H   0  0  0  0  0  0  0  0  0  0  0  0
    2.4470    0.7539    1.9549 H   0  0  0  0  0  0  0  0  0  0  0  0
    1.2135    1.3675    3.0875 H   0  0  0  0  0  0  0  0  0  0  0  0
    1.6407   -1.5364    2.2472 H   0  0  0  0  0  0  0  0  0  0  0  0
    0.3351   -1.0457    3.3011 H   0  0  0  0  0  0  0  0  0  0  0  0
    2.3703   -2.3956    4.2166 H   0  0  0  0  0  0  0  0  0  0  0  0
    0.5839   -1.3894    5.5716 H   0  0  0  0  0  0  0  0  0  0  0  0
    1.5565    0.0047    5.9521 H   0  0  0  0  0  0  0  0  0  0  0  0
    1.4264   -2.8193    7.1859 H   0  0  0  0  0  0  0  0  0  0  0  0
    1.1315   -1.2720    7.9116 H   0  0  0  0  0  0  0  0  0  0  0  0
    3.6270   -0.8859    8.0517 H   0  0  0  0  0  0  0  0  0  0  0  0
    3.8131   -2.5711    7.5047 H   0  0  0  0  0  0  0  0  0  0  0  0
    2.7886   -3.2350   12.6093 H   0  0  0  0  0  0  0  0  0  0  0  0
    5.6941   -1.9381    8.5185 H   0  0  0  0  0  0  0  0  0  0  0  0
   11.6464   -2.4196    8.8232 H   0  0  0  0  0  0  0  0  0  0  0  0
   11.6306   -1.1447    7.5844 H   0  0  0  0  0  0  0  0  0  0  0  0
   11.4837   -2.8610    7.1131 H   0  0  0  0  0  0  0  0  0  0  0  0
    9.6836   -0.8592    6.0669 H   0  0  0  0  0  0  0  0  0  0  0  0
    7.1523   -2.3460    7.0292 H   0  0  0  0  0  0  0  0  0  0  0  0
    9.1555   -1.1820    3.9475 H   0  0  0  0  0  0  0  0  0  0  0  0
    8.2309    0.0760    3.1181 H   0  0  0  0  0  0  0  0  0  0  0  0
    8.2935   -1.5803    2.4483 H   0  0  0  0  0  0  0  0  0  0  0  0
    3.7417    0.3531    3.8945 H   0  0  0  0  0  0  0  0  0  0  0  0
    4.8683   -2.5042    3.8161 H   0  0  0  0  0  0  0  0  0  0  0  0
  1  2  1  0  0  0  0
  1 27  1  0  0  0  0
  1 28  1  0  0  0  0
  1 29  1  0  0  0  0
  2  3  1  0  0  0  0
  2 30  1  0  0  0  0
  2 31  1  0  0  0  0
  3  4  1  0  0  0  0
  3 24  1  0  0  0  0
  3 32  1  0  0  0  0
  4  5  1  0  0  0  0
  4 33  1  0  0  0  0
  4 34  1  0  0  0  0
  5  6  1  0  0  0  0
  5 35  1  0  0  0  0
  5 36  1  0  0  0  0
  6  7  1  0  0  0  0
  6 37  1  0  0  0  0
  6 38  1  0  0  0  0
  7  8  2  0  0  0  0
  7 11  1  0  0  0  0
  8  9  1  0  0  0  0
  9 10  2  0  0  0  0
  9 39  1  0  0  0  0
 10 11  1  0  0  0  0
 11 12  2  3  0  0  0
 12 13  1  0  0  0  0
 12 40  1  0  0  0  0
 13 14  2  3  0  0  0
 14 15  1  0  0  0  0
 15 16  2  3  0  0  0
 16 17  1  0  0  0  0
 16 18  1  0  0  0  0
 17 41  1  0  0  0  0
 17 42  1  0  0  0  0
 17 43  1  0  0  0  0
 18 19  2  3  0  0  0
 18 44  1  0  0  0  0
 19 20  1  0  0  0  0
 19 45  1  0  0  0  0
 20 21  2  0  0  0  0
 20 22  1  0  0  0  0
 22 23  1  0  0  0  0
 22 26  1  0  0  0  0
 23 46  1  0  0  0  0
 23 47  1  0  0  0  0
 23 48  1  0  0  0  0
 24 25  2  3  0  0  0
 24 49  1  0  0  0  0
 25 26  1  0  0  0  0
 25 50  1  0  0  0  0
M  END
$$$$
