
 OpenBabel04232216453D

 62 63  0  0  0  0  0  0  0  0999 V2000
    6.5009   -2.1543    0.6247 C   0  0  0  0  0  0  0  0  0  0  0  0
    7.6388   -2.0428   -0.5001 C   0  0  0  0  0  0  0  0  0  0  0  0
    6.6770   -1.5756   -1.5052 C   0  0  0  0  0  0  0  0  0  0  0  0
    6.1046   -0.3593   -1.7440 C   0  0  0  0  0  0  0  0  0  0  0  0
    6.3271    0.8674   -0.8942 C   0  0  0  0  0  0  0  0  0  0  0  0
    5.5243   -0.2225   -3.1860 C   0  0  0  0  0  0  0  0  0  0  0  0
    6.7818   -0.5408   -3.9865 C   0  0  0  0  0  0  0  0  0  0  0  0
    7.0712   -1.3357   -5.2455 C   0  0  0  0  0  0  0  0  0  0  0  0
    8.5416   -1.7583   -4.9820 C   0  0  0  0  0  0  0  0  0  0  0  0
    9.6734   -1.5112   -6.0158 C   0  0  0  0  0  0  0  0  0  0  0  0
   10.7416   -0.8442   -5.1415 C   0  0  0  0  0  0  0  0  0  0  0  0
   12.2462   -0.6373   -4.8114 C   0  0  0  0  0  0  0  0  0  0  0  0
   13.1446   -0.4658   -5.6196 O   0  0  0  0  0  0  0  0  0  0  0  0
   12.4786   -0.7229   -3.2845 C   0  0  0  0  0  0  0  0  0  0  0  0
   12.0451   -1.9662   -3.0208 C   0  0  0  0  0  0  0  0  0  0  0  0
   11.8829   -2.5783   -1.7226 C   0  0  0  0  0  0  0  0  0  0  0  0
   13.6399   -3.1180   -2.0376 C   0  0  0  0  0  0  0  0  0  0  0  0
   13.9510   -4.2486   -1.6501 O   0  0  0  0  0  0  0  0  0  0  0  0
   14.6309   -2.4148   -2.9405 N   0  0  0  0  0  0  0  0  0  0  0  0
   16.1718   -1.9514   -2.8146 C   0  0  0  0  0  0  0  0  0  0  0  0
   16.4107   -0.6891   -1.9261 C   0  0  0  0  0  0  0  0  0  0  0  0
   16.4230    0.0739   -0.5967 C   0  0  0  0  0  0  0  0  0  0  0  0
   14.9752    0.5069   -0.1453 C   0  0  0  0  0  0  0  0  0  0  0  0
   13.7528   -0.2990   -0.7444 C   0  0  0  0  0  0  0  0  0  0  0  0
   13.3968    0.0552   -2.3067 C   0  0  0  0  0  0  0  0  0  0  0  0
   10.4944   -2.0764   -1.5343 C   0  0  0  0  0  0  0  0  0  0  0  0
    9.0811   -2.0581   -0.4968 C   0  0  0  0  0  0  0  0  0  0  0  0
    5.5304   -2.5110    0.1836 H   0  0  0  0  0  0  0  0  0  0  0  0
    6.1957   -1.1600    1.0020 H   0  0  0  0  0  0  0  0  0  0  0  0
    6.6535   -2.8313    1.4567 H   0  0  0  0  0  0  0  0  0  0  0  0
    6.2344   -2.4074   -2.0763 H   0  0  0  0  0  0  0  0  0  0  0  0
    5.3893    1.2434   -0.4658 H   0  0  0  0  0  0  0  0  0  0  0  0
    6.8090    1.6767   -1.4489 H   0  0  0  0  0  0  0  0  0  0  0  0
    6.9814    0.6421   -0.0448 H   0  0  0  0  0  0  0  0  0  0  0  0
    5.1807    0.7920   -3.4214 H   0  0  0  0  0  0  0  0  0  0  0  0
    4.6992   -0.9208   -3.3656 H   0  0  0  0  0  0  0  0  0  0  0  0
    7.2305   -1.3098   -3.3799 H   0  0  0  0  0  0  0  0  0  0  0  0
    7.4604    0.3160   -3.8808 H   0  0  0  0  0  0  0  0  0  0  0  0
    6.9482   -0.7393   -6.1428 H   0  0  0  0  0  0  0  0  0  0  0  0
    6.4641   -2.2485   -5.2875 H   0  0  0  0  0  0  0  0  0  0  0  0
    8.6009   -2.7573   -4.5173 H   0  0  0  0  0  0  0  0  0  0  0  0
    8.8538   -1.1480   -4.1132 H   0  0  0  0  0  0  0  0  0  0  0  0
    9.3337   -0.8600   -6.8168 H   0  0  0  0  0  0  0  0  0  0  0  0
    9.9612   -2.4909   -6.4166 H   0  0  0  0  0  0  0  0  0  0  0  0
   10.6189   -1.6722   -4.4554 H   0  0  0  0  0  0  0  0  0  0  0  0
   10.3012    0.0495   -4.6908 H   0  0  0  0  0  0  0  0  0  0  0  0
   11.9477   -2.7341   -3.8121 H   0  0  0  0  0  0  0  0  0  0  0  0
   14.2922   -1.9935   -3.7988 H   0  0  0  0  0  0  0  0  0  0  0  0
   16.4857   -1.6079   -3.8246 H   0  0  0  0  0  0  0  0  0  0  0  0
   16.8564   -2.7615   -2.5543 H   0  0  0  0  0  0  0  0  0  0  0  0
   15.7775   -1.3168   -1.3128 H   0  0  0  0  0  0  0  0  0  0  0  0
   16.0260    0.1220   -2.5540 H   0  0  0  0  0  0  0  0  0  0  0  0
   17.0393    0.9831   -0.6896 H   0  0  0  0  0  0  0  0  0  0  0  0
   16.9423   -0.5137    0.1755 H   0  0  0  0  0  0  0  0  0  0  0  0
   14.9649    0.4420    0.9545 H   0  0  0  0  0  0  0  0  0  0  0  0
   14.8268    1.5645   -0.3828 H   0  0  0  0  0  0  0  0  0  0  0  0
   12.8833   -0.1908   -0.0848 H   0  0  0  0  0  0  0  0  0  0  0  0
   14.0258   -1.3489   -0.5954 H   0  0  0  0  0  0  0  0  0  0  0  0
   14.3100   -0.2071   -2.7936 H   0  0  0  0  0  0  0  0  0  0  0  0
   13.4065    1.1337   -2.4660 H   0  0  0  0  0  0  0  0  0  0  0  0
   10.1576   -1.2759   -2.2191 H   0  0  0  0  0  0  0  0  0  0  0  0
    9.1986   -0.9408   -0.4696 H   0  0  0  0  0  0  0  0  0  0  0  0
  1  2  1  0  0  0  0
  1 28  1  0  0  0  0
  1 29  1  0  0  0  0
  1 30  1  0  0  0  0
  2  3  1  0  0  0  0
  2 27  2  3  0  0  0
  3  4  2  3  0  0  0
  3 31  1  0  0  0  0
  4  5  1  0  0  0  0
  4  6  1  0  0  0  0
  5 32  1  0  0  0  0
  5 33  1  0  0  0  0
  5 34  1  0  0  0  0
  6  7  1  0  0  0  0
  6 35  1  0  0  0  0
  6 36  1  0  0  0  0
  7  8  1  0  0  0  0
  7 37  1  0  0  0  0
  7 38  1  0  0  0  0
  8  9  1  0  0  0  0
  8 39  1  0  0  0  0
  8 40  1  0  0  0  0
  9 10  1  0  0  0  0
  9 41  1  0  0  0  0
  9 42  1  0  0  0  0
 10 11  1  0  0  0  0
 10 43  1  0  0  0  0
 10 44  1  0  0  0  0
 11 12  1  0  0  0  0
 11 45  1  0  0  0  0
 11 46  1  0  0  0  0
 12 13  2  0  0  0  0
 12 14  1  0  0  0  0
 14 15  2  3  0  0  0
 14 25  1  0  0  0  0
 15 16  1  0  0  0  0
 15 47  1  0  0  0  0
 16 17  1  0  0  0  0
 16 26  2  3  0  0  0
 17 18  2  0  0  0  0
 17 19  1  0  0  0  0
 19 20  1  0  0  0  0
 19 48  1  0  0  0  0
 20 21  1  0  0  0  0
 20 49  1  0  0  0  0
 20 50  1  0  0  0  0
 21 22  1  0  0  0  0
 21 51  1  0  0  0  0
 21 52  1  0  0  0  0
 22 23  1  0  0  0  0
 22 53  1  0  0  0  0
 22 54  1  0  0  0  0
 23 24  1  0  0  0  0
 23 55  1  0  0  0  0
 23 56  1  0  0  0  0
 24 25  1  0  0  0  0
 24 57  1  0  0  0  0
 24 58  1  0  0  0  0
 25 59  1  0  0  0  0
 25 60  1  0  0  0  0
 26 27  1  0  0  0  0
 26 61  1  0  0  0  0
 27 62  1  0  0  0  0
M  END
$$$$
