
 OpenBabel04232216473D

 45 48  0  0  0  0  0  0  0  0999 V2000
    3.0436   -0.7136   -0.2849 C   0  0  0  0  0  0  0  0  0  0  0  0
    4.1313   -1.7620   -0.2450 C   0  0  0  0  0  0  0  0  0  0  0  0
    3.9209   -3.0836    0.0357 C   0  0  0  0  0  0  0  0  0  0  0  0
    5.0694   -4.0217    0.3458 C   0  0  0  0  0  0  0  0  0  0  0  0
    5.9041   -4.6446   -0.5637 C   0  0  0  0  0  0  0  0  0  0  0  0
    5.2736   -4.8566   -1.9669 C   0  0  0  0  0  0  0  0  0  0  0  0
    7.3018   -4.1514   -0.6529 N   0  0  0  0  0  0  0  0  0  0  0  0
    8.7738   -4.6966   -0.6850 C   0  0  0  0  0  0  0  0  0  0  0  0
    9.7195   -5.8902    0.1010 C   0  0  0  0  0  0  0  0  0  0  0  0
   11.3475   -6.3082    0.2228 C   0  0  0  0  0  0  0  0  0  0  0  0
   11.5027   -7.1192    1.3003 N   0  0  0  0  0  0  0  0  0  0  0  0
   12.6519   -7.7801    1.6396 N   0  0  0  0  0  0  0  0  0  0  0  0
   13.6517   -7.7736    0.8759 N   0  0  0  0  0  0  0  0  0  0  0  0
   13.6628   -7.0398   -0.1803 N   0  0  0  0  0  0  0  0  0  0  0  0
   12.5714   -6.2440   -0.4755 C   0  0  0  0  0  0  0  0  0  0  0  0
   13.1353   -5.1833   -1.3011 C   0  0  0  0  0  0  0  0  0  0  0  0
   13.8622   -4.2182   -0.6826 C   0  0  0  0  0  0  0  0  0  0  0  0
   13.5562   -2.8810   -1.1650 C   0  0  0  0  0  0  0  0  0  0  0  0
   12.6176   -2.2759   -0.4032 C   0  0  0  0  0  0  0  0  0  0  0  0
   11.3348   -2.2423   -1.0543 C   0  0  0  0  0  0  0  0  0  0  0  0
   10.3677   -2.9291   -0.4476 C   0  0  0  0  0  0  0  0  0  0  0  0
    9.3249   -3.5232   -1.1542 C   0  0  0  0  0  0  0  0  0  0  0  0
    8.4922   -2.9341   -2.0906 C   0  0  0  0  0  0  0  0  0  0  0  0
    7.3805   -2.8333   -1.2928 C   0  0  0  0  0  0  0  0  0  0  0  0
    6.2313   -1.9850   -1.4084 C   0  0  0  0  0  0  0  0  0  0  0  0
    5.5402   -1.3702   -0.4342 C   0  0  0  0  0  0  0  0  0  0  0  0
    2.2961   -0.9155   -1.0622 H   0  0  0  0  0  0  0  0  0  0  0  0
    3.4173    0.3056   -0.4606 H   0  0  0  0  0  0  0  0  0  0  0  0
    2.5091   -0.6808    0.6747 H   0  0  0  0  0  0  0  0  0  0  0  0
    2.9003   -3.4341    0.1734 H   0  0  0  0  0  0  0  0  0  0  0  0
    5.5139   -3.6758    1.2826 H   0  0  0  0  0  0  0  0  0  0  0  0
    4.4035   -4.2083   -2.1527 H   0  0  0  0  0  0  0  0  0  0  0  0
    4.9340   -5.8828   -2.1050 H   0  0  0  0  0  0  0  0  0  0  0  0
    5.9737   -4.6144   -2.7756 H   0  0  0  0  0  0  0  0  0  0  0  0
    9.2707   -6.8515   -0.1756 H   0  0  0  0  0  0  0  0  0  0  0  0
    9.5000   -5.6807    1.1575 H   0  0  0  0  0  0  0  0  0  0  0  0
   13.3598   -5.3844   -2.3513 H   0  0  0  0  0  0  0  0  0  0  0  0
   14.0445   -4.2613    0.3962 H   0  0  0  0  0  0  0  0  0  0  0  0
   13.4784   -2.8142   -2.2528 H   0  0  0  0  0  0  0  0  0  0  0  0
   12.5567   -2.5245    0.6620 H   0  0  0  0  0  0  0  0  0  0  0  0
   11.2781   -2.0890   -2.1269 H   0  0  0  0  0  0  0  0  0  0  0  0
   10.3849   -3.1408    0.6228 H   0  0  0  0  0  0  0  0  0  0  0  0
    8.6778   -2.2204   -2.8806 H   0  0  0  0  0  0  0  0  0  0  0  0
    5.6500   -2.1632   -2.3478 H   0  0  0  0  0  0  0  0  0  0  0  0
    6.0390   -1.1169    0.5331 H   0  0  0  0  0  0  0  0  0  0  0  0
  1  2  1  0  0  0  0
  1 27  1  0  0  0  0
  1 28  1  0  0  0  0
  1 29  1  0  0  0  0
  2  3  2  0  0  0  0
  2 26  1  0  0  0  0
  3  4  1  0  0  0  0
  3 30  1  0  0  0  0
  4  5  2  0  0  0  0
  4 31  1  0  0  0  0
  5  6  1  0  0  0  0
  5  7  1  0  0  0  0
  6 32  1  0  0  0  0
  6 33  1  0  0  0  0
  6 34  1  0  0  0  0
  7  8  1  0  0  0  0
  7 24  1  0  0  0  0
  8  9  1  0  0  0  0
  8 22  2  0  0  0  0
  9 10  1  0  0  0  0
  9 35  1  0  0  0  0
  9 36  1  0  0  0  0
 10 11  1  0  0  0  0
 10 15  2  0  0  0  0
 11 12  2  0  0  0  0
 12 13  1  0  0  0  0
 13 14  2  0  0  0  0
 14 15  1  0  0  0  0
 15 16  1  0  0  0  0
 16 17  2  3  0  0  0
 16 37  1  0  0  0  0
 17 18  1  0  0  0  0
 17 38  1  0  0  0  0
 18 19  2  3  0  0  0
 18 39  1  0  0  0  0
 19 20  1  0  0  0  0
 19 40  1  0  0  0  0
 20 21  2  3  0  0  0
 20 41  1  0  0  0  0
 21 22  1  0  0  0  0
 21 42  1  0  0  0  0
 22 23  1  0  0  0  0
 23 24  2  0  0  0  0
 23 43  1  0  0  0  0
 24 25  1  0  0  0  0
 25 26  2  0  0  0  0
 25 44  1  0  0  0  0
 26 45  1  0  0  0  0
M  END
$$$$
