
 OpenBabel04232216513D

 77 77  0  0  1  0  0  0  0  0999 V2000
   10.3495   -3.6819    2.4653 C   0  0  0  0  0  0  0  0  0  0  0  0
   12.5723   -4.9184    2.8225 C   0  0  0  0  0  0  0  0  0  0  0  0
   14.7734   -6.3092    3.4351 C   0  0  3  0  0  0  0  0  0  0  0  0
   12.4038   -6.0192    2.6538 C   0  0  0  0  0  0  0  0  0  0  0  0
   10.4561   -5.6480    2.0867 C   0  0  0  0  0  0  0  0  0  0  0  0
    8.7743   -4.5186    1.4851 C   0  0  0  0  0  0  0  0  0  0  0  0
    8.1758   -4.1061    3.1421 C   0  0  0  0  0  0  0  0  0  0  0  0
    9.1361   -2.4027    3.6664 C   0  0  0  0  0  0  0  0  0  0  0  0
   10.1472   -2.9570    4.3665 C   0  0  0  0  0  0  0  0  0  0  0  0
   11.6985   -3.0474    4.0690 C   0  0  0  0  0  0  0  0  0  0  0  0
   12.2674   -4.1295    4.8019 C   0  0  0  0  0  0  0  0  0  0  0  0
   13.8704   -4.3270    4.6311 C   0  0  0  0  0  0  0  0  0  0  0  0
   14.4268   -5.3916    5.4088 C   0  0  0  0  0  0  0  0  0  0  0  0
   15.9565   -5.5556    5.4786 C   0  0  0  0  0  0  0  0  0  0  0  0
   16.7256   -6.2449    6.3770 C   0  0  0  0  0  0  0  0  0  0  0  0
   18.2017   -5.8488    6.3559 C   0  0  0  0  0  0  0  0  0  0  0  0
   18.9147   -6.7834    6.9579 C   0  0  0  0  0  0  0  0  0  0  0  0
   20.2015   -6.8539    6.4478 C   0  0  0  0  0  0  0  0  0  0  0  0
   20.7738   -7.7828    7.1987 C   0  0  0  0  0  0  0  0  0  0  0  0
   22.1655   -7.4918    6.9748 C   0  0  0  0  0  0  0  0  0  0  0  0
   22.9231   -8.2638    7.7696 C   0  0  0  0  0  0  0  0  0  0  0  0
   24.3682   -8.4136    7.5829 C   0  0  0  0  0  0  0  0  0  0  0  0
   25.5398   -8.9177    7.9511 C   0  0  0  0  0  0  0  0  0  0  0  0
   26.6474   -9.4502    8.6895 C   0  0  0  0  0  0  0  0  0  0  0  0
   27.0618  -10.4286    9.5531 C   0  0  0  0  0  0  0  0  0  0  0  0
   28.5446  -10.2924    9.5431 C   0  0  0  0  0  0  0  0  0  0  0  0
   29.0930  -11.1769   10.3963 C   0  0  0  0  0  0  0  0  0  0  0  0
   30.5337  -11.0193   10.5687 C   0  0  0  0  0  0  0  0  0  0  0  0
   31.1551  -12.1376   11.1920 C   0  0  0  0  0  0  0  0  0  0  0  0
   31.9110  -11.9994    9.9753 C   0  0  0  0  0  0  0  0  0  0  0  0
   30.4858  -12.1316    8.7315 C   0  0  0  0  0  0  0  0  0  0  0  0
   28.3297  -11.7502    7.8419 C   0  0  0  0  0  0  0  0  0  0  0  0
   26.3981  -11.0007    7.0176 C   0  0  0  0  0  0  0  0  0  0  0  0
   23.9974  -10.2535    6.3773 C   0  0  0  0  0  0  0  0  0  0  0  0
   21.9635   -9.4165    5.5135 C   0  0  0  0  0  0  0  0  0  0  0  0
   19.4037   -8.3549    4.9422 C   0  0  0  0  0  0  0  0  0  0  0  0
   17.2912   -7.4213    4.3266 C   0  0  0  0  0  0  0  0  0  0  0  0
    8.8984   -2.9658    1.8565 H   0  0  0  0  0  0  0  0  0  0  0  0
    8.9513   -2.6826    2.1266 H   0  0  0  0  0  0  0  0  0  0  0  0
    8.7299   -3.0803    2.1939 H   0  0  0  0  0  0  0  0  0  0  0  0
   11.4585   -3.8202    2.1874 H   0  0  0  0  0  0  0  0  0  0  0  0
   11.4264   -4.1842    1.8302 H   0  0  0  0  0  0  0  0  0  0  0  0
   13.2408   -6.1554    3.9204 H   0  0  0  0  0  0  0  0  0  0  0  0
   10.9206   -5.2904    2.9377 H   0  0  0  0  0  0  0  0  0  0  0  0
    8.9416   -5.1252    1.8510 H   0  0  0  0  0  0  0  0  0  0  0  0
    8.2857   -3.1398    0.6418 H   0  0  0  0  0  0  0  0  0  0  0  0
    7.0784   -3.9079    3.3465 H   0  0  0  0  0  0  0  0  0  0  0  0
    9.7194   -1.7160    2.3963 H   0  0  0  0  0  0  0  0  0  0  0  0
    9.6367   -3.9745    4.3903 H   0  0  0  0  0  0  0  0  0  0  0  0
   12.0456   -2.7533    2.8321 H   0  0  0  0  0  0  0  0  0  0  0  0
   11.5402   -5.2390    4.8192 H   0  0  0  0  0  0  0  0  0  0  0  0
   14.0537   -4.0546    3.4302 H   0  0  0  0  0  0  0  0  0  0  0  0
   13.6959   -6.3467    5.4071 H   0  0  0  0  0  0  0  0  0  0  0  0
   16.2906   -5.1555    4.4599 H   0  0  0  0  0  0  0  0  0  0  0  0
   16.1686   -7.2650    6.4020 H   0  0  0  0  0  0  0  0  0  0  0  0
   18.4713   -5.6403    5.2742 H   0  0  0  0  0  0  0  0  0  0  0  0
   18.4759   -7.8122    6.7895 H   0  0  0  0  0  0  0  0  0  0  0  0
   20.4856   -6.6596    5.3535 H   0  0  0  0  0  0  0  0  0  0  0  0
   20.2145   -8.8550    7.4904 H   0  0  0  0  0  0  0  0  0  0  0  0
   22.6610   -7.5010    5.9721 H   0  0  0  0  0  0  0  0  0  0  0  0
   22.3901   -9.2582    8.1075 H   0  0  0  0  0  0  0  0  0  0  0  0
   24.7169   -8.2657    6.5957 H   0  0  0  0  0  0  0  0  0  0  0  0
   25.1435   -9.7630    8.4975 H   0  0  0  0  0  0  0  0  0  0  0  0
   27.3012   -9.4388    7.7829 H   0  0  0  0  0  0  0  0  0  0  0  0
   26.6464  -11.5445    9.7465 H   0  0  0  0  0  0  0  0  0  0  0  0
   29.1997  -10.1130    8.5044 H   0  0  0  0  0  0  0  0  0  0  0  0
   28.7360  -12.3057   10.4961 H   0  0  0  0  0  0  0  0  0  0  0  0
   31.1180  -10.5833    9.3200 H   0  0  0  0  0  0  0  0  0  0  0  0
   30.9206  -13.3984   11.3092 H   0  0  0  0  0  0  0  0  0  0  0  0
   33.4063  -11.8667    9.8025 H   0  0  0  0  0  0  0  0  0  0  0  0
   31.8585  -12.7983    9.5651 H   0  0  0  0  0  0  0  0  0  0  0  0
   29.7465  -12.4885    8.4589 H   0  0  0  0  0  0  0  0  0  0  0  0
   27.4406  -11.9721    8.0547 H   0  0  0  0  0  0  0  0  0  0  0  0
   25.0731  -11.0731    7.2229 H   0  0  0  0  0  0  0  0  0  0  0  0
   22.7362  -10.2600    6.6590 H   0  0  0  0  0  0  0  0  0  0  0  0
   20.2267   -9.2285    5.7932 H   0  0  0  0  0  0  0  0  0  0  0  0
   15.9973   -7.6949    4.6652 H   0  0  0  0  0  0  0  0  0  0  0  0
  1  2  1  0  0  0  0
  1 38  1  0  0  0  0
  1 39  1  0  0  0  0
  1 40  1  0  0  0  0
  2  3  1  0  0  0  0
  2 41  1  0  0  0  0
  2 42  1  0  0  0  0
  3  4  1  0  0  0  0
  3 37  1  0  0  0  0
  3 43  1  0  0  0  0
  4  5  2  3  0  0  0
  4 44  1  0  0  0  0
  5  6  1  0  0  0  0
  5 45  1  0  0  0  0
  6  7  2  3  0  0  0
  6 46  1  0  0  0  0
  7  8  1  0  0  0  0
  7 47  1  0  0  0  0
  8  9  2  3  0  0  0
  8 48  1  0  0  0  0
  9 10  1  0  0  0  0
  9 49  1  0  0  0  0
 10 11  2  3  0  0  0
 10 50  1  0  0  0  0
 11 12  1  0  0  0  0
 11 51  1  0  0  0  0
 12 13  2  3  0  0  0
 12 52  1  0  0  0  0
 13 14  1  0  0  0  0
 13 53  1  0  0  0  0
 14 15  2  3  0  0  0
 14 54  1  0  0  0  0
 15 16  1  0  0  0  0
 15 55  1  0  0  0  0
 16 17  2  3  0  0  0
 16 56  1  0  0  0  0
 17 18  1  0  0  0  0
 17 57  1  0  0  0  0
 18 19  2  3  0  0  0
 18 58  1  0  0  0  0
 19 20  1  0  0  0  0
 19 59  1  0  0  0  0
 20 21  2  3  0  0  0
 20 60  1  0  0  0  0
 21 22  1  0  0  0  0
 21 61  1  0  0  0  0
 22 23  2  3  0  0  0
 22 62  1  0  0  0  0
 23 24  1  0  0  0  0
 23 63  1  0  0  0  0
 24 25  2  3  0  0  0
 24 64  1  0  0  0  0
 25 26  1  0  0  0  0
 25 65  1  0  0  0  0
 26 27  2  3  0  0  0
 26 66  1  0  0  0  0
 27 28  1  0  0  0  0
 27 67  1  0  0  0  0
 28 29  2  3  0  0  0
 28 68  1  0  0  0  0
 29 30  1  0  0  0  0
 29 69  1  0  0  0  0
 30 31  2  3  0  0  0
 30 70  1  0  0  0  0
 31 32  1  0  0  0  0
 31 71  1  0  0  0  0
 32 33  2  3  0  0  0
 32 72  1  0  0  0  0
 33 34  1  0  0  0  0
 33 73  1  0  0  0  0
 34 35  2  3  0  0  0
 34 74  1  0  0  0  0
 35 36  1  0  0  0  0
 35 75  1  0  0  0  0
 36 37  2  3  0  0  0
 36 76  1  0  0  0  0
 37 77  1  0  0  0  0
M  END
$$$$
