
 OpenBabel04232216463D

 71 71  0  0  0  0  0  0  0  0999 V2000
   14.7127   -5.1721    7.7473 C   0  0  0  0  0  0  0  0  0  0  0  0
   13.9592   -5.0968    6.4259 C   0  0  0  0  0  0  0  0  0  0  0  0
   14.8972   -5.1435    5.3705 C   0  0  0  0  0  0  0  0  0  0  0  0
   15.5809   -4.0448    4.9562 C   0  0  0  0  0  0  0  0  0  0  0  0
   15.5461   -2.6907    5.6523 C   0  0  0  0  0  0  0  0  0  0  0  0
   15.9443   -4.1127    3.6292 N   0  0  0  0  0  0  0  0  0  0  0  0
   14.8728   -3.7666    2.9697 C   0  0  0  0  0  0  0  0  0  0  0  0
   14.3368   -4.5149    1.8104 C   0  0  0  0  0  0  0  0  0  0  0  0
   13.3428   -3.7607    1.3429 C   0  0  0  0  0  0  0  0  0  0  0  0
   11.9976   -3.9455    1.8493 C   0  0  0  0  0  0  0  0  0  0  0  0
   11.7000   -3.7264    3.1630 C   0  0  0  0  0  0  0  0  0  0  0  0
   11.2414   -4.8868    3.9839 C   0  0  0  0  0  0  0  0  0  0  0  0
   10.1544   -5.6708    3.1969 C   0  0  0  0  0  0  0  0  0  0  0  0
    8.7693   -6.0568    3.7162 C   0  0  0  0  0  0  0  0  0  0  0  0
    8.6269   -7.3552    4.4958 C   0  0  0  0  0  0  0  0  0  0  0  0
    7.1595   -7.5892    4.8909 C   0  0  0  0  0  0  0  0  0  0  0  0
    6.1557   -7.7444    3.7391 C   0  0  0  0  0  0  0  0  0  0  0  0
    6.3864   -9.0151    2.9243 C   0  0  0  0  0  0  0  0  0  0  0  0
    5.3786   -9.1446    1.7834 C   0  0  0  0  0  0  0  0  0  0  0  0
    5.5743  -10.4611    1.0337 C   0  0  0  0  0  0  0  0  0  0  0  0
    4.5676  -10.5924   -0.1047 C   0  0  0  0  0  0  0  0  0  0  0  0
    4.7474  -11.9162   -0.8424 C   0  0  0  0  0  0  0  0  0  0  0  0
    3.7257  -12.0503   -1.9679 C   0  0  0  0  0  0  0  0  0  0  0  0
    3.9061  -13.3651   -2.7219 C   0  0  0  0  0  0  0  0  0  0  0  0
    2.8766  -13.4960   -3.8409 C   0  0  0  0  0  0  0  0  0  0  0  0
    3.0571  -14.7962   -4.6057 C   0  0  0  0  0  0  0  0  0  0  0  0
   11.6523   -5.2577    5.2271 C   0  0  0  0  0  0  0  0  0  0  0  0
   12.6521   -4.9201    6.3012 C   0  0  0  0  0  0  0  0  0  0  0  0
   15.2597   -6.1275    7.8050 H   0  0  0  0  0  0  0  0  0  0  0  0
   14.0676   -5.1248    8.6336 H   0  0  0  0  0  0  0  0  0  0  0  0
   15.4813   -4.3890    7.8583 H   0  0  0  0  0  0  0  0  0  0  0  0
   14.9399   -6.0566    4.7762 H   0  0  0  0  0  0  0  0  0  0  0  0
   16.4723   -2.5035    6.2014 H   0  0  0  0  0  0  0  0  0  0  0  0
   14.7146   -2.6112    6.3723 H   0  0  0  0  0  0  0  0  0  0  0  0
   15.3952   -1.8654    4.9426 H   0  0  0  0  0  0  0  0  0  0  0  0
   14.1093   -3.1499    3.4846 H   0  0  0  0  0  0  0  0  0  0  0  0
   14.0858   -5.5374    2.1675 H   0  0  0  0  0  0  0  0  0  0  0  0
   13.5617   -2.7325    1.0547 H   0  0  0  0  0  0  0  0  0  0  0  0
   11.2241   -3.9890    1.0846 H   0  0  0  0  0  0  0  0  0  0  0  0
   10.8064   -3.0833    3.2593 H   0  0  0  0  0  0  0  0  0  0  0  0
   10.6365   -6.5262    2.7067 H   0  0  0  0  0  0  0  0  0  0  0  0
    9.8437   -5.0200    2.3659 H   0  0  0  0  0  0  0  0  0  0  0  0
    8.1609   -6.1745    2.8096 H   0  0  0  0  0  0  0  0  0  0  0  0
    8.3224   -5.2234    4.2739 H   0  0  0  0  0  0  0  0  0  0  0  0
    9.2397   -7.3332    5.3930 H   0  0  0  0  0  0  0  0  0  0  0  0
    8.9950   -8.2051    3.8867 H   0  0  0  0  0  0  0  0  0  0  0  0
    6.8377   -6.7396    5.5077 H   0  0  0  0  0  0  0  0  0  0  0  0
    7.1029   -8.4782    5.5352 H   0  0  0  0  0  0  0  0  0  0  0  0
    6.1742   -6.8682    3.0802 H   0  0  0  0  0  0  0  0  0  0  0  0
    5.1434   -7.7704    4.1634 H   0  0  0  0  0  0  0  0  0  0  0  0
    6.3077   -9.8866    3.5848 H   0  0  0  0  0  0  0  0  0  0  0  0
    7.3963   -9.0141    2.5014 H   0  0  0  0  0  0  0  0  0  0  0  0
    5.4983   -8.3034    1.0897 H   0  0  0  0  0  0  0  0  0  0  0  0
    4.3565   -9.0966    2.1780 H   0  0  0  0  0  0  0  0  0  0  0  0
    5.4518  -11.3013    1.7283 H   0  0  0  0  0  0  0  0  0  0  0  0
    6.5950  -10.5180    0.6356 H   0  0  0  0  0  0  0  0  0  0  0  0
    4.6892   -9.7575   -0.8061 H   0  0  0  0  0  0  0  0  0  0  0  0
    3.5493  -10.5307    0.2978 H   0  0  0  0  0  0  0  0  0  0  0  0
    4.6319  -12.7495   -0.1385 H   0  0  0  0  0  0  0  0  0  0  0  0
    5.7629  -11.9771   -1.2522 H   0  0  0  0  0  0  0  0  0  0  0  0
    3.8321  -11.2089   -2.6635 H   0  0  0  0  0  0  0  0  0  0  0  0
    2.7124  -11.9998   -1.5512 H   0  0  0  0  0  0  0  0  0  0  0  0
    3.8068  -14.2072   -2.0260 H   0  0  0  0  0  0  0  0  0  0  0  0
    4.9181  -13.4113   -3.1427 H   0  0  0  0  0  0  0  0  0  0  0  0
    2.9724  -12.6524   -4.5345 H   0  0  0  0  0  0  0  0  0  0  0  0
    1.8639  -13.4592   -3.4229 H   0  0  0  0  0  0  0  0  0  0  0  0
    4.0624  -14.8614   -5.0338 H   0  0  0  0  0  0  0  0  0  0  0  0
    2.3331  -14.8581   -5.4232 H   0  0  0  0  0  0  0  0  0  0  0  0
    2.9061  -15.6588   -3.9490 H   0  0  0  0  0  0  0  0  0  0  0  0
   11.0462   -6.0598    5.6475 H   0  0  0  0  0  0  0  0  0  0  0  0
   12.1006   -4.7770    7.2507 H   0  0  0  0  0  0  0  0  0  0  0  0
  1  2  1  0  0  0  0
  1 29  1  0  0  0  0
  1 30  1  0  0  0  0
  1 31  1  0  0  0  0
  2  3  1  0  0  0  0
  2 28  2  3  0  0  0
  3  4  2  3  0  0  0
  3 32  1  0  0  0  0
  4  5  1  0  0  0  0
  4  6  1  0  0  0  0
  5 33  1  0  0  0  0
  5 34  1  0  0  0  0
  5 35  1  0  0  0  0
  6  7  2  3  0  0  0
  7  8  1  0  0  0  0
  7 36  1  0  0  0  0
  8  9  2  3  0  0  0
  8 37  1  0  0  0  0
  9 10  1  0  0  0  0
  9 38  1  0  0  0  0
 10 11  2  3  0  0  0
 10 39  1  0  0  0  0
 11 12  1  0  0  0  0
 11 40  1  0  0  0  0
 12 13  1  0  0  0  0
 12 27  2  3  0  0  0
 13 14  1  0  0  0  0
 13 41  1  0  0  0  0
 13 42  1  0  0  0  0
 14 15  1  0  0  0  0
 14 43  1  0  0  0  0
 14 44  1  0  0  0  0
 15 16  1  0  0  0  0
 15 45  1  0  0  0  0
 15 46  1  0  0  0  0
 16 17  1  0  0  0  0
 16 47  1  0  0  0  0
 16 48  1  0  0  0  0
 17 18  1  0  0  0  0
 17 49  1  0  0  0  0
 17 50  1  0  0  0  0
 18 19  1  0  0  0  0
 18 51  1  0  0  0  0
 18 52  1  0  0  0  0
 19 20  1  0  0  0  0
 19 53  1  0  0  0  0
 19 54  1  0  0  0  0
 20 21  1  0  0  0  0
 20 55  1  0  0  0  0
 20 56  1  0  0  0  0
 21 22  1  0  0  0  0
 21 57  1  0  0  0  0
 21 58  1  0  0  0  0
 22 23  1  0  0  0  0
 22 59  1  0  0  0  0
 22 60  1  0  0  0  0
 23 24  1  0  0  0  0
 23 61  1  0  0  0  0
 23 62  1  0  0  0  0
 24 25  1  0  0  0  0
 24 63  1  0  0  0  0
 24 64  1  0  0  0  0
 25 26  1  0  0  0  0
 25 65  1  0  0  0  0
 25 66  1  0  0  0  0
 26 67  1  0  0  0  0
 26 68  1  0  0  0  0
 26 69  1  0  0  0  0
 27 28  1  0  0  0  0
 27 70  1  0  0  0  0
 28 71  1  0  0  0  0
M  END
$$$$
