
 OpenBabel04232216493D

 79 79  0  0  0  0  0  0  0  0999 V2000
    0.3161   -1.3052    2.4751 C   0  0  0  0  0  0  0  0  0  0  0  0
   -0.0420   -0.6705    1.1659 C   0  0  0  0  0  0  0  0  0  0  0  0
    0.2914   -1.2454   -0.0603 C   0  0  0  0  0  0  0  0  0  0  0  0
   -0.0552   -0.6045   -1.2512 C   0  0  0  0  0  0  0  0  0  0  0  0
   -0.7381    0.6113   -1.2251 C   0  0  0  0  0  0  0  0  0  0  0  0
   -1.0916    1.1962   -0.0060 C   0  0  0  0  0  0  0  0  0  0  0  0
   -1.8382    2.5059    0.0124 C   0  0  0  0  0  0  0  0  0  0  0  0
   -0.8928    3.6970    0.0287 C   0  0  0  0  0  0  0  0  0  0  0  0
   -1.6447    5.0156    0.0414 C   0  0  0  0  0  0  0  0  0  0  0  0
   -0.6349    6.1527    0.0584 C   0  0  0  0  0  0  0  0  0  0  0  0
   -1.3667    7.4769    0.0716 C   0  0  0  0  0  0  0  0  0  0  0  0
   -0.3706    8.6186    0.0867 C   0  0  0  0  0  0  0  0  0  0  0  0
   -1.1143    9.9397    0.0997 C   0  0  0  0  0  0  0  0  0  0  0  0
   -0.1236   11.0872    0.1149 C   0  0  0  0  0  0  0  0  0  0  0  0
   -0.8677   12.4091    0.1279 C   0  0  0  0  0  0  0  0  0  0  0  0
    0.1228   13.5586    0.1431 C   0  0  0  0  0  0  0  0  0  0  0  0
   -0.6201   14.8827    0.1562 C   0  0  0  0  0  0  0  0  0  0  0  0
    0.3692   16.0361    0.1714 C   0  0  0  0  0  0  0  0  0  0  0  0
   -0.3728   17.3645    0.1866 C   0  0  0  0  0  0  0  0  0  0  0  0
    0.6133   18.5253    0.1998 C   0  0  0  0  0  0  0  0  0  0  0  0
   -0.1206   19.8668    0.2165 C   0  0  0  0  0  0  0  0  0  0  0  0
    0.8784   21.0245    0.2305 C   0  0  0  0  0  0  0  0  0  0  0  0
    0.2257   22.3776    0.2463 C   0  0  0  0  0  0  0  0  0  0  0  0
   -0.0920   23.0350    1.3324 C   0  0  0  0  0  0  0  0  0  0  0  0
   -0.3852   23.6292    2.3265 C   0  0  0  0  0  0  0  0  0  0  0  0
   -0.7035   24.2694    3.4248 C   0  0  0  0  0  0  0  0  0  0  0  0
   -1.3713   23.6340    4.6153 C   0  0  0  0  0  0  0  0  0  0  0  0
   -2.7288   24.2546    4.9609 C   0  0  0  0  0  0  0  0  0  0  0  0
   -3.7114   24.1234    3.8043 C   0  0  0  0  0  0  0  0  0  0  0  0
   -4.9608   24.7021    4.1488 O   0  0  0  0  0  0  0  0  0  0  0  0
   -0.7303    0.5468    1.1821 C   0  0  0  0  0  0  0  0  0  0  0  0
    0.8368   -2.2551    2.3314 H   0  0  0  0  0  0  0  0  0  0  0  0
   -0.5904   -1.4955    3.0608 H   0  0  0  0  0  0  0  0  0  0  0  0
    0.9704   -0.6370    3.0451 H   0  0  0  0  0  0  0  0  0  0  0  0
    0.8228   -2.1916   -0.0960 H   0  0  0  0  0  0  0  0  0  0  0  0
    0.2087   -1.0538   -2.2042 H   0  0  0  0  0  0  0  0  0  0  0  0
   -0.9993    1.1003   -2.1606 H   0  0  0  0  0  0  0  0  0  0  0  0
   -2.4910    2.5391    0.8921 H   0  0  0  0  0  0  0  0  0  0  0  0
   -2.4875    2.5633   -0.8727 H   0  0  0  0  0  0  0  0  0  0  0  0
   -0.2448    3.6790   -0.8539 H   0  0  0  0  0  0  0  0  0  0  0  0
   -0.2531    3.6566    0.9160 H   0  0  0  0  0  0  0  0  0  0  0  0
   -2.2909    5.0734    0.9258 H   0  0  0  0  0  0  0  0  0  0  0  0
   -2.2841    5.0941   -0.8465 H   0  0  0  0  0  0  0  0  0  0  0  0
    0.0181    6.0921   -0.8220 H   0  0  0  0  0  0  0  0  0  0  0  0
    0.0120    6.0711    0.9416 H   0  0  0  0  0  0  0  0  0  0  0  0
   -2.0151    7.5325    0.9543 H   0  0  0  0  0  0  0  0  0  0  0  0
   -2.0109    7.5524   -0.8128 H   0  0  0  0  0  0  0  0  0  0  0  0
    0.2787    8.5618   -0.7957 H   0  0  0  0  0  0  0  0  0  0  0  0
    0.2746    8.5420    0.9706 H   0  0  0  0  0  0  0  0  0  0  0  0
   -1.7642    9.9937    0.9819 H   0  0  0  0  0  0  0  0  0  0  0  0
   -1.7601   10.0134   -0.7841 H   0  0  0  0  0  0  0  0  0  0  0  0
    0.5257   11.0315   -0.7675 H   0  0  0  0  0  0  0  0  0  0  0  0
    0.5216   11.0117    0.9988 H   0  0  0  0  0  0  0  0  0  0  0  0
   -1.5175   12.4628    1.0101 H   0  0  0  0  0  0  0  0  0  0  0  0
   -1.5133   12.4826   -0.7559 H   0  0  0  0  0  0  0  0  0  0  0  0
    0.7723   13.5022   -0.7391 H   0  0  0  0  0  0  0  0  0  0  0  0
    0.7682   13.4825    1.0269 H   0  0  0  0  0  0  0  0  0  0  0  0
   -1.2700   14.9352    1.0383 H   0  0  0  0  0  0  0  0  0  0  0  0
   -1.2659   14.9550   -0.7276 H   0  0  0  0  0  0  0  0  0  0  0  0
    1.0179   15.9787   -0.7114 H   0  0  0  0  0  0  0  0  0  0  0  0
    1.0157   15.9574    1.0542 H   0  0  0  0  0  0  0  0  0  0  0  0
   -1.0207   17.4139    1.0702 H   0  0  0  0  0  0  0  0  0  0  0  0
   -1.0206   17.4341   -0.6958 H   0  0  0  0  0  0  0  0  0  0  0  0
    1.2605   18.4644   -0.6841 H   0  0  0  0  0  0  0  0  0  0  0  0
    1.2623   18.4428    1.0807 H   0  0  0  0  0  0  0  0  0  0  0  0
   -0.7674   19.9139    1.1015 H   0  0  0  0  0  0  0  0  0  0  0  0
   -0.7715   19.9351   -0.6633 H   0  0  0  0  0  0  0  0  0  0  0  0
    1.5221   20.9517   -0.6563 H   0  0  0  0  0  0  0  0  0  0  0  0
    1.5272   20.9281    1.1095 H   0  0  0  0  0  0  0  0  0  0  0  0
    0.0018   22.8392   -0.7109 H   0  0  0  0  0  0  0  0  0  0  0  0
   -0.4704   25.3279    3.4893 H   0  0  0  0  0  0  0  0  0  0  0  0
   -0.7051   23.7202    5.4829 H   0  0  0  0  0  0  0  0  0  0  0  0
   -1.5110   22.5644    4.4183 H   0  0  0  0  0  0  0  0  0  0  0  0
   -2.6164   25.3138    5.2297 H   0  0  0  0  0  0  0  0  0  0  0  0
   -3.1509   23.7704    5.8555 H   0  0  0  0  0  0  0  0  0  0  0  0
   -3.8738   23.0732    3.5413 H   0  0  0  0  0  0  0  0  0  0  0  0
   -3.3363   24.6436    2.9184 H   0  0  0  0  0  0  0  0  0  0  0  0
   -5.2970   24.2198    4.9218 H   0  0  0  0  0  0  0  0  0  0  0  0
   -0.9789    0.9658    2.1534 H   0  0  0  0  0  0  0  0  0  0  0  0
  1  2  1  0  0  0  0
  1 32  1  0  0  0  0
  1 33  1  0  0  0  0
  1 34  1  0  0  0  0
  2  3  1  0  0  0  0
  2 31  2  0  0  0  0
  3  4  2  0  0  0  0
  3 35  1  0  0  0  0
  4  5  1  0  0  0  0
  4 36  1  0  0  0  0
  5  6  2  0  0  0  0
  5 37  1  0  0  0  0
  6  7  1  0  0  0  0
  6 31  1  0  0  0  0
  7  8  1  0  0  0  0
  7 38  1  0  0  0  0
  7 39  1  0  0  0  0
  8  9  1  0  0  0  0
  8 40  1  0  0  0  0
  8 41  1  0  0  0  0
  9 10  1  0  0  0  0
  9 42  1  0  0  0  0
  9 43  1  0  0  0  0
 10 11  1  0  0  0  0
 10 44  1  0  0  0  0
 10 45  1  0  0  0  0
 11 12  1  0  0  0  0
 11 46  1  0  0  0  0
 11 47  1  0  0  0  0
 12 13  1  0  0  0  0
 12 48  1  0  0  0  0
 12 49  1  0  0  0  0
 13 14  1  0  0  0  0
 13 50  1  0  0  0  0
 13 51  1  0  0  0  0
 14 15  1  0  0  0  0
 14 52  1  0  0  0  0
 14 53  1  0  0  0  0
 15 16  1  0  0  0  0
 15 54  1  0  0  0  0
 15 55  1  0  0  0  0
 16 17  1  0  0  0  0
 16 56  1  0  0  0  0
 16 57  1  0  0  0  0
 17 18  1  0  0  0  0
 17 58  1  0  0  0  0
 17 59  1  0  0  0  0
 18 19  1  0  0  0  0
 18 60  1  0  0  0  0
 18 61  1  0  0  0  0
 19 20  1  0  0  0  0
 19 62  1  0  0  0  0
 19 63  1  0  0  0  0
 20 21  1  0  0  0  0
 20 64  1  0  0  0  0
 20 65  1  0  0  0  0
 21 22  1  0  0  0  0
 21 66  1  0  0  0  0
 21 67  1  0  0  0  0
 22 23  1  0  0  0  0
 22 68  1  0  0  0  0
 22 69  1  0  0  0  0
 23 24  2  0  0  0  0
 23 70  1  0  0  0  0
 24 25  2  0  0  0  0
 25 26  2  0  0  0  0
 26 27  1  0  0  0  0
 26 71  1  0  0  0  0
 27 28  1  0  0  0  0
 27 72  1  0  0  0  0
 27 73  1  0  0  0  0
 28 29  1  0  0  0  0
 28 74  1  0  0  0  0
 28 75  1  0  0  0  0
 29 30  1  0  0  0  0
 29 76  1  0  0  0  0
 29 77  1  0  0  0  0
 30 78  1  0  0  0  0
 31 79  1  0  0  0  0
M  END
$$$$
