
 OpenBabel04232216473D

 59 60  0  0  0  0  0  0  0  0999 V2000
    1.0260    3.4675   -2.9887 C   0  0  0  0  0  0  0  0  0  0  0  0
    1.7361    3.5694   -4.2608 C   0  0  0  0  0  0  0  0  0  0  0  0
    2.7733    4.4689   -4.6718 C   0  0  0  0  0  0  0  0  0  0  0  0
    2.7607    3.8285   -5.8549 C   0  0  0  0  0  0  0  0  0  0  0  0
    3.3201    3.8209   -7.0228 N   0  0  0  0  0  0  0  0  0  0  0  0
    4.4902    4.6247   -7.3624 C   0  0  0  0  0  0  0  0  0  0  0  0
    5.7625    3.9024   -6.9108 C   0  0  0  0  0  0  0  0  0  0  0  0
    7.0875    4.6054   -7.2706 C   0  0  0  0  0  0  0  0  0  0  0  0
    8.2688    3.7452   -6.7656 C   0  0  0  0  0  0  0  0  0  0  0  0
    9.6925    4.3048   -7.0287 C   0  0  0  0  0  0  0  0  0  0  0  0
   10.7859    3.3345   -6.4590 C   0  0  0  0  0  0  0  0  0  0  0  0
   12.3450    3.7270   -6.5263 C   0  0  0  0  0  0  0  0  0  0  0  0
   12.8242    3.8113   -7.9492 C   0  0  0  0  0  0  0  0  0  0  0  0
   11.9055    3.5227   -8.7498 O   0  0  0  0  0  0  0  0  0  0  0  0
   14.3821    4.3760   -8.4867 C   0  0  0  0  0  0  0  0  0  0  0  0
   15.6294    4.8433   -8.9716 C   0  0  0  0  0  0  0  0  0  0  0  0
   15.9693    5.3453  -10.4724 C   0  0  0  0  0  0  0  0  0  0  0  0
   15.1038    5.9876  -11.3429 C   0  0  0  0  0  0  0  0  0  0  0  0
   15.0949    5.8704  -12.8836 C   0  0  0  0  0  0  0  0  0  0  0  0
   14.9929    7.1834  -13.6771 C   0  0  0  0  0  0  0  0  0  0  0  0
   16.2447    8.0179  -13.5347 C   0  0  0  0  0  0  0  0  0  0  0  0
   13.7510    6.5243  -10.9257 C   0  0  0  0  0  0  0  0  0  0  0  0
   13.1784    5.6900   -9.8326 C   0  0  0  0  0  0  0  0  0  0  0  0
   13.7753    4.2496   -9.8646 C   0  0  0  0  0  0  0  0  0  0  0  0
    1.7530    2.9470   -5.3859 N   0  0  0  0  0  0  0  0  0  0  0  0
    1.3194    4.2909   -2.3305 H   0  0  0  0  0  0  0  0  0  0  0  0
    1.2642    2.5198   -2.4941 H   0  0  0  0  0  0  0  0  0  0  0  0
   -0.0514    3.5158   -3.1599 H   0  0  0  0  0  0  0  0  0  0  0  0
    3.3339    5.2993   -4.2693 H   0  0  0  0  0  0  0  0  0  0  0  0
    3.1112    3.0617   -7.6664 H   0  0  0  0  0  0  0  0  0  0  0  0
    4.4173    5.6175   -6.9010 H   0  0  0  0  0  0  0  0  0  0  0  0
    4.5058    4.7765   -8.4472 H   0  0  0  0  0  0  0  0  0  0  0  0
    5.7630    2.8974   -7.3512 H   0  0  0  0  0  0  0  0  0  0  0  0
    5.7227    3.7651   -5.8228 H   0  0  0  0  0  0  0  0  0  0  0  0
    7.1193    5.6005   -6.8113 H   0  0  0  0  0  0  0  0  0  0  0  0
    7.1521    4.7420   -8.3568 H   0  0  0  0  0  0  0  0  0  0  0  0
    8.1841    2.7538   -7.2300 H   0  0  0  0  0  0  0  0  0  0  0  0
    8.1447    3.5991   -5.6859 H   0  0  0  0  0  0  0  0  0  0  0  0
    9.7882    5.2890   -6.5613 H   0  0  0  0  0  0  0  0  0  0  0  0
    9.7994    4.4429   -8.1109 H   0  0  0  0  0  0  0  0  0  0  0  0
   10.6421    2.3663   -6.9658 H   0  0  0  0  0  0  0  0  0  0  0  0
   10.5428    3.1583   -5.4055 H   0  0  0  0  0  0  0  0  0  0  0  0
   12.8867    2.9006   -6.0560 H   0  0  0  0  0  0  0  0  0  0  0  0
   12.5048    4.6662   -6.0002 H   0  0  0  0  0  0  0  0  0  0  0  0
   16.4968    4.9690   -8.3279 H   0  0  0  0  0  0  0  0  0  0  0  0
   16.8637    4.8722  -10.8853 H   0  0  0  0  0  0  0  0  0  0  0  0
   14.1745    5.3130  -13.1454 H   0  0  0  0  0  0  0  0  0  0  0  0
   15.9021    5.2405  -13.2646 H   0  0  0  0  0  0  0  0  0  0  0  0
   14.1178    7.7740  -13.3730 H   0  0  0  0  0  0  0  0  0  0  0  0
   14.8327    6.9510  -14.7394 H   0  0  0  0  0  0  0  0  0  0  0  0
   16.3658    8.3581  -12.5029 H   0  0  0  0  0  0  0  0  0  0  0  0
   16.1919    8.8975  -14.1827 H   0  0  0  0  0  0  0  0  0  0  0  0
   17.1230    7.4317  -13.8193 H   0  0  0  0  0  0  0  0  0  0  0  0
   13.0065    6.4758  -11.7248 H   0  0  0  0  0  0  0  0  0  0  0  0
   13.8513    7.5763  -10.6379 H   0  0  0  0  0  0  0  0  0  0  0  0
   12.0938    5.7154   -9.7675 H   0  0  0  0  0  0  0  0  0  0  0  0
   13.4863    6.2678   -8.9277 H   0  0  0  0  0  0  0  0  0  0  0  0
   14.4039    3.9665  -10.7179 H   0  0  0  0  0  0  0  0  0  0  0  0
   13.3078    3.2623   -9.9660 H   0  0  0  0  0  0  0  0  0  0  0  0
  1  2  1  0  0  0  0
  1 26  1  0  0  0  0
  1 27  1  0  0  0  0
  1 28  1  0  0  0  0
  2  3  1  0  0  0  0
  2 25  2  0  0  0  0
  3  4  2  0  0  0  0
  3 29  1  0  0  0  0
  4  5  1  0  0  0  0
  4 25  1  0  0  0  0
  5  6  1  0  0  0  0
  5 30  1  0  0  0  0
  6  7  1  0  0  0  0
  6 31  1  0  0  0  0
  6 32  1  0  0  0  0
  7  8  1  0  0  0  0
  7 33  1  0  0  0  0
  7 34  1  0  0  0  0
  8  9  1  0  0  0  0
  8 35  1  0  0  0  0
  8 36  1  0  0  0  0
  9 10  1  0  0  0  0
  9 37  1  0  0  0  0
  9 38  1  0  0  0  0
 10 11  1  0  0  0  0
 10 39  1  0  0  0  0
 10 40  1  0  0  0  0
 11 12  1  0  0  0  0
 11 41  1  0  0  0  0
 11 42  1  0  0  0  0
 12 13  1  0  0  0  0
 12 43  1  0  0  0  0
 12 44  1  0  0  0  0
 13 14  2  0  0  0  0
 13 15  1  0  0  0  0
 15 16  2  0  0  0  0
 15 24  1  0  0  0  0
 16 17  1  0  0  0  0
 16 45  1  0  0  0  0
 17 18  2  0  0  0  0
 17 46  1  0  0  0  0
 18 19  1  0  0  0  0
 18 22  1  0  0  0  0
 19 20  1  0  0  0  0
 19 47  1  0  0  0  0
 19 48  1  0  0  0  0
 20 21  1  0  0  0  0
 20 49  1  0  0  0  0
 20 50  1  0  0  0  0
 21 51  1  0  0  0  0
 21 52  1  0  0  0  0
 21 53  1  0  0  0  0
 22 23  1  0  0  0  0
 22 54  1  0  0  0  0
 22 55  1  0  0  0  0
 23 24  1  0  0  0  0
 23 56  1  0  0  0  0
 23 57  1  0  0  0  0
 24 58  1  0  0  0  0
 24 59  1  0  0  0  0
M  END
$$$$
