
 OpenBabel04232216473D

102104  0  0  0  0  0  0  0  0999 V2000
    6.0435    0.4663   -0.2044 C   0  0  0  0  0  0  0  0  0  0  0  0
    7.8666   -0.4481    0.5096 C   0  0  0  0  0  0  0  0  0  0  0  0
    9.6927   -1.2342    0.9088 C   0  0  0  0  0  0  0  0  0  0  0  0
   11.5161   -2.3574    1.6555 C   0  0  0  0  0  0  0  0  0  0  0  0
   13.5026   -3.4797    1.6333 N   0  0  0  0  0  0  0  0  0  0  0  0
   11.5745   -4.0215    1.1401 N   0  0  0  0  0  0  0  0  0  0  0  0
    9.9788   -3.3185    0.0897 C   0  0  0  0  0  0  0  0  0  0  0  0
   10.4270   -2.0041   -0.8939 C   0  0  0  0  0  0  0  0  0  0  0  0
   11.1714   -3.2510   -1.0746 C   0  0  0  0  0  0  0  0  0  0  0  0
   12.4041   -2.4375   -0.6932 C   0  0  0  0  0  0  0  0  0  0  0  0
   13.3941   -3.4852   -0.6850 C   0  0  0  0  0  0  0  0  0  0  0  0
   14.5303   -2.4106   -0.4354 C   0  0  0  0  0  0  0  0  0  0  0  0
   15.5228   -3.3895   -0.4957 C   0  0  0  0  0  0  0  0  0  0  0  0
   16.8989   -3.0529   -0.3223 C   0  0  0  0  0  0  0  0  0  0  0  0
   17.6208   -4.2951   -0.5562 C   0  0  0  0  0  0  0  0  0  0  0  0
   18.9667   -3.8421   -0.4288 C   0  0  0  0  0  0  0  0  0  0  0  0
   19.6635   -5.0623   -0.8973 C   0  0  0  0  0  0  0  0  0  0  0  0
   20.9705   -4.2306   -0.3326 C   0  0  0  0  0  0  0  0  0  0  0  0
   22.2025   -4.8015    0.0588 C   0  0  0  0  0  0  0  0  0  0  0  0
   23.5863   -4.3346   -0.0049 C   0  0  0  0  0  0  0  0  0  0  0  0
   24.7151   -5.2659    0.0279 C   0  0  0  0  0  0  0  0  0  0  0  0
   26.0623   -4.6463   -0.1427 C   0  0  0  0  0  0  0  0  0  0  0  0
   26.8101   -5.8417   -0.2773 C   0  0  0  0  0  0  0  0  0  0  0  0
   28.2496   -5.9656   -0.2322 C   0  0  0  0  0  0  0  0  0  0  0  0
   27.5382   -7.6817   -0.0966 C   0  0  0  0  0  0  0  0  0  0  0  0
   25.5772   -7.4541    0.8655 C   0  0  0  0  0  0  0  0  0  0  0  0
   23.2170   -6.9416    1.0366 C   0  0  0  0  0  0  0  0  0  0  0  0
   20.7543   -6.3574    1.2250 C   0  0  0  0  0  0  0  0  0  0  0  0
   18.3618   -5.3704    1.4775 C   0  0  0  0  0  0  0  0  0  0  0  0
   15.8752   -4.5963    1.5126 C   0  0  0  0  0  0  0  0  0  0  0  0
    9.3852   -1.8669    1.9796 C   0  0  0  0  0  0  0  0  0  0  0  0
    7.5636   -1.9953    2.7716 C   0  0  0  0  0  0  0  0  0  0  0  0
    5.8534   -1.6604    2.9968 C   0  0  0  0  0  0  0  0  0  0  0  0
    4.2982   -0.9722    2.7662 C   0  0  0  0  0  0  0  0  0  0  0  0
    2.4659   -0.8546    3.6747 C   0  0  0  0  0  0  0  0  0  0  0  0
    2.4363   -1.5437    5.0659 C   0  0  0  0  0  0  0  0  0  0  0  0
    5.4135   -0.5755    1.8064 C   0  0  0  0  0  0  0  0  0  0  0  0
    3.4510    0.2344    1.3973 C   0  0  0  0  0  0  0  0  0  0  0  0
    7.4523   -1.0694    1.5980 N   0  0  0  0  0  0  0  0  0  0  0  0
    5.2547    1.2363   -1.1619 H   0  0  0  0  0  0  0  0  0  0  0  0
    5.0039    1.3125    0.3682 H   0  0  0  0  0  0  0  0  0  0  0  0
    4.6523    0.0427   -0.4223 H   0  0  0  0  0  0  0  0  0  0  0  0
    9.2754   -0.6110   -0.1451 H   0  0  0  0  0  0  0  0  0  0  0  0
   10.4769   -3.5403    1.5635 H   0  0  0  0  0  0  0  0  0  0  0  0
    8.8828   -3.0211   -0.6022 H   0  0  0  0  0  0  0  0  0  0  0  0
    8.8809   -3.5033    0.7262 H   0  0  0  0  0  0  0  0  0  0  0  0
   10.9412   -0.9594   -0.3514 H   0  0  0  0  0  0  0  0  0  0  0  0
    9.6236   -1.4685   -1.5415 H   0  0  0  0  0  0  0  0  0  0  0  0
   10.6323   -3.6545   -1.9253 H   0  0  0  0  0  0  0  0  0  0  0  0
   11.0085   -4.5083   -0.5204 H   0  0  0  0  0  0  0  0  0  0  0  0
   12.6439   -1.6708    0.2263 H   0  0  0  0  0  0  0  0  0  0  0  0
   12.4559   -1.6011   -1.3866 H   0  0  0  0  0  0  0  0  0  0  0  0
   13.2100   -4.0766   -1.5743 H   0  0  0  0  0  0  0  0  0  0  0  0
   13.3722   -4.4852   -0.0331 H   0  0  0  0  0  0  0  0  0  0  0  0
   14.6000   -1.8469    0.5776 H   0  0  0  0  0  0  0  0  0  0  0  0
   14.5492   -1.7304   -1.2492 H   0  0  0  0  0  0  0  0  0  0  0  0
   15.3815   -4.1756   -1.2236 H   0  0  0  0  0  0  0  0  0  0  0  0
   15.0662   -3.7071    0.3884 H   0  0  0  0  0  0  0  0  0  0  0  0
   17.1196   -2.5988    0.6692 H   0  0  0  0  0  0  0  0  0  0  0  0
   17.0710   -2.4984   -1.2112 H   0  0  0  0  0  0  0  0  0  0  0  0
   17.3980   -5.0457   -1.3215 H   0  0  0  0  0  0  0  0  0  0  0  0
   17.4532   -4.9856    0.1969 H   0  0  0  0  0  0  0  0  0  0  0  0
   19.1366   -3.4971    0.6692 H   0  0  0  0  0  0  0  0  0  0  0  0
   19.2247   -3.0286   -1.0769 H   0  0  0  0  0  0  0  0  0  0  0  0
   19.7660   -5.8082   -1.6957 H   0  0  0  0  0  0  0  0  0  0  0  0
   18.7173   -6.0519   -0.6823 H   0  0  0  0  0  0  0  0  0  0  0  0
   20.9089   -3.6756    0.6498 H   0  0  0  0  0  0  0  0  0  0  0  0
   21.3681   -3.7025   -1.1769 H   0  0  0  0  0  0  0  0  0  0  0  0
   22.1253   -5.6024   -0.7139 H   0  0  0  0  0  0  0  0  0  0  0  0
   22.0286   -4.8149    1.3083 H   0  0  0  0  0  0  0  0  0  0  0  0
   23.7919   -4.0485    1.0307 H   0  0  0  0  0  0  0  0  0  0  0  0
   23.7434   -4.1866   -1.0529 H   0  0  0  0  0  0  0  0  0  0  0  0
   24.6120   -6.0180   -0.7978 H   0  0  0  0  0  0  0  0  0  0  0  0
   24.7820   -5.5692    1.1030 H   0  0  0  0  0  0  0  0  0  0  0  0
   26.5032   -4.3462    0.8581 H   0  0  0  0  0  0  0  0  0  0  0  0
   26.3265   -4.4874   -1.1587 H   0  0  0  0  0  0  0  0  0  0  0  0
   26.4397   -6.6558   -1.0805 H   0  0  0  0  0  0  0  0  0  0  0  0
   26.5611   -5.9102    0.8613 H   0  0  0  0  0  0  0  0  0  0  0  0
   28.6080   -5.4698    0.7055 H   0  0  0  0  0  0  0  0  0  0  0  0
   28.7689   -5.5796   -1.1491 H   0  0  0  0  0  0  0  0  0  0  0  0
   28.5648   -8.1290   -1.0137 H   0  0  0  0  0  0  0  0  0  0  0  0
   28.6099   -8.2376    0.5688 H   0  0  0  0  0  0  0  0  0  0  0  0
   26.7949   -7.1994    1.7501 H   0  0  0  0  0  0  0  0  0  0  0  0
   27.0999   -7.3054    0.8955 H   0  0  0  0  0  0  0  0  0  0  0  0
   24.0597   -7.5323    0.0097 H   0  0  0  0  0  0  0  0  0  0  0  0
   24.2584   -8.0493    1.3596 H   0  0  0  0  0  0  0  0  0  0  0  0
   22.2667   -6.1690    0.9599 H   0  0  0  0  0  0  0  0  0  0  0  0
   21.4731   -7.0028    0.1606 H   0  0  0  0  0  0  0  0  0  0  0  0
   19.2247   -6.5207    1.0160 H   0  0  0  0  0  0  0  0  0  0  0  0
   19.2613   -5.8800    0.5554 H   0  0  0  0  0  0  0  0  0  0  0  0
   15.4838   -5.6159    1.2760 H   0  0  0  0  0  0  0  0  0  0  0  0
   15.9032   -5.0793    0.3567 H   0  0  0  0  0  0  0  0  0  0  0  0
    7.2027   -1.6796    3.7718 H   0  0  0  0  0  0  0  0  0  0  0  0
    5.0661   -1.6193    3.8723 H   0  0  0  0  0  0  0  0  0  0  0  0
    1.3554   -1.3063    3.3081 H   0  0  0  0  0  0  0  0  0  0  0  0
    1.7373    0.1357    4.0838 H   0  0  0  0  0  0  0  0  0  0  0  0
    2.7325   -2.5401    4.7989 H   0  0  0  0  0  0  0  0  0  0  0  0
    1.5232   -1.6816    5.7232 H   0  0  0  0  0  0  0  0  0  0  0  0
    3.1086   -0.9455    5.6607 H   0  0  0  0  0  0  0  0  0  0  0  0
    2.2072    0.1433    2.1418 H   0  0  0  0  0  0  0  0  0  0  0  0
    2.1458   -0.0171    0.7333 H   0  0  0  0  0  0  0  0  0  0  0  0
    2.6174    1.3991    1.6150 H   0  0  0  0  0  0  0  0  0  0  0  0
  1  2  1  0  0  0  0
  1 40  1  0  0  0  0
  1 41  1  0  0  0  0
  1 42  1  0  0  0  0
  2  3  2  0  0  0  0
  2 39  1  0  0  0  0
  3  4  1  0  0  0  0
  3 43  1  0  0  0  0
  4  5  1  0  0  0  0
  4 31  2  0  0  0  0
  5  6  1  0  0  0  0
  5 30  1  0  0  0  0
  6  7  1  0  0  0  0
  6 44  1  0  0  0  0
  7  8  1  0  0  0  0
  7 45  1  0  0  0  0
  7 46  1  0  0  0  0
  8  9  1  0  0  0  0
  8 47  1  0  0  0  0
  8 48  1  0  0  0  0
  9 10  1  0  0  0  0
  9 49  1  0  0  0  0
  9 50  1  0  0  0  0
 10 11  1  0  0  0  0
 10 51  1  0  0  0  0
 10 52  1  0  0  0  0
 11 12  1  0  0  0  0
 11 53  1  0  0  0  0
 11 54  1  0  0  0  0
 12 13  1  0  0  0  0
 12 55  1  0  0  0  0
 12 56  1  0  0  0  0
 13 14  1  0  0  0  0
 13 57  1  0  0  0  0
 13 58  1  0  0  0  0
 14 15  1  0  0  0  0
 14 59  1  0  0  0  0
 14 60  1  0  0  0  0
 15 16  1  0  0  0  0
 15 61  1  0  0  0  0
 15 62  1  0  0  0  0
 16 17  1  0  0  0  0
 16 63  1  0  0  0  0
 16 64  1  0  0  0  0
 17 18  1  0  0  0  0
 17 65  1  0  0  0  0
 17 66  1  0  0  0  0
 18 19  1  0  0  0  0
 18 67  1  0  0  0  0
 18 68  1  0  0  0  0
 19 20  1  0  0  0  0
 19 69  1  0  0  0  0
 19 70  1  0  0  0  0
 20 21  1  0  0  0  0
 20 71  1  0  0  0  0
 20 72  1  0  0  0  0
 21 22  1  0  0  0  0
 21 73  1  0  0  0  0
 21 74  1  0  0  0  0
 22 23  1  0  0  0  0
 22 75  1  0  0  0  0
 22 76  1  0  0  0  0
 23 24  1  0  0  0  0
 23 77  1  0  0  0  0
 23 78  1  0  0  0  0
 24 25  1  0  0  0  0
 24 79  1  0  0  0  0
 24 80  1  0  0  0  0
 25 26  1  0  0  0  0
 25 81  1  0  0  0  0
 25 82  1  0  0  0  0
 26 27  1  0  0  0  0
 26 83  1  0  0  0  0
 26 84  1  0  0  0  0
 27 28  1  0  0  0  0
 27 85  1  0  0  0  0
 27 86  1  0  0  0  0
 28 29  1  0  0  0  0
 28 87  1  0  0  0  0
 28 88  1  0  0  0  0
 29 30  1  0  0  0  0
 29 89  1  0  0  0  0
 29 90  1  0  0  0  0
 30 91  1  0  0  0  0
 30 92  1  0  0  0  0
 31 32  1  0  0  0  0
 31 39  1  0  0  0  0
 32 33  2  0  0  0  0
 32 93  1  0  0  0  0
 33 34  1  0  0  0  0
 33 94  1  0  0  0  0
 34 35  1  0  0  0  0
 34 37  2  0  0  0  0
 35 36  1  0  0  0  0
 35 95  1  0  0  0  0
 35 96  1  0  0  0  0
 36 97  1  0  0  0  0
 36 98  1  0  0  0  0
 36 99  1  0  0  0  0
 37 38  1  0  0  0  0
 37 39  1  0  0  0  0
 38100  1  0  0  0  0
 38101  1  0  0  0  0
 38102  1  0  0  0  0
M  END
$$$$
