
 OpenBabel04232216533D

244243  0  0  0  0  0  0  0  0999 V2000
    0.9726   -0.0271   -0.0872 C   0  0  0  0  0  0  0  0  0  0  0  0
    2.4890   -0.0147   -0.0810 C   0  0  0  0  0  0  0  0  0  0  0  0
    3.0224    1.3502   -0.5040 C   0  0  0  0  0  0  0  0  0  0  0  0
    4.5463    1.3663   -0.5006 C   0  0  0  0  0  0  0  0  0  0  0  0
    5.0633    2.7346   -0.9256 C   0  0  0  0  0  0  0  0  0  0  0  0
    6.5846    2.7529   -0.9238 C   0  0  0  0  0  0  0  0  0  0  0  0
    7.0982    4.1203   -1.3495 C   0  0  0  0  0  0  0  0  0  0  0  0
    8.6173    4.1334   -1.3463 C   0  0  0  0  0  0  0  0  0  0  0  0
    9.1410    5.4986   -1.7699 C   0  0  0  0  0  0  0  0  0  0  0  0
   10.6606    5.4843   -1.7630 C   0  0  0  0  0  0  0  0  0  0  0  0
   11.1481    6.7939   -2.1708 N   0  0  0  0  0  0  0  0  0  0  0  0
   12.6055    6.7984   -2.1638 C   0  0  0  0  0  0  0  0  0  0  0  0
   13.0962    8.1715   -2.5912 C   0  0  0  0  0  0  0  0  0  0  0  0
   14.6161    8.1876   -2.5898 C   0  0  0  0  0  0  0  0  0  0  0  0
   15.1298    9.5508   -3.0154 C   0  0  0  0  0  0  0  0  0  0  0  0
   16.6486    9.5566   -3.0098 C   0  0  0  0  0  0  0  0  0  0  0  0
   17.1638   10.9191   -3.4363 C   0  0  0  0  0  0  0  0  0  0  0  0
   18.6817   10.9259   -3.4301 C   0  0  0  0  0  0  0  0  0  0  0  0
   19.1934   12.2893   -3.8552 C   0  0  0  0  0  0  0  0  0  0  0  0
   20.7110   12.2970   -3.8505 C   0  0  0  0  0  0  0  0  0  0  0  0
   21.2217   13.6603   -4.2770 C   0  0  0  0  0  0  0  0  0  0  0  0
   22.7387   13.6676   -4.2716 C   0  0  0  0  0  0  0  0  0  0  0  0
   23.2493   15.0301   -4.7005 C   0  0  0  0  0  0  0  0  0  0  0  0
   24.7661   15.0366   -4.6968 C   0  0  0  0  0  0  0  0  0  0  0  0
   25.2762   16.3991   -5.1257 C   0  0  0  0  0  0  0  0  0  0  0  0
   26.7930   16.4055   -5.1232 C   0  0  0  0  0  0  0  0  0  0  0  0
   27.3027   17.7680   -5.5520 C   0  0  0  0  0  0  0  0  0  0  0  0
   28.8194   17.7742   -5.5494 C   0  0  0  0  0  0  0  0  0  0  0  0
   29.3296   19.1364   -5.9785 C   0  0  0  0  0  0  0  0  0  0  0  0
   30.8462   19.1417   -5.9760 C   0  0  0  0  0  0  0  0  0  0  0  0
   31.3566   20.5040   -6.4048 C   0  0  0  0  0  0  0  0  0  0  0  0
   32.8732   20.5093   -6.4025 C   0  0  0  0  0  0  0  0  0  0  0  0
   33.3833   21.8716   -6.8314 C   0  0  0  0  0  0  0  0  0  0  0  0
   34.8999   21.8767   -6.8308 C   0  0  0  0  0  0  0  0  0  0  0  0
   35.4098   23.2390   -7.2597 C   0  0  0  0  0  0  0  0  0  0  0  0
   36.9259   23.2431   -7.2607 C   0  0  0  0  0  0  0  0  0  0  0  0
   37.4369   24.6050   -7.6904 C   0  0  0  0  0  0  0  0  0  0  0  0
   38.9532   24.6086   -7.6915 C   0  0  0  0  0  0  0  0  0  0  0  0
   39.4630   25.9707   -8.1206 C   0  0  0  0  0  0  0  0  0  0  0  0
   40.9799   25.9766   -8.1216 C   0  0  0  0  0  0  0  0  0  0  0  0
   41.4890   27.3389   -8.5517 C   0  0  0  0  0  0  0  0  0  0  0  0
   43.0059   27.3429   -8.5538 C   0  0  0  0  0  0  0  0  0  0  0  0
   43.5156   28.7049   -8.9847 C   0  0  0  0  0  0  0  0  0  0  0  0
   45.0325   28.7100   -8.9866 C   0  0  0  0  0  0  0  0  0  0  0  0
   45.5424   30.0722   -9.4172 C   0  0  0  0  0  0  0  0  0  0  0  0
   47.0591   30.0757   -9.4185 C   0  0  0  0  0  0  0  0  0  0  0  0
   47.5683   31.4397   -9.8495 C   0  0  0  0  0  0  0  0  0  0  0  0
   49.0863   31.4425   -9.8507 C   0  0  0  0  0  0  0  0  0  0  0  0
   49.5961   32.8044  -10.2818 C   0  0  0  0  0  0  0  0  0  0  0  0
   51.1127   32.8085  -10.2851 C   0  0  0  0  0  0  0  0  0  0  0  0
   51.6228   34.1704  -10.7162 C   0  0  0  0  0  0  0  0  0  0  0  0
   53.1395   34.1738  -10.7212 C   0  0  0  0  0  0  0  0  0  0  0  0
   53.6496   35.5361  -11.1502 C   0  0  0  0  0  0  0  0  0  0  0  0
   55.1662   35.5399  -11.1540 C   0  0  0  0  0  0  0  0  0  0  0  0
   55.6762   36.9029  -11.5810 C   0  0  0  0  0  0  0  0  0  0  0  0
   57.1929   36.9063  -11.5859 C   0  0  0  0  0  0  0  0  0  0  0  0
   57.7029   38.2698  -12.0112 C   0  0  0  0  0  0  0  0  0  0  0  0
   59.2196   38.2737  -12.0144 C   0  0  0  0  0  0  0  0  0  0  0  0
   59.7296   39.6374  -12.4393 C   0  0  0  0  0  0  0  0  0  0  0  0
   61.2462   39.6419  -12.4408 C   0  0  0  0  0  0  0  0  0  0  0  0
   61.7563   41.0055  -12.8656 C   0  0  0  0  0  0  0  0  0  0  0  0
   63.2729   41.0101  -12.8667 C   0  0  0  0  0  0  0  0  0  0  0  0
   63.7830   42.3737  -13.2920 C   0  0  0  0  0  0  0  0  0  0  0  0
   65.2996   42.3782  -13.2935 C   0  0  0  0  0  0  0  0  0  0  0  0
   65.8096   43.7418  -13.7187 C   0  0  0  0  0  0  0  0  0  0  0  0
   67.3263   43.7466  -13.7202 C   0  0  0  0  0  0  0  0  0  0  0  0
   67.8364   45.1102  -14.1452 C   0  0  0  0  0  0  0  0  0  0  0  0
   69.3532   45.1152  -14.1464 C   0  0  0  0  0  0  0  0  0  0  0  0
   69.8636   46.4788  -14.5716 C   0  0  0  0  0  0  0  0  0  0  0  0
   71.3805   46.4845  -14.5714 C   0  0  0  0  0  0  0  0  0  0  0  0
   71.8916   47.8483  -14.9965 C   0  0  0  0  0  0  0  0  0  0  0  0
   73.4091   47.8547  -14.9968 C   0  0  0  0  0  0  0  0  0  0  0  0
   73.9212   49.2180  -15.4213 C   0  0  0  0  0  0  0  0  0  0  0  0
   75.4387   49.2252  -15.4218 C   0  0  0  0  0  0  0  0  0  0  0  0
   75.9541   50.5894  -15.8468 C   0  0  0  0  0  0  0  0  0  0  0  0
   77.4733   50.5975  -15.8496 C   0  0  0  0  0  0  0  0  0  0  0  0
   77.9907   51.9616  -16.2746 C   0  0  0  0  0  0  0  0  0  0  0  0
   79.5126   51.9730  -16.2776 C   0  0  0  0  0  0  0  0  0  0  0  0
   80.0310   53.3415  -16.7031 C   0  0  0  0  0  0  0  0  0  0  0  0
   81.5546   53.3660  -16.7100 C   0  0  0  0  0  0  0  0  0  0  0  0
   82.0682   54.7308  -17.1319 C   0  0  0  0  0  0  0  0  0  0  0  0
    0.5990   -1.0085    0.2170 H   0  0  0  0  0  0  0  0  0  0  0  0
    0.5853    0.1920   -1.0884 H   0  0  0  0  0  0  0  0  0  0  0  0
    0.5735    0.7217    0.6053 H   0  0  0  0  0  0  0  0  0  0  0  0
    2.8641   -0.7879   -0.7612 H   0  0  0  0  0  0  0  0  0  0  0  0
    2.8527   -0.2611    0.9238 H   0  0  0  0  0  0  0  0  0  0  0  0
    2.6452    2.1230    0.1776 H   0  0  0  0  0  0  0  0  0  0  0  0
    2.6544    1.5970   -1.5075 H   0  0  0  0  0  0  0  0  0  0  0  0
    4.9283    0.5983   -1.1833 H   0  0  0  0  0  0  0  0  0  0  0  0
    4.9192    1.1250    0.5017 H   0  0  0  0  0  0  0  0  0  0  0  0
    4.6840    3.5048   -0.2434 H   0  0  0  0  0  0  0  0  0  0  0  0
    4.6923    2.9783   -1.9283 H   0  0  0  0  0  0  0  0  0  0  0  0
    6.9675    1.9840   -1.6062 H   0  0  0  0  0  0  0  0  0  0  0  0
    6.9592    2.5116    0.0787 H   0  0  0  0  0  0  0  0  0  0  0  0
    6.7183    4.8908   -0.6671 H   0  0  0  0  0  0  0  0  0  0  0  0
    6.7264    4.3630   -2.3526 H   0  0  0  0  0  0  0  0  0  0  0  0
    8.9973    3.3628   -2.0288 H   0  0  0  0  0  0  0  0  0  0  0  0
    8.9894    3.8892   -0.3436 H   0  0  0  0  0  0  0  0  0  0  0  0
    8.7646    6.2687   -1.0849 H   0  0  0  0  0  0  0  0  0  0  0  0
    8.7700    5.7447   -2.7726 H   0  0  0  0  0  0  0  0  0  0  0  0
   11.0226    4.7147   -2.4552 H   0  0  0  0  0  0  0  0  0  0  0  0
   11.0235    5.2360   -0.7577 H   0  0  0  0  0  0  0  0  0  0  0  0
   10.7968    7.5081   -1.5330 H   0  0  0  0  0  0  0  0  0  0  0  0
   12.9869    6.0416   -2.8584 H   0  0  0  0  0  0  0  0  0  0  0  0
   12.9837    6.5651   -1.1623 H   0  0  0  0  0  0  0  0  0  0  0  0
   12.7161    8.9417   -1.9082 H   0  0  0  0  0  0  0  0  0  0  0  0
   12.7220    8.4122   -3.5943 H   0  0  0  0  0  0  0  0  0  0  0  0
   14.9977    7.4173   -3.2715 H   0  0  0  0  0  0  0  0  0  0  0  0
   14.9901    7.9460   -1.5871 H   0  0  0  0  0  0  0  0  0  0  0  0
   14.7515   10.3224   -2.3337 H   0  0  0  0  0  0  0  0  0  0  0  0
   14.7595    9.7933   -4.0189 H   0  0  0  0  0  0  0  0  0  0  0  0
   17.0283    8.7846   -3.6904 H   0  0  0  0  0  0  0  0  0  0  0  0
   17.0199    9.3149   -2.0062 H   0  0  0  0  0  0  0  0  0  0  0  0
   16.7846   11.6916   -2.7560 H   0  0  0  0  0  0  0  0  0  0  0  0
   16.7939   11.1607   -4.4403 H   0  0  0  0  0  0  0  0  0  0  0  0
   19.0618   10.1548   -4.1115 H   0  0  0  0  0  0  0  0  0  0  0  0
   19.0528   10.6838   -2.4266 H   0  0  0  0  0  0  0  0  0  0  0  0
   18.8144   13.0607   -3.1735 H   0  0  0  0  0  0  0  0  0  0  0  0
   18.8222   12.5323   -4.8585 H   0  0  0  0  0  0  0  0  0  0  0  0
   21.0908   11.5257   -4.5319 H   0  0  0  0  0  0  0  0  0  0  0  0
   21.0830   12.0555   -2.8472 H   0  0  0  0  0  0  0  0  0  0  0  0
   20.8419   14.4321   -3.5962 H   0  0  0  0  0  0  0  0  0  0  0  0
   20.8505   13.9016   -5.2807 H   0  0  0  0  0  0  0  0  0  0  0  0
   23.1189   12.8950   -4.9513 H   0  0  0  0  0  0  0  0  0  0  0  0
   23.1104   13.4281   -3.2676 H   0  0  0  0  0  0  0  0  0  0  0  0
   22.8702   15.8028   -4.0203 H   0  0  0  0  0  0  0  0  0  0  0  0
   22.8769   15.2701   -5.7041 H   0  0  0  0  0  0  0  0  0  0  0  0
   25.1451   14.2641   -5.3772 H   0  0  0  0  0  0  0  0  0  0  0  0
   25.1389   14.7966   -3.6933 H   0  0  0  0  0  0  0  0  0  0  0  0
   24.8979   17.1716   -4.4449 H   0  0  0  0  0  0  0  0  0  0  0  0
   24.9030   16.6395   -6.1289 H   0  0  0  0  0  0  0  0  0  0  0  0
   27.1714   15.6332   -5.8043 H   0  0  0  0  0  0  0  0  0  0  0  0
   27.1665   16.1650   -4.1202 H   0  0  0  0  0  0  0  0  0  0  0  0
   26.9244   18.5405   -4.8710 H   0  0  0  0  0  0  0  0  0  0  0  0
   26.9295   18.0086   -6.5551 H   0  0  0  0  0  0  0  0  0  0  0  0
   29.1978   17.0016   -6.2302 H   0  0  0  0  0  0  0  0  0  0  0  0
   29.1928   17.5339   -4.5463 H   0  0  0  0  0  0  0  0  0  0  0  0
   28.9516   19.9091   -5.2977 H   0  0  0  0  0  0  0  0  0  0  0  0
   28.9563   19.3768   -6.9817 H   0  0  0  0  0  0  0  0  0  0  0  0
   31.2242   18.3692   -6.6571 H   0  0  0  0  0  0  0  0  0  0  0  0
   31.2196   18.9011   -4.9730 H   0  0  0  0  0  0  0  0  0  0  0  0
   30.9787   21.2765   -5.7238 H   0  0  0  0  0  0  0  0  0  0  0  0
   30.9832   20.7446   -7.4079 H   0  0  0  0  0  0  0  0  0  0  0  0
   33.2511   19.7368   -7.0837 H   0  0  0  0  0  0  0  0  0  0  0  0
   33.2468   20.2686   -5.3996 H   0  0  0  0  0  0  0  0  0  0  0  0
   33.0063   22.6439   -6.1495 H   0  0  0  0  0  0  0  0  0  0  0  0
   33.0087   22.1128   -7.8339 H   0  0  0  0  0  0  0  0  0  0  0  0
   35.2769   21.1046   -7.5127 H   0  0  0  0  0  0  0  0  0  0  0  0
   35.2745   21.6356   -5.8284 H   0  0  0  0  0  0  0  0  0  0  0  0
   35.0337   24.0114   -6.5775 H   0  0  0  0  0  0  0  0  0  0  0  0
   35.0344   23.4806   -8.2619 H   0  0  0  0  0  0  0  0  0  0  0  0
   37.3019   22.4706   -7.9428 H   0  0  0  0  0  0  0  0  0  0  0  0
   37.3019   23.0020   -6.2583 H   0  0  0  0  0  0  0  0  0  0  0  0
   37.0605   25.3778   -7.0093 H   0  0  0  0  0  0  0  0  0  0  0  0
   37.0616   24.8453   -8.6930 H   0  0  0  0  0  0  0  0  0  0  0  0
   39.3287   23.8360   -8.3739 H   0  0  0  0  0  0  0  0  0  0  0  0
   39.3290   24.3664   -6.6895 H   0  0  0  0  0  0  0  0  0  0  0  0
   39.0869   26.7427   -7.4381 H   0  0  0  0  0  0  0  0  0  0  0  0
   39.0873   26.2121   -9.1226 H   0  0  0  0  0  0  0  0  0  0  0  0
   41.3562   25.2040   -8.8033 H   0  0  0  0  0  0  0  0  0  0  0  0
   41.3554   25.7365   -7.1195 H   0  0  0  0  0  0  0  0  0  0  0  0
   41.1138   28.1119   -7.8704 H   0  0  0  0  0  0  0  0  0  0  0  0
   41.1138   27.5795   -9.5543 H   0  0  0  0  0  0  0  0  0  0  0  0
   43.3818   26.5703   -9.2354 H   0  0  0  0  0  0  0  0  0  0  0  0
   43.3821   27.1028   -7.5514 H   0  0  0  0  0  0  0  0  0  0  0  0
   43.1397   29.4775   -8.3027 H   0  0  0  0  0  0  0  0  0  0  0  0
   43.1391   28.9445   -9.9864 H   0  0  0  0  0  0  0  0  0  0  0  0
   45.4082   27.9374   -9.6684 H   0  0  0  0  0  0  0  0  0  0  0  0
   45.4087   28.4694   -7.9847 H   0  0  0  0  0  0  0  0  0  0  0  0
   45.1666   30.8451   -8.7352 H   0  0  0  0  0  0  0  0  0  0  0  0
   45.1665   30.3126  -10.4192 H   0  0  0  0  0  0  0  0  0  0  0  0
   47.4341   29.3037  -10.0999 H   0  0  0  0  0  0  0  0  0  0  0  0
   47.4339   29.8356   -8.4161 H   0  0  0  0  0  0  0  0  0  0  0  0
   47.1944   32.2106   -9.1677 H   0  0  0  0  0  0  0  0  0  0  0  0
   47.1934   31.6788  -10.8511 H   0  0  0  0  0  0  0  0  0  0  0  0
   49.4619   30.6697  -10.5329 H   0  0  0  0  0  0  0  0  0  0  0  0
   49.4619   31.2024   -8.8493 H   0  0  0  0  0  0  0  0  0  0  0  0
   49.2215   33.5774   -9.5995 H   0  0  0  0  0  0  0  0  0  0  0  0
   49.2193   33.0456  -11.2836 H   0  0  0  0  0  0  0  0  0  0  0  0
   51.4872   32.0357  -10.9683 H   0  0  0  0  0  0  0  0  0  0  0  0
   51.4894   32.5674   -9.2842 H   0  0  0  0  0  0  0  0  0  0  0  0
   51.2493   34.9430  -10.0327 H   0  0  0  0  0  0  0  0  0  0  0  0
   51.2450   34.4120  -11.7171 H   0  0  0  0  0  0  0  0  0  0  0  0
   53.5131   33.4019  -11.4054 H   0  0  0  0  0  0  0  0  0  0  0  0
   53.5176   33.9309   -9.7204 H   0  0  0  0  0  0  0  0  0  0  0  0
   53.2752   36.3080  -10.4665 H   0  0  0  0  0  0  0  0  0  0  0  0
   53.2723   35.7786  -12.1514 H   0  0  0  0  0  0  0  0  0  0  0  0
   55.5405   34.7689  -11.8387 H   0  0  0  0  0  0  0  0  0  0  0  0
   55.5434   35.2961  -10.1532 H   0  0  0  0  0  0  0  0  0  0  0  0
   55.3026   37.6736  -10.8956 H   0  0  0  0  0  0  0  0  0  0  0  0
   55.2983   37.1474  -12.5815 H   0  0  0  0  0  0  0  0  0  0  0  0
   57.5665   36.1363  -12.2722 H   0  0  0  0  0  0  0  0  0  0  0  0
   57.5707   36.6608  -10.5857 H   0  0  0  0  0  0  0  0  0  0  0  0
   57.3284   39.0399  -11.3256 H   0  0  0  0  0  0  0  0  0  0  0  0
   57.3260   38.5149  -13.0118 H   0  0  0  0  0  0  0  0  0  0  0  0
   59.5943   37.5038  -12.7001 H   0  0  0  0  0  0  0  0  0  0  0  0
   59.5964   38.0285  -11.0138 H   0  0  0  0  0  0  0  0  0  0  0  0
   59.3539   40.4075  -11.7543 H   0  0  0  0  0  0  0  0  0  0  0  0
   59.3537   39.8821  -13.4404 H   0  0  0  0  0  0  0  0  0  0  0  0
   61.6220   38.8718  -13.1258 H   0  0  0  0  0  0  0  0  0  0  0  0
   61.6220   39.3971  -11.4396 H   0  0  0  0  0  0  0  0  0  0  0  0
   61.3803   41.7756  -12.1807 H   0  0  0  0  0  0  0  0  0  0  0  0
   61.3806   41.2502  -13.8668 H   0  0  0  0  0  0  0  0  0  0  0  0
   63.6488   40.2398  -13.5513 H   0  0  0  0  0  0  0  0  0  0  0  0
   63.6485   40.7658  -11.8654 H   0  0  0  0  0  0  0  0  0  0  0  0
   63.4072   43.1439  -12.6073 H   0  0  0  0  0  0  0  0  0  0  0  0
   63.4072   42.6180  -14.2932 H   0  0  0  0  0  0  0  0  0  0  0  0
   65.6754   41.6080  -13.9782 H   0  0  0  0  0  0  0  0  0  0  0  0
   65.6755   42.1338  -12.2923 H   0  0  0  0  0  0  0  0  0  0  0  0
   65.4338   44.5120  -13.0339 H   0  0  0  0  0  0  0  0  0  0  0  0
   65.4338   43.9863  -14.7199 H   0  0  0  0  0  0  0  0  0  0  0  0
   67.7021   42.9764  -14.4051 H   0  0  0  0  0  0  0  0  0  0  0  0
   67.7021   43.5019  -12.7190 H   0  0  0  0  0  0  0  0  0  0  0  0
   67.4603   45.8803  -13.4604 H   0  0  0  0  0  0  0  0  0  0  0  0
   67.4607   45.3548  -15.1464 H   0  0  0  0  0  0  0  0  0  0  0  0
   69.7291   44.3449  -14.8310 H   0  0  0  0  0  0  0  0  0  0  0  0
   69.7287   44.8707  -13.1450 H   0  0  0  0  0  0  0  0  0  0  0  0
   69.4866   47.2492  -13.8876 H   0  0  0  0  0  0  0  0  0  0  0  0
   69.4886   46.7226  -15.5733 H   0  0  0  0  0  0  0  0  0  0  0  0
   71.7573   45.7141  -15.2555 H   0  0  0  0  0  0  0  0  0  0  0  0
   71.7551   46.2404  -13.5697 H   0  0  0  0  0  0  0  0  0  0  0  0
   71.5144   48.6185  -14.3123 H   0  0  0  0  0  0  0  0  0  0  0  0
   71.5165   48.0923  -15.9981 H   0  0  0  0  0  0  0  0  0  0  0  0
   73.7852   47.0836  -15.6806 H   0  0  0  0  0  0  0  0  0  0  0  0
   73.7832   47.6094  -13.9945 H   0  0  0  0  0  0  0  0  0  0  0  0
   73.5436   49.9883  -14.7372 H   0  0  0  0  0  0  0  0  0  0  0  0
   73.5463   49.4621  -16.4229 H   0  0  0  0  0  0  0  0  0  0  0  0
   75.8151   48.4540  -16.1056 H   0  0  0  0  0  0  0  0  0  0  0  0
   75.8132   48.9803  -14.4194 H   0  0  0  0  0  0  0  0  0  0  0  0
   75.5762   51.3591  -15.1621 H   0  0  0  0  0  0  0  0  0  0  0  0
   75.5764   50.8336  -16.8482 H   0  0  0  0  0  0  0  0  0  0  0  0
   77.8467   49.8256  -16.5335 H   0  0  0  0  0  0  0  0  0  0  0  0
   77.8466   50.3509  -14.8476 H   0  0  0  0  0  0  0  0  0  0  0  0
   77.6129   52.7306  -15.5895 H   0  0  0  0  0  0  0  0  0  0  0  0
   77.6130   52.2054  -17.2751 H   0  0  0  0  0  0  0  0  0  0  0  0
   79.8867   51.2027  -16.9635 H   0  0  0  0  0  0  0  0  0  0  0  0
   79.8865   51.7265  -15.2774 H   0  0  0  0  0  0  0  0  0  0  0  0
   79.6496   54.1073  -16.0175 H   0  0  0  0  0  0  0  0  0  0  0  0
   79.6508   53.5838  -17.7026 H   0  0  0  0  0  0  0  0  0  0  0  0
   81.9376   52.6028  -17.3960 H   0  0  0  0  0  0  0  0  0  0  0  0
   81.9358   53.1265  -15.7098 H   0  0  0  0  0  0  0  0  0  0  0  0
   81.7215   54.9821  -18.1399 H   0  0  0  0  0  0  0  0  0  0  0  0
   83.1624   54.7402  -17.1337 H   0  0  0  0  0  0  0  0  0  0  0  0
   81.7193   55.5077  -16.4454 H   0  0  0  0  0  0  0  0  0  0  0  0
  1  2  1  0  0  0  0
  1 82  1  0  0  0  0
  1 83  1  0  0  0  0
  1 84  1  0  0  0  0
  2  3  1  0  0  0  0
  2 85  1  0  0  0  0
  2 86  1  0  0  0  0
  3  4  1  0  0  0  0
  3 87  1  0  0  0  0
  3 88  1  0  0  0  0
  4  5  1  0  0  0  0
  4 89  1  0  0  0  0
  4 90  1  0  0  0  0
  5  6  1  0  0  0  0
  5 91  1  0  0  0  0
  5 92  1  0  0  0  0
  6  7  1  0  0  0  0
  6 93  1  0  0  0  0
  6 94  1  0  0  0  0
  7  8  1  0  0  0  0
  7 95  1  0  0  0  0
  7 96  1  0  0  0  0
  8  9  1  0  0  0  0
  8 97  1  0  0  0  0
  8 98  1  0  0  0  0
  9 10  1  0  0  0  0
  9 99  1  0  0  0  0
  9100  1  0  0  0  0
 10 11  1  0  0  0  0
 10101  1  0  0  0  0
 10102  1  0  0  0  0
 11 12  1  0  0  0  0
 11103  1  0  0  0  0
 12 13  1  0  0  0  0
 12104  1  0  0  0  0
 12105  1  0  0  0  0
 13 14  1  0  0  0  0
 13106  1  0  0  0  0
 13107  1  0  0  0  0
 14 15  1  0  0  0  0
 14108  1  0  0  0  0
 14109  1  0  0  0  0
 15 16  1  0  0  0  0
 15110  1  0  0  0  0
 15111  1  0  0  0  0
 16 17  1  0  0  0  0
 16112  1  0  0  0  0
 16113  1  0  0  0  0
 17 18  1  0  0  0  0
 17114  1  0  0  0  0
 17115  1  0  0  0  0
 18 19  1  0  0  0  0
 18116  1  0  0  0  0
 18117  1  0  0  0  0
 19 20  1  0  0  0  0
 19118  1  0  0  0  0
 19119  1  0  0  0  0
 20 21  1  0  0  0  0
 20120  1  0  0  0  0
 20121  1  0  0  0  0
 21 22  1  0  0  0  0
 21122  1  0  0  0  0
 21123  1  0  0  0  0
 22 23  1  0  0  0  0
 22124  1  0  0  0  0
 22125  1  0  0  0  0
 23 24  1  0  0  0  0
 23126  1  0  0  0  0
 23127  1  0  0  0  0
 24 25  1  0  0  0  0
 24128  1  0  0  0  0
 24129  1  0  0  0  0
 25 26  1  0  0  0  0
 25130  1  0  0  0  0
 25131  1  0  0  0  0
 26 27  1  0  0  0  0
 26132  1  0  0  0  0
 26133  1  0  0  0  0
 27 28  1  0  0  0  0
 27134  1  0  0  0  0
 27135  1  0  0  0  0
 28 29  1  0  0  0  0
 28136  1  0  0  0  0
 28137  1  0  0  0  0
 29 30  1  0  0  0  0
 29138  1  0  0  0  0
 29139  1  0  0  0  0
 30 31  1  0  0  0  0
 30140  1  0  0  0  0
 30141  1  0  0  0  0
 31 32  1  0  0  0  0
 31142  1  0  0  0  0
 31143  1  0  0  0  0
 32 33  1  0  0  0  0
 32144  1  0  0  0  0
 32145  1  0  0  0  0
 33 34  1  0  0  0  0
 33146  1  0  0  0  0
 33147  1  0  0  0  0
 34 35  1  0  0  0  0
 34148  1  0  0  0  0
 34149  1  0  0  0  0
 35 36  1  0  0  0  0
 35150  1  0  0  0  0
 35151  1  0  0  0  0
 36 37  1  0  0  0  0
 36152  1  0  0  0  0
 36153  1  0  0  0  0
 37 38  1  0  0  0  0
 37154  1  0  0  0  0
 37155  1  0  0  0  0
 38 39  1  0  0  0  0
 38156  1  0  0  0  0
 38157  1  0  0  0  0
 39 40  1  0  0  0  0
 39158  1  0  0  0  0
 39159  1  0  0  0  0
 40 41  1  0  0  0  0
 40160  1  0  0  0  0
 40161  1  0  0  0  0
 41 42  1  0  0  0  0
 41162  1  0  0  0  0
 41163  1  0  0  0  0
 42 43  1  0  0  0  0
 42164  1  0  0  0  0
 42165  1  0  0  0  0
 43 44  1  0  0  0  0
 43166  1  0  0  0  0
 43167  1  0  0  0  0
 44 45  1  0  0  0  0
 44168  1  0  0  0  0
 44169  1  0  0  0  0
 45 46  1  0  0  0  0
 45170  1  0  0  0  0
 45171  1  0  0  0  0
 46 47  1  0  0  0  0
 46172  1  0  0  0  0
 46173  1  0  0  0  0
 47 48  1  0  0  0  0
 47174  1  0  0  0  0
 47175  1  0  0  0  0
 48 49  1  0  0  0  0
 48176  1  0  0  0  0
 48177  1  0  0  0  0
 49 50  1  0  0  0  0
 49178  1  0  0  0  0
 49179  1  0  0  0  0
 50 51  1  0  0  0  0
 50180  1  0  0  0  0
 50181  1  0  0  0  0
 51 52  1  0  0  0  0
 51182  1  0  0  0  0
 51183  1  0  0  0  0
 52 53  1  0  0  0  0
 52184  1  0  0  0  0
 52185  1  0  0  0  0
 53 54  1  0  0  0  0
 53186  1  0  0  0  0
 53187  1  0  0  0  0
 54 55  1  0  0  0  0
 54188  1  0  0  0  0
 54189  1  0  0  0  0
 55 56  1  0  0  0  0
 55190  1  0  0  0  0
 55191  1  0  0  0  0
 56 57  1  0  0  0  0
 56192  1  0  0  0  0
 56193  1  0  0  0  0
 57 58  1  0  0  0  0
 57194  1  0  0  0  0
 57195  1  0  0  0  0
 58 59  1  0  0  0  0
 58196  1  0  0  0  0
 58197  1  0  0  0  0
 59 60  1  0  0  0  0
 59198  1  0  0  0  0
 59199  1  0  0  0  0
 60 61  1  0  0  0  0
 60200  1  0  0  0  0
 60201  1  0  0  0  0
 61 62  1  0  0  0  0
 61202  1  0  0  0  0
 61203  1  0  0  0  0
 62 63  1  0  0  0  0
 62204  1  0  0  0  0
 62205  1  0  0  0  0
 63 64  1  0  0  0  0
 63206  1  0  0  0  0
 63207  1  0  0  0  0
 64 65  1  0  0  0  0
 64208  1  0  0  0  0
 64209  1  0  0  0  0
 65 66  1  0  0  0  0
 65210  1  0  0  0  0
 65211  1  0  0  0  0
 66 67  1  0  0  0  0
 66212  1  0  0  0  0
 66213  1  0  0  0  0
 67 68  1  0  0  0  0
 67214  1  0  0  0  0
 67215  1  0  0  0  0
 68 69  1  0  0  0  0
 68216  1  0  0  0  0
 68217  1  0  0  0  0
 69 70  1  0  0  0  0
 69218  1  0  0  0  0
 69219  1  0  0  0  0
 70 71  1  0  0  0  0
 70220  1  0  0  0  0
 70221  1  0  0  0  0
 71 72  1  0  0  0  0
 71222  1  0  0  0  0
 71223  1  0  0  0  0
 72 73  1  0  0  0  0
 72224  1  0  0  0  0
 72225  1  0  0  0  0
 73 74  1  0  0  0  0
 73226  1  0  0  0  0
 73227  1  0  0  0  0
 74 75  1  0  0  0  0
 74228  1  0  0  0  0
 74229  1  0  0  0  0
 75 76  1  0  0  0  0
 75230  1  0  0  0  0
 75231  1  0  0  0  0
 76 77  1  0  0  0  0
 76232  1  0  0  0  0
 76233  1  0  0  0  0
 77 78  1  0  0  0  0
 77234  1  0  0  0  0
 77235  1  0  0  0  0
 78 79  1  0  0  0  0
 78236  1  0  0  0  0
 78237  1  0  0  0  0
 79 80  1  0  0  0  0
 79238  1  0  0  0  0
 79239  1  0  0  0  0
 80 81  1  0  0  0  0
 80240  1  0  0  0  0
 80241  1  0  0  0  0
 81242  1  0  0  0  0
 81243  1  0  0  0  0
 81244  1  0  0  0  0
M  END
$$$$
