
 OpenBabel04232216433D

 95 95  0  0  0  0  0  0  0  0999 V2000
  -12.9755   83.4458  129.4481 C   0  0  0  0  0  0  0  0  0  0  0  0
  -10.6378   85.8819  129.9316 C   0  0  0  0  0  0  0  0  0  0  0  0
   -8.7481   87.7885  130.3669 C   0  0  0  0  0  0  0  0  0  0  0  0
   -6.8747   90.0967  130.6639 C   0  0  0  0  0  0  0  0  0  0  0  0
   -5.3983   91.9377  131.0974 C   0  0  0  0  0  0  0  0  0  0  0  0
   -3.6473   92.7568  131.9610 C   0  0  0  0  0  0  0  0  0  0  0  0
   -4.5383   93.0065  133.0188 C   0  0  0  0  0  0  0  0  0  0  0  0
   -6.0520   92.5177  132.8596 C   0  0  0  0  0  0  0  0  0  0  0  0
   -6.8925   91.1482  132.5056 C   0  0  0  0  0  0  0  0  0  0  0  0
   -8.4194   90.3906  131.3491 C   0  0  0  0  0  0  0  0  0  0  0  0
   -8.5513   89.9443  129.5002 C   0  0  0  0  0  0  0  0  0  0  0  0
   -9.8289   88.6254  129.3563 C   0  0  0  0  0  0  0  0  0  0  0  0
  -10.3998   88.2961  131.0321 C   0  0  0  0  0  0  0  0  0  0  0  0
  -11.0952   87.0701  131.5987 C   0  0  0  0  0  0  0  0  0  0  0  0
  -11.9872   86.1102  131.2009 C   0  0  0  0  0  0  0  0  0  0  0  0
  -13.2070   85.9664  130.3303 C   0  0  0  0  0  0  0  0  0  0  0  0
  -13.2216   84.8629  131.0891 C   0  0  0  0  0  0  0  0  0  0  0  0
  -13.6586   84.4714  132.3608 C   0  0  0  0  0  0  0  0  0  0  0  0
  -14.4920   83.7255  131.0085 C   0  0  0  0  0  0  0  0  0  0  0  0
  -15.9685   82.9259  129.9192 C   0  0  0  0  0  0  0  0  0  0  0  0
  -16.8322   81.6129  130.1409 C   0  0  0  0  0  0  0  0  0  0  0  0
  -17.3705   80.8132  129.1233 C   0  0  0  0  0  0  0  0  0  0  0  0
  -18.2770   80.1191  129.8409 C   0  0  0  0  0  0  0  0  0  0  0  0
  -19.3696   78.8614  129.6374 C   0  0  0  0  0  0  0  0  0  0  0  0
  -20.3498   78.0239  129.2322 C   0  0  0  0  0  0  0  0  0  0  0  0
  -21.8457   77.3697  128.5009 C   0  0  0  0  0  0  0  0  0  0  0  0
  -21.5042   76.5351  129.4295 C   0  0  0  0  0  0  0  0  0  0  0  0
  -22.8038   75.9874  128.6196 C   0  0  0  0  0  0  0  0  0  0  0  0
  -23.6357   74.8741  129.1159 C   0  0  0  0  0  0  0  0  0  0  0  0
  -25.0911   74.1371  128.4374 C   0  0  0  0  0  0  0  0  0  0  0  0
  -24.8925   73.3906  129.4482 C   0  0  0  0  0  0  0  0  0  0  0  0
  -26.0598   72.4076  128.3733 C   0  0  0  0  0  0  0  0  0  0  0  0
  -26.8175   71.2907  128.5967 C   0  0  0  0  0  0  0  0  0  0  0  0
  -27.4669   72.0192  127.6511 C   0  0  0  0  0  0  0  0  0  0  0  0
  -28.4947   70.6714  127.9415 C   0  0  0  0  0  0  0  0  0  0  0  0
  -29.9563   69.5311  127.8135 C   0  0  0  0  0  0  0  0  0  0  0  0
  -30.5934   68.4397  128.8264 C   0  0  0  0  0  0  0  0  0  0  0  0
  -31.7865   67.9807  127.4704 C   0  0  0  0  0  0  0  0  0  0  0  0
  -31.6646   66.9160  128.1725 C   0  0  0  0  0  0  0  0  0  0  0  0
  -30.4920   67.4997  126.4267 C   0  0  0  0  0  0  0  0  0  0  0  0
  -28.5521   68.7030  126.8161 C   0  0  0  0  0  0  0  0  0  0  0  0
  -26.4174   70.5763  127.1674 C   0  0  0  0  0  0  0  0  0  0  0  0
  -24.2404   72.3294  127.3311 C   0  0  0  0  0  0  0  0  0  0  0  0
  -21.9281   74.5164  127.7024 C   0  0  0  0  0  0  0  0  0  0  0  0
  -19.8983   76.5055  128.0456 C   0  0  0  0  0  0  0  0  0  0  0  0
  -17.4039   78.8783  128.4888 C   0  0  0  0  0  0  0  0  0  0  0  0
  -15.4128   80.9596  128.9504 C   0  0  0  0  0  0  0  0  0  0  0  0
  -11.7281   84.9105  129.5524 H   0  0  0  0  0  0  0  0  0  0  0  0
  -12.0038   85.1174  129.4546 H   0  0  0  0  0  0  0  0  0  0  0  0
   -9.2896   87.2229  130.3899 H   0  0  0  0  0  0  0  0  0  0  0  0
   -7.4129   89.3271  130.7128 H   0  0  0  0  0  0  0  0  0  0  0  0
   -5.6937   91.8231  130.6783 H   0  0  0  0  0  0  0  0  0  0  0  0
   -4.1570   93.5347  131.6998 H   0  0  0  0  0  0  0  0  0  0  0  0
   -2.4841   93.7591  131.7959 H   0  0  0  0  0  0  0  0  0  0  0  0
   -4.1147   93.7178  133.6602 H   0  0  0  0  0  0  0  0  0  0  0  0
   -6.9014   93.2816  133.2014 H   0  0  0  0  0  0  0  0  0  0  0  0
   -6.0499   91.6813  133.2705 H   0  0  0  0  0  0  0  0  0  0  0  0
   -7.9021   89.3804  132.3824 H   0  0  0  0  0  0  0  0  0  0  0  0
   -8.5523   88.9661  128.1425 H   0  0  0  0  0  0  0  0  0  0  0  0
   -8.2862   88.6182  129.2059 H   0  0  0  0  0  0  0  0  0  0  0  0
   -9.5483   88.4174  132.2272 H   0  0  0  0  0  0  0  0  0  0  0  0
  -10.8563   87.5763  132.8116 H   0  0  0  0  0  0  0  0  0  0  0  0
  -11.4888   86.4507  132.0462 H   0  0  0  0  0  0  0  0  0  0  0  0
  -13.7652   85.5266  129.3574 H   0  0  0  0  0  0  0  0  0  0  0  0
  -12.8929   85.1412  132.0758 H   0  0  0  0  0  0  0  0  0  0  0  0
  -12.6404   85.3107  133.3338 H   0  0  0  0  0  0  0  0  0  0  0  0
  -15.0126   83.0186  131.4947 H   0  0  0  0  0  0  0  0  0  0  0  0
  -16.3066   83.0325  128.4284 H   0  0  0  0  0  0  0  0  0  0  0  0
  -16.5849   81.4372  131.0733 H   0  0  0  0  0  0  0  0  0  0  0  0
  -18.1339   80.2800  128.8519 H   0  0  0  0  0  0  0  0  0  0  0  0
  -18.3168   79.8288  130.7569 H   0  0  0  0  0  0  0  0  0  0  0  0
  -18.9568   78.2536  130.8310 H   0  0  0  0  0  0  0  0  0  0  0  0
  -20.2591   77.9700  130.2348 H   0  0  0  0  0  0  0  0  0  0  0  0
  -22.3170   77.8682  129.3878 H   0  0  0  0  0  0  0  0  0  0  0  0
  -22.0078   76.1959  130.1258 H   0  0  0  0  0  0  0  0  0  0  0  0
  -23.7637   75.5452  128.1729 H   0  0  0  0  0  0  0  0  0  0  0  0
  -23.6626   74.7401  130.3412 H   0  0  0  0  0  0  0  0  0  0  0  0
  -26.5296   74.2649  128.8124 H   0  0  0  0  0  0  0  0  0  0  0  0
  -25.5108   72.6784  129.4096 H   0  0  0  0  0  0  0  0  0  0  0  0
  -26.2771   72.7198  126.7641 H   0  0  0  0  0  0  0  0  0  0  0  0
  -27.2533   71.1827  129.3949 H   0  0  0  0  0  0  0  0  0  0  0  0
  -26.7579   73.5187  127.5577 H   0  0  0  0  0  0  0  0  0  0  0  0
  -28.7794   69.5467  128.4918 H   0  0  0  0  0  0  0  0  0  0  0  0
  -30.6009   69.6821  126.5169 H   0  0  0  0  0  0  0  0  0  0  0  0
  -30.3646   67.9540  128.0367 H   0  0  0  0  0  0  0  0  0  0  0  0
  -32.8204   67.6314  126.4455 H   0  0  0  0  0  0  0  0  0  0  0  0
  -32.3803   66.1850  128.1497 H   0  0  0  0  0  0  0  0  0  0  0  0
  -32.1841   66.8854  125.5081 H   0  0  0  0  0  0  0  0  0  0  0  0
  -30.0064   67.2317  126.9350 H   0  0  0  0  0  0  0  0  0  0  0  0
  -27.6911   69.0119  126.9025 H   0  0  0  0  0  0  0  0  0  0  0  0
  -25.7148   70.9648  126.9856 H   0  0  0  0  0  0  0  0  0  0  0  0
  -23.3839   73.3130  127.3137 H   0  0  0  0  0  0  0  0  0  0  0  0
  -21.3196   75.5351  127.5408 H   0  0  0  0  0  0  0  0  0  0  0  0
  -18.7754   78.0572  127.9054 H   0  0  0  0  0  0  0  0  0  0  0  0
  -14.5823   82.4929  129.0891 H   0  0  0  0  0  0  0  0  0  0  0  0
  1  2  1  0  0  0  0
  1 47  1  0  0  0  0
  1 48  1  0  0  0  0
  1 49  1  0  0  0  0
  2  3  2  3  0  0  0
  2 50  1  0  0  0  0
  3  4  1  0  0  0  0
  3 51  1  0  0  0  0
  4  5  2  3  0  0  0
  4 52  1  0  0  0  0
  5  6  1  0  0  0  0
  5 53  1  0  0  0  0
  6  7  2  3  0  0  0
  6 54  1  0  0  0  0
  7  8  1  0  0  0  0
  7 55  1  0  0  0  0
  8  9  2  3  0  0  0
  8 56  1  0  0  0  0
  9 10  1  0  0  0  0
  9 57  1  0  0  0  0
 10 11  2  3  0  0  0
 10 58  1  0  0  0  0
 11 12  1  0  0  0  0
 11 59  1  0  0  0  0
 12 13  2  3  0  0  0
 12 60  1  0  0  0  0
 13 14  1  0  0  0  0
 13 61  1  0  0  0  0
 14 15  2  3  0  0  0
 14 62  1  0  0  0  0
 15 16  1  0  0  0  0
 15 63  1  0  0  0  0
 16 17  2  3  0  0  0
 16 64  1  0  0  0  0
 17 18  1  0  0  0  0
 17 65  1  0  0  0  0
 18 19  2  3  0  0  0
 18 66  1  0  0  0  0
 19 20  1  0  0  0  0
 19 67  1  0  0  0  0
 20 21  2  3  0  0  0
 20 68  1  0  0  0  0
 21 22  1  0  0  0  0
 21 69  1  0  0  0  0
 22 23  2  3  0  0  0
 22 70  1  0  0  0  0
 23 24  1  0  0  0  0
 23 71  1  0  0  0  0
 24 25  2  3  0  0  0
 24 72  1  0  0  0  0
 25 26  1  0  0  0  0
 25 73  1  0  0  0  0
 26 27  2  3  0  0  0
 26 74  1  0  0  0  0
 27 28  1  0  0  0  0
 27 75  1  0  0  0  0
 28 29  2  3  0  0  0
 28 76  1  0  0  0  0
 29 30  1  0  0  0  0
 29 77  1  0  0  0  0
 30 31  2  3  0  0  0
 30 78  1  0  0  0  0
 31 32  1  0  0  0  0
 31 79  1  0  0  0  0
 32 33  2  3  0  0  0
 32 80  1  0  0  0  0
 33 34  1  0  0  0  0
 33 81  1  0  0  0  0
 34 35  2  3  0  0  0
 34 82  1  0  0  0  0
 35 36  1  0  0  0  0
 35 83  1  0  0  0  0
 36 37  2  3  0  0  0
 36 84  1  0  0  0  0
 37 38  1  0  0  0  0
 37 85  1  0  0  0  0
 38 39  2  3  0  0  0
 38 86  1  0  0  0  0
 39 40  1  0  0  0  0
 39 87  1  0  0  0  0
 40 41  2  3  0  0  0
 40 88  1  0  0  0  0
 41 42  1  0  0  0  0
 41 89  1  0  0  0  0
 42 43  2  3  0  0  0
 42 90  1  0  0  0  0
 43 44  1  0  0  0  0
 43 91  1  0  0  0  0
 44 45  2  3  0  0  0
 44 92  1  0  0  0  0
 45 46  1  0  0  0  0
 45 93  1  0  0  0  0
 46 47  2  3  0  0  0
 46 94  1  0  0  0  0
 47 95  1  0  0  0  0
M  END
$$$$
