
 OpenBabel04232216523D

 57 59  0  0  1  0  0  0  0  0999 V2000
    3.1618   -2.3650    1.4775 C   0  0  0  0  0  0  0  0  0  0  0  0
    2.7622   -1.8510    0.1155 C   0  0  0  0  0  0  0  0  0  0  0  0
    3.4837   -0.5466   -0.2973 C   0  0  0  0  0  0  0  0  0  0  0  0
    4.9647   -0.5758   -0.7875 C   0  0  3  0  0  0  0  0  0  0  0  0
    5.1305   -1.7330   -1.7618 C   0  0  0  0  0  0  0  0  0  0  0  0
    5.9748   -1.5662   -2.7778 C   0  0  0  0  0  0  0  0  0  0  0  0
    6.5374   -2.5375   -3.6585 C   0  0  0  0  0  0  0  0  0  0  0  0
    5.7162   -3.8326   -3.9476 C   0  0  0  0  0  0  0  0  0  0  0  0
    6.0382   -5.1184   -3.1527 C   0  0  0  0  0  0  0  0  0  0  0  0
    7.8077   -2.2682   -4.0725 C   0  0  0  0  0  0  0  0  0  0  0  0
    8.9318   -1.1180   -3.7935 C   0  0  0  0  0  0  0  0  0  0  0  0
    8.7593   -0.0049   -2.7974 C   0  0  0  0  0  0  0  0  0  0  0  0
    9.4765    0.2675   -1.6614 C   0  0  0  0  0  0  0  0  0  0  0  0
    8.9163    1.1835   -0.6547 C   0  0  0  0  0  0  0  0  0  0  0  0
    9.2834    1.5363    0.5808 C   0  0  0  0  0  0  0  0  0  0  0  0
    8.2964    2.1484    1.5826 C   0  0  0  0  0  0  0  0  0  0  0  0
    9.0963    3.0864    2.6322 C   0  0  0  0  0  0  0  0  0  0  0  0
    8.3311    3.9901    3.3340 C   0  0  0  0  0  0  0  0  0  0  0  0
    6.8909    2.0993    1.7070 C   0  0  0  0  0  0  0  0  0  0  0  0
    6.1309    1.1015    0.8483 C   0  0  0  0  0  0  0  0  0  0  0  0
    8.4909   -3.3412   -4.7366 C   0  0  0  0  0  0  0  0  0  0  0  0
    9.4763   -3.8926   -4.0226 C   0  0  0  0  0  0  0  0  0  0  0  0
    9.6360   -3.9134   -2.5425 C   0  0  0  0  0  0  0  0  0  0  0  0
    9.1136   -3.3659   -1.3878 C   0  0  0  0  0  0  0  0  0  0  0  0
    7.9335   -2.3205   -0.8356 C   0  0  0  0  0  0  0  0  0  0  0  0
    7.4532   -1.3824    0.1296 C   0  0  0  0  0  0  0  0  0  0  0  0
    6.2603   -0.1762    0.1547 C   0  0  0  0  0  0  0  0  0  0  0  0
    2.5389   -3.2271    1.7469 H   0  0  0  0  0  0  0  0  0  0  0  0
    3.0039   -1.5929    2.2339 H   0  0  0  0  0  0  0  0  0  0  0  0
    4.2065   -2.6817    1.4966 H   0  0  0  0  0  0  0  0  0  0  0  0
    1.6839   -1.6459    0.1286 H   0  0  0  0  0  0  0  0  0  0  0  0
    2.8652   -2.6558   -0.6250 H   0  0  0  0  0  0  0  0  0  0  0  0
    3.3400    0.2095    0.4875 H   0  0  0  0  0  0  0  0  0  0  0  0
    2.8991   -0.1979   -1.1693 H   0  0  0  0  0  0  0  0  0  0  0  0
    4.9730    0.3076   -1.4517 H   0  0  0  0  0  0  0  0  0  0  0  0
    4.6263   -2.6831   -1.6210 H   0  0  0  0  0  0  0  0  0  0  0  0
    6.4636   -0.6111   -2.7906 H   0  0  0  0  0  0  0  0  0  0  0  0
    5.7676   -4.0825   -5.0190 H   0  0  0  0  0  0  0  0  0  0  0  0
    4.6462   -3.6292   -3.7820 H   0  0  0  0  0  0  0  0  0  0  0  0
    6.9762   -5.5873   -3.4690 H   0  0  0  0  0  0  0  0  0  0  0  0
    5.2579   -5.8762   -3.3221 H   0  0  0  0  0  0  0  0  0  0  0  0
    6.0845   -4.9508   -2.0729 H   0  0  0  0  0  0  0  0  0  0  0  0
    9.1735   -0.6736   -4.7673 H   0  0  0  0  0  0  0  0  0  0  0  0
    9.8738   -1.5953   -3.4883 H   0  0  0  0  0  0  0  0  0  0  0  0
    7.9345    0.6685   -3.0213 H   0  0  0  0  0  0  0  0  0  0  0  0
   10.3305   -0.3326   -1.3744 H   0  0  0  0  0  0  0  0  0  0  0  0
    7.9393    1.5510   -0.9702 H   0  0  0  0  0  0  0  0  0  0  0  0
   10.2770    1.2788    0.9464 H   0  0  0  0  0  0  0  0  0  0  0  0
   10.1965    3.1011    2.6551 H   0  0  0  0  0  0  0  0  0  0  0  0
    7.3401    4.3668    3.5826 H   0  0  0  0  0  0  0  0  0  0  0  0
    5.1156    1.4969    0.7851 H   0  0  0  0  0  0  0  0  0  0  0  0
    7.9424   -4.0293   -5.3906 H   0  0  0  0  0  0  0  0  0  0  0  0
   10.4338   -3.8716   -4.5750 H   0  0  0  0  0  0  0  0  0  0  0  0
   10.3783   -4.6942   -2.4075 H   0  0  0  0  0  0  0  0  0  0  0  0
    9.6242   -3.8480   -0.5360 H   0  0  0  0  0  0  0  0  0  0  0  0
    7.9521   -3.1239   -0.0506 H   0  0  0  0  0  0  0  0  0  0  0  0
    7.8153   -1.5017    1.1579 H   0  0  0  0  0  0  0  0  0  0  0  0
  1  2  1  0  0  0  0
  1 28  1  0  0  0  0
  1 29  1  0  0  0  0
  1 30  1  0  0  0  0
  2  3  1  0  0  0  0
  2 31  1  0  0  0  0
  2 32  1  0  0  0  0
  3  4  1  0  0  0  0
  3 33  1  0  0  0  0
  3 34  1  0  0  0  0
  4  5  1  0  0  0  0
  4 27  1  0  0  0  0
  4 35  1  0  0  0  0
  5  6  2  3  0  0  0
  5 36  1  0  0  0  0
  6  7  1  0  0  0  0
  6 37  1  0  0  0  0
  7  8  1  0  0  0  0
  7 10  2  3  0  0  0
  8  9  1  0  0  0  0
  8 38  1  0  0  0  0
  8 39  1  0  0  0  0
  9 40  1  0  0  0  0
  9 41  1  0  0  0  0
  9 42  1  0  0  0  0
 10 11  1  0  0  0  0
 10 21  1  0  0  0  0
 11 12  1  0  0  0  0
 11 43  1  0  0  0  0
 11 44  1  0  0  0  0
 12 13  2  3  0  0  0
 12 45  1  0  0  0  0
 13 14  1  0  0  0  0
 13 46  1  0  0  0  0
 14 15  2  3  0  0  0
 14 47  1  0  0  0  0
 15 16  1  0  0  0  0
 15 48  1  0  0  0  0
 16 17  1  0  0  0  0
 16 19  2  0  0  0  0
 17 18  2  0  0  0  0
 17 49  1  0  0  0  0
 18 19  1  0  0  0  0
 18 50  1  0  0  0  0
 19 20  1  0  0  0  0
 20 27  2  3  0  0  0
 20 51  1  0  0  0  0
 21 22  2  3  0  0  0
 21 52  1  0  0  0  0
 22 23  1  0  0  0  0
 22 53  1  0  0  0  0
 23 24  2  3  0  0  0
 23 54  1  0  0  0  0
 24 25  1  0  0  0  0
 24 55  1  0  0  0  0
 25 26  2  3  0  0  0
 25 56  1  0  0  0  0
 26 27  1  0  0  0  0
 26 57  1  0  0  0  0
M  END
$$$$
