
 OpenBabel04232216583D

 57 56  0  0  0  0  0  0  0  0999 V2000
    6.7329    8.7171    5.4976 N   0  0  0  0  0  0  0  0  0  0  0  0
    8.1733    8.6699    5.5121 N   0  0  0  0  0  0  0  0  0  0  0  0
    8.6153    7.6090    4.5969 C   0  0  0  0  0  0  0  0  0  0  0  0
   10.1566    7.5188    4.5394 C   0  0  0  0  0  0  0  0  0  0  0  0
   10.6325    6.4206    3.6900 N   0  0  0  0  0  0  0  0  0  0  0  0
   10.1486    6.6685    2.3873 N   0  0  0  0  0  0  0  0  0  0  0  0
   10.5469    5.6566    1.5127 N   0  0  0  0  0  0  0  0  0  0  0  0
   10.0388    5.9113    0.2126 N   0  0  0  0  0  0  0  0  0  0  0  0
   10.5794    7.1012   -0.3697 N   0  0  0  0  0  0  0  0  0  0  0  0
   12.0116    7.0855   -0.3601 N   0  0  0  0  0  0  0  0  0  0  0  0
   12.4974    6.0401   -1.2123 N   0  0  0  0  0  0  0  0  0  0  0  0
   12.0993    6.2556   -2.5698 N   0  0  0  0  0  0  0  0  0  0  0  0
   12.5908    7.5415   -3.0354 N   0  0  0  0  0  0  0  0  0  0  0  0
   14.0576    7.5449   -3.0755 C   0  0  0  0  0  0  0  0  0  0  0  0
   14.5370    6.4628   -3.9329 N   0  0  0  0  0  0  0  0  0  0  0  0
   14.0912    6.7019   -5.2596 N   0  0  0  0  0  0  0  0  0  0  0  0
   14.4849    5.6274   -6.0780 N   0  0  0  0  0  0  0  0  0  0  0  0
   13.9328    5.8664   -7.4076 C   0  0  0  0  0  0  0  0  0  0  0  0
   14.3907    4.7488   -8.3331 C   0  0  0  0  0  0  0  0  0  0  0  0
   13.8882    4.9959   -9.7496 C   0  0  0  0  0  0  0  0  0  0  0  0
   14.3524    3.8826  -10.6768 C   0  0  0  0  0  0  0  0  0  0  0  0
   13.8604    4.1188  -12.1008 C   0  0  0  0  0  0  0  0  0  0  0  0
   14.3260    3.0049  -13.0221 C   0  0  0  0  0  0  0  0  0  0  0  0
    6.3719    9.5083    6.0370 H   0  0  0  0  0  0  0  0  0  0  0  0
    6.3013    7.8733    5.8820 H   0  0  0  0  0  0  0  0  0  0  0  0
    8.5631    8.5131    6.4475 H   0  0  0  0  0  0  0  0  0  0  0  0
    8.2195    7.8147    3.5964 H   0  0  0  0  0  0  0  0  0  0  0  0
    8.2139    6.6407    4.9243 H   0  0  0  0  0  0  0  0  0  0  0  0
   10.5499    7.3520    5.5472 H   0  0  0  0  0  0  0  0  0  0  0  0
   10.5820    8.4709    4.1982 H   0  0  0  0  0  0  0  0  0  0  0  0
   10.2713    5.5377    4.0506 H   0  0  0  0  0  0  0  0  0  0  0  0
   10.5025    7.5691    2.0526 H   0  0  0  0  0  0  0  0  0  0  0  0
   10.2460    4.7389    1.8495 H   0  0  0  0  0  0  0  0  0  0  0  0
    9.0134    5.9461    0.2141 H   0  0  0  0  0  0  0  0  0  0  0  0
   10.2355    7.9464    0.0913 H   0  0  0  0  0  0  0  0  0  0  0  0
   12.3359    6.8968    0.5970 H   0  0  0  0  0  0  0  0  0  0  0  0
   12.1105    5.1498   -0.8759 H   0  0  0  0  0  0  0  0  0  0  0  0
   11.0768    6.2601   -2.6036 H   0  0  0  0  0  0  0  0  0  0  0  0
   12.3023    8.2392   -2.3490 H   0  0  0  0  0  0  0  0  0  0  0  0
   14.4784    7.4250   -2.0679 H   0  0  0  0  0  0  0  0  0  0  0  0
   14.4090    8.5178   -3.4304 H   0  0  0  0  0  0  0  0  0  0  0  0
   14.0401    5.6479   -3.5564 H   0  0  0  0  0  0  0  0  0  0  0  0
   14.4348    7.6064   -5.6055 H   0  0  0  0  0  0  0  0  0  0  0  0
   14.1003    4.7546   -5.7090 H   0  0  0  0  0  0  0  0  0  0  0  0
   14.2950    6.8292   -7.7961 H   0  0  0  0  0  0  0  0  0  0  0  0
   12.8371    5.9040   -7.3775 H   0  0  0  0  0  0  0  0  0  0  0  0
   14.0152    3.7832   -7.9683 H   0  0  0  0  0  0  0  0  0  0  0  0
   15.4877    4.6909   -8.3380 H   0  0  0  0  0  0  0  0  0  0  0  0
   14.2616    5.9617  -10.1093 H   0  0  0  0  0  0  0  0  0  0  0  0
   12.7940    5.0487   -9.7510 H   0  0  0  0  0  0  0  0  0  0  0  0
   13.9793    2.9145  -10.3127 H   0  0  0  0  0  0  0  0  0  0  0  0
   15.4488    3.8285  -10.6672 H   0  0  0  0  0  0  0  0  0  0  0  0
   14.2367    5.0788  -12.4699 H   0  0  0  0  0  0  0  0  0  0  0  0
   12.7667    4.1690  -12.1127 H   0  0  0  0  0  0  0  0  0  0  0  0
   15.4188    2.9508  -13.0468 H   0  0  0  0  0  0  0  0  0  0  0  0
   13.9683    3.1820  -14.0405 H   0  0  0  0  0  0  0  0  0  0  0  0
   13.9420    2.0363  -12.6870 H   0  0  0  0  0  0  0  0  0  0  0  0
  1  2  1  0  0  0  0
  1 24  1  0  0  0  0
  1 25  1  0  0  0  0
  2  3  1  0  0  0  0
  2 26  1  0  0  0  0
  3  4  1  0  0  0  0
  3 27  1  0  0  0  0
  3 28  1  0  0  0  0
  4  5  1  0  0  0  0
  4 29  1  0  0  0  0
  4 30  1  0  0  0  0
  5  6  1  0  0  0  0
  5 31  1  0  0  0  0
  6  7  1  0  0  0  0
  6 32  1  0  0  0  0
  7  8  1  0  0  0  0
  7 33  1  0  0  0  0
  8  9  1  0  0  0  0
  8 34  1  0  0  0  0
  9 10  1  0  0  0  0
  9 35  1  0  0  0  0
 10 11  1  0  0  0  0
 10 36  1  0  0  0  0
 11 12  1  0  0  0  0
 11 37  1  0  0  0  0
 12 13  1  0  0  0  0
 12 38  1  0  0  0  0
 13 14  1  0  0  0  0
 13 39  1  0  0  0  0
 14 15  1  0  0  0  0
 14 40  1  0  0  0  0
 14 41  1  0  0  0  0
 15 16  1  0  0  0  0
 15 42  1  0  0  0  0
 16 17  1  0  0  0  0
 16 43  1  0  0  0  0
 17 18  1  0  0  0  0
 17 44  1  0  0  0  0
 18 19  1  0  0  0  0
 18 45  1  0  0  0  0
 18 46  1  0  0  0  0
 19 20  1  0  0  0  0
 19 47  1  0  0  0  0
 19 48  1  0  0  0  0
 20 21  1  0  0  0  0
 20 49  1  0  0  0  0
 20 50  1  0  0  0  0
 21 22  1  0  0  0  0
 21 51  1  0  0  0  0
 21 52  1  0  0  0  0
 22 23  1  0  0  0  0
 22 53  1  0  0  0  0
 22 54  1  0  0  0  0
 23 55  1  0  0  0  0
 23 56  1  0  0  0  0
 23 57  1  0  0  0  0
M  END
$$$$
