
 OpenBabel04232217033D

 93 92  0  0  0  0  0  0  0  0999 V2000
   11.7534   12.2118   -4.9390 S   0  0  0  0  0  0  0  0  0  0  0  0
   13.3997   11.8981   -4.9376 O   0  0  0  0  0  0  0  0  0  0  0  0
   13.6431   10.3431   -4.3620 S   0  0  0  0  0  0  0  0  0  0  0  0
   15.7001   10.2038   -4.4547 S   0  0  0  0  0  0  0  0  0  0  0  0
   16.3108   11.4226   -3.2317 C   0  0  0  0  0  0  0  0  0  0  0  0
   15.7992   11.1870   -1.8868 N   0  0  0  0  0  0  0  0  0  0  0  0
   16.3074   12.1895   -0.9752 N   0  0  0  0  0  0  0  0  0  0  0  0
   15.7699   12.0262    0.3288 N   0  0  0  0  0  0  0  0  0  0  0  0
   16.2642   12.9885    1.2543 N   0  0  0  0  0  0  0  0  0  0  0  0
   15.7586   12.7681    2.5742 N   0  0  0  0  0  0  0  0  0  0  0  0
   16.1467   11.5034    3.0790 N   0  0  0  0  0  0  0  0  0  0  0  0
   15.6222   11.3039    4.3591 N   0  0  0  0  0  0  0  0  0  0  0  0
   15.9641   10.0209    4.8921 N   0  0  0  0  0  0  0  0  0  0  0  0
   15.3789    9.8870    6.4436 S   0  0  0  0  0  0  0  0  0  0  0  0
   16.0278    8.0245    7.0528 S   0  0  0  0  0  0  0  0  0  0  0  0
   18.1004    8.0170    7.0937 S   0  0  0  0  0  0  0  0  0  0  0  0
   18.7949    9.4471    8.4337 S   0  0  0  0  0  0  0  0  0  0  0  0
   20.9028    9.4357    8.3969 S   0  0  0  0  0  0  0  0  0  0  0  0
   21.5991   10.9331    9.7132 S   0  0  0  0  0  0  0  0  0  0  0  0
   23.7096   10.9239    9.7056 S   0  0  0  0  0  0  0  0  0  0  0  0
   24.4011   12.4218   11.0218 S   0  0  0  0  0  0  0  0  0  0  0  0
   26.5110   12.4118   11.0130 S   0  0  0  0  0  0  0  0  0  0  0  0
   27.2018   13.9090   12.3287 S   0  0  0  0  0  0  0  0  0  0  0  0
   29.3112   13.8991   12.3199 S   0  0  0  0  0  0  0  0  0  0  0  0
   30.0019   15.3963   13.6356 S   0  0  0  0  0  0  0  0  0  0  0  0
   32.1112   15.3864   13.6269 S   0  0  0  0  0  0  0  0  0  0  0  0
   32.8018   16.8836   14.9425 S   0  0  0  0  0  0  0  0  0  0  0  0
   34.9112   16.8736   14.9338 S   0  0  0  0  0  0  0  0  0  0  0  0
   35.6018   18.3709   16.2495 S   0  0  0  0  0  0  0  0  0  0  0  0
   37.7112   18.3609   16.2407 S   0  0  0  0  0  0  0  0  0  0  0  0
   38.4018   19.8581   17.5564 S   0  0  0  0  0  0  0  0  0  0  0  0
   40.5112   19.8482   17.5477 S   0  0  0  0  0  0  0  0  0  0  0  0
   41.2018   21.3454   18.8633 S   0  0  0  0  0  0  0  0  0  0  0  0
   43.3112   21.3354   18.8546 S   0  0  0  0  0  0  0  0  0  0  0  0
   44.0018   22.8326   20.1703 S   0  0  0  0  0  0  0  0  0  0  0  0
   46.1112   22.8227   20.1615 S   0  0  0  0  0  0  0  0  0  0  0  0
   46.8018   24.3199   21.4772 S   0  0  0  0  0  0  0  0  0  0  0  0
   48.9112   24.3099   21.4684 S   0  0  0  0  0  0  0  0  0  0  0  0
   49.6018   25.8072   22.7841 S   0  0  0  0  0  0  0  0  0  0  0  0
   51.7112   25.7972   22.7754 S   0  0  0  0  0  0  0  0  0  0  0  0
   52.4018   27.2944   24.0911 S   0  0  0  0  0  0  0  0  0  0  0  0
   54.5112   27.2845   24.0823 S   0  0  0  0  0  0  0  0  0  0  0  0
   55.2018   28.7817   25.3980 S   0  0  0  0  0  0  0  0  0  0  0  0
   57.3111   28.7717   25.3892 S   0  0  0  0  0  0  0  0  0  0  0  0
   58.0018   30.2689   26.7049 S   0  0  0  0  0  0  0  0  0  0  0  0
   60.1111   30.2590   26.6962 S   0  0  0  0  0  0  0  0  0  0  0  0
   60.8018   31.7562   28.0118 S   0  0  0  0  0  0  0  0  0  0  0  0
   62.9111   31.7463   28.0031 S   0  0  0  0  0  0  0  0  0  0  0  0
   63.6018   33.2435   29.3188 S   0  0  0  0  0  0  0  0  0  0  0  0
   65.7111   33.2335   29.3100 S   0  0  0  0  0  0  0  0  0  0  0  0
   66.4017   34.7307   30.6257 S   0  0  0  0  0  0  0  0  0  0  0  0
   68.5111   34.7208   30.6170 S   0  0  0  0  0  0  0  0  0  0  0  0
   69.2017   36.2180   31.9326 S   0  0  0  0  0  0  0  0  0  0  0  0
   71.3111   36.2080   31.9239 S   0  0  0  0  0  0  0  0  0  0  0  0
   72.0017   37.7053   33.2396 S   0  0  0  0  0  0  0  0  0  0  0  0
   74.1111   37.6953   33.2308 S   0  0  0  0  0  0  0  0  0  0  0  0
   74.8017   39.1925   34.5465 S   0  0  0  0  0  0  0  0  0  0  0  0
   76.9111   39.1826   34.5377 S   0  0  0  0  0  0  0  0  0  0  0  0
   77.6017   40.6798   35.8534 S   0  0  0  0  0  0  0  0  0  0  0  0
   79.7111   40.6698   35.8447 S   0  0  0  0  0  0  0  0  0  0  0  0
   80.4017   42.1670   37.1603 S   0  0  0  0  0  0  0  0  0  0  0  0
   82.5111   42.1571   37.1516 S   0  0  0  0  0  0  0  0  0  0  0  0
   83.2017   43.6543   38.4673 S   0  0  0  0  0  0  0  0  0  0  0  0
   85.3111   43.6443   38.4585 S   0  0  0  0  0  0  0  0  0  0  0  0
   86.0017   45.1416   39.7742 S   0  0  0  0  0  0  0  0  0  0  0  0
   88.1111   45.1316   39.7655 S   0  0  0  0  0  0  0  0  0  0  0  0
   88.8017   46.6288   41.0811 S   0  0  0  0  0  0  0  0  0  0  0  0
   90.9111   46.6189   41.0724 S   0  0  0  0  0  0  0  0  0  0  0  0
   91.6017   48.1161   42.3881 S   0  0  0  0  0  0  0  0  0  0  0  0
   93.7110   48.1061   42.3793 S   0  0  0  0  0  0  0  0  0  0  0  0
   94.4017   49.6033   43.6950 S   0  0  0  0  0  0  0  0  0  0  0  0
   96.5110   49.5934   43.6862 S   0  0  0  0  0  0  0  0  0  0  0  0
   97.2016   51.0906   45.0019 S   0  0  0  0  0  0  0  0  0  0  0  0
   99.3108   51.0805   44.9931 S   0  0  0  0  0  0  0  0  0  0  0  0
  100.0008   52.5774   46.3086 S   0  0  0  0  0  0  0  0  0  0  0  0
  102.1080   52.5668   46.2987 S   0  0  0  0  0  0  0  0  0  0  0  0
  102.7950   54.0611   47.6121 S   0  0  0  0  0  0  0  0  0  0  0  0
  104.8914   54.0256   47.6070 S   0  0  0  0  0  0  0  0  0  0  0  0
  105.5771   55.5454   48.8571 S   0  0  0  0  0  0  0  0  0  0  0  0
  107.6576   55.4804   48.8658 S   0  0  0  0  0  0  0  0  0  0  0  0
  108.2688   55.9355   46.9505 S   0  0  0  0  0  0  0  0  0  0  0  0
   11.7111   13.4880   -5.3570 H   0  0  0  0  0  0  0  0  0  0  0  0
   16.0129   12.4064   -3.5957 H   0  0  0  0  0  0  0  0  0  0  0  0
   17.4088   11.3947   -3.2321 H   0  0  0  0  0  0  0  0  0  0  0  0
   16.1333   10.2800   -1.5588 H   0  0  0  0  0  0  0  0  0  0  0  0
   15.9984   13.1409   -1.2698 H   0  0  0  0  0  0  0  0  0  0  0  0
   16.0450   11.0788    0.6902 H   0  0  0  0  0  0  0  0  0  0  0  0
   15.9523   13.9155    0.9593 H   0  0  0  0  0  0  0  0  0  0  0  0
   14.7364   12.7985    2.5595 H   0  0  0  0  0  0  0  0  0  0  0  0
   17.1602   11.4613    3.1317 H   0  0  0  0  0  0  0  0  0  0  0  0
   14.5904   11.3736    4.3184 H   0  0  0  0  0  0  0  0  0  0  0  0
   16.9993    9.9756    4.9266 H   0  0  0  0  0  0  0  0  0  0  0  0
  109.6132   55.8867   47.0341 H   0  0  0  0  0  0  0  0  0  0  0  0
  1  2  1  0  0  0  0
  1 82  1  0  0  0  0
  2  3  1  0  0  0  0
  3  4  1  0  0  0  0
  4  5  1  0  0  0  0
  5  6  1  0  0  0  0
  5 83  1  0  0  0  0
  5 84  1  0  0  0  0
  6  7  1  0  0  0  0
  6 85  1  0  0  0  0
  7  8  1  0  0  0  0
  7 86  1  0  0  0  0
  8  9  1  0  0  0  0
  8 87  1  0  0  0  0
  9 10  1  0  0  0  0
  9 88  1  0  0  0  0
 10 11  1  0  0  0  0
 10 89  1  0  0  0  0
 11 12  1  0  0  0  0
 11 90  1  0  0  0  0
 12 13  1  0  0  0  0
 12 91  1  0  0  0  0
 13 14  1  0  0  0  0
 13 92  1  0  0  0  0
 14 15  1  0  0  0  0
 15 16  1  0  0  0  0
 16 17  1  0  0  0  0
 17 18  1  0  0  0  0
 18 19  1  0  0  0  0
 19 20  1  0  0  0  0
 20 21  1  0  0  0  0
 21 22  1  0  0  0  0
 22 23  1  0  0  0  0
 23 24  1  0  0  0  0
 24 25  1  0  0  0  0
 25 26  1  0  0  0  0
 26 27  1  0  0  0  0
 27 28  1  0  0  0  0
 28 29  1  0  0  0  0
 29 30  1  0  0  0  0
 30 31  1  0  0  0  0
 31 32  1  0  0  0  0
 32 33  1  0  0  0  0
 33 34  1  0  0  0  0
 34 35  1  0  0  0  0
 35 36  1  0  0  0  0
 36 37  1  0  0  0  0
 37 38  1  0  0  0  0
 38 39  1  0  0  0  0
 39 40  1  0  0  0  0
 40 41  1  0  0  0  0
 41 42  1  0  0  0  0
 42 43  1  0  0  0  0
 43 44  1  0  0  0  0
 44 45  1  0  0  0  0
 45 46  1  0  0  0  0
 46 47  1  0  0  0  0
 47 48  1  0  0  0  0
 48 49  1  0  0  0  0
 49 50  1  0  0  0  0
 50 51  1  0  0  0  0
 51 52  1  0  0  0  0
 52 53  1  0  0  0  0
 53 54  1  0  0  0  0
 54 55  1  0  0  0  0
 55 56  1  0  0  0  0
 56 57  1  0  0  0  0
 57 58  1  0  0  0  0
 58 59  1  0  0  0  0
 59 60  1  0  0  0  0
 60 61  1  0  0  0  0
 61 62  1  0  0  0  0
 62 63  1  0  0  0  0
 63 64  1  0  0  0  0
 64 65  1  0  0  0  0
 65 66  1  0  0  0  0
 66 67  1  0  0  0  0
 67 68  1  0  0  0  0
 68 69  1  0  0  0  0
 69 70  1  0  0  0  0
 70 71  1  0  0  0  0
 71 72  1  0  0  0  0
 72 73  1  0  0  0  0
 73 74  1  0  0  0  0
 74 75  1  0  0  0  0
 75 76  1  0  0  0  0
 76 77  1  0  0  0  0
 77 78  1  0  0  0  0
 78 79  1  0  0  0  0
 79 80  1  0  0  0  0
 80 81  1  0  0  0  0
 81 93  1  0  0  0  0
M  END
$$$$
