
 OpenBabel04232217023D

 95 94  0  0  0  0  0  0  0  0999 V2000
   13.6088    8.8994   -4.8282 O   0  0  0  0  0  0  0  0  0  0  0  0
   12.9380    8.1253   -3.5427 S   0  0  0  0  0  0  0  0  0  0  0  0
   13.6372    9.0830   -2.1436 C   0  0  0  0  0  0  0  0  0  0  0  0
   13.0930    8.4705   -0.8335 C   0  0  0  0  0  0  0  0  0  0  0  0
   13.6351    9.2074    0.4055 C   0  0  0  0  0  0  0  0  0  0  0  0
   13.0867    8.6057    1.6332 N   0  0  0  0  0  0  0  0  0  0  0  0
   13.5981    9.2981    2.7652 N   0  0  0  0  0  0  0  0  0  0  0  0
   13.0783    8.7497    3.9437 N   0  0  0  0  0  0  0  0  0  0  0  0
   13.6002    9.3972    5.0699 N   0  0  0  0  0  0  0  0  0  0  0  0
   13.0691    8.8289    6.2509 N   0  0  0  0  0  0  0  0  0  0  0  0
   13.4368    7.4285    6.3874 N   0  0  0  0  0  0  0  0  0  0  0  0
   12.8641    6.8407    7.8409 S   0  0  0  0  0  0  0  0  0  0  0  0
   13.5159    4.8844    7.8457 S   0  0  0  0  0  0  0  0  0  0  0  0
   15.5830    4.8665    7.8875 S   0  0  0  0  0  0  0  0  0  0  0  0
   16.2701    5.8147    9.6004 S   0  0  0  0  0  0  0  0  0  0  0  0
   18.3754    5.8161    9.5562 S   0  0  0  0  0  0  0  0  0  0  0  0
   19.0717    6.8471   11.2616 S   0  0  0  0  0  0  0  0  0  0  0  0
   21.1818    6.8404   11.2514 S   0  0  0  0  0  0  0  0  0  0  0  0
   21.8731    7.8724   12.9576 S   0  0  0  0  0  0  0  0  0  0  0  0
   23.9829    7.8657   12.9466 S   0  0  0  0  0  0  0  0  0  0  0  0
   24.6736    8.8973   14.6522 S   0  0  0  0  0  0  0  0  0  0  0  0
   26.7830    8.8904   14.6409 S   0  0  0  0  0  0  0  0  0  0  0  0
   27.4736    9.9219   16.3464 S   0  0  0  0  0  0  0  0  0  0  0  0
   29.5830    9.9150   16.3351 S   0  0  0  0  0  0  0  0  0  0  0  0
   30.2736   10.9464   18.0406 S   0  0  0  0  0  0  0  0  0  0  0  0
   32.3830   10.9396   18.0292 S   0  0  0  0  0  0  0  0  0  0  0  0
   33.0736   11.9710   19.7347 S   0  0  0  0  0  0  0  0  0  0  0  0
   35.1830   11.9642   19.7234 S   0  0  0  0  0  0  0  0  0  0  0  0
   35.8736   12.9956   21.4289 S   0  0  0  0  0  0  0  0  0  0  0  0
   37.9830   12.9888   21.4176 S   0  0  0  0  0  0  0  0  0  0  0  0
   38.6736   14.0202   23.1231 S   0  0  0  0  0  0  0  0  0  0  0  0
   40.7830   14.0134   23.1118 S   0  0  0  0  0  0  0  0  0  0  0  0
   41.4736   15.0448   24.8173 S   0  0  0  0  0  0  0  0  0  0  0  0
   43.5830   15.0380   24.8059 S   0  0  0  0  0  0  0  0  0  0  0  0
   44.2736   16.0694   26.5114 S   0  0  0  0  0  0  0  0  0  0  0  0
   46.3830   16.0625   26.5001 S   0  0  0  0  0  0  0  0  0  0  0  0
   47.0736   17.0940   28.2056 S   0  0  0  0  0  0  0  0  0  0  0  0
   49.1830   17.0871   28.1943 S   0  0  0  0  0  0  0  0  0  0  0  0
   49.8736   18.1186   29.8998 S   0  0  0  0  0  0  0  0  0  0  0  0
   51.9829   18.1117   29.8884 S   0  0  0  0  0  0  0  0  0  0  0  0
   52.6736   19.1432   31.5940 S   0  0  0  0  0  0  0  0  0  0  0  0
   54.7829   19.1363   31.5826 S   0  0  0  0  0  0  0  0  0  0  0  0
   55.4736   20.1678   33.2881 S   0  0  0  0  0  0  0  0  0  0  0  0
   57.5829   20.1609   33.2768 S   0  0  0  0  0  0  0  0  0  0  0  0
   58.2736   21.1924   34.9823 S   0  0  0  0  0  0  0  0  0  0  0  0
   60.3829   21.1855   34.9710 S   0  0  0  0  0  0  0  0  0  0  0  0
   61.0735   22.2170   36.6765 S   0  0  0  0  0  0  0  0  0  0  0  0
   63.1829   22.2101   36.6651 S   0  0  0  0  0  0  0  0  0  0  0  0
   63.8735   23.2416   38.3706 S   0  0  0  0  0  0  0  0  0  0  0  0
   65.9829   23.2347   38.3593 S   0  0  0  0  0  0  0  0  0  0  0  0
   66.6735   24.2661   40.0648 S   0  0  0  0  0  0  0  0  0  0  0  0
   68.7829   24.2593   40.0535 S   0  0  0  0  0  0  0  0  0  0  0  0
   69.4735   25.2907   41.7590 S   0  0  0  0  0  0  0  0  0  0  0  0
   71.5829   25.2839   41.7477 S   0  0  0  0  0  0  0  0  0  0  0  0
   72.2735   26.3153   43.4532 S   0  0  0  0  0  0  0  0  0  0  0  0
   74.3829   26.3085   43.4418 S   0  0  0  0  0  0  0  0  0  0  0  0
   75.0735   27.3399   45.1473 S   0  0  0  0  0  0  0  0  0  0  0  0
   77.1829   27.3331   45.1360 S   0  0  0  0  0  0  0  0  0  0  0  0
   77.8735   28.3645   46.8415 S   0  0  0  0  0  0  0  0  0  0  0  0
   79.9829   28.3577   46.8302 S   0  0  0  0  0  0  0  0  0  0  0  0
   80.6735   29.3891   48.5357 S   0  0  0  0  0  0  0  0  0  0  0  0
   82.7829   29.3822   48.5243 S   0  0  0  0  0  0  0  0  0  0  0  0
   83.4735   30.4137   50.2299 S   0  0  0  0  0  0  0  0  0  0  0  0
   85.5829   30.4068   50.2185 S   0  0  0  0  0  0  0  0  0  0  0  0
   86.2735   31.4383   51.9240 S   0  0  0  0  0  0  0  0  0  0  0  0
   88.3828   31.4314   51.9127 S   0  0  0  0  0  0  0  0  0  0  0  0
   89.0735   32.4629   53.6182 S   0  0  0  0  0  0  0  0  0  0  0  0
   91.1828   32.4560   53.6069 S   0  0  0  0  0  0  0  0  0  0  0  0
   91.8735   33.4875   55.3124 S   0  0  0  0  0  0  0  0  0  0  0  0
   93.9828   33.4806   55.3010 S   0  0  0  0  0  0  0  0  0  0  0  0
   94.6735   34.5121   57.0065 S   0  0  0  0  0  0  0  0  0  0  0  0
   96.7828   34.5052   56.9952 S   0  0  0  0  0  0  0  0  0  0  0  0
   97.4734   35.5366   58.7007 S   0  0  0  0  0  0  0  0  0  0  0  0
   99.5826   35.5297   58.6893 S   0  0  0  0  0  0  0  0  0  0  0  0
  100.2726   36.5608   60.3944 S   0  0  0  0  0  0  0  0  0  0  0  0
  102.3796   36.5538   60.3817 S   0  0  0  0  0  0  0  0  0  0  0  0
  103.0659   37.5829   62.0841 S   0  0  0  0  0  0  0  0  0  0  0  0
  105.1613   37.5466   62.0686 S   0  0  0  0  0  0  0  0  0  0  0  0
  105.8475   38.6284   63.7108 S   0  0  0  0  0  0  0  0  0  0  0  0
  107.9257   38.5524   63.7028 S   0  0  0  0  0  0  0  0  0  0  0  0
  108.5402   39.5720   62.0226 S   0  0  0  0  0  0  0  0  0  0  0  0
   13.3010    8.4736   -5.6840 H   0  0  0  0  0  0  0  0  0  0  0  0
   13.3408   10.1318   -2.2230 H   0  0  0  0  0  0  0  0  0  0  0  0
   14.7290    9.0273   -2.1613 H   0  0  0  0  0  0  0  0  0  0  0  0
   13.3800    7.4156   -0.7764 H   0  0  0  0  0  0  0  0  0  0  0  0
   11.9998    8.5173   -0.8339 H   0  0  0  0  0  0  0  0  0  0  0  0
   13.3270   10.2623    0.3469 H   0  0  0  0  0  0  0  0  0  0  0  0
   14.7206    9.1679    0.4101 H   0  0  0  0  0  0  0  0  0  0  0  0
   13.3984    7.6445    1.7332 H   0  0  0  0  0  0  0  0  0  0  0  0
   13.2835   10.2735    2.7580 H   0  0  0  0  0  0  0  0  0  0  0  0
   13.3655    7.7511    4.0476 H   0  0  0  0  0  0  0  0  0  0  0  0
   13.3038   10.4049    5.0211 H   0  0  0  0  0  0  0  0  0  0  0  0
   12.0587    8.9088    6.2089 H   0  0  0  0  0  0  0  0  0  0  0  0
   14.4556    7.4328    6.3840 H   0  0  0  0  0  0  0  0  0  0  0  0
  109.8853   39.4942   62.0966 H   0  0  0  0  0  0  0  0  0  0  0  0
  1  2  1  0  0  0  0
  1 82  1  0  0  0  0
  2  3  1  0  0  0  0
  3  4  1  0  0  0  0
  3 83  1  0  0  0  0
  3 84  1  0  0  0  0
  4  5  1  0  0  0  0
  4 85  1  0  0  0  0
  4 86  1  0  0  0  0
  5  6  1  0  0  0  0
  5 87  1  0  0  0  0
  5 88  1  0  0  0  0
  6  7  1  0  0  0  0
  6 89  1  0  0  0  0
  7  8  1  0  0  0  0
  7 90  1  0  0  0  0
  8  9  1  0  0  0  0
  8 91  1  0  0  0  0
  9 10  1  0  0  0  0
  9 92  1  0  0  0  0
 10 11  1  0  0  0  0
 10 93  1  0  0  0  0
 11 12  1  0  0  0  0
 11 94  1  0  0  0  0
 12 13  1  0  0  0  0
 13 14  1  0  0  0  0
 14 15  1  0  0  0  0
 15 16  1  0  0  0  0
 16 17  1  0  0  0  0
 17 18  1  0  0  0  0
 18 19  1  0  0  0  0
 19 20  1  0  0  0  0
 20 21  1  0  0  0  0
 21 22  1  0  0  0  0
 22 23  1  0  0  0  0
 23 24  1  0  0  0  0
 24 25  1  0  0  0  0
 25 26  1  0  0  0  0
 26 27  1  0  0  0  0
 27 28  1  0  0  0  0
 28 29  1  0  0  0  0
 29 30  1  0  0  0  0
 30 31  1  0  0  0  0
 31 32  1  0  0  0  0
 32 33  1  0  0  0  0
 33 34  1  0  0  0  0
 34 35  1  0  0  0  0
 35 36  1  0  0  0  0
 36 37  1  0  0  0  0
 37 38  1  0  0  0  0
 38 39  1  0  0  0  0
 39 40  1  0  0  0  0
 40 41  1  0  0  0  0
 41 42  1  0  0  0  0
 42 43  1  0  0  0  0
 43 44  1  0  0  0  0
 44 45  1  0  0  0  0
 45 46  1  0  0  0  0
 46 47  1  0  0  0  0
 47 48  1  0  0  0  0
 48 49  1  0  0  0  0
 49 50  1  0  0  0  0
 50 51  1  0  0  0  0
 51 52  1  0  0  0  0
 52 53  1  0  0  0  0
 53 54  1  0  0  0  0
 54 55  1  0  0  0  0
 55 56  1  0  0  0  0
 56 57  1  0  0  0  0
 57 58  1  0  0  0  0
 58 59  1  0  0  0  0
 59 60  1  0  0  0  0
 60 61  1  0  0  0  0
 61 62  1  0  0  0  0
 62 63  1  0  0  0  0
 63 64  1  0  0  0  0
 64 65  1  0  0  0  0
 65 66  1  0  0  0  0
 66 67  1  0  0  0  0
 67 68  1  0  0  0  0
 68 69  1  0  0  0  0
 69 70  1  0  0  0  0
 70 71  1  0  0  0  0
 71 72  1  0  0  0  0
 72 73  1  0  0  0  0
 73 74  1  0  0  0  0
 74 75  1  0  0  0  0
 75 76  1  0  0  0  0
 76 77  1  0  0  0  0
 77 78  1  0  0  0  0
 78 79  1  0  0  0  0
 79 80  1  0  0  0  0
 80 81  1  0  0  0  0
 81 95  1  0  0  0  0
M  END
$$$$
