
 OpenBabel04232216433D

 27 28  0  0  0  0  0  0  0  0999 V2000
    2.6128   -0.5769    0.3881 C   0  0  0  0  0  0  0  0  0  0  0  0
    2.9025    0.3923   -0.4879 C   0  0  0  0  0  0  0  0  0  0  0  0
    3.3967   -0.0723   -1.7560 C   0  0  0  0  0  0  0  0  0  0  0  0
    4.4939   -0.8622   -1.8547 C   0  0  0  0  0  0  0  0  0  0  0  0
    4.9207   -1.0750   -3.2456 C   0  0  0  0  0  0  0  0  0  0  0  0
    6.0449   -0.4392   -3.6474 C   0  0  0  0  0  0  0  0  0  0  0  0
    7.2407   -1.2983   -3.7599 C   0  0  0  0  0  0  0  0  0  0  0  0
    7.0998   -2.4363   -4.7590 C   0  0  0  0  0  0  0  0  0  0  0  0
    7.8014   -1.4552   -2.5382 C   0  0  0  0  0  0  0  0  0  0  0  0
    8.7527   -0.5793   -1.9908 N   0  0  0  0  0  0  0  0  0  0  0  0
    7.2382   -2.5793   -1.7418 N   0  0  0  0  0  0  0  0  0  0  0  0
    7.8761   -3.6911   -1.7193 O   0  0  0  0  0  0  0  0  0  0  0  0
    6.2006   -2.4647   -1.0132 N   0  0  0  0  0  0  0  0  0  0  0  0
    5.3290   -1.4167   -0.7142 C   0  0  0  0  0  0  0  0  0  0  0  0
    5.1225   -1.3162    0.6325 C   0  0  0  0  0  0  0  0  0  0  0  0
    3.7977   -0.7544    1.6318 S   0  0  0  0  0  0  0  0  0  0  0  0
    2.1026   -1.4888    0.0631 H   0  0  0  0  0  0  0  0  0  0  0  0
    3.4703    1.2702   -0.1476 H   0  0  0  0  0  0  0  0  0  0  0  0
    2.8657    0.2911   -2.6350 H   0  0  0  0  0  0  0  0  0  0  0  0
    4.6792   -2.0826   -3.5644 H   0  0  0  0  0  0  0  0  0  0  0  0
    6.2910    0.5320   -3.1987 H   0  0  0  0  0  0  0  0  0  0  0  0
    6.0724   -2.7518   -4.9592 H   0  0  0  0  0  0  0  0  0  0  0  0
    7.6543   -3.3275   -4.4468 H   0  0  0  0  0  0  0  0  0  0  0  0
    7.5208   -2.1158   -5.7163 H   0  0  0  0  0  0  0  0  0  0  0  0
    9.0638   -0.9344   -1.0851 H   0  0  0  0  0  0  0  0  0  0  0  0
    9.5609   -0.5516   -2.6084 H   0  0  0  0  0  0  0  0  0  0  0  0
    5.8944   -1.7635    1.2555 H   0  0  0  0  0  0  0  0  0  0  0  0
  1  2  2  0  0  0  0
  1 16  1  0  0  0  0
  1 17  1  0  0  0  0
  2  3  1  0  0  0  0
  2 18  1  0  0  0  0
  3  4  2  0  0  0  0
  3 19  1  0  0  0  0
  4  5  1  0  0  0  0
  4 14  1  0  0  0  0
  5  6  2  0  0  0  0
  5 20  1  0  0  0  0
  6  7  1  0  0  0  0
  6 21  1  0  0  0  0
  7  8  1  0  0  0  0
  7  9  2  0  0  0  0
  8 22  1  0  0  0  0
  8 23  1  0  0  0  0
  8 24  1  0  0  0  0
  9 10  1  0  0  0  0
  9 11  1  0  0  0  0
 10 25  1  0  0  0  0
 10 26  1  0  0  0  0
 11 12  2  0  0  0  0
 11 13  2  0  0  0  0
 13 14  1  0  0  0  0
 14 15  2  0  0  0  0
 15 16  1  0  0  0  0
 15 27  1  0  0  0  0
M  END
$$$$
