
 OpenBabel04232216493D

225225  0  0  1  0  0  0  0  0999 V2000
  -11.8508   16.7808   -7.2947 C   0  0  0  0  0  0  0  0  0  0  0  0
  -11.2213   15.6106   -6.6355 C   0  0  0  0  0  0  0  0  0  0  0  0
   -9.9716   15.5635   -6.0945 C   0  0  0  0  0  0  0  0  0  0  0  0
   -9.7647   14.2778   -5.4813 C   0  0  0  0  0  0  0  0  0  0  0  0
  -10.8594   13.5341   -5.5998 C   0  0  0  0  0  0  0  0  0  0  0  0
  -11.8995   14.2805   -6.4053 C   0  0  3  0  0  0  0  0  0  0  0  0
  -12.1890   13.5238   -7.7011 C   0  0  0  0  0  0  0  0  0  0  0  0
  -12.7206   12.1336   -7.3865 C   0  0  0  0  0  0  0  0  0  0  0  0
  -13.0021   11.3332   -8.6267 C   0  0  0  0  0  0  0  0  0  0  0  0
  -13.4987    9.9733   -8.1730 C   0  0  0  0  0  0  0  0  0  0  0  0
  -13.8119    9.1509   -9.3937 C   0  0  0  0  0  0  0  0  0  0  0  0
  -14.3135    7.7875   -8.9789 C   0  0  0  0  0  0  0  0  0  0  0  0
  -14.6223    6.9843  -10.2237 C   0  0  0  0  0  0  0  0  0  0  0  0
  -15.1263    5.6126   -9.8318 C   0  0  0  0  0  0  0  0  0  0  0  0
  -15.4338    4.8100  -11.0792 C   0  0  0  0  0  0  0  0  0  0  0  0
  -15.9386    3.4354  -10.6887 C   0  0  0  0  0  0  0  0  0  0  0  0
  -16.2480    2.6293  -11.9354 C   0  0  0  0  0  0  0  0  0  0  0  0
  -16.7535    1.2530  -11.5473 C   0  0  0  0  0  0  0  0  0  0  0  0
  -17.0642    0.4466  -12.7940 C   0  0  0  0  0  0  0  0  0  0  0  0
  -17.5691   -0.9295  -12.4065 C   0  0  0  0  0  0  0  0  0  0  0  0
  -17.8763   -1.7367  -13.6531 C   0  0  0  0  0  0  0  0  0  0  0  0
  -18.3856   -3.1106  -13.2597 C   0  0  0  0  0  0  0  0  0  0  0  0
  -18.6906   -3.9208  -14.5043 C   0  0  0  0  0  0  0  0  0  0  0  0
  -19.2079   -5.2918  -14.1161 C   0  0  0  0  0  0  0  0  0  0  0  0
  -19.5136   -6.0992  -15.3628 C   0  0  0  0  0  0  0  0  0  0  0  0
  -20.0231   -7.4733  -14.9725 C   0  0  0  0  0  0  0  0  0  0  0  0
  -20.3335   -8.2797  -16.2185 C   0  0  0  0  0  0  0  0  0  0  0  0
  -20.8415   -9.6547  -15.8289 C   0  0  0  0  0  0  0  0  0  0  0  0
  -21.1508  -10.4609  -17.0759 C   0  0  0  0  0  0  0  0  0  0  0  0
  -21.6597  -11.8353  -16.6863 C   0  0  0  0  0  0  0  0  0  0  0  0
  -21.9674  -12.6430  -17.9327 C   0  0  0  0  0  0  0  0  0  0  0  0
  -22.4765  -14.0179  -17.5429 C   0  0  0  0  0  0  0  0  0  0  0  0
  -22.7826  -14.8272  -18.7890 C   0  0  0  0  0  0  0  0  0  0  0  0
  -23.2938  -16.2021  -18.4001 C   0  0  0  0  0  0  0  0  0  0  0  0
  -23.6000  -17.0117  -19.6469 C   0  0  0  0  0  0  0  0  0  0  0  0
  -24.1118  -18.3877  -19.2596 C   0  0  0  0  0  0  0  0  0  0  0  0
  -24.4188  -19.2000  -20.5076 C   0  0  0  0  0  0  0  0  0  0  0  0
  -24.9303  -20.5778  -20.1197 C   0  0  0  0  0  0  0  0  0  0  0  0
  -25.2343  -21.3849  -21.3362 C   0  0  0  0  0  0  0  0  0  0  0  0
  -26.4616  -21.8601  -21.5947 C   0  0  0  0  0  0  0  0  0  0  0  0
  -26.7567  -22.6687  -22.8139 C   0  0  0  0  0  0  0  0  0  0  0  0
  -27.2674  -24.0494  -22.4301 C   0  0  0  0  0  0  0  0  0  0  0  0
  -27.5675  -24.8724  -23.6777 C   0  0  0  0  0  0  0  0  0  0  0  0
  -28.0746  -26.2488  -23.2764 C   0  0  0  0  0  0  0  0  0  0  0  0
  -28.3590  -27.0316  -24.4731 N   0  0  0  0  0  0  0  0  0  0  0  0
  -28.8460  -28.3494  -24.0885 C   0  0  0  0  0  0  0  0  0  0  0  0
  -29.1374  -29.1596  -25.3402 C   0  0  0  0  0  0  0  0  0  0  0  0
  -29.6455  -30.5389  -24.9506 C   0  0  0  0  0  0  0  0  0  0  0  0
  -29.9423  -31.3582  -26.1948 C   0  0  0  0  0  0  0  0  0  0  0  0
  -30.4510  -32.7325  -25.8020 C   0  0  0  0  0  0  0  0  0  0  0  0
  -30.7509  -33.5669  -27.0418 C   0  0  0  0  0  0  0  0  0  0  0  0
  -31.2549  -34.9351  -26.6306 C   0  0  0  0  0  0  0  0  0  0  0  0
  -32.4458  -34.7821  -25.8630 O   0  0  0  0  0  0  0  0  0  0  0  0
  -32.9289  -36.0538  -25.4627 C   0  0  0  0  0  0  0  0  0  0  0  0
  -34.1882  -35.8658  -24.6452 C   0  0  0  0  0  0  0  0  0  0  0  0
  -34.7204  -37.2223  -24.2182 C   0  0  0  0  0  0  0  0  0  0  0  0
  -35.9861  -37.0599  -23.3981 C   0  0  0  0  0  0  0  0  0  0  0  0
  -36.5073  -38.4222  -22.9757 C   0  0  0  0  0  0  0  0  0  0  0  0
  -37.7734  -38.2597  -22.1553 C   0  0  0  0  0  0  0  0  0  0  0  0
  -38.2950  -39.6203  -21.7327 C   0  0  0  0  0  0  0  0  0  0  0  0
  -39.5607  -39.4557  -20.9126 C   0  0  0  0  0  0  0  0  0  0  0  0
  -40.0821  -40.8161  -20.4903 C   0  0  0  0  0  0  0  0  0  0  0  0
  -41.3475  -40.6511  -19.6704 C   0  0  0  0  0  0  0  0  0  0  0  0
  -41.8683  -42.0115  -19.2484 C   0  0  0  0  0  0  0  0  0  0  0  0
  -43.1334  -41.8464  -18.4286 C   0  0  0  0  0  0  0  0  0  0  0  0
  -43.6541  -43.2069  -18.0067 C   0  0  0  0  0  0  0  0  0  0  0  0
  -44.9205  -43.0418  -17.1886 C   0  0  0  0  0  0  0  0  0  0  0  0
  -45.4428  -44.4022  -16.7683 C   0  0  0  0  0  0  0  0  0  0  0  0
  -46.7079  -44.2373  -15.9480 C   0  0  0  0  0  0  0  0  0  0  0  0
  -47.2294  -45.5979  -15.5261 C   0  0  0  0  0  0  0  0  0  0  0  0
  -48.4961  -45.4336  -14.7077 C   0  0  0  0  0  0  0  0  0  0  0  0
  -49.0172  -46.7942  -14.2849 C   0  0  0  0  0  0  0  0  0  0  0  0
  -50.2836  -46.6305  -13.4650 C   0  0  0  0  0  0  0  0  0  0  0  0
  -50.8074  -47.9915  -13.0433 C   0  0  0  0  0  0  0  0  0  0  0  0
  -52.0750  -47.8283  -12.2219 C   0  0  0  0  0  0  0  0  0  0  0  0
  -52.6025  -49.1889  -11.7979 C   0  0  0  0  0  0  0  0  0  0  0  0
  -53.8717  -49.0347  -10.9726 C   0  0  0  0  0  0  0  0  0  0  0  0
  -54.3945  -50.3938  -10.5517 C   0  0  0  0  0  0  0  0  0  0  0  0
  -11.2458   17.6891   -7.1835 H   0  0  0  0  0  0  0  0  0  0  0  0
  -12.8398   16.9729   -6.8599 H   0  0  0  0  0  0  0  0  0  0  0  0
  -11.9675   16.6333   -8.3734 H   0  0  0  0  0  0  0  0  0  0  0  0
   -9.2555   16.3558   -6.1052 H   0  0  0  0  0  0  0  0  0  0  0  0
   -8.8525   13.9943   -4.9808 H   0  0  0  0  0  0  0  0  0  0  0  0
  -10.9648   12.5158   -5.2407 H   0  0  0  0  0  0  0  0  0  0  0  0
  -12.8051   14.3957   -5.7980 H   0  0  0  0  0  0  0  0  0  0  0  0
  -11.2792   13.4430   -8.3116 H   0  0  0  0  0  0  0  0  0  0  0  0
  -12.9316   14.0625   -8.3003 H   0  0  0  0  0  0  0  0  0  0  0  0
  -13.6768   12.2122   -6.8631 H   0  0  0  0  0  0  0  0  0  0  0  0
  -12.0364   11.5798   -6.7311 H   0  0  0  0  0  0  0  0  0  0  0  0
  -12.1118   11.2483   -9.2611 H   0  0  0  0  0  0  0  0  0  0  0  0
  -13.7849   11.8378   -9.2042 H   0  0  0  0  0  0  0  0  0  0  0  0
  -14.3980   10.0796   -7.5495 H   0  0  0  0  0  0  0  0  0  0  0  0
  -12.7421    9.4770   -7.5516 H   0  0  0  0  0  0  0  0  0  0  0  0
  -12.9088    9.0527  -10.0069 H   0  0  0  0  0  0  0  0  0  0  0  0
  -14.5684    9.6645   -9.9996 H   0  0  0  0  0  0  0  0  0  0  0  0
  -15.2122    7.8866   -8.3571 H   0  0  0  0  0  0  0  0  0  0  0  0
  -13.5546    7.2754   -8.3746 H   0  0  0  0  0  0  0  0  0  0  0  0
  -13.7204    6.8927  -10.8418 H   0  0  0  0  0  0  0  0  0  0  0  0
  -15.3767    7.5050  -10.8269 H   0  0  0  0  0  0  0  0  0  0  0  0
  -16.0279    5.7092   -9.2143 H   0  0  0  0  0  0  0  0  0  0  0  0
  -14.3711    5.0950   -9.2274 H   0  0  0  0  0  0  0  0  0  0  0  0
  -14.5320    4.7183  -11.6970 H   0  0  0  0  0  0  0  0  0  0  0  0
  -16.1883    5.3302  -11.6820 H   0  0  0  0  0  0  0  0  0  0  0  0
  -16.8394    3.5301  -10.0697 H   0  0  0  0  0  0  0  0  0  0  0  0
  -15.1832    2.9175  -10.0847 H   0  0  0  0  0  0  0  0  0  0  0  0
  -15.3462    2.5364  -12.5534 H   0  0  0  0  0  0  0  0  0  0  0  0
  -17.0027    3.1489  -12.5386 H   0  0  0  0  0  0  0  0  0  0  0  0
  -17.6544    1.3475  -10.9276 H   0  0  0  0  0  0  0  0  0  0  0  0
  -15.9979    0.7350  -10.9433 H   0  0  0  0  0  0  0  0  0  0  0  0
  -16.1635    0.3520  -13.4127 H   0  0  0  0  0  0  0  0  0  0  0  0
  -17.8199    0.9646  -13.3970 H   0  0  0  0  0  0  0  0  0  0  0  0
  -18.4717   -0.8375  -11.7893 H   0  0  0  0  0  0  0  0  0  0  0  0
  -16.8152   -1.4502  -11.8031 H   0  0  0  0  0  0  0  0  0  0  0  0
  -16.9730   -1.8349  -14.2680 H   0  0  0  0  0  0  0  0  0  0  0  0
  -18.6287   -1.2188  -14.2610 H   0  0  0  0  0  0  0  0  0  0  0  0
  -19.2894   -3.0131  -12.6455 H   0  0  0  0  0  0  0  0  0  0  0  0
  -17.6340   -3.6289  -12.6515 H   0  0  0  0  0  0  0  0  0  0  0  0
  -17.7854   -4.0227  -15.1153 H   0  0  0  0  0  0  0  0  0  0  0  0
  -19.4374   -3.3977  -15.1143 H   0  0  0  0  0  0  0  0  0  0  0  0
  -20.1129   -5.1910  -13.5047 H   0  0  0  0  0  0  0  0  0  0  0  0
  -18.4603   -5.8143  -13.5076 H   0  0  0  0  0  0  0  0  0  0  0  0
  -18.6104   -6.1963  -15.9775 H   0  0  0  0  0  0  0  0  0  0  0  0
  -20.2657   -5.5804  -15.9701 H   0  0  0  0  0  0  0  0  0  0  0  0
  -20.9251   -7.3772  -14.3553 H   0  0  0  0  0  0  0  0  0  0  0  0
  -19.2699   -7.9944  -14.3684 H   0  0  0  0  0  0  0  0  0  0  0  0
  -19.4326   -8.3753  -16.8368 H   0  0  0  0  0  0  0  0  0  0  0  0
  -21.0877   -7.7601  -16.8220 H   0  0  0  0  0  0  0  0  0  0  0  0
  -21.7434   -9.5590  -15.2116 H   0  0  0  0  0  0  0  0  0  0  0  0
  -20.0876  -10.1743  -15.2245 H   0  0  0  0  0  0  0  0  0  0  0  0
  -20.2485  -10.5565  -17.6925 H   0  0  0  0  0  0  0  0  0  0  0  0
  -21.9035   -9.9403  -17.6805 H   0  0  0  0  0  0  0  0  0  0  0  0
  -22.5623  -11.7388  -16.0705 H   0  0  0  0  0  0  0  0  0  0  0  0
  -20.9073  -12.3544  -16.0801 H   0  0  0  0  0  0  0  0  0  0  0  0
  -21.0644  -12.7390  -18.5482 H   0  0  0  0  0  0  0  0  0  0  0  0
  -22.7200  -12.1233  -18.5386 H   0  0  0  0  0  0  0  0  0  0  0  0
  -23.3800  -13.9213  -16.9282 H   0  0  0  0  0  0  0  0  0  0  0  0
  -21.7245  -14.5364  -16.9354 H   0  0  0  0  0  0  0  0  0  0  0  0
  -21.8784  -14.9242  -19.4026 H   0  0  0  0  0  0  0  0  0  0  0  0
  -23.5332  -14.3073  -19.3969 H   0  0  0  0  0  0  0  0  0  0  0  0
  -24.1977  -16.1044  -17.7863 H   0  0  0  0  0  0  0  0  0  0  0  0
  -22.5430  -16.7214  -17.7919 H   0  0  0  0  0  0  0  0  0  0  0  0
  -22.6956  -17.1077  -20.2603 H   0  0  0  0  0  0  0  0  0  0  0  0
  -24.3503  -16.4908  -20.2545 H   0  0  0  0  0  0  0  0  0  0  0  0
  -25.0154  -18.2889  -18.6450 H   0  0  0  0  0  0  0  0  0  0  0  0
  -23.3605  -18.9059  -18.6506 H   0  0  0  0  0  0  0  0  0  0  0  0
  -23.5130  -19.2915  -21.1200 H   0  0  0  0  0  0  0  0  0  0  0  0
  -25.1677  -18.6752  -21.1144 H   0  0  0  0  0  0  0  0  0  0  0  0
  -25.8298  -20.4733  -19.5008 H   0  0  0  0  0  0  0  0  0  0  0  0
  -24.1777  -21.0997  -19.5182 H   0  0  0  0  0  0  0  0  0  0  0  0
  -24.4271  -21.5871  -22.0344 H   0  0  0  0  0  0  0  0  0  0  0  0
  -27.2728  -21.6612  -20.9004 H   0  0  0  0  0  0  0  0  0  0  0  0
  -25.8529  -22.7714  -23.4267 H   0  0  0  0  0  0  0  0  0  0  0  0
  -27.5067  -22.1486  -23.4201 H   0  0  0  0  0  0  0  0  0  0  0  0
  -28.1756  -23.9578  -21.8210 H   0  0  0  0  0  0  0  0  0  0  0  0
  -26.5200  -24.5689  -21.8167 H   0  0  0  0  0  0  0  0  0  0  0  0
  -26.6594  -24.9666  -24.2868 H   0  0  0  0  0  0  0  0  0  0  0  0
  -28.3191  -24.3579  -24.2901 H   0  0  0  0  0  0  0  0  0  0  0  0
  -28.9857  -26.1396  -22.6755 H   0  0  0  0  0  0  0  0  0  0  0  0
  -27.3202  -26.7545  -22.6612 H   0  0  0  0  0  0  0  0  0  0  0  0
  -27.5129  -27.1264  -25.0343 H   0  0  0  0  0  0  0  0  0  0  0  0
  -29.7631  -28.2538  -23.4947 H   0  0  0  0  0  0  0  0  0  0  0  0
  -28.0979  -28.8705  -23.4785 H   0  0  0  0  0  0  0  0  0  0  0  0
  -28.2296  -29.2593  -25.9486 H   0  0  0  0  0  0  0  0  0  0  0  0
  -29.8882  -28.6484  -25.9562 H   0  0  0  0  0  0  0  0  0  0  0  0
  -30.5526  -30.4447  -24.3403 H   0  0  0  0  0  0  0  0  0  0  0  0
  -28.8956  -31.0527  -24.3359 H   0  0  0  0  0  0  0  0  0  0  0  0
  -29.0348  -31.4574  -26.8018 H   0  0  0  0  0  0  0  0  0  0  0  0
  -30.6925  -30.8460  -26.8089 H   0  0  0  0  0  0  0  0  0  0  0  0
  -31.3543  -32.6276  -25.1875 H   0  0  0  0  0  0  0  0  0  0  0  0
  -29.7024  -33.2432  -25.1826 H   0  0  0  0  0  0  0  0  0  0  0  0
  -29.8495  -33.6738  -27.6553 H   0  0  0  0  0  0  0  0  0  0  0  0
  -31.5051  -33.0610  -27.6567 H   0  0  0  0  0  0  0  0  0  0  0  0
  -30.4971  -35.4476  -26.0267 H   0  0  0  0  0  0  0  0  0  0  0  0
  -31.4733  -35.5336  -27.5191 H   0  0  0  0  0  0  0  0  0  0  0  0
  -32.1649  -36.5641  -24.8651 H   0  0  0  0  0  0  0  0  0  0  0  0
  -33.1445  -36.6523  -26.3545 H   0  0  0  0  0  0  0  0  0  0  0  0
  -34.9387  -35.3233  -25.2334 H   0  0  0  0  0  0  0  0  0  0  0  0
  -33.9764  -35.2400  -23.7693 H   0  0  0  0  0  0  0  0  0  0  0  0
  -33.9615  -37.7524  -23.6291 H   0  0  0  0  0  0  0  0  0  0  0  0
  -34.9277  -37.8373  -25.1031 H   0  0  0  0  0  0  0  0  0  0  0  0
  -36.7481  -36.5352  -23.9871 H   0  0  0  0  0  0  0  0  0  0  0  0
  -35.7807  -36.4478  -22.5115 H   0  0  0  0  0  0  0  0  0  0  0  0
  -35.7459  -38.9484  -22.3868 H   0  0  0  0  0  0  0  0  0  0  0  0
  -36.7128  -39.0358  -23.8617 H   0  0  0  0  0  0  0  0  0  0  0  0
  -38.5353  -37.7342  -22.7441 H   0  0  0  0  0  0  0  0  0  0  0  0
  -37.5681  -37.6469  -21.2689 H   0  0  0  0  0  0  0  0  0  0  0  0
  -37.5339  -40.1463  -21.1433 H   0  0  0  0  0  0  0  0  0  0  0  0
  -38.5011  -40.2337  -22.6185 H   0  0  0  0  0  0  0  0  0  0  0  0
  -40.3225  -38.9301  -21.5016 H   0  0  0  0  0  0  0  0  0  0  0  0
  -39.3553  -38.8427  -20.0264 H   0  0  0  0  0  0  0  0  0  0  0  0
  -39.3208  -41.3420  -19.9009 H   0  0  0  0  0  0  0  0  0  0  0  0
  -40.2880  -41.4294  -21.3762 H   0  0  0  0  0  0  0  0  0  0  0  0
  -42.1091  -40.1254  -20.2595 H   0  0  0  0  0  0  0  0  0  0  0  0
  -41.1419  -40.0380  -18.7842 H   0  0  0  0  0  0  0  0  0  0  0  0
  -41.1068  -42.5374  -18.6593 H   0  0  0  0  0  0  0  0  0  0  0  0
  -42.0741  -42.6247  -20.1345 H   0  0  0  0  0  0  0  0  0  0  0  0
  -43.8949  -41.3206  -19.0176 H   0  0  0  0  0  0  0  0  0  0  0  0
  -42.9277  -41.2334  -17.5424 H   0  0  0  0  0  0  0  0  0  0  0  0
  -42.8931  -43.7320  -17.4163 H   0  0  0  0  0  0  0  0  0  0  0  0
  -43.8584  -43.8204  -18.8928 H   0  0  0  0  0  0  0  0  0  0  0  0
  -45.6807  -42.5151  -17.7787 H   0  0  0  0  0  0  0  0  0  0  0  0
  -44.7153  -42.4293  -16.3020 H   0  0  0  0  0  0  0  0  0  0  0  0
  -44.6818  -44.9297  -16.1803 H   0  0  0  0  0  0  0  0  0  0  0  0
  -45.6493  -45.0134  -17.6555 H   0  0  0  0  0  0  0  0  0  0  0  0
  -47.4693  -43.7108  -16.5365 H   0  0  0  0  0  0  0  0  0  0  0  0
  -46.5014  -43.6247  -15.0617 H   0  0  0  0  0  0  0  0  0  0  0  0
  -46.4682  -46.1232  -14.9360 H   0  0  0  0  0  0  0  0  0  0  0  0
  -47.4336  -46.2110  -16.4125 H   0  0  0  0  0  0  0  0  0  0  0  0
  -49.2570  -44.9086  -15.2984 H   0  0  0  0  0  0  0  0  0  0  0  0
  -48.2917  -44.8194  -13.8221 H   0  0  0  0  0  0  0  0  0  0  0  0
  -48.2554  -47.3191  -13.6954 H   0  0  0  0  0  0  0  0  0  0  0  0
  -49.2219  -47.4076  -15.1710 H   0  0  0  0  0  0  0  0  0  0  0  0
  -51.0440  -46.1032  -14.0543 H   0  0  0  0  0  0  0  0  0  0  0  0
  -50.0774  -46.0180  -12.5785 H   0  0  0  0  0  0  0  0  0  0  0  0
  -50.0453  -48.5181  -12.4556 H   0  0  0  0  0  0  0  0  0  0  0  0
  -51.0122  -48.6029  -13.9308 H   0  0  0  0  0  0  0  0  0  0  0  0
  -52.8339  -47.3002  -12.8122 H   0  0  0  0  0  0  0  0  0  0  0  0
  -51.8666  -47.2153  -11.3364 H   0  0  0  0  0  0  0  0  0  0  0  0
  -51.8380  -49.7152  -11.2131 H   0  0  0  0  0  0  0  0  0  0  0  0
  -52.8064  -49.7989  -12.6867 H   0  0  0  0  0  0  0  0  0  0  0  0
  -54.6365  -48.5103  -11.5574 H   0  0  0  0  0  0  0  0  0  0  0  0
  -53.6678  -48.4266  -10.0834 H   0  0  0  0  0  0  0  0  0  0  0  0
  -54.6249  -51.0079  -11.4283 H   0  0  0  0  0  0  0  0  0  0  0  0
  -55.3059  -50.2818   -9.9591 H   0  0  0  0  0  0  0  0  0  0  0  0
  -53.6514  -50.9237   -9.9471 H   0  0  0  0  0  0  0  0  0  0  0  0
  1  2  1  0  0  0  0
  1 79  1  0  0  0  0
  1 80  1  0  0  0  0
  1 81  1  0  0  0  0
  2  3  2  0  0  0  0
  2  6  1  0  0  0  0
  3  4  1  0  0  0  0
  3 82  1  0  0  0  0
  4  5  2  0  0  0  0
  4 83  1  0  0  0  0
  5  6  1  0  0  0  0
  5 84  1  0  0  0  0
  6  7  1  0  0  0  0
  6 85  1  0  0  0  0
  7  8  1  0  0  0  0
  7 86  1  0  0  0  0
  7 87  1  0  0  0  0
  8  9  1  0  0  0  0
  8 88  1  0  0  0  0
  8 89  1  0  0  0  0
  9 10  1  0  0  0  0
  9 90  1  0  0  0  0
  9 91  1  0  0  0  0
 10 11  1  0  0  0  0
 10 92  1  0  0  0  0
 10 93  1  0  0  0  0
 11 12  1  0  0  0  0
 11 94  1  0  0  0  0
 11 95  1  0  0  0  0
 12 13  1  0  0  0  0
 12 96  1  0  0  0  0
 12 97  1  0  0  0  0
 13 14  1  0  0  0  0
 13 98  1  0  0  0  0
 13 99  1  0  0  0  0
 14 15  1  0  0  0  0
 14100  1  0  0  0  0
 14101  1  0  0  0  0
 15 16  1  0  0  0  0
 15102  1  0  0  0  0
 15103  1  0  0  0  0
 16 17  1  0  0  0  0
 16104  1  0  0  0  0
 16105  1  0  0  0  0
 17 18  1  0  0  0  0
 17106  1  0  0  0  0
 17107  1  0  0  0  0
 18 19  1  0  0  0  0
 18108  1  0  0  0  0
 18109  1  0  0  0  0
 19 20  1  0  0  0  0
 19110  1  0  0  0  0
 19111  1  0  0  0  0
 20 21  1  0  0  0  0
 20112  1  0  0  0  0
 20113  1  0  0  0  0
 21 22  1  0  0  0  0
 21114  1  0  0  0  0
 21115  1  0  0  0  0
 22 23  1  0  0  0  0
 22116  1  0  0  0  0
 22117  1  0  0  0  0
 23 24  1  0  0  0  0
 23118  1  0  0  0  0
 23119  1  0  0  0  0
 24 25  1  0  0  0  0
 24120  1  0  0  0  0
 24121  1  0  0  0  0
 25 26  1  0  0  0  0
 25122  1  0  0  0  0
 25123  1  0  0  0  0
 26 27  1  0  0  0  0
 26124  1  0  0  0  0
 26125  1  0  0  0  0
 27 28  1  0  0  0  0
 27126  1  0  0  0  0
 27127  1  0  0  0  0
 28 29  1  0  0  0  0
 28128  1  0  0  0  0
 28129  1  0  0  0  0
 29 30  1  0  0  0  0
 29130  1  0  0  0  0
 29131  1  0  0  0  0
 30 31  1  0  0  0  0
 30132  1  0  0  0  0
 30133  1  0  0  0  0
 31 32  1  0  0  0  0
 31134  1  0  0  0  0
 31135  1  0  0  0  0
 32 33  1  0  0  0  0
 32136  1  0  0  0  0
 32137  1  0  0  0  0
 33 34  1  0  0  0  0
 33138  1  0  0  0  0
 33139  1  0  0  0  0
 34 35  1  0  0  0  0
 34140  1  0  0  0  0
 34141  1  0  0  0  0
 35 36  1  0  0  0  0
 35142  1  0  0  0  0
 35143  1  0  0  0  0
 36 37  1  0  0  0  0
 36144  1  0  0  0  0
 36145  1  0  0  0  0
 37 38  1  0  0  0  0
 37146  1  0  0  0  0
 37147  1  0  0  0  0
 38 39  1  0  0  0  0
 38148  1  0  0  0  0
 38149  1  0  0  0  0
 39 40  2  3  0  0  0
 39150  1  0  0  0  0
 40 41  1  0  0  0  0
 40151  1  0  0  0  0
 41 42  1  0  0  0  0
 41152  1  0  0  0  0
 41153  1  0  0  0  0
 42 43  1  0  0  0  0
 42154  1  0  0  0  0
 42155  1  0  0  0  0
 43 44  1  0  0  0  0
 43156  1  0  0  0  0
 43157  1  0  0  0  0
 44 45  1  0  0  0  0
 44158  1  0  0  0  0
 44159  1  0  0  0  0
 45 46  1  0  0  0  0
 45160  1  0  0  0  0
 46 47  1  0  0  0  0
 46161  1  0  0  0  0
 46162  1  0  0  0  0
 47 48  1  0  0  0  0
 47163  1  0  0  0  0
 47164  1  0  0  0  0
 48 49  1  0  0  0  0
 48165  1  0  0  0  0
 48166  1  0  0  0  0
 49 50  1  0  0  0  0
 49167  1  0  0  0  0
 49168  1  0  0  0  0
 50 51  1  0  0  0  0
 50169  1  0  0  0  0
 50170  1  0  0  0  0
 51 52  1  0  0  0  0
 51171  1  0  0  0  0
 51172  1  0  0  0  0
 52 53  1  0  0  0  0
 52173  1  0  0  0  0
 52174  1  0  0  0  0
 53 54  1  0  0  0  0
 54 55  1  0  0  0  0
 54175  1  0  0  0  0
 54176  1  0  0  0  0
 55 56  1  0  0  0  0
 55177  1  0  0  0  0
 55178  1  0  0  0  0
 56 57  1  0  0  0  0
 56179  1  0  0  0  0
 56180  1  0  0  0  0
 57 58  1  0  0  0  0
 57181  1  0  0  0  0
 57182  1  0  0  0  0
 58 59  1  0  0  0  0
 58183  1  0  0  0  0
 58184  1  0  0  0  0
 59 60  1  0  0  0  0
 59185  1  0  0  0  0
 59186  1  0  0  0  0
 60 61  1  0  0  0  0
 60187  1  0  0  0  0
 60188  1  0  0  0  0
 61 62  1  0  0  0  0
 61189  1  0  0  0  0
 61190  1  0  0  0  0
 62 63  1  0  0  0  0
 62191  1  0  0  0  0
 62192  1  0  0  0  0
 63 64  1  0  0  0  0
 63193  1  0  0  0  0
 63194  1  0  0  0  0
 64 65  1  0  0  0  0
 64195  1  0  0  0  0
 64196  1  0  0  0  0
 65 66  1  0  0  0  0
 65197  1  0  0  0  0
 65198  1  0  0  0  0
 66 67  1  0  0  0  0
 66199  1  0  0  0  0
 66200  1  0  0  0  0
 67 68  1  0  0  0  0
 67201  1  0  0  0  0
 67202  1  0  0  0  0
 68 69  1  0  0  0  0
 68203  1  0  0  0  0
 68204  1  0  0  0  0
 69 70  1  0  0  0  0
 69205  1  0  0  0  0
 69206  1  0  0  0  0
 70 71  1  0  0  0  0
 70207  1  0  0  0  0
 70208  1  0  0  0  0
 71 72  1  0  0  0  0
 71209  1  0  0  0  0
 71210  1  0  0  0  0
 72 73  1  0  0  0  0
 72211  1  0  0  0  0
 72212  1  0  0  0  0
 73 74  1  0  0  0  0
 73213  1  0  0  0  0
 73214  1  0  0  0  0
 74 75  1  0  0  0  0
 74215  1  0  0  0  0
 74216  1  0  0  0  0
 75 76  1  0  0  0  0
 75217  1  0  0  0  0
 75218  1  0  0  0  0
 76 77  1  0  0  0  0
 76219  1  0  0  0  0
 76220  1  0  0  0  0
 77 78  1  0  0  0  0
 77221  1  0  0  0  0
 77222  1  0  0  0  0
 78223  1  0  0  0  0
 78224  1  0  0  0  0
 78225  1  0  0  0  0
M  END
$$$$
