
 OpenBabel04232216513D

 31 31  0  0  0  0  0  0  0  0999 V2000
    1.0690    2.5301   -1.2828 C   0  0  0  0  0  0  0  0  0  0  0  0
    2.5873    2.5341   -1.2239 C   0  0  0  0  0  0  0  0  0  0  0  0
    3.1123    1.3995   -0.3442 C   0  0  0  0  0  0  0  0  0  0  0  0
    4.6088    1.4185   -0.2359 C   0  0  0  0  0  0  0  0  0  0  0  0
    5.3585    1.5633    0.8663 C   0  0  0  0  0  0  0  0  0  0  0  0
    4.8810    1.7333    2.2810 C   0  0  0  0  0  0  0  0  0  0  0  0
    5.2774    3.0585    2.9338 C   0  0  0  0  0  0  0  0  0  0  0  0
    4.7567    4.2753    2.1826 C   0  0  0  0  0  0  0  0  0  0  0  0
    6.8238    1.5564    0.5371 C   0  0  0  0  0  0  0  0  0  0  0  0
    6.8679    1.1252   -0.9286 C   0  0  0  0  0  0  0  0  0  0  0  0
    5.4520    1.2863   -1.4707 C   0  0  0  0  0  0  0  0  0  0  0  0
    0.7162    3.3363   -1.9330 H   0  0  0  0  0  0  0  0  0  0  0  0
    0.6365    2.6794   -0.2882 H   0  0  0  0  0  0  0  0  0  0  0  0
    0.6977    1.5810   -1.6819 H   0  0  0  0  0  0  0  0  0  0  0  0
    2.9311    3.5006   -0.8356 H   0  0  0  0  0  0  0  0  0  0  0  0
    2.9793    2.4359   -2.2427 H   0  0  0  0  0  0  0  0  0  0  0  0
    2.7950    0.4292   -0.7451 H   0  0  0  0  0  0  0  0  0  0  0  0
    2.6445    1.4839    0.6413 H   0  0  0  0  0  0  0  0  0  0  0  0
    5.2729    0.9053    2.8817 H   0  0  0  0  0  0  0  0  0  0  0  0
    3.7909    1.6450    2.3404 H   0  0  0  0  0  0  0  0  0  0  0  0
    6.3671    3.1224    3.0294 H   0  0  0  0  0  0  0  0  0  0  0  0
    4.8708    3.0752    3.9526 H   0  0  0  0  0  0  0  0  0  0  0  0
    5.1671    4.3277    1.1697 H   0  0  0  0  0  0  0  0  0  0  0  0
    5.0444    5.1920    2.7063 H   0  0  0  0  0  0  0  0  0  0  0  0
    3.6645    4.2526    2.1106 H   0  0  0  0  0  0  0  0  0  0  0  0
    7.3843    0.8530    1.1603 H   0  0  0  0  0  0  0  0  0  0  0  0
    7.2527    2.5564    0.6596 H   0  0  0  0  0  0  0  0  0  0  0  0
    7.1813    0.0767   -1.0051 H   0  0  0  0  0  0  0  0  0  0  0  0
    7.5892    1.7148   -1.5056 H   0  0  0  0  0  0  0  0  0  0  0  0
    5.1646    0.4173   -2.0720 H   0  0  0  0  0  0  0  0  0  0  0  0
    5.3737    2.1852   -2.0911 H   0  0  0  0  0  0  0  0  0  0  0  0
  1  2  1  0  0  0  0
  1 12  1  0  0  0  0
  1 13  1  0  0  0  0
  1 14  1  0  0  0  0
  2  3  1  0  0  0  0
  2 15  1  0  0  0  0
  2 16  1  0  0  0  0
  3  4  1  0  0  0  0
  3 17  1  0  0  0  0
  3 18  1  0  0  0  0
  4  5  2  0  0  0  0
  4 11  1  0  0  0  0
  5  6  1  0  0  0  0
  5  9  1  0  0  0  0
  6  7  1  0  0  0  0
  6 19  1  0  0  0  0
  6 20  1  0  0  0  0
  7  8  1  0  0  0  0
  7 21  1  0  0  0  0
  7 22  1  0  0  0  0
  8 23  1  0  0  0  0
  8 24  1  0  0  0  0
  8 25  1  0  0  0  0
  9 10  1  0  0  0  0
  9 26  1  0  0  0  0
  9 27  1  0  0  0  0
 10 11  1  0  0  0  0
 10 28  1  0  0  0  0
 10 29  1  0  0  0  0
 11 30  1  0  0  0  0
 11 31  1  0  0  0  0
M  END
$$$$
