
 OpenBabel04232216493D

 64 65  0  0  1  0  0  0  0  0999 V2000
    0.8944   -0.0333   -0.8348 C   0  0  0  0  0  0  0  0  0  0  0  0
    2.3654   -0.1763   -0.4224 C   0  0  3  0  0  0  0  0  0  0  0  0
    3.0151   -1.4026   -1.1266 C   0  0  0  0  0  0  0  0  0  0  0  0
    3.7313   -2.3618   -0.1535 C   0  0  0  0  0  0  0  0  0  0  0  0
    5.2076   -2.6408   -0.4935 C   0  0  0  0  0  0  0  0  0  0  0  0
    6.1968   -2.2043    0.6055 C   0  0  0  0  0  0  0  0  0  0  0  0
    7.2655   -1.2194    0.1036 C   0  0  0  0  0  0  0  0  0  0  0  0
    7.4561    0.0052    1.0147 C   0  0  0  0  0  0  0  0  0  0  0  0
    7.4328    1.3363    0.2472 C   0  0  0  0  0  0  0  0  0  0  0  0
    6.4313    2.3750    0.7885 C   0  0  0  0  0  0  0  0  0  0  0  0
    5.1552    2.5328   -0.0564 C   0  0  0  0  0  0  0  0  0  0  0  0
    3.8108    1.9072    0.4206 C   0  0  3  0  0  0  0  0  0  0  0  0
    3.8609    1.2004    1.7804 C   0  0  0  0  0  0  0  0  0  0  0  0
    4.3001    0.0577    1.8900 O   0  0  0  0  0  0  0  0  0  0  0  0
    3.3827    1.8892    3.0313 C   0  0  0  0  0  0  0  0  0  0  0  0
    3.3612    3.2318    3.1019 C   0  0  0  0  0  0  0  0  0  0  0  0
    3.0204    4.0589    4.3073 C   0  0  0  0  0  0  0  0  0  0  0  0
    4.2522    4.2913    5.1907 C   0  0  0  0  0  0  0  0  0  0  0  0
    4.5814    3.1485    6.1610 C   0  0  0  0  0  0  0  0  0  0  0  0
    5.7523    2.2466    5.7618 C   0  0  0  0  0  0  0  0  0  0  0  0
    5.5155    0.9755    4.9389 C   0  0  0  0  0  0  0  0  0  0  0  0
    4.1431    0.3065    4.9636 C   0  0  0  0  0  0  0  0  0  0  0  0
    3.0039    0.9927    4.1965 C   0  0  0  0  0  0  0  0  0  0  0  0
    3.1453    1.1187   -0.7460 C   0  0  0  0  0  0  0  0  0  0  0  0
    0.3211   -0.9041   -0.4985 H   0  0  0  0  0  0  0  0  0  0  0  0
    0.7786    0.0571   -1.9191 H   0  0  0  0  0  0  0  0  0  0  0  0
    0.4477    0.8516   -0.3635 H   0  0  0  0  0  0  0  0  0  0  0  0
    2.3184   -0.3533    0.6527 H   0  0  0  0  0  0  0  0  0  0  0  0
    3.6898   -1.0878   -1.9275 H   0  0  0  0  0  0  0  0  0  0  0  0
    2.2334   -1.9818   -1.6362 H   0  0  0  0  0  0  0  0  0  0  0  0
    3.1989   -3.3205   -0.2076 H   0  0  0  0  0  0  0  0  0  0  0  0
    3.6153   -2.0445    0.8842 H   0  0  0  0  0  0  0  0  0  0  0  0
    5.4775   -2.2247   -1.4694 H   0  0  0  0  0  0  0  0  0  0  0  0
    5.3139   -3.7281   -0.6052 H   0  0  0  0  0  0  0  0  0  0  0  0
    6.7149   -3.1016    0.9701 H   0  0  0  0  0  0  0  0  0  0  0  0
    5.6738   -1.8186    1.4811 H   0  0  0  0  0  0  0  0  0  0  0  0
    7.0567   -0.9101   -0.9246 H   0  0  0  0  0  0  0  0  0  0  0  0
    8.2220   -1.7586    0.0586 H   0  0  0  0  0  0  0  0  0  0  0  0
    8.4428   -0.0869    1.4907 H   0  0  0  0  0  0  0  0  0  0  0  0
    6.7469    0.0154    1.8432 H   0  0  0  0  0  0  0  0  0  0  0  0
    7.2888    1.1881   -0.8282 H   0  0  0  0  0  0  0  0  0  0  0  0
    8.4362    1.7740    0.3413 H   0  0  0  0  0  0  0  0  0  0  0  0
    6.9489    3.3430    0.7263 H   0  0  0  0  0  0  0  0  0  0  0  0
    6.2259    2.2357    1.8512 H   0  0  0  0  0  0  0  0  0  0  0  0
    5.3790    2.2414   -1.0897 H   0  0  0  0  0  0  0  0  0  0  0  0
    4.9678    3.6134   -0.1357 H   0  0  0  0  0  0  0  0  0  0  0  0
    3.1165    2.7488    0.5531 H   0  0  0  0  0  0  0  0  0  0  0  0
    3.6669    3.8399    2.2503 H   0  0  0  0  0  0  0  0  0  0  0  0
    2.1887    3.6471    4.8808 H   0  0  0  0  0  0  0  0  0  0  0  0
    2.6680    5.0272    3.9444 H   0  0  0  0  0  0  0  0  0  0  0  0
    4.0338    5.1797    5.7967 H   0  0  0  0  0  0  0  0  0  0  0  0
    5.1213    4.5504    4.5772 H   0  0  0  0  0  0  0  0  0  0  0  0
    3.6962    2.5759    6.4497 H   0  0  0  0  0  0  0  0  0  0  0  0
    4.9035    3.6427    7.0894 H   0  0  0  0  0  0  0  0  0  0  0  0
    6.2244    1.9207    6.6986 H   0  0  0  0  0  0  0  0  0  0  0  0
    6.5249    2.8412    5.2561 H   0  0  0  0  0  0  0  0  0  0  0  0
    6.2358    0.2294    5.3086 H   0  0  0  0  0  0  0  0  0  0  0  0
    5.8271    1.1509    3.9060 H   0  0  0  0  0  0  0  0  0  0  0  0
    3.8307    0.1408    6.0043 H   0  0  0  0  0  0  0  0  0  0  0  0
    4.2631   -0.7015    4.5425 H   0  0  0  0  0  0  0  0  0  0  0  0
    2.3952    1.5411    4.9213 H   0  0  0  0  0  0  0  0  0  0  0  0
    2.3136    0.2176    3.8306 H   0  0  0  0  0  0  0  0  0  0  0  0
    3.8867    0.9136   -1.5222 H   0  0  0  0  0  0  0  0  0  0  0  0
    2.4600    1.8289   -1.2410 H   0  0  0  0  0  0  0  0  0  0  0  0
  1  2  1  0  0  0  0
  1 25  1  0  0  0  0
  1 26  1  0  0  0  0
  1 27  1  0  0  0  0
  2  3  1  0  0  0  0
  2 24  1  0  0  0  0
  2 28  1  0  0  0  0
  3  4  1  0  0  0  0
  3 29  1  0  0  0  0
  3 30  1  0  0  0  0
  4  5  1  0  0  0  0
  4 31  1  0  0  0  0
  4 32  1  0  0  0  0
  5  6  1  0  0  0  0
  5 33  1  0  0  0  0
  5 34  1  0  0  0  0
  6  7  1  0  0  0  0
  6 35  1  0  0  0  0
  6 36  1  0  0  0  0
  7  8  1  0  0  0  0
  7 37  1  0  0  0  0
  7 38  1  0  0  0  0
  8  9  1  0  0  0  0
  8 39  1  0  0  0  0
  8 40  1  0  0  0  0
  9 10  1  0  0  0  0
  9 41  1  0  0  0  0
  9 42  1  0  0  0  0
 10 11  1  0  0  0  0
 10 43  1  0  0  0  0
 10 44  1  0  0  0  0
 11 12  1  0  0  0  0
 11 45  1  0  0  0  0
 11 46  1  0  0  0  0
 12 13  1  0  0  0  0
 12 24  1  0  0  0  0
 12 47  1  0  0  0  0
 13 14  2  0  0  0  0
 13 15  1  0  0  0  0
 15 16  2  3  0  0  0
 15 23  1  0  0  0  0
 16 17  1  0  0  0  0
 16 48  1  0  0  0  0
 17 18  1  0  0  0  0
 17 49  1  0  0  0  0
 17 50  1  0  0  0  0
 18 19  1  0  0  0  0
 18 51  1  0  0  0  0
 18 52  1  0  0  0  0
 19 20  1  0  0  0  0
 19 53  1  0  0  0  0
 19 54  1  0  0  0  0
 20 21  1  0  0  0  0
 20 55  1  0  0  0  0
 20 56  1  0  0  0  0
 21 22  1  0  0  0  0
 21 57  1  0  0  0  0
 21 58  1  0  0  0  0
 22 23  1  0  0  0  0
 22 59  1  0  0  0  0
 22 60  1  0  0  0  0
 23 61  1  0  0  0  0
 23 62  1  0  0  0  0
 24 63  1  0  0  0  0
 24 64  1  0  0  0  0
M  END
$$$$
