
 OpenBabel04232216543D

 47 49  0  0  0  0  0  0  0  0999 V2000
   12.0271    0.0413   -6.6986 C   0  0  0  0  0  0  0  0  0  0  0  0
   12.2811   -1.4540   -6.8460 C   0  0  0  0  0  0  0  0  0  0  0  0
   11.0585   -2.4049   -6.9710 C   0  0  0  0  0  0  0  0  0  0  0  0
   10.2468   -3.0671   -5.7563 C   0  0  0  0  0  0  0  0  0  0  0  0
    9.0154   -2.3872   -5.1504 N   0  0  0  0  0  0  0  0  0  0  0  0
    9.0958   -1.0629   -5.1377 N   0  0  0  0  0  0  0  0  0  0  0  0
    8.4157   -0.5408   -6.1311 C   0  0  0  0  0  0  0  0  0  0  0  0
    7.9423   -1.2303   -7.3922 C   0  0  0  0  0  0  0  0  0  0  0  0
    7.7905    0.7770   -5.7989 C   0  0  0  0  0  0  0  0  0  0  0  0
    7.8293    1.3815   -4.5537 N   0  0  0  0  0  0  0  0  0  0  0  0
    6.6429    0.9650   -4.2934 C   0  0  0  0  0  0  0  0  0  0  0  0
    5.8903    0.6365   -3.0996 C   0  0  0  0  0  0  0  0  0  0  0  0
    6.2391   -0.5920   -2.6229 C   0  0  0  0  0  0  0  0  0  0  0  0
    6.0787   -0.6174   -1.0797 C   0  0  0  0  0  0  0  0  0  0  0  0
    5.7702   -1.7826   -3.2885 N   0  0  0  0  0  0  0  0  0  0  0  0
    4.3155   -2.1459   -2.9647 C   0  0  0  0  0  0  0  0  0  0  0  0
    3.3232   -1.5129   -3.9111 C   0  0  0  0  0  0  0  0  0  0  0  0
    2.6427   -2.1515   -4.8879 C   0  0  0  0  0  0  0  0  0  0  0  0
    2.8743   -1.7300   -6.1916 N   0  0  0  0  0  0  0  0  0  0  0  0
    4.0689   -1.7922   -6.5477 N   0  0  0  0  0  0  0  0  0  0  0  0
    4.5419   -0.4970   -6.7739 N   0  0  0  0  0  0  0  0  0  0  0  0
    5.5151   -0.3329   -6.0160 N   0  0  0  0  0  0  0  0  0  0  0  0
    6.0769    1.2008   -5.9607 S   0  0  3  0  0  0  0  0  0  0  0  0
    6.5755   -2.7132   -4.0861 C   0  0  0  0  0  0  0  0  0  0  0  0
    7.7618   -2.9883   -4.7395 C   0  0  0  0  0  0  0  0  0  0  0  0
   12.9842    0.5847   -6.7685 H   0  0  0  0  0  0  0  0  0  0  0  0
   11.5878    0.2783   -5.7401 H   0  0  0  0  0  0  0  0  0  0  0  0
   11.3851    0.4344   -7.4985 H   0  0  0  0  0  0  0  0  0  0  0  0
   12.9871   -1.7964   -6.0869 H   0  0  0  0  0  0  0  0  0  0  0  0
   12.8298   -1.5327   -7.8021 H   0  0  0  0  0  0  0  0  0  0  0  0
   11.5168   -3.2796   -7.4639 H   0  0  0  0  0  0  0  0  0  0  0  0
   10.4242   -1.9907   -7.7516 H   0  0  0  0  0  0  0  0  0  0  0  0
   10.9602   -3.3047   -4.9593 H   0  0  0  0  0  0  0  0  0  0  0  0
    9.8976   -4.0304   -6.1581 H   0  0  0  0  0  0  0  0  0  0  0  0
    6.9705   -1.6936   -7.2445 H   0  0  0  0  0  0  0  0  0  0  0  0
    7.9025   -0.5176   -8.2128 H   0  0  0  0  0  0  0  0  0  0  0  0
    8.5724   -2.0603   -7.6912 H   0  0  0  0  0  0  0  0  0  0  0  0
    4.8271    0.8227   -3.2785 H   0  0  0  0  0  0  0  0  0  0  0  0
    7.0542   -0.5535   -0.5910 H   0  0  0  0  0  0  0  0  0  0  0  0
    5.5857   -1.5165   -0.6918 H   0  0  0  0  0  0  0  0  0  0  0  0
    5.4773    0.2334   -0.7225 H   0  0  0  0  0  0  0  0  0  0  0  0
    4.0270   -1.7280   -1.9866 H   0  0  0  0  0  0  0  0  0  0  0  0
    4.1693   -3.2247   -2.8320 H   0  0  0  0  0  0  0  0  0  0  0  0
    2.8142   -0.6457   -3.4866 H   0  0  0  0  0  0  0  0  0  0  0  0
    1.5589   -2.1093   -4.7857 H   0  0  0  0  0  0  0  0  0  0  0  0
    5.8792   -3.5481   -4.2301 H   0  0  0  0  0  0  0  0  0  0  0  0
    7.7744   -3.9786   -5.2017 H   0  0  0  0  0  0  0  0  0  0  0  0
  1  2  1  0  0  0  0
  1 26  1  0  0  0  0
  1 27  1  0  0  0  0
  1 28  1  0  0  0  0
  2  3  1  0  0  0  0
  2 29  1  0  0  0  0
  2 30  1  0  0  0  0
  3  4  1  0  0  0  0
  3 31  1  0  0  0  0
  3 32  1  0  0  0  0
  4  5  1  0  0  0  0
  4 33  1  0  0  0  0
  4 34  1  0  0  0  0
  5  6  1  0  0  0  0
  5 25  1  0  0  0  0
  6  7  2  3  0  0  0
  7  8  1  0  0  0  0
  7  9  1  0  0  0  0
  8 35  1  0  0  0  0
  8 36  1  0  0  0  0
  8 37  1  0  0  0  0
  9 10  1  0  0  0  0
  9 23  2  0  0  0  0
 10 11  2  0  0  0  0
 11 12  1  0  0  0  0
 11 23  1  0  0  0  0
 12 13  2  3  0  0  0
 12 38  1  0  0  0  0
 13 14  1  0  0  0  0
 13 15  1  0  0  0  0
 14 39  1  0  0  0  0
 14 40  1  0  0  0  0
 14 41  1  0  0  0  0
 15 16  1  0  0  0  0
 15 24  1  0  0  0  0
 16 17  1  0  0  0  0
 16 42  1  0  0  0  0
 16 43  1  0  0  0  0
 17 18  2  3  0  0  0
 17 44  1  0  0  0  0
 18 19  1  0  0  0  0
 18 45  1  0  0  0  0
 19 20  2  3  0  0  0
 20 21  1  0  0  0  0
 21 22  2  3  0  0  0
 22 23  1  0  0  0  0
 24 25  2  3  0  0  0
 24 46  1  0  0  0  0
 25 47  1  0  0  0  0
M  END
$$$$
