
 OpenBabel04232216453D

 59 60  0  0  0  0  0  0  0  0999 V2000
    1.4770   -0.5708    0.2200 C   0  0  0  0  0  0  0  0  0  0  0  0
    2.2742   -1.7559    0.8646 C   0  0  0  0  0  0  0  0  0  0  0  0
    3.5945   -2.2201    0.8384 C   0  0  0  0  0  0  0  0  0  0  0  0
    5.0600   -1.8562    0.3484 C   0  0  0  0  0  0  0  0  0  0  0  0
    4.8952   -0.3811   -0.0698 C   0  0  0  0  0  0  0  0  0  0  0  0
    6.3567   -2.5334    0.5482 C   0  0  0  0  0  0  0  0  0  0  0  0
    7.4493   -1.7744    1.2751 C   0  0  0  0  0  0  0  0  0  0  0  0
    8.4363   -0.9208    0.4937 C   0  0  0  0  0  0  0  0  0  0  0  0
    8.2808    0.4942    1.0195 C   0  0  0  0  0  0  0  0  0  0  0  0
    7.7063   -2.2830    2.5228 C   0  0  0  0  0  0  0  0  0  0  0  0
    9.0755   -2.5563    2.9613 C   0  0  0  0  0  0  0  0  0  0  0  0
    9.6108   -3.7472    3.3244 C   0  0  0  0  0  0  0  0  0  0  0  0
    8.8087   -5.0815    3.6893 C   0  0  0  0  0  0  0  0  0  0  0  0
    9.1071   -5.6356    4.9693 O   0  0  0  0  0  0  0  0  0  0  0  0
   10.9982   -3.9848    2.7731 C   0  0  0  0  0  0  0  0  0  0  0  0
   11.8835   -2.9014    2.1031 C   0  0  0  0  0  0  0  0  0  0  0  0
   10.9584   -5.1166    2.0496 C   0  0  0  0  0  0  0  0  0  0  0  0
    9.9999   -5.1260    0.7611 C   0  0  0  0  0  0  0  0  0  0  0  0
    8.2775   -4.5906    0.7469 C   0  0  0  0  0  0  0  0  0  0  0  0
    6.8554   -4.2041    0.7508 C   0  0  0  0  0  0  0  0  0  0  0  0
    5.3884   -4.7726    1.1390 C   0  0  0  0  0  0  0  0  0  0  0  0
    4.2214   -5.7140    1.8353 C   0  0  0  0  0  0  0  0  0  0  0  0
    2.7135   -5.2564    1.5949 C   0  0  0  0  0  0  0  0  0  0  0  0
    1.5305   -5.5812    2.1601 C   0  0  0  0  0  0  0  0  0  0  0  0
    0.2857   -4.8134    1.9422 C   0  0  0  0  0  0  0  0  0  0  0  0
    0.1299   -3.4640    1.9776 C   0  0  0  0  0  0  0  0  0  0  0  0
    1.3559   -2.2951    2.4049 S   0  0  0  0  0  0  0  0  0  0  0  0
    0.3861   -0.7592    0.2414 H   0  0  0  0  0  0  0  0  0  0  0  0
    1.6886   -0.3277   -0.8279 H   0  0  0  0  0  0  0  0  0  0  0  0
    1.5927    0.3527    0.8105 H   0  0  0  0  0  0  0  0  0  0  0  0
    3.7412   -2.9857    1.5749 H   0  0  0  0  0  0  0  0  0  0  0  0
    3.8481   -0.1157   -0.2812 H   0  0  0  0  0  0  0  0  0  0  0  0
    5.3632   -0.1443   -1.0276 H   0  0  0  0  0  0  0  0  0  0  0  0
    5.1719    0.3071    0.7294 H   0  0  0  0  0  0  0  0  0  0  0  0
    8.2843   -0.9592   -0.5888 H   0  0  0  0  0  0  0  0  0  0  0  0
    9.4769   -1.2140    0.6578 H   0  0  0  0  0  0  0  0  0  0  0  0
    7.3746    0.9155    0.5866 H   0  0  0  0  0  0  0  0  0  0  0  0
    9.1128    1.1572    0.7661 H   0  0  0  0  0  0  0  0  0  0  0  0
    8.2134    0.4725    2.1138 H   0  0  0  0  0  0  0  0  0  0  0  0
    6.9605   -2.9123    3.0045 H   0  0  0  0  0  0  0  0  0  0  0  0
    9.7493   -1.8094    2.5637 H   0  0  0  0  0  0  0  0  0  0  0  0
    8.9893   -5.9054    2.9672 H   0  0  0  0  0  0  0  0  0  0  0  0
    7.7373   -4.9665    3.6594 H   0  0  0  0  0  0  0  0  0  0  0  0
   10.0502   -5.8593    5.0152 H   0  0  0  0  0  0  0  0  0  0  0  0
   11.3479   -2.1189    1.5619 H   0  0  0  0  0  0  0  0  0  0  0  0
   12.5109   -3.3585    1.3199 H   0  0  0  0  0  0  0  0  0  0  0  0
   12.5879   -2.4232    2.7932 H   0  0  0  0  0  0  0  0  0  0  0  0
   11.0218   -6.0296    2.6638 H   0  0  0  0  0  0  0  0  0  0  0  0
   10.5759   -4.4675    0.0876 H   0  0  0  0  0  0  0  0  0  0  0  0
   10.1396   -6.1416    0.3547 H   0  0  0  0  0  0  0  0  0  0  0  0
    8.1032   -5.6815    0.8188 H   0  0  0  0  0  0  0  0  0  0  0  0
    4.8660   -4.5128    0.2154 H   0  0  0  0  0  0  0  0  0  0  0  0
    5.2949   -4.0369    1.9549 H   0  0  0  0  0  0  0  0  0  0  0  0
    4.3474   -5.6691    2.9283 H   0  0  0  0  0  0  0  0  0  0  0  0
    4.2976   -6.7304    1.4654 H   0  0  0  0  0  0  0  0  0  0  0  0
    2.5940   -4.4793    0.8461 H   0  0  0  0  0  0  0  0  0  0  0  0
    1.3967   -6.4272    2.8380 H   0  0  0  0  0  0  0  0  0  0  0  0
   -0.6341   -5.4116    1.8954 H   0  0  0  0  0  0  0  0  0  0  0  0
   -0.9083   -3.1137    2.0459 H   0  0  0  0  0  0  0  0  0  0  0  0
  1  2  1  0  0  0  0
  1 28  1  0  0  0  0
  1 29  1  0  0  0  0
  1 30  1  0  0  0  0
  2  3  2  3  0  0  0
  2 27  1  0  0  0  0
  3  4  1  0  0  0  0
  3 31  1  0  0  0  0
  4  5  1  0  0  0  0
  4  6  2  3  0  0  0
  5 32  1  0  0  0  0
  5 33  1  0  0  0  0
  5 34  1  0  0  0  0
  6  7  1  0  0  0  0
  6 20  1  0  0  0  0
  7  8  1  0  0  0  0
  7 10  2  3  0  0  0
  8  9  1  0  0  0  0
  8 35  1  0  0  0  0
  8 36  1  0  0  0  0
  9 37  1  0  0  0  0
  9 38  1  0  0  0  0
  9 39  1  0  0  0  0
 10 11  1  0  0  0  0
 10 40  1  0  0  0  0
 11 12  2  3  0  0  0
 11 41  1  0  0  0  0
 12 13  1  0  0  0  0
 12 15  1  0  0  0  0
 13 14  1  0  0  0  0
 13 42  1  0  0  0  0
 13 43  1  0  0  0  0
 14 44  1  0  0  0  0
 15 16  1  0  0  0  0
 15 17  2  3  0  0  0
 16 45  1  0  0  0  0
 16 46  1  0  0  0  0
 16 47  1  0  0  0  0
 17 18  1  0  0  0  0
 17 48  1  0  0  0  0
 18 19  1  0  0  0  0
 18 49  1  0  0  0  0
 18 50  1  0  0  0  0
 19 20  2  3  0  0  0
 19 51  1  0  0  0  0
 20 21  1  0  0  0  0
 21 22  1  0  0  0  0
 21 52  1  0  0  0  0
 21 53  1  0  0  0  0
 22 23  1  0  0  0  0
 22 54  1  0  0  0  0
 22 55  1  0  0  0  0
 23 24  2  3  0  0  0
 23 56  1  0  0  0  0
 24 25  1  0  0  0  0
 24 57  1  0  0  0  0
 25 26  2  3  0  0  0
 25 58  1  0  0  0  0
 26 27  1  0  0  0  0
 26 59  1  0  0  0  0
M  END
$$$$
