
 OpenBabel04232216423D

 67 68  0  0  0  0  0  0  0  0999 V2000
    4.5316   -0.2587   -0.5177 C   0  0  0  0  0  0  0  0  0  0  0  0
    4.5684   -1.8749   -0.8626 C   0  0  0  0  0  0  0  0  0  0  0  0
    4.5672   -3.1341   -0.2158 C   0  0  0  0  0  0  0  0  0  0  0  0
    5.7485   -4.0905    0.2220 C   0  0  0  0  0  0  0  0  0  0  0  0
    6.0187   -5.9832   -0.1873 C   0  0  0  0  0  0  0  0  0  0  0  0
    5.8421   -7.9194   -0.5133 C   0  0  0  0  0  0  0  0  0  0  0  0
    6.6304   -9.6299   -0.5828 C   0  0  0  0  0  0  0  0  0  0  0  0
    8.0043  -10.4376   -1.1874 C   0  0  0  0  0  0  0  0  0  0  0  0
    9.3599   -9.7316   -1.1704 C   0  0  0  0  0  0  0  0  0  0  0  0
    8.8354   -8.3938   -0.9329 C   0  0  0  0  0  0  0  0  0  0  0  0
    9.8687   -7.3820   -0.8674 C   0  0  0  0  0  0  0  0  0  0  0  0
    8.9770   -6.2124   -0.6989 C   0  0  0  0  0  0  0  0  0  0  0  0
    9.9727   -5.1571   -0.6593 C   0  0  0  0  0  0  0  0  0  0  0  0
    9.2118   -3.9401   -0.5006 C   0  0  0  0  0  0  0  0  0  0  0  0
   10.2814   -2.9182   -0.5124 C   0  0  0  0  0  0  0  0  0  0  0  0
    9.5532   -1.6785   -0.3824 C   0  0  0  0  0  0  0  0  0  0  0  0
   10.4697   -0.4871   -0.2265 C   0  0  0  0  0  0  0  0  0  0  0  0
    9.4177    0.5138    0.0517 C   0  0  0  0  0  0  0  0  0  0  0  0
    9.3638    1.4921    1.1457 C   0  0  0  0  0  0  0  0  0  0  0  0
    6.6603   -3.1214    0.7736 C   0  0  0  0  0  0  0  0  0  0  0  0
    6.6626   -1.3904    1.0654 C   0  0  0  0  0  0  0  0  0  0  0  0
    7.0766   -0.3004    1.8949 C   0  0  0  0  0  0  0  0  0  0  0  0
    7.8188    1.2622    1.6386 C   0  0  0  0  0  0  0  0  0  0  0  0
    7.1424    2.4252    1.3878 C   0  0  0  0  0  0  0  0  0  0  0  0
    6.9379    2.7043   -0.0515 C   0  0  0  0  0  0  0  0  0  0  0  0
    6.2466    1.9344   -0.9269 C   0  0  0  0  0  0  0  0  0  0  0  0
    5.3423    0.8057   -0.7121 C   0  0  0  0  0  0  0  0  0  0  0  0
    3.5116    0.0568   -0.3015 H   0  0  0  0  0  0  0  0  0  0  0  0
    3.4742   -1.7928   -1.0788 H   0  0  0  0  0  0  0  0  0  0  0  0
    3.8721   -3.1939    0.6292 H   0  0  0  0  0  0  0  0  0  0  0  0
    5.6225   -6.2164    0.8190 H   0  0  0  0  0  0  0  0  0  0  0  0
    5.2107   -5.9035   -0.9402 H   0  0  0  0  0  0  0  0  0  0  0  0
    5.0656   -8.2134    0.2189 H   0  0  0  0  0  0  0  0  0  0  0  0
    5.3541   -7.9798   -1.4988 H   0  0  0  0  0  0  0  0  0  0  0  0
    5.8929  -10.2089   -1.1776 H   0  0  0  0  0  0  0  0  0  0  0  0
    6.5281  -10.0820    0.4185 H   0  0  0  0  0  0  0  0  0  0  0  0
    8.1861  -11.3525   -0.6004 H   0  0  0  0  0  0  0  0  0  0  0  0
    7.8395  -10.7695   -2.2143 H   0  0  0  0  0  0  0  0  0  0  0  0
    9.8930   -9.7735   -2.1219 H   0  0  0  0  0  0  0  0  0  0  0  0
   10.0345  -10.0274   -0.3690 H   0  0  0  0  0  0  0  0  0  0  0  0
    8.3385   -8.3693    0.0509 H   0  0  0  0  0  0  0  0  0  0  0  0
    8.1301   -8.1340   -1.7438 H   0  0  0  0  0  0  0  0  0  0  0  0
   10.4665   -7.3335   -1.7796 H   0  0  0  0  0  0  0  0  0  0  0  0
   10.5159   -7.5261    0.0007 H   0  0  0  0  0  0  0  0  0  0  0  0
    8.4020   -6.2661    0.2393 H   0  0  0  0  0  0  0  0  0  0  0  0
    8.2600   -6.0792   -1.5275 H   0  0  0  0  0  0  0  0  0  0  0  0
   10.5462   -5.1241   -1.5847 H   0  0  0  0  0  0  0  0  0  0  0  0
   10.6232   -5.2919    0.2085 H   0  0  0  0  0  0  0  0  0  0  0  0
    8.7285   -4.0044    0.4813 H   0  0  0  0  0  0  0  0  0  0  0  0
    8.4633   -3.8137   -1.3010 H   0  0  0  0  0  0  0  0  0  0  0  0
   10.8612   -2.9305   -1.4291 H   0  0  0  0  0  0  0  0  0  0  0  0
   10.9107   -3.0573    0.3713 H   0  0  0  0  0  0  0  0  0  0  0  0
    9.0155   -1.8450    0.5650 H   0  0  0  0  0  0  0  0  0  0  0  0
    8.7923   -1.5263   -1.1697 H   0  0  0  0  0  0  0  0  0  0  0  0
   11.0237   -0.2943   -1.1443 H   0  0  0  0  0  0  0  0  0  0  0  0
   11.1461   -0.6415    0.6180 H   0  0  0  0  0  0  0  0  0  0  0  0
    8.8058   -0.1468    0.6092 H   0  0  0  0  0  0  0  0  0  0  0  0
    8.8127    0.7588   -0.8254 H   0  0  0  0  0  0  0  0  0  0  0  0
    9.5697    2.4710    0.6636 H   0  0  0  0  0  0  0  0  0  0  0  0
   10.1198    1.3810    1.9264 H   0  0  0  0  0  0  0  0  0  0  0  0
    7.1824   -2.9384   -0.1780 H   0  0  0  0  0  0  0  0  0  0  0  0
    6.9181   -1.1255    0.0458 H   0  0  0  0  0  0  0  0  0  0  0  0
    6.1405    0.1725    2.2530 H   0  0  0  0  0  0  0  0  0  0  0  0
    7.7358    3.3354    1.6690 H   0  0  0  0  0  0  0  0  0  0  0  0
    7.5930    3.4957   -0.4597 H   0  0  0  0  0  0  0  0  0  0  0  0
    6.4879    2.1630   -1.9748 H   0  0  0  0  0  0  0  0  0  0  0  0
    6.2799    0.2629   -0.8611 H   0  0  0  0  0  0  0  0  0  0  0  0
  1  2  1  0  0  0  0
  1 27  2  3  0  0  0
  1 28  1  0  0  0  0
  2  3  2  3  0  0  0
  2 29  1  0  0  0  0
  3  4  1  0  0  0  0
  3 30  1  0  0  0  0
  4  5  1  0  0  0  0
  4 20  2  3  0  0  0
  5  6  1  0  0  0  0
  5 31  1  0  0  0  0
  5 32  1  0  0  0  0
  6  7  1  0  0  0  0
  6 33  1  0  0  0  0
  6 34  1  0  0  0  0
  7  8  1  0  0  0  0
  7 35  1  0  0  0  0
  7 36  1  0  0  0  0
  8  9  1  0  0  0  0
  8 37  1  0  0  0  0
  8 38  1  0  0  0  0
  9 10  1  0  0  0  0
  9 39  1  0  0  0  0
  9 40  1  0  0  0  0
 10 11  1  0  0  0  0
 10 41  1  0  0  0  0
 10 42  1  0  0  0  0
 11 12  1  0  0  0  0
 11 43  1  0  0  0  0
 11 44  1  0  0  0  0
 12 13  1  0  0  0  0
 12 45  1  0  0  0  0
 12 46  1  0  0  0  0
 13 14  1  0  0  0  0
 13 47  1  0  0  0  0
 13 48  1  0  0  0  0
 14 15  1  0  0  0  0
 14 49  1  0  0  0  0
 14 50  1  0  0  0  0
 15 16  1  0  0  0  0
 15 51  1  0  0  0  0
 15 52  1  0  0  0  0
 16 17  1  0  0  0  0
 16 53  1  0  0  0  0
 16 54  1  0  0  0  0
 17 18  1  0  0  0  0
 17 55  1  0  0  0  0
 17 56  1  0  0  0  0
 18 19  1  0  0  0  0
 18 57  1  0  0  0  0
 18 58  1  0  0  0  0
 19 23  1  0  0  0  0
 19 59  1  0  0  0  0
 19 60  1  0  0  0  0
 20 21  1  0  0  0  0
 20 61  1  0  0  0  0
 21 22  2  3  0  0  0
 21 62  1  0  0  0  0
 22 23  1  0  0  0  0
 22 63  1  0  0  0  0
 23 24  2  3  0  0  0
 24 25  1  0  0  0  0
 24 64  1  0  0  0  0
 25 26  2  3  0  0  0
 25 65  1  0  0  0  0
 26 27  1  0  0  0  0
 26 66  1  0  0  0  0
 27 67  1  0  0  0  0
M  END
$$$$
