
 OpenBabel04232216523D

 49 50  0  0  1  0  0  0  0  0999 V2000
    3.7844   -3.2505   -0.7161 C   0  0  0  0  0  0  0  0  0  0  0  0
    3.9106   -1.7537   -0.4802 C   0  0  0  0  0  0  0  0  0  0  0  0
    4.4409   -1.0327   -1.7198 C   0  0  0  0  0  0  0  0  0  0  0  0
    4.5792    0.4715   -1.4736 C   0  0  0  0  0  0  0  0  0  0  0  0
    5.1235    1.1778   -2.7199 C   0  0  3  0  0  0  0  0  0  0  0  0
    5.2878    2.7261   -2.5785 C   0  0  3  0  0  0  0  0  0  0  0  0
    6.6021    3.2750   -3.0169 C   0  0  0  0  0  0  0  0  0  0  0  0
    7.6268    3.3785   -2.1549 C   0  0  0  0  0  0  0  0  0  0  0  0
    8.9640    3.9447   -2.5285 C   0  0  0  0  0  0  0  0  0  0  0  0
   10.0219    2.9553   -2.2942 N   0  0  0  0  0  0  0  0  0  0  0  0
   11.2848    3.4956   -2.6523 N   0  0  0  0  0  0  0  0  0  0  0  0
   11.7987    3.3314   -3.9354 C   0  0  0  0  0  0  0  0  0  0  0  0
   11.1732    2.7497   -4.8259 O   0  0  0  0  0  0  0  0  0  0  0  0
   13.1181    3.8948   -4.1138 C   0  0  0  0  0  0  0  0  0  0  0  0
   13.9672    3.9146   -5.2044 C   0  0  0  0  0  0  0  0  0  0  0  0
   15.1577    4.5545   -4.7769 C   0  0  0  0  0  0  0  0  0  0  0  0
   14.9604    4.9026   -3.4611 C   0  0  0  0  0  0  0  0  0  0  0  0
   15.7607    5.4761   -2.5479 N   0  0  0  0  0  0  0  0  0  0  0  0
   15.1867    6.3002   -1.4940 C   0  0  0  0  0  0  0  0  0  0  0  0
   16.2759    6.9394   -0.6546 C   0  0  0  0  0  0  0  0  0  0  0  0
   17.4797    6.8271   -0.8716 O   0  0  0  0  0  0  0  0  0  0  0  0
   13.7158    4.5352   -3.0605 O   0  0  0  0  0  0  0  0  0  0  0  0
    4.2226    2.8257   -3.6570 C   0  0  0  0  0  0  0  0  0  0  0  0
    4.1005    1.4928   -3.8024 C   0  0  0  0  0  0  0  0  0  0  0  0
    3.4047   -3.7457    0.1832 H   0  0  0  0  0  0  0  0  0  0  0  0
    4.7552   -3.6924   -0.9624 H   0  0  0  0  0  0  0  0  0  0  0  0
    3.0922   -3.4610   -1.5376 H   0  0  0  0  0  0  0  0  0  0  0  0
    4.5826   -1.5796    0.3682 H   0  0  0  0  0  0  0  0  0  0  0  0
    2.9295   -1.3494   -0.2052 H   0  0  0  0  0  0  0  0  0  0  0  0
    3.7693   -1.2135   -2.5676 H   0  0  0  0  0  0  0  0  0  0  0  0
    5.4175   -1.4488   -1.9969 H   0  0  0  0  0  0  0  0  0  0  0  0
    5.2686    0.6369   -0.6368 H   0  0  0  0  0  0  0  0  0  0  0  0
    3.6101    0.8935   -1.1776 H   0  0  0  0  0  0  0  0  0  0  0  0
    6.0320    0.6762   -3.0823 H   0  0  0  0  0  0  0  0  0  0  0  0
    4.9807    3.1288   -1.6040 H   0  0  0  0  0  0  0  0  0  0  0  0
    6.7159    3.5851   -4.0530 H   0  0  0  0  0  0  0  0  0  0  0  0
    7.5073    3.0658   -1.1194 H   0  0  0  0  0  0  0  0  0  0  0  0
    9.1466    4.8322   -1.9111 H   0  0  0  0  0  0  0  0  0  0  0  0
    8.9705    4.2648   -3.5778 H   0  0  0  0  0  0  0  0  0  0  0  0
    9.8438    2.1679   -2.9320 H   0  0  0  0  0  0  0  0  0  0  0  0
   11.8821    3.9034   -1.9364 H   0  0  0  0  0  0  0  0  0  0  0  0
   13.7531    3.4943   -6.1771 H   0  0  0  0  0  0  0  0  0  0  0  0
   16.0494    4.7382   -5.3590 H   0  0  0  0  0  0  0  0  0  0  0  0
   16.7328    5.6964   -2.7661 H   0  0  0  0  0  0  0  0  0  0  0  0
   14.5595    5.6996   -0.8263 H   0  0  0  0  0  0  0  0  0  0  0  0
   14.5878    7.1113   -1.9217 H   0  0  0  0  0  0  0  0  0  0  0  0
   15.9107    7.5597    0.1825 H   0  0  0  0  0  0  0  0  0  0  0  0
    3.7485    3.6769   -4.1382 H   0  0  0  0  0  0  0  0  0  0  0  0
    3.4949    0.8625   -4.4459 H   0  0  0  0  0  0  0  0  0  0  0  0
  1  2  1  0  0  0  0
  1 25  1  0  0  0  0
  1 26  1  0  0  0  0
  1 27  1  0  0  0  0
  2  3  1  0  0  0  0
  2 28  1  0  0  0  0
  2 29  1  0  0  0  0
  3  4  1  0  0  0  0
  3 30  1  0  0  0  0
  3 31  1  0  0  0  0
  4  5  1  0  0  0  0
  4 32  1  0  0  0  0
  4 33  1  0  0  0  0
  5  6  1  0  0  0  0
  5 24  1  0  0  0  0
  5 34  1  0  0  0  0
  6  7  1  0  0  0  0
  6 23  1  0  0  0  0
  6 35  1  0  0  0  0
  7  8  2  3  0  0  0
  7 36  1  0  0  0  0
  8  9  1  0  0  0  0
  8 37  1  0  0  0  0
  9 10  1  0  0  0  0
  9 38  1  0  0  0  0
  9 39  1  0  0  0  0
 10 11  1  0  0  0  0
 10 40  1  0  0  0  0
 11 12  1  0  0  0  0
 11 41  1  0  0  0  0
 12 13  2  0  0  0  0
 12 14  1  0  0  0  0
 14 15  2  0  0  0  0
 14 22  1  0  0  0  0
 15 16  1  0  0  0  0
 15 42  1  0  0  0  0
 16 17  2  0  0  0  0
 16 43  1  0  0  0  0
 17 18  1  0  0  0  0
 17 22  1  0  0  0  0
 18 19  1  0  0  0  0
 18 44  1  0  0  0  0
 19 20  1  0  0  0  0
 19 45  1  0  0  0  0
 19 46  1  0  0  0  0
 20 21  2  0  0  0  0
 20 47  1  0  0  0  0
 23 24  2  0  0  0  0
 23 48  1  0  0  0  0
 24 49  1  0  0  0  0
M  END
$$$$
