
 OpenBabel04232216433D

 62 63  0  0  0  0  0  0  0  0999 V2000
    8.8859    0.5730    1.3075 C   0  0  0  0  0  0  0  0  0  0  0  0
    7.6411   -0.0883    1.0996 C   0  0  0  0  0  0  0  0  0  0  0  0
    6.1273    0.5656    1.0035 C   0  0  0  0  0  0  0  0  0  0  0  0
    5.2905    1.0041    2.0016 C   0  0  0  0  0  0  0  0  0  0  0  0
    5.3197    2.4541    2.3393 C   0  0  0  0  0  0  0  0  0  0  0  0
    6.5717    2.8636    2.5136 C   0  0  0  0  0  0  0  0  0  0  0  0
    7.2411    3.8697    3.2577 C   0  0  0  0  0  0  0  0  0  0  0  0
    6.4799    4.5294    4.3513 C   0  0  0  0  0  0  0  0  0  0  0  0
    8.5893    3.8875    3.1654 C   0  0  0  0  0  0  0  0  0  0  0  0
    9.4294    3.1522    2.1760 C   0  0  0  0  0  0  0  0  0  0  0  0
    9.2183    3.4722    0.7107 C   0  0  0  0  0  0  0  0  0  0  0  0
    9.3916    4.4884    4.1901 C   0  0  0  0  0  0  0  0  0  0  0  0
   10.6630    4.1881    4.3846 C   0  0  0  0  0  0  0  0  0  0  0  0
   11.3278    5.0485    5.2483 C   0  0  0  0  0  0  0  0  0  0  0  0
   12.6317    5.2103    5.1531 C   0  0  0  0  0  0  0  0  0  0  0  0
   13.0422    6.2375    6.0233 C   0  0  0  0  0  0  0  0  0  0  0  0
   14.2976    6.5597    5.9460 C   0  0  0  0  0  0  0  0  0  0  0  0
   15.0525    7.3502    6.8218 C   0  0  0  0  0  0  0  0  0  0  0  0
   16.2882    7.0635    6.5987 C   0  0  0  0  0  0  0  0  0  0  0  0
   17.4992    7.3117    7.2236 C   0  0  0  0  0  0  0  0  0  0  0  0
   18.3861    6.5223    6.6426 C   0  0  0  0  0  0  0  0  0  0  0  0
   19.8436    6.7327    6.8166 C   0  0  0  0  0  0  0  0  0  0  0  0
   19.8930    5.6235    5.7425 C   0  0  0  0  0  0  0  0  0  0  0  0
   18.5144    5.3951    5.5802 C   0  0  0  0  0  0  0  0  0  0  0  0
   17.4070    4.2271    4.5358 C   0  0  0  0  0  0  0  0  0  0  0  0
   15.9741    3.8102    4.1315 C   0  0  0  0  0  0  0  0  0  0  0  0
   14.8906    2.6870    3.1032 C   0  0  0  0  0  0  0  0  0  0  0  0
   13.3861    2.2108    2.7296 C   0  0  0  0  0  0  0  0  0  0  0  0
   12.0713    1.1956    1.8279 C   0  0  0  0  0  0  0  0  0  0  0  0
   10.6844    0.6327    1.3686 C   0  0  0  0  0  0  0  0  0  0  0  0
    8.7725    1.2537    0.4482 H   0  0  0  0  0  0  0  0  0  0  0  0
    7.5090   -1.0083    0.5129 H   0  0  0  0  0  0  0  0  0  0  0  0
    5.4927    0.3155    0.1287 H   0  0  0  0  0  0  0  0  0  0  0  0
    5.4210    0.5666    3.0020 H   0  0  0  0  0  0  0  0  0  0  0  0
    4.4559    3.0170    2.6918 H   0  0  0  0  0  0  0  0  0  0  0  0
    7.2909    2.1477    2.1735 H   0  0  0  0  0  0  0  0  0  0  0  0
    5.4129    4.3065    4.3187 H   0  0  0  0  0  0  0  0  0  0  0  0
    6.6084    5.6098    4.2675 H   0  0  0  0  0  0  0  0  0  0  0  0
    6.8431    4.1761    5.3236 H   0  0  0  0  0  0  0  0  0  0  0  0
    9.3452    2.1366    2.5664 H   0  0  0  0  0  0  0  0  0  0  0  0
   10.5037    3.2946    2.2368 H   0  0  0  0  0  0  0  0  0  0  0  0
    8.2586    3.1370    0.3136 H   0  0  0  0  0  0  0  0  0  0  0  0
   10.0167    3.0070    0.1126 H   0  0  0  0  0  0  0  0  0  0  0  0
    9.2917    4.5457    0.5638 H   0  0  0  0  0  0  0  0  0  0  0  0
    8.9013    5.1771    4.8474 H   0  0  0  0  0  0  0  0  0  0  0  0
   11.2825    3.4728    3.8434 H   0  0  0  0  0  0  0  0  0  0  0  0
   10.7359    5.6967    5.8736 H   0  0  0  0  0  0  0  0  0  0  0  0
   13.2320    4.6340    4.4429 H   0  0  0  0  0  0  0  0  0  0  0  0
   12.3741    6.7081    6.7879 H   0  0  0  0  0  0  0  0  0  0  0  0
   14.8579    6.0411    5.1936 H   0  0  0  0  0  0  0  0  0  0  0  0
   14.6808    7.8677    7.6810 H   0  0  0  0  0  0  0  0  0  0  0  0
   16.4887    6.4092    5.7369 H   0  0  0  0  0  0  0  0  0  0  0  0
   17.6460    8.0927    7.9665 H   0  0  0  0  0  0  0  0  0  0  0  0
   20.2252    6.5951    7.8499 H   0  0  0  0  0  0  0  0  0  0  0  0
   20.1808    7.7717    6.5880 H   0  0  0  0  0  0  0  0  0  0  0  0
   20.8878    5.3292    5.4009 H   0  0  0  0  0  0  0  0  0  0  0  0
   18.2414    3.6606    4.0977 H   0  0  0  0  0  0  0  0  0  0  0  0
   15.2275    4.4379    4.5489 H   0  0  0  0  0  0  0  0  0  0  0  0
   15.6717    2.1863    2.5056 H   0  0  0  0  0  0  0  0  0  0  0  0
   13.9211    1.6588    1.9093 H   0  0  0  0  0  0  0  0  0  0  0  0
   12.7151    0.6620    1.1006 H   0  0  0  0  0  0  0  0  0  0  0  0
   10.7940   -0.0616    0.5126 H   0  0  0  0  0  0  0  0  0  0  0  0
  1  2  2  3  0  0  0
  1 30  1  0  0  0  0
  1 31  1  0  0  0  0
  2  3  1  0  0  0  0
  2 32  1  0  0  0  0
  3  4  2  3  0  0  0
  3 33  1  0  0  0  0
  4  5  1  0  0  0  0
  4 34  1  0  0  0  0
  5  6  2  3  0  0  0
  5 35  1  0  0  0  0
  6  7  1  0  0  0  0
  6 36  1  0  0  0  0
  7  8  1  0  0  0  0
  7  9  2  3  0  0  0
  8 37  1  0  0  0  0
  8 38  1  0  0  0  0
  8 39  1  0  0  0  0
  9 10  1  0  0  0  0
  9 12  1  0  0  0  0
 10 11  1  0  0  0  0
 10 40  1  0  0  0  0
 10 41  1  0  0  0  0
 11 42  1  0  0  0  0
 11 43  1  0  0  0  0
 11 44  1  0  0  0  0
 12 13  2  3  0  0  0
 12 45  1  0  0  0  0
 13 14  1  0  0  0  0
 13 46  1  0  0  0  0
 14 15  2  3  0  0  0
 14 47  1  0  0  0  0
 15 16  1  0  0  0  0
 15 48  1  0  0  0  0
 16 17  2  3  0  0  0
 16 49  1  0  0  0  0
 17 18  1  0  0  0  0
 17 50  1  0  0  0  0
 18 19  2  3  0  0  0
 18 51  1  0  0  0  0
 19 20  1  0  0  0  0
 19 52  1  0  0  0  0
 20 21  2  3  0  0  0
 20 53  1  0  0  0  0
 21 22  1  0  0  0  0
 21 24  1  0  0  0  0
 22 23  1  0  0  0  0
 22 54  1  0  0  0  0
 22 55  1  0  0  0  0
 23 24  2  0  0  0  0
 23 56  1  0  0  0  0
 24 25  1  0  0  0  0
 25 26  2  3  0  0  0
 25 57  1  0  0  0  0
 26 27  1  0  0  0  0
 26 58  1  0  0  0  0
 27 28  2  3  0  0  0
 27 59  1  0  0  0  0
 28 29  1  0  0  0  0
 28 60  1  0  0  0  0
 29 30  2  3  0  0  0
 29 61  1  0  0  0  0
 30 62  1  0  0  0  0
M  END
$$$$
