
 OpenBabel04232216573D

 78 78  0  0  0  0  0  0  0  0999 V2000
    8.5125    8.1739   -0.6073 C   0  0  0  0  0  0  0  0  0  0  0  0
    7.2445    7.5193   -0.6023 O   0  0  0  0  0  0  0  0  0  0  0  0
    7.1349    6.2362   -1.1364 C   0  0  0  0  0  0  0  0  0  0  0  0
    6.2735    5.4613   -0.2365 C   0  0  0  0  0  0  0  0  0  0  0  0
    6.0814    4.1399   -0.0749 C   0  0  0  0  0  0  0  0  0  0  0  0
    6.7961    3.1372   -0.8402 C   0  0  0  0  0  0  0  0  0  0  0  0
    8.2790    3.0958   -0.5128 C   0  0  0  0  0  0  0  0  0  0  0  0
    8.7143    3.0718    0.9463 C   0  0  0  0  0  0  0  0  0  0  0  0
   10.2101    3.3929    0.9682 C   0  0  0  0  0  0  0  0  0  0  0  0
   10.8341    3.2530    2.3468 C   0  0  0  0  0  0  0  0  0  0  0  0
   12.3281    3.5875    2.3445 C   0  0  0  0  0  0  0  0  0  0  0  0
   12.6422    5.0267    1.9216 C   0  0  0  0  0  0  0  0  0  0  0  0
   14.1347    5.3508    1.9815 C   0  0  0  0  0  0  0  0  0  0  0  0
   14.9790    4.4927    1.0424 C   0  0  0  0  0  0  0  0  0  0  0  0
   16.4107    4.8825    1.1497 C   0  0  0  0  0  0  0  0  0  0  0  0
   17.0820    5.2353    0.1738 O   0  0  0  0  0  0  0  0  0  0  0  0
    6.3949    3.0662   -2.1221 C   0  0  0  0  0  0  0  0  0  0  0  0
    7.2055    3.5705   -3.1886 C   0  0  0  0  0  0  0  0  0  0  0  0
    7.7998    4.7809   -3.2525 C   0  0  0  0  0  0  0  0  0  0  0  0
    8.7735    4.9748   -4.4232 C   0  0  0  0  0  0  0  0  0  0  0  0
   10.2306    5.3107   -4.0510 C   0  0  0  0  0  0  0  0  0  0  0  0
   10.9571    4.2773   -3.1783 C   0  0  0  0  0  0  0  0  0  0  0  0
   11.0557    2.8691   -3.7734 C   0  0  0  0  0  0  0  0  0  0  0  0
   11.7601    2.8017   -5.1302 C   0  0  0  0  0  0  0  0  0  0  0  0
   13.2150    3.2696   -5.0654 C   0  0  0  0  0  0  0  0  0  0  0  0
   13.8677    3.2197   -6.4427 C   0  0  0  0  0  0  0  0  0  0  0  0
   15.3224    3.6835   -6.3785 C   0  0  0  0  0  0  0  0  0  0  0  0
   15.8946    3.6220   -7.7207 N   0  0  0  0  0  0  0  0  0  0  0  0
   17.2890    4.0545   -7.7226 C   0  0  0  0  0  0  0  0  0  0  0  0
   17.8369    3.9680   -9.1377 C   0  0  0  0  0  0  0  0  0  0  0  0
    7.6719    5.9461   -2.3460 C   0  0  0  0  0  0  0  0  0  0  0  0
    8.9546    8.1185    0.3928 H   0  0  0  0  0  0  0  0  0  0  0  0
    8.3361    9.2298   -0.8356 H   0  0  0  0  0  0  0  0  0  0  0  0
    9.2347    7.7808   -1.3275 H   0  0  0  0  0  0  0  0  0  0  0  0
    5.7253    6.0932    0.4668 H   0  0  0  0  0  0  0  0  0  0  0  0
    5.4007    3.7781    0.6900 H   0  0  0  0  0  0  0  0  0  0  0  0
    8.7669    3.9737   -0.9695 H   0  0  0  0  0  0  0  0  0  0  0  0
    8.7013    2.2184   -1.0057 H   0  0  0  0  0  0  0  0  0  0  0  0
    8.5086    2.0878    1.3842 H   0  0  0  0  0  0  0  0  0  0  0  0
    8.1821    3.8168    1.5498 H   0  0  0  0  0  0  0  0  0  0  0  0
   10.3336    4.4195    0.6042 H   0  0  0  0  0  0  0  0  0  0  0  0
   10.7358    2.7382    0.2613 H   0  0  0  0  0  0  0  0  0  0  0  0
   10.7151    2.2162    2.6852 H   0  0  0  0  0  0  0  0  0  0  0  0
   10.3112    3.8919    3.0685 H   0  0  0  0  0  0  0  0  0  0  0  0
   12.8350    2.8800    1.6784 H   0  0  0  0  0  0  0  0  0  0  0  0
   12.7251    3.4161    3.3522 H   0  0  0  0  0  0  0  0  0  0  0  0
   12.1044    5.7220    2.5786 H   0  0  0  0  0  0  0  0  0  0  0  0
   12.2925    5.2189    0.9015 H   0  0  0  0  0  0  0  0  0  0  0  0
   14.4959    5.2422    3.0111 H   0  0  0  0  0  0  0  0  0  0  0  0
   14.2741    6.4071    1.7176 H   0  0  0  0  0  0  0  0  0  0  0  0
   14.6380    4.6097    0.0042 H   0  0  0  0  0  0  0  0  0  0  0  0
   14.9110    3.4282    1.2983 H   0  0  0  0  0  0  0  0  0  0  0  0
   16.8652    4.7839    2.1547 H   0  0  0  0  0  0  0  0  0  0  0  0
    5.4997    2.4963   -2.3784 H   0  0  0  0  0  0  0  0  0  0  0  0
    7.3434    2.8532   -3.9931 H   0  0  0  0  0  0  0  0  0  0  0  0
    8.3832    5.7605   -5.0849 H   0  0  0  0  0  0  0  0  0  0  0  0
    8.7973    4.0714   -5.0438 H   0  0  0  0  0  0  0  0  0  0  0  0
   10.2732    6.2810   -3.5433 H   0  0  0  0  0  0  0  0  0  0  0  0
   10.7948    5.4486   -4.9819 H   0  0  0  0  0  0  0  0  0  0  0  0
   10.4730    4.2131   -2.2024 H   0  0  0  0  0  0  0  0  0  0  0  0
   11.9651    4.6526   -2.9641 H   0  0  0  0  0  0  0  0  0  0  0  0
   10.0532    2.4388   -3.8743 H   0  0  0  0  0  0  0  0  0  0  0  0
   11.5888    2.2241   -3.0630 H   0  0  0  0  0  0  0  0  0  0  0  0
   11.2092    3.3930   -5.8700 H   0  0  0  0  0  0  0  0  0  0  0  0
   11.7323    1.7646   -5.4872 H   0  0  0  0  0  0  0  0  0  0  0  0
   13.7721    2.6385   -4.3626 H   0  0  0  0  0  0  0  0  0  0  0  0
   13.2707    4.2981   -4.6920 H   0  0  0  0  0  0  0  0  0  0  0  0
   13.3039    3.8612   -7.1324 H   0  0  0  0  0  0  0  0  0  0  0  0
   13.8182    2.1965   -6.8372 H   0  0  0  0  0  0  0  0  0  0  0  0
   15.8832    3.0349   -5.6951 H   0  0  0  0  0  0  0  0  0  0  0  0
   15.3671    4.7084   -5.9895 H   0  0  0  0  0  0  0  0  0  0  0  0
   15.3518    4.2106   -8.3517 H   0  0  0  0  0  0  0  0  0  0  0  0
   17.8872    3.4120   -7.0669 H   0  0  0  0  0  0  0  0  0  0  0  0
   17.3745    5.0863   -7.3635 H   0  0  0  0  0  0  0  0  0  0  0  0
   17.7604    2.9480   -9.5300 H   0  0  0  0  0  0  0  0  0  0  0  0
   18.8925    4.2574   -9.1521 H   0  0  0  0  0  0  0  0  0  0  0  0
   17.2934    4.6366   -9.8142 H   0  0  0  0  0  0  0  0  0  0  0  0
    8.1385    6.8090   -2.8241 H   0  0  0  0  0  0  0  0  0  0  0  0
  1  2  1  0  0  0  0
  1 32  1  0  0  0  0
  1 33  1  0  0  0  0
  1 34  1  0  0  0  0
  2  3  1  0  0  0  0
  3  4  1  0  0  0  0
  3 31  2  0  0  0  0
  4  5  2  0  0  0  0
  4 35  1  0  0  0  0
  5  6  1  0  0  0  0
  5 36  1  0  0  0  0
  6  7  1  0  0  0  0
  6 17  2  0  0  0  0
  7  8  1  0  0  0  0
  7 37  1  0  0  0  0
  7 38  1  0  0  0  0
  8  9  1  0  0  0  0
  8 39  1  0  0  0  0
  8 40  1  0  0  0  0
  9 10  1  0  0  0  0
  9 41  1  0  0  0  0
  9 42  1  0  0  0  0
 10 11  1  0  0  0  0
 10 43  1  0  0  0  0
 10 44  1  0  0  0  0
 11 12  1  0  0  0  0
 11 45  1  0  0  0  0
 11 46  1  0  0  0  0
 12 13  1  0  0  0  0
 12 47  1  0  0  0  0
 12 48  1  0  0  0  0
 13 14  1  0  0  0  0
 13 49  1  0  0  0  0
 13 50  1  0  0  0  0
 14 15  1  0  0  0  0
 14 51  1  0  0  0  0
 14 52  1  0  0  0  0
 15 16  2  0  0  0  0
 15 53  1  0  0  0  0
 17 18  1  0  0  0  0
 17 54  1  0  0  0  0
 18 19  2  0  0  0  0
 18 55  1  0  0  0  0
 19 20  1  0  0  0  0
 19 31  1  0  0  0  0
 20 21  1  0  0  0  0
 20 56  1  0  0  0  0
 20 57  1  0  0  0  0
 21 22  1  0  0  0  0
 21 58  1  0  0  0  0
 21 59  1  0  0  0  0
 22 23  1  0  0  0  0
 22 60  1  0  0  0  0
 22 61  1  0  0  0  0
 23 24  1  0  0  0  0
 23 62  1  0  0  0  0
 23 63  1  0  0  0  0
 24 25  1  0  0  0  0
 24 64  1  0  0  0  0
 24 65  1  0  0  0  0
 25 26  1  0  0  0  0
 25 66  1  0  0  0  0
 25 67  1  0  0  0  0
 26 27  1  0  0  0  0
 26 68  1  0  0  0  0
 26 69  1  0  0  0  0
 27 28  1  0  0  0  0
 27 70  1  0  0  0  0
 27 71  1  0  0  0  0
 28 29  1  0  0  0  0
 28 72  1  0  0  0  0
 29 30  1  0  0  0  0
 29 73  1  0  0  0  0
 29 74  1  0  0  0  0
 30 75  1  0  0  0  0
 30 76  1  0  0  0  0
 30 77  1  0  0  0  0
 31 78  1  0  0  0  0
M  END
$$$$
