
 OpenBabel04232216503D

 71 71  0  0  1  0  0  0  0  0999 V2000
    5.8459   -3.2831    1.5617 C   0  0  0  0  0  0  0  0  0  0  0  0
    7.3336   -3.3514    1.0349 C   0  0  0  0  0  0  0  0  0  0  0  0
    7.1315   -3.2488   -0.4138 C   0  0  0  0  0  0  0  0  0  0  0  0
    6.3356   -4.0397   -1.1809 C   0  0  0  0  0  0  0  0  0  0  0  0
    6.5479   -4.0121   -2.6243 C   0  0  0  0  0  0  0  0  0  0  0  0
    7.7355   -4.5874   -2.8969 C   0  0  0  0  0  0  0  0  0  0  0  0
    8.9545   -3.7071   -3.0875 C   0  0  0  0  0  0  0  0  0  0  0  0
   10.0479   -4.3358   -2.3431 N   0  0  0  0  0  0  0  0  0  0  0  0
   11.1102   -3.4264   -1.9264 C   0  0  0  0  0  0  0  0  0  0  0  0
   11.5562   -3.8274   -0.5119 C   0  0  0  0  0  0  0  0  0  0  0  0
   10.9465   -2.9688    0.6103 C   0  0  0  0  0  0  0  0  0  0  0  0
   10.2501   -3.8577    1.6709 C   0  0  3  0  0  0  0  0  0  0  0  0
   11.5515   -4.3490    2.9630 C   0  0  0  0  0  0  0  0  0  0  0  0
   13.4118   -4.4105    3.2087 C   0  0  0  0  0  0  0  0  0  0  0  0
   14.3619   -5.6754    4.0250 C   0  0  0  0  0  0  0  0  0  0  0  0
   15.8863   -5.4126    4.7367 C   0  0  0  0  0  0  0  0  0  0  0  0
   16.9884   -6.5392    5.2622 C   0  0  0  0  0  0  0  0  0  0  0  0
   17.0123   -7.3338    6.6204 C   0  0  0  0  0  0  0  0  0  0  0  0
   16.1187   -8.5323    6.7558 C   0  0  0  0  0  0  0  0  0  0  0  0
   16.5144   -9.7405    5.8161 C   0  0  0  0  0  0  0  0  0  0  0  0
   15.3813  -10.7591    5.7121 C   0  0  0  0  0  0  0  0  0  0  0  0
   15.6566  -11.8773    4.6882 C   0  0  0  0  0  0  0  0  0  0  0  0
   14.4558  -12.8209    4.5147 C   0  0  0  0  0  0  0  0  0  0  0  0
   14.7076  -13.8921    3.4489 C   0  0  0  0  0  0  0  0  0  0  0  0
   13.5082  -14.8168    3.3040 C   0  0  0  0  0  0  0  0  0  0  0  0
    8.4990   -3.5455    1.8000 C   0  0  0  0  0  0  0  0  0  0  0  0
    5.1884   -2.7109    0.8676 H   0  0  0  0  0  0  0  0  0  0  0  0
    5.7040   -2.7896    2.5234 H   0  0  0  0  0  0  0  0  0  0  0  0
    5.3756   -4.2799    1.5804 H   0  0  0  0  0  0  0  0  0  0  0  0
    7.4193   -2.2925   -0.8476 H   0  0  0  0  0  0  0  0  0  0  0  0
    5.8107   -4.9194   -0.8128 H   0  0  0  0  0  0  0  0  0  0  0  0
    6.2103   -3.1345   -3.1735 H   0  0  0  0  0  0  0  0  0  0  0  0
    7.9526   -5.4531   -2.2567 H   0  0  0  0  0  0  0  0  0  0  0  0
    8.7488   -2.7118   -2.6706 H   0  0  0  0  0  0  0  0  0  0  0  0
    9.1881   -3.5984   -4.1469 H   0  0  0  0  0  0  0  0  0  0  0  0
    9.6555   -4.7641   -1.5049 H   0  0  0  0  0  0  0  0  0  0  0  0
   10.8261   -2.3688   -1.9598 H   0  0  0  0  0  0  0  0  0  0  0  0
   11.9502   -3.5627   -2.6143 H   0  0  0  0  0  0  0  0  0  0  0  0
   11.3336   -4.8897   -0.3404 H   0  0  0  0  0  0  0  0  0  0  0  0
   12.6466   -3.7707   -0.4499 H   0  0  0  0  0  0  0  0  0  0  0  0
   10.2921   -2.1714    0.2381 H   0  0  0  0  0  0  0  0  0  0  0  0
   11.7828   -2.4376    1.0846 H   0  0  0  0  0  0  0  0  0  0  0  0
   10.0884   -4.8597    1.2479 H   0  0  0  0  0  0  0  0  0  0  0  0
   11.7765   -5.1549    2.2639 H   0  0  0  0  0  0  0  0  0  0  0  0
   11.7031   -3.2643    3.0534 H   0  0  0  0  0  0  0  0  0  0  0  0
   13.6724   -3.4900    3.7519 H   0  0  0  0  0  0  0  0  0  0  0  0
   13.8443   -4.3237    2.2009 H   0  0  0  0  0  0  0  0  0  0  0  0
   14.5633   -6.4216    3.2463 H   0  0  0  0  0  0  0  0  0  0  0  0
   13.7380   -6.1188    4.8020 H   0  0  0  0  0  0  0  0  0  0  0  0
   15.7758   -4.7065    5.5677 H   0  0  0  0  0  0  0  0  0  0  0  0
   16.4738   -4.8864    3.9671 H   0  0  0  0  0  0  0  0  0  0  0  0
   17.9072   -5.9326    5.4093 H   0  0  0  0  0  0  0  0  0  0  0  0
   17.2782   -7.2117    4.4467 H   0  0  0  0  0  0  0  0  0  0  0  0
   16.8258   -6.6784    7.4717 H   0  0  0  0  0  0  0  0  0  0  0  0
   18.0318   -7.7180    6.7795 H   0  0  0  0  0  0  0  0  0  0  0  0
   15.1037   -8.2340    6.5192 H   0  0  0  0  0  0  0  0  0  0  0  0
   16.1311   -8.9432    7.7903 H   0  0  0  0  0  0  0  0  0  0  0  0
   17.4004  -10.2269    6.2284 H   0  0  0  0  0  0  0  0  0  0  0  0
   16.7784   -9.3622    4.7990 H   0  0  0  0  0  0  0  0  0  0  0  0
   14.4512  -10.2521    5.4284 H   0  0  0  0  0  0  0  0  0  0  0  0
   15.1868  -11.2277    6.6993 H   0  0  0  0  0  0  0  0  0  0  0  0
   16.5333  -12.4607    4.9953 H   0  0  0  0  0  0  0  0  0  0  0  0
   15.8854  -11.4228    3.7169 H   0  0  0  0  0  0  0  0  0  0  0  0
   13.5617  -12.2434    4.2372 H   0  0  0  0  0  0  0  0  0  0  0  0
   14.2339  -13.3107    5.4722 H   0  0  0  0  0  0  0  0  0  0  0  0
   15.5838  -14.4910    3.7224 H   0  0  0  0  0  0  0  0  0  0  0  0
   14.9179  -13.4406    2.4697 H   0  0  0  0  0  0  0  0  0  0  0  0
   13.2917  -15.3147    4.2557 H   0  0  0  0  0  0  0  0  0  0  0  0
   13.7186  -15.5807    2.5587 H   0  0  0  0  0  0  0  0  0  0  0  0
   12.6185  -14.2606    2.9975 H   0  0  0  0  0  0  0  0  0  0  0  0
    8.2927   -3.6013    2.8790 H   0  0  0  0  0  0  0  0  0  0  0  0
  1  2  1  0  0  0  0
  1 27  1  0  0  0  0
  1 28  1  0  0  0  0
  1 29  1  0  0  0  0
  2  3  1  0  0  0  0
  2 26  2  3  0  0  0
  3  4  2  3  0  0  0
  3 30  1  0  0  0  0
  4  5  1  0  0  0  0
  4 31  1  0  0  0  0
  5  6  2  3  0  0  0
  5 32  1  0  0  0  0
  6  7  1  0  0  0  0
  6 33  1  0  0  0  0
  7  8  1  0  0  0  0
  7 34  1  0  0  0  0
  7 35  1  0  0  0  0
  8  9  1  0  0  0  0
  8 36  1  0  0  0  0
  9 10  1  0  0  0  0
  9 37  1  0  0  0  0
  9 38  1  0  0  0  0
 10 11  1  0  0  0  0
 10 39  1  0  0  0  0
 10 40  1  0  0  0  0
 11 12  1  0  0  0  0
 11 41  1  0  0  0  0
 11 42  1  0  0  0  0
 12 13  1  0  0  0  0
 12 26  1  0  0  0  0
 12 43  1  0  0  0  0
 13 14  1  0  0  0  0
 13 44  1  0  0  0  0
 13 45  1  0  0  0  0
 14 15  1  0  0  0  0
 14 46  1  0  0  0  0
 14 47  1  0  0  0  0
 15 16  1  0  0  0  0
 15 48  1  0  0  0  0
 15 49  1  0  0  0  0
 16 17  1  0  0  0  0
 16 50  1  0  0  0  0
 16 51  1  0  0  0  0
 17 18  1  0  0  0  0
 17 52  1  0  0  0  0
 17 53  1  0  0  0  0
 18 19  1  0  0  0  0
 18 54  1  0  0  0  0
 18 55  1  0  0  0  0
 19 20  1  0  0  0  0
 19 56  1  0  0  0  0
 19 57  1  0  0  0  0
 20 21  1  0  0  0  0
 20 58  1  0  0  0  0
 20 59  1  0  0  0  0
 21 22  1  0  0  0  0
 21 60  1  0  0  0  0
 21 61  1  0  0  0  0
 22 23  1  0  0  0  0
 22 62  1  0  0  0  0
 22 63  1  0  0  0  0
 23 24  1  0  0  0  0
 23 64  1  0  0  0  0
 23 65  1  0  0  0  0
 24 25  1  0  0  0  0
 24 66  1  0  0  0  0
 24 67  1  0  0  0  0
 25 68  1  0  0  0  0
 25 69  1  0  0  0  0
 25 70  1  0  0  0  0
 26 71  1  0  0  0  0
M  END
$$$$
