
 OpenBabel04232216493D

 56 57  0  0  1  0  0  0  0  0999 V2000
    0.8486   -1.2413    0.0203 C   0  0  0  0  0  0  0  0  0  0  0  0
    2.3400   -0.8913    0.0160 C   0  0  3  0  0  0  0  0  0  0  0  0
    2.5430    0.4999    0.6301 C   0  0  0  0  0  0  0  0  0  0  0  0
    3.9943    0.9617    0.6949 C   0  0  0  0  0  0  0  0  0  0  0  0
    4.7328    0.9270   -0.6512 C   0  0  0  0  0  0  0  0  0  0  0  0
    5.1049   -0.4420   -1.2506 C   0  0  0  0  0  0  0  0  0  0  0  0
    5.5939   -1.5163   -0.2630 C   0  0  3  0  0  0  0  0  0  0  0  0
    6.7734   -1.0060    0.6118 C   0  0  0  0  0  0  0  0  0  0  0  0
    8.0028   -0.5800   -0.2050 C   0  0  0  0  0  0  0  0  0  0  0  0
    9.1248   -0.0852    0.6979 C   0  0  0  0  0  0  0  0  0  0  0  0
   10.2814    0.3105   -0.0684 N   0  0  0  0  0  0  0  0  0  0  0  0
   11.4051    0.7839    0.5715 C   0  0  0  0  0  0  0  0  0  0  0  0
   11.4911    0.9057    1.7784 O   0  0  0  0  0  0  0  0  0  0  0  0
   12.5605    1.1047   -0.3374 C   0  0  0  0  0  0  0  0  0  0  0  0
   13.8905    1.1448    0.2403 C   0  0  0  0  0  0  0  0  0  0  0  0
   14.9508    1.6619   -0.4055 C   0  0  0  0  0  0  0  0  0  0  0  0
   16.2984    1.7176    0.2754 C   0  0  0  0  0  0  0  0  0  0  0  0
   16.9004    3.1079    0.4322 C   0  0  0  0  0  0  0  0  0  0  0  0
   14.7869    2.2099   -1.8052 C   0  0  0  0  0  0  0  0  0  0  0  0
   13.5279    1.7141   -2.5450 C   0  0  0  0  0  0  0  0  0  0  0  0
   12.3816    1.3674   -1.6447 C   0  0  0  0  0  0  0  0  0  0  0  0
    4.5086   -2.1829    0.5821 C   0  0  0  0  0  0  0  0  0  0  0  0
    3.1842   -1.9474    0.7000 C   0  0  0  0  0  0  0  0  0  0  0  0
    0.2864   -0.4886   -0.5469 H   0  0  0  0  0  0  0  0  0  0  0  0
    0.4381   -1.2735    1.0341 H   0  0  0  0  0  0  0  0  0  0  0  0
    0.6729   -2.2099   -0.4590 H   0  0  0  0  0  0  0  0  0  0  0  0
    2.5817   -0.8560   -1.0454 H   0  0  0  0  0  0  0  0  0  0  0  0
    2.1324    0.5216    1.6487 H   0  0  0  0  0  0  0  0  0  0  0  0
    1.9724    1.2387    0.0538 H   0  0  0  0  0  0  0  0  0  0  0  0
    4.5161    0.3896    1.4646 H   0  0  0  0  0  0  0  0  0  0  0  0
    4.0118    1.9928    1.0658 H   0  0  0  0  0  0  0  0  0  0  0  0
    5.6601    1.4990   -0.5237 H   0  0  0  0  0  0  0  0  0  0  0  0
    4.1460    1.4795   -1.3947 H   0  0  0  0  0  0  0  0  0  0  0  0
    5.8834   -0.2718   -2.0053 H   0  0  0  0  0  0  0  0  0  0  0  0
    4.2929   -0.8464   -1.8613 H   0  0  0  0  0  0  0  0  0  0  0  0
    6.0007   -2.3329   -0.8783 H   0  0  0  0  0  0  0  0  0  0  0  0
    7.0734   -1.7889    1.3197 H   0  0  0  0  0  0  0  0  0  0  0  0
    6.4635   -0.1592    1.2312 H   0  0  0  0  0  0  0  0  0  0  0  0
    7.7612    0.2316   -0.8997 H   0  0  0  0  0  0  0  0  0  0  0  0
    8.3498   -1.4223   -0.8160 H   0  0  0  0  0  0  0  0  0  0  0  0
    9.4327   -0.8585    1.4084 H   0  0  0  0  0  0  0  0  0  0  0  0
    8.8005    0.7905    1.2704 H   0  0  0  0  0  0  0  0  0  0  0  0
   10.2906    0.1599   -1.0628 H   0  0  0  0  0  0  0  0  0  0  0  0
   13.9872    0.7710    1.2590 H   0  0  0  0  0  0  0  0  0  0  0  0
   17.0089    1.0915   -0.2766 H   0  0  0  0  0  0  0  0  0  0  0  0
   16.2103    1.2810    1.2785 H   0  0  0  0  0  0  0  0  0  0  0  0
   17.0961    3.5712   -0.5394 H   0  0  0  0  0  0  0  0  0  0  0  0
   17.8580    3.0420    0.9630 H   0  0  0  0  0  0  0  0  0  0  0  0
   16.2450    3.7683    1.0104 H   0  0  0  0  0  0  0  0  0  0  0  0
   15.6526    1.9664   -2.4310 H   0  0  0  0  0  0  0  0  0  0  0  0
   14.7420    3.3036   -1.7298 H   0  0  0  0  0  0  0  0  0  0  0  0
   13.7761    0.8250   -3.1382 H   0  0  0  0  0  0  0  0  0  0  0  0
   13.2072    2.4840   -3.2571 H   0  0  0  0  0  0  0  0  0  0  0  0
   11.3982    1.3581   -2.0984 H   0  0  0  0  0  0  0  0  0  0  0  0
    4.8934   -3.0040    1.1930 H   0  0  0  0  0  0  0  0  0  0  0  0
    2.6402   -2.5785    1.4050 H   0  0  0  0  0  0  0  0  0  0  0  0
  1  2  1  0  0  0  0
  1 24  1  0  0  0  0
  1 25  1  0  0  0  0
  1 26  1  0  0  0  0
  2  3  1  0  0  0  0
  2 23  1  0  0  0  0
  2 27  1  0  0  0  0
  3  4  1  0  0  0  0
  3 28  1  0  0  0  0
  3 29  1  0  0  0  0
  4  5  1  0  0  0  0
  4 30  1  0  0  0  0
  4 31  1  0  0  0  0
  5  6  1  0  0  0  0
  5 32  1  0  0  0  0
  5 33  1  0  0  0  0
  6  7  1  0  0  0  0
  6 34  1  0  0  0  0
  6 35  1  0  0  0  0
  7  8  1  0  0  0  0
  7 22  1  0  0  0  0
  7 36  1  0  0  0  0
  8  9  1  0  0  0  0
  8 37  1  0  0  0  0
  8 38  1  0  0  0  0
  9 10  1  0  0  0  0
  9 39  1  0  0  0  0
  9 40  1  0  0  0  0
 10 11  1  0  0  0  0
 10 41  1  0  0  0  0
 10 42  1  0  0  0  0
 11 12  1  0  0  0  0
 11 43  1  0  0  0  0
 12 13  2  0  0  0  0
 12 14  1  0  0  0  0
 14 15  1  0  0  0  0
 14 21  2  0  0  0  0
 15 16  2  0  0  0  0
 15 44  1  0  0  0  0
 16 17  1  0  0  0  0
 16 19  1  0  0  0  0
 17 18  1  0  0  0  0
 17 45  1  0  0  0  0
 17 46  1  0  0  0  0
 18 47  1  0  0  0  0
 18 48  1  0  0  0  0
 18 49  1  0  0  0  0
 19 20  1  0  0  0  0
 19 50  1  0  0  0  0
 19 51  1  0  0  0  0
 20 21  1  0  0  0  0
 20 52  1  0  0  0  0
 20 53  1  0  0  0  0
 21 54  1  0  0  0  0
 22 23  2  0  0  0  0
 22 55  1  0  0  0  0
 23 56  1  0  0  0  0
M  END
$$$$
