
 OpenBabel04232216493D

234234  0  0  1  0  0  0  0  0999 V2000
    0.1654   -1.3533   -2.5030 C   0  0  0  0  0  0  0  0  0  0  0  0
   -0.1573   -1.4034   -3.9924 C   0  0  3  0  0  0  0  0  0  0  0  0
   -1.6341   -1.3400   -4.2555 C   0  0  0  0  0  0  0  0  0  0  0  0
   -1.9096   -0.5178   -5.3004 C   0  0  0  0  0  0  0  0  0  0  0  0
   -0.6582    0.0628   -5.8641 C   0  0  0  0  0  0  0  0  0  0  0  0
    0.3583   -0.1910   -4.7601 C   0  0  3  0  0  3  0  0  0  0  0  0
    0.6891    1.0122   -3.9110 C   0  0  0  0  0  0  0  0  0  0  0  0
    1.2713    2.1585   -4.6878 C   0  0  0  0  0  0  0  0  0  0  0  0
    1.5560    3.3206   -3.7517 C   0  0  0  0  0  0  0  0  0  0  0  0
    2.1287    4.4768   -4.5436 C   0  0  0  0  0  0  0  0  0  0  0  0
    1.1337    4.9349   -5.6004 C   0  0  0  0  0  0  0  0  0  0  0  0
    1.7074    6.0799   -6.3981 C   0  0  0  0  0  0  0  0  0  0  0  0
    0.7102    6.5192   -7.4513 C   0  0  0  0  0  0  0  0  0  0  0  0
    1.2855    7.6734   -8.2469 C   0  0  0  0  0  0  0  0  0  0  0  0
    0.2904    8.1180   -9.3007 C   0  0  0  0  0  0  0  0  0  0  0  0
    0.8655    9.2731  -10.0971 C   0  0  0  0  0  0  0  0  0  0  0  0
   -0.1296    9.7181  -11.1512 C   0  0  0  0  0  0  0  0  0  0  0  0
    0.4455   10.8732  -11.9475 C   0  0  0  0  0  0  0  0  0  0  0  0
   -0.5504   11.3194  -13.0004 C   0  0  0  0  0  0  0  0  0  0  0  0
    0.0247   12.4746  -13.7967 C   0  0  0  0  0  0  0  0  0  0  0  0
   -0.9712   12.9208  -14.8495 C   0  0  0  0  0  0  0  0  0  0  0  0
   -0.3961   14.0760  -15.6459 C   0  0  0  0  0  0  0  0  0  0  0  0
   -1.3920   14.5222  -16.6987 C   0  0  0  0  0  0  0  0  0  0  0  0
   -0.8169   15.6774  -17.4951 C   0  0  0  0  0  0  0  0  0  0  0  0
   -1.8128   16.1236  -18.5479 C   0  0  0  0  0  0  0  0  0  0  0  0
   -1.2377   17.2788  -19.3443 C   0  0  0  0  0  0  0  0  0  0  0  0
   -2.2336   17.7250  -20.3971 C   0  0  0  0  0  0  0  0  0  0  0  0
   -1.6585   18.8802  -21.1935 C   0  0  0  0  0  0  0  0  0  0  0  0
   -2.6552   19.3277  -22.2450 C   0  0  0  0  0  0  0  0  0  0  0  0
   -2.0801   20.4829  -23.0414 C   0  0  0  0  0  0  0  0  0  0  0  0
   -3.0760   20.9291  -24.0942 C   0  0  0  0  0  0  0  0  0  0  0  0
   -2.5009   22.0843  -24.8906 C   0  0  0  0  0  0  0  0  0  0  0  0
   -3.4976   22.5318  -25.9421 C   0  0  0  0  0  0  0  0  0  0  0  0
   -2.9225   23.6870  -26.7385 C   0  0  0  0  0  0  0  0  0  0  0  0
   -3.9184   24.1332  -27.7913 C   0  0  0  0  0  0  0  0  0  0  0  0
   -3.3441   25.2897  -28.5863 C   0  0  0  0  0  0  0  0  0  0  0  0
   -4.3408   25.7372  -29.6379 C   0  0  0  0  0  0  0  0  0  0  0  0
   -3.7665   26.8937  -30.4329 C   0  0  0  0  0  0  0  0  0  0  0  0
   -4.7632   27.3412  -31.4844 C   0  0  0  0  0  0  0  0  0  0  0  0
   -4.1889   28.4977  -32.2795 C   0  0  0  0  0  0  0  0  0  0  0  0
   -5.1856   28.9452  -33.3310 C   0  0  0  0  0  0  0  0  0  0  0  0
   -4.6113   30.1017  -34.1260 C   0  0  0  0  0  0  0  0  0  0  0  0
   -5.6080   30.5492  -35.1775 C   0  0  0  0  0  0  0  0  0  0  0  0
   -5.0345   31.7069  -35.9713 C   0  0  0  0  0  0  0  0  0  0  0  0
   -6.0320   32.1558  -37.0215 C   0  0  0  0  0  0  0  0  0  0  0  0
   -5.4577   33.3123  -37.8165 C   0  0  0  0  0  0  0  0  0  0  0  0
   -6.4560   33.7624  -38.8654 C   0  0  0  0  0  0  0  0  0  0  0  0
   -5.8825   34.9202  -39.6592 C   0  0  0  0  0  0  0  0  0  0  0  0
   -6.8808   35.3703  -40.7080 C   0  0  0  0  0  0  0  0  0  0  0  0
   -6.3074   36.5281  -41.5018 C   0  0  0  0  0  0  0  0  0  0  0  0
   -7.3056   36.9782  -42.5507 C   0  0  0  0  0  0  0  0  0  0  0  0
   -6.7314   38.1347  -43.3457 C   0  0  0  0  0  0  0  0  0  0  0  0
   -7.7297   38.5848  -44.3946 C   0  0  0  0  0  0  0  0  0  0  0  0
   -7.1562   39.7426  -45.1883 C   0  0  0  0  0  0  0  0  0  0  0  0
   -8.1545   40.1927  -46.2372 C   0  0  0  0  0  0  0  0  0  0  0  0
   -7.5818   41.3517  -47.0297 C   0  0  0  0  0  0  0  0  0  0  0  0
   -8.5801   41.8019  -48.0785 C   0  0  0  0  0  0  0  0  0  0  0  0
   -8.0066   42.9597  -48.8722 C   0  0  0  0  0  0  0  0  0  0  0  0
   -9.0057   43.4111  -49.9198 C   0  0  0  0  0  0  0  0  0  0  0  0
   -8.4330   44.5702  -50.7122 C   0  0  0  0  0  0  0  0  0  0  0  0
   -9.4313   45.0203  -51.7611 C   0  0  0  0  0  0  0  0  0  0  0  0
   -8.8594   46.1806  -52.5522 C   0  0  0  0  0  0  0  0  0  0  0  0
   -9.8569   46.6295  -53.6024 C   0  0  0  0  0  0  0  0  0  0  0  0
   -9.2842   47.7886  -54.3948 C   0  0  0  0  0  0  0  0  0  0  0  0
  -10.2825   48.2387  -55.4437 C   0  0  0  0  0  0  0  0  0  0  0  0
   -9.7106   49.3990  -56.2348 C   0  0  0  0  0  0  0  0  0  0  0  0
  -10.7089   49.8492  -57.2837 C   0  0  0  0  0  0  0  0  0  0  0  0
  -10.1378   51.0108  -58.0735 C   0  0  0  0  0  0  0  0  0  0  0  0
  -11.1369   51.4623  -59.1210 C   0  0  0  0  0  0  0  0  0  0  0  0
  -10.5650   52.6227  -59.9121 C   0  0  0  0  0  0  0  0  0  0  0  0
  -11.5649   53.0754  -60.9584 C   0  0  0  0  0  0  0  0  0  0  0  0
  -10.9922   54.2345  -61.7508 C   0  0  0  0  0  0  0  0  0  0  0  0
  -11.9921   54.6872  -62.7971 C   0  0  0  0  0  0  0  0  0  0  0  0
  -11.4202   55.8478  -63.5884 C   0  0  0  0  0  0  0  0  0  0  0  0
  -12.4192   56.2999  -64.6365 C   0  0  0  0  0  0  0  0  0  0  0  0
  -11.8470   57.4612  -65.4283 C   0  0  0  0  0  0  0  0  0  0  0  0
  -12.8454   57.9149  -66.4778 C   0  0  0  0  0  0  0  0  0  0  0  0
  -12.2775   59.0772  -67.2762 C   0  0  0  0  0  0  0  0  0  0  0  0
  -13.2759   59.5274  -68.3221 C   0  0  0  0  0  0  0  0  0  0  0  0
   -0.2595   -2.2042   -1.9724 H   0  0  0  0  0  0  0  0  0  0  0  0
   -0.2417   -0.4477   -2.0343 H   0  0  0  0  0  0  0  0  0  0  0  0
    1.2516   -1.3547   -2.3537 H   0  0  0  0  0  0  0  0  0  0  0  0
    0.2497   -2.3313   -4.4149 H   0  0  0  0  0  0  0  0  0  0  0  0
   -2.3762   -1.8340   -3.6648 H   0  0  0  0  0  0  0  0  0  0  0  0
   -2.8926   -0.2669   -5.6342 H   0  0  0  0  0  0  0  0  0  0  0  0
   -0.7997    1.1258   -6.0641 H   0  0  0  0  0  0  0  0  0  0  0  0
   -0.3760   -0.4321   -6.7976 H   0  0  0  0  0  0  0  0  0  0  0  0
    1.3974    0.7549   -3.1188 H   0  0  0  0  0  0  0  0  0  0  0  0
   -0.2423    1.3425   -3.4272 H   0  0  0  0  0  0  0  0  0  0  0  0
    0.5529    2.4696   -5.4443 H   0  0  0  0  0  0  0  0  0  0  0  0
    2.1814    1.8435   -5.2081 H   0  0  0  0  0  0  0  0  0  0  0  0
    2.2627    3.0127   -2.9765 H   0  0  0  0  0  0  0  0  0  0  0  0
    0.6319    3.6349   -3.2502 H   0  0  0  0  0  0  0  0  0  0  0  0
    3.0650    4.1691   -5.0251 H   0  0  0  0  0  0  0  0  0  0  0  0
    2.3592    5.3080   -3.8702 H   0  0  0  0  0  0  0  0  0  0  0  0
    0.1917    5.2285   -5.1212 H   0  0  0  0  0  0  0  0  0  0  0  0
    0.9007    4.1226   -6.2956 H   0  0  0  0  0  0  0  0  0  0  0  0
    2.6438    5.7669   -6.8748 H   0  0  0  0  0  0  0  0  0  0  0  0
    1.9389    6.9111   -5.7265 H   0  0  0  0  0  0  0  0  0  0  0  0
   -0.2279    6.8250   -6.9721 H   0  0  0  0  0  0  0  0  0  0  0  0
    0.4779    5.6816   -8.1209 H   0  0  0  0  0  0  0  0  0  0  0  0
    2.2237    7.3662   -8.7249 H   0  0  0  0  0  0  0  0  0  0  0  0
    1.5179    8.5096   -7.5761 H   0  0  0  0  0  0  0  0  0  0  0  0
   -0.6478    8.4249   -8.8224 H   0  0  0  0  0  0  0  0  0  0  0  0
    0.0580    7.2815   -9.9712 H   0  0  0  0  0  0  0  0  0  0  0  0
    1.8037    8.9662  -10.5754 H   0  0  0  0  0  0  0  0  0  0  0  0
    1.0979   10.1096   -9.4265 H   0  0  0  0  0  0  0  0  0  0  0  0
   -1.0678   10.0250  -10.6728 H   0  0  0  0  0  0  0  0  0  0  0  0
   -0.3621    8.8816  -11.8217 H   0  0  0  0  0  0  0  0  0  0  0  0
    1.3830   10.5659  -12.4270 H   0  0  0  0  0  0  0  0  0  0  0  0
    0.6792   11.7091  -11.2769 H   0  0  0  0  0  0  0  0  0  0  0  0
   -1.4879   11.6268  -12.5209 H   0  0  0  0  0  0  0  0  0  0  0  0
   -0.7842   10.4835  -13.6710 H   0  0  0  0  0  0  0  0  0  0  0  0
    0.9622   12.1673  -14.2762 H   0  0  0  0  0  0  0  0  0  0  0  0
    0.2585   13.3105  -13.1260 H   0  0  0  0  0  0  0  0  0  0  0  0
   -1.9087   13.2282  -14.3701 H   0  0  0  0  0  0  0  0  0  0  0  0
   -1.2050   12.0849  -15.5202 H   0  0  0  0  0  0  0  0  0  0  0  0
    0.5414   13.7687  -16.1254 H   0  0  0  0  0  0  0  0  0  0  0  0
   -0.1623   14.9119  -14.9752 H   0  0  0  0  0  0  0  0  0  0  0  0
   -2.3295   14.8296  -16.2192 H   0  0  0  0  0  0  0  0  0  0  0  0
   -1.6258   13.6863  -17.3694 H   0  0  0  0  0  0  0  0  0  0  0  0
    0.1206   15.3700  -17.9746 H   0  0  0  0  0  0  0  0  0  0  0  0
   -0.5831   16.5133  -16.8244 H   0  0  0  0  0  0  0  0  0  0  0  0
   -2.7503   16.4310  -18.0684 H   0  0  0  0  0  0  0  0  0  0  0  0
   -2.0466   15.2877  -19.2186 H   0  0  0  0  0  0  0  0  0  0  0  0
   -0.3002   16.9714  -19.8238 H   0  0  0  0  0  0  0  0  0  0  0  0
   -1.0039   18.1147  -18.6736 H   0  0  0  0  0  0  0  0  0  0  0  0
   -3.1710   18.0324  -19.9176 H   0  0  0  0  0  0  0  0  0  0  0  0
   -2.4674   16.8891  -21.0678 H   0  0  0  0  0  0  0  0  0  0  0  0
   -0.7218   18.5724  -21.6741 H   0  0  0  0  0  0  0  0  0  0  0  0
   -1.4234   19.7156  -20.5226 H   0  0  0  0  0  0  0  0  0  0  0  0
   -3.5919   19.6355  -21.7644 H   0  0  0  0  0  0  0  0  0  0  0  0
   -2.8903   18.4923  -22.9159 H   0  0  0  0  0  0  0  0  0  0  0  0
   -1.1426   20.1755  -23.5209 H   0  0  0  0  0  0  0  0  0  0  0  0
   -1.8463   21.3188  -22.3707 H   0  0  0  0  0  0  0  0  0  0  0  0
   -4.0135   21.2364  -23.6147 H   0  0  0  0  0  0  0  0  0  0  0  0
   -3.3098   20.0932  -24.7649 H   0  0  0  0  0  0  0  0  0  0  0  0
   -1.5642   21.7765  -25.3712 H   0  0  0  0  0  0  0  0  0  0  0  0
   -2.2658   22.9197  -24.2197 H   0  0  0  0  0  0  0  0  0  0  0  0
   -4.4343   22.8396  -25.4614 H   0  0  0  0  0  0  0  0  0  0  0  0
   -3.7327   21.6964  -26.6130 H   0  0  0  0  0  0  0  0  0  0  0  0
   -1.9850   23.3797  -27.2180 H   0  0  0  0  0  0  0  0  0  0  0  0
   -2.6887   24.5228  -26.0677 H   0  0  0  0  0  0  0  0  0  0  0  0
   -4.8564   24.4392  -27.3119 H   0  0  0  0  0  0  0  0  0  0  0  0
   -4.1511   23.2977  -28.4628 H   0  0  0  0  0  0  0  0  0  0  0  0
   -2.4069   24.9832  -29.0669 H   0  0  0  0  0  0  0  0  0  0  0  0
   -3.1101   26.1247  -27.9146 H   0  0  0  0  0  0  0  0  0  0  0  0
   -5.2780   26.0436  -29.1573 H   0  0  0  0  0  0  0  0  0  0  0  0
   -4.5748   24.9022  -30.3096 H   0  0  0  0  0  0  0  0  0  0  0  0
   -2.8293   26.5872  -30.9135 H   0  0  0  0  0  0  0  0  0  0  0  0
   -3.5325   27.7286  -29.7611 H   0  0  0  0  0  0  0  0  0  0  0  0
   -5.7004   27.6476  -31.0038 H   0  0  0  0  0  0  0  0  0  0  0  0
   -4.9972   26.5062  -32.1562 H   0  0  0  0  0  0  0  0  0  0  0  0
   -3.2517   28.1912  -32.7600 H   0  0  0  0  0  0  0  0  0  0  0  0
   -3.9549   29.3326  -31.6077 H   0  0  0  0  0  0  0  0  0  0  0  0
   -6.1228   29.2516  -32.8504 H   0  0  0  0  0  0  0  0  0  0  0  0
   -5.4196   28.1102  -34.0027 H   0  0  0  0  0  0  0  0  0  0  0  0
   -3.6741   29.7953  -34.6066 H   0  0  0  0  0  0  0  0  0  0  0  0
   -4.3773   30.9366  -33.4542 H   0  0  0  0  0  0  0  0  0  0  0  0
   -6.5457   30.8543  -34.6971 H   0  0  0  0  0  0  0  0  0  0  0  0
   -5.8410   29.7146  -35.8502 H   0  0  0  0  0  0  0  0  0  0  0  0
   -4.0975   31.4014  -36.4529 H   0  0  0  0  0  0  0  0  0  0  0  0
   -4.8003   32.5410  -35.2985 H   0  0  0  0  0  0  0  0  0  0  0  0
   -6.9685   32.4626  -36.5397 H   0  0  0  0  0  0  0  0  0  0  0  0
   -6.2674   31.3214  -37.6935 H   0  0  0  0  0  0  0  0  0  0  0  0
   -4.5220   33.0050  -38.2994 H   0  0  0  0  0  0  0  0  0  0  0  0
   -5.2211   34.1462  -37.1444 H   0  0  0  0  0  0  0  0  0  0  0  0
   -7.3923   34.0684  -38.3826 H   0  0  0  0  0  0  0  0  0  0  0  0
   -6.6917   32.9288  -39.5384 H   0  0  0  0  0  0  0  0  0  0  0  0
   -4.9463   34.6142  -40.1420 H   0  0  0  0  0  0  0  0  0  0  0  0
   -5.6469   35.7537  -38.9861 H   0  0  0  0  0  0  0  0  0  0  0  0
   -7.8171   35.6762  -40.2252 H   0  0  0  0  0  0  0  0  0  0  0  0
   -7.1165   34.5368  -41.3810 H   0  0  0  0  0  0  0  0  0  0  0  0
   -5.3711   36.2221  -41.9846 H   0  0  0  0  0  0  0  0  0  0  0  0
   -6.0717   37.3616  -40.8288 H   0  0  0  0  0  0  0  0  0  0  0  0
   -8.2414   37.2855  -42.0677 H   0  0  0  0  0  0  0  0  0  0  0  0
   -7.5424   36.1443  -43.2228 H   0  0  0  0  0  0  0  0  0  0  0  0
   -5.7956   37.8274  -43.8286 H   0  0  0  0  0  0  0  0  0  0  0  0
   -6.4947   38.9686  -42.6735 H   0  0  0  0  0  0  0  0  0  0  0  0
   -8.6659   38.8907  -43.9118 H   0  0  0  0  0  0  0  0  0  0  0  0
   -7.9653   37.7513  -45.0676 H   0  0  0  0  0  0  0  0  0  0  0  0
   -6.2199   39.4367  -45.6712 H   0  0  0  0  0  0  0  0  0  0  0  0
   -6.9206   40.5761  -44.5153 H   0  0  0  0  0  0  0  0  0  0  0  0
   -9.0912   40.4973  -45.7545 H   0  0  0  0  0  0  0  0  0  0  0  0
   -8.3890   39.3596  -46.9111 H   0  0  0  0  0  0  0  0  0  0  0  0
   -6.6450   41.0472  -47.5123 H   0  0  0  0  0  0  0  0  0  0  0  0
   -7.3473   42.1849  -46.3558 H   0  0  0  0  0  0  0  0  0  0  0  0
   -9.5163   42.1078  -47.5957 H   0  0  0  0  0  0  0  0  0  0  0  0
   -8.8157   40.9684  -48.7516 H   0  0  0  0  0  0  0  0  0  0  0  0
   -7.0711   42.6533  -49.3562 H   0  0  0  0  0  0  0  0  0  0  0  0
   -7.7697   43.7927  -48.1990 H   0  0  0  0  0  0  0  0  0  0  0  0
   -9.9417   43.7161  -49.4360 H   0  0  0  0  0  0  0  0  0  0  0  0
   -9.2415   42.5785  -50.5939 H   0  0  0  0  0  0  0  0  0  0  0  0
   -7.4963   44.2656  -51.1950 H   0  0  0  0  0  0  0  0  0  0  0  0
   -8.1985   45.4033  -50.0383 H   0  0  0  0  0  0  0  0  0  0  0  0
  -10.3685   45.3235  -51.2786 H   0  0  0  0  0  0  0  0  0  0  0  0
   -9.6647   44.1875  -52.4358 H   0  0  0  0  0  0  0  0  0  0  0  0
   -7.9214   45.8779  -53.0336 H   0  0  0  0  0  0  0  0  0  0  0  0
   -8.6273   47.0139  -51.8777 H   0  0  0  0  0  0  0  0  0  0  0  0
  -10.7943   46.9336  -53.1208 H   0  0  0  0  0  0  0  0  0  0  0  0
  -10.0901   45.7959  -54.2762 H   0  0  0  0  0  0  0  0  0  0  0  0
   -8.3475   47.4840  -54.8775 H   0  0  0  0  0  0  0  0  0  0  0  0
   -9.0497   48.6217  -53.7209 H   0  0  0  0  0  0  0  0  0  0  0  0
  -11.2197   48.5419  -54.9611 H   0  0  0  0  0  0  0  0  0  0  0  0
  -10.5159   47.4059  -56.1185 H   0  0  0  0  0  0  0  0  0  0  0  0
   -8.7734   49.0959  -56.7174 H   0  0  0  0  0  0  0  0  0  0  0  0
   -9.4772   50.2318  -55.5600 H   0  0  0  0  0  0  0  0  0  0  0  0
  -11.6466   50.1511  -56.8012 H   0  0  0  0  0  0  0  0  0  0  0  0
  -10.9412   49.0169  -57.9593 H   0  0  0  0  0  0  0  0  0  0  0  0
   -9.2008   50.7085  -58.5571 H   0  0  0  0  0  0  0  0  0  0  0  0
   -9.9041   51.8427  -57.3977 H   0  0  0  0  0  0  0  0  0  0  0  0
  -12.0734   51.7659  -58.6372 H   0  0  0  0  0  0  0  0  0  0  0  0
  -11.3717   50.6301  -59.7960 H   0  0  0  0  0  0  0  0  0  0  0  0
   -9.6293   52.3186  -60.3970 H   0  0  0  0  0  0  0  0  0  0  0  0
  -10.3289   53.4543  -59.2370 H   0  0  0  0  0  0  0  0  0  0  0  0
  -12.5001   53.3808  -60.4733 H   0  0  0  0  0  0  0  0  0  0  0  0
  -11.8021   52.2433  -61.6327 H   0  0  0  0  0  0  0  0  0  0  0  0
  -10.0570   53.9290  -62.2358 H   0  0  0  0  0  0  0  0  0  0  0  0
  -10.7550   55.0665  -61.0765 H   0  0  0  0  0  0  0  0  0  0  0  0
  -12.9279   54.9913  -62.3121 H   0  0  0  0  0  0  0  0  0  0  0  0
  -12.2282   53.8555  -63.4721 H   0  0  0  0  0  0  0  0  0  0  0  0
  -10.4837   55.5439  -64.0719 H   0  0  0  0  0  0  0  0  0  0  0  0
  -11.1854   56.6797  -62.9132 H   0  0  0  0  0  0  0  0  0  0  0  0
  -13.3556   56.6030  -64.1522 H   0  0  0  0  0  0  0  0  0  0  0  0
  -12.6539   55.4672  -65.3109 H   0  0  0  0  0  0  0  0  0  0  0  0
  -10.9105   57.1563  -65.9110 H   0  0  0  0  0  0  0  0  0  0  0  0
  -11.6122   58.2923  -64.7522 H   0  0  0  0  0  0  0  0  0  0  0  0
  -13.7815   58.2170  -65.9917 H   0  0  0  0  0  0  0  0  0  0  0  0
  -13.0817   57.0800  -67.1491 H   0  0  0  0  0  0  0  0  0  0  0  0
  -11.3432   58.7739  -67.7629 H   0  0  0  0  0  0  0  0  0  0  0  0
  -12.0434   59.9116  -66.6048 H   0  0  0  0  0  0  0  0  0  0  0  0
  -13.5054   58.7086  -69.0113 H   0  0  0  0  0  0  0  0  0  0  0  0
  -12.8703   60.3629  -68.8977 H   0  0  0  0  0  0  0  0  0  0  0  0
  -14.2083   59.8507  -67.8487 H   0  0  0  0  0  0  0  0  0  0  0  0
  1  2  1  0  0  0  0
  1 80  1  0  0  0  0
  1 81  1  0  0  0  0
  1 82  1  0  0  0  0
  2  3  1  0  0  0  0
  2  6  1  0  0  0  0
  2 83  1  0  0  0  0
  3  4  2  0  0  0  0
  3 84  1  0  0  0  0
  4  5  1  0  0  0  0
  4 85  1  0  0  0  0
  5  6  1  0  0  0  0
  5 86  1  0  0  0  0
  5 87  1  0  0  0  0
  6  7  1  0  0  0  0
  7  8  1  0  0  0  0
  7 88  1  0  0  0  0
  7 89  1  0  0  0  0
  8  9  1  0  0  0  0
  8 90  1  0  0  0  0
  8 91  1  0  0  0  0
  9 10  1  0  0  0  0
  9 92  1  0  0  0  0
  9 93  1  0  0  0  0
 10 11  1  0  0  0  0
 10 94  1  0  0  0  0
 10 95  1  0  0  0  0
 11 12  1  0  0  0  0
 11 96  1  0  0  0  0
 11 97  1  0  0  0  0
 12 13  1  0  0  0  0
 12 98  1  0  0  0  0
 12 99  1  0  0  0  0
 13 14  1  0  0  0  0
 13100  1  0  0  0  0
 13101  1  0  0  0  0
 14 15  1  0  0  0  0
 14102  1  0  0  0  0
 14103  1  0  0  0  0
 15 16  1  0  0  0  0
 15104  1  0  0  0  0
 15105  1  0  0  0  0
 16 17  1  0  0  0  0
 16106  1  0  0  0  0
 16107  1  0  0  0  0
 17 18  1  0  0  0  0
 17108  1  0  0  0  0
 17109  1  0  0  0  0
 18 19  1  0  0  0  0
 18110  1  0  0  0  0
 18111  1  0  0  0  0
 19 20  1  0  0  0  0
 19112  1  0  0  0  0
 19113  1  0  0  0  0
 20 21  1  0  0  0  0
 20114  1  0  0  0  0
 20115  1  0  0  0  0
 21 22  1  0  0  0  0
 21116  1  0  0  0  0
 21117  1  0  0  0  0
 22 23  1  0  0  0  0
 22118  1  0  0  0  0
 22119  1  0  0  0  0
 23 24  1  0  0  0  0
 23120  1  0  0  0  0
 23121  1  0  0  0  0
 24 25  1  0  0  0  0
 24122  1  0  0  0  0
 24123  1  0  0  0  0
 25 26  1  0  0  0  0
 25124  1  0  0  0  0
 25125  1  0  0  0  0
 26 27  1  0  0  0  0
 26126  1  0  0  0  0
 26127  1  0  0  0  0
 27 28  1  0  0  0  0
 27128  1  0  0  0  0
 27129  1  0  0  0  0
 28 29  1  0  0  0  0
 28130  1  0  0  0  0
 28131  1  0  0  0  0
 29 30  1  0  0  0  0
 29132  1  0  0  0  0
 29133  1  0  0  0  0
 30 31  1  0  0  0  0
 30134  1  0  0  0  0
 30135  1  0  0  0  0
 31 32  1  0  0  0  0
 31136  1  0  0  0  0
 31137  1  0  0  0  0
 32 33  1  0  0  0  0
 32138  1  0  0  0  0
 32139  1  0  0  0  0
 33 34  1  0  0  0  0
 33140  1  0  0  0  0
 33141  1  0  0  0  0
 34 35  1  0  0  0  0
 34142  1  0  0  0  0
 34143  1  0  0  0  0
 35 36  1  0  0  0  0
 35144  1  0  0  0  0
 35145  1  0  0  0  0
 36 37  1  0  0  0  0
 36146  1  0  0  0  0
 36147  1  0  0  0  0
 37 38  1  0  0  0  0
 37148  1  0  0  0  0
 37149  1  0  0  0  0
 38 39  1  0  0  0  0
 38150  1  0  0  0  0
 38151  1  0  0  0  0
 39 40  1  0  0  0  0
 39152  1  0  0  0  0
 39153  1  0  0  0  0
 40 41  1  0  0  0  0
 40154  1  0  0  0  0
 40155  1  0  0  0  0
 41 42  1  0  0  0  0
 41156  1  0  0  0  0
 41157  1  0  0  0  0
 42 43  1  0  0  0  0
 42158  1  0  0  0  0
 42159  1  0  0  0  0
 43 44  1  0  0  0  0
 43160  1  0  0  0  0
 43161  1  0  0  0  0
 44 45  1  0  0  0  0
 44162  1  0  0  0  0
 44163  1  0  0  0  0
 45 46  1  0  0  0  0
 45164  1  0  0  0  0
 45165  1  0  0  0  0
 46 47  1  0  0  0  0
 46166  1  0  0  0  0
 46167  1  0  0  0  0
 47 48  1  0  0  0  0
 47168  1  0  0  0  0
 47169  1  0  0  0  0
 48 49  1  0  0  0  0
 48170  1  0  0  0  0
 48171  1  0  0  0  0
 49 50  1  0  0  0  0
 49172  1  0  0  0  0
 49173  1  0  0  0  0
 50 51  1  0  0  0  0
 50174  1  0  0  0  0
 50175  1  0  0  0  0
 51 52  1  0  0  0  0
 51176  1  0  0  0  0
 51177  1  0  0  0  0
 52 53  1  0  0  0  0
 52178  1  0  0  0  0
 52179  1  0  0  0  0
 53 54  1  0  0  0  0
 53180  1  0  0  0  0
 53181  1  0  0  0  0
 54 55  1  0  0  0  0
 54182  1  0  0  0  0
 54183  1  0  0  0  0
 55 56  1  0  0  0  0
 55184  1  0  0  0  0
 55185  1  0  0  0  0
 56 57  1  0  0  0  0
 56186  1  0  0  0  0
 56187  1  0  0  0  0
 57 58  1  0  0  0  0
 57188  1  0  0  0  0
 57189  1  0  0  0  0
 58 59  1  0  0  0  0
 58190  1  0  0  0  0
 58191  1  0  0  0  0
 59 60  1  0  0  0  0
 59192  1  0  0  0  0
 59193  1  0  0  0  0
 60 61  1  0  0  0  0
 60194  1  0  0  0  0
 60195  1  0  0  0  0
 61 62  1  0  0  0  0
 61196  1  0  0  0  0
 61197  1  0  0  0  0
 62 63  1  0  0  0  0
 62198  1  0  0  0  0
 62199  1  0  0  0  0
 63 64  1  0  0  0  0
 63200  1  0  0  0  0
 63201  1  0  0  0  0
 64 65  1  0  0  0  0
 64202  1  0  0  0  0
 64203  1  0  0  0  0
 65 66  1  0  0  0  0
 65204  1  0  0  0  0
 65205  1  0  0  0  0
 66 67  1  0  0  0  0
 66206  1  0  0  0  0
 66207  1  0  0  0  0
 67 68  1  0  0  0  0
 67208  1  0  0  0  0
 67209  1  0  0  0  0
 68 69  1  0  0  0  0
 68210  1  0  0  0  0
 68211  1  0  0  0  0
 69 70  1  0  0  0  0
 69212  1  0  0  0  0
 69213  1  0  0  0  0
 70 71  1  0  0  0  0
 70214  1  0  0  0  0
 70215  1  0  0  0  0
 71 72  1  0  0  0  0
 71216  1  0  0  0  0
 71217  1  0  0  0  0
 72 73  1  0  0  0  0
 72218  1  0  0  0  0
 72219  1  0  0  0  0
 73 74  1  0  0  0  0
 73220  1  0  0  0  0
 73221  1  0  0  0  0
 74 75  1  0  0  0  0
 74222  1  0  0  0  0
 74223  1  0  0  0  0
 75 76  1  0  0  0  0
 75224  1  0  0  0  0
 75225  1  0  0  0  0
 76 77  1  0  0  0  0
 76226  1  0  0  0  0
 76227  1  0  0  0  0
 77 78  1  0  0  0  0
 77228  1  0  0  0  0
 77229  1  0  0  0  0
 78 79  1  0  0  0  0
 78230  1  0  0  0  0
 78231  1  0  0  0  0
 79232  1  0  0  0  0
 79233  1  0  0  0  0
 79234  1  0  0  0  0
M  END
$$$$
