
 OpenBabel04232216483D

 47 48  0  0  0  0  0  0  0  0999 V2000
    4.8287    0.8321   -1.5062 C   0  0  0  0  0  0  0  0  0  0  0  0
    5.4009   -0.3049   -2.3524 C   0  0  0  0  0  0  0  0  0  0  0  0
    4.3490   -1.3510   -2.3736 C   0  0  0  0  0  0  0  0  0  0  0  0
    4.2633   -2.1858   -1.2977 C   0  0  0  0  0  0  0  0  0  0  0  0
    5.3286   -3.2393   -1.3060 C   0  0  0  0  0  0  0  0  0  0  0  0
    5.8313   -3.8966   -2.3442 N   0  0  0  0  0  0  0  0  0  0  0  0
    5.1627   -3.6540   -3.6659 C   0  0  0  0  0  0  0  0  0  0  0  0
    5.1182   -4.6922   -4.7668 C   0  0  0  0  0  0  0  0  0  0  0  0
    4.1433   -5.8287   -4.4758 C   0  0  0  0  0  0  0  0  0  0  0  0
    3.7277   -6.5266   -5.7595 C   0  0  0  0  0  0  0  0  0  0  0  0
    3.0025   -5.6609   -6.5208 F   0  0  0  0  0  0  0  0  0  0  0  0
    6.5211   -3.1712   -0.6538 C   0  0  0  0  0  0  0  0  0  0  0  0
    6.9888   -2.0857    0.3400 C   0  0  0  0  0  0  0  0  0  0  0  0
    7.0457   -3.5044   -1.9810 C   0  0  0  0  0  0  0  0  0  0  0  0
    8.1395   -2.9820   -2.5245 C   0  0  0  0  0  0  0  0  0  0  0  0
    9.4036   -2.5476   -1.8365 C   0  0  0  0  0  0  0  0  0  0  0  0
    7.9219   -2.3270   -3.8028 C   0  0  0  0  0  0  0  0  0  0  0  0
    8.5334   -3.1195   -4.9386 C   0  0  0  0  0  0  0  0  0  0  0  0
    7.5575   -1.0142   -3.8196 C   0  0  0  0  0  0  0  0  0  0  0  0
    8.6303   -0.1567   -4.4997 C   0  0  0  0  0  0  0  0  0  0  0  0
    6.6612   -0.2224   -2.8921 C   0  0  0  0  0  0  0  0  0  0  0  0
    3.7408    0.9258   -1.6508 H   0  0  0  0  0  0  0  0  0  0  0  0
    5.2497    1.8089   -1.7448 H   0  0  0  0  0  0  0  0  0  0  0  0
    4.9779    0.6161   -0.4401 H   0  0  0  0  0  0  0  0  0  0  0  0
    3.4006   -0.9241   -2.7024 H   0  0  0  0  0  0  0  0  0  0  0  0
    4.0279   -1.7766   -0.3183 H   0  0  0  0  0  0  0  0  0  0  0  0
    5.5265   -2.7339   -4.1243 H   0  0  0  0  0  0  0  0  0  0  0  0
    4.0942   -3.4788   -3.4802 H   0  0  0  0  0  0  0  0  0  0  0  0
    6.1007   -5.0681   -5.0560 H   0  0  0  0  0  0  0  0  0  0  0  0
    4.7273   -4.1502   -5.6459 H   0  0  0  0  0  0  0  0  0  0  0  0
    3.2369   -5.4345   -3.9990 H   0  0  0  0  0  0  0  0  0  0  0  0
    4.6078   -6.5369   -3.7858 H   0  0  0  0  0  0  0  0  0  0  0  0
    3.0913   -7.3878   -5.5434 H   0  0  0  0  0  0  0  0  0  0  0  0
    4.5892   -6.8514   -6.3486 H   0  0  0  0  0  0  0  0  0  0  0  0
    6.1784   -1.6897    0.9539 H   0  0  0  0  0  0  0  0  0  0  0  0
    7.3915   -1.2356   -0.2312 H   0  0  0  0  0  0  0  0  0  0  0  0
    7.8133   -2.4405    0.9593 H   0  0  0  0  0  0  0  0  0  0  0  0
    9.2874   -2.3216   -0.7765 H   0  0  0  0  0  0  0  0  0  0  0  0
    9.8396   -1.6502   -2.2931 H   0  0  0  0  0  0  0  0  0  0  0  0
   10.1557   -3.3380   -1.9174 H   0  0  0  0  0  0  0  0  0  0  0  0
    7.7528   -3.7357   -5.3953 H   0  0  0  0  0  0  0  0  0  0  0  0
    9.3205   -3.8015   -4.5985 H   0  0  0  0  0  0  0  0  0  0  0  0
    8.9423   -2.4986   -5.7363 H   0  0  0  0  0  0  0  0  0  0  0  0
    8.9190    0.6972   -3.8736 H   0  0  0  0  0  0  0  0  0  0  0  0
    8.3349    0.1839   -5.4912 H   0  0  0  0  0  0  0  0  0  0  0  0
    9.5780   -0.7135   -4.6010 H   0  0  0  0  0  0  0  0  0  0  0  0
    7.1491    0.7240   -2.6447 H   0  0  0  0  0  0  0  0  0  0  0  0
  1  2  1  0  0  0  0
  1 22  1  0  0  0  0
  1 23  1  0  0  0  0
  1 24  1  0  0  0  0
  2  3  1  0  0  0  0
  2 21  2  0  0  0  0
  3  4  2  0  0  0  0
  3 25  1  0  0  0  0
  4  5  1  0  0  0  0
  4 26  1  0  0  0  0
  5  6  1  0  0  0  0
  5 12  2  0  0  0  0
  6  7  1  0  0  0  0
  6 14  1  0  0  0  0
  7  8  1  0  0  0  0
  7 27  1  0  0  0  0
  7 28  1  0  0  0  0
  8  9  1  0  0  0  0
  8 29  1  0  0  0  0
  8 30  1  0  0  0  0
  9 10  1  0  0  0  0
  9 31  1  0  0  0  0
  9 32  1  0  0  0  0
 10 11  1  0  0  0  0
 10 33  1  0  0  0  0
 10 34  1  0  0  0  0
 12 13  1  0  0  0  0
 12 14  1  0  0  0  0
 13 35  1  0  0  0  0
 13 36  1  0  0  0  0
 13 37  1  0  0  0  0
 14 15  2  0  0  0  0
 15 16  1  0  0  0  0
 15 17  1  0  0  0  0
 16 38  1  0  0  0  0
 16 39  1  0  0  0  0
 16 40  1  0  0  0  0
 17 18  1  0  0  0  0
 17 19  2  0  0  0  0
 18 41  1  0  0  0  0
 18 42  1  0  0  0  0
 18 43  1  0  0  0  0
 19 20  1  0  0  0  0
 19 21  1  0  0  0  0
 20 44  1  0  0  0  0
 20 45  1  0  0  0  0
 20 46  1  0  0  0  0
 21 47  1  0  0  0  0
M  END
$$$$
