
 OpenBabel04232216513D

230229  0  0  1  0  0  0  0  0999 V2000
    6.9570   -3.8207    1.9280 C   0  0  0  0  0  0  0  0  0  0  0  0
    6.4970   -2.5073    1.3136 C   0  0  0  0  0  0  0  0  0  0  0  0
    6.9377   -1.2761    2.1128 C   0  0  3  0  0  0  0  0  0  0  0  0
    8.7734   -1.1761    2.2334 S   0  0  0  0  0  0  0  0  0  0  0  0
    6.3750   -0.0894    1.4484 N   0  0  0  0  0  0  0  0  0  0  0  0
    6.7466    1.0715    2.2044 N   0  0  0  0  0  0  0  0  0  0  0  0
    6.2588    2.2937    1.5934 O   0  0  0  0  0  0  0  0  0  0  0  0
    6.6791    3.4337    2.3931 N   0  0  0  0  0  0  0  0  0  0  0  0
    8.1338    3.4323    2.3615 O   0  0  0  0  0  0  0  0  0  0  0  0
    8.5804    4.5040    3.1607 C   0  0  0  0  0  0  0  0  0  0  0  0
   10.0924    4.4713    3.1540 C   0  0  0  0  0  0  0  0  0  0  0  0
   10.6175    5.6273    3.9757 C   0  0  0  0  0  0  0  0  0  0  0  0
   12.1297    5.6217    3.9758 C   0  0  0  0  0  0  0  0  0  0  0  0
   12.6387    6.7882    4.8015 C   0  0  0  0  0  0  0  0  0  0  0  0
   14.1502    6.7831    4.8059 C   0  0  0  0  0  0  0  0  0  0  0  0
   14.6567    7.9550    5.6296 C   0  0  0  0  0  0  0  0  0  0  0  0
   16.1723    7.9555    5.6349 C   0  0  0  0  0  0  0  0  0  0  0  0
   16.6813    9.1240    6.4552 C   0  0  0  0  0  0  0  0  0  0  0  0
   18.1974    9.1217    6.4614 C   0  0  0  0  0  0  0  0  0  0  0  0
   18.7091   10.2908    7.2795 C   0  0  0  0  0  0  0  0  0  0  0  0
   20.2255   10.2898    7.2842 C   0  0  0  0  0  0  0  0  0  0  0  0
   20.7349   11.4587    8.1045 C   0  0  0  0  0  0  0  0  0  0  0  0
   22.2512   11.4623    8.1101 C   0  0  0  0  0  0  0  0  0  0  0  0
   22.7587   12.6310    8.9326 C   0  0  0  0  0  0  0  0  0  0  0  0
   24.2751   12.6335    8.9396 C   0  0  0  0  0  0  0  0  0  0  0  0
   24.7843   13.8015    9.7619 C   0  0  0  0  0  0  0  0  0  0  0  0
   26.3009   13.8037    9.7665 C   0  0  0  0  0  0  0  0  0  0  0  0
   26.8110   14.9716   10.5885 C   0  0  0  0  0  0  0  0  0  0  0  0
   28.3275   14.9741   10.5929 C   0  0  0  0  0  0  0  0  0  0  0  0
   28.8375   16.1419   11.4153 C   0  0  0  0  0  0  0  0  0  0  0  0
   30.3543   16.1448   11.4196 C   0  0  0  0  0  0  0  0  0  0  0  0
   30.8640   17.3111   12.2436 C   0  0  0  0  0  0  0  0  0  0  0  0
   32.3809   17.3138   12.2483 C   0  0  0  0  0  0  0  0  0  0  0  0
   32.8904   18.4802   13.0721 C   0  0  0  0  0  0  0  0  0  0  0  0
   34.4072   18.4833   13.0768 C   0  0  0  0  0  0  0  0  0  0  0  0
   34.9170   19.6493   13.9008 C   0  0  0  0  0  0  0  0  0  0  0  0
   36.4339   19.6516   13.9068 C   0  0  0  0  0  0  0  0  0  0  0  0
   36.9440   20.8191   14.7294 C   0  0  0  0  0  0  0  0  0  0  0  0
   38.4604   20.8219   14.7335 C   0  0  0  0  0  0  0  0  0  0  0  0
   38.9707   21.9877   15.5584 C   0  0  0  0  0  0  0  0  0  0  0  0
   40.4873   21.9922   15.5603 C   0  0  0  0  0  0  0  0  0  0  0  0
   40.9972   23.1592   16.3835 C   0  0  0  0  0  0  0  0  0  0  0  0
   42.5140   23.1637   16.3849 C   0  0  0  0  0  0  0  0  0  0  0  0
   43.0237   24.3313   17.2094 C   0  0  0  0  0  0  0  0  0  0  0  0
   44.5401   24.3355   17.2085 C   0  0  0  0  0  0  0  0  0  0  0  0
   45.0492   25.5026   18.0341 C   0  0  0  0  0  0  0  0  0  0  0  0
   46.5663   25.5077   18.0349 C   0  0  0  0  0  0  0  0  0  0  0  0
   47.0773   26.6759   18.8567 C   0  0  0  0  0  0  0  0  0  0  0  0
   48.5939   26.6790   18.8607 C   0  0  0  0  0  0  0  0  0  0  0  0
   49.1038   27.8486   19.6805 C   0  0  0  0  0  0  0  0  0  0  0  0
   50.6203   27.8532   19.6826 C   0  0  0  0  0  0  0  0  0  0  0  0
   51.1300   29.0229   20.5021 C   0  0  0  0  0  0  0  0  0  0  0  0
   52.6474   29.0278   20.5027 C   0  0  0  0  0  0  0  0  0  0  0  0
   53.1572   30.1988   21.3209 C   0  0  0  0  0  0  0  0  0  0  0  0
   54.6739   30.2052   21.3205 C   0  0  0  0  0  0  0  0  0  0  0  0
   55.1841   31.3752   22.1397 C   0  0  0  0  0  0  0  0  0  0  0  0
   56.7007   31.3816   22.1391 C   0  0  0  0  0  0  0  0  0  0  0  0
   57.2107   32.5506   22.9598 C   0  0  0  0  0  0  0  0  0  0  0  0
   58.7273   32.5565   22.9593 C   0  0  0  0  0  0  0  0  0  0  0  0
   59.2375   33.7256   23.7801 C   0  0  0  0  0  0  0  0  0  0  0  0
   60.7543   33.7309   23.7799 C   0  0  0  0  0  0  0  0  0  0  0  0
   61.2646   34.9006   24.6000 C   0  0  0  0  0  0  0  0  0  0  0  0
   62.7813   34.9057   24.6017 C   0  0  0  0  0  0  0  0  0  0  0  0
   63.2911   36.0767   25.4199 C   0  0  0  0  0  0  0  0  0  0  0  0
   64.8079   36.0822   25.4210 C   0  0  0  0  0  0  0  0  0  0  0  0
   65.3182   37.2516   26.2411 C   0  0  0  0  0  0  0  0  0  0  0  0
   66.8352   37.2583   26.2413 C   0  0  0  0  0  0  0  0  0  0  0  0
   67.3455   38.4272   27.0631 C   0  0  0  0  0  0  0  0  0  0  0  0
   68.8626   38.4332   27.0649 C   0  0  0  0  0  0  0  0  0  0  0  0
   69.3744   39.6020   27.8862 C   0  0  0  0  0  0  0  0  0  0  0  0
   70.8920   39.6064   27.8904 C   0  0  0  0  0  0  0  0  0  0  0  0
   71.4049   40.7777   28.7083 C   0  0  0  0  0  0  0  0  0  0  0  0
   72.9236   40.7855   28.7107 C   0  0  0  0  0  0  0  0  0  0  0  0
   73.4366   41.9560   29.5322 C   0  0  0  0  0  0  0  0  0  0  0  0
   74.9561   41.9669   29.5354 C   0  0  0  0  0  0  0  0  0  0  0  0
   75.4746   43.1389   30.3574 C   0  0  0  0  0  0  0  0  0  0  0  0
   76.9960   43.1492   30.3613 C   0  0  0  0  0  0  0  0  0  0  0  0
   77.5291   44.3195   31.1820 C   0  0  0  0  0  0  0  0  0  0  0  0
   79.0458   44.3266   31.1850 C   0  0  0  0  0  0  0  0  0  0  0  0
    6.5706   -4.6617    1.3458 H   0  0  0  0  0  0  0  0  0  0  0  0
    6.5920   -3.9144    2.9555 H   0  0  0  0  0  0  0  0  0  0  0  0
    8.0472   -3.9045    1.9399 H   0  0  0  0  0  0  0  0  0  0  0  0
    5.3999   -2.5256    1.2607 H   0  0  0  0  0  0  0  0  0  0  0  0
    6.8540   -2.4416    0.2774 H   0  0  0  0  0  0  0  0  0  0  0  0
    6.5419   -1.3491    3.1345 H   0  0  0  0  0  0  0  0  0  0  0  0
    9.0062   -1.0635    0.9188 H   0  0  0  0  0  0  0  0  0  0  0  0
    5.3606   -0.1544    1.4574 H   0  0  0  0  0  0  0  0  0  0  0  0
    7.7574    1.2045    2.0845 H   0  0  0  0  0  0  0  0  0  0  0  0
    6.5103    3.0584    3.3271 H   0  0  0  0  0  0  0  0  0  0  0  0
    8.2091    4.3959    4.1879 H   0  0  0  0  0  0  0  0  0  0  0  0
    8.2156    5.4472    2.7388 H   0  0  0  0  0  0  0  0  0  0  0  0
   10.4622    4.5260    2.1219 H   0  0  0  0  0  0  0  0  0  0  0  0
   10.4496    3.5132    3.5537 H   0  0  0  0  0  0  0  0  0  0  0  0
   10.2432    5.5546    5.0048 H   0  0  0  0  0  0  0  0  0  0  0  0
   10.2476    6.5743    3.5632 H   0  0  0  0  0  0  0  0  0  0  0  0
   12.5089    5.6932    2.9491 H   0  0  0  0  0  0  0  0  0  0  0  0
   12.5043    4.6739    4.3974 H   0  0  0  0  0  0  0  0  0  0  0  0
   12.2570    6.7159    5.8273 H   0  0  0  0  0  0  0  0  0  0  0  0
   12.2638    7.7313    4.3819 H   0  0  0  0  0  0  0  0  0  0  0  0
   14.5299    6.8594    3.7800 H   0  0  0  0  0  0  0  0  0  0  0  0
   14.5235    5.8441    5.2250 H   0  0  0  0  0  0  0  0  0  0  0  0
   14.2780    7.8819    6.6564 H   0  0  0  0  0  0  0  0  0  0  0  0
   14.2828    8.8978    5.2115 H   0  0  0  0  0  0  0  0  0  0  0  0
   16.5502    8.0262    4.6074 H   0  0  0  0  0  0  0  0  0  0  0  0
   16.5452    7.0126    6.0538 H   0  0  0  0  0  0  0  0  0  0  0  0
   16.3018    9.0542    7.4822 H   0  0  0  0  0  0  0  0  0  0  0  0
   16.3092   10.0666    6.0350 H   0  0  0  0  0  0  0  0  0  0  0  0
   18.5755    9.1895    5.4338 H   0  0  0  0  0  0  0  0  0  0  0  0
   18.5682    8.1790    6.8823 H   0  0  0  0  0  0  0  0  0  0  0  0
   18.3312   10.2218    8.3077 H   0  0  0  0  0  0  0  0  0  0  0  0
   18.3369   11.2329    6.8594 H   0  0  0  0  0  0  0  0  0  0  0  0
   20.6032   10.3599    6.2566 H   0  0  0  0  0  0  0  0  0  0  0  0
   20.5982    9.3470    7.7034 H   0  0  0  0  0  0  0  0  0  0  0  0
   20.3572   11.3870    9.1320 H   0  0  0  0  0  0  0  0  0  0  0  0
   20.3602   12.4009    7.6859 H   0  0  0  0  0  0  0  0  0  0  0  0
   22.6290   11.5355    7.0828 H   0  0  0  0  0  0  0  0  0  0  0  0
   22.6262   10.5197    8.5277 H   0  0  0  0  0  0  0  0  0  0  0  0
   22.3797   12.5587    9.9595 H   0  0  0  0  0  0  0  0  0  0  0  0
   22.3846   13.5736    8.5143 H   0  0  0  0  0  0  0  0  0  0  0  0
   24.6536   12.7057    7.9125 H   0  0  0  0  0  0  0  0  0  0  0  0
   24.6486   11.6906    9.3576 H   0  0  0  0  0  0  0  0  0  0  0  0
   24.4070   13.7285   10.7894 H   0  0  0  0  0  0  0  0  0  0  0  0
   24.4099   14.7444    9.3447 H   0  0  0  0  0  0  0  0  0  0  0  0
   26.6780   13.8765    8.7389 H   0  0  0  0  0  0  0  0  0  0  0  0
   26.6752   12.8607   10.1836 H   0  0  0  0  0  0  0  0  0  0  0  0
   26.4339   14.8987   11.6161 H   0  0  0  0  0  0  0  0  0  0  0  0
   26.4365   15.9146   10.1714 H   0  0  0  0  0  0  0  0  0  0  0  0
   28.7046   15.0471    9.5653 H   0  0  0  0  0  0  0  0  0  0  0  0
   28.7020   14.0310   11.0098 H   0  0  0  0  0  0  0  0  0  0  0  0
   28.4603   16.0688   12.4428 H   0  0  0  0  0  0  0  0  0  0  0  0
   28.4630   17.0849   10.9983 H   0  0  0  0  0  0  0  0  0  0  0  0
   30.7312   16.2187   10.3924 H   0  0  0  0  0  0  0  0  0  0  0  0
   30.7287   15.2007   11.8357 H   0  0  0  0  0  0  0  0  0  0  0  0
   30.4872   17.2369   13.2710 H   0  0  0  0  0  0  0  0  0  0  0  0
   30.4892   18.2558   11.8267 H   0  0  0  0  0  0  0  0  0  0  0  0
   32.7580   17.3880   11.2208 H   0  0  0  0  0  0  0  0  0  0  0  0
   32.7553   16.3699   12.6641 H   0  0  0  0  0  0  0  0  0  0  0  0
   32.5136   18.4058   14.0996 H   0  0  0  0  0  0  0  0  0  0  0  0
   32.5160   19.4239   12.6565 H   0  0  0  0  0  0  0  0  0  0  0  0
   34.7845   18.5575   12.0492 H   0  0  0  0  0  0  0  0  0  0  0  0
   34.7817   17.5394   13.4923 H   0  0  0  0  0  0  0  0  0  0  0  0
   34.5393   19.5757   14.9282 H   0  0  0  0  0  0  0  0  0  0  0  0
   34.5436   20.5937   13.4846 H   0  0  0  0  0  0  0  0  0  0  0  0
   36.8119   19.7239   12.8794 H   0  0  0  0  0  0  0  0  0  0  0  0
   36.8074   18.7081   14.3241 H   0  0  0  0  0  0  0  0  0  0  0  0
   36.5669   20.7455   15.7569 H   0  0  0  0  0  0  0  0  0  0  0  0
   36.5691   21.7622   14.3128 H   0  0  0  0  0  0  0  0  0  0  0  0
   38.8371   20.8969   13.7059 H   0  0  0  0  0  0  0  0  0  0  0  0
   38.8353   19.8779   15.1483 H   0  0  0  0  0  0  0  0  0  0  0  0
   38.5951   21.9117   16.5863 H   0  0  0  0  0  0  0  0  0  0  0  0
   38.5943   22.9310   15.1443 H   0  0  0  0  0  0  0  0  0  0  0  0
   40.8624   22.0670   14.5321 H   0  0  0  0  0  0  0  0  0  0  0  0
   40.8633   21.0489   15.9754 H   0  0  0  0  0  0  0  0  0  0  0  0
   40.6225   23.0848   17.4113 H   0  0  0  0  0  0  0  0  0  0  0  0
   40.6214   24.1024   15.9683 H   0  0  0  0  0  0  0  0  0  0  0  0
   42.8898   23.2395   15.3569 H   0  0  0  0  0  0  0  0  0  0  0  0
   42.8921   22.2212   16.8003 H   0  0  0  0  0  0  0  0  0  0  0  0
   42.6498   24.2551   18.2369 H   0  0  0  0  0  0  0  0  0  0  0  0
   42.6461   25.2738   16.7959 H   0  0  0  0  0  0  0  0  0  0  0  0
   44.9144   24.4111   16.1810 H   0  0  0  0  0  0  0  0  0  0  0  0
   44.9163   23.3926   17.6228 H   0  0  0  0  0  0  0  0  0  0  0  0
   44.6742   25.4249   19.0618 H   0  0  0  0  0  0  0  0  0  0  0  0
   44.6709   26.4465   17.6203 H   0  0  0  0  0  0  0  0  0  0  0  0
   46.9402   25.5814   17.0059 H   0  0  0  0  0  0  0  0  0  0  0  0
   46.9424   24.5650   18.4499 H   0  0  0  0  0  0  0  0  0  0  0  0
   46.7007   26.6025   19.8843 H   0  0  0  0  0  0  0  0  0  0  0  0
   46.7025   27.6184   18.4399 H   0  0  0  0  0  0  0  0  0  0  0  0
   48.9707   26.7500   17.8327 H   0  0  0  0  0  0  0  0  0  0  0  0
   48.9691   25.7369   19.2795 H   0  0  0  0  0  0  0  0  0  0  0  0
   48.7284   27.7769   20.7088 H   0  0  0  0  0  0  0  0  0  0  0  0
   48.7285   28.7906   19.2640 H   0  0  0  0  0  0  0  0  0  0  0  0
   50.9959   27.9246   18.6544 H   0  0  0  0  0  0  0  0  0  0  0  0
   50.9961   26.9112   20.1001 H   0  0  0  0  0  0  0  0  0  0  0  0
   50.7563   28.9506   21.5311 H   0  0  0  0  0  0  0  0  0  0  0  0
   50.7535   29.9646   20.0852 H   0  0  0  0  0  0  0  0  0  0  0  0
   53.0202   29.0995   19.4741 H   0  0  0  0  0  0  0  0  0  0  0  0
   53.0241   28.0867   20.9215 H   0  0  0  0  0  0  0  0  0  0  0  0
   52.7838   30.1275   22.3500 H   0  0  0  0  0  0  0  0  0  0  0  0
   52.7794   31.1401   20.9033 H   0  0  0  0  0  0  0  0  0  0  0  0
   55.0473   30.2780   20.2914 H   0  0  0  0  0  0  0  0  0  0  0  0
   55.0522   29.2637   21.7373 H   0  0  0  0  0  0  0  0  0  0  0  0
   54.8107   31.3024   23.1686 H   0  0  0  0  0  0  0  0  0  0  0  0
   54.8060   32.3169   21.7228 H   0  0  0  0  0  0  0  0  0  0  0  0
   57.0740   31.4555   21.1101 H   0  0  0  0  0  0  0  0  0  0  0  0
   57.0786   30.4393   22.5546 H   0  0  0  0  0  0  0  0  0  0  0  0
   56.8373   32.4765   23.9886 H   0  0  0  0  0  0  0  0  0  0  0  0
   56.8327   33.4927   22.5442 H   0  0  0  0  0  0  0  0  0  0  0  0
   59.1007   32.6307   21.9306 H   0  0  0  0  0  0  0  0  0  0  0  0
   59.1055   31.6143   23.3750 H   0  0  0  0  0  0  0  0  0  0  0  0
   58.8639   33.6520   24.8084 H   0  0  0  0  0  0  0  0  0  0  0  0
   58.8604   34.6677   23.3638 H   0  0  0  0  0  0  0  0  0  0  0  0
   61.1285   33.8041   22.7513 H   0  0  0  0  0  0  0  0  0  0  0  0
   61.1322   32.7891   24.1966 H   0  0  0  0  0  0  0  0  0  0  0  0
   60.8896   34.8284   25.6284 H   0  0  0  0  0  0  0  0  0  0  0  0
   60.8878   35.8424   24.1824 H   0  0  0  0  0  0  0  0  0  0  0  0
   63.1563   34.9766   23.5733 H   0  0  0  0  0  0  0  0  0  0  0  0
   63.1581   33.9644   25.0205 H   0  0  0  0  0  0  0  0  0  0  0  0
   62.9163   36.0060   26.4485 H   0  0  0  0  0  0  0  0  0  0  0  0
   62.9142   37.0178   25.0010 H   0  0  0  0  0  0  0  0  0  0  0  0
   65.1820   36.1552   24.3920 H   0  0  0  0  0  0  0  0  0  0  0  0
   65.1853   35.1403   25.8373 H   0  0  0  0  0  0  0  0  0  0  0  0
   64.9444   37.1778   27.2698 H   0  0  0  0  0  0  0  0  0  0  0  0
   64.9401   38.1936   25.8251 H   0  0  0  0  0  0  0  0  0  0  0  0
   67.2090   37.3328   25.2127 H   0  0  0  0  0  0  0  0  0  0  0  0
   67.2132   36.3159   26.6565 H   0  0  0  0  0  0  0  0  0  0  0  0
   66.9705   38.3531   28.0913 H   0  0  0  0  0  0  0  0  0  0  0  0
   66.9678   39.3694   26.6471 H   0  0  0  0  0  0  0  0  0  0  0  0
   69.2370   38.5064   26.0362 H   0  0  0  0  0  0  0  0  0  0  0  0
   69.2392   37.4906   27.4810 H   0  0  0  0  0  0  0  0  0  0  0  0
   68.9982   39.5294   28.9142 H   0  0  0  0  0  0  0  0  0  0  0  0
   68.9986   40.5443   27.4688 H   0  0  0  0  0  0  0  0  0  0  0  0
   71.2669   39.6766   26.8618 H   0  0  0  0  0  0  0  0  0  0  0  0
   71.2676   38.6642   28.3086 H   0  0  0  0  0  0  0  0  0  0  0  0
   71.0297   40.7070   29.7365 H   0  0  0  0  0  0  0  0  0  0  0  0
   71.0276   41.7188   28.2891 H   0  0  0  0  0  0  0  0  0  0  0  0
   73.2971   40.8584   27.6821 H   0  0  0  0  0  0  0  0  0  0  0  0
   73.3000   39.8430   29.1266 H   0  0  0  0  0  0  0  0  0  0  0  0
   73.0609   41.8812   30.5601 H   0  0  0  0  0  0  0  0  0  0  0  0
   73.0568   42.8971   29.1154 H   0  0  0  0  0  0  0  0  0  0  0  0
   75.3285   42.0396   28.5061 H   0  0  0  0  0  0  0  0  0  0  0  0
   75.3327   41.0240   29.9503 H   0  0  0  0  0  0  0  0  0  0  0  0
   75.0978   43.0643   31.3847 H   0  0  0  0  0  0  0  0  0  0  0  0
   75.0948   44.0791   29.9399 H   0  0  0  0  0  0  0  0  0  0  0  0
   77.3664   43.2204   29.3311 H   0  0  0  0  0  0  0  0  0  0  0  0
   77.3708   42.2050   30.7766 H   0  0  0  0  0  0  0  0  0  0  0  0
   77.1606   44.2501   32.2118 H   0  0  0  0  0  0  0  0  0  0  0  0
   77.1592   45.2631   30.7660 H   0  0  0  0  0  0  0  0  0  0  0  0
   79.4389   43.4019   31.6198 H   0  0  0  0  0  0  0  0  0  0  0  0
   79.4194   45.1687   31.7742 H   0  0  0  0  0  0  0  0  0  0  0  0
   79.4369   44.4197   30.1665 H   0  0  0  0  0  0  0  0  0  0  0  0
  1  2  1  0  0  0  0
  1 80  1  0  0  0  0
  1 81  1  0  0  0  0
  1 82  1  0  0  0  0
  2  3  1  0  0  0  0
  2 83  1  0  0  0  0
  2 84  1  0  0  0  0
  3  4  1  0  0  0  0
  3  5  1  0  0  0  0
  3 85  1  0  0  0  0
  4 86  1  0  0  0  0
  5  6  1  0  0  0  0
  5 87  1  0  0  0  0
  6  7  1  0  0  0  0
  6 88  1  0  0  0  0
  7  8  1  0  0  0  0
  8  9  1  0  0  0  0
  8 89  1  0  0  0  0
  9 10  1  0  0  0  0
 10 11  1  0  0  0  0
 10 90  1  0  0  0  0
 10 91  1  0  0  0  0
 11 12  1  0  0  0  0
 11 92  1  0  0  0  0
 11 93  1  0  0  0  0
 12 13  1  0  0  0  0
 12 94  1  0  0  0  0
 12 95  1  0  0  0  0
 13 14  1  0  0  0  0
 13 96  1  0  0  0  0
 13 97  1  0  0  0  0
 14 15  1  0  0  0  0
 14 98  1  0  0  0  0
 14 99  1  0  0  0  0
 15 16  1  0  0  0  0
 15100  1  0  0  0  0
 15101  1  0  0  0  0
 16 17  1  0  0  0  0
 16102  1  0  0  0  0
 16103  1  0  0  0  0
 17 18  1  0  0  0  0
 17104  1  0  0  0  0
 17105  1  0  0  0  0
 18 19  1  0  0  0  0
 18106  1  0  0  0  0
 18107  1  0  0  0  0
 19 20  1  0  0  0  0
 19108  1  0  0  0  0
 19109  1  0  0  0  0
 20 21  1  0  0  0  0
 20110  1  0  0  0  0
 20111  1  0  0  0  0
 21 22  1  0  0  0  0
 21112  1  0  0  0  0
 21113  1  0  0  0  0
 22 23  1  0  0  0  0
 22114  1  0  0  0  0
 22115  1  0  0  0  0
 23 24  1  0  0  0  0
 23116  1  0  0  0  0
 23117  1  0  0  0  0
 24 25  1  0  0  0  0
 24118  1  0  0  0  0
 24119  1  0  0  0  0
 25 26  1  0  0  0  0
 25120  1  0  0  0  0
 25121  1  0  0  0  0
 26 27  1  0  0  0  0
 26122  1  0  0  0  0
 26123  1  0  0  0  0
 27 28  1  0  0  0  0
 27124  1  0  0  0  0
 27125  1  0  0  0  0
 28 29  1  0  0  0  0
 28126  1  0  0  0  0
 28127  1  0  0  0  0
 29 30  1  0  0  0  0
 29128  1  0  0  0  0
 29129  1  0  0  0  0
 30 31  1  0  0  0  0
 30130  1  0  0  0  0
 30131  1  0  0  0  0
 31 32  1  0  0  0  0
 31132  1  0  0  0  0
 31133  1  0  0  0  0
 32 33  1  0  0  0  0
 32134  1  0  0  0  0
 32135  1  0  0  0  0
 33 34  1  0  0  0  0
 33136  1  0  0  0  0
 33137  1  0  0  0  0
 34 35  1  0  0  0  0
 34138  1  0  0  0  0
 34139  1  0  0  0  0
 35 36  1  0  0  0  0
 35140  1  0  0  0  0
 35141  1  0  0  0  0
 36 37  1  0  0  0  0
 36142  1  0  0  0  0
 36143  1  0  0  0  0
 37 38  1  0  0  0  0
 37144  1  0  0  0  0
 37145  1  0  0  0  0
 38 39  1  0  0  0  0
 38146  1  0  0  0  0
 38147  1  0  0  0  0
 39 40  1  0  0  0  0
 39148  1  0  0  0  0
 39149  1  0  0  0  0
 40 41  1  0  0  0  0
 40150  1  0  0  0  0
 40151  1  0  0  0  0
 41 42  1  0  0  0  0
 41152  1  0  0  0  0
 41153  1  0  0  0  0
 42 43  1  0  0  0  0
 42154  1  0  0  0  0
 42155  1  0  0  0  0
 43 44  1  0  0  0  0
 43156  1  0  0  0  0
 43157  1  0  0  0  0
 44 45  1  0  0  0  0
 44158  1  0  0  0  0
 44159  1  0  0  0  0
 45 46  1  0  0  0  0
 45160  1  0  0  0  0
 45161  1  0  0  0  0
 46 47  1  0  0  0  0
 46162  1  0  0  0  0
 46163  1  0  0  0  0
 47 48  1  0  0  0  0
 47164  1  0  0  0  0
 47165  1  0  0  0  0
 48 49  1  0  0  0  0
 48166  1  0  0  0  0
 48167  1  0  0  0  0
 49 50  1  0  0  0  0
 49168  1  0  0  0  0
 49169  1  0  0  0  0
 50 51  1  0  0  0  0
 50170  1  0  0  0  0
 50171  1  0  0  0  0
 51 52  1  0  0  0  0
 51172  1  0  0  0  0
 51173  1  0  0  0  0
 52 53  1  0  0  0  0
 52174  1  0  0  0  0
 52175  1  0  0  0  0
 53 54  1  0  0  0  0
 53176  1  0  0  0  0
 53177  1  0  0  0  0
 54 55  1  0  0  0  0
 54178  1  0  0  0  0
 54179  1  0  0  0  0
 55 56  1  0  0  0  0
 55180  1  0  0  0  0
 55181  1  0  0  0  0
 56 57  1  0  0  0  0
 56182  1  0  0  0  0
 56183  1  0  0  0  0
 57 58  1  0  0  0  0
 57184  1  0  0  0  0
 57185  1  0  0  0  0
 58 59  1  0  0  0  0
 58186  1  0  0  0  0
 58187  1  0  0  0  0
 59 60  1  0  0  0  0
 59188  1  0  0  0  0
 59189  1  0  0  0  0
 60 61  1  0  0  0  0
 60190  1  0  0  0  0
 60191  1  0  0  0  0
 61 62  1  0  0  0  0
 61192  1  0  0  0  0
 61193  1  0  0  0  0
 62 63  1  0  0  0  0
 62194  1  0  0  0  0
 62195  1  0  0  0  0
 63 64  1  0  0  0  0
 63196  1  0  0  0  0
 63197  1  0  0  0  0
 64 65  1  0  0  0  0
 64198  1  0  0  0  0
 64199  1  0  0  0  0
 65 66  1  0  0  0  0
 65200  1  0  0  0  0
 65201  1  0  0  0  0
 66 67  1  0  0  0  0
 66202  1  0  0  0  0
 66203  1  0  0  0  0
 67 68  1  0  0  0  0
 67204  1  0  0  0  0
 67205  1  0  0  0  0
 68 69  1  0  0  0  0
 68206  1  0  0  0  0
 68207  1  0  0  0  0
 69 70  1  0  0  0  0
 69208  1  0  0  0  0
 69209  1  0  0  0  0
 70 71  1  0  0  0  0
 70210  1  0  0  0  0
 70211  1  0  0  0  0
 71 72  1  0  0  0  0
 71212  1  0  0  0  0
 71213  1  0  0  0  0
 72 73  1  0  0  0  0
 72214  1  0  0  0  0
 72215  1  0  0  0  0
 73 74  1  0  0  0  0
 73216  1  0  0  0  0
 73217  1  0  0  0  0
 74 75  1  0  0  0  0
 74218  1  0  0  0  0
 74219  1  0  0  0  0
 75 76  1  0  0  0  0
 75220  1  0  0  0  0
 75221  1  0  0  0  0
 76 77  1  0  0  0  0
 76222  1  0  0  0  0
 76223  1  0  0  0  0
 77 78  1  0  0  0  0
 77224  1  0  0  0  0
 77225  1  0  0  0  0
 78 79  1  0  0  0  0
 78226  1  0  0  0  0
 78227  1  0  0  0  0
 79228  1  0  0  0  0
 79229  1  0  0  0  0
 79230  1  0  0  0  0
M  END
$$$$
