
 OpenBabel04232217003D

 45 46  0  0  0  0  0  0  0  0999 V2000
    2.1788   -3.2226    0.1191 O   0  0  0  0  0  0  0  0  0  0  0  0
    3.3777   -2.6363    0.1666 C   0  0  0  0  0  0  0  0  0  0  0  0
    3.6450   -1.2797    0.0653 C   0  0  0  0  0  0  0  0  0  0  0  0
    5.0426   -1.0446    0.2150 C   0  0  0  0  0  0  0  0  0  0  0  0
    5.6700    0.3776    0.0144 C   0  0  0  0  0  0  0  0  0  0  0  0
    6.9087    1.0246    0.6955 C   0  0  0  0  0  0  0  0  0  0  0  0
    8.3554    0.6320    0.3380 C   0  0  0  0  0  0  0  0  0  0  0  0
    8.7895    0.6839   -1.1357 C   0  0  0  0  0  0  0  0  0  0  0  0
    9.0146    2.0820   -1.7347 C   0  0  0  0  0  0  0  0  0  0  0  0
    9.4217    1.9860   -3.2065 C   0  0  0  0  0  0  0  0  0  0  0  0
    5.5547   -2.3280    0.4607 C   0  0  0  0  0  0  0  0  0  0  0  0
    6.8104   -2.6131    0.7907 N   0  0  0  0  0  0  0  0  0  0  0  0
    7.4399   -3.0428   -0.2569 C   0  0  0  0  0  0  0  0  0  0  0  0
    8.7968   -3.5196    0.0296 C   0  0  0  0  0  0  0  0  0  0  0  0
    9.7594   -2.7946   -0.0337 O   0  0  0  0  0  0  0  0  0  0  0  0
    8.8251   -4.9572    0.4232 C   0  0  0  0  0  0  0  0  0  0  0  0
    9.5086   -5.7135   -0.3722 N   0  0  0  0  0  0  0  0  0  0  0  0
    8.5477   -6.4754   -0.9843 N   0  0  0  0  0  0  0  0  0  0  0  0
    8.4219   -7.6066   -0.3995 C   0  0  0  0  0  0  0  0  0  0  0  0
    7.0465   -8.0487   -0.1979 C   0  0  0  0  0  0  0  0  0  0  0  0
    5.9547   -7.3070    0.1303 C   0  0  0  0  0  0  0  0  0  0  0  0
    5.0322   -6.0007    0.4904 C   0  0  0  0  0  0  0  0  0  0  0  0
    4.5872   -4.7797    0.5288 N   0  0  0  0  0  0  0  0  0  0  0  0
    4.5844   -3.3723    0.3146 N   0  0  0  0  0  0  0  0  0  0  0  0
    1.5207   -2.5044    0.0668 H   0  0  0  0  0  0  0  0  0  0  0  0
    2.9024   -0.5064   -0.1082 H   0  0  0  0  0  0  0  0  0  0  0  0
    4.8589    1.0678    0.3119 H   0  0  0  0  0  0  0  0  0  0  0  0
    5.7723    0.5303   -1.0663 H   0  0  0  0  0  0  0  0  0  0  0  0
    6.8027    1.0015    1.7875 H   0  0  0  0  0  0  0  0  0  0  0  0
    6.8570    2.1008    0.4462 H   0  0  0  0  0  0  0  0  0  0  0  0
    8.5386   -0.3739    0.7230 H   0  0  0  0  0  0  0  0  0  0  0  0
    9.0377    1.2884    0.9028 H   0  0  0  0  0  0  0  0  0  0  0  0
    8.0746    0.1266   -1.7463 H   0  0  0  0  0  0  0  0  0  0  0  0
    9.7484    0.1515   -1.2090 H   0  0  0  0  0  0  0  0  0  0  0  0
    9.8093    2.6098   -1.1916 H   0  0  0  0  0  0  0  0  0  0  0  0
    8.1076    2.6892   -1.6561 H   0  0  0  0  0  0  0  0  0  0  0  0
   10.3692    1.4479   -3.3229 H   0  0  0  0  0  0  0  0  0  0  0  0
    9.5500    2.9824   -3.6434 H   0  0  0  0  0  0  0  0  0  0  0  0
    8.6592    1.4596   -3.7899 H   0  0  0  0  0  0  0  0  0  0  0  0
    7.0081   -3.2298   -1.2616 H   0  0  0  0  0  0  0  0  0  0  0  0
    7.9182   -5.2812    1.0023 H   0  0  0  0  0  0  0  0  0  0  0  0
    9.2375   -8.1542    0.1136 H   0  0  0  0  0  0  0  0  0  0  0  0
    7.0150   -9.1430   -0.2428 H   0  0  0  0  0  0  0  0  0  0  0  0
    5.2073   -8.1010    0.3148 H   0  0  0  0  0  0  0  0  0  0  0  0
    4.2247   -6.5246    1.0524 H   0  0  0  0  0  0  0  0  0  0  0  0
  1  2  1  0  0  0  0
  1 25  1  0  0  0  0
  2  3  2  0  0  0  0
  2 24  1  0  0  0  0
  3  4  1  0  0  0  0
  3 26  1  0  0  0  0
  4  5  1  0  0  0  0
  4 11  2  0  0  0  0
  5  6  1  0  0  0  0
  5 27  1  0  0  0  0
  5 28  1  0  0  0  0
  6  7  1  0  0  0  0
  6 29  1  0  0  0  0
  6 30  1  0  0  0  0
  7  8  1  0  0  0  0
  7 31  1  0  0  0  0
  7 32  1  0  0  0  0
  8  9  1  0  0  0  0
  8 33  1  0  0  0  0
  8 34  1  0  0  0  0
  9 10  1  0  0  0  0
  9 35  1  0  0  0  0
  9 36  1  0  0  0  0
 10 37  1  0  0  0  0
 10 38  1  0  0  0  0
 10 39  1  0  0  0  0
 11 12  1  0  0  0  0
 11 24  1  0  0  0  0
 12 13  2  3  0  0  0
 13 14  1  0  0  0  0
 13 40  1  0  0  0  0
 14 15  2  0  0  0  0
 14 16  1  0  0  0  0
 16 17  2  3  0  0  0
 16 41  1  0  0  0  0
 17 18  1  0  0  0  0
 18 19  2  3  0  0  0
 19 20  1  0  0  0  0
 19 42  1  0  0  0  0
 20 21  2  3  0  0  0
 20 43  1  0  0  0  0
 21 22  1  0  0  0  0
 21 44  1  0  0  0  0
 22 23  2  3  0  0  0
 22 45  1  0  0  0  0
 23 24  1  0  0  0  0
M  END
$$$$
