
 OpenBabel04232216543D

 99 98  0  0  0  0  0  0  0  0999 V2000
   13.6054    6.2410    8.1030 C   0  0  0  0  0  0  0  0  0  0  0  0
   13.0342    4.9128    7.6466 C   0  0  0  0  0  0  0  0  0  0  0  0
   13.5448    3.7774    8.5210 C   0  0  0  0  0  0  0  0  0  0  0  0
   12.9781    2.4417    8.0692 C   0  0  0  0  0  0  0  0  0  0  0  0
   13.5122    1.3449    8.9583 C   0  0  0  0  0  0  0  0  0  0  0  0
   12.9149    0.0499    8.5074 N   0  0  0  0  0  0  0  0  0  0  0  0
   13.4145   -1.0109    9.3319 N   0  0  0  0  0  0  0  0  0  0  0  0
   12.8490   -2.2338    8.9014 N   0  0  0  0  0  0  0  0  0  0  0  0
   13.3310   -3.3245    9.7266 N   0  0  0  0  0  0  0  0  0  0  0  0
   12.8244   -4.6148    9.2948 N   0  0  0  0  0  0  0  0  0  0  0  0
   13.2039   -5.0007    7.9366 N   0  0  0  0  0  0  0  0  0  0  0  0
   12.5743   -6.5064    7.6107 S   0  0  0  0  0  0  0  0  0  0  0  0
   13.2344   -6.8006    5.6803 S   0  0  0  0  0  0  0  0  0  0  0  0
   15.3053   -6.8205    5.7026 S   0  0  0  0  0  0  0  0  0  0  0  0
   15.9669   -8.4018    6.8710 S   0  0  0  0  0  0  0  0  0  0  0  0
   18.0642   -8.3376    6.8727 S   0  0  0  0  0  0  0  0  0  0  0  0
   18.7594   -9.8630    8.1388 S   0  0  0  0  0  0  0  0  0  0  0  0
   20.8643   -9.8513    8.1240 S   0  0  0  0  0  0  0  0  0  0  0  0
   21.5561  -11.3833    9.3975 S   0  0  0  0  0  0  0  0  0  0  0  0
   23.6657  -11.3740    9.3898 S   0  0  0  0  0  0  0  0  0  0  0  0
   24.3566  -12.9082   10.6627 S   0  0  0  0  0  0  0  0  0  0  0  0
   26.4663  -12.8983   10.6545 S   0  0  0  0  0  0  0  0  0  0  0  0
   27.1571  -14.4323   11.9272 S   0  0  0  0  0  0  0  0  0  0  0  0
   29.2666  -14.4221   11.9188 S   0  0  0  0  0  0  0  0  0  0  0  0
   29.9573  -15.9561   13.1915 S   0  0  0  0  0  0  0  0  0  0  0  0
   32.0666  -15.9459   13.1831 S   0  0  0  0  0  0  0  0  0  0  0  0
   32.7573  -17.4798   14.4557 S   0  0  0  0  0  0  0  0  0  0  0  0
   34.8666  -17.4696   14.4473 S   0  0  0  0  0  0  0  0  0  0  0  0
   35.5573  -19.0035   15.7200 S   0  0  0  0  0  0  0  0  0  0  0  0
   37.6666  -18.9933   15.7115 S   0  0  0  0  0  0  0  0  0  0  0  0
   38.3573  -20.5272   16.9842 S   0  0  0  0  0  0  0  0  0  0  0  0
   40.4666  -20.5170   16.9757 S   0  0  0  0  0  0  0  0  0  0  0  0
   41.1573  -22.0510   18.2484 S   0  0  0  0  0  0  0  0  0  0  0  0
   43.2666  -22.0408   18.2400 S   0  0  0  0  0  0  0  0  0  0  0  0
   43.9572  -23.5747   19.5127 S   0  0  0  0  0  0  0  0  0  0  0  0
   46.0666  -23.5645   19.5042 S   0  0  0  0  0  0  0  0  0  0  0  0
   46.7572  -25.0984   20.7769 S   0  0  0  0  0  0  0  0  0  0  0  0
   48.8666  -25.0882   20.7684 S   0  0  0  0  0  0  0  0  0  0  0  0
   49.5572  -26.6221   22.0411 S   0  0  0  0  0  0  0  0  0  0  0  0
   51.6666  -26.6119   22.0327 S   0  0  0  0  0  0  0  0  0  0  0  0
   52.3572  -28.1459   23.3054 S   0  0  0  0  0  0  0  0  0  0  0  0
   54.4666  -28.1357   23.2969 S   0  0  0  0  0  0  0  0  0  0  0  0
   55.1572  -29.6696   24.5696 S   0  0  0  0  0  0  0  0  0  0  0  0
   57.2666  -29.6594   24.5611 S   0  0  0  0  0  0  0  0  0  0  0  0
   57.9572  -31.1933   25.8338 S   0  0  0  0  0  0  0  0  0  0  0  0
   60.0666  -31.1831   25.8254 S   0  0  0  0  0  0  0  0  0  0  0  0
   60.7572  -32.7170   27.0980 S   0  0  0  0  0  0  0  0  0  0  0  0
   62.8666  -32.7068   27.0896 S   0  0  0  0  0  0  0  0  0  0  0  0
   63.5572  -34.2408   28.3623 S   0  0  0  0  0  0  0  0  0  0  0  0
   65.6666  -34.2306   28.3538 S   0  0  0  0  0  0  0  0  0  0  0  0
   66.3572  -35.7645   29.6265 S   0  0  0  0  0  0  0  0  0  0  0  0
   68.4666  -35.7543   29.6180 S   0  0  0  0  0  0  0  0  0  0  0  0
   69.1572  -37.2882   30.8907 S   0  0  0  0  0  0  0  0  0  0  0  0
   71.2665  -37.2780   30.8823 S   0  0  0  0  0  0  0  0  0  0  0  0
   71.9572  -38.8119   32.1550 S   0  0  0  0  0  0  0  0  0  0  0  0
   74.0665  -38.8017   32.1465 S   0  0  0  0  0  0  0  0  0  0  0  0
   74.7572  -40.3357   33.4192 S   0  0  0  0  0  0  0  0  0  0  0  0
   76.8665  -40.3255   33.4107 S   0  0  0  0  0  0  0  0  0  0  0  0
   77.5572  -41.8594   34.6834 S   0  0  0  0  0  0  0  0  0  0  0  0
   79.6665  -41.8492   34.6750 S   0  0  0  0  0  0  0  0  0  0  0  0
   80.3571  -43.3831   35.9477 S   0  0  0  0  0  0  0  0  0  0  0  0
   82.4665  -43.3729   35.9392 S   0  0  0  0  0  0  0  0  0  0  0  0
   83.1571  -44.9068   37.2119 S   0  0  0  0  0  0  0  0  0  0  0  0
   85.2665  -44.8966   37.2034 S   0  0  0  0  0  0  0  0  0  0  0  0
   85.9571  -46.4305   38.4761 S   0  0  0  0  0  0  0  0  0  0  0  0
   88.0665  -46.4203   38.4677 S   0  0  0  0  0  0  0  0  0  0  0  0
   88.7571  -47.9543   39.7403 S   0  0  0  0  0  0  0  0  0  0  0  0
   90.8665  -47.9441   39.7319 S   0  0  0  0  0  0  0  0  0  0  0  0
   91.5571  -49.4780   41.0045 S   0  0  0  0  0  0  0  0  0  0  0  0
   93.6663  -49.4677   40.9960 S   0  0  0  0  0  0  0  0  0  0  0  0
   94.3567  -51.0015   42.2686 S   0  0  0  0  0  0  0  0  0  0  0  0
   96.4655  -50.9910   42.2599 S   0  0  0  0  0  0  0  0  0  0  0  0
   97.1550  -52.5244   43.5321 S   0  0  0  0  0  0  0  0  0  0  0  0
   99.2621  -52.5129   43.5226 S   0  0  0  0  0  0  0  0  0  0  0  0
   99.9482  -54.0441   44.7937 S   0  0  0  0  0  0  0  0  0  0  0  0
  102.0490  -54.0300   44.7795 S   0  0  0  0  0  0  0  0  0  0  0  0
  102.7266  -55.5556   46.0476 S   0  0  0  0  0  0  0  0  0  0  0  0
  104.8132  -55.4993   46.0489 S   0  0  0  0  0  0  0  0  0  0  0  0
  105.4854  -57.0784   47.2192 S   0  0  0  0  0  0  0  0  0  0  0  0
  107.5553  -56.9739   47.2482 S   0  0  0  0  0  0  0  0  0  0  0  0
  108.1650  -57.4214   45.3336 S   0  0  0  0  0  0  0  0  0  0  0  0
   13.2344    7.0497    7.4709 H   0  0  0  0  0  0  0  0  0  0  0  0
   14.7011    6.2404    8.0447 H   0  0  0  0  0  0  0  0  0  0  0  0
   13.3168    6.4515    9.1372 H   0  0  0  0  0  0  0  0  0  0  0  0
   13.3122    4.7331    6.6007 H   0  0  0  0  0  0  0  0  0  0  0  0
   11.9376    4.9513    7.6871 H   0  0  0  0  0  0  0  0  0  0  0  0
   13.2692    3.9575    9.5670 H   0  0  0  0  0  0  0  0  0  0  0  0
   14.6401    3.7363    8.4778 H   0  0  0  0  0  0  0  0  0  0  0  0
   13.2402    2.2537    7.0219 H   0  0  0  0  0  0  0  0  0  0  0  0
   11.8747    2.4730    8.1250 H   0  0  0  0  0  0  0  0  0  0  0  0
   13.2468    1.5236    9.9953 H   0  0  0  0  0  0  0  0  0  0  0  0
   14.6109    1.2805    8.8954 H   0  0  0  0  0  0  0  0  0  0  0  0
   13.2203   -0.1187    7.5279 H   0  0  0  0  0  0  0  0  0  0  0  0
   13.1340   -0.8524   10.2967 H   0  0  0  0  0  0  0  0  0  0  0  0
   13.1472   -2.3728    7.9325 H   0  0  0  0  0  0  0  0  0  0  0  0
   13.0838   -3.1593   10.7201 H   0  0  0  0  0  0  0  0  0  0  0  0
   11.8023   -4.6507    9.3810 H   0  0  0  0  0  0  0  0  0  0  0  0
   14.2244   -5.0743    7.8450 H   0  0  0  0  0  0  0  0  0  0  0  0
  109.5033  -57.3522   45.4539 H   0  0  0  0  0  0  0  0  0  0  0  0
  1  2  1  0  0  0  0
  1 82  1  0  0  0  0
  1 83  1  0  0  0  0
  1 84  1  0  0  0  0
  2  3  1  0  0  0  0
  2 85  1  0  0  0  0
  2 86  1  0  0  0  0
  3  4  1  0  0  0  0
  3 87  1  0  0  0  0
  3 88  1  0  0  0  0
  4  5  1  0  0  0  0
  4 89  1  0  0  0  0
  4 90  1  0  0  0  0
  5  6  1  0  0  0  0
  5 91  1  0  0  0  0
  5 92  1  0  0  0  0
  6  7  1  0  0  0  0
  6 93  1  0  0  0  0
  7  8  1  0  0  0  0
  7 94  1  0  0  0  0
  8  9  1  0  0  0  0
  8 95  1  0  0  0  0
  9 10  1  0  0  0  0
  9 96  1  0  0  0  0
 10 11  1  0  0  0  0
 10 97  1  0  0  0  0
 11 12  1  0  0  0  0
 11 98  1  0  0  0  0
 12 13  1  0  0  0  0
 13 14  1  0  0  0  0
 14 15  1  0  0  0  0
 15 16  1  0  0  0  0
 16 17  1  0  0  0  0
 17 18  1  0  0  0  0
 18 19  1  0  0  0  0
 19 20  1  0  0  0  0
 20 21  1  0  0  0  0
 21 22  1  0  0  0  0
 22 23  1  0  0  0  0
 23 24  1  0  0  0  0
 24 25  1  0  0  0  0
 25 26  1  0  0  0  0
 26 27  1  0  0  0  0
 27 28  1  0  0  0  0
 28 29  1  0  0  0  0
 29 30  1  0  0  0  0
 30 31  1  0  0  0  0
 31 32  1  0  0  0  0
 32 33  1  0  0  0  0
 33 34  1  0  0  0  0
 34 35  1  0  0  0  0
 35 36  1  0  0  0  0
 36 37  1  0  0  0  0
 37 38  1  0  0  0  0
 38 39  1  0  0  0  0
 39 40  1  0  0  0  0
 40 41  1  0  0  0  0
 41 42  1  0  0  0  0
 42 43  1  0  0  0  0
 43 44  1  0  0  0  0
 44 45  1  0  0  0  0
 45 46  1  0  0  0  0
 46 47  1  0  0  0  0
 47 48  1  0  0  0  0
 48 49  1  0  0  0  0
 49 50  1  0  0  0  0
 50 51  1  0  0  0  0
 51 52  1  0  0  0  0
 52 53  1  0  0  0  0
 53 54  1  0  0  0  0
 54 55  1  0  0  0  0
 55 56  1  0  0  0  0
 56 57  1  0  0  0  0
 57 58  1  0  0  0  0
 58 59  1  0  0  0  0
 59 60  1  0  0  0  0
 60 61  1  0  0  0  0
 61 62  1  0  0  0  0
 62 63  1  0  0  0  0
 63 64  1  0  0  0  0
 64 65  1  0  0  0  0
 65 66  1  0  0  0  0
 66 67  1  0  0  0  0
 67 68  1  0  0  0  0
 68 69  1  0  0  0  0
 69 70  1  0  0  0  0
 70 71  1  0  0  0  0
 71 72  1  0  0  0  0
 72 73  1  0  0  0  0
 73 74  1  0  0  0  0
 74 75  1  0  0  0  0
 75 76  1  0  0  0  0
 76 77  1  0  0  0  0
 77 78  1  0  0  0  0
 78 79  1  0  0  0  0
 79 80  1  0  0  0  0
 80 81  1  0  0  0  0
 81 99  1  0  0  0  0
M  END
$$$$
