
 OpenBabel04232216453D

 48 49  0  0  1  0  0  0  0  0999 V2000
    5.6220   -3.4175   -0.9837 C   0  0  0  0  0  0  0  0  0  0  0  0
    6.5788   -3.2812   -2.1940 C   0  0  0  0  0  0  0  0  0  0  0  0
    5.6210   -2.0757   -3.1331 C   0  0  0  0  0  0  0  0  0  0  0  0
    5.7016   -0.9448   -3.9495 C   0  0  0  0  0  0  0  0  0  0  0  0
    4.8204    0.2168   -3.4427 C   0  0  0  0  0  0  0  0  0  0  0  0
    6.9754   -0.3986   -4.6281 C   0  0  0  0  0  0  0  0  0  0  0  0
    7.9348   -1.0676   -6.0842 C   0  0  0  0  0  0  0  0  0  0  0  0
    9.1792   -2.4271   -6.4681 C   0  0  0  0  0  0  0  0  0  0  0  0
    9.7684   -4.0196   -5.7942 C   0  0  0  0  0  0  0  0  0  0  0  0
    9.3337   -5.0002   -4.3982 C   0  0  3  0  0  0  0  0  0  0  0  0
   10.5947   -5.6064   -4.1463 F   0  0  0  0  0  0  0  0  0  0  0  0
    7.7409   -0.1843   -3.5224 C   0  0  0  0  0  0  0  0  0  0  0  0
    7.5114    0.3483   -2.1396 C   0  0  0  0  0  0  0  0  0  0  0  0
    8.4557   -1.4974   -3.5687 C   0  0  0  0  0  0  0  0  0  0  0  0
    7.5616   -2.7416   -4.5230 C   0  0  0  0  0  0  0  0  0  0  0  0
    9.7232   -1.1075   -3.2541 C   0  0  0  0  0  0  0  0  0  0  0  0
   10.1408   -0.8382   -1.7324 C   0  0  0  0  0  0  0  0  0  0  0  0
   10.8937   -1.6385   -3.9025 C   0  0  0  0  0  0  0  0  0  0  0  0
   11.2559   -2.8149   -3.3477 C   0  0  0  0  0  0  0  0  0  0  0  0
    9.9963   -3.4783   -2.7125 C   0  0  0  0  0  0  0  0  0  0  0  0
    8.9513   -4.3091   -2.9365 C   0  0  0  0  0  0  0  0  0  0  0  0
    7.6346   -4.0632   -2.1766 N   0  0  0  0  0  0  0  0  0  0  0  0
    4.7028   -3.9351   -1.2842 H   0  0  0  0  0  0  0  0  0  0  0  0
    5.3283   -2.3946   -0.6782 H   0  0  0  0  0  0  0  0  0  0  0  0
    6.0866   -3.8964   -0.1286 H   0  0  0  0  0  0  0  0  0  0  0  0
    4.5962   -2.1772   -2.7393 H   0  0  0  0  0  0  0  0  0  0  0  0
    3.8209    0.2648   -3.8423 H   0  0  0  0  0  0  0  0  0  0  0  0
    5.2917    1.2072   -3.5757 H   0  0  0  0  0  0  0  0  0  0  0  0
    4.7236    0.1207   -2.3468 H   0  0  0  0  0  0  0  0  0  0  0  0
    8.4890   -0.1848   -6.4537 H   0  0  0  0  0  0  0  0  0  0  0  0
    7.1571   -1.2645   -6.8405 H   0  0  0  0  0  0  0  0  0  0  0  0
    8.7531   -2.8109   -7.4138 H   0  0  0  0  0  0  0  0  0  0  0  0
   10.1033   -1.9184   -6.7916 H   0  0  0  0  0  0  0  0  0  0  0  0
   10.8617   -3.8836   -5.7234 H   0  0  0  0  0  0  0  0  0  0  0  0
    9.7079   -4.7371   -6.6349 H   0  0  0  0  0  0  0  0  0  0  0  0
    8.7371   -5.8820   -4.6319 H   0  0  0  0  0  0  0  0  0  0  0  0
    6.6802    1.0355   -2.0107 H   0  0  0  0  0  0  0  0  0  0  0  0
    8.3797    0.9384   -1.8356 H   0  0  0  0  0  0  0  0  0  0  0  0
    7.3623   -0.4655   -1.4183 H   0  0  0  0  0  0  0  0  0  0  0  0
    6.7131   -2.4939   -5.1519 H   0  0  0  0  0  0  0  0  0  0  0  0
    7.1104   -3.6168   -4.0832 H   0  0  0  0  0  0  0  0  0  0  0  0
    8.0851   -3.3340   -5.2149 H   0  0  0  0  0  0  0  0  0  0  0  0
    9.3322   -0.7995   -0.9966 H   0  0  0  0  0  0  0  0  0  0  0  0
   10.8045    0.0267   -1.6231 H   0  0  0  0  0  0  0  0  0  0  0  0
   10.7301   -1.6753   -1.3216 H   0  0  0  0  0  0  0  0  0  0  0  0
   11.3045   -1.0781   -4.7362 H   0  0  0  0  0  0  0  0  0  0  0  0
   12.1555   -3.3313   -3.5704 H   0  0  0  0  0  0  0  0  0  0  0  0
    9.7110   -3.2094   -3.7406 H   0  0  0  0  0  0  0  0  0  0  0  0
  1  2  1  0  0  0  0
  1 23  1  0  0  0  0
  1 24  1  0  0  0  0
  1 25  1  0  0  0  0
  2  3  1  0  0  0  0
  2 22  2  3  0  0  0
  3  4  2  3  0  0  0
  3 26  1  0  0  0  0
  4  5  1  0  0  0  0
  4  6  1  0  0  0  0
  5 27  1  0  0  0  0
  5 28  1  0  0  0  0
  5 29  1  0  0  0  0
  6  7  1  0  0  0  0
  6 12  2  3  0  0  0
  7  8  1  0  0  0  0
  7 30  1  0  0  0  0
  7 31  1  0  0  0  0
  8  9  1  0  0  0  0
  8 32  1  0  0  0  0
  8 33  1  0  0  0  0
  9 10  1  0  0  0  0
  9 34  1  0  0  0  0
  9 35  1  0  0  0  0
 10 11  1  0  0  0  0
 10 21  1  0  0  0  0
 10 36  1  0  0  0  0
 12 13  1  0  0  0  0
 12 14  1  0  0  0  0
 13 37  1  0  0  0  0
 13 38  1  0  0  0  0
 13 39  1  0  0  0  0
 14 15  1  0  0  0  0
 14 16  2  3  0  0  0
 15 40  1  0  0  0  0
 15 41  1  0  0  0  0
 15 42  1  0  0  0  0
 16 17  1  0  0  0  0
 16 18  1  0  0  0  0
 17 43  1  0  0  0  0
 17 44  1  0  0  0  0
 17 45  1  0  0  0  0
 18 19  2  3  0  0  0
 18 46  1  0  0  0  0
 19 20  1  0  0  0  0
 19 47  1  0  0  0  0
 20 21  2  3  0  0  0
 20 48  1  0  0  0  0
 21 22  1  0  0  0  0
M  END
$$$$
