
 OpenBabel04232217003D

226225  0  0  0  0  0  0  0  0999 V2000
    4.6023    0.2872  -10.0203 O   0  0  0  0  0  0  0  0  0  0  0  0
    3.7905    0.7895   -9.2314 C   0  0  0  0  0  0  0  0  0  0  0  0
    4.1773    1.3226   -7.8918 C   0  0  0  0  0  0  0  0  0  0  0  0
    5.6623    1.1497   -7.6810 C   0  0  0  0  0  0  0  0  0  0  0  0
    5.9929    1.6679   -6.4012 O   0  0  0  0  0  0  0  0  0  0  0  0
    7.3791    1.5192   -6.1723 C   0  0  0  0  0  0  0  0  0  0  0  0
    7.7056    2.0732   -4.8175 C   0  0  0  0  0  0  0  0  0  0  0  0
    9.0921    1.8740   -4.6715 O   0  0  0  0  0  0  0  0  0  0  0  0
    9.4050    2.4048   -3.3743 O   0  0  0  0  0  0  0  0  0  0  0  0
   10.8025    2.2533   -3.1455 O   0  0  0  0  0  0  0  0  0  0  0  0
   11.5275    2.9578   -4.1609 O   0  0  0  0  0  0  0  0  0  0  0  0
   12.9275    2.7831   -3.9419 O   0  0  0  0  0  0  0  0  0  0  0  0
   13.5340    3.5146   -4.9780 C   0  0  0  0  0  0  0  0  0  0  0  0
   15.0095    3.3502   -4.7497 C   0  0  0  0  0  0  0  0  0  0  0  0
   15.7623    4.1019   -5.8150 C   0  0  0  0  0  0  0  0  0  0  0  0
   17.2458    3.9360   -5.5813 C   0  0  0  0  0  0  0  0  0  0  0  0
   18.0020    4.6895   -6.6525 C   0  0  0  0  0  0  0  0  0  0  0  0
   19.4899    4.5282   -6.4289 C   0  0  0  0  0  0  0  0  0  0  0  0
   20.2487    5.2840   -7.5000 C   0  0  0  0  0  0  0  0  0  0  0  0
   21.7388    5.1248   -7.2758 C   0  0  0  0  0  0  0  0  0  0  0  0
   22.4995    5.8791   -8.3481 C   0  0  0  0  0  0  0  0  0  0  0  0
   23.9907    5.7228   -8.1246 C   0  0  0  0  0  0  0  0  0  0  0  0
   24.7523    6.4787   -9.1959 C   0  0  0  0  0  0  0  0  0  0  0  0
   26.2440    6.3208   -8.9736 C   0  0  0  0  0  0  0  0  0  0  0  0
   27.0062    7.0767  -10.0447 C   0  0  0  0  0  0  0  0  0  0  0  0
   28.4981    6.9205   -9.8214 C   0  0  0  0  0  0  0  0  0  0  0  0
   29.2605    7.6764  -10.8925 C   0  0  0  0  0  0  0  0  0  0  0  0
   30.7524    7.5203  -10.6693 C   0  0  0  0  0  0  0  0  0  0  0  0
   31.5148    8.2762  -11.7405 C   0  0  0  0  0  0  0  0  0  0  0  0
   33.0068    8.1201  -11.5172 C   0  0  0  0  0  0  0  0  0  0  0  0
   33.7692    8.8760  -12.5884 C   0  0  0  0  0  0  0  0  0  0  0  0
   35.2612    8.7199  -12.3651 C   0  0  0  0  0  0  0  0  0  0  0  0
   36.0236    9.4742  -13.4374 C   0  0  0  0  0  0  0  0  0  0  0  0
   37.5155    9.3180  -13.2141 C   0  0  0  0  0  0  0  0  0  0  0  0
   38.2780   10.0723  -14.2865 C   0  0  0  0  0  0  0  0  0  0  0  0
   39.7699    9.9161  -14.0632 C   0  0  0  0  0  0  0  0  0  0  0  0
   40.5324   10.6720  -15.1344 C   0  0  0  0  0  0  0  0  0  0  0  0
   42.0244   10.5143  -14.9123 C   0  0  0  0  0  0  0  0  0  0  0  0
   42.7868   11.2719  -15.9823 C   0  0  0  0  0  0  0  0  0  0  0  0
   44.2788   11.1157  -15.7590 C   0  0  0  0  0  0  0  0  0  0  0  0
   45.0412   11.8749  -16.8279 C   0  0  0  0  0  0  0  0  0  0  0  0
   46.5332   11.7172  -16.6058 C   0  0  0  0  0  0  0  0  0  0  0  0
   47.2956   12.4764  -17.6746 C   0  0  0  0  0  0  0  0  0  0  0  0
   48.7876   12.3186  -17.4525 C   0  0  0  0  0  0  0  0  0  0  0  0
   49.5500   13.0778  -18.5214 C   0  0  0  0  0  0  0  0  0  0  0  0
   51.0420   12.9201  -18.2992 C   0  0  0  0  0  0  0  0  0  0  0  0
   51.8045   13.6792  -19.3681 C   0  0  0  0  0  0  0  0  0  0  0  0
   53.2964   13.5198  -19.1472 C   0  0  0  0  0  0  0  0  0  0  0  0
   54.0589   14.2774  -20.2172 C   0  0  0  0  0  0  0  0  0  0  0  0
   55.5508   14.1196  -19.9951 C   0  0  0  0  0  0  0  0  0  0  0  0
   56.3133   14.8772  -21.0651 C   0  0  0  0  0  0  0  0  0  0  0  0
   57.8052   14.7178  -20.8441 C   0  0  0  0  0  0  0  0  0  0  0  0
   58.5677   15.4770  -21.9130 C   0  0  0  0  0  0  0  0  0  0  0  0
   60.0596   15.3159  -21.6932 C   0  0  0  0  0  0  0  0  0  0  0  0
   60.8221   16.0735  -22.7633 C   0  0  0  0  0  0  0  0  0  0  0  0
   62.3140   15.9141  -22.5423 C   0  0  0  0  0  0  0  0  0  0  0  0
   63.0765   16.6733  -23.6112 C   0  0  0  0  0  0  0  0  0  0  0  0
   64.5684   16.5139  -23.3902 C   0  0  0  0  0  0  0  0  0  0  0  0
   65.3309   17.2747  -24.4579 C   0  0  0  0  0  0  0  0  0  0  0  0
   66.8229   17.1153  -24.2370 C   0  0  0  0  0  0  0  0  0  0  0  0
   67.5853   17.8762  -25.3047 C   0  0  0  0  0  0  0  0  0  0  0  0
   69.0773   17.7168  -25.0837 C   0  0  0  0  0  0  0  0  0  0  0  0
   69.8397   18.4776  -26.1514 C   0  0  0  0  0  0  0  0  0  0  0  0
   71.3317   18.3182  -25.9305 C   0  0  0  0  0  0  0  0  0  0  0  0
   72.0941   19.0790  -26.9982 C   0  0  0  0  0  0  0  0  0  0  0  0
   73.5861   18.9196  -26.7772 C   0  0  0  0  0  0  0  0  0  0  0  0
   74.3486   19.6805  -27.8449 C   0  0  0  0  0  0  0  0  0  0  0  0
   75.8405   19.5211  -27.6240 C   0  0  0  0  0  0  0  0  0  0  0  0
   76.6030   20.2803  -28.6928 C   0  0  0  0  0  0  0  0  0  0  0  0
   78.0951   20.1209  -28.4720 C   0  0  0  0  0  0  0  0  0  0  0  0
   78.8577   20.8802  -29.5409 C   0  0  0  0  0  0  0  0  0  0  0  0
   80.3500   20.7209  -29.3201 C   0  0  0  0  0  0  0  0  0  0  0  0
   81.1131   21.4801  -30.3890 C   0  0  0  0  0  0  0  0  0  0  0  0
   82.6059   21.3212  -30.1687 C   0  0  0  0  0  0  0  0  0  0  0  0
   83.3700   22.0789  -31.2390 C   0  0  0  0  0  0  0  0  0  0  0  0
   84.8643   21.9212  -31.0204 C   0  0  0  0  0  0  0  0  0  0  0  0
   85.6309   22.6795  -32.0915 C   0  0  0  0  0  0  0  0  0  0  0  0
   87.1277   22.5247  -31.8736 C   0  0  0  0  0  0  0  0  0  0  0  0
   87.9051   23.2794  -32.9431 C   0  0  0  0  0  0  0  0  0  0  0  0
   89.3974   23.1232  -32.7232 C   0  0  0  0  0  0  0  0  0  0  0  0
    2.7277    0.8586   -9.5037 H   0  0  0  0  0  0  0  0  0  0  0  0
    3.6175    0.7957   -7.1106 H   0  0  0  0  0  0  0  0  0  0  0  0
    3.9070    2.3866   -7.8297 H   0  0  0  0  0  0  0  0  0  0  0  0
    6.2282    1.6889   -8.4529 H   0  0  0  0  0  0  0  0  0  0  0  0
    5.9366    0.0869   -7.7290 H   0  0  0  0  0  0  0  0  0  0  0  0
    7.9594    2.0521   -6.9379 H   0  0  0  0  0  0  0  0  0  0  0  0
    7.6694    0.4607   -6.2166 H   0  0  0  0  0  0  0  0  0  0  0  0
    7.1678    1.5437   -4.0246 H   0  0  0  0  0  0  0  0  0  0  0  0
    7.4622    3.1393   -4.7483 H   0  0  0  0  0  0  0  0  0  0  0  0
   13.2347    4.5668   -4.9173 H   0  0  0  0  0  0  0  0  0  0  0  0
   13.2314    3.1076   -5.9492 H   0  0  0  0  0  0  0  0  0  0  0  0
   15.2686    2.2836   -4.7599 H   0  0  0  0  0  0  0  0  0  0  0  0
   15.2715    3.7145   -3.7480 H   0  0  0  0  0  0  0  0  0  0  0  0
   15.4890    5.1639   -5.7871 H   0  0  0  0  0  0  0  0  0  0  0  0
   15.4880    3.7205   -6.8062 H   0  0  0  0  0  0  0  0  0  0  0  0
   17.5128    2.8721   -5.6048 H   0  0  0  0  0  0  0  0  0  0  0  0
   17.5143    4.3165   -4.5878 H   0  0  0  0  0  0  0  0  0  0  0  0
   17.7289    5.7517   -6.6253 H   0  0  0  0  0  0  0  0  0  0  0  0
   17.7256    4.3079   -7.6433 H   0  0  0  0  0  0  0  0  0  0  0  0
   19.7588    3.4651   -6.4559 H   0  0  0  0  0  0  0  0  0  0  0  0
   19.7619    4.9072   -5.4360 H   0  0  0  0  0  0  0  0  0  0  0  0
   19.9761    6.3464   -7.4737 H   0  0  0  0  0  0  0  0  0  0  0  0
   19.9750    4.9040   -8.4922 H   0  0  0  0  0  0  0  0  0  0  0  0
   22.0095    4.0620   -7.3002 H   0  0  0  0  0  0  0  0  0  0  0  0
   22.0108    5.5058   -6.2837 H   0  0  0  0  0  0  0  0  0  0  0  0
   22.2260    6.9412   -8.3238 H   0  0  0  0  0  0  0  0  0  0  0  0
   22.2268    5.4964   -9.3394 H   0  0  0  0  0  0  0  0  0  0  0  0
   24.2632    4.6605   -8.1501 H   0  0  0  0  0  0  0  0  0  0  0  0
   24.2620    6.1040   -7.1325 H   0  0  0  0  0  0  0  0  0  0  0  0
   24.4801    7.5411   -9.1692 H   0  0  0  0  0  0  0  0  0  0  0  0
   24.4792    6.0984  -10.1880 H   0  0  0  0  0  0  0  0  0  0  0  0
   26.5157    5.2584   -9.0001 H   0  0  0  0  0  0  0  0  0  0  0  0
   26.5166    6.7011   -7.9813 H   0  0  0  0  0  0  0  0  0  0  0  0
   26.7332    8.1389  -10.0191 H   0  0  0  0  0  0  0  0  0  0  0  0
   26.7344    6.6955  -11.0368 H   0  0  0  0  0  0  0  0  0  0  0  0
   28.7710    5.8583   -9.8469 H   0  0  0  0  0  0  0  0  0  0  0  0
   28.7698    7.3017   -8.8293 H   0  0  0  0  0  0  0  0  0  0  0  0
   28.9875    8.7386  -10.8669 H   0  0  0  0  0  0  0  0  0  0  0  0
   28.9887    7.2952  -11.8846 H   0  0  0  0  0  0  0  0  0  0  0  0
   31.0254    6.4581  -10.6949 H   0  0  0  0  0  0  0  0  0  0  0  0
   31.0241    7.9016   -9.6772 H   0  0  0  0  0  0  0  0  0  0  0  0
   31.2418    9.3384  -11.7149 H   0  0  0  0  0  0  0  0  0  0  0  0
   31.2431    7.8950  -12.7326 H   0  0  0  0  0  0  0  0  0  0  0  0
   33.2797    7.0579  -11.5428 H   0  0  0  0  0  0  0  0  0  0  0  0
   33.2785    8.5013  -10.5251 H   0  0  0  0  0  0  0  0  0  0  0  0
   33.4963    9.9382  -12.5628 H   0  0  0  0  0  0  0  0  0  0  0  0
   33.4975    8.4948  -13.5804 H   0  0  0  0  0  0  0  0  0  0  0  0
   35.5339    7.6576  -12.3893 H   0  0  0  0  0  0  0  0  0  0  0  0
   35.5331    9.1024  -11.3735 H   0  0  0  0  0  0  0  0  0  0  0  0
   35.7508   10.5364  -13.4133 H   0  0  0  0  0  0  0  0  0  0  0  0
   35.7517    9.0916  -14.4290 H   0  0  0  0  0  0  0  0  0  0  0  0
   37.7883    8.2557  -13.2383 H   0  0  0  0  0  0  0  0  0  0  0  0
   37.7875    9.7006  -12.2226 H   0  0  0  0  0  0  0  0  0  0  0  0
   38.0052   11.1346  -14.2623 H   0  0  0  0  0  0  0  0  0  0  0  0
   38.0061    9.6898  -15.2780 H   0  0  0  0  0  0  0  0  0  0  0  0
   40.0429    8.8539  -14.0888 H   0  0  0  0  0  0  0  0  0  0  0  0
   40.0417   10.2974  -13.0711 H   0  0  0  0  0  0  0  0  0  0  0  0
   40.2605   11.7345  -15.1079 H   0  0  0  0  0  0  0  0  0  0  0  0
   40.2597   10.2918  -16.1266 H   0  0  0  0  0  0  0  0  0  0  0  0
   42.2965    9.4519  -14.9402 H   0  0  0  0  0  0  0  0  0  0  0  0
   42.2969   10.8932  -13.9195 H   0  0  0  0  0  0  0  0  0  0  0  0
   42.5136   12.3340  -15.9553 H   0  0  0  0  0  0  0  0  0  0  0  0
   42.5153   10.8920  -16.9750 H   0  0  0  0  0  0  0  0  0  0  0  0
   44.5521   10.0537  -15.7874 H   0  0  0  0  0  0  0  0  0  0  0  0
   44.5501   11.4943  -14.7658 H   0  0  0  0  0  0  0  0  0  0  0  0
   44.7688   12.9372  -16.7985 H   0  0  0  0  0  0  0  0  0  0  0  0
   44.7689   11.4973  -17.8212 H   0  0  0  0  0  0  0  0  0  0  0  0
   46.8055   10.6549  -16.6352 H   0  0  0  0  0  0  0  0  0  0  0  0
   46.8055   12.0948  -15.6124 H   0  0  0  0  0  0  0  0  0  0  0  0
   47.0233   13.5386  -17.6452 H   0  0  0  0  0  0  0  0  0  0  0  0
   47.0233   12.0988  -18.6679 H   0  0  0  0  0  0  0  0  0  0  0  0
   49.0599   11.2564  -17.4819 H   0  0  0  0  0  0  0  0  0  0  0  0
   49.0599   12.6962  -16.4592 H   0  0  0  0  0  0  0  0  0  0  0  0
   49.2777   14.1401  -18.4920 H   0  0  0  0  0  0  0  0  0  0  0  0
   49.2777   12.7002  -19.5147 H   0  0  0  0  0  0  0  0  0  0  0  0
   51.3143   11.8578  -18.3286 H   0  0  0  0  0  0  0  0  0  0  0  0
   51.3144   13.2976  -17.3059 H   0  0  0  0  0  0  0  0  0  0  0  0
   51.5332   14.7417  -19.3378 H   0  0  0  0  0  0  0  0  0  0  0  0
   51.5310   13.3026  -20.3615 H   0  0  0  0  0  0  0  0  0  0  0  0
   53.5675   12.4573  -19.1761 H   0  0  0  0  0  0  0  0  0  0  0  0
   53.5700   13.8978  -18.1543 H   0  0  0  0  0  0  0  0  0  0  0  0
   53.7867   15.3398  -20.1892 H   0  0  0  0  0  0  0  0  0  0  0  0
   53.7863   13.8985  -21.2099 H   0  0  0  0  0  0  0  0  0  0  0  0
   55.8229   13.0573  -20.0230 H   0  0  0  0  0  0  0  0  0  0  0  0
   55.8234   14.4985  -19.0023 H   0  0  0  0  0  0  0  0  0  0  0  0
   56.0422   15.9398  -21.0362 H   0  0  0  0  0  0  0  0  0  0  0  0
   56.0396   14.4993  -22.0579 H   0  0  0  0  0  0  0  0  0  0  0  0
   58.0764   13.6553  -20.8745 H   0  0  0  0  0  0  0  0  0  0  0  0
   58.0787   15.0944  -19.8508 H   0  0  0  0  0  0  0  0  0  0  0  0
   58.2975   16.5397  -21.8817 H   0  0  0  0  0  0  0  0  0  0  0  0
   58.2932   15.1013  -22.9065 H   0  0  0  0  0  0  0  0  0  0  0  0
   60.3296   14.2531  -21.7231 H   0  0  0  0  0  0  0  0  0  0  0  0
   60.3343   15.6929  -20.7003 H   0  0  0  0  0  0  0  0  0  0  0  0
   60.5510   17.1361  -22.7343 H   0  0  0  0  0  0  0  0  0  0  0  0
   60.5484   15.6956  -23.7561 H   0  0  0  0  0  0  0  0  0  0  0  0
   62.5853   14.8516  -22.5726 H   0  0  0  0  0  0  0  0  0  0  0  0
   62.5875   16.2907  -21.5490 H   0  0  0  0  0  0  0  0  0  0  0  0
   62.8052   17.7358  -23.5808 H   0  0  0  0  0  0  0  0  0  0  0  0
   62.8031   16.2967  -24.6046 H   0  0  0  0  0  0  0  0  0  0  0  0
   64.8399   15.4515  -23.4220 H   0  0  0  0  0  0  0  0  0  0  0  0
   64.8416   16.8892  -22.3963 H   0  0  0  0  0  0  0  0  0  0  0  0
   65.0594   18.3371  -24.4261 H   0  0  0  0  0  0  0  0  0  0  0  0
   65.0577   16.8994  -25.4519 H   0  0  0  0  0  0  0  0  0  0  0  0
   67.0943   16.0529  -24.2688 H   0  0  0  0  0  0  0  0  0  0  0  0
   67.0960   17.4906  -23.2430 H   0  0  0  0  0  0  0  0  0  0  0  0
   67.3138   18.9386  -25.2729 H   0  0  0  0  0  0  0  0  0  0  0  0
   67.3121   17.5009  -26.2986 H   0  0  0  0  0  0  0  0  0  0  0  0
   69.3488   16.6544  -25.1155 H   0  0  0  0  0  0  0  0  0  0  0  0
   69.3505   18.0921  -24.0898 H   0  0  0  0  0  0  0  0  0  0  0  0
   69.5682   19.5400  -26.1196 H   0  0  0  0  0  0  0  0  0  0  0  0
   69.5665   18.1023  -27.1454 H   0  0  0  0  0  0  0  0  0  0  0  0
   71.6032   17.2558  -25.9623 H   0  0  0  0  0  0  0  0  0  0  0  0
   71.6049   18.6935  -24.9365 H   0  0  0  0  0  0  0  0  0  0  0  0
   71.8226   20.1414  -26.9664 H   0  0  0  0  0  0  0  0  0  0  0  0
   71.8209   18.7037  -27.9921 H   0  0  0  0  0  0  0  0  0  0  0  0
   73.8576   17.8572  -26.8090 H   0  0  0  0  0  0  0  0  0  0  0  0
   73.8593   19.2949  -25.7833 H   0  0  0  0  0  0  0  0  0  0  0  0
   74.0771   20.7429  -27.8131 H   0  0  0  0  0  0  0  0  0  0  0  0
   74.0753   19.3051  -28.8388 H   0  0  0  0  0  0  0  0  0  0  0  0
   76.1118   18.4586  -27.6543 H   0  0  0  0  0  0  0  0  0  0  0  0
   76.1139   19.8977  -26.6306 H   0  0  0  0  0  0  0  0  0  0  0  0
   76.3317   21.3428  -28.6624 H   0  0  0  0  0  0  0  0  0  0  0  0
   76.3296   19.9036  -29.6862 H   0  0  0  0  0  0  0  0  0  0  0  0
   78.3663   19.0584  -28.5023 H   0  0  0  0  0  0  0  0  0  0  0  0
   78.3684   20.4976  -27.4786 H   0  0  0  0  0  0  0  0  0  0  0  0
   78.5863   21.9426  -29.5105 H   0  0  0  0  0  0  0  0  0  0  0  0
   78.5842   20.5035  -30.5342 H   0  0  0  0  0  0  0  0  0  0  0  0
   80.6209   19.6583  -29.3503 H   0  0  0  0  0  0  0  0  0  0  0  0
   80.6231   21.0974  -28.3266 H   0  0  0  0  0  0  0  0  0  0  0  0
   80.8414   22.5425  -30.3585 H   0  0  0  0  0  0  0  0  0  0  0  0
   80.8392   21.1034  -31.3822 H   0  0  0  0  0  0  0  0  0  0  0  0
   82.8762   20.2584  -30.1973 H   0  0  0  0  0  0  0  0  0  0  0  0
   82.8788   21.6988  -29.1756 H   0  0  0  0  0  0  0  0  0  0  0  0
   83.0976   23.1412  -31.2097 H   0  0  0  0  0  0  0  0  0  0  0  0
   83.0951   21.7007  -32.2314 H   0  0  0  0  0  0  0  0  0  0  0  0
   85.1339   20.8582  -31.0484 H   0  0  0  0  0  0  0  0  0  0  0  0
   85.1364   22.2984  -30.0269 H   0  0  0  0  0  0  0  0  0  0  0  0
   85.3562   23.7410  -32.0624 H   0  0  0  0  0  0  0  0  0  0  0  0
   85.3556   22.2997  -33.0831 H   0  0  0  0  0  0  0  0  0  0  0  0
   87.3957   21.4612  -31.8977 H   0  0  0  0  0  0  0  0  0  0  0  0
   87.3965   22.9030  -30.8796 H   0  0  0  0  0  0  0  0  0  0  0  0
   87.6386   24.3425  -32.9178 H   0  0  0  0  0  0  0  0  0  0  0  0
   87.6377   22.9001  -33.9363 H   0  0  0  0  0  0  0  0  0  0  0  0
   89.6878   23.5178  -31.7445 H   0  0  0  0  0  0  0  0  0  0  0  0
   89.9526   23.6663  -33.4928 H   0  0  0  0  0  0  0  0  0  0  0  0
   89.6869   22.0687  -32.7678 H   0  0  0  0  0  0  0  0  0  0  0  0
  1  2  2  0  0  0  0
  2  3  1  0  0  0  0
  2 81  1  0  0  0  0
  3  4  1  0  0  0  0
  3 82  1  0  0  0  0
  3 83  1  0  0  0  0
  4  5  1  0  0  0  0
  4 84  1  0  0  0  0
  4 85  1  0  0  0  0
  5  6  1  0  0  0  0
  6  7  1  0  0  0  0
  6 86  1  0  0  0  0
  6 87  1  0  0  0  0
  7  8  1  0  0  0  0
  7 88  1  0  0  0  0
  7 89  1  0  0  0  0
  8  9  1  0  0  0  0
  9 10  1  0  0  0  0
 10 11  1  0  0  0  0
 11 12  1  0  0  0  0
 12 13  1  0  0  0  0
 13 14  1  0  0  0  0
 13 90  1  0  0  0  0
 13 91  1  0  0  0  0
 14 15  1  0  0  0  0
 14 92  1  0  0  0  0
 14 93  1  0  0  0  0
 15 16  1  0  0  0  0
 15 94  1  0  0  0  0
 15 95  1  0  0  0  0
 16 17  1  0  0  0  0
 16 96  1  0  0  0  0
 16 97  1  0  0  0  0
 17 18  1  0  0  0  0
 17 98  1  0  0  0  0
 17 99  1  0  0  0  0
 18 19  1  0  0  0  0
 18100  1  0  0  0  0
 18101  1  0  0  0  0
 19 20  1  0  0  0  0
 19102  1  0  0  0  0
 19103  1  0  0  0  0
 20 21  1  0  0  0  0
 20104  1  0  0  0  0
 20105  1  0  0  0  0
 21 22  1  0  0  0  0
 21106  1  0  0  0  0
 21107  1  0  0  0  0
 22 23  1  0  0  0  0
 22108  1  0  0  0  0
 22109  1  0  0  0  0
 23 24  1  0  0  0  0
 23110  1  0  0  0  0
 23111  1  0  0  0  0
 24 25  1  0  0  0  0
 24112  1  0  0  0  0
 24113  1  0  0  0  0
 25 26  1  0  0  0  0
 25114  1  0  0  0  0
 25115  1  0  0  0  0
 26 27  1  0  0  0  0
 26116  1  0  0  0  0
 26117  1  0  0  0  0
 27 28  1  0  0  0  0
 27118  1  0  0  0  0
 27119  1  0  0  0  0
 28 29  1  0  0  0  0
 28120  1  0  0  0  0
 28121  1  0  0  0  0
 29 30  1  0  0  0  0
 29122  1  0  0  0  0
 29123  1  0  0  0  0
 30 31  1  0  0  0  0
 30124  1  0  0  0  0
 30125  1  0  0  0  0
 31 32  1  0  0  0  0
 31126  1  0  0  0  0
 31127  1  0  0  0  0
 32 33  1  0  0  0  0
 32128  1  0  0  0  0
 32129  1  0  0  0  0
 33 34  1  0  0  0  0
 33130  1  0  0  0  0
 33131  1  0  0  0  0
 34 35  1  0  0  0  0
 34132  1  0  0  0  0
 34133  1  0  0  0  0
 35 36  1  0  0  0  0
 35134  1  0  0  0  0
 35135  1  0  0  0  0
 36 37  1  0  0  0  0
 36136  1  0  0  0  0
 36137  1  0  0  0  0
 37 38  1  0  0  0  0
 37138  1  0  0  0  0
 37139  1  0  0  0  0
 38 39  1  0  0  0  0
 38140  1  0  0  0  0
 38141  1  0  0  0  0
 39 40  1  0  0  0  0
 39142  1  0  0  0  0
 39143  1  0  0  0  0
 40 41  1  0  0  0  0
 40144  1  0  0  0  0
 40145  1  0  0  0  0
 41 42  1  0  0  0  0
 41146  1  0  0  0  0
 41147  1  0  0  0  0
 42 43  1  0  0  0  0
 42148  1  0  0  0  0
 42149  1  0  0  0  0
 43 44  1  0  0  0  0
 43150  1  0  0  0  0
 43151  1  0  0  0  0
 44 45  1  0  0  0  0
 44152  1  0  0  0  0
 44153  1  0  0  0  0
 45 46  1  0  0  0  0
 45154  1  0  0  0  0
 45155  1  0  0  0  0
 46 47  1  0  0  0  0
 46156  1  0  0  0  0
 46157  1  0  0  0  0
 47 48  1  0  0  0  0
 47158  1  0  0  0  0
 47159  1  0  0  0  0
 48 49  1  0  0  0  0
 48160  1  0  0  0  0
 48161  1  0  0  0  0
 49 50  1  0  0  0  0
 49162  1  0  0  0  0
 49163  1  0  0  0  0
 50 51  1  0  0  0  0
 50164  1  0  0  0  0
 50165  1  0  0  0  0
 51 52  1  0  0  0  0
 51166  1  0  0  0  0
 51167  1  0  0  0  0
 52 53  1  0  0  0  0
 52168  1  0  0  0  0
 52169  1  0  0  0  0
 53 54  1  0  0  0  0
 53170  1  0  0  0  0
 53171  1  0  0  0  0
 54 55  1  0  0  0  0
 54172  1  0  0  0  0
 54173  1  0  0  0  0
 55 56  1  0  0  0  0
 55174  1  0  0  0  0
 55175  1  0  0  0  0
 56 57  1  0  0  0  0
 56176  1  0  0  0  0
 56177  1  0  0  0  0
 57 58  1  0  0  0  0
 57178  1  0  0  0  0
 57179  1  0  0  0  0
 58 59  1  0  0  0  0
 58180  1  0  0  0  0
 58181  1  0  0  0  0
 59 60  1  0  0  0  0
 59182  1  0  0  0  0
 59183  1  0  0  0  0
 60 61  1  0  0  0  0
 60184  1  0  0  0  0
 60185  1  0  0  0  0
 61 62  1  0  0  0  0
 61186  1  0  0  0  0
 61187  1  0  0  0  0
 62 63  1  0  0  0  0
 62188  1  0  0  0  0
 62189  1  0  0  0  0
 63 64  1  0  0  0  0
 63190  1  0  0  0  0
 63191  1  0  0  0  0
 64 65  1  0  0  0  0
 64192  1  0  0  0  0
 64193  1  0  0  0  0
 65 66  1  0  0  0  0
 65194  1  0  0  0  0
 65195  1  0  0  0  0
 66 67  1  0  0  0  0
 66196  1  0  0  0  0
 66197  1  0  0  0  0
 67 68  1  0  0  0  0
 67198  1  0  0  0  0
 67199  1  0  0  0  0
 68 69  1  0  0  0  0
 68200  1  0  0  0  0
 68201  1  0  0  0  0
 69 70  1  0  0  0  0
 69202  1  0  0  0  0
 69203  1  0  0  0  0
 70 71  1  0  0  0  0
 70204  1  0  0  0  0
 70205  1  0  0  0  0
 71 72  1  0  0  0  0
 71206  1  0  0  0  0
 71207  1  0  0  0  0
 72 73  1  0  0  0  0
 72208  1  0  0  0  0
 72209  1  0  0  0  0
 73 74  1  0  0  0  0
 73210  1  0  0  0  0
 73211  1  0  0  0  0
 74 75  1  0  0  0  0
 74212  1  0  0  0  0
 74213  1  0  0  0  0
 75 76  1  0  0  0  0
 75214  1  0  0  0  0
 75215  1  0  0  0  0
 76 77  1  0  0  0  0
 76216  1  0  0  0  0
 76217  1  0  0  0  0
 77 78  1  0  0  0  0
 77218  1  0  0  0  0
 77219  1  0  0  0  0
 78 79  1  0  0  0  0
 78220  1  0  0  0  0
 78221  1  0  0  0  0
 79 80  1  0  0  0  0
 79222  1  0  0  0  0
 79223  1  0  0  0  0
 80224  1  0  0  0  0
 80225  1  0  0  0  0
 80226  1  0  0  0  0
M  END
$$$$
