
 OpenBabel04232216453D

 44 44  0  0  0  0  0  0  0  0999 V2000
    6.2570    0.2183    3.0902 C   0  0  0  0  0  0  0  0  0  0  0  0
    7.2870    1.1829    2.5000 C   0  0  0  0  0  0  0  0  0  0  0  0
    6.6481    2.1122    1.5548 C   0  0  0  0  0  0  0  0  0  0  0  0
    5.9819    1.9839    0.3886 C   0  0  0  0  0  0  0  0  0  0  0  0
    5.8147    0.7533   -0.4602 C   0  0  0  0  0  0  0  0  0  0  0  0
    5.4560    3.2745   -0.0918 C   0  0  0  0  0  0  0  0  0  0  0  0
    4.1629    3.7001    0.5482 C   0  0  0  0  0  0  0  0  0  0  0  0
    6.4238    4.1306   -0.4860 C   0  0  0  0  0  0  0  0  0  0  0  0
    7.0821    5.1121    0.4168 C   0  0  0  0  0  0  0  0  0  0  0  0
    6.4434    5.7244    1.6456 C   0  0  0  0  0  0  0  0  0  0  0  0
    8.4079    5.2445    0.2191 C   0  0  0  0  0  0  0  0  0  0  0  0
    9.3454    5.9243    1.0654 C   0  0  0  0  0  0  0  0  0  0  0  0
   10.6513    5.8792    0.7618 C   0  0  0  0  0  0  0  0  0  0  0  0
   11.6001    5.9135    1.8630 C   0  0  0  0  0  0  0  0  0  0  0  0
   11.9259    4.6603    2.2303 C   0  0  0  0  0  0  0  0  0  0  0  0
   13.2646    4.1425    1.7723 C   0  0  0  0  0  0  0  0  0  0  0  0
   11.2703    3.9317    3.3248 C   0  0  0  0  0  0  0  0  0  0  0  0
   10.2982    2.9647    3.3667 C   0  0  0  0  0  0  0  0  0  0  0  0
    9.3935    2.2435    2.3788 C   0  0  0  0  0  0  0  0  0  0  0  0
    9.5305    2.3863    1.1414 O   0  0  0  0  0  0  0  0  0  0  0  0
    8.5098    1.3358    2.9793 N   0  0  0  0  0  0  0  0  0  0  0  0
    5.6432    0.7589    3.8262 H   0  0  0  0  0  0  0  0  0  0  0  0
    6.6975   -0.6597    3.5533 H   0  0  0  0  0  0  0  0  0  0  0  0
    5.5542   -0.1158    2.3133 H   0  0  0  0  0  0  0  0  0  0  0  0
    6.6911    3.0899    2.0157 H   0  0  0  0  0  0  0  0  0  0  0  0
    4.7594    0.5296   -0.6400 H   0  0  0  0  0  0  0  0  0  0  0  0
    6.2711   -0.1296   -0.0053 H   0  0  0  0  0  0  0  0  0  0  0  0
    6.2967    0.8908   -1.4383 H   0  0  0  0  0  0  0  0  0  0  0  0
    3.3302    3.1067    0.1615 H   0  0  0  0  0  0  0  0  0  0  0  0
    3.9411    4.7488    0.3198 H   0  0  0  0  0  0  0  0  0  0  0  0
    4.1908    3.5816    1.6360 H   0  0  0  0  0  0  0  0  0  0  0  0
    7.1915    3.6414   -1.1030 H   0  0  0  0  0  0  0  0  0  0  0  0
    5.3872    5.5057    1.7771 H   0  0  0  0  0  0  0  0  0  0  0  0
    6.5458    6.8136    1.6280 H   0  0  0  0  0  0  0  0  0  0  0  0
    6.9353    5.3597    2.5607 H   0  0  0  0  0  0  0  0  0  0  0  0
    8.8909    4.6360   -0.5474 H   0  0  0  0  0  0  0  0  0  0  0  0
    9.0265    6.2395    2.0549 H   0  0  0  0  0  0  0  0  0  0  0  0
   10.9987    5.4720   -0.1881 H   0  0  0  0  0  0  0  0  0  0  0  0
   11.1997    6.6121    2.6004 H   0  0  0  0  0  0  0  0  0  0  0  0
   13.1629    3.1658    1.3016 H   0  0  0  0  0  0  0  0  0  0  0  0
   13.9551    4.0735    2.6195 H   0  0  0  0  0  0  0  0  0  0  0  0
   13.7350    4.8188    1.0415 H   0  0  0  0  0  0  0  0  0  0  0  0
   11.7072    4.2180    4.2830 H   0  0  0  0  0  0  0  0  0  0  0  0
   10.1022    2.5956    4.3764 H   0  0  0  0  0  0  0  0  0  0  0  0
  1  2  1  0  0  0  0
  1 22  1  0  0  0  0
  1 23  1  0  0  0  0
  1 24  1  0  0  0  0
  2  3  1  0  0  0  0
  2 21  2  3  0  0  0
  3  4  2  3  0  0  0
  3 25  1  0  0  0  0
  4  5  1  0  0  0  0
  4  6  1  0  0  0  0
  5 26  1  0  0  0  0
  5 27  1  0  0  0  0
  5 28  1  0  0  0  0
  6  7  1  0  0  0  0
  6  8  2  3  0  0  0
  7 29  1  0  0  0  0
  7 30  1  0  0  0  0
  7 31  1  0  0  0  0
  8  9  1  0  0  0  0
  8 32  1  0  0  0  0
  9 10  1  0  0  0  0
  9 11  2  3  0  0  0
 10 33  1  0  0  0  0
 10 34  1  0  0  0  0
 10 35  1  0  0  0  0
 11 12  1  0  0  0  0
 11 36  1  0  0  0  0
 12 13  2  3  0  0  0
 12 37  1  0  0  0  0
 13 14  1  0  0  0  0
 13 38  1  0  0  0  0
 14 15  2  3  0  0  0
 14 39  1  0  0  0  0
 15 16  1  0  0  0  0
 15 17  1  0  0  0  0
 16 40  1  0  0  0  0
 16 41  1  0  0  0  0
 16 42  1  0  0  0  0
 17 18  2  3  0  0  0
 17 43  1  0  0  0  0
 18 19  1  0  0  0  0
 18 44  1  0  0  0  0
 19 20  2  0  0  0  0
 19 21  1  0  0  0  0
M  END
$$$$
