
 OpenBabel04232216463D

 56 56  0  0  0  0  0  0  0  0999 V2000
    5.9277   -3.7059   -0.5113 C   0  0  0  0  0  0  0  0  0  0  0  0
    6.7257   -3.4080    0.7283 C   0  0  0  0  0  0  0  0  0  0  0  0
    5.7566   -2.7168    1.6137 C   0  0  0  0  0  0  0  0  0  0  0  0
    5.1645   -1.4838    1.6405 C   0  0  0  0  0  0  0  0  0  0  0  0
    4.7214   -0.4380    0.6185 C   0  0  0  0  0  0  0  0  0  0  0  0
    5.4390   -0.8736    2.8626 N   0  0  0  0  0  0  0  0  0  0  0  0
    6.7454   -0.6991    2.9319 C   0  0  0  0  0  0  0  0  0  0  0  0
    7.4811   -0.0898    1.7260 C   0  0  0  0  0  0  0  0  0  0  0  0
    7.4834   -1.4689    4.0405 C   0  0  0  0  0  0  0  0  0  0  0  0
    6.5178   -2.4881    4.7105 C   0  0  0  0  0  0  0  0  0  0  0  0
    8.8303   -1.6010    4.2583 C   0  0  0  0  0  0  0  0  0  0  0  0
    9.9977   -1.0784    3.3926 C   0  0  0  0  0  0  0  0  0  0  0  0
   10.1865    0.3484    2.8651 C   0  0  0  0  0  0  0  0  0  0  0  0
   10.7512    1.4057    3.7729 C   0  0  0  0  0  0  0  0  0  0  0  0
    9.7495    1.7880    4.8456 C   0  0  0  0  0  0  0  0  0  0  0  0
    9.2324   -2.7394    5.1300 C   0  0  0  0  0  0  0  0  0  0  0  0
   10.3670   -2.9741    5.8021 C   0  0  0  0  0  0  0  0  0  0  0  0
   10.6166   -4.4304    6.0732 C   0  0  0  0  0  0  0  0  0  0  0  0
   11.5021   -5.0488    5.3279 N   0  0  0  0  0  0  0  0  0  0  0  0
   10.8388   -5.2866    4.1169 N   0  0  0  0  0  0  0  0  0  0  0  0
   11.4216   -4.7392    3.0815 C   0  0  0  0  0  0  0  0  0  0  0  0
   12.9496   -4.3872    3.1294 C   0  0  0  0  0  0  0  0  0  0  0  0
   10.5161   -4.4143    1.8323 C   0  0  0  0  0  0  0  0  0  0  0  0
    9.1601   -4.1989    1.9309 C   0  0  0  0  0  0  0  0  0  0  0  0
    8.0951   -3.6413    0.8972 C   0  0  0  0  0  0  0  0  0  0  0  0
    5.1525   -4.4464   -0.2681 H   0  0  0  0  0  0  0  0  0  0  0  0
    6.5296   -4.0644   -1.3386 H   0  0  0  0  0  0  0  0  0  0  0  0
    5.3862   -2.8122   -0.8596 H   0  0  0  0  0  0  0  0  0  0  0  0
    5.6235   -3.2927    2.5296 H   0  0  0  0  0  0  0  0  0  0  0  0
    3.6278   -0.3933    0.5560 H   0  0  0  0  0  0  0  0  0  0  0  0
    5.1269   -0.6103   -0.3751 H   0  0  0  0  0  0  0  0  0  0  0  0
    5.0106    0.5888    0.9224 H   0  0  0  0  0  0  0  0  0  0  0  0
    7.0011   -0.1869    0.7518 H   0  0  0  0  0  0  0  0  0  0  0  0
    8.4014   -0.5944    1.5107 H   0  0  0  0  0  0  0  0  0  0  0  0
    7.5390    1.0085    1.9124 H   0  0  0  0  0  0  0  0  0  0  0  0
    5.4520   -2.2647    4.6231 H   0  0  0  0  0  0  0  0  0  0  0  0
    6.7013   -2.6372    5.7746 H   0  0  0  0  0  0  0  0  0  0  0  0
    6.6550   -3.4648    4.2157 H   0  0  0  0  0  0  0  0  0  0  0  0
    9.9350   -1.6877    2.4832 H   0  0  0  0  0  0  0  0  0  0  0  0
   10.9631   -1.3872    3.8072 H   0  0  0  0  0  0  0  0  0  0  0  0
    9.2650    0.7989    2.5539 H   0  0  0  0  0  0  0  0  0  0  0  0
   10.7932    0.2876    1.9504 H   0  0  0  0  0  0  0  0  0  0  0  0
   10.9364    2.2903    3.1492 H   0  0  0  0  0  0  0  0  0  0  0  0
   11.7090    1.0907    4.1933 H   0  0  0  0  0  0  0  0  0  0  0  0
    8.7703    2.0313    4.4072 H   0  0  0  0  0  0  0  0  0  0  0  0
   10.0984    2.6710    5.3837 H   0  0  0  0  0  0  0  0  0  0  0  0
    9.6077    0.9717    5.5561 H   0  0  0  0  0  0  0  0  0  0  0  0
    8.5534   -3.5969    5.0790 H   0  0  0  0  0  0  0  0  0  0  0  0
   11.1988   -2.2901    5.8669 H   0  0  0  0  0  0  0  0  0  0  0  0
    9.7071   -5.0098    6.3115 H   0  0  0  0  0  0  0  0  0  0  0  0
   13.2604   -3.6317    2.4004 H   0  0  0  0  0  0  0  0  0  0  0  0
   13.5579   -5.2930    2.9754 H   0  0  0  0  0  0  0  0  0  0  0  0
   13.2690   -4.0109    4.1141 H   0  0  0  0  0  0  0  0  0  0  0  0
   11.0992   -4.2886    0.9221 H   0  0  0  0  0  0  0  0  0  0  0  0
    8.7416   -4.3250    2.9271 H   0  0  0  0  0  0  0  0  0  0  0  0
    8.2859   -2.7060    1.4628 H   0  0  0  0  0  0  0  0  0  0  0  0
  1  2  1  0  0  0  0
  1 26  1  0  0  0  0
  1 27  1  0  0  0  0
  1 28  1  0  0  0  0
  2  3  1  0  0  0  0
  2 25  2  3  0  0  0
  3  4  2  3  0  0  0
  3 29  1  0  0  0  0
  4  5  1  0  0  0  0
  4  6  1  0  0  0  0
  5 30  1  0  0  0  0
  5 31  1  0  0  0  0
  5 32  1  0  0  0  0
  6  7  2  3  0  0  0
  7  8  1  0  0  0  0
  7  9  1  0  0  0  0
  8 33  1  0  0  0  0
  8 34  1  0  0  0  0
  8 35  1  0  0  0  0
  9 10  1  0  0  0  0
  9 11  2  3  0  0  0
 10 36  1  0  0  0  0
 10 37  1  0  0  0  0
 10 38  1  0  0  0  0
 11 12  1  0  0  0  0
 11 16  1  0  0  0  0
 12 13  1  0  0  0  0
 12 39  1  0  0  0  0
 12 40  1  0  0  0  0
 13 14  1  0  0  0  0
 13 41  1  0  0  0  0
 13 42  1  0  0  0  0
 14 15  1  0  0  0  0
 14 43  1  0  0  0  0
 14 44  1  0  0  0  0
 15 45  1  0  0  0  0
 15 46  1  0  0  0  0
 15 47  1  0  0  0  0
 16 17  2  3  0  0  0
 16 48  1  0  0  0  0
 17 18  1  0  0  0  0
 17 49  1  0  0  0  0
 18 19  2  3  0  0  0
 18 50  1  0  0  0  0
 19 20  1  0  0  0  0
 20 21  2  3  0  0  0
 21 22  1  0  0  0  0
 21 23  1  0  0  0  0
 22 51  1  0  0  0  0
 22 52  1  0  0  0  0
 22 53  1  0  0  0  0
 23 24  2  3  0  0  0
 23 54  1  0  0  0  0
 24 25  1  0  0  0  0
 24 55  1  0  0  0  0
 25 56  1  0  0  0  0
M  END
$$$$
