
 OpenBabel04232216563D

242241  0  0  0  0  0  0  0  0999 V2000
    0.9046   -0.7555   -4.7902 C   0  0  0  0  0  0  0  0  0  0  0  0
    2.3599   -0.7583   -4.7836 N   0  0  0  0  0  0  0  0  0  0  0  0
    2.8578    0.1327   -3.7398 C   0  0  0  0  0  0  0  0  0  0  0  0
    4.3793    0.1292   -3.7371 C   0  0  0  0  0  0  0  0  0  0  0  0
    4.9142    1.0535   -2.6463 C   0  0  0  0  0  0  0  0  0  0  0  0
    6.4314    1.0488   -2.6368 C   0  0  0  0  0  0  0  0  0  0  0  0
    6.9110    1.5027   -3.9030 O   0  0  0  0  0  0  0  0  0  0  0  0
    8.3308    1.4868   -3.9148 C   0  0  0  0  0  0  0  0  0  0  0  0
    8.8223    1.9597   -5.2666 C   0  0  0  0  0  0  0  0  0  0  0  0
   10.3416    1.9602   -5.2814 C   0  0  0  0  0  0  0  0  0  0  0  0
   10.8540    2.4304   -6.6282 C   0  0  0  0  0  0  0  0  0  0  0  0
   12.3743    2.4265   -6.6343 C   0  0  0  0  0  0  0  0  0  0  0  0
   12.8853    2.8993   -7.9822 C   0  0  0  0  0  0  0  0  0  0  0  0
   14.4026    2.8973   -7.9885 C   0  0  0  0  0  0  0  0  0  0  0  0
   14.9126    3.3702   -9.3364 C   0  0  0  0  0  0  0  0  0  0  0  0
   16.4289    3.3696   -9.3419 C   0  0  0  0  0  0  0  0  0  0  0  0
   16.9399    3.8439  -10.6884 C   0  0  0  0  0  0  0  0  0  0  0  0
   18.4556    3.8427  -10.6955 C   0  0  0  0  0  0  0  0  0  0  0  0
   18.9668    4.3189  -12.0404 C   0  0  0  0  0  0  0  0  0  0  0  0
   20.4824    4.3187  -12.0472 C   0  0  0  0  0  0  0  0  0  0  0  0
   20.9937    4.7971  -13.3914 C   0  0  0  0  0  0  0  0  0  0  0  0
   22.5092    4.7957  -13.3988 C   0  0  0  0  0  0  0  0  0  0  0  0
   23.0204    5.2751  -14.7425 C   0  0  0  0  0  0  0  0  0  0  0  0
   24.5359    5.2722  -14.7504 C   0  0  0  0  0  0  0  0  0  0  0  0
   25.0471    5.7520  -16.0939 C   0  0  0  0  0  0  0  0  0  0  0  0
   26.5625    5.7500  -16.1015 C   0  0  0  0  0  0  0  0  0  0  0  0
   27.0738    6.2301  -17.4449 C   0  0  0  0  0  0  0  0  0  0  0  0
   28.5892    6.2286  -17.4523 C   0  0  0  0  0  0  0  0  0  0  0  0
   29.1004    6.7084  -18.7957 C   0  0  0  0  0  0  0  0  0  0  0  0
   30.6158    6.7067  -18.8032 C   0  0  0  0  0  0  0  0  0  0  0  0
   31.1271    7.1864  -20.1468 C   0  0  0  0  0  0  0  0  0  0  0  0
   32.6425    7.1850  -20.1542 C   0  0  0  0  0  0  0  0  0  0  0  0
   33.1537    7.6646  -21.4978 C   0  0  0  0  0  0  0  0  0  0  0  0
   34.6692    7.6648  -21.5044 C   0  0  0  0  0  0  0  0  0  0  0  0
   35.1804    8.1454  -22.8477 C   0  0  0  0  0  0  0  0  0  0  0  0
   36.6958    8.1472  -22.8539 C   0  0  0  0  0  0  0  0  0  0  0  0
   37.2069    8.6285  -24.1971 C   0  0  0  0  0  0  0  0  0  0  0  0
   38.7225    8.6293  -24.2035 C   0  0  0  0  0  0  0  0  0  0  0  0
   39.2337    9.1096  -25.5468 C   0  0  0  0  0  0  0  0  0  0  0  0
   40.7491    9.1113  -25.5531 C   0  0  0  0  0  0  0  0  0  0  0  0
   41.2604    9.5929  -26.8959 C   0  0  0  0  0  0  0  0  0  0  0  0
   42.7758    9.5953  -26.9019 C   0  0  0  0  0  0  0  0  0  0  0  0
   43.2871   10.0772  -28.2446 C   0  0  0  0  0  0  0  0  0  0  0  0
   44.8025   10.0795  -28.2508 C   0  0  0  0  0  0  0  0  0  0  0  0
   45.3137   10.5613  -29.5935 C   0  0  0  0  0  0  0  0  0  0  0  0
   46.8291   10.5635  -29.5996 C   0  0  0  0  0  0  0  0  0  0  0  0
   47.3404   11.0455  -30.9423 C   0  0  0  0  0  0  0  0  0  0  0  0
   48.8558   11.0475  -30.9485 C   0  0  0  0  0  0  0  0  0  0  0  0
   49.3670   11.5294  -32.2912 C   0  0  0  0  0  0  0  0  0  0  0  0
   50.8824   11.5294  -32.2981 C   0  0  0  0  0  0  0  0  0  0  0  0
   51.3937   12.0112  -33.6409 C   0  0  0  0  0  0  0  0  0  0  0  0
   52.9092   12.0102  -33.6480 C   0  0  0  0  0  0  0  0  0  0  0  0
   53.4203   12.4933  -34.9904 C   0  0  0  0  0  0  0  0  0  0  0  0
   54.9358   12.4931  -34.9973 C   0  0  0  0  0  0  0  0  0  0  0  0
   55.4470   12.9758  -36.3399 C   0  0  0  0  0  0  0  0  0  0  0  0
   56.9624   12.9740  -36.3473 C   0  0  0  0  0  0  0  0  0  0  0  0
   57.4736   13.4571  -37.6897 C   0  0  0  0  0  0  0  0  0  0  0  0
   58.9891   13.4541  -37.6976 C   0  0  0  0  0  0  0  0  0  0  0  0
   59.5003   13.9377  -39.0397 C   0  0  0  0  0  0  0  0  0  0  0  0
   61.0158   13.9358  -39.0473 C   0  0  0  0  0  0  0  0  0  0  0  0
   61.5270   14.4196  -40.3893 C   0  0  0  0  0  0  0  0  0  0  0  0
   63.0424   14.4181  -40.3968 C   0  0  0  0  0  0  0  0  0  0  0  0
   63.5537   14.9018  -41.7388 C   0  0  0  0  0  0  0  0  0  0  0  0
   65.0691   14.9002  -41.7463 C   0  0  0  0  0  0  0  0  0  0  0  0
   65.5803   15.3839  -43.0884 C   0  0  0  0  0  0  0  0  0  0  0  0
   67.0957   15.3824  -43.0958 C   0  0  0  0  0  0  0  0  0  0  0  0
   67.6070   15.8662  -44.4379 C   0  0  0  0  0  0  0  0  0  0  0  0
   69.1224   15.8644  -44.4454 C   0  0  0  0  0  0  0  0  0  0  0  0
   69.6337   16.3480  -45.7875 C   0  0  0  0  0  0  0  0  0  0  0  0
   71.1493   16.3448  -45.7956 C   0  0  0  0  0  0  0  0  0  0  0  0
   71.6607   16.8284  -47.1382 C   0  0  0  0  0  0  0  0  0  0  0  0
   73.1769   16.8246  -47.1459 C   0  0  0  0  0  0  0  0  0  0  0  0
   73.6871   17.3087  -48.4893 C   0  0  0  0  0  0  0  0  0  0  0  0
   75.2036   17.3047  -48.4957 C   0  0  0  0  0  0  0  0  0  0  0  0
   75.7139   17.7890  -49.8396 C   0  0  0  0  0  0  0  0  0  0  0  0
   77.2310   17.7870  -49.8459 C   0  0  0  0  0  0  0  0  0  0  0  0
   77.7430   18.2714  -51.1899 C   0  0  0  0  0  0  0  0  0  0  0  0
   79.2616   18.2698  -51.1974 C   0  0  0  0  0  0  0  0  0  0  0  0
   79.7768   18.7524  -52.5426 C   0  0  0  0  0  0  0  0  0  0  0  0
   81.2981   18.7521  -52.5597 C   0  0  0  0  0  0  0  0  0  0  0  0
   81.8091   19.2341  -53.9030 C   0  0  0  0  0  0  0  0  0  0  0  0
    0.5365   -1.4198   -5.5775 H   0  0  0  0  0  0  0  0  0  0  0  0
    0.5130    0.2491   -4.9789 H   0  0  0  0  0  0  0  0  0  0  0  0
    0.5084   -1.1208   -3.8357 H   0  0  0  0  0  0  0  0  0  0  0  0
    2.7115   -0.4422   -5.6898 H   0  0  0  0  0  0  0  0  0  0  0  0
    2.4944   -0.1986   -2.7580 H   0  0  0  0  0  0  0  0  0  0  0  0
    2.4985    1.1540   -3.9105 H   0  0  0  0  0  0  0  0  0  0  0  0
    4.7530    0.4507   -4.7187 H   0  0  0  0  0  0  0  0  0  0  0  0
    4.7548   -0.8880   -3.5683 H   0  0  0  0  0  0  0  0  0  0  0  0
    4.5471    0.7363   -1.6618 H   0  0  0  0  0  0  0  0  0  0  0  0
    4.5524    2.0755   -2.8201 H   0  0  0  0  0  0  0  0  0  0  0  0
    6.7993    0.0325   -2.4529 H   0  0  0  0  0  0  0  0  0  0  0  0
    6.8031    1.7146   -1.8542 H   0  0  0  0  0  0  0  0  0  0  0  0
    8.6886    0.4685   -3.7223 H   0  0  0  0  0  0  0  0  0  0  0  0
    8.7022    2.1524   -3.1277 H   0  0  0  0  0  0  0  0  0  0  0  0
    8.4345    2.9641   -5.4765 H   0  0  0  0  0  0  0  0  0  0  0  0
    8.4294    1.3093   -6.0581 H   0  0  0  0  0  0  0  0  0  0  0  0
   10.7177    0.9509   -5.0721 H   0  0  0  0  0  0  0  0  0  0  0  0
   10.7225    2.6162   -4.4886 H   0  0  0  0  0  0  0  0  0  0  0  0
   10.4853    3.4417   -6.8368 H   0  0  0  0  0  0  0  0  0  0  0  0
   10.4785    1.7746   -7.4220 H   0  0  0  0  0  0  0  0  0  0  0  0
   12.7471    1.4155   -6.4274 H   0  0  0  0  0  0  0  0  0  0  0  0
   12.7540    3.0816   -5.8403 H   0  0  0  0  0  0  0  0  0  0  0  0
   12.5129    3.9097   -8.1902 H   0  0  0  0  0  0  0  0  0  0  0  0
   12.5081    2.2437   -8.7764 H   0  0  0  0  0  0  0  0  0  0  0  0
   14.7762    1.8871   -7.7811 H   0  0  0  0  0  0  0  0  0  0  0  0
   14.7807    3.5531   -7.1948 H   0  0  0  0  0  0  0  0  0  0  0  0
   14.5386    4.3800   -9.5448 H   0  0  0  0  0  0  0  0  0  0  0  0
   14.5362    2.7139  -10.1303 H   0  0  0  0  0  0  0  0  0  0  0  0
   16.8040    2.3601   -9.1350 H   0  0  0  0  0  0  0  0  0  0  0  0
   16.8063    4.0247   -8.5480 H   0  0  0  0  0  0  0  0  0  0  0  0
   16.5666    4.8545  -10.8950 H   0  0  0  0  0  0  0  0  0  0  0  0
   16.5620    3.1903  -11.4838 H   0  0  0  0  0  0  0  0  0  0  0  0
   18.8297    2.8322  -10.4901 H   0  0  0  0  0  0  0  0  0  0  0  0
   18.8342    4.4958   -9.8994 H   0  0  0  0  0  0  0  0  0  0  0  0
   18.5922    5.3292  -12.2467 H   0  0  0  0  0  0  0  0  0  0  0  0
   18.5898    3.6653  -12.8367 H   0  0  0  0  0  0  0  0  0  0  0  0
   20.8575    3.3085  -11.8424 H   0  0  0  0  0  0  0  0  0  0  0  0
   20.8599    4.9718  -11.2504 H   0  0  0  0  0  0  0  0  0  0  0  0
   20.6199    5.8082  -13.5955 H   0  0  0  0  0  0  0  0  0  0  0  0
   20.6154    4.1455  -14.1887 H   0  0  0  0  0  0  0  0  0  0  0  0
   22.8829    3.7844  -13.1961 H   0  0  0  0  0  0  0  0  0  0  0  0
   22.8878    5.4463  -12.6008 H   0  0  0  0  0  0  0  0  0  0  0  0
   22.6478    6.2872  -14.9444 H   0  0  0  0  0  0  0  0  0  0  0  0
   22.6408    4.6256  -15.5408 H   0  0  0  0  0  0  0  0  0  0  0  0
   24.9085    4.2603  -14.5484 H   0  0  0  0  0  0  0  0  0  0  0  0
   24.9154    5.9219  -13.9521 H   0  0  0  0  0  0  0  0  0  0  0  0
   24.6734    6.7633  -16.2966 H   0  0  0  0  0  0  0  0  0  0  0  0
   24.6686    5.1013  -16.8920 H   0  0  0  0  0  0  0  0  0  0  0  0
   26.9363    4.7388  -15.8987 H   0  0  0  0  0  0  0  0  0  0  0  0
   26.9410    6.4008  -15.3033 H   0  0  0  0  0  0  0  0  0  0  0  0
   26.7000    7.2415  -17.6475 H   0  0  0  0  0  0  0  0  0  0  0  0
   26.6953    5.5795  -18.2430 H   0  0  0  0  0  0  0  0  0  0  0  0
   28.9630    5.2172  -17.2496 H   0  0  0  0  0  0  0  0  0  0  0  0
   28.9676    6.8792  -16.6542 H   0  0  0  0  0  0  0  0  0  0  0  0
   28.7266    7.7198  -18.9984 H   0  0  0  0  0  0  0  0  0  0  0  0
   28.7219    6.0578  -19.5939 H   0  0  0  0  0  0  0  0  0  0  0  0
   30.9896    5.6955  -18.6005 H   0  0  0  0  0  0  0  0  0  0  0  0
   30.9943    7.3574  -18.0051 H   0  0  0  0  0  0  0  0  0  0  0  0
   30.7533    8.1979  -20.3493 H   0  0  0  0  0  0  0  0  0  0  0  0
   30.7486    6.5360  -20.9449 H   0  0  0  0  0  0  0  0  0  0  0  0
   33.0163    6.1737  -19.9514 H   0  0  0  0  0  0  0  0  0  0  0  0
   33.0209    7.8357  -19.3560 H   0  0  0  0  0  0  0  0  0  0  0  0
   32.7789    8.6756  -21.7009 H   0  0  0  0  0  0  0  0  0  0  0  0
   32.7763    7.0134  -22.2957 H   0  0  0  0  0  0  0  0  0  0  0  0
   35.0442    6.6543  -21.3010 H   0  0  0  0  0  0  0  0  0  0  0  0
   35.0463    8.3166  -20.7064 H   0  0  0  0  0  0  0  0  0  0  0  0
   34.8043    9.1555  -23.0517 H   0  0  0  0  0  0  0  0  0  0  0  0
   34.8043    7.4930  -23.6456 H   0  0  0  0  0  0  0  0  0  0  0  0
   37.0718    7.1368  -22.6512 H   0  0  0  0  0  0  0  0  0  0  0  0
   37.0721    8.7986  -22.0552 H   0  0  0  0  0  0  0  0  0  0  0  0
   36.8322    9.6399  -24.3986 H   0  0  0  0  0  0  0  0  0  0  0  0
   36.8297    7.9785  -24.9958 H   0  0  0  0  0  0  0  0  0  0  0  0
   39.0976    7.6187  -24.0002 H   0  0  0  0  0  0  0  0  0  0  0  0
   39.0996    9.2808  -23.4054 H   0  0  0  0  0  0  0  0  0  0  0  0
   38.8576   10.1197  -25.7509 H   0  0  0  0  0  0  0  0  0  0  0  0
   38.8576    8.4571  -26.3447 H   0  0  0  0  0  0  0  0  0  0  0  0
   41.1252    8.1009  -25.3504 H   0  0  0  0  0  0  0  0  0  0  0  0
   41.1253    9.7627  -24.7543 H   0  0  0  0  0  0  0  0  0  0  0  0
   40.8843   10.6036  -27.0983 H   0  0  0  0  0  0  0  0  0  0  0  0
   40.8842    8.9420  -27.6947 H   0  0  0  0  0  0  0  0  0  0  0  0
   43.1520    8.5849  -26.6993 H   0  0  0  0  0  0  0  0  0  0  0  0
   43.1519   10.2466  -26.1031 H   0  0  0  0  0  0  0  0  0  0  0  0
   42.9109   11.0877  -28.4472 H   0  0  0  0  0  0  0  0  0  0  0  0
   42.9109    9.4261  -29.0434 H   0  0  0  0  0  0  0  0  0  0  0  0
   45.1786    9.0690  -28.0482 H   0  0  0  0  0  0  0  0  0  0  0  0
   45.1786   10.7307  -27.4520 H   0  0  0  0  0  0  0  0  0  0  0  0
   44.9376   11.5717  -29.7961 H   0  0  0  0  0  0  0  0  0  0  0  0
   44.9376    9.9100  -30.3923 H   0  0  0  0  0  0  0  0  0  0  0  0
   47.2052    9.5530  -29.3971 H   0  0  0  0  0  0  0  0  0  0  0  0
   47.2053   11.2147  -28.8008 H   0  0  0  0  0  0  0  0  0  0  0  0
   46.9642   12.0558  -31.1450 H   0  0  0  0  0  0  0  0  0  0  0  0
   46.9643   10.3941  -31.7411 H   0  0  0  0  0  0  0  0  0  0  0  0
   49.2318   10.0369  -30.7459 H   0  0  0  0  0  0  0  0  0  0  0  0
   49.2320   11.6986  -30.1497 H   0  0  0  0  0  0  0  0  0  0  0  0
   48.9920   12.5403  -32.4932 H   0  0  0  0  0  0  0  0  0  0  0  0
   48.9898   10.8789  -33.0901 H   0  0  0  0  0  0  0  0  0  0  0  0
   51.2574   10.5184  -32.0961 H   0  0  0  0  0  0  0  0  0  0  0  0
   51.2598   12.1798  -31.4992 H   0  0  0  0  0  0  0  0  0  0  0  0
   51.0198   13.0228  -33.8420 H   0  0  0  0  0  0  0  0  0  0  0  0
   51.0153   11.3617  -34.4400 H   0  0  0  0  0  0  0  0  0  0  0  0
   53.2828   10.9980  -33.4484 H   0  0  0  0  0  0  0  0  0  0  0  0
   53.2876   12.6583  -32.8481 H   0  0  0  0  0  0  0  0  0  0  0  0
   53.0455   13.5047  -35.1910 H   0  0  0  0  0  0  0  0  0  0  0  0
   53.0429   11.8441  -35.7901 H   0  0  0  0  0  0  0  0  0  0  0  0
   55.3108   11.4823  -34.7953 H   0  0  0  0  0  0  0  0  0  0  0  0
   55.3130   13.1438  -34.1983 H   0  0  0  0  0  0  0  0  0  0  0  0
   55.0731   13.9872  -36.5411 H   0  0  0  0  0  0  0  0  0  0  0  0
   55.0687   12.3261  -37.1390 H   0  0  0  0  0  0  0  0  0  0  0  0
   57.3361   11.9620  -36.1475 H   0  0  0  0  0  0  0  0  0  0  0  0
   57.3410   13.6223  -35.5474 H   0  0  0  0  0  0  0  0  0  0  0  0
   57.1011   14.4697  -37.8887 H   0  0  0  0  0  0  0  0  0  0  0  0
   57.0940   12.8098  -38.4898 H   0  0  0  0  0  0  0  0  0  0  0  0
   59.3617   12.4416  -37.4985 H   0  0  0  0  0  0  0  0  0  0  0  0
   59.3687   14.1015  -36.8974 H   0  0  0  0  0  0  0  0  0  0  0  0
   59.1266   14.9496  -39.2396 H   0  0  0  0  0  0  0  0  0  0  0  0
   59.1218   13.2893  -39.8397 H   0  0  0  0  0  0  0  0  0  0  0  0
   61.3895   12.9240  -38.8473 H   0  0  0  0  0  0  0  0  0  0  0  0
   61.3942   14.5843  -38.2473 H   0  0  0  0  0  0  0  0  0  0  0  0
   61.1532   15.4316  -40.5891 H   0  0  0  0  0  0  0  0  0  0  0  0
   61.1485   13.7713  -41.1893 H   0  0  0  0  0  0  0  0  0  0  0  0
   63.4162   13.4062  -40.1969 H   0  0  0  0  0  0  0  0  0  0  0  0
   63.4209   15.0665  -39.5968 H   0  0  0  0  0  0  0  0  0  0  0  0
   63.1799   15.9137  -41.9387 H   0  0  0  0  0  0  0  0  0  0  0  0
   63.1752   14.2534  -42.5388 H   0  0  0  0  0  0  0  0  0  0  0  0
   65.4428   13.8883  -41.5465 H   0  0  0  0  0  0  0  0  0  0  0  0
   65.4475   15.5485  -40.9463 H   0  0  0  0  0  0  0  0  0  0  0  0
   65.2066   16.3958  -43.2882 H   0  0  0  0  0  0  0  0  0  0  0  0
   65.2019   14.7355  -43.8884 H   0  0  0  0  0  0  0  0  0  0  0  0
   67.4695   14.3704  -42.8960 H   0  0  0  0  0  0  0  0  0  0  0  0
   67.4742   16.0306  -42.2958 H   0  0  0  0  0  0  0  0  0  0  0  0
   67.2332   16.8780  -44.6378 H   0  0  0  0  0  0  0  0  0  0  0  0
   67.2285   15.2177  -45.2378 H   0  0  0  0  0  0  0  0  0  0  0  0
   69.4961   14.8524  -44.2456 H   0  0  0  0  0  0  0  0  0  0  0  0
   69.5009   16.5127  -43.6454 H   0  0  0  0  0  0  0  0  0  0  0  0
   69.2610   17.3605  -45.9867 H   0  0  0  0  0  0  0  0  0  0  0  0
   69.2541   15.7005  -46.5876 H   0  0  0  0  0  0  0  0  0  0  0  0
   71.5216   15.3322  -45.5965 H   0  0  0  0  0  0  0  0  0  0  0  0
   71.5287   16.9921  -44.9954 H   0  0  0  0  0  0  0  0  0  0  0  0
   71.2877   17.8407  -47.3370 H   0  0  0  0  0  0  0  0  0  0  0  0
   71.2807   16.1807  -47.9379 H   0  0  0  0  0  0  0  0  0  0  0  0
   73.5484   15.8121  -46.9467 H   0  0  0  0  0  0  0  0  0  0  0  0
   73.5555   17.4723  -46.3457 H   0  0  0  0  0  0  0  0  0  0  0  0
   73.3144   18.3210  -48.6873 H   0  0  0  0  0  0  0  0  0  0  0  0
   73.3073   16.6607  -49.2884 H   0  0  0  0  0  0  0  0  0  0  0  0
   75.5753   16.2921  -48.2970 H   0  0  0  0  0  0  0  0  0  0  0  0
   75.5823   17.9527  -47.6959 H   0  0  0  0  0  0  0  0  0  0  0  0
   75.3402   18.8009  -50.0383 H   0  0  0  0  0  0  0  0  0  0  0  0
   75.3353   17.1400  -50.6387 H   0  0  0  0  0  0  0  0  0  0  0  0
   77.6035   16.7748  -49.6464 H   0  0  0  0  0  0  0  0  0  0  0  0
   77.6082   18.4358  -49.0460 H   0  0  0  0  0  0  0  0  0  0  0  0
   77.3685   19.2832  -51.3885 H   0  0  0  0  0  0  0  0  0  0  0  0
   77.3637   17.6222  -51.9888 H   0  0  0  0  0  0  0  0  0  0  0  0
   79.6329   17.2574  -50.9956 H   0  0  0  0  0  0  0  0  0  0  0  0
   79.6376   18.9194  -50.3974 H   0  0  0  0  0  0  0  0  0  0  0  0
   79.4005   19.7637  -52.7408 H   0  0  0  0  0  0  0  0  0  0  0  0
   79.3936   18.1029  -53.3394 H   0  0  0  0  0  0  0  0  0  0  0  0
   81.6735   17.7410  -52.3632 H   0  0  0  0  0  0  0  0  0  0  0  0
   81.6805   19.4025  -51.7643 H   0  0  0  0  0  0  0  0  0  0  0  0
   81.4528   18.5825  -54.7076 H   0  0  0  0  0  0  0  0  0  0  0  0
   82.9013   19.2338  -53.9150 H   0  0  0  0  0  0  0  0  0  0  0  0
   81.4599   20.2518  -54.1059 H   0  0  0  0  0  0  0  0  0  0  0  0
  1  2  1  0  0  0  0
  1 82  1  0  0  0  0
  1 83  1  0  0  0  0
  1 84  1  0  0  0  0
  2  3  1  0  0  0  0
  2 85  1  0  0  0  0
  3  4  1  0  0  0  0
  3 86  1  0  0  0  0
  3 87  1  0  0  0  0
  4  5  1  0  0  0  0
  4 88  1  0  0  0  0
  4 89  1  0  0  0  0
  5  6  1  0  0  0  0
  5 90  1  0  0  0  0
  5 91  1  0  0  0  0
  6  7  1  0  0  0  0
  6 92  1  0  0  0  0
  6 93  1  0  0  0  0
  7  8  1  0  0  0  0
  8  9  1  0  0  0  0
  8 94  1  0  0  0  0
  8 95  1  0  0  0  0
  9 10  1  0  0  0  0
  9 96  1  0  0  0  0
  9 97  1  0  0  0  0
 10 11  1  0  0  0  0
 10 98  1  0  0  0  0
 10 99  1  0  0  0  0
 11 12  1  0  0  0  0
 11100  1  0  0  0  0
 11101  1  0  0  0  0
 12 13  1  0  0  0  0
 12102  1  0  0  0  0
 12103  1  0  0  0  0
 13 14  1  0  0  0  0
 13104  1  0  0  0  0
 13105  1  0  0  0  0
 14 15  1  0  0  0  0
 14106  1  0  0  0  0
 14107  1  0  0  0  0
 15 16  1  0  0  0  0
 15108  1  0  0  0  0
 15109  1  0  0  0  0
 16 17  1  0  0  0  0
 16110  1  0  0  0  0
 16111  1  0  0  0  0
 17 18  1  0  0  0  0
 17112  1  0  0  0  0
 17113  1  0  0  0  0
 18 19  1  0  0  0  0
 18114  1  0  0  0  0
 18115  1  0  0  0  0
 19 20  1  0  0  0  0
 19116  1  0  0  0  0
 19117  1  0  0  0  0
 20 21  1  0  0  0  0
 20118  1  0  0  0  0
 20119  1  0  0  0  0
 21 22  1  0  0  0  0
 21120  1  0  0  0  0
 21121  1  0  0  0  0
 22 23  1  0  0  0  0
 22122  1  0  0  0  0
 22123  1  0  0  0  0
 23 24  1  0  0  0  0
 23124  1  0  0  0  0
 23125  1  0  0  0  0
 24 25  1  0  0  0  0
 24126  1  0  0  0  0
 24127  1  0  0  0  0
 25 26  1  0  0  0  0
 25128  1  0  0  0  0
 25129  1  0  0  0  0
 26 27  1  0  0  0  0
 26130  1  0  0  0  0
 26131  1  0  0  0  0
 27 28  1  0  0  0  0
 27132  1  0  0  0  0
 27133  1  0  0  0  0
 28 29  1  0  0  0  0
 28134  1  0  0  0  0
 28135  1  0  0  0  0
 29 30  1  0  0  0  0
 29136  1  0  0  0  0
 29137  1  0  0  0  0
 30 31  1  0  0  0  0
 30138  1  0  0  0  0
 30139  1  0  0  0  0
 31 32  1  0  0  0  0
 31140  1  0  0  0  0
 31141  1  0  0  0  0
 32 33  1  0  0  0  0
 32142  1  0  0  0  0
 32143  1  0  0  0  0
 33 34  1  0  0  0  0
 33144  1  0  0  0  0
 33145  1  0  0  0  0
 34 35  1  0  0  0  0
 34146  1  0  0  0  0
 34147  1  0  0  0  0
 35 36  1  0  0  0  0
 35148  1  0  0  0  0
 35149  1  0  0  0  0
 36 37  1  0  0  0  0
 36150  1  0  0  0  0
 36151  1  0  0  0  0
 37 38  1  0  0  0  0
 37152  1  0  0  0  0
 37153  1  0  0  0  0
 38 39  1  0  0  0  0
 38154  1  0  0  0  0
 38155  1  0  0  0  0
 39 40  1  0  0  0  0
 39156  1  0  0  0  0
 39157  1  0  0  0  0
 40 41  1  0  0  0  0
 40158  1  0  0  0  0
 40159  1  0  0  0  0
 41 42  1  0  0  0  0
 41160  1  0  0  0  0
 41161  1  0  0  0  0
 42 43  1  0  0  0  0
 42162  1  0  0  0  0
 42163  1  0  0  0  0
 43 44  1  0  0  0  0
 43164  1  0  0  0  0
 43165  1  0  0  0  0
 44 45  1  0  0  0  0
 44166  1  0  0  0  0
 44167  1  0  0  0  0
 45 46  1  0  0  0  0
 45168  1  0  0  0  0
 45169  1  0  0  0  0
 46 47  1  0  0  0  0
 46170  1  0  0  0  0
 46171  1  0  0  0  0
 47 48  1  0  0  0  0
 47172  1  0  0  0  0
 47173  1  0  0  0  0
 48 49  1  0  0  0  0
 48174  1  0  0  0  0
 48175  1  0  0  0  0
 49 50  1  0  0  0  0
 49176  1  0  0  0  0
 49177  1  0  0  0  0
 50 51  1  0  0  0  0
 50178  1  0  0  0  0
 50179  1  0  0  0  0
 51 52  1  0  0  0  0
 51180  1  0  0  0  0
 51181  1  0  0  0  0
 52 53  1  0  0  0  0
 52182  1  0  0  0  0
 52183  1  0  0  0  0
 53 54  1  0  0  0  0
 53184  1  0  0  0  0
 53185  1  0  0  0  0
 54 55  1  0  0  0  0
 54186  1  0  0  0  0
 54187  1  0  0  0  0
 55 56  1  0  0  0  0
 55188  1  0  0  0  0
 55189  1  0  0  0  0
 56 57  1  0  0  0  0
 56190  1  0  0  0  0
 56191  1  0  0  0  0
 57 58  1  0  0  0  0
 57192  1  0  0  0  0
 57193  1  0  0  0  0
 58 59  1  0  0  0  0
 58194  1  0  0  0  0
 58195  1  0  0  0  0
 59 60  1  0  0  0  0
 59196  1  0  0  0  0
 59197  1  0  0  0  0
 60 61  1  0  0  0  0
 60198  1  0  0  0  0
 60199  1  0  0  0  0
 61 62  1  0  0  0  0
 61200  1  0  0  0  0
 61201  1  0  0  0  0
 62 63  1  0  0  0  0
 62202  1  0  0  0  0
 62203  1  0  0  0  0
 63 64  1  0  0  0  0
 63204  1  0  0  0  0
 63205  1  0  0  0  0
 64 65  1  0  0  0  0
 64206  1  0  0  0  0
 64207  1  0  0  0  0
 65 66  1  0  0  0  0
 65208  1  0  0  0  0
 65209  1  0  0  0  0
 66 67  1  0  0  0  0
 66210  1  0  0  0  0
 66211  1  0  0  0  0
 67 68  1  0  0  0  0
 67212  1  0  0  0  0
 67213  1  0  0  0  0
 68 69  1  0  0  0  0
 68214  1  0  0  0  0
 68215  1  0  0  0  0
 69 70  1  0  0  0  0
 69216  1  0  0  0  0
 69217  1  0  0  0  0
 70 71  1  0  0  0  0
 70218  1  0  0  0  0
 70219  1  0  0  0  0
 71 72  1  0  0  0  0
 71220  1  0  0  0  0
 71221  1  0  0  0  0
 72 73  1  0  0  0  0
 72222  1  0  0  0  0
 72223  1  0  0  0  0
 73 74  1  0  0  0  0
 73224  1  0  0  0  0
 73225  1  0  0  0  0
 74 75  1  0  0  0  0
 74226  1  0  0  0  0
 74227  1  0  0  0  0
 75 76  1  0  0  0  0
 75228  1  0  0  0  0
 75229  1  0  0  0  0
 76 77  1  0  0  0  0
 76230  1  0  0  0  0
 76231  1  0  0  0  0
 77 78  1  0  0  0  0
 77232  1  0  0  0  0
 77233  1  0  0  0  0
 78 79  1  0  0  0  0
 78234  1  0  0  0  0
 78235  1  0  0  0  0
 79 80  1  0  0  0  0
 79236  1  0  0  0  0
 79237  1  0  0  0  0
 80 81  1  0  0  0  0
 80238  1  0  0  0  0
 80239  1  0  0  0  0
 81240  1  0  0  0  0
 81241  1  0  0  0  0
 81242  1  0  0  0  0
M  END
$$$$
