
 OpenBabel04232216403D

 66 67  0  0  0  0  0  0  0  0999 V2000
    9.6865    1.9106    1.7665 C   0  0  0  0  0  0  0  0  0  0  0  0
   10.9086    1.5285    1.4820 C   0  0  0  0  0  0  0  0  0  0  0  0
   12.9066    1.9581    1.7648 C   0  0  0  0  0  0  0  0  0  0  0  0
   14.6727    1.8149    0.8008 N   0  0  0  0  0  0  0  0  0  0  0  0
   13.4202    2.0135   -0.5503 C   0  0  0  0  0  0  0  0  0  0  0  0
   11.7517    0.5676   -1.0852 S   0  0  0  0  0  0  0  0  0  0  0  0
    9.7015    1.5834   -1.4100 C   0  0  0  0  0  0  0  0  0  0  0  0
   10.4986    2.6029   -2.0163 C   0  0  0  0  0  0  0  0  0  0  0  0
   10.8362    4.0010   -2.2311 C   0  0  0  0  0  0  0  0  0  0  0  0
   12.3159    3.7792   -2.2052 C   0  0  0  0  0  0  0  0  0  0  0  0
   13.3432    4.8080   -2.2469 C   0  0  0  0  0  0  0  0  0  0  0  0
   14.5671    4.0351   -1.9673 C   0  0  0  0  0  0  0  0  0  0  0  0
   15.6719    4.7344   -1.9638 C   0  0  0  0  0  0  0  0  0  0  0  0
   16.7064    3.9319   -2.4639 C   0  0  0  0  0  0  0  0  0  0  0  0
   17.8195    4.5221   -2.7904 C   0  0  0  0  0  0  0  0  0  0  0  0
   18.9949    3.8344   -3.2242 C   0  0  0  0  0  0  0  0  0  0  0  0
   18.8277    2.1314   -3.1149 C   0  0  0  0  0  0  0  0  0  0  0  0
   19.8918    0.9961   -3.1072 C   0  0  0  0  0  0  0  0  0  0  0  0
   19.9978    4.8267   -3.2318 C   0  0  0  0  0  0  0  0  0  0  0  0
   19.8707    6.4498   -2.8591 C   0  0  0  0  0  0  0  0  0  0  0  0
   21.3500    4.5304   -3.1002 C   0  0  0  0  0  0  0  0  0  0  0  0
   21.7518    4.9815   -1.8330 C   0  0  0  0  0  0  0  0  0  0  0  0
   20.4447    4.7334   -0.5240 C   0  0  0  0  0  0  0  0  0  0  0  0
   18.9952    4.5575   -0.3123 N   0  0  0  0  0  0  0  0  0  0  0  0
   17.8976    3.0932   -0.2807 C   0  0  0  0  0  0  0  0  0  0  0  0
   19.4066    2.3716   -0.5800 C   0  0  0  0  0  0  0  0  0  0  0  0
   20.1496    1.5881    0.2134 C   0  0  0  0  0  0  0  0  0  0  0  0
   19.4551    1.7742    1.3161 C   0  0  0  0  0  0  0  0  0  0  0  0
   17.7651    2.1335    1.6339 C   0  0  0  0  0  0  0  0  0  0  0  0
   16.4014    2.7113    0.7241 C   0  0  0  0  0  0  0  0  0  0  0  0
    8.9483    1.0544    1.7794 H   0  0  0  0  0  0  0  0  0  0  0  0
    8.9737    2.2891    1.0382 H   0  0  0  0  0  0  0  0  0  0  0  0
   10.8259    0.4190    1.0804 H   0  0  0  0  0  0  0  0  0  0  0  0
   13.1572    1.8965    2.8140 H   0  0  0  0  0  0  0  0  0  0  0  0
   12.6120    3.0381    1.5840 H   0  0  0  0  0  0  0  0  0  0  0  0
   13.3851    3.0377   -0.1886 H   0  0  0  0  0  0  0  0  0  0  0  0
   12.4473    2.1780   -0.0829 H   0  0  0  0  0  0  0  0  0  0  0  0
    9.1146    2.2118   -0.7201 H   0  0  0  0  0  0  0  0  0  0  0  0
    8.9803    1.3378   -2.2312 H   0  0  0  0  0  0  0  0  0  0  0  0
   10.8134    2.0318   -2.8870 H   0  0  0  0  0  0  0  0  0  0  0  0
   10.8817    2.6668   -0.9837 H   0  0  0  0  0  0  0  0  0  0  0  0
   10.5576    4.5910   -1.3489 H   0  0  0  0  0  0  0  0  0  0  0  0
   10.4612    4.3436   -3.1701 H   0  0  0  0  0  0  0  0  0  0  0  0
   12.6633    2.8070   -2.6244 H   0  0  0  0  0  0  0  0  0  0  0  0
   12.3273    3.7532   -1.1341 H   0  0  0  0  0  0  0  0  0  0  0  0
   13.2056    5.5080   -1.4232 H   0  0  0  0  0  0  0  0  0  0  0  0
   13.3660    5.2396   -3.2300 H   0  0  0  0  0  0  0  0  0  0  0  0
   14.6752    2.9484   -1.9988 H   0  0  0  0  0  0  0  0  0  0  0  0
   15.6654    5.8111   -1.9342 H   0  0  0  0  0  0  0  0  0  0  0  0
   16.5925    2.8576   -2.5058 H   0  0  0  0  0  0  0  0  0  0  0  0
   17.8306    5.5383   -2.4220 H   0  0  0  0  0  0  0  0  0  0  0  0
   17.9515    1.8009   -3.6829 H   0  0  0  0  0  0  0  0  0  0  0  0
   18.3286    1.8690   -2.1749 H   0  0  0  0  0  0  0  0  0  0  0  0
   19.8762    0.4927   -4.0705 H   0  0  0  0  0  0  0  0  0  0  0  0
   19.6317    0.1992   -2.3707 H   0  0  0  0  0  0  0  0  0  0  0  0
   20.9032    1.3038   -2.8354 H   0  0  0  0  0  0  0  0  0  0  0  0
   18.9000    6.8931   -2.6492 H   0  0  0  0  0  0  0  0  0  0  0  0
   20.4059    7.0573   -3.5819 H   0  0  0  0  0  0  0  0  0  0  0  0
   20.3754    6.7238   -1.8895 H   0  0  0  0  0  0  0  0  0  0  0  0
   21.8808    3.7305   -3.5345 H   0  0  0  0  0  0  0  0  0  0  0  0
   22.5671    5.6390   -1.8333 H   0  0  0  0  0  0  0  0  0  0  0  0
   21.1846    4.0510    0.0756 H   0  0  0  0  0  0  0  0  0  0  0  0
   20.0198    2.8547   -1.3638 H   0  0  0  0  0  0  0  0  0  0  0  0
   21.3255    1.7755   -0.0291 H   0  0  0  0  0  0  0  0  0  0  0  0
   20.1226    2.5765    1.8737 H   0  0  0  0  0  0  0  0  0  0  0  0
   18.1136    3.1733    1.9710 H   0  0  0  0  0  0  0  0  0  0  0  0
  1  2  2  0  0  0  0
  1 31  1  0  0  0  0
  1 32  1  0  0  0  0
  2  3  1  0  0  0  0
  2 33  1  0  0  0  0
  3  4  1  0  0  0  0
  3 34  1  0  0  0  0
  3 35  1  0  0  0  0
  4  5  1  0  0  0  0
  4 30  1  0  0  0  0
  5  6  1  0  0  0  0
  5 36  1  0  0  0  0
  5 37  1  0  0  0  0
  6  7  1  0  0  0  0
  7  8  1  0  0  0  0
  7 38  1  0  0  0  0
  7 39  1  0  0  0  0
  8  9  1  0  0  0  0
  8 40  1  0  0  0  0
  8 41  1  0  0  0  0
  9 10  1  0  0  0  0
  9 42  1  0  0  0  0
  9 43  1  0  0  0  0
 10 11  1  0  0  0  0
 10 44  1  0  0  0  0
 10 45  1  0  0  0  0
 11 12  1  0  0  0  0
 11 46  1  0  0  0  0
 11 47  1  0  0  0  0
 12 13  2  3  0  0  0
 12 48  1  0  0  0  0
 13 14  1  0  0  0  0
 13 49  1  0  0  0  0
 14 15  2  3  0  0  0
 14 50  1  0  0  0  0
 15 16  1  0  0  0  0
 15 51  1  0  0  0  0
 16 17  1  0  0  0  0
 16 19  2  3  0  0  0
 17 18  1  0  0  0  0
 17 52  1  0  0  0  0
 17 53  1  0  0  0  0
 18 54  1  0  0  0  0
 18 55  1  0  0  0  0
 18 56  1  0  0  0  0
 19 20  1  0  0  0  0
 19 21  1  0  0  0  0
 20 57  1  0  0  0  0
 20 58  1  0  0  0  0
 20 59  1  0  0  0  0
 21 22  2  3  0  0  0
 21 60  1  0  0  0  0
 22 23  1  0  0  0  0
 22 61  1  0  0  0  0
 23 24  2  3  0  0  0
 23 62  1  0  0  0  0
 24 25  1  0  0  0  0
 25 26  1  0  0  0  0
 25 30  2  0  0  0  0
 26 27  2  0  0  0  0
 26 63  1  0  0  0  0
 27 28  1  0  0  0  0
 27 64  1  0  0  0  0
 28 29  2  0  0  0  0
 28 65  1  0  0  0  0
 29 30  1  0  0  0  0
 29 66  1  0  0  0  0
M  END
$$$$
