
 OpenBabel04232216493D

229229  0  0  0  0  0  0  0  0999 V2000
   32.4268   -3.3459   21.4596 C   0  0  0  0  0  0  0  0  0  0  0  0
   32.3149   -4.4135   22.5056 C   0  0  0  0  0  0  0  0  0  0  0  0
   31.8709   -3.9735   23.7693 C   0  0  0  0  0  0  0  0  0  0  0  0
   31.7455   -4.8354   24.8498 C   0  0  0  0  0  0  0  0  0  0  0  0
   32.0695   -6.1811   24.6930 C   0  0  0  0  0  0  0  0  0  0  0  0
   32.5097   -6.6444   23.4589 C   0  0  0  0  0  0  0  0  0  0  0  0
   32.6340   -5.7944   22.3542 C   0  0  0  0  0  0  0  0  0  0  0  0
   33.1108   -6.4473   21.2384 O   0  0  0  0  0  0  0  0  0  0  0  0
   32.6687   -5.9365   19.9995 C   0  0  0  0  0  0  0  0  0  0  0  0
   33.2012   -6.7142   18.8010 C   0  0  0  0  0  0  0  0  0  0  0  0
   32.6764   -6.0485   17.5214 C   0  0  0  0  0  0  0  0  0  0  0  0
   33.1564   -4.6017   17.4503 C   0  0  0  0  0  0  0  0  0  0  0  0
   32.6446   -3.9134   16.2099 C   0  0  0  0  0  0  0  0  0  0  0  0
   33.1447   -2.4784   16.2021 C   0  0  0  0  0  0  0  0  0  0  0  0
   32.6507   -1.7675   14.9606 C   0  0  0  0  0  0  0  0  0  0  0  0
   33.1528   -0.3372   14.9566 C   0  0  0  0  0  0  0  0  0  0  0  0
   32.6568    0.3758   13.7141 C   0  0  0  0  0  0  0  0  0  0  0  0
   33.1599    1.8060   13.7077 C   0  0  0  0  0  0  0  0  0  0  0  0
   32.6659    2.5200   12.4643 C   0  0  0  0  0  0  0  0  0  0  0  0
   33.1701    3.9506   12.4590 C   0  0  0  0  0  0  0  0  0  0  0  0
   32.6755    4.6643   11.2150 C   0  0  0  0  0  0  0  0  0  0  0  0
   33.1795    6.0948   11.2088 C   0  0  0  0  0  0  0  0  0  0  0  0
   32.6845    6.8085    9.9652 C   0  0  0  0  0  0  0  0  0  0  0  0
   33.1882    8.2392    9.9583 C   0  0  0  0  0  0  0  0  0  0  0  0
   32.6936    8.9524    8.7145 C   0  0  0  0  0  0  0  0  0  0  0  0
   33.1969   10.3831    8.7074 C   0  0  0  0  0  0  0  0  0  0  0  0
   32.7023   11.0963    7.4638 C   0  0  0  0  0  0  0  0  0  0  0  0
   33.2071   12.5263    7.4557 C   0  0  0  0  0  0  0  0  0  0  0  0
   32.7109   13.2400    6.2131 C   0  0  0  0  0  0  0  0  0  0  0  0
   33.2177   14.6693    6.2045 C   0  0  0  0  0  0  0  0  0  0  0  0
   32.7231   15.3825    4.9608 C   0  0  0  0  0  0  0  0  0  0  0  0
   33.2298   16.8119    4.9519 C   0  0  0  0  0  0  0  0  0  0  0  0
   32.7368   17.5246    3.7072 C   0  0  0  0  0  0  0  0  0  0  0  0
   33.2434   18.9541    3.6981 C   0  0  0  0  0  0  0  0  0  0  0  0
   32.7504   19.6667    2.4540 C   0  0  0  0  0  0  0  0  0  0  0  0
   33.2542   21.0952    2.4457 C   0  0  0  0  0  0  0  0  0  0  0  0
   32.7555   21.8067    1.2016 C   0  0  0  0  0  0  0  0  0  0  0  0
   33.2540   23.2307    1.1932 C   0  0  0  0  0  0  0  0  0  0  0  0
   32.7671   23.9545   -0.0533 C   0  0  0  0  0  0  0  0  0  0  0  0
   33.2790   25.3842   -0.0676 C   0  0  0  0  0  0  0  0  0  0  0  0
   34.7994   25.4024   -0.0639 C   0  0  0  0  0  0  0  0  0  0  0  0
   35.3078   26.8231   -0.0661 C   0  0  0  0  0  0  0  0  0  0  0  0
   36.8251   26.8260   -0.0584 C   0  0  0  0  0  0  0  0  0  0  0  0
   37.3329   28.2535   -0.0652 C   0  0  0  0  0  0  0  0  0  0  0  0
   38.8492   28.2598   -0.0600 C   0  0  0  0  0  0  0  0  0  0  0  0
   39.3572   29.6890   -0.0667 C   0  0  0  0  0  0  0  0  0  0  0  0
   40.8740   29.6954   -0.0616 C   0  0  0  0  0  0  0  0  0  0  0  0
   41.3820   31.1245   -0.0683 C   0  0  0  0  0  0  0  0  0  0  0  0
   42.8987   31.1309   -0.0632 C   0  0  0  0  0  0  0  0  0  0  0  0
   43.4066   32.5600   -0.0700 C   0  0  0  0  0  0  0  0  0  0  0  0
   44.9233   32.5664   -0.0667 C   0  0  0  0  0  0  0  0  0  0  0  0
   45.4312   33.9955   -0.0720 C   0  0  0  0  0  0  0  0  0  0  0  0
   46.9478   34.0020   -0.0679 C   0  0  0  0  0  0  0  0  0  0  0  0
   47.4560   35.4309   -0.0718 C   0  0  0  0  0  0  0  0  0  0  0  0
   48.9726   35.4375   -0.0676 C   0  0  0  0  0  0  0  0  0  0  0  0
   49.4807   36.8665   -0.0714 C   0  0  0  0  0  0  0  0  0  0  0  0
   50.9974   36.8732   -0.0672 C   0  0  0  0  0  0  0  0  0  0  0  0
   51.5059   38.3021   -0.0710 C   0  0  0  0  0  0  0  0  0  0  0  0
   53.0226   38.3088   -0.0649 C   0  0  0  0  0  0  0  0  0  0  0  0
   53.5312   39.7378   -0.0666 C   0  0  0  0  0  0  0  0  0  0  0  0
   55.0479   39.7448   -0.0623 C   0  0  0  0  0  0  0  0  0  0  0  0
   55.5560   41.1738   -0.0622 C   0  0  0  0  0  0  0  0  0  0  0  0
   57.0727   41.1807   -0.0599 C   0  0  0  0  0  0  0  0  0  0  0  0
   57.5810   42.6097   -0.0578 C   0  0  0  0  0  0  0  0  0  0  0  0
   59.0976   42.6164   -0.0575 C   0  0  0  0  0  0  0  0  0  0  0  0
   59.6059   44.0454   -0.0534 C   0  0  0  0  0  0  0  0  0  0  0  0
   61.1226   44.0522   -0.0531 C   0  0  0  0  0  0  0  0  0  0  0  0
   61.6308   45.4813   -0.0489 C   0  0  0  0  0  0  0  0  0  0  0  0
   63.1476   45.4885   -0.0486 C   0  0  0  0  0  0  0  0  0  0  0  0
   63.6560   46.9177   -0.0445 C   0  0  0  0  0  0  0  0  0  0  0  0
   65.1731   46.9246   -0.0442 C   0  0  0  0  0  0  0  0  0  0  0  0
   65.6822   48.3539   -0.0421 C   0  0  0  0  0  0  0  0  0  0  0  0
   67.2003   48.3616   -0.0417 C   0  0  0  0  0  0  0  0  0  0  0  0
   67.7094   49.7927   -0.0393 C   0  0  0  0  0  0  0  0  0  0  0  0
   69.2287   49.8027   -0.0414 C   0  0  0  0  0  0  0  0  0  0  0  0
   69.7413   51.2340   -0.0373 C   0  0  0  0  0  0  0  0  0  0  0  0
   71.2640   51.2457   -0.0390 C   0  0  0  0  0  0  0  0  0  0  0  0
   71.7876   52.6769   -0.0328 C   0  0  0  0  0  0  0  0  0  0  0  0
   73.3036   52.6863   -0.0346 C   0  0  0  0  0  0  0  0  0  0  0  0
   32.1174   -2.3670   21.8313 H   0  0  0  0  0  0  0  0  0  0  0  0
   31.7573   -3.5540   20.6158 H   0  0  0  0  0  0  0  0  0  0  0  0
   33.4668   -3.2314   21.1248 H   0  0  0  0  0  0  0  0  0  0  0  0
   31.6154   -2.9246   23.9211 H   0  0  0  0  0  0  0  0  0  0  0  0
   31.4039   -4.4625   25.8053 H   0  0  0  0  0  0  0  0  0  0  0  0
   31.9734   -6.8571   25.5346 H   0  0  0  0  0  0  0  0  0  0  0  0
   32.7514   -7.7061   23.3573 H   0  0  0  0  0  0  0  0  0  0  0  0
   33.0692   -4.9437   19.9137 H   0  0  0  0  0  0  0  0  0  0  0  0
   31.5671   -5.9557   19.9472 H   0  0  0  0  0  0  0  0  0  0  0  0
   32.8808   -7.7523   18.8493 H   0  0  0  0  0  0  0  0  0  0  0  0
   34.2992   -6.7118   18.8103 H   0  0  0  0  0  0  0  0  0  0  0  0
   31.5796   -6.0720   17.5113 H   0  0  0  0  0  0  0  0  0  0  0  0
   33.0222   -6.5949   16.6374 H   0  0  0  0  0  0  0  0  0  0  0  0
   34.2502   -4.5782   17.4847 H   0  0  0  0  0  0  0  0  0  0  0  0
   32.7926   -4.0220   18.3006 H   0  0  0  0  0  0  0  0  0  0  0  0
   31.5490   -3.9287   16.1937 H   0  0  0  0  0  0  0  0  0  0  0  0
   32.9962   -4.4466   15.3115 H   0  0  0  0  0  0  0  0  0  0  0  0
   34.2415   -2.4659   16.2308 H   0  0  0  0  0  0  0  0  0  0  0  0
   32.7929   -1.9530   17.0996 H   0  0  0  0  0  0  0  0  0  0  0  0
   31.5541   -1.7803   14.9333 H   0  0  0  0  0  0  0  0  0  0  0  0
   33.0047   -2.2917   14.0646 H   0  0  0  0  0  0  0  0  0  0  0  0
   34.2499   -0.3249   14.9828 H   0  0  0  0  0  0  0  0  0  0  0  0
   32.8021    0.1867   15.8547 H   0  0  0  0  0  0  0  0  0  0  0  0
   31.5599    0.3641   13.6891 H   0  0  0  0  0  0  0  0  0  0  0  0
   33.0075   -0.1489   12.8169 H   0  0  0  0  0  0  0  0  0  0  0  0
   34.2565    1.8165   13.7342 H   0  0  0  0  0  0  0  0  0  0  0  0
   32.8083    2.3302   14.6049 H   0  0  0  0  0  0  0  0  0  0  0  0
   31.5694    2.5096   12.4376 H   0  0  0  0  0  0  0  0  0  0  0  0
   33.0178    1.9960   11.5673 H   0  0  0  0  0  0  0  0  0  0  0  0
   34.2664    3.9611   12.4855 H   0  0  0  0  0  0  0  0  0  0  0  0
   32.8184    4.4747   13.3559 H   0  0  0  0  0  0  0  0  0  0  0  0
   31.5791    4.6537   11.1887 H   0  0  0  0  0  0  0  0  0  0  0  0
   33.0272    4.1399   10.3181 H   0  0  0  0  0  0  0  0  0  0  0  0
   34.2759    6.1055   11.2352 H   0  0  0  0  0  0  0  0  0  0  0  0
   32.8279    6.6192   12.1059 H   0  0  0  0  0  0  0  0  0  0  0  0
   31.5881    6.7977    9.9394 H   0  0  0  0  0  0  0  0  0  0  0  0
   33.0356    6.2839    9.0680 H   0  0  0  0  0  0  0  0  0  0  0  0
   34.2847    8.2500    9.9849 H   0  0  0  0  0  0  0  0  0  0  0  0
   32.8364    8.7638   10.8551 H   0  0  0  0  0  0  0  0  0  0  0  0
   31.5970    8.9415    8.6880 H   0  0  0  0  0  0  0  0  0  0  0  0
   33.0452    8.4277    7.8176 H   0  0  0  0  0  0  0  0  0  0  0  0
   34.2935   10.3941    8.7339 H   0  0  0  0  0  0  0  0  0  0  0  0
   32.8452   10.9079    9.6044 H   0  0  0  0  0  0  0  0  0  0  0  0
   31.6056   11.0865    7.4380 H   0  0  0  0  0  0  0  0  0  0  0  0
   33.0528   10.5709    6.5667 H   0  0  0  0  0  0  0  0  0  0  0  0
   34.3038   12.5361    7.4801 H   0  0  0  0  0  0  0  0  0  0  0  0
   32.8578   13.0515    8.3533 H   0  0  0  0  0  0  0  0  0  0  0  0
   31.6142   13.2317    6.1895 H   0  0  0  0  0  0  0  0  0  0  0  0
   33.0588   12.7142    5.3153 H   0  0  0  0  0  0  0  0  0  0  0  0
   34.3144   14.6777    6.2294 H   0  0  0  0  0  0  0  0  0  0  0  0
   32.8686   15.1955    7.1015 H   0  0  0  0  0  0  0  0  0  0  0  0
   31.6264   15.3740    4.9358 H   0  0  0  0  0  0  0  0  0  0  0  0
   33.0724   14.8560    4.0640 H   0  0  0  0  0  0  0  0  0  0  0  0
   34.3264   16.8203    4.9782 H   0  0  0  0  0  0  0  0  0  0  0  0
   32.8796   17.3385    5.8483 H   0  0  0  0  0  0  0  0  0  0  0  0
   31.6402   17.5160    3.6809 H   0  0  0  0  0  0  0  0  0  0  0  0
   33.0871   16.9977    2.8111 H   0  0  0  0  0  0  0  0  0  0  0  0
   34.3400   18.9625    3.7243 H   0  0  0  0  0  0  0  0  0  0  0  0
   32.8930   19.4807    4.5943 H   0  0  0  0  0  0  0  0  0  0  0  0
   31.6538   19.6574    2.4266 H   0  0  0  0  0  0  0  0  0  0  0  0
   33.1017   19.1409    1.5571 H   0  0  0  0  0  0  0  0  0  0  0  0
   34.3520   21.1065    2.4704 H   0  0  0  0  0  0  0  0  0  0  0  0
   32.9054   21.6225    3.3422 H   0  0  0  0  0  0  0  0  0  0  0  0
   31.6581   21.7951    1.1770 H   0  0  0  0  0  0  0  0  0  0  0  0
   33.1081   21.2833    0.3054 H   0  0  0  0  0  0  0  0  0  0  0  0
   34.3455   23.2019    1.2319 H   0  0  0  0  0  0  0  0  0  0  0  0
   32.9147   23.7647    2.0901 H   0  0  0  0  0  0  0  0  0  0  0  0
   31.6743   23.9522   -0.0808 H   0  0  0  0  0  0  0  0  0  0  0  0
   33.1183   23.4275   -0.9512 H   0  0  0  0  0  0  0  0  0  0  0  0
   32.8971   25.9217    0.8109 H   0  0  0  0  0  0  0  0  0  0  0  0
   32.9041   25.9029   -0.9549 H   0  0  0  0  0  0  0  0  0  0  0  0
   35.1815   24.8527   -0.9334 H   0  0  0  0  0  0  0  0  0  0  0  0
   35.1979   24.9083    0.8264 H   0  0  0  0  0  0  0  0  0  0  0  0
   34.9277   27.3569    0.8139 H   0  0  0  0  0  0  0  0  0  0  0  0
   34.9379   27.3482   -0.9506 H   0  0  0  0  0  0  0  0  0  0  0  0
   37.2041   26.2877   -0.9359 H   0  0  0  0  0  0  0  0  0  0  0  0
   37.1973   26.2992    0.8300 H   0  0  0  0  0  0  0  0  0  0  0  0
   36.9528   28.7900    0.8125 H   0  0  0  0  0  0  0  0  0  0  0  0
   36.9595   28.7785   -0.9535 H   0  0  0  0  0  0  0  0  0  0  0  0
   39.2289   27.7233   -0.9376 H   0  0  0  0  0  0  0  0  0  0  0  0
   39.2222   27.7347    0.8284 H   0  0  0  0  0  0  0  0  0  0  0  0
   38.9775   30.2255    0.8109 H   0  0  0  0  0  0  0  0  0  0  0  0
   38.9842   30.2141   -0.9551 H   0  0  0  0  0  0  0  0  0  0  0  0
   41.2537   29.1589   -0.9392 H   0  0  0  0  0  0  0  0  0  0  0  0
   41.2470   29.1703    0.8268 H   0  0  0  0  0  0  0  0  0  0  0  0
   41.0023   31.6611    0.8092 H   0  0  0  0  0  0  0  0  0  0  0  0
   41.0090   31.6497   -0.9568 H   0  0  0  0  0  0  0  0  0  0  0  0
   43.2784   30.5943   -0.9408 H   0  0  0  0  0  0  0  0  0  0  0  0
   43.2718   30.6058    0.8252 H   0  0  0  0  0  0  0  0  0  0  0  0
   43.0280   33.0962    0.8083 H   0  0  0  0  0  0  0  0  0  0  0  0
   43.0325   33.0856   -0.9577 H   0  0  0  0  0  0  0  0  0  0  0  0
   45.3020   32.0313   -0.9459 H   0  0  0  0  0  0  0  0  0  0  0  0
   45.2975   32.0397    0.8201 H   0  0  0  0  0  0  0  0  0  0  0  0
   45.0524   34.5305    0.8074 H   0  0  0  0  0  0  0  0  0  0  0  0
   45.0571   34.5221   -0.9587 H   0  0  0  0  0  0  0  0  0  0  0  0
   47.3265   33.4679   -0.9481 H   0  0  0  0  0  0  0  0  0  0  0  0
   47.3219   33.4742    0.8179 H   0  0  0  0  0  0  0  0  0  0  0  0
   47.0771   35.9651    0.8083 H   0  0  0  0  0  0  0  0  0  0  0  0
   47.0819   35.9587   -0.9578 H   0  0  0  0  0  0  0  0  0  0  0  0
   49.3515   34.9033   -0.9476 H   0  0  0  0  0  0  0  0  0  0  0  0
   49.3465   34.9096    0.8184 H   0  0  0  0  0  0  0  0  0  0  0  0
   49.1018   37.4007    0.8086 H   0  0  0  0  0  0  0  0  0  0  0  0
   49.1066   37.3942   -0.9574 H   0  0  0  0  0  0  0  0  0  0  0  0
   51.3763   36.3389   -0.9471 H   0  0  0  0  0  0  0  0  0  0  0  0
   51.3712   36.3454    0.8189 H   0  0  0  0  0  0  0  0  0  0  0  0
   51.1258   38.8368    0.8082 H   0  0  0  0  0  0  0  0  0  0  0  0
   51.1331   38.8293   -0.9579 H   0  0  0  0  0  0  0  0  0  0  0  0
   53.4026   37.7754   -0.9449 H   0  0  0  0  0  0  0  0  0  0  0  0
   53.3955   37.7801    0.8211 H   0  0  0  0  0  0  0  0  0  0  0  0
   53.1522   40.2707    0.8142 H   0  0  0  0  0  0  0  0  0  0  0  0
   53.1573   40.2668   -0.9519 H   0  0  0  0  0  0  0  0  0  0  0  0
   55.4270   39.2130   -0.9437 H   0  0  0  0  0  0  0  0  0  0  0  0
   55.4220   39.2148    0.8223 H   0  0  0  0  0  0  0  0  0  0  0  0
   55.1782   41.7052    0.8201 H   0  0  0  0  0  0  0  0  0  0  0  0
   55.1809   41.7045   -0.9460 H   0  0  0  0  0  0  0  0  0  0  0  0
   57.4505   40.6506   -0.9429 H   0  0  0  0  0  0  0  0  0  0  0  0
   57.4479   40.6489    0.8232 H   0  0  0  0  0  0  0  0  0  0  0  0
   57.2043   43.1393    0.8260 H   0  0  0  0  0  0  0  0  0  0  0  0
   57.2047   43.1419   -0.9401 H   0  0  0  0  0  0  0  0  0  0  0  0
   59.4742   42.0879   -0.9420 H   0  0  0  0  0  0  0  0  0  0  0  0
   59.4739   42.0829    0.8241 H   0  0  0  0  0  0  0  0  0  0  0  0
   59.2292   44.5738    0.8311 H   0  0  0  0  0  0  0  0  0  0  0  0
   59.2295   44.5788   -0.9349 H   0  0  0  0  0  0  0  0  0  0  0  0
   61.4992   43.5238   -0.9376 H   0  0  0  0  0  0  0  0  0  0  0  0
   61.4989   43.5187    0.8285 H   0  0  0  0  0  0  0  0  0  0  0  0
   61.2541   46.0096    0.8357 H   0  0  0  0  0  0  0  0  0  0  0  0
   61.2543   46.0147   -0.9304 H   0  0  0  0  0  0  0  0  0  0  0  0
   63.5242   44.9600   -0.9331 H   0  0  0  0  0  0  0  0  0  0  0  0
   63.5240   44.9549    0.8329 H   0  0  0  0  0  0  0  0  0  0  0  0
   63.2793   47.4461    0.8399 H   0  0  0  0  0  0  0  0  0  0  0  0
   63.2794   47.4510   -0.9261 H   0  0  0  0  0  0  0  0  0  0  0  0
   65.5494   46.3947   -0.9279 H   0  0  0  0  0  0  0  0  0  0  0  0
   65.5491   46.3922    0.8380 H   0  0  0  0  0  0  0  0  0  0  0  0
   65.3053   48.8833    0.8415 H   0  0  0  0  0  0  0  0  0  0  0  0
   65.3057   48.8857   -0.9244 H   0  0  0  0  0  0  0  0  0  0  0  0
   67.5761   47.8320   -0.9253 H   0  0  0  0  0  0  0  0  0  0  0  0
   67.5757   47.8293    0.8405 H   0  0  0  0  0  0  0  0  0  0  0  0
   67.3333   50.3201    0.8448 H   0  0  0  0  0  0  0  0  0  0  0  0
   67.3311   50.3238   -0.9209 H   0  0  0  0  0  0  0  0  0  0  0  0
   69.6027   49.2736   -0.9262 H   0  0  0  0  0  0  0  0  0  0  0  0
   69.6051   49.2685    0.8395 H   0  0  0  0  0  0  0  0  0  0  0  0
   69.3642   51.7603    0.8478 H   0  0  0  0  0  0  0  0  0  0  0  0
   69.3621   51.7662   -0.9181 H   0  0  0  0  0  0  0  0  0  0  0  0
   71.6344   50.7167   -0.9245 H   0  0  0  0  0  0  0  0  0  0  0  0
   71.6366   50.7083    0.8405 H   0  0  0  0  0  0  0  0  0  0  0  0
   71.4174   53.2055    0.8529 H   0  0  0  0  0  0  0  0  0  0  0  0
   71.4153   53.2139   -0.9126 H   0  0  0  0  0  0  0  0  0  0  0  0
   73.6967   52.1747    0.8497 H   0  0  0  0  0  0  0  0  0  0  0  0
   73.6757   53.7139   -0.0301 H   0  0  0  0  0  0  0  0  0  0  0  0
   73.6946   52.1831   -0.9246 H   0  0  0  0  0  0  0  0  0  0  0  0
  1  2  1  0  0  0  0
  1 80  1  0  0  0  0
  1 81  1  0  0  0  0
  1 82  1  0  0  0  0
  2  3  1  0  0  0  0
  2  7  2  0  0  0  0
  3  4  2  0  0  0  0
  3 83  1  0  0  0  0
  4  5  1  0  0  0  0
  4 84  1  0  0  0  0
  5  6  2  0  0  0  0
  5 85  1  0  0  0  0
  6  7  1  0  0  0  0
  6 86  1  0  0  0  0
  7  8  1  0  0  0  0
  8  9  1  0  0  0  0
  9 10  1  0  0  0  0
  9 87  1  0  0  0  0
  9 88  1  0  0  0  0
 10 11  1  0  0  0  0
 10 89  1  0  0  0  0
 10 90  1  0  0  0  0
 11 12  1  0  0  0  0
 11 91  1  0  0  0  0
 11 92  1  0  0  0  0
 12 13  1  0  0  0  0
 12 93  1  0  0  0  0
 12 94  1  0  0  0  0
 13 14  1  0  0  0  0
 13 95  1  0  0  0  0
 13 96  1  0  0  0  0
 14 15  1  0  0  0  0
 14 97  1  0  0  0  0
 14 98  1  0  0  0  0
 15 16  1  0  0  0  0
 15 99  1  0  0  0  0
 15100  1  0  0  0  0
 16 17  1  0  0  0  0
 16101  1  0  0  0  0
 16102  1  0  0  0  0
 17 18  1  0  0  0  0
 17103  1  0  0  0  0
 17104  1  0  0  0  0
 18 19  1  0  0  0  0
 18105  1  0  0  0  0
 18106  1  0  0  0  0
 19 20  1  0  0  0  0
 19107  1  0  0  0  0
 19108  1  0  0  0  0
 20 21  1  0  0  0  0
 20109  1  0  0  0  0
 20110  1  0  0  0  0
 21 22  1  0  0  0  0
 21111  1  0  0  0  0
 21112  1  0  0  0  0
 22 23  1  0  0  0  0
 22113  1  0  0  0  0
 22114  1  0  0  0  0
 23 24  1  0  0  0  0
 23115  1  0  0  0  0
 23116  1  0  0  0  0
 24 25  1  0  0  0  0
 24117  1  0  0  0  0
 24118  1  0  0  0  0
 25 26  1  0  0  0  0
 25119  1  0  0  0  0
 25120  1  0  0  0  0
 26 27  1  0  0  0  0
 26121  1  0  0  0  0
 26122  1  0  0  0  0
 27 28  1  0  0  0  0
 27123  1  0  0  0  0
 27124  1  0  0  0  0
 28 29  1  0  0  0  0
 28125  1  0  0  0  0
 28126  1  0  0  0  0
 29 30  1  0  0  0  0
 29127  1  0  0  0  0
 29128  1  0  0  0  0
 30 31  1  0  0  0  0
 30129  1  0  0  0  0
 30130  1  0  0  0  0
 31 32  1  0  0  0  0
 31131  1  0  0  0  0
 31132  1  0  0  0  0
 32 33  1  0  0  0  0
 32133  1  0  0  0  0
 32134  1  0  0  0  0
 33 34  1  0  0  0  0
 33135  1  0  0  0  0
 33136  1  0  0  0  0
 34 35  1  0  0  0  0
 34137  1  0  0  0  0
 34138  1  0  0  0  0
 35 36  1  0  0  0  0
 35139  1  0  0  0  0
 35140  1  0  0  0  0
 36 37  1  0  0  0  0
 36141  1  0  0  0  0
 36142  1  0  0  0  0
 37 38  1  0  0  0  0
 37143  1  0  0  0  0
 37144  1  0  0  0  0
 38 39  1  0  0  0  0
 38145  1  0  0  0  0
 38146  1  0  0  0  0
 39 40  1  0  0  0  0
 39147  1  0  0  0  0
 39148  1  0  0  0  0
 40 41  1  0  0  0  0
 40149  1  0  0  0  0
 40150  1  0  0  0  0
 41 42  1  0  0  0  0
 41151  1  0  0  0  0
 41152  1  0  0  0  0
 42 43  1  0  0  0  0
 42153  1  0  0  0  0
 42154  1  0  0  0  0
 43 44  1  0  0  0  0
 43155  1  0  0  0  0
 43156  1  0  0  0  0
 44 45  1  0  0  0  0
 44157  1  0  0  0  0
 44158  1  0  0  0  0
 45 46  1  0  0  0  0
 45159  1  0  0  0  0
 45160  1  0  0  0  0
 46 47  1  0  0  0  0
 46161  1  0  0  0  0
 46162  1  0  0  0  0
 47 48  1  0  0  0  0
 47163  1  0  0  0  0
 47164  1  0  0  0  0
 48 49  1  0  0  0  0
 48165  1  0  0  0  0
 48166  1  0  0  0  0
 49 50  1  0  0  0  0
 49167  1  0  0  0  0
 49168  1  0  0  0  0
 50 51  1  0  0  0  0
 50169  1  0  0  0  0
 50170  1  0  0  0  0
 51 52  1  0  0  0  0
 51171  1  0  0  0  0
 51172  1  0  0  0  0
 52 53  1  0  0  0  0
 52173  1  0  0  0  0
 52174  1  0  0  0  0
 53 54  1  0  0  0  0
 53175  1  0  0  0  0
 53176  1  0  0  0  0
 54 55  1  0  0  0  0
 54177  1  0  0  0  0
 54178  1  0  0  0  0
 55 56  1  0  0  0  0
 55179  1  0  0  0  0
 55180  1  0  0  0  0
 56 57  1  0  0  0  0
 56181  1  0  0  0  0
 56182  1  0  0  0  0
 57 58  1  0  0  0  0
 57183  1  0  0  0  0
 57184  1  0  0  0  0
 58 59  1  0  0  0  0
 58185  1  0  0  0  0
 58186  1  0  0  0  0
 59 60  1  0  0  0  0
 59187  1  0  0  0  0
 59188  1  0  0  0  0
 60 61  1  0  0  0  0
 60189  1  0  0  0  0
 60190  1  0  0  0  0
 61 62  1  0  0  0  0
 61191  1  0  0  0  0
 61192  1  0  0  0  0
 62 63  1  0  0  0  0
 62193  1  0  0  0  0
 62194  1  0  0  0  0
 63 64  1  0  0  0  0
 63195  1  0  0  0  0
 63196  1  0  0  0  0
 64 65  1  0  0  0  0
 64197  1  0  0  0  0
 64198  1  0  0  0  0
 65 66  1  0  0  0  0
 65199  1  0  0  0  0
 65200  1  0  0  0  0
 66 67  1  0  0  0  0
 66201  1  0  0  0  0
 66202  1  0  0  0  0
 67 68  1  0  0  0  0
 67203  1  0  0  0  0
 67204  1  0  0  0  0
 68 69  1  0  0  0  0
 68205  1  0  0  0  0
 68206  1  0  0  0  0
 69 70  1  0  0  0  0
 69207  1  0  0  0  0
 69208  1  0  0  0  0
 70 71  1  0  0  0  0
 70209  1  0  0  0  0
 70210  1  0  0  0  0
 71 72  1  0  0  0  0
 71211  1  0  0  0  0
 71212  1  0  0  0  0
 72 73  1  0  0  0  0
 72213  1  0  0  0  0
 72214  1  0  0  0  0
 73 74  1  0  0  0  0
 73215  1  0  0  0  0
 73216  1  0  0  0  0
 74 75  1  0  0  0  0
 74217  1  0  0  0  0
 74218  1  0  0  0  0
 75 76  1  0  0  0  0
 75219  1  0  0  0  0
 75220  1  0  0  0  0
 76 77  1  0  0  0  0
 76221  1  0  0  0  0
 76222  1  0  0  0  0
 77 78  1  0  0  0  0
 77223  1  0  0  0  0
 77224  1  0  0  0  0
 78 79  1  0  0  0  0
 78225  1  0  0  0  0
 78226  1  0  0  0  0
 79227  1  0  0  0  0
 79228  1  0  0  0  0
 79229  1  0  0  0  0
M  END
$$$$
