
 OpenBabel04232217003D

229229  0  0  1  0  0  0  0  0999 V2000
   -4.7790    8.6909  -13.4687 O   0  0  0  0  0  0  0  0  0  0  0  0
   -4.9095    7.7533  -15.0518 C   0  0  0  0  0  0  0  0  0  0  0  0
   -4.0818    7.8694  -17.0480 C   0  0  3  0  0  0  0  0  0  0  0  0
   -3.0555    8.0697  -15.4408 O   0  0  0  0  0  0  0  0  0  0  0  0
   -2.7744    9.1693  -14.0723 C   0  0  0  0  0  0  0  0  0  0  0  0
   -3.6244   10.4393  -14.0464 C   0  0  0  0  0  0  0  0  0  0  0  0
   -3.0974   10.8381  -15.2493 O   0  0  0  0  0  0  0  0  0  0  0  0
   -4.0445   10.5594  -16.2064 C   0  0  0  0  0  0  0  0  0  0  0  0
   -3.3005   10.0479  -17.2567 O   0  0  0  0  0  0  0  0  0  0  0  0
   -4.0876   10.0593  -18.3733 C   0  0  0  0  0  0  0  0  0  0  0  0
   -3.3130    9.5819  -19.5461 C   0  0  0  0  0  0  0  0  0  0  0  0
   -4.3416   10.1753  -20.4500 C   0  0  0  0  0  0  0  0  0  0  0  0
   -4.0414    9.6197  -21.7037 C   0  0  0  0  0  0  0  0  0  0  0  0
   -5.0973   10.1790  -22.5796 C   0  0  0  0  0  0  0  0  0  0  0  0
   -5.1268    9.3544  -23.7278 C   0  0  0  0  0  0  0  0  0  0  0  0
   -4.9838   10.0334  -25.0135 C   0  0  0  0  0  0  0  0  0  0  0  0
   -3.7828    9.7272  -25.9325 C   0  0  0  0  0  0  0  0  0  0  0  0
   -4.7632   10.6440  -26.9463 C   0  0  0  0  0  0  0  0  0  0  0  0
   -4.9405    9.9516  -28.1582 C   0  0  0  0  0  0  0  0  0  0  0  0
   -4.9773   10.3921  -29.5539 C   0  0  0  0  0  0  0  0  0  0  0  0
   -3.6526    9.3360  -30.3401 C   0  0  0  0  0  0  0  0  0  0  0  0
   -5.0723    9.0365  -30.4940 C   0  0  0  0  0  0  0  0  0  0  0  0
   -4.9333    7.7221  -28.8192 C   0  0  0  0  0  0  0  0  0  0  0  0
   -4.9308    7.2742  -26.7268 C   0  0  0  0  0  0  0  0  0  0  0  0
   -4.6327    6.9193  -24.2971 C   0  0  0  0  0  0  0  0  0  0  0  0
   -4.1756    6.8997  -21.7875 C   0  0  0  0  0  0  0  0  0  0  0  0
   -3.9633    6.9168  -19.0902 C   0  0  3  0  0  0  0  0  0  0  0  0
   -3.4795    6.1063  -16.9192 C   0  0  0  0  0  0  0  0  0  0  0  0
   -3.0260    5.9232  -14.4525 C   0  0  0  0  0  0  0  0  0  0  0  0
   -2.9537    5.5283  -12.2856 C   0  0  0  0  0  0  0  0  0  0  0  0
   -2.6796    4.7214  -10.0720 C   0  0  0  0  0  0  0  0  0  0  0  0
   -2.9088    3.9010   -8.0445 C   0  0  0  0  0  0  0  0  0  0  0  0
   -3.5712    4.0237   -6.1198 C   0  0  0  0  0  0  0  0  0  0  0  0
   -5.1100    3.8636   -5.6117 C   0  0  0  0  0  0  0  0  0  0  0  0
   -5.7668    4.9228   -6.4073 C   0  0  0  0  0  0  0  0  0  0  0  0
   -7.2664    4.8940   -6.3453 C   0  0  0  0  0  0  0  0  0  0  0  0
   -7.7772    5.9438   -7.3123 C   0  0  0  0  0  0  0  0  0  0  0  0
   -9.2892    5.9481   -7.3164 C   0  0  0  0  0  0  0  0  0  0  0  0
   -9.7971    6.9953   -8.2873 C   0  0  0  0  0  0  0  0  0  0  0  0
  -11.3131    6.9993   -8.2911 C   0  0  0  0  0  0  0  0  0  0  0  0
  -11.8234    8.0464   -9.2617 C   0  0  0  0  0  0  0  0  0  0  0  0
  -13.3397    8.0503   -9.2653 C   0  0  0  0  0  0  0  0  0  0  0  0
  -13.8501    9.0974  -10.2358 C   0  0  0  0  0  0  0  0  0  0  0  0
  -15.3664    9.1013  -10.2395 C   0  0  0  0  0  0  0  0  0  0  0  0
  -15.8768   10.1484  -11.2101 C   0  0  0  0  0  0  0  0  0  0  0  0
  -17.3930   10.1509  -11.2151 C   0  0  0  0  0  0  0  0  0  0  0  0
  -17.9035   11.1967  -12.1872 C   0  0  0  0  0  0  0  0  0  0  0  0
  -19.4197   11.1992  -12.1923 C   0  0  0  0  0  0  0  0  0  0  0  0
  -19.9301   12.2449  -13.1643 C   0  0  0  0  0  0  0  0  0  0  0  0
  -21.4464   12.2475  -13.1694 C   0  0  0  0  0  0  0  0  0  0  0  0
  -21.9568   13.2932  -14.1415 C   0  0  0  0  0  0  0  0  0  0  0  0
  -23.4730   13.2971  -14.1451 C   0  0  0  0  0  0  0  0  0  0  0  0
  -23.9835   14.3415  -15.1186 C   0  0  0  0  0  0  0  0  0  0  0  0
  -25.4997   14.3468  -15.1208 C   0  0  0  0  0  0  0  0  0  0  0  0
  -26.0101   15.3898  -16.0957 C   0  0  0  0  0  0  0  0  0  0  0  0
  -27.5264   15.3964  -16.0964 C   0  0  0  0  0  0  0  0  0  0  0  0
  -28.0368   16.4408  -17.0700 C   0  0  0  0  0  0  0  0  0  0  0  0
  -29.5530   16.4461  -17.0721 C   0  0  0  0  0  0  0  0  0  0  0  0
  -30.0634   17.4904  -18.0456 C   0  0  0  0  0  0  0  0  0  0  0  0
  -31.5797   17.4957  -18.0477 C   0  0  0  0  0  0  0  0  0  0  0  0
  -32.0901   18.5401  -19.0213 C   0  0  0  0  0  0  0  0  0  0  0  0
  -33.6063   18.5454  -19.0234 C   0  0  0  0  0  0  0  0  0  0  0  0
  -34.1168   19.5897  -19.9970 C   0  0  0  0  0  0  0  0  0  0  0  0
  -35.6330   19.5937  -20.0005 C   0  0  0  0  0  0  0  0  0  0  0  0
  -36.1434   20.6380  -20.9741 C   0  0  0  0  0  0  0  0  0  0  0  0
  -37.6597   20.6420  -20.9777 C   0  0  0  0  0  0  0  0  0  0  0  0
  -38.1701   21.6850  -21.9527 C   0  0  0  0  0  0  0  0  0  0  0  0
  -39.6863   21.6902  -21.9548 C   0  0  0  0  0  0  0  0  0  0  0  0
  -40.1968   22.7319  -22.9313 C   0  0  0  0  0  0  0  0  0  0  0  0
  -41.7130   22.7358  -22.9349 C   0  0  0  0  0  0  0  0  0  0  0  0
  -42.2234   23.7774  -23.9114 C   0  0  0  0  0  0  0  0  0  0  0  0
  -43.7397   23.7800  -23.9164 C   0  0  0  0  0  0  0  0  0  0  0  0
  -44.2503   24.8217  -24.8929 C   0  0  0  0  0  0  0  0  0  0  0  0
  -45.7667   24.8257  -24.8966 C   0  0  0  0  0  0  0  0  0  0  0  0
  -46.2780   25.8675  -25.8732 C   0  0  0  0  0  0  0  0  0  0  0  0
  -47.7954   25.8702  -25.8784 C   0  0  0  0  0  0  0  0  0  0  0  0
  -48.3090   26.9121  -26.8552 C   0  0  0  0  0  0  0  0  0  0  0  0
  -49.8288   26.9181  -26.8661 C   0  0  0  0  0  0  0  0  0  0  0  0
  -50.3380   27.9584  -27.8413 C   0  0  0  0  0  0  0  0  0  0  0  0
   -4.8947    8.5579  -12.4602 H   0  0  0  0  0  0  0  0  0  0  0  0
   -5.9474    7.9868  -14.6825 H   0  0  0  0  0  0  0  0  0  0  0  0
   -4.4223    7.1326  -14.2198 H   0  0  0  0  0  0  0  0  0  0  0  0
   -3.0397    8.1137  -17.1475 H   0  0  0  0  0  0  0  0  0  0  0  0
   -2.8378    8.3395  -13.2970 H   0  0  0  0  0  0  0  0  0  0  0  0
   -2.1880    9.3776  -13.0376 H   0  0  0  0  0  0  0  0  0  0  0  0
   -3.4444   11.2471  -13.3270 H   0  0  0  0  0  0  0  0  0  0  0  0
   -4.7343   10.4044  -14.0616 H   0  0  0  0  0  0  0  0  0  0  0  0
   -4.3639   11.5672  -16.3528 H   0  0  0  0  0  0  0  0  0  0  0  0
   -4.9563    9.9516  -15.9740 H   0  0  0  0  0  0  0  0  0  0  0  0
   -4.2412   11.1287  -18.4933 H   0  0  0  0  0  0  0  0  0  0  0  0
   -5.1003    9.6145  -18.2548 H   0  0  0  0  0  0  0  0  0  0  0  0
   -2.9667    8.6007  -19.9643 H   0  0  0  0  0  0  0  0  0  0  0  0
   -2.2723    9.8537  -19.3883 H   0  0  0  0  0  0  0  0  0  0  0  0
   -4.3871   11.2432  -20.5484 H   0  0  0  0  0  0  0  0  0  0  0  0
   -5.3767    9.7518  -20.2617 H   0  0  0  0  0  0  0  0  0  0  0  0
   -4.3132    8.6708  -21.2791 H   0  0  0  0  0  0  0  0  0  0  0  0
   -2.9864    9.5673  -22.0307 H   0  0  0  0  0  0  0  0  0  0  0  0
   -4.6922   11.1211  -22.8830 H   0  0  0  0  0  0  0  0  0  0  0  0
   -6.1270   10.1536  -22.2312 H   0  0  0  0  0  0  0  0  0  0  0  0
   -5.8185    8.4387  -23.5539 H   0  0  0  0  0  0  0  0  0  0  0  0
   -4.0800    9.1322  -23.7621 H   0  0  0  0  0  0  0  0  0  0  0  0
   -4.8341   11.0907  -24.8158 H   0  0  0  0  0  0  0  0  0  0  0  0
   -6.0055    9.7866  -25.3671 H   0  0  0  0  0  0  0  0  0  0  0  0
   -3.1687    8.7467  -25.8172 H   0  0  0  0  0  0  0  0  0  0  0  0
   -2.9842    9.8616  -26.6991 H   0  0  0  0  0  0  0  0  0  0  0  0
   -4.3799   11.5927  -27.2346 H   0  0  0  0  0  0  0  0  0  0  0  0
   -5.8761   10.7187  -26.7367 H   0  0  0  0  0  0  0  0  0  0  0  0
   -5.8817    9.3956  -27.8073 H   0  0  0  0  0  0  0  0  0  0  0  0
   -3.9255    9.5953  -28.2186 H   0  0  0  0  0  0  0  0  0  0  0  0
   -4.8618   11.4062  -29.9004 H   0  0  0  0  0  0  0  0  0  0  0  0
   -6.1818   10.2594  -29.7154 H   0  0  0  0  0  0  0  0  0  0  0  0
   -3.3728    8.1963  -30.3947 H   0  0  0  0  0  0  0  0  0  0  0  0
   -3.1840    9.4753  -31.3569 H   0  0  0  0  0  0  0  0  0  0  0  0
   -4.6903    9.9967  -31.4865 H   0  0  0  0  0  0  0  0  0  0  0  0
   -5.9117    9.2049  -31.4111 H   0  0  0  0  0  0  0  0  0  0  0  0
   -5.7649    7.2290  -29.7183 H   0  0  0  0  0  0  0  0  0  0  0  0
   -4.8162    7.4885  -30.1914 H   0  0  0  0  0  0  0  0  0  0  0  0
   -4.9501    8.1535  -27.3016 H   0  0  0  0  0  0  0  0  0  0  0  0
   -6.1127    7.1847  -27.1715 H   0  0  0  0  0  0  0  0  0  0  0  0
   -5.0733    7.9120  -24.7859 H   0  0  0  0  0  0  0  0  0  0  0  0
   -3.6111    7.2169  -25.0058 H   0  0  0  0  0  0  0  0  0  0  0  0
   -4.2625    7.8108  -22.3973 H   0  0  0  0  0  0  0  0  0  0  0  0
   -3.0654    7.3679  -22.1278 H   0  0  0  0  0  0  0  0  0  0  0  0
   -4.7816    7.5593  -19.2091 H   0  0  0  0  0  0  0  0  0  0  0  0
   -2.5770    5.5844  -16.9498 H   0  0  0  0  0  0  0  0  0  0  0  0
   -4.4612    5.8332  -16.5363 H   0  0  0  0  0  0  0  0  0  0  0  0
   -2.8230    4.8741  -14.3756 H   0  0  0  0  0  0  0  0  0  0  0  0
   -2.1137    6.5807  -14.2353 H   0  0  0  0  0  0  0  0  0  0  0  0
   -3.3871    6.3809  -11.4955 H   0  0  0  0  0  0  0  0  0  0  0  0
   -1.8655    5.9753  -11.8312 H   0  0  0  0  0  0  0  0  0  0  0  0
   -2.9842    5.5828   -9.2998 H   0  0  0  0  0  0  0  0  0  0  0  0
   -1.5472    4.6984   -9.6667 H   0  0  0  0  0  0  0  0  0  0  0  0
   -1.8190    3.8555   -7.3426 H   0  0  0  0  0  0  0  0  0  0  0  0
   -2.8958    2.7208   -7.8569 H   0  0  0  0  0  0  0  0  0  0  0  0
   -3.1963    4.8956   -5.4953 H   0  0  0  0  0  0  0  0  0  0  0  0
   -3.1676    3.2438   -5.3083 H   0  0  0  0  0  0  0  0  0  0  0  0
   -5.3551    4.0509   -4.5208 H   0  0  0  0  0  0  0  0  0  0  0  0
   -5.5109    2.8510   -5.7573 H   0  0  0  0  0  0  0  0  0  0  0  0
   -5.4210    4.7422   -7.4242 H   0  0  0  0  0  0  0  0  0  0  0  0
   -5.3844    5.8945   -6.0689 H   0  0  0  0  0  0  0  0  0  0  0  0
   -7.6233    5.1041   -5.3303 H   0  0  0  0  0  0  0  0  0  0  0  0
   -7.6349    3.9027   -6.6308 H   0  0  0  0  0  0  0  0  0  0  0  0
   -7.3992    5.7327   -8.3214 H   0  0  0  0  0  0  0  0  0  0  0  0
   -7.3976    6.9326   -7.0243 H   0  0  0  0  0  0  0  0  0  0  0  0
   -9.6621    6.1605   -6.3075 H   0  0  0  0  0  0  0  0  0  0  0  0
   -9.6621    4.9581   -7.6049 H   0  0  0  0  0  0  0  0  0  0  0  0
   -9.4219    6.7828   -9.2960 H   0  0  0  0  0  0  0  0  0  0  0  0
   -9.4219    7.9849   -7.9991 H   0  0  0  0  0  0  0  0  0  0  0  0
  -11.6877    7.2117   -7.2823 H   0  0  0  0  0  0  0  0  0  0  0  0
  -11.6877    6.0095   -8.5793 H   0  0  0  0  0  0  0  0  0  0  0  0
  -11.4487    7.8339  -10.2704 H   0  0  0  0  0  0  0  0  0  0  0  0
  -11.4487    9.0361   -8.9734 H   0  0  0  0  0  0  0  0  0  0  0  0
  -13.7144    8.2627   -8.2565 H   0  0  0  0  0  0  0  0  0  0  0  0
  -13.7144    7.0605   -9.5535 H   0  0  0  0  0  0  0  0  0  0  0  0
  -13.4754    8.8850  -11.2446 H   0  0  0  0  0  0  0  0  0  0  0  0
  -13.4754   10.0872   -9.9476 H   0  0  0  0  0  0  0  0  0  0  0  0
  -15.7412    9.3137   -9.2307 H   0  0  0  0  0  0  0  0  0  0  0  0
  -15.7410    8.1115  -10.5277 H   0  0  0  0  0  0  0  0  0  0  0  0
  -15.5009    9.9367  -12.2185 H   0  0  0  0  0  0  0  0  0  0  0  0
  -15.5032   11.1383  -10.9211 H   0  0  0  0  0  0  0  0  0  0  0  0
  -17.7689   10.3639  -10.2069 H   0  0  0  0  0  0  0  0  0  0  0  0
  -17.7666    9.1606  -11.5028 H   0  0  0  0  0  0  0  0  0  0  0  0
  -17.5276   10.9837  -13.1954 H   0  0  0  0  0  0  0  0  0  0  0  0
  -17.5299   12.1870  -11.8995 H   0  0  0  0  0  0  0  0  0  0  0  0
  -19.7956   11.4122  -11.1841 H   0  0  0  0  0  0  0  0  0  0  0  0
  -19.7933   10.2089  -12.4799 H   0  0  0  0  0  0  0  0  0  0  0  0
  -19.5543   12.0319  -14.1725 H   0  0  0  0  0  0  0  0  0  0  0  0
  -19.5566   13.2353  -12.8767 H   0  0  0  0  0  0  0  0  0  0  0  0
  -21.8222   12.4606  -12.1612 H   0  0  0  0  0  0  0  0  0  0  0  0
  -21.8200   11.2572  -13.4570 H   0  0  0  0  0  0  0  0  0  0  0  0
  -21.5820   13.0793  -15.1499 H   0  0  0  0  0  0  0  0  0  0  0  0
  -21.5821   14.2834  -13.8547 H   0  0  0  0  0  0  0  0  0  0  0  0
  -23.8477   13.5124  -13.1369 H   0  0  0  0  0  0  0  0  0  0  0  0
  -23.8479   12.3066  -14.4305 H   0  0  0  0  0  0  0  0  0  0  0  0
  -23.6099   14.1254  -16.1270 H   0  0  0  0  0  0  0  0  0  0  0  0
  -23.6076   15.3319  -14.8341 H   0  0  0  0  0  0  0  0  0  0  0  0
  -25.8731   14.5643  -14.1126 H   0  0  0  0  0  0  0  0  0  0  0  0
  -25.8757   13.3561  -15.4040 H   0  0  0  0  0  0  0  0  0  0  0  0
  -25.6378   15.1715  -17.1041 H   0  0  0  0  0  0  0  0  0  0  0  0
  -25.6330   16.3804  -15.8133 H   0  0  0  0  0  0  0  0  0  0  0  0
  -27.8988   15.6134  -15.0878 H   0  0  0  0  0  0  0  0  0  0  0  0
  -27.9034   14.4062  -16.3801 H   0  0  0  0  0  0  0  0  0  0  0  0
  -27.6633   16.2246  -18.0784 H   0  0  0  0  0  0  0  0  0  0  0  0
  -27.6608   17.4311  -16.7854 H   0  0  0  0  0  0  0  0  0  0  0  0
  -29.9265   16.6622  -16.0637 H   0  0  0  0  0  0  0  0  0  0  0  0
  -29.9290   15.4558  -17.3566 H   0  0  0  0  0  0  0  0  0  0  0  0
  -29.6899   17.2743  -19.0540 H   0  0  0  0  0  0  0  0  0  0  0  0
  -29.6875   18.4808  -17.7611 H   0  0  0  0  0  0  0  0  0  0  0  0
  -31.9532   17.7118  -17.0393 H   0  0  0  0  0  0  0  0  0  0  0  0
  -31.9556   16.5054  -18.3323 H   0  0  0  0  0  0  0  0  0  0  0  0
  -31.7166   18.3240  -20.0297 H   0  0  0  0  0  0  0  0  0  0  0  0
  -31.7142   19.5305  -18.7367 H   0  0  0  0  0  0  0  0  0  0  0  0
  -33.9799   18.7615  -18.0150 H   0  0  0  0  0  0  0  0  0  0  0  0
  -33.9822   17.5550  -19.3080 H   0  0  0  0  0  0  0  0  0  0  0  0
  -33.7421   19.3744  -21.0051 H   0  0  0  0  0  0  0  0  0  0  0  0
  -33.7420   20.5803  -19.7116 H   0  0  0  0  0  0  0  0  0  0  0  0
  -36.0077   19.8090  -18.9924 H   0  0  0  0  0  0  0  0  0  0  0  0
  -36.0078   18.6031  -20.2859 H   0  0  0  0  0  0  0  0  0  0  0  0
  -35.7687   20.4227  -21.9822 H   0  0  0  0  0  0  0  0  0  0  0  0
  -35.7687   21.6286  -20.6887 H   0  0  0  0  0  0  0  0  0  0  0  0
  -38.0343   20.8586  -19.9698 H   0  0  0  0  0  0  0  0  0  0  0  0
  -38.0345   19.6511  -21.2617 H   0  0  0  0  0  0  0  0  0  0  0  0
  -37.7965   21.4674  -22.9607 H   0  0  0  0  0  0  0  0  0  0  0  0
  -37.7942   22.6758  -21.6696 H   0  0  0  0  0  0  0  0  0  0  0  0
  -40.0599   21.9091  -20.9470 H   0  0  0  0  0  0  0  0  0  0  0  0
  -40.0622   20.6991  -22.2366 H   0  0  0  0  0  0  0  0  0  0  0  0
  -39.8221   22.5137  -23.9388 H   0  0  0  0  0  0  0  0  0  0  0  0
  -39.8219   23.7232  -22.6487 H   0  0  0  0  0  0  0  0  0  0  0  0
  -42.0877   22.9539  -21.9273 H   0  0  0  0  0  0  0  0  0  0  0  0
  -42.0877   21.7444  -23.2175 H   0  0  0  0  0  0  0  0  0  0  0  0
  -41.8476   23.5601  -24.9187 H   0  0  0  0  0  0  0  0  0  0  0  0
  -41.8498   24.7689  -23.6279 H   0  0  0  0  0  0  0  0  0  0  0  0
  -44.1155   23.9973  -22.9091 H   0  0  0  0  0  0  0  0  0  0  0  0
  -44.1133   22.7885  -24.1998 H   0  0  0  0  0  0  0  0  0  0  0  0
  -43.8754   24.6035  -25.9004 H   0  0  0  0  0  0  0  0  0  0  0  0
  -43.8754   25.8130  -24.6103 H   0  0  0  0  0  0  0  0  0  0  0  0
  -46.1412   25.0437  -23.8890 H   0  0  0  0  0  0  0  0  0  0  0  0
  -46.1411   23.8342  -25.1791 H   0  0  0  0  0  0  0  0  0  0  0  0
  -45.9016   25.6500  -26.8803 H   0  0  0  0  0  0  0  0  0  0  0  0
  -45.9037   26.8588  -25.5896 H   0  0  0  0  0  0  0  0  0  0  0  0
  -48.1699   26.0871  -24.8707 H   0  0  0  0  0  0  0  0  0  0  0  0
  -48.1676   24.8781  -26.1615 H   0  0  0  0  0  0  0  0  0  0  0  0
  -47.9291   26.6952  -27.8612 H   0  0  0  0  0  0  0  0  0  0  0  0
  -47.9336   27.9028  -26.5705 H   0  0  0  0  0  0  0  0  0  0  0  0
  -50.2079   27.1369  -25.8612 H   0  0  0  0  0  0  0  0  0  0  0  0
  -50.2033   25.9285  -27.1526 H   0  0  0  0  0  0  0  0  0  0  0  0
  -49.9860   28.9552  -27.5573 H   0  0  0  0  0  0  0  0  0  0  0  0
  -51.4305   27.9643  -27.8508 H   0  0  0  0  0  0  0  0  0  0  0  0
  -49.9814   27.7424  -28.8535 H   0  0  0  0  0  0  0  0  0  0  0  0
  1  2  1  0  0  0  0
  1 80  1  0  0  0  0
  2  3  1  0  0  0  0
  2 81  1  0  0  0  0
  2 82  1  0  0  0  0
  3  4  1  0  0  0  0
  3 27  1  0  0  0  0
  3 83  1  0  0  0  0
  4  5  1  0  0  0  0
  5  6  1  0  0  0  0
  5 84  1  0  0  0  0
  5 85  1  0  0  0  0
  6  7  1  0  0  0  0
  6 86  1  0  0  0  0
  6 87  1  0  0  0  0
  7  8  1  0  0  0  0
  8  9  1  0  0  0  0
  8 88  1  0  0  0  0
  8 89  1  0  0  0  0
  9 10  1  0  0  0  0
 10 11  1  0  0  0  0
 10 90  1  0  0  0  0
 10 91  1  0  0  0  0
 11 12  1  0  0  0  0
 11 92  1  0  0  0  0
 11 93  1  0  0  0  0
 12 13  1  0  0  0  0
 12 94  1  0  0  0  0
 12 95  1  0  0  0  0
 13 14  1  0  0  0  0
 13 96  1  0  0  0  0
 13 97  1  0  0  0  0
 14 15  1  0  0  0  0
 14 98  1  0  0  0  0
 14 99  1  0  0  0  0
 15 16  1  0  0  0  0
 15100  1  0  0  0  0
 15101  1  0  0  0  0
 16 17  1  0  0  0  0
 16102  1  0  0  0  0
 16103  1  0  0  0  0
 17 18  1  0  0  0  0
 17104  1  0  0  0  0
 17105  1  0  0  0  0
 18 19  1  0  0  0  0
 18106  1  0  0  0  0
 18107  1  0  0  0  0
 19 20  1  0  0  0  0
 19108  1  0  0  0  0
 19109  1  0  0  0  0
 20 21  1  0  0  0  0
 20110  1  0  0  0  0
 20111  1  0  0  0  0
 21 22  1  0  0  0  0
 21112  1  0  0  0  0
 21113  1  0  0  0  0
 22 23  1  0  0  0  0
 22114  1  0  0  0  0
 22115  1  0  0  0  0
 23 24  1  0  0  0  0
 23116  1  0  0  0  0
 23117  1  0  0  0  0
 24 25  1  0  0  0  0
 24118  1  0  0  0  0
 24119  1  0  0  0  0
 25 26  1  0  0  0  0
 25120  1  0  0  0  0
 25121  1  0  0  0  0
 26 27  1  0  0  0  0
 26122  1  0  0  0  0
 26123  1  0  0  0  0
 27 28  1  0  0  0  0
 27124  1  0  0  0  0
 28 29  1  0  0  0  0
 28125  1  0  0  0  0
 28126  1  0  0  0  0
 29 30  1  0  0  0  0
 29127  1  0  0  0  0
 29128  1  0  0  0  0
 30 31  1  0  0  0  0
 30129  1  0  0  0  0
 30130  1  0  0  0  0
 31 32  1  0  0  0  0
 31131  1  0  0  0  0
 31132  1  0  0  0  0
 32 33  1  0  0  0  0
 32133  1  0  0  0  0
 32134  1  0  0  0  0
 33 34  1  0  0  0  0
 33135  1  0  0  0  0
 33136  1  0  0  0  0
 34 35  1  0  0  0  0
 34137  1  0  0  0  0
 34138  1  0  0  0  0
 35 36  1  0  0  0  0
 35139  1  0  0  0  0
 35140  1  0  0  0  0
 36 37  1  0  0  0  0
 36141  1  0  0  0  0
 36142  1  0  0  0  0
 37 38  1  0  0  0  0
 37143  1  0  0  0  0
 37144  1  0  0  0  0
 38 39  1  0  0  0  0
 38145  1  0  0  0  0
 38146  1  0  0  0  0
 39 40  1  0  0  0  0
 39147  1  0  0  0  0
 39148  1  0  0  0  0
 40 41  1  0  0  0  0
 40149  1  0  0  0  0
 40150  1  0  0  0  0
 41 42  1  0  0  0  0
 41151  1  0  0  0  0
 41152  1  0  0  0  0
 42 43  1  0  0  0  0
 42153  1  0  0  0  0
 42154  1  0  0  0  0
 43 44  1  0  0  0  0
 43155  1  0  0  0  0
 43156  1  0  0  0  0
 44 45  1  0  0  0  0
 44157  1  0  0  0  0
 44158  1  0  0  0  0
 45 46  1  0  0  0  0
 45159  1  0  0  0  0
 45160  1  0  0  0  0
 46 47  1  0  0  0  0
 46161  1  0  0  0  0
 46162  1  0  0  0  0
 47 48  1  0  0  0  0
 47163  1  0  0  0  0
 47164  1  0  0  0  0
 48 49  1  0  0  0  0
 48165  1  0  0  0  0
 48166  1  0  0  0  0
 49 50  1  0  0  0  0
 49167  1  0  0  0  0
 49168  1  0  0  0  0
 50 51  1  0  0  0  0
 50169  1  0  0  0  0
 50170  1  0  0  0  0
 51 52  1  0  0  0  0
 51171  1  0  0  0  0
 51172  1  0  0  0  0
 52 53  1  0  0  0  0
 52173  1  0  0  0  0
 52174  1  0  0  0  0
 53 54  1  0  0  0  0
 53175  1  0  0  0  0
 53176  1  0  0  0  0
 54 55  1  0  0  0  0
 54177  1  0  0  0  0
 54178  1  0  0  0  0
 55 56  1  0  0  0  0
 55179  1  0  0  0  0
 55180  1  0  0  0  0
 56 57  1  0  0  0  0
 56181  1  0  0  0  0
 56182  1  0  0  0  0
 57 58  1  0  0  0  0
 57183  1  0  0  0  0
 57184  1  0  0  0  0
 58 59  1  0  0  0  0
 58185  1  0  0  0  0
 58186  1  0  0  0  0
 59 60  1  0  0  0  0
 59187  1  0  0  0  0
 59188  1  0  0  0  0
 60 61  1  0  0  0  0
 60189  1  0  0  0  0
 60190  1  0  0  0  0
 61 62  1  0  0  0  0
 61191  1  0  0  0  0
 61192  1  0  0  0  0
 62 63  1  0  0  0  0
 62193  1  0  0  0  0
 62194  1  0  0  0  0
 63 64  1  0  0  0  0
 63195  1  0  0  0  0
 63196  1  0  0  0  0
 64 65  1  0  0  0  0
 64197  1  0  0  0  0
 64198  1  0  0  0  0
 65 66  1  0  0  0  0
 65199  1  0  0  0  0
 65200  1  0  0  0  0
 66 67  1  0  0  0  0
 66201  1  0  0  0  0
 66202  1  0  0  0  0
 67 68  1  0  0  0  0
 67203  1  0  0  0  0
 67204  1  0  0  0  0
 68 69  1  0  0  0  0
 68205  1  0  0  0  0
 68206  1  0  0  0  0
 69 70  1  0  0  0  0
 69207  1  0  0  0  0
 69208  1  0  0  0  0
 70 71  1  0  0  0  0
 70209  1  0  0  0  0
 70210  1  0  0  0  0
 71 72  1  0  0  0  0
 71211  1  0  0  0  0
 71212  1  0  0  0  0
 72 73  1  0  0  0  0
 72213  1  0  0  0  0
 72214  1  0  0  0  0
 73 74  1  0  0  0  0
 73215  1  0  0  0  0
 73216  1  0  0  0  0
 74 75  1  0  0  0  0
 74217  1  0  0  0  0
 74218  1  0  0  0  0
 75 76  1  0  0  0  0
 75219  1  0  0  0  0
 75220  1  0  0  0  0
 76 77  1  0  0  0  0
 76221  1  0  0  0  0
 76222  1  0  0  0  0
 77 78  1  0  0  0  0
 77223  1  0  0  0  0
 77224  1  0  0  0  0
 78 79  1  0  0  0  0
 78225  1  0  0  0  0
 78226  1  0  0  0  0
 79227  1  0  0  0  0
 79228  1  0  0  0  0
 79229  1  0  0  0  0
M  END
$$$$
