
 OpenBabel04232216583D

 40 39  0  0  0  0  0  0  0  0999 V2000
    4.7713    4.2847    5.6620 N   0  0  0  0  0  0  0  0  0  0  0  0
    6.2238    4.2901    5.6494 N   0  0  0  0  0  0  0  0  0  0  0  0
    6.7635    3.0907    6.3121 C   0  0  0  0  0  0  0  0  0  0  0  0
    6.3395    1.8675    5.6090 N   0  0  0  0  0  0  0  0  0  0  0  0
    6.7079    1.9335    4.2111 N   0  0  0  0  0  0  0  0  0  0  0  0
    8.1122    1.8225    4.0718 N   0  0  0  0  0  0  0  0  0  0  0  0
    8.5322    1.9513    2.7211 N   0  0  0  0  0  0  0  0  0  0  0  0
    8.1983    3.2061    2.1175 N   0  0  0  0  0  0  0  0  0  0  0  0
    8.6293    4.3321    2.8938 N   0  0  0  0  0  0  0  0  0  0  0  0
   10.0510    4.5227    2.8458 N   0  0  0  0  0  0  0  0  0  0  0  0
   10.5163    4.6236    1.4834 N   0  0  0  0  0  0  0  0  0  0  0  0
   10.0619    5.8856    0.8960 C   0  0  0  0  0  0  0  0  0  0  0  0
   10.5062    5.9485   -0.5653 C   0  0  0  0  0  0  0  0  0  0  0  0
    9.9613    7.2128   -1.2247 C   0  0  0  0  0  0  0  0  0  0  0  0
   10.4100    7.3262   -2.6773 C   0  0  0  0  0  0  0  0  0  0  0  0
    9.8715    8.5975   -3.3117 C   0  0  0  0  0  0  0  0  0  0  0  0
    4.4033    5.0477    5.0846 H   0  0  0  0  0  0  0  0  0  0  0  0
    4.3920    4.4398    6.6009 H   0  0  0  0  0  0  0  0  0  0  0  0
    6.6194    5.1120    6.1173 H   0  0  0  0  0  0  0  0  0  0  0  0
    6.4234    3.0444    7.3507 H   0  0  0  0  0  0  0  0  0  0  0  0
    7.8569    3.1551    6.3478 H   0  0  0  0  0  0  0  0  0  0  0  0
    5.3173    1.9034    5.6549 H   0  0  0  0  0  0  0  0  0  0  0  0
    6.3951    2.8483    3.8541 H   0  0  0  0  0  0  0  0  0  0  0  0
    8.4281    0.9371    4.4827 H   0  0  0  0  0  0  0  0  0  0  0  0
    8.1801    1.1762    2.1543 H   0  0  0  0  0  0  0  0  0  0  0  0
    7.1918    3.2723    1.9485 H   0  0  0  0  0  0  0  0  0  0  0  0
    8.3301    4.1919    3.8670 H   0  0  0  0  0  0  0  0  0  0  0  0
   10.4874    3.7026    3.2860 H   0  0  0  0  0  0  0  0  0  0  0  0
   10.0782    3.8539    0.9695 H   0  0  0  0  0  0  0  0  0  0  0  0
   10.4785    6.7358    1.4485 H   0  0  0  0  0  0  0  0  0  0  0  0
    8.9681    5.9671    0.9268 H   0  0  0  0  0  0  0  0  0  0  0  0
   10.1404    5.0673   -1.1090 H   0  0  0  0  0  0  0  0  0  0  0  0
   11.6015    5.9343   -0.6228 H   0  0  0  0  0  0  0  0  0  0  0  0
   10.2992    8.0926   -0.6633 H   0  0  0  0  0  0  0  0  0  0  0  0
    8.8651    7.2042   -1.1793 H   0  0  0  0  0  0  0  0  0  0  0  0
   10.0572    6.4577   -3.2473 H   0  0  0  0  0  0  0  0  0  0  0  0
   11.5049    7.3282   -2.7309 H   0  0  0  0  0  0  0  0  0  0  0  0
    8.7766    8.6056   -3.3021 H   0  0  0  0  0  0  0  0  0  0  0  0
   10.2027    8.6744   -4.3515 H   0  0  0  0  0  0  0  0  0  0  0  0
   10.2250    9.4822   -2.7725 H   0  0  0  0  0  0  0  0  0  0  0  0
  1  2  1  0  0  0  0
  1 17  1  0  0  0  0
  1 18  1  0  0  0  0
  2  3  1  0  0  0  0
  2 19  1  0  0  0  0
  3  4  1  0  0  0  0
  3 20  1  0  0  0  0
  3 21  1  0  0  0  0
  4  5  1  0  0  0  0
  4 22  1  0  0  0  0
  5  6  1  0  0  0  0
  5 23  1  0  0  0  0
  6  7  1  0  0  0  0
  6 24  1  0  0  0  0
  7  8  1  0  0  0  0
  7 25  1  0  0  0  0
  8  9  1  0  0  0  0
  8 26  1  0  0  0  0
  9 10  1  0  0  0  0
  9 27  1  0  0  0  0
 10 11  1  0  0  0  0
 10 28  1  0  0  0  0
 11 12  1  0  0  0  0
 11 29  1  0  0  0  0
 12 13  1  0  0  0  0
 12 30  1  0  0  0  0
 12 31  1  0  0  0  0
 13 14  1  0  0  0  0
 13 32  1  0  0  0  0
 13 33  1  0  0  0  0
 14 15  1  0  0  0  0
 14 34  1  0  0  0  0
 14 35  1  0  0  0  0
 15 16  1  0  0  0  0
 15 36  1  0  0  0  0
 15 37  1  0  0  0  0
 16 38  1  0  0  0  0
 16 39  1  0  0  0  0
 16 40  1  0  0  0  0
M  END
$$$$
