
 OpenBabel04232216513D

 52 52  0  0  1  0  0  0  0  0999 V2000
    4.8352    3.0918   -0.9997 C   0  0  0  0  0  0  0  0  0  0  0  0
    4.4647    3.1939    0.4855 C   0  0  0  0  0  0  0  0  0  0  0  0
    5.1379    2.1576    1.3945 C   0  0  0  0  0  0  0  0  0  0  0  0
    6.2923    2.2242    2.4896 C   0  0  3  0  0  0  0  0  0  0  0  0
    5.8846    1.1331    3.5085 C   0  0  0  0  0  0  0  0  0  0  0  0
    4.6325    1.4716    4.3727 C   0  0  0  0  0  0  0  0  0  0  0  0
    3.5535    0.3910    4.6841 C   0  0  0  0  0  0  0  0  0  0  0  0
    2.7340   -0.1455    3.5103 C   0  0  0  0  0  0  0  0  0  0  0  0
    6.6287    0.0178    3.5694 C   0  0  0  0  0  0  0  0  0  0  0  0
    7.5984   -0.3660    2.4418 C   0  0  0  0  0  0  0  0  0  0  0  0
    7.8837   -1.8341    2.3432 C   0  0  0  0  0  0  0  0  0  0  0  0
    9.0320   -2.2866    2.4513 O   0  0  0  0  0  0  0  0  0  0  0  0
    6.8129   -0.6308    4.8863 C   0  0  0  0  0  0  0  0  0  0  0  0
    8.0612   -0.5536    5.4156 C   0  0  0  0  0  0  0  0  0  0  0  0
    8.2124    0.4777    6.4572 C   0  0  0  0  0  0  0  0  0  0  0  0
    9.0191    1.4924    6.0874 C   0  0  0  0  0  0  0  0  0  0  0  0
    8.4071    2.8292    5.6479 C   0  0  0  0  0  0  0  0  0  0  0  0
    8.4723    3.0181    4.0740 C   0  0  3  0  0  0  0  0  0  0  0  0
    9.4829    4.0709    3.9579 O   0  0  0  0  0  0  0  0  0  0  0  0
    9.9536    4.0878    2.5805 O   0  0  0  0  0  0  0  0  0  0  0  0
   11.2616    3.5252    2.5735 C   0  0  0  0  0  0  0  0  0  0  0  0
    7.1331    3.4145    3.1882 C   0  0  0  0  0  0  0  0  0  0  0  0
    4.0146    3.4675   -1.6299 H   0  0  0  0  0  0  0  0  0  0  0  0
    5.0126    2.0546   -1.3152 H   0  0  0  0  0  0  0  0  0  0  0  0
    5.7251    3.6790   -1.2213 H   0  0  0  0  0  0  0  0  0  0  0  0
    3.3916    2.9096    0.4797 H   0  0  0  0  0  0  0  0  0  0  0  0
    4.4757    4.2162    0.8594 H   0  0  0  0  0  0  0  0  0  0  0  0
    5.4710    1.3565    0.7135 H   0  0  0  0  0  0  0  0  0  0  0  0
    4.2679    1.6780    1.8632 H   0  0  0  0  0  0  0  0  0  0  0  0
    7.1283    1.8676    1.8736 H   0  0  0  0  0  0  0  0  0  0  0  0
    4.0859    2.2928    3.8976 H   0  0  0  0  0  0  0  0  0  0  0  0
    4.9826    1.8859    5.3208 H   0  0  0  0  0  0  0  0  0  0  0  0
    2.8305    0.8434    5.3788 H   0  0  0  0  0  0  0  0  0  0  0  0
    3.9727   -0.4660    5.2205 H   0  0  0  0  0  0  0  0  0  0  0  0
    2.2029    0.6537    2.9807 H   0  0  0  0  0  0  0  0  0  0  0  0
    1.9676   -0.8421    3.8820 H   0  0  0  0  0  0  0  0  0  0  0  0
    3.3525   -0.6952    2.7965 H   0  0  0  0  0  0  0  0  0  0  0  0
    8.5141    0.1900    2.5307 H   0  0  0  0  0  0  0  0  0  0  0  0
    7.1389   -0.1269    1.4580 H   0  0  0  0  0  0  0  0  0  0  0  0
    7.0339   -2.4737    2.0978 H   0  0  0  0  0  0  0  0  0  0  0  0
    5.9995   -0.4551    5.5742 H   0  0  0  0  0  0  0  0  0  0  0  0
    8.9268   -0.6191    4.7533 H   0  0  0  0  0  0  0  0  0  0  0  0
    7.2791    0.7240    6.9649 H   0  0  0  0  0  0  0  0  0  0  0  0
    9.9858    1.2699    5.6314 H   0  0  0  0  0  0  0  0  0  0  0  0
    9.0208    3.5835    6.1658 H   0  0  0  0  0  0  0  0  0  0  0  0
    7.3889    2.9341    6.0320 H   0  0  0  0  0  0  0  0  0  0  0  0
    8.9252    2.1226    3.6345 H   0  0  0  0  0  0  0  0  0  0  0  0
   11.9371    4.0368    3.2665 H   0  0  0  0  0  0  0  0  0  0  0  0
   11.6596    3.6311    1.5594 H   0  0  0  0  0  0  0  0  0  0  0  0
   11.2058    2.4610    2.8163 H   0  0  0  0  0  0  0  0  0  0  0  0
    7.5340    3.9908    2.3441 H   0  0  0  0  0  0  0  0  0  0  0  0
    6.5168    4.1103    3.7569 H   0  0  0  0  0  0  0  0  0  0  0  0
  1  2  1  0  0  0  0
  1 23  1  0  0  0  0
  1 24  1  0  0  0  0
  1 25  1  0  0  0  0
  2  3  1  0  0  0  0
  2 26  1  0  0  0  0
  2 27  1  0  0  0  0
  3  4  1  0  0  0  0
  3 28  1  0  0  0  0
  3 29  1  0  0  0  0
  4  5  1  0  0  0  0
  4 22  1  0  0  0  0
  4 30  1  0  0  0  0
  5  6  1  0  0  0  0
  5  9  2  3  0  0  0
  6  7  1  0  0  0  0
  6 31  1  0  0  0  0
  6 32  1  0  0  0  0
  7  8  1  0  0  0  0
  7 33  1  0  0  0  0
  7 34  1  0  0  0  0
  8 35  1  0  0  0  0
  8 36  1  0  0  0  0
  8 37  1  0  0  0  0
  9 10  1  0  0  0  0
  9 13  1  0  0  0  0
 10 11  1  0  0  0  0
 10 38  1  0  0  0  0
 10 39  1  0  0  0  0
 11 12  2  0  0  0  0
 11 40  1  0  0  0  0
 13 14  2  3  0  0  0
 13 41  1  0  0  0  0
 14 15  1  0  0  0  0
 14 42  1  0  0  0  0
 15 16  2  3  0  0  0
 15 43  1  0  0  0  0
 16 17  1  0  0  0  0
 16 44  1  0  0  0  0
 17 18  1  0  0  0  0
 17 45  1  0  0  0  0
 17 46  1  0  0  0  0
 18 19  1  0  0  0  0
 18 22  1  0  0  0  0
 18 47  1  0  0  0  0
 19 20  1  0  0  0  0
 20 21  1  0  0  0  0
 21 48  1  0  0  0  0
 21 49  1  0  0  0  0
 21 50  1  0  0  0  0
 22 51  1  0  0  0  0
 22 52  1  0  0  0  0
M  END
$$$$
