
 OpenBabel04232216433D

 18 18  0  0  0  0  0  0  0  0999 V2000
    1.4041   -0.1391   -0.0221 C   0  0  0  0  0  0  0  0  0  0  0  0
    0.8652    1.1467   -0.0281 C   0  0  0  0  0  0  0  0  0  0  0  0
   -0.5173    1.3213   -0.0187 C   0  0  0  0  0  0  0  0  0  0  0  0
   -1.3615    0.2099    0.0053 C   0  0  0  0  0  0  0  0  0  0  0  0
   -0.8307   -1.0864    0.0282 C   0  0  0  0  0  0  0  0  0  0  0  0
   -1.7429   -2.2855    0.0736 C   0  0  0  0  0  0  0  0  0  0  0  0
   -2.1445   -2.7635   -1.3126 C   0  0  0  0  0  0  0  0  0  0  0  0
    0.5607   -1.2508    0.0025 C   0  0  0  0  0  0  0  0  0  0  0  0
    2.4826   -0.2753   -0.0312 H   0  0  0  0  0  0  0  0  0  0  0  0
    1.5227    2.0118   -0.0389 H   0  0  0  0  0  0  0  0  0  0  0  0
   -0.9379    2.3231   -0.0264 H   0  0  0  0  0  0  0  0  0  0  0  0
   -2.4387    0.3621    0.0133 H   0  0  0  0  0  0  0  0  0  0  0  0
   -2.6410   -2.0388    0.6530 H   0  0  0  0  0  0  0  0  0  0  0  0
   -1.2499   -3.1015    0.6161 H   0  0  0  0  0  0  0  0  0  0  0  0
   -2.6714   -1.9804   -1.8681 H   0  0  0  0  0  0  0  0  0  0  0  0
   -2.8109   -3.6287   -1.2338 H   0  0  0  0  0  0  0  0  0  0  0  0
   -1.2696   -3.0629   -1.8998 H   0  0  0  0  0  0  0  0  0  0  0  0
    0.9962   -2.2471    0.0083 H   0  0  0  0  0  0  0  0  0  0  0  0
  1  2  1  0  0  0  0
  1  8  2  0  0  0  0
  1  9  1  0  0  0  0
  2  3  2  0  0  0  0
  2 10  1  0  0  0  0
  3  4  1  0  0  0  0
  3 11  1  0  0  0  0
  4  5  2  0  0  0  0
  4 12  1  0  0  0  0
  5  6  1  0  0  0  0
  5  8  1  0  0  0  0
  6  7  1  0  0  0  0
  6 13  1  0  0  0  0
  6 14  1  0  0  0  0
  7 15  1  0  0  0  0
  7 16  1  0  0  0  0
  7 17  1  0  0  0  0
  8 18  1  0  0  0  0
M  END
$$$$
