
 OpenBabel04232216523D

 29 29  0  0  1  0  0  0  0  0999 V2000
    0.6921    0.0731   -1.4063 C   0  0  0  0  0  0  0  0  0  0  0  0
    2.2110    0.1681   -1.4955 C   0  0  0  0  0  0  0  0  0  0  0  0
    2.8993   -1.0625   -0.8885 C   0  0  0  0  0  0  0  0  0  0  0  0
    4.4492   -1.0409   -0.9544 C   0  0  3  0  0  0  0  0  0  0  0  0
    5.0864    0.1349   -0.1985 C   0  0  0  0  0  0  0  0  0  0  0  0
    6.6208    0.1638   -0.1779 C   0  0  0  0  0  0  0  0  0  0  0  0
    7.2826    0.0599   -1.5512 C   0  0  0  0  0  0  0  0  0  0  0  0
    7.1381   -1.2741   -2.2910 C   0  0  0  0  0  0  0  0  0  0  0  0
    7.1095   -2.4702   -1.4750 N   0  0  0  0  0  0  0  0  0  0  0  0
    6.1618   -2.9155   -0.6311 N   0  0  0  0  0  0  0  0  0  0  0  0
    5.0073   -2.3435   -0.4205 C   0  0  0  0  0  0  0  0  0  0  0  0
    0.2297    0.9616   -1.8516 H   0  0  0  0  0  0  0  0  0  0  0  0
    0.3591    0.0076   -0.3654 H   0  0  0  0  0  0  0  0  0  0  0  0
    0.3179   -0.8037   -1.9441 H   0  0  0  0  0  0  0  0  0  0  0  0
    2.5278    1.0816   -0.9821 H   0  0  0  0  0  0  0  0  0  0  0  0
    2.4879    0.2707   -2.5519 H   0  0  0  0  0  0  0  0  0  0  0  0
    2.5515   -1.9491   -1.4369 H   0  0  0  0  0  0  0  0  0  0  0  0
    2.5614   -1.1961    0.1482 H   0  0  0  0  0  0  0  0  0  0  0  0
    4.6743   -0.9618   -2.0191 H   0  0  0  0  0  0  0  0  0  0  0  0
    4.7468    0.1397    0.8457 H   0  0  0  0  0  0  0  0  0  0  0  0
    4.7489    1.0751   -0.6464 H   0  0  0  0  0  0  0  0  0  0  0  0
    7.0133   -0.6098    0.4920 H   0  0  0  0  0  0  0  0  0  0  0  0
    6.9314    1.1135    0.2768 H   0  0  0  0  0  0  0  0  0  0  0  0
    8.3527    0.2699   -1.4224 H   0  0  0  0  0  0  0  0  0  0  0  0
    6.8927    0.8577   -2.1961 H   0  0  0  0  0  0  0  0  0  0  0  0
    8.0068   -1.3608   -2.9568 H   0  0  0  0  0  0  0  0  0  0  0  0
    6.3018   -1.2632   -2.9944 H   0  0  0  0  0  0  0  0  0  0  0  0
    8.0438   -2.7309   -1.1489 H   0  0  0  0  0  0  0  0  0  0  0  0
    4.3761   -2.8514    0.3259 H   0  0  0  0  0  0  0  0  0  0  0  0
  1  2  1  0  0  0  0
  1 12  1  0  0  0  0
  1 13  1  0  0  0  0
  1 14  1  0  0  0  0
  2  3  1  0  0  0  0
  2 15  1  0  0  0  0
  2 16  1  0  0  0  0
  3  4  1  0  0  0  0
  3 17  1  0  0  0  0
  3 18  1  0  0  0  0
  4  5  1  0  0  0  0
  4 11  1  0  0  0  0
  4 19  1  0  0  0  0
  5  6  1  0  0  0  0
  5 20  1  0  0  0  0
  5 21  1  0  0  0  0
  6  7  1  0  0  0  0
  6 22  1  0  0  0  0
  6 23  1  0  0  0  0
  7  8  1  0  0  0  0
  7 24  1  0  0  0  0
  7 25  1  0  0  0  0
  8  9  1  0  0  0  0
  8 26  1  0  0  0  0
  8 27  1  0  0  0  0
  9 10  1  0  0  0  0
  9 28  1  0  0  0  0
 10 11  2  0  0  0  0
 11 29  1  0  0  0  0
M  END
$$$$
