
 OpenBabel04232216493D

 47 48  0  0  0  0  0  0  0  0999 V2000
    4.3421    0.5444   -2.4299 C   0  0  0  0  0  0  0  0  0  0  0  0
    5.5840    1.2721   -1.9474 C   0  0  0  0  0  0  0  0  0  0  0  0
    5.4415    1.8353   -0.7259 C   0  0  0  0  0  0  0  0  0  0  0  0
    5.4117    0.8988    0.4288 C   0  0  0  0  0  0  0  0  0  0  0  0
    5.7683    1.4049    1.6213 C   0  0  0  0  0  0  0  0  0  0  0  0
    7.1679    1.2909    2.0617 C   0  0  0  0  0  0  0  0  0  0  0  0
    8.0631    0.4688    1.1267 C   0  0  0  0  0  0  0  0  0  0  0  0
    7.6734    1.9889    3.1195 C   0  0  0  0  0  0  0  0  0  0  0  0
    7.0227    2.7230    4.1094 N   0  0  0  0  0  0  0  0  0  0  0  0
    5.6207    2.9175    4.3836 C   0  0  0  0  0  0  0  0  0  0  0  0
    9.1899    2.2171    3.2051 C   0  0  0  0  0  0  0  0  0  0  0  0
   10.0319    2.6013    4.2112 C   0  0  0  0  0  0  0  0  0  0  0  0
   11.0751    2.6791    3.1989 C   0  0  0  0  0  0  0  0  0  0  0  0
   12.2277    3.0731    3.1818 O   0  0  0  0  0  0  0  0  0  0  0  0
   10.2021    2.2257    2.2591 N   0  0  0  0  0  0  0  0  0  0  0  0
    9.9567    2.8148    1.0692 N   0  0  0  0  0  0  0  0  0  0  0  0
   10.9227    2.8676    0.2165 C   0  0  0  0  0  0  0  0  0  0  0  0
   10.4944    3.0980   -1.1822 C   0  0  0  0  0  0  0  0  0  0  0  0
   11.1729    2.5739   -2.2140 C   0  0  0  0  0  0  0  0  0  0  0  0
   12.6907    2.4293   -2.2219 C   0  0  0  0  0  0  0  0  0  0  0  0
   10.4503    1.9540   -3.3426 C   0  0  0  0  0  0  0  0  0  0  0  0
    9.1684    1.5346   -3.5322 C   0  0  0  0  0  0  0  0  0  0  0  0
    7.8977    1.7935   -2.8319 C   0  0  0  0  0  0  0  0  0  0  0  0
    6.9038    0.9109   -2.5352 C   0  0  0  0  0  0  0  0  0  0  0  0
    3.4739    0.7775   -1.7901 H   0  0  0  0  0  0  0  0  0  0  0  0
    4.4755   -0.5408   -2.3647 H   0  0  0  0  0  0  0  0  0  0  0  0
    4.0667    0.8319   -3.4437 H   0  0  0  0  0  0  0  0  0  0  0  0
    4.5470    2.4482   -0.5655 H   0  0  0  0  0  0  0  0  0  0  0  0
    5.6756   -0.1237    0.1595 H   0  0  0  0  0  0  0  0  0  0  0  0
    5.3355    2.3610    1.9000 H   0  0  0  0  0  0  0  0  0  0  0  0
    7.5681   -0.4211    0.7262 H   0  0  0  0  0  0  0  0  0  0  0  0
    8.9345    0.0608    1.6451 H   0  0  0  0  0  0  0  0  0  0  0  0
    8.3785    1.0699    0.2738 H   0  0  0  0  0  0  0  0  0  0  0  0
    7.5666    3.5443    4.3679 H   0  0  0  0  0  0  0  0  0  0  0  0
    5.0197    2.0270    4.1795 H   0  0  0  0  0  0  0  0  0  0  0  0
    5.2322    3.7697    3.8176 H   0  0  0  0  0  0  0  0  0  0  0  0
    5.5027    3.1489    5.4464 H   0  0  0  0  0  0  0  0  0  0  0  0
    9.8842    2.8189    5.2483 H   0  0  0  0  0  0  0  0  0  0  0  0
   11.9543    2.5421    0.4291 H   0  0  0  0  0  0  0  0  0  0  0  0
    9.4355    3.3050   -1.2508 H   0  0  0  0  0  0  0  0  0  0  0  0
   13.1453    2.3952   -1.2263 H   0  0  0  0  0  0  0  0  0  0  0  0
   13.1436    3.2917   -2.7312 H   0  0  0  0  0  0  0  0  0  0  0  0
   13.0241    1.5254   -2.7413 H   0  0  0  0  0  0  0  0  0  0  0  0
   11.1509    1.6487   -4.1291 H   0  0  0  0  0  0  0  0  0  0  0  0
    9.0280    0.9300   -4.4295 H   0  0  0  0  0  0  0  0  0  0  0  0
    7.6916    2.8514   -2.6975 H   0  0  0  0  0  0  0  0  0  0  0  0
    7.0364   -0.1473   -2.7521 H   0  0  0  0  0  0  0  0  0  0  0  0
  1  2  1  0  0  0  0
  1 25  1  0  0  0  0
  1 26  1  0  0  0  0
  1 27  1  0  0  0  0
  2  3  2  3  0  0  0
  2 24  1  0  0  0  0
  3  4  1  0  0  0  0
  3 28  1  0  0  0  0
  4  5  2  3  0  0  0
  4 29  1  0  0  0  0
  5  6  1  0  0  0  0
  5 30  1  0  0  0  0
  6  7  1  0  0  0  0
  6  8  2  3  0  0  0
  7 31  1  0  0  0  0
  7 32  1  0  0  0  0
  7 33  1  0  0  0  0
  8  9  1  0  0  0  0
  8 11  1  0  0  0  0
  9 10  1  0  0  0  0
  9 34  1  0  0  0  0
 10 35  1  0  0  0  0
 10 36  1  0  0  0  0
 10 37  1  0  0  0  0
 11 12  2  0  0  0  0
 11 15  1  0  0  0  0
 12 13  1  0  0  0  0
 12 38  1  0  0  0  0
 13 14  2  0  0  0  0
 13 15  1  0  0  0  0
 15 16  1  0  0  0  0
 16 17  2  3  0  0  0
 17 18  1  0  0  0  0
 17 39  1  0  0  0  0
 18 19  2  3  0  0  0
 18 40  1  0  0  0  0
 19 20  1  0  0  0  0
 19 21  1  0  0  0  0
 20 41  1  0  0  0  0
 20 42  1  0  0  0  0
 20 43  1  0  0  0  0
 21 22  2  3  0  0  0
 21 44  1  0  0  0  0
 22 23  1  0  0  0  0
 22 45  1  0  0  0  0
 23 24  2  3  0  0  0
 23 46  1  0  0  0  0
 24 47  1  0  0  0  0
M  END
$$$$
