
 OpenBabel04232216403D

237236  0  0  0  0  0  0  0  0999 V2000
    3.9857   -1.9490    4.7174 C   0  0  0  0  0  0  0  0  0  0  0  0
    4.8974   -1.0036    4.5674 C   0  0  0  0  0  0  0  0  0  0  0  0
    5.3179   -0.5251    3.2262 C   0  0  0  0  0  0  0  0  0  0  0  0
    6.7569   -0.7082    3.0224 N   0  0  0  0  0  0  0  0  0  0  0  0
    7.1072   -0.2229    1.6978 N   0  0  0  0  0  0  0  0  0  0  0  0
    6.8235    1.2187    1.6479 C   0  0  0  0  0  0  0  0  0  0  0  0
    7.5523    1.9586    2.6808 N   0  0  0  0  0  0  0  0  0  0  0  0
    8.9843    1.7765    2.4748 C   0  0  0  0  0  0  0  0  0  0  0  0
    9.7389    2.5183    3.5564 C   0  0  0  0  0  0  0  0  0  0  0  0
   11.2331    2.3560    3.3415 C   0  0  0  0  0  0  0  0  0  0  0  0
   12.0023    3.1006    4.4179 C   0  0  0  0  0  0  0  0  0  0  0  0
   13.4961    2.9399    4.1988 C   0  0  0  0  0  0  0  0  0  0  0  0
   14.2611    3.6870    5.2760 C   0  0  0  0  0  0  0  0  0  0  0  0
   15.7538    3.5279    5.0557 C   0  0  0  0  0  0  0  0  0  0  0  0
   16.5170    4.2751    6.1330 C   0  0  0  0  0  0  0  0  0  0  0  0
   18.0092    4.1141    5.9135 C   0  0  0  0  0  0  0  0  0  0  0  0
   18.7719    4.8596    6.9920 C   0  0  0  0  0  0  0  0  0  0  0  0
   20.2639    4.7001    6.7712 C   0  0  0  0  0  0  0  0  0  0  0  0
   21.0264    5.4441    7.8508 C   0  0  0  0  0  0  0  0  0  0  0  0
   22.5184    5.2861    7.6287 C   0  0  0  0  0  0  0  0  0  0  0  0
   23.2808    6.0284    8.7094 C   0  0  0  0  0  0  0  0  0  0  0  0
   24.7728    5.8721    8.4862 C   0  0  0  0  0  0  0  0  0  0  0  0
   25.5352    6.6127    9.5681 C   0  0  0  0  0  0  0  0  0  0  0  0
   27.0272    6.4548    9.3460 C   0  0  0  0  0  0  0  0  0  0  0  0
   27.7896    7.1954   10.4279 C   0  0  0  0  0  0  0  0  0  0  0  0
   29.2816    7.0391   10.2047 C   0  0  0  0  0  0  0  0  0  0  0  0
   30.0441    7.7797   11.2866 C   0  0  0  0  0  0  0  0  0  0  0  0
   31.5361    7.6234   11.0633 C   0  0  0  0  0  0  0  0  0  0  0  0
   32.2985    8.3641   12.1452 C   0  0  0  0  0  0  0  0  0  0  0  0
   33.7905    8.2077   11.9220 C   0  0  0  0  0  0  0  0  0  0  0  0
   34.5529    8.9484   13.0039 C   0  0  0  0  0  0  0  0  0  0  0  0
   36.0449    8.7921   12.7806 C   0  0  0  0  0  0  0  0  0  0  0  0
   36.8073    9.5344   13.8614 C   0  0  0  0  0  0  0  0  0  0  0  0
   38.2993    9.3781   13.6381 C   0  0  0  0  0  0  0  0  0  0  0  0
   39.0617   10.1203   14.7189 C   0  0  0  0  0  0  0  0  0  0  0  0
   40.5537    9.9641   14.4956 C   0  0  0  0  0  0  0  0  0  0  0  0
   41.3161   10.7080   15.5753 C   0  0  0  0  0  0  0  0  0  0  0  0
   42.8081   10.5533   15.3509 C   0  0  0  0  0  0  0  0  0  0  0  0
   43.5705   11.2957   16.4316 C   0  0  0  0  0  0  0  0  0  0  0  0
   45.0625   11.1427   16.2061 C   0  0  0  0  0  0  0  0  0  0  0  0
   45.8249   11.8866   17.2857 C   0  0  0  0  0  0  0  0  0  0  0  0
   47.3169   11.7320   17.0613 C   0  0  0  0  0  0  0  0  0  0  0  0
   48.0793   12.4759   18.1409 C   0  0  0  0  0  0  0  0  0  0  0  0
   49.5713   12.3213   17.9165 C   0  0  0  0  0  0  0  0  0  0  0  0
   50.3337   13.0653   18.9962 C   0  0  0  0  0  0  0  0  0  0  0  0
   51.8257   12.9106   18.7718 C   0  0  0  0  0  0  0  0  0  0  0  0
   52.5881   13.6545   19.8514 C   0  0  0  0  0  0  0  0  0  0  0  0
   54.0801   13.4983   19.6281 C   0  0  0  0  0  0  0  0  0  0  0  0
   54.8425   14.2406   20.7089 C   0  0  0  0  0  0  0  0  0  0  0  0
   56.3345   14.0859   20.4845 C   0  0  0  0  0  0  0  0  0  0  0  0
   57.0969   14.8282   21.5653 C   0  0  0  0  0  0  0  0  0  0  0  0
   58.5889   14.6719   21.3420 C   0  0  0  0  0  0  0  0  0  0  0  0
   59.3513   15.4126   22.4239 C   0  0  0  0  0  0  0  0  0  0  0  0
   60.8433   15.2579   22.1996 C   0  0  0  0  0  0  0  0  0  0  0  0
   61.6057   16.0002   23.2803 C   0  0  0  0  0  0  0  0  0  0  0  0
   63.0977   15.8439   23.0570 C   0  0  0  0  0  0  0  0  0  0  0  0
   63.8601   16.5878   24.1367 C   0  0  0  0  0  0  0  0  0  0  0  0
   65.3521   16.4315   23.9134 C   0  0  0  0  0  0  0  0  0  0  0  0
   66.1145   17.1738   24.9942 C   0  0  0  0  0  0  0  0  0  0  0  0
   67.6065   17.0175   24.7709 C   0  0  0  0  0  0  0  0  0  0  0  0
   68.3689   17.7598   25.8517 C   0  0  0  0  0  0  0  0  0  0  0  0
   69.8609   17.6035   25.6285 C   0  0  0  0  0  0  0  0  0  0  0  0
   70.6233   18.3458   26.7092 C   0  0  0  0  0  0  0  0  0  0  0  0
   72.1153   18.1895   26.4860 C   0  0  0  0  0  0  0  0  0  0  0  0
   72.8777   18.9318   27.5668 C   0  0  0  0  0  0  0  0  0  0  0  0
   74.3697   18.7755   27.3435 C   0  0  0  0  0  0  0  0  0  0  0  0
   75.1322   19.5178   28.4243 C   0  0  0  0  0  0  0  0  0  0  0  0
   76.6242   19.3615   28.2010 C   0  0  0  0  0  0  0  0  0  0  0  0
   77.3867   20.1055   29.2807 C   0  0  0  0  0  0  0  0  0  0  0  0
   78.8787   19.9493   29.0575 C   0  0  0  0  0  0  0  0  0  0  0  0
   79.6414   20.6931   30.1371 C   0  0  0  0  0  0  0  0  0  0  0  0
   81.1336   20.5370   29.9140 C   0  0  0  0  0  0  0  0  0  0  0  0
   81.8966   21.2809   30.9936 C   0  0  0  0  0  0  0  0  0  0  0  0
   83.3893   21.1249   30.7708 C   0  0  0  0  0  0  0  0  0  0  0  0
   84.1526   21.8706   31.8493 C   0  0  0  0  0  0  0  0  0  0  0  0
   85.6461   21.7154   31.6277 C   0  0  0  0  0  0  0  0  0  0  0  0
   86.4110   22.4617   32.7071 C   0  0  0  0  0  0  0  0  0  0  0  0
   87.9066   22.3067   32.4893 C   0  0  0  0  0  0  0  0  0  0  0  0
   88.6818   23.0496   33.5676 C   0  0  0  0  0  0  0  0  0  0  0  0
   90.1736   22.8928   33.3471 C   0  0  0  0  0  0  0  0  0  0  0  0
    3.6963   -2.2727    5.7078 H   0  0  0  0  0  0  0  0  0  0  0  0
    3.5185   -2.4209    3.8555 H   0  0  0  0  0  0  0  0  0  0  0  0
    5.3433   -0.5342    5.4428 H   0  0  0  0  0  0  0  0  0  0  0  0
    5.0415    0.5299    3.1962 H   0  0  0  0  0  0  0  0  0  0  0  0
    4.7670   -1.0348    2.4263 H   0  0  0  0  0  0  0  0  0  0  0  0
    6.9488   -1.7021    3.0749 H   0  0  0  0  0  0  0  0  0  0  0  0
    6.5608   -0.7162    1.0153 H   0  0  0  0  0  0  0  0  0  0  0  0
    5.7537    1.4035    1.7579 H   0  0  0  0  0  0  0  0  0  0  0  0
    7.0423    1.6227    0.6553 H   0  0  0  0  0  0  0  0  0  0  0  0
    7.2867    1.5541    3.5928 H   0  0  0  0  0  0  0  0  0  0  0  0
    9.2597    2.1671    1.4881 H   0  0  0  0  0  0  0  0  0  0  0  0
    9.2657    0.7158    2.5046 H   0  0  0  0  0  0  0  0  0  0  0  0
    9.4627    2.1322    4.5462 H   0  0  0  0  0  0  0  0  0  0  0  0
    9.4714    3.5806    3.5361 H   0  0  0  0  0  0  0  0  0  0  0  0
   11.5135    2.7408    2.3519 H   0  0  0  0  0  0  0  0  0  0  0  0
   11.5028    1.2923    3.3612 H   0  0  0  0  0  0  0  0  0  0  0  0
   11.7278    2.7144    5.4072 H   0  0  0  0  0  0  0  0  0  0  0  0
   11.7359    4.1645    4.3989 H   0  0  0  0  0  0  0  0  0  0  0  0
   13.7733    3.3253    3.2099 H   0  0  0  0  0  0  0  0  0  0  0  0
   13.7656    1.8767    4.2201 H   0  0  0  0  0  0  0  0  0  0  0  0
   13.9867    3.3011    6.2656 H   0  0  0  0  0  0  0  0  0  0  0  0
   13.9924    4.7505    5.2563 H   0  0  0  0  0  0  0  0  0  0  0  0
   16.0293    3.9142    4.0667 H   0  0  0  0  0  0  0  0  0  0  0  0
   16.0236    2.4648    5.0760 H   0  0  0  0  0  0  0  0  0  0  0  0
   16.2411    3.8899    7.1224 H   0  0  0  0  0  0  0  0  0  0  0  0
   16.2488    5.3386    6.1121 H   0  0  0  0  0  0  0  0  0  0  0  0
   18.2857    4.5007    4.9249 H   0  0  0  0  0  0  0  0  0  0  0  0
   18.2776    3.0506    5.9333 H   0  0  0  0  0  0  0  0  0  0  0  0
   18.4966    4.4721    7.9806 H   0  0  0  0  0  0  0  0  0  0  0  0
   18.5027    5.9229    6.9734 H   0  0  0  0  0  0  0  0  0  0  0  0
   20.5394    5.0890    5.7831 H   0  0  0  0  0  0  0  0  0  0  0  0
   20.5330    3.6368    6.7884 H   0  0  0  0  0  0  0  0  0  0  0  0
   20.7519    5.0542    8.8387 H   0  0  0  0  0  0  0  0  0  0  0  0
   20.7563    6.5071    7.8345 H   0  0  0  0  0  0  0  0  0  0  0  0
   22.7930    5.6773    6.6413 H   0  0  0  0  0  0  0  0  0  0  0  0
   22.7883    4.2230    7.6436 H   0  0  0  0  0  0  0  0  0  0  0  0
   23.0072    5.6362    9.6967 H   0  0  0  0  0  0  0  0  0  0  0  0
   23.0099    7.0913    8.6956 H   0  0  0  0  0  0  0  0  0  0  0  0
   25.0467    6.2656    7.4995 H   0  0  0  0  0  0  0  0  0  0  0  0
   25.0436    4.8092    8.4987 H   0  0  0  0  0  0  0  0  0  0  0  0
   25.2604    6.2202   10.5549 H   0  0  0  0  0  0  0  0  0  0  0  0
   25.2655    7.6759    9.5547 H   0  0  0  0  0  0  0  0  0  0  0  0
   27.3021    6.8473    8.3592 H   0  0  0  0  0  0  0  0  0  0  0  0
   27.2969    5.3916    9.3594 H   0  0  0  0  0  0  0  0  0  0  0  0
   27.5158    6.8019   11.4146 H   0  0  0  0  0  0  0  0  0  0  0  0
   27.5189    8.2583   10.4154 H   0  0  0  0  0  0  0  0  0  0  0  0
   29.5555    7.4326    9.2180 H   0  0  0  0  0  0  0  0  0  0  0  0
   29.5524    5.9762   10.2171 H   0  0  0  0  0  0  0  0  0  0  0  0
   29.7702    7.3862   12.2732 H   0  0  0  0  0  0  0  0  0  0  0  0
   29.7733    8.8427   11.2741 H   0  0  0  0  0  0  0  0  0  0  0  0
   31.8099    8.0169   10.0767 H   0  0  0  0  0  0  0  0  0  0  0  0
   31.8068    6.5605   11.0758 H   0  0  0  0  0  0  0  0  0  0  0  0
   32.0246    7.9706   13.1319 H   0  0  0  0  0  0  0  0  0  0  0  0
   32.0277    9.4270   12.1328 H   0  0  0  0  0  0  0  0  0  0  0  0
   34.0643    8.6012   10.9353 H   0  0  0  0  0  0  0  0  0  0  0  0
   34.0612    7.1448   11.9344 H   0  0  0  0  0  0  0  0  0  0  0  0
   34.2791    8.5549   13.9906 H   0  0  0  0  0  0  0  0  0  0  0  0
   34.2821   10.0113   12.9914 H   0  0  0  0  0  0  0  0  0  0  0  0
   36.3185    9.1843   11.7934 H   0  0  0  0  0  0  0  0  0  0  0  0
   36.3158    7.7292   12.7945 H   0  0  0  0  0  0  0  0  0  0  0  0
   36.5337    9.1422   14.8486 H   0  0  0  0  0  0  0  0  0  0  0  0
   36.5363   10.5972   13.8475 H   0  0  0  0  0  0  0  0  0  0  0  0
   38.5728    9.7702   12.6509 H   0  0  0  0  0  0  0  0  0  0  0  0
   38.5702    8.3152   13.6520 H   0  0  0  0  0  0  0  0  0  0  0  0
   38.7881    9.7282   15.7062 H   0  0  0  0  0  0  0  0  0  0  0  0
   38.7907   11.1832   14.7050 H   0  0  0  0  0  0  0  0  0  0  0  0
   40.8270   10.3549   13.5078 H   0  0  0  0  0  0  0  0  0  0  0  0
   40.8249    8.9013   14.5110 H   0  0  0  0  0  0  0  0  0  0  0  0
   41.0437   10.3162   16.5630 H   0  0  0  0  0  0  0  0  0  0  0  0
   41.0438   11.7705   15.5609 H   0  0  0  0  0  0  0  0  0  0  0  0
   43.0805   10.9465   14.3637 H   0  0  0  0  0  0  0  0  0  0  0  0
   43.0802    9.4908   15.3639 H   0  0  0  0  0  0  0  0  0  0  0  0
   43.2991   10.9016   17.4187 H   0  0  0  0  0  0  0  0  0  0  0  0
   43.2974   12.3580   16.4196 H   0  0  0  0  0  0  0  0  0  0  0  0
   45.3337   11.5355   15.2185 H   0  0  0  0  0  0  0  0  0  0  0  0
   45.3358   10.0804   16.2195 H   0  0  0  0  0  0  0  0  0  0  0  0
   45.5526   11.4948   18.2735 H   0  0  0  0  0  0  0  0  0  0  0  0
   45.5526   12.9491   17.2713 H   0  0  0  0  0  0  0  0  0  0  0  0
   47.5892   12.1238   16.0736 H   0  0  0  0  0  0  0  0  0  0  0  0
   47.5892   10.6695   17.0757 H   0  0  0  0  0  0  0  0  0  0  0  0
   47.8070   12.0841   19.1287 H   0  0  0  0  0  0  0  0  0  0  0  0
   47.8070   13.5385   18.1265 H   0  0  0  0  0  0  0  0  0  0  0  0
   49.8436   12.7131   16.9288 H   0  0  0  0  0  0  0  0  0  0  0  0
   49.8436   11.2588   17.9309 H   0  0  0  0  0  0  0  0  0  0  0  0
   50.0614   12.6734   19.9839 H   0  0  0  0  0  0  0  0  0  0  0  0
   50.0614   14.1278   18.9818 H   0  0  0  0  0  0  0  0  0  0  0  0
   52.0980   13.3024   17.7840 H   0  0  0  0  0  0  0  0  0  0  0  0
   52.0979   11.8481   18.7862 H   0  0  0  0  0  0  0  0  0  0  0  0
   52.3148   13.2637   20.8392 H   0  0  0  0  0  0  0  0  0  0  0  0
   52.3169   14.7173   19.8361 H   0  0  0  0  0  0  0  0  0  0  0  0
   54.3536   13.8904   18.6409 H   0  0  0  0  0  0  0  0  0  0  0  0
   54.3511   12.4354   19.6421 H   0  0  0  0  0  0  0  0  0  0  0  0
   54.5700   13.8474   21.6960 H   0  0  0  0  0  0  0  0  0  0  0  0
   54.5705   15.3032   20.6959 H   0  0  0  0  0  0  0  0  0  0  0  0
   56.6071   14.4791   19.4974 H   0  0  0  0  0  0  0  0  0  0  0  0
   56.6065   13.0233   20.4975 H   0  0  0  0  0  0  0  0  0  0  0  0
   56.8233   14.4360   22.5525 H   0  0  0  0  0  0  0  0  0  0  0  0
   56.8259   15.8911   21.5514 H   0  0  0  0  0  0  0  0  0  0  0  0
   58.8627   15.0654   20.3553 H   0  0  0  0  0  0  0  0  0  0  0  0
   58.8597   13.6090   21.3545 H   0  0  0  0  0  0  0  0  0  0  0  0
   59.0786   15.0181   23.4105 H   0  0  0  0  0  0  0  0  0  0  0  0
   59.0795   16.4752   22.4124 H   0  0  0  0  0  0  0  0  0  0  0  0
   61.1159   15.6511   21.2124 H   0  0  0  0  0  0  0  0  0  0  0  0
   61.1153   14.1953   22.2125 H   0  0  0  0  0  0  0  0  0  0  0  0
   61.3322   15.6080   24.2676 H   0  0  0  0  0  0  0  0  0  0  0  0
   61.3347   17.0630   23.2664 H   0  0  0  0  0  0  0  0  0  0  0  0
   63.3711   16.2348   22.0692 H   0  0  0  0  0  0  0  0  0  0  0  0
   63.3689   14.7811   23.0724 H   0  0  0  0  0  0  0  0  0  0  0  0
   63.5867   16.1970   25.1245 H   0  0  0  0  0  0  0  0  0  0  0  0
   63.5890   17.6506   24.1214 H   0  0  0  0  0  0  0  0  0  0  0  0
   65.6257   16.8237   22.9262 H   0  0  0  0  0  0  0  0  0  0  0  0
   65.6231   15.3687   23.9274 H   0  0  0  0  0  0  0  0  0  0  0  0
   65.8409   16.7817   25.9814 H   0  0  0  0  0  0  0  0  0  0  0  0
   65.8435   18.2367   24.9803 H   0  0  0  0  0  0  0  0  0  0  0  0
   67.8801   17.4097   23.7837 H   0  0  0  0  0  0  0  0  0  0  0  0
   67.8775   15.9547   24.7849 H   0  0  0  0  0  0  0  0  0  0  0  0
   68.0953   17.3677   26.8390 H   0  0  0  0  0  0  0  0  0  0  0  0
   68.0979   18.8227   25.8378 H   0  0  0  0  0  0  0  0  0  0  0  0
   70.1345   17.9957   24.6412 H   0  0  0  0  0  0  0  0  0  0  0  0
   70.1319   16.5407   25.6424 H   0  0  0  0  0  0  0  0  0  0  0  0
   70.3497   17.9537   27.6965 H   0  0  0  0  0  0  0  0  0  0  0  0
   70.3524   19.4087   26.6953 H   0  0  0  0  0  0  0  0  0  0  0  0
   72.3889   18.5817   25.4987 H   0  0  0  0  0  0  0  0  0  0  0  0
   72.3863   17.1267   26.4999 H   0  0  0  0  0  0  0  0  0  0  0  0
   72.6041   18.5396   28.5540 H   0  0  0  0  0  0  0  0  0  0  0  0
   72.6068   19.9947   27.5529 H   0  0  0  0  0  0  0  0  0  0  0  0
   74.6433   19.1677   26.3563 H   0  0  0  0  0  0  0  0  0  0  0  0
   74.6407   17.7127   27.3574 H   0  0  0  0  0  0  0  0  0  0  0  0
   74.8586   19.1257   29.4115 H   0  0  0  0  0  0  0  0  0  0  0  0
   74.8611   20.5807   28.4104 H   0  0  0  0  0  0  0  0  0  0  0  0
   76.8975   19.7524   27.2132 H   0  0  0  0  0  0  0  0  0  0  0  0
   76.8953   18.2987   28.2164 H   0  0  0  0  0  0  0  0  0  0  0  0
   77.1132   19.7146   30.2685 H   0  0  0  0  0  0  0  0  0  0  0  0
   77.1154   21.1683   29.2653 H   0  0  0  0  0  0  0  0  0  0  0  0
   79.1520   20.3401   28.0696 H   0  0  0  0  0  0  0  0  0  0  0  0
   79.1498   18.8864   29.0729 H   0  0  0  0  0  0  0  0  0  0  0  0
   79.3679   20.3023   31.1249 H   0  0  0  0  0  0  0  0  0  0  0  0
   79.3701   21.7559   30.1217 H   0  0  0  0  0  0  0  0  0  0  0  0
   81.4067   20.9278   28.9261 H   0  0  0  0  0  0  0  0  0  0  0  0
   81.4046   19.4741   29.9293 H   0  0  0  0  0  0  0  0  0  0  0  0
   81.6231   20.8900   31.9813 H   0  0  0  0  0  0  0  0  0  0  0  0
   81.6252   22.3436   30.9781 H   0  0  0  0  0  0  0  0  0  0  0  0
   83.6621   21.5144   29.7823 H   0  0  0  0  0  0  0  0  0  0  0  0
   83.6604   20.0621   30.7875 H   0  0  0  0  0  0  0  0  0  0  0  0
   83.8787   21.4809   32.8376 H   0  0  0  0  0  0  0  0  0  0  0  0
   83.8805   22.9332   31.8323 H   0  0  0  0  0  0  0  0  0  0  0  0
   85.9184   22.1044   30.6387 H   0  0  0  0  0  0  0  0  0  0  0  0
   85.9166   20.6524   31.6438 H   0  0  0  0  0  0  0  0  0  0  0  0
   86.1341   22.0723   33.6946 H   0  0  0  0  0  0  0  0  0  0  0  0
   86.1380   23.5240   32.6883 H   0  0  0  0  0  0  0  0  0  0  0  0
   88.1775   22.6945   31.4994 H   0  0  0  0  0  0  0  0  0  0  0  0
   88.1733   21.2425   32.5031 H   0  0  0  0  0  0  0  0  0  0  0  0
   88.4122   22.6603   34.5562 H   0  0  0  0  0  0  0  0  0  0  0  0
   88.4165   24.1131   33.5521 H   0  0  0  0  0  0  0  0  0  0  0  0
   90.4602   21.8370   33.3807 H   0  0  0  0  0  0  0  0  0  0  0  0
   90.7299   23.4267   34.1219 H   0  0  0  0  0  0  0  0  0  0  0  0
   90.4645   23.2962   32.3721 H   0  0  0  0  0  0  0  0  0  0  0  0
  1  2  2  0  0  0  0
  1 81  1  0  0  0  0
  1 82  1  0  0  0  0
  2  3  1  0  0  0  0
  2 83  1  0  0  0  0
  3  4  1  0  0  0  0
  3 84  1  0  0  0  0
  3 85  1  0  0  0  0
  4  5  1  0  0  0  0
  4 86  1  0  0  0  0
  5  6  1  0  0  0  0
  5 87  1  0  0  0  0
  6  7  1  0  0  0  0
  6 88  1  0  0  0  0
  6 89  1  0  0  0  0
  7  8  1  0  0  0  0
  7 90  1  0  0  0  0
  8  9  1  0  0  0  0
  8 91  1  0  0  0  0
  8 92  1  0  0  0  0
  9 10  1  0  0  0  0
  9 93  1  0  0  0  0
  9 94  1  0  0  0  0
 10 11  1  0  0  0  0
 10 95  1  0  0  0  0
 10 96  1  0  0  0  0
 11 12  1  0  0  0  0
 11 97  1  0  0  0  0
 11 98  1  0  0  0  0
 12 13  1  0  0  0  0
 12 99  1  0  0  0  0
 12100  1  0  0  0  0
 13 14  1  0  0  0  0
 13101  1  0  0  0  0
 13102  1  0  0  0  0
 14 15  1  0  0  0  0
 14103  1  0  0  0  0
 14104  1  0  0  0  0
 15 16  1  0  0  0  0
 15105  1  0  0  0  0
 15106  1  0  0  0  0
 16 17  1  0  0  0  0
 16107  1  0  0  0  0
 16108  1  0  0  0  0
 17 18  1  0  0  0  0
 17109  1  0  0  0  0
 17110  1  0  0  0  0
 18 19  1  0  0  0  0
 18111  1  0  0  0  0
 18112  1  0  0  0  0
 19 20  1  0  0  0  0
 19113  1  0  0  0  0
 19114  1  0  0  0  0
 20 21  1  0  0  0  0
 20115  1  0  0  0  0
 20116  1  0  0  0  0
 21 22  1  0  0  0  0
 21117  1  0  0  0  0
 21118  1  0  0  0  0
 22 23  1  0  0  0  0
 22119  1  0  0  0  0
 22120  1  0  0  0  0
 23 24  1  0  0  0  0
 23121  1  0  0  0  0
 23122  1  0  0  0  0
 24 25  1  0  0  0  0
 24123  1  0  0  0  0
 24124  1  0  0  0  0
 25 26  1  0  0  0  0
 25125  1  0  0  0  0
 25126  1  0  0  0  0
 26 27  1  0  0  0  0
 26127  1  0  0  0  0
 26128  1  0  0  0  0
 27 28  1  0  0  0  0
 27129  1  0  0  0  0
 27130  1  0  0  0  0
 28 29  1  0  0  0  0
 28131  1  0  0  0  0
 28132  1  0  0  0  0
 29 30  1  0  0  0  0
 29133  1  0  0  0  0
 29134  1  0  0  0  0
 30 31  1  0  0  0  0
 30135  1  0  0  0  0
 30136  1  0  0  0  0
 31 32  1  0  0  0  0
 31137  1  0  0  0  0
 31138  1  0  0  0  0
 32 33  1  0  0  0  0
 32139  1  0  0  0  0
 32140  1  0  0  0  0
 33 34  1  0  0  0  0
 33141  1  0  0  0  0
 33142  1  0  0  0  0
 34 35  1  0  0  0  0
 34143  1  0  0  0  0
 34144  1  0  0  0  0
 35 36  1  0  0  0  0
 35145  1  0  0  0  0
 35146  1  0  0  0  0
 36 37  1  0  0  0  0
 36147  1  0  0  0  0
 36148  1  0  0  0  0
 37 38  1  0  0  0  0
 37149  1  0  0  0  0
 37150  1  0  0  0  0
 38 39  1  0  0  0  0
 38151  1  0  0  0  0
 38152  1  0  0  0  0
 39 40  1  0  0  0  0
 39153  1  0  0  0  0
 39154  1  0  0  0  0
 40 41  1  0  0  0  0
 40155  1  0  0  0  0
 40156  1  0  0  0  0
 41 42  1  0  0  0  0
 41157  1  0  0  0  0
 41158  1  0  0  0  0
 42 43  1  0  0  0  0
 42159  1  0  0  0  0
 42160  1  0  0  0  0
 43 44  1  0  0  0  0
 43161  1  0  0  0  0
 43162  1  0  0  0  0
 44 45  1  0  0  0  0
 44163  1  0  0  0  0
 44164  1  0  0  0  0
 45 46  1  0  0  0  0
 45165  1  0  0  0  0
 45166  1  0  0  0  0
 46 47  1  0  0  0  0
 46167  1  0  0  0  0
 46168  1  0  0  0  0
 47 48  1  0  0  0  0
 47169  1  0  0  0  0
 47170  1  0  0  0  0
 48 49  1  0  0  0  0
 48171  1  0  0  0  0
 48172  1  0  0  0  0
 49 50  1  0  0  0  0
 49173  1  0  0  0  0
 49174  1  0  0  0  0
 50 51  1  0  0  0  0
 50175  1  0  0  0  0
 50176  1  0  0  0  0
 51 52  1  0  0  0  0
 51177  1  0  0  0  0
 51178  1  0  0  0  0
 52 53  1  0  0  0  0
 52179  1  0  0  0  0
 52180  1  0  0  0  0
 53 54  1  0  0  0  0
 53181  1  0  0  0  0
 53182  1  0  0  0  0
 54 55  1  0  0  0  0
 54183  1  0  0  0  0
 54184  1  0  0  0  0
 55 56  1  0  0  0  0
 55185  1  0  0  0  0
 55186  1  0  0  0  0
 56 57  1  0  0  0  0
 56187  1  0  0  0  0
 56188  1  0  0  0  0
 57 58  1  0  0  0  0
 57189  1  0  0  0  0
 57190  1  0  0  0  0
 58 59  1  0  0  0  0
 58191  1  0  0  0  0
 58192  1  0  0  0  0
 59 60  1  0  0  0  0
 59193  1  0  0  0  0
 59194  1  0  0  0  0
 60 61  1  0  0  0  0
 60195  1  0  0  0  0
 60196  1  0  0  0  0
 61 62  1  0  0  0  0
 61197  1  0  0  0  0
 61198  1  0  0  0  0
 62 63  1  0  0  0  0
 62199  1  0  0  0  0
 62200  1  0  0  0  0
 63 64  1  0  0  0  0
 63201  1  0  0  0  0
 63202  1  0  0  0  0
 64 65  1  0  0  0  0
 64203  1  0  0  0  0
 64204  1  0  0  0  0
 65 66  1  0  0  0  0
 65205  1  0  0  0  0
 65206  1  0  0  0  0
 66 67  1  0  0  0  0
 66207  1  0  0  0  0
 66208  1  0  0  0  0
 67 68  1  0  0  0  0
 67209  1  0  0  0  0
 67210  1  0  0  0  0
 68 69  1  0  0  0  0
 68211  1  0  0  0  0
 68212  1  0  0  0  0
 69 70  1  0  0  0  0
 69213  1  0  0  0  0
 69214  1  0  0  0  0
 70 71  1  0  0  0  0
 70215  1  0  0  0  0
 70216  1  0  0  0  0
 71 72  1  0  0  0  0
 71217  1  0  0  0  0
 71218  1  0  0  0  0
 72 73  1  0  0  0  0
 72219  1  0  0  0  0
 72220  1  0  0  0  0
 73 74  1  0  0  0  0
 73221  1  0  0  0  0
 73222  1  0  0  0  0
 74 75  1  0  0  0  0
 74223  1  0  0  0  0
 74224  1  0  0  0  0
 75 76  1  0  0  0  0
 75225  1  0  0  0  0
 75226  1  0  0  0  0
 76 77  1  0  0  0  0
 76227  1  0  0  0  0
 76228  1  0  0  0  0
 77 78  1  0  0  0  0
 77229  1  0  0  0  0
 77230  1  0  0  0  0
 78 79  1  0  0  0  0
 78231  1  0  0  0  0
 78232  1  0  0  0  0
 79 80  1  0  0  0  0
 79233  1  0  0  0  0
 79234  1  0  0  0  0
 80235  1  0  0  0  0
 80236  1  0  0  0  0
 80237  1  0  0  0  0
M  END
$$$$
