
 OpenBabel04232216473D

 54 55  0  0  0  0  0  0  0  0999 V2000
    2.8286    2.1495    0.0367 C   0  0  0  0  0  0  0  0  0  0  0  0
    4.0658    2.2186   -0.8068 C   0  0  0  0  0  0  0  0  0  0  0  0
    4.2391    1.1525   -1.6291 C   0  0  0  0  0  0  0  0  0  0  0  0
    5.6264    0.5454   -1.6428 C   0  0  0  0  0  0  0  0  0  0  0  0
    5.9340   -0.1739   -0.4895 N   0  0  0  0  0  0  0  0  0  0  0  0
    7.0809    0.0616    0.4173 C   0  0  0  0  0  0  0  0  0  0  0  0
    6.7664    1.0328    1.5823 C   0  0  0  0  0  0  0  0  0  0  0  0
    6.8410    0.5340    3.0297 C   0  0  0  0  0  0  0  0  0  0  0  0
    5.5751   -0.1955    3.4757 C   0  0  0  0  0  0  0  0  0  0  0  0
    5.6701   -1.6959    3.2199 C   0  0  0  0  0  0  0  0  0  0  0  0
    4.3019   -2.3382    3.0134 C   0  0  0  0  0  0  0  0  0  0  0  0
    4.0381   -2.7128    1.5487 C   0  0  0  0  0  0  0  0  0  0  0  0
    4.0603   -1.5249    0.5655 C   0  0  0  0  0  0  0  0  0  0  0  0
    5.2895   -1.5046   -0.3672 C   0  0  0  0  0  0  0  0  0  0  0  0
    6.2551    0.9193   -2.7201 N   0  0  0  0  0  0  0  0  0  0  0  0
    7.5053    1.4300   -2.6929 C   0  0  0  0  0  0  0  0  0  0  0  0
    8.5672    0.8453   -2.5211 O   0  0  0  0  0  0  0  0  0  0  0  0
    7.3793    2.9385   -2.8773 C   0  0  0  0  0  0  0  0  0  0  0  0
    6.1776    3.4726   -3.6371 C   0  0  0  0  0  0  0  0  0  0  0  0
    8.1457    3.6666   -2.0316 C   0  0  0  0  0  0  0  0  0  0  0  0
    7.6142    4.9125   -1.4477 C   0  0  0  0  0  0  0  0  0  0  0  0
    6.9270    4.7461   -0.2867 C   0  0  0  0  0  0  0  0  0  0  0  0
    5.4833    4.3751   -0.3857 C   0  0  0  0  0  0  0  0  0  0  0  0
    5.2024    3.0564   -0.4151 C   0  0  0  0  0  0  0  0  0  0  0  0
    2.0051    2.7378   -0.3628 H   0  0  0  0  0  0  0  0  0  0  0  0
    3.0395    2.4198    1.0753 H   0  0  0  0  0  0  0  0  0  0  0  0
    2.4873    1.1019    0.0872 H   0  0  0  0  0  0  0  0  0  0  0  0
    3.4477    0.4850   -1.9388 H   0  0  0  0  0  0  0  0  0  0  0  0
    7.9074    0.4827   -0.1607 H   0  0  0  0  0  0  0  0  0  0  0  0
    7.4617   -0.8842    0.8163 H   0  0  0  0  0  0  0  0  0  0  0  0
    5.7779    1.4810    1.4760 H   0  0  0  0  0  0  0  0  0  0  0  0
    7.4979    1.8486    1.5129 H   0  0  0  0  0  0  0  0  0  0  0  0
    6.9270    1.4263    3.6679 H   0  0  0  0  0  0  0  0  0  0  0  0
    7.7441   -0.0590    3.2114 H   0  0  0  0  0  0  0  0  0  0  0  0
    4.6962    0.2519    2.9985 H   0  0  0  0  0  0  0  0  0  0  0  0
    5.4301   -0.0416    4.5536 H   0  0  0  0  0  0  0  0  0  0  0  0
    6.1565   -2.1515    4.0914 H   0  0  0  0  0  0  0  0  0  0  0  0
    6.3198   -1.9172    2.3712 H   0  0  0  0  0  0  0  0  0  0  0  0
    3.4953   -1.6957    3.3877 H   0  0  0  0  0  0  0  0  0  0  0  0
    4.2580   -3.2578    3.6106 H   0  0  0  0  0  0  0  0  0  0  0  0
    3.0456   -3.1814    1.5138 H   0  0  0  0  0  0  0  0  0  0  0  0
    4.7457   -3.4923    1.2412 H   0  0  0  0  0  0  0  0  0  0  0  0
    3.9214   -0.5793    1.0924 H   0  0  0  0  0  0  0  0  0  0  0  0
    3.1731   -1.6346   -0.0749 H   0  0  0  0  0  0  0  0  0  0  0  0
    4.9539   -1.8209   -1.3632 H   0  0  0  0  0  0  0  0  0  0  0  0
    6.0334   -2.2508   -0.0689 H   0  0  0  0  0  0  0  0  0  0  0  0
    5.3322    2.7865   -3.6980 H   0  0  0  0  0  0  0  0  0  0  0  0
    6.4664    3.7090   -4.6676 H   0  0  0  0  0  0  0  0  0  0  0  0
    5.7602    4.3875   -3.2098 H   0  0  0  0  0  0  0  0  0  0  0  0
    8.9797    3.2081   -1.5027 H   0  0  0  0  0  0  0  0  0  0  0  0
    7.1912    5.5830   -2.1991 H   0  0  0  0  0  0  0  0  0  0  0  0
    7.4246    4.0913    0.4403 H   0  0  0  0  0  0  0  0  0  0  0  0
    4.7649    5.1515   -0.6140 H   0  0  0  0  0  0  0  0  0  0  0  0
    6.0999    2.4591   -0.2911 H   0  0  0  0  0  0  0  0  0  0  0  0
  1  2  1  0  0  0  0
  1 25  1  0  0  0  0
  1 26  1  0  0  0  0
  1 27  1  0  0  0  0
  2  3  2  0  0  0  0
  2 24  1  0  0  0  0
  3  4  1  0  0  0  0
  3 28  1  0  0  0  0
  4  5  1  0  0  0  0
  4 15  2  0  0  0  0
  5  6  1  0  0  0  0
  5 14  1  0  0  0  0
  6  7  1  0  0  0  0
  6 29  1  0  0  0  0
  6 30  1  0  0  0  0
  7  8  1  0  0  0  0
  7 31  1  0  0  0  0
  7 32  1  0  0  0  0
  8  9  1  0  0  0  0
  8 33  1  0  0  0  0
  8 34  1  0  0  0  0
  9 10  1  0  0  0  0
  9 35  1  0  0  0  0
  9 36  1  0  0  0  0
 10 11  1  0  0  0  0
 10 37  1  0  0  0  0
 10 38  1  0  0  0  0
 11 12  1  0  0  0  0
 11 39  1  0  0  0  0
 11 40  1  0  0  0  0
 12 13  1  0  0  0  0
 12 41  1  0  0  0  0
 12 42  1  0  0  0  0
 13 14  1  0  0  0  0
 13 43  1  0  0  0  0
 13 44  1  0  0  0  0
 14 45  1  0  0  0  0
 14 46  1  0  0  0  0
 15 16  1  0  0  0  0
 16 17  2  0  0  0  0
 16 18  1  0  0  0  0
 18 19  1  0  0  0  0
 18 20  2  0  0  0  0
 19 47  1  0  0  0  0
 19 48  1  0  0  0  0
 19 49  1  0  0  0  0
 20 21  1  0  0  0  0
 20 50  1  0  0  0  0
 21 22  2  0  0  0  0
 21 51  1  0  0  0  0
 22 23  1  0  0  0  0
 22 52  1  0  0  0  0
 23 24  2  0  0  0  0
 23 53  1  0  0  0  0
 24 54  1  0  0  0  0
M  END
$$$$
