
 OpenBabel04232217013D

233232  0  0  0  0  0  0  0  0999 V2000
    3.0187    0.2646    1.3174 O   0  0  0  0  0  0  0  0  0  0  0  0
    2.5403   -0.1357    0.0006 N   0  0  0  0  0  0  0  0  0  0  0  0
    1.0793   -0.1368    0.1326 C   0  0  0  0  0  0  0  0  0  0  0  0
    0.7779   -1.0445    1.1788 O   0  0  0  0  0  0  0  0  0  0  0  0
    2.9387    0.8233   -0.9737 N   0  0  0  0  0  0  0  0  0  0  0  0
    4.4037    0.8393   -1.0270 C   0  0  0  0  0  0  0  0  0  0  0  0
    4.8865    1.8552   -2.0482 C   0  0  0  0  0  0  0  0  0  0  0  0
    6.4093    1.8638   -2.0460 C   0  0  0  0  0  0  0  0  0  0  0  0
    6.9320    2.8558   -3.0650 C   0  0  0  0  0  0  0  0  0  0  0  0
    8.4498    2.8542   -3.0579 C   0  0  0  0  0  0  0  0  0  0  0  0
    8.9651    3.8495   -4.0796 C   0  0  0  0  0  0  0  0  0  0  0  0
   10.4814    3.8526   -4.0801 C   0  0  0  0  0  0  0  0  0  0  0  0
   10.9917    4.8482   -5.1043 C   0  0  0  0  0  0  0  0  0  0  0  0
   12.5082    4.8544   -5.1049 C   0  0  0  0  0  0  0  0  0  0  0  0
   13.0179    5.8514   -6.1278 C   0  0  0  0  0  0  0  0  0  0  0  0
   14.5345    5.8583   -6.1292 C   0  0  0  0  0  0  0  0  0  0  0  0
   15.0436    6.8542   -7.1538 C   0  0  0  0  0  0  0  0  0  0  0  0
   16.5602    6.8591   -7.1561 C   0  0  0  0  0  0  0  0  0  0  0  0
   17.0712    7.8556   -8.1787 C   0  0  0  0  0  0  0  0  0  0  0  0
   18.5880    7.8581   -8.1809 C   0  0  0  0  0  0  0  0  0  0  0  0
   19.0996    8.8532   -9.2047 C   0  0  0  0  0  0  0  0  0  0  0  0
   20.6162    8.8574   -9.2064 C   0  0  0  0  0  0  0  0  0  0  0  0
   21.1255    9.8516  -10.2323 C   0  0  0  0  0  0  0  0  0  0  0  0
   22.6420    9.8585  -10.2335 C   0  0  0  0  0  0  0  0  0  0  0  0
   23.1513   10.8541  -11.2579 C   0  0  0  0  0  0  0  0  0  0  0  0
   24.6678   10.8606  -11.2587 C   0  0  0  0  0  0  0  0  0  0  0  0
   25.1777   11.8576  -12.2816 C   0  0  0  0  0  0  0  0  0  0  0  0
   26.6943   11.8638  -12.2822 C   0  0  0  0  0  0  0  0  0  0  0  0
   27.2043   12.8607  -13.3050 C   0  0  0  0  0  0  0  0  0  0  0  0
   28.7210   12.8669  -13.3056 C   0  0  0  0  0  0  0  0  0  0  0  0
   29.2310   13.8638  -14.3285 C   0  0  0  0  0  0  0  0  0  0  0  0
   30.7476   13.8686  -14.3304 C   0  0  0  0  0  0  0  0  0  0  0  0
   31.2576   14.8655  -15.3533 C   0  0  0  0  0  0  0  0  0  0  0  0
   32.7743   14.8703  -15.3553 C   0  0  0  0  0  0  0  0  0  0  0  0
   33.2843   15.8672  -16.3782 C   0  0  0  0  0  0  0  0  0  0  0  0
   34.8009   15.8719  -16.3802 C   0  0  0  0  0  0  0  0  0  0  0  0
   35.3110   16.8674  -17.4044 C   0  0  0  0  0  0  0  0  0  0  0  0
   36.8276   16.8707  -17.4078 C   0  0  0  0  0  0  0  0  0  0  0  0
   37.3376   17.8676  -18.4307 C   0  0  0  0  0  0  0  0  0  0  0  0
   38.8542   17.8695  -18.4354 C   0  0  0  0  0  0  0  0  0  0  0  0
   39.3643   18.8649  -19.4598 C   0  0  0  0  0  0  0  0  0  0  0  0
   40.8809   18.8683  -19.4632 C   0  0  0  0  0  0  0  0  0  0  0  0
   41.3909   19.8638  -20.4874 C   0  0  0  0  0  0  0  0  0  0  0  0
   42.9076   19.8671  -20.4909 C   0  0  0  0  0  0  0  0  0  0  0  0
   43.4176   20.8626  -21.5151 C   0  0  0  0  0  0  0  0  0  0  0  0
   44.9343   20.8659  -21.5185 C   0  0  0  0  0  0  0  0  0  0  0  0
   45.4443   21.8614  -22.5427 C   0  0  0  0  0  0  0  0  0  0  0  0
   46.9609   21.8662  -22.5448 C   0  0  0  0  0  0  0  0  0  0  0  0
   47.4709   22.8630  -23.5677 C   0  0  0  0  0  0  0  0  0  0  0  0
   48.9876   22.8664  -23.5710 C   0  0  0  0  0  0  0  0  0  0  0  0
   49.4976   23.8619  -24.5952 C   0  0  0  0  0  0  0  0  0  0  0  0
   51.0142   23.8652  -24.5987 C   0  0  0  0  0  0  0  0  0  0  0  0
   51.5242   24.8622  -25.6215 C   0  0  0  0  0  0  0  0  0  0  0  0
   53.0408   24.8640  -25.6263 C   0  0  0  0  0  0  0  0  0  0  0  0
   53.5509   25.8595  -26.6506 C   0  0  0  0  0  0  0  0  0  0  0  0
   55.0675   25.8628  -26.6541 C   0  0  0  0  0  0  0  0  0  0  0  0
   55.5776   26.8583  -27.6783 C   0  0  0  0  0  0  0  0  0  0  0  0
   57.0942   26.8602  -27.6832 C   0  0  0  0  0  0  0  0  0  0  0  0
   57.6043   27.8556  -28.7075 C   0  0  0  0  0  0  0  0  0  0  0  0
   59.1209   27.8575  -28.7123 C   0  0  0  0  0  0  0  0  0  0  0  0
   59.6310   28.8531  -29.7365 C   0  0  0  0  0  0  0  0  0  0  0  0
   61.1476   28.8549  -29.7413 C   0  0  0  0  0  0  0  0  0  0  0  0
   61.6578   29.8503  -30.7656 C   0  0  0  0  0  0  0  0  0  0  0  0
   63.1745   29.8521  -30.7705 C   0  0  0  0  0  0  0  0  0  0  0  0
   63.6845   30.8477  -31.7947 C   0  0  0  0  0  0  0  0  0  0  0  0
   65.2012   30.8498  -31.7997 C   0  0  0  0  0  0  0  0  0  0  0  0
   65.7114   31.8452  -32.8240 C   0  0  0  0  0  0  0  0  0  0  0  0
   67.2282   31.8458  -32.8303 C   0  0  0  0  0  0  0  0  0  0  0  0
   67.7390   32.8413  -33.8545 C   0  0  0  0  0  0  0  0  0  0  0  0
   69.2561   32.8419  -33.8603 C   0  0  0  0  0  0  0  0  0  0  0  0
   69.7671   33.8373  -34.8851 C   0  0  0  0  0  0  0  0  0  0  0  0
   71.2844   33.8386  -34.8924 C   0  0  0  0  0  0  0  0  0  0  0  0
   71.7961   34.8346  -35.9172 C   0  0  0  0  0  0  0  0  0  0  0  0
   73.3145   34.8380  -35.9237 C   0  0  0  0  0  0  0  0  0  0  0  0
   73.8297   35.8341  -36.9485 C   0  0  0  0  0  0  0  0  0  0  0  0
   75.3505   35.8394  -36.9568 C   0  0  0  0  0  0  0  0  0  0  0  0
   75.8687   36.8379  -37.9813 C   0  0  0  0  0  0  0  0  0  0  0  0
   77.3917   36.8529  -37.9967 C   0  0  0  0  0  0  0  0  0  0  0  0
   77.9064   37.8490  -39.0187 C   0  0  0  0  0  0  0  0  0  0  0  0
    2.5127   -0.3675    1.8620 H   0  0  0  0  0  0  0  0  0  0  0  0
    0.5904   -0.4881   -0.7796 H   0  0  0  0  0  0  0  0  0  0  0  0
    0.6791    0.8475    0.4025 H   0  0  0  0  0  0  0  0  0  0  0  0
    1.4095   -1.7564    0.9806 H   0  0  0  0  0  0  0  0  0  0  0  0
    2.6178    1.7421   -0.6733 H   0  0  0  0  0  0  0  0  0  0  0  0
    4.7903   -0.1480   -1.3062 H   0  0  0  0  0  0  0  0  0  0  0  0
    4.8301    1.1009   -0.0490 H   0  0  0  0  0  0  0  0  0  0  0  0
    4.5055    2.8578   -1.8147 H   0  0  0  0  0  0  0  0  0  0  0  0
    4.5193    1.5864   -3.0457 H   0  0  0  0  0  0  0  0  0  0  0  0
    6.7880    0.8605   -2.2789 H   0  0  0  0  0  0  0  0  0  0  0  0
    6.7832    2.1234   -1.0471 H   0  0  0  0  0  0  0  0  0  0  0  0
    6.5583    3.8604   -2.8332 H   0  0  0  0  0  0  0  0  0  0  0  0
    6.5638    2.5921   -4.0638 H   0  0  0  0  0  0  0  0  0  0  0  0
    8.8262    1.8502   -3.2905 H   0  0  0  0  0  0  0  0  0  0  0  0
    8.8216    3.1160   -2.0595 H   0  0  0  0  0  0  0  0  0  0  0  0
    8.5892    4.8531   -3.8455 H   0  0  0  0  0  0  0  0  0  0  0  0
    8.5916    3.5876   -5.0773 H   0  0  0  0  0  0  0  0  0  0  0  0
   10.8579    2.8491   -4.3137 H   0  0  0  0  0  0  0  0  0  0  0  0
   10.8556    4.1161   -3.0831 H   0  0  0  0  0  0  0  0  0  0  0  0
   10.6134    5.8513   -4.8717 H   0  0  0  0  0  0  0  0  0  0  0  0
   10.6182    4.5838   -6.1013 H   0  0  0  0  0  0  0  0  0  0  0  0
   12.8862    3.8515   -5.3389 H   0  0  0  0  0  0  0  0  0  0  0  0
   12.8816    5.1176   -4.1075 H   0  0  0  0  0  0  0  0  0  0  0  0
   12.6397    6.8541   -5.8934 H   0  0  0  0  0  0  0  0  0  0  0  0
   12.6441    5.5884   -7.1250 H   0  0  0  0  0  0  0  0  0  0  0  0
   14.9131    4.8554   -6.3622 H   0  0  0  0  0  0  0  0  0  0  0  0
   14.9084    6.1229   -5.1324 H   0  0  0  0  0  0  0  0  0  0  0  0
   14.6662    7.8574   -6.9203 H   0  0  0  0  0  0  0  0  0  0  0  0
   14.6688    6.5902   -8.1505 H   0  0  0  0  0  0  0  0  0  0  0  0
   16.9367    5.8559   -7.3913 H   0  0  0  0  0  0  0  0  0  0  0  0
   16.9349    7.1209   -6.1588 H   0  0  0  0  0  0  0  0  0  0  0  0
   16.6956    8.8592   -7.9437 H   0  0  0  0  0  0  0  0  0  0  0  0
   16.6960    7.5939   -9.1758 H   0  0  0  0  0  0  0  0  0  0  0  0
   18.9633    6.8542   -8.4149 H   0  0  0  0  0  0  0  0  0  0  0  0
   18.9631    8.1208   -7.1840 H   0  0  0  0  0  0  0  0  0  0  0  0
   18.7233    9.8568   -8.9713 H   0  0  0  0  0  0  0  0  0  0  0  0
   18.7253    8.5900  -10.2017 H   0  0  0  0  0  0  0  0  0  0  0  0
   20.9933    7.8538   -9.4389 H   0  0  0  0  0  0  0  0  0  0  0  0
   20.9909    9.1221   -8.2100 H   0  0  0  0  0  0  0  0  0  0  0  0
   20.7469   10.8550  -10.0014 H   0  0  0  0  0  0  0  0  0  0  0  0
   20.7520    9.5852  -11.2288 H   0  0  0  0  0  0  0  0  0  0  0  0
   23.0202    8.8554  -10.4663 H   0  0  0  0  0  0  0  0  0  0  0  0
   23.0157   10.1231   -9.2366 H   0  0  0  0  0  0  0  0  0  0  0  0
   22.7728   11.8571  -11.0252 H   0  0  0  0  0  0  0  0  0  0  0  0
   22.7777   10.5895  -12.2548 H   0  0  0  0  0  0  0  0  0  0  0  0
   25.0460    9.8578  -11.4928 H   0  0  0  0  0  0  0  0  0  0  0  0
   25.0414   11.1237  -10.2614 H   0  0  0  0  0  0  0  0  0  0  0  0
   24.7995   12.8603  -12.0474 H   0  0  0  0  0  0  0  0  0  0  0  0
   24.8042   11.5945  -13.2789 H   0  0  0  0  0  0  0  0  0  0  0  0
   27.0725   10.8610  -12.5163 H   0  0  0  0  0  0  0  0  0  0  0  0
   27.0677   12.1269  -11.2848 H   0  0  0  0  0  0  0  0  0  0  0  0
   26.8262   13.8635  -13.0709 H   0  0  0  0  0  0  0  0  0  0  0  0
   26.8309   12.5976  -14.3024 H   0  0  0  0  0  0  0  0  0  0  0  0
   29.0990   11.8641  -13.5397 H   0  0  0  0  0  0  0  0  0  0  0  0
   29.0945   13.1300  -12.3083 H   0  0  0  0  0  0  0  0  0  0  0  0
   28.8540   14.8668  -14.0935 H   0  0  0  0  0  0  0  0  0  0  0  0
   28.8564   13.6015  -15.3256 H   0  0  0  0  0  0  0  0  0  0  0  0
   31.1246   12.8655  -14.5654 H   0  0  0  0  0  0  0  0  0  0  0  0
   31.1222   14.1308  -13.3333 H   0  0  0  0  0  0  0  0  0  0  0  0
   30.8807   15.8686  -15.1184 H   0  0  0  0  0  0  0  0  0  0  0  0
   30.8830   14.6032  -16.3504 H   0  0  0  0  0  0  0  0  0  0  0  0
   33.1512   13.8672  -15.5902 H   0  0  0  0  0  0  0  0  0  0  0  0
   33.1489   15.1325  -14.3582 H   0  0  0  0  0  0  0  0  0  0  0  0
   32.9074   16.8703  -16.1433 H   0  0  0  0  0  0  0  0  0  0  0  0
   32.9097   15.6049  -17.3753 H   0  0  0  0  0  0  0  0  0  0  0  0
   35.1779   14.8685  -16.6137 H   0  0  0  0  0  0  0  0  0  0  0  0
   35.1756   16.1355  -15.3834 H   0  0  0  0  0  0  0  0  0  0  0  0
   34.9351   17.8710  -17.1700 H   0  0  0  0  0  0  0  0  0  0  0  0
   34.9353   16.6046  -18.4010 H   0  0  0  0  0  0  0  0  0  0  0  0
   37.2033   15.8673  -17.6435 H   0  0  0  0  0  0  0  0  0  0  0  0
   37.2035   17.1322  -16.4109 H   0  0  0  0  0  0  0  0  0  0  0  0
   36.9630   18.8711  -18.1942 H   0  0  0  0  0  0  0  0  0  0  0  0
   36.9607   17.6070  -19.4274 H   0  0  0  0  0  0  0  0  0  0  0  0
   39.2290   16.8657  -18.6707 H   0  0  0  0  0  0  0  0  0  0  0  0
   39.2311   18.1315  -17.4391 H   0  0  0  0  0  0  0  0  0  0  0  0
   38.9886   19.8686  -19.2254 H   0  0  0  0  0  0  0  0  0  0  0  0
   38.9885   18.6019  -20.4562 H   0  0  0  0  0  0  0  0  0  0  0  0
   41.2568   17.8647  -19.6975 H   0  0  0  0  0  0  0  0  0  0  0  0
   41.2567   19.1312  -18.4667 H   0  0  0  0  0  0  0  0  0  0  0  0
   41.0152   20.8674  -20.2531 H   0  0  0  0  0  0  0  0  0  0  0  0
   41.0152   19.6010  -21.4840 H   0  0  0  0  0  0  0  0  0  0  0  0
   43.2834   18.8635  -20.7252 H   0  0  0  0  0  0  0  0  0  0  0  0
   43.2834   20.1299  -19.4943 H   0  0  0  0  0  0  0  0  0  0  0  0
   43.0418   21.8662  -21.2808 H   0  0  0  0  0  0  0  0  0  0  0  0
   43.0418   20.5997  -22.5117 H   0  0  0  0  0  0  0  0  0  0  0  0
   45.3101   19.8623  -21.7529 H   0  0  0  0  0  0  0  0  0  0  0  0
   45.3100   21.1287  -20.5219 H   0  0  0  0  0  0  0  0  0  0  0  0
   45.0673   22.8648  -22.3092 H   0  0  0  0  0  0  0  0  0  0  0  0
   45.0696   21.5978  -23.5395 H   0  0  0  0  0  0  0  0  0  0  0  0
   47.3378   20.8630  -22.7797 H   0  0  0  0  0  0  0  0  0  0  0  0
   47.3356   22.1285  -21.5477 H   0  0  0  0  0  0  0  0  0  0  0  0
   47.0951   23.8664  -23.3319 H   0  0  0  0  0  0  0  0  0  0  0  0
   47.0951   22.6016  -24.5646 H   0  0  0  0  0  0  0  0  0  0  0  0
   49.3634   21.8628  -23.8054 H   0  0  0  0  0  0  0  0  0  0  0  0
   49.3633   23.1292  -22.5745 H   0  0  0  0  0  0  0  0  0  0  0  0
   49.1218   24.8655  -24.3609 H   0  0  0  0  0  0  0  0  0  0  0  0
   49.1218   23.5991  -25.5918 H   0  0  0  0  0  0  0  0  0  0  0  0
   51.3899   22.8618  -24.8344 H   0  0  0  0  0  0  0  0  0  0  0  0
   51.3901   24.1266  -23.6018 H   0  0  0  0  0  0  0  0  0  0  0  0
   51.1495   25.8658  -25.3850 H   0  0  0  0  0  0  0  0  0  0  0  0
   51.1473   24.6015  -26.6182 H   0  0  0  0  0  0  0  0  0  0  0  0
   53.4155   23.8601  -25.8616 H   0  0  0  0  0  0  0  0  0  0  0  0
   53.4178   25.1259  -24.6300 H   0  0  0  0  0  0  0  0  0  0  0  0
   53.1752   26.8632  -26.4163 H   0  0  0  0  0  0  0  0  0  0  0  0
   53.1751   25.5966  -27.6471 H   0  0  0  0  0  0  0  0  0  0  0  0
   55.4433   24.8591  -26.8884 H   0  0  0  0  0  0  0  0  0  0  0  0
   55.4434   26.1256  -25.6576 H   0  0  0  0  0  0  0  0  0  0  0  0
   55.2029   27.8621  -27.4432 H   0  0  0  0  0  0  0  0  0  0  0  0
   55.2006   26.5963  -28.6747 H   0  0  0  0  0  0  0  0  0  0  0  0
   57.4688   25.8563  -27.9183 H   0  0  0  0  0  0  0  0  0  0  0  0
   57.4712   27.1222  -26.6868 H   0  0  0  0  0  0  0  0  0  0  0  0
   57.2296   28.8595  -28.4725 H   0  0  0  0  0  0  0  0  0  0  0  0
   57.2273   27.5935  -29.7038 H   0  0  0  0  0  0  0  0  0  0  0  0
   59.4956   26.8537  -28.9474 H   0  0  0  0  0  0  0  0  0  0  0  0
   59.4978   28.1196  -27.7159 H   0  0  0  0  0  0  0  0  0  0  0  0
   59.2564   29.8569  -29.5013 H   0  0  0  0  0  0  0  0  0  0  0  0
   59.2539   28.5912  -30.7329 H   0  0  0  0  0  0  0  0  0  0  0  0
   61.5223   27.8510  -29.9764 H   0  0  0  0  0  0  0  0  0  0  0  0
   61.5246   29.1169  -28.7450 H   0  0  0  0  0  0  0  0  0  0  0  0
   61.2832   30.8542  -30.5304 H   0  0  0  0  0  0  0  0  0  0  0  0
   61.2808   29.5884  -31.7619 H   0  0  0  0  0  0  0  0  0  0  0  0
   63.5489   28.8482  -31.0060 H   0  0  0  0  0  0  0  0  0  0  0  0
   63.5518   30.1136  -29.7741 H   0  0  0  0  0  0  0  0  0  0  0  0
   63.3098   31.8516  -31.5595 H   0  0  0  0  0  0  0  0  0  0  0  0
   63.3075   30.5857  -32.7910 H   0  0  0  0  0  0  0  0  0  0  0  0
   65.5757   29.8458  -32.0348 H   0  0  0  0  0  0  0  0  0  0  0  0
   65.5782   31.1117  -30.8033 H   0  0  0  0  0  0  0  0  0  0  0  0
   65.3377   32.8493  -32.5881 H   0  0  0  0  0  0  0  0  0  0  0  0
   65.3333   31.5839  -33.8201 H   0  0  0  0  0  0  0  0  0  0  0  0
   67.6016   30.8417  -33.0663 H   0  0  0  0  0  0  0  0  0  0  0  0
   67.6064   32.1069  -31.8342 H   0  0  0  0  0  0  0  0  0  0  0  0
   67.3656   33.8454  -33.6183 H   0  0  0  0  0  0  0  0  0  0  0  0
   67.3607   32.5804  -34.8506 H   0  0  0  0  0  0  0  0  0  0  0  0
   69.6296   31.8374  -34.0945 H   0  0  0  0  0  0  0  0  0  0  0  0
   69.6334   33.1039  -32.8642 H   0  0  0  0  0  0  0  0  0  0  0  0
   69.3935   34.8412  -34.6486 H   0  0  0  0  0  0  0  0  0  0  0  0
   69.3883   33.5764  -35.8810 H   0  0  0  0  0  0  0  0  0  0  0  0
   71.6574   32.8342  -35.1281 H   0  0  0  0  0  0  0  0  0  0  0  0
   71.6622   34.0995  -33.8961 H   0  0  0  0  0  0  0  0  0  0  0  0
   71.4204   35.8380  -35.6816 H   0  0  0  0  0  0  0  0  0  0  0  0
   71.4180   34.5722  -36.9130 H   0  0  0  0  0  0  0  0  0  0  0  0
   73.6876   33.8335  -36.1580 H   0  0  0  0  0  0  0  0  0  0  0  0
   73.6899   35.0993  -34.9266 H   0  0  0  0  0  0  0  0  0  0  0  0
   73.4532   36.8372  -36.7127 H   0  0  0  0  0  0  0  0  0  0  0  0
   73.4509   35.5717  -37.9440 H   0  0  0  0  0  0  0  0  0  0  0  0
   75.7226   34.8347  -37.1920 H   0  0  0  0  0  0  0  0  0  0  0  0
   75.7249   36.0988  -35.9589 H   0  0  0  0  0  0  0  0  0  0  0  0
   75.4885   37.8392  -37.7442 H   0  0  0  0  0  0  0  0  0  0  0  0
   75.4884   36.5752  -38.9761 H   0  0  0  0  0  0  0  0  0  0  0  0
   77.7721   35.8529  -38.2355 H   0  0  0  0  0  0  0  0  0  0  0  0
   77.7722   37.1173  -37.0032 H   0  0  0  0  0  0  0  0  0  0  0  0
   77.5577   37.5895  -40.0234 H   0  0  0  0  0  0  0  0  0  0  0  0
   78.9997   37.8549  -39.0248 H   0  0  0  0  0  0  0  0  0  0  0  0
   77.5577   38.8600  -38.7850 H   0  0  0  0  0  0  0  0  0  0  0  0
  1  2  1  0  0  0  0
  1 80  1  0  0  0  0
  2  3  1  0  0  0  0
  2  5  1  0  0  0  0
  3  4  1  0  0  0  0
  3 81  1  0  0  0  0
  3 82  1  0  0  0  0
  4 83  1  0  0  0  0
  5  6  1  0  0  0  0
  5 84  1  0  0  0  0
  6  7  1  0  0  0  0
  6 85  1  0  0  0  0
  6 86  1  0  0  0  0
  7  8  1  0  0  0  0
  7 87  1  0  0  0  0
  7 88  1  0  0  0  0
  8  9  1  0  0  0  0
  8 89  1  0  0  0  0
  8 90  1  0  0  0  0
  9 10  1  0  0  0  0
  9 91  1  0  0  0  0
  9 92  1  0  0  0  0
 10 11  1  0  0  0  0
 10 93  1  0  0  0  0
 10 94  1  0  0  0  0
 11 12  1  0  0  0  0
 11 95  1  0  0  0  0
 11 96  1  0  0  0  0
 12 13  1  0  0  0  0
 12 97  1  0  0  0  0
 12 98  1  0  0  0  0
 13 14  1  0  0  0  0
 13 99  1  0  0  0  0
 13100  1  0  0  0  0
 14 15  1  0  0  0  0
 14101  1  0  0  0  0
 14102  1  0  0  0  0
 15 16  1  0  0  0  0
 15103  1  0  0  0  0
 15104  1  0  0  0  0
 16 17  1  0  0  0  0
 16105  1  0  0  0  0
 16106  1  0  0  0  0
 17 18  1  0  0  0  0
 17107  1  0  0  0  0
 17108  1  0  0  0  0
 18 19  1  0  0  0  0
 18109  1  0  0  0  0
 18110  1  0  0  0  0
 19 20  1  0  0  0  0
 19111  1  0  0  0  0
 19112  1  0  0  0  0
 20 21  1  0  0  0  0
 20113  1  0  0  0  0
 20114  1  0  0  0  0
 21 22  1  0  0  0  0
 21115  1  0  0  0  0
 21116  1  0  0  0  0
 22 23  1  0  0  0  0
 22117  1  0  0  0  0
 22118  1  0  0  0  0
 23 24  1  0  0  0  0
 23119  1  0  0  0  0
 23120  1  0  0  0  0
 24 25  1  0  0  0  0
 24121  1  0  0  0  0
 24122  1  0  0  0  0
 25 26  1  0  0  0  0
 25123  1  0  0  0  0
 25124  1  0  0  0  0
 26 27  1  0  0  0  0
 26125  1  0  0  0  0
 26126  1  0  0  0  0
 27 28  1  0  0  0  0
 27127  1  0  0  0  0
 27128  1  0  0  0  0
 28 29  1  0  0  0  0
 28129  1  0  0  0  0
 28130  1  0  0  0  0
 29 30  1  0  0  0  0
 29131  1  0  0  0  0
 29132  1  0  0  0  0
 30 31  1  0  0  0  0
 30133  1  0  0  0  0
 30134  1  0  0  0  0
 31 32  1  0  0  0  0
 31135  1  0  0  0  0
 31136  1  0  0  0  0
 32 33  1  0  0  0  0
 32137  1  0  0  0  0
 32138  1  0  0  0  0
 33 34  1  0  0  0  0
 33139  1  0  0  0  0
 33140  1  0  0  0  0
 34 35  1  0  0  0  0
 34141  1  0  0  0  0
 34142  1  0  0  0  0
 35 36  1  0  0  0  0
 35143  1  0  0  0  0
 35144  1  0  0  0  0
 36 37  1  0  0  0  0
 36145  1  0  0  0  0
 36146  1  0  0  0  0
 37 38  1  0  0  0  0
 37147  1  0  0  0  0
 37148  1  0  0  0  0
 38 39  1  0  0  0  0
 38149  1  0  0  0  0
 38150  1  0  0  0  0
 39 40  1  0  0  0  0
 39151  1  0  0  0  0
 39152  1  0  0  0  0
 40 41  1  0  0  0  0
 40153  1  0  0  0  0
 40154  1  0  0  0  0
 41 42  1  0  0  0  0
 41155  1  0  0  0  0
 41156  1  0  0  0  0
 42 43  1  0  0  0  0
 42157  1  0  0  0  0
 42158  1  0  0  0  0
 43 44  1  0  0  0  0
 43159  1  0  0  0  0
 43160  1  0  0  0  0
 44 45  1  0  0  0  0
 44161  1  0  0  0  0
 44162  1  0  0  0  0
 45 46  1  0  0  0  0
 45163  1  0  0  0  0
 45164  1  0  0  0  0
 46 47  1  0  0  0  0
 46165  1  0  0  0  0
 46166  1  0  0  0  0
 47 48  1  0  0  0  0
 47167  1  0  0  0  0
 47168  1  0  0  0  0
 48 49  1  0  0  0  0
 48169  1  0  0  0  0
 48170  1  0  0  0  0
 49 50  1  0  0  0  0
 49171  1  0  0  0  0
 49172  1  0  0  0  0
 50 51  1  0  0  0  0
 50173  1  0  0  0  0
 50174  1  0  0  0  0
 51 52  1  0  0  0  0
 51175  1  0  0  0  0
 51176  1  0  0  0  0
 52 53  1  0  0  0  0
 52177  1  0  0  0  0
 52178  1  0  0  0  0
 53 54  1  0  0  0  0
 53179  1  0  0  0  0
 53180  1  0  0  0  0
 54 55  1  0  0  0  0
 54181  1  0  0  0  0
 54182  1  0  0  0  0
 55 56  1  0  0  0  0
 55183  1  0  0  0  0
 55184  1  0  0  0  0
 56 57  1  0  0  0  0
 56185  1  0  0  0  0
 56186  1  0  0  0  0
 57 58  1  0  0  0  0
 57187  1  0  0  0  0
 57188  1  0  0  0  0
 58 59  1  0  0  0  0
 58189  1  0  0  0  0
 58190  1  0  0  0  0
 59 60  1  0  0  0  0
 59191  1  0  0  0  0
 59192  1  0  0  0  0
 60 61  1  0  0  0  0
 60193  1  0  0  0  0
 60194  1  0  0  0  0
 61 62  1  0  0  0  0
 61195  1  0  0  0  0
 61196  1  0  0  0  0
 62 63  1  0  0  0  0
 62197  1  0  0  0  0
 62198  1  0  0  0  0
 63 64  1  0  0  0  0
 63199  1  0  0  0  0
 63200  1  0  0  0  0
 64 65  1  0  0  0  0
 64201  1  0  0  0  0
 64202  1  0  0  0  0
 65 66  1  0  0  0  0
 65203  1  0  0  0  0
 65204  1  0  0  0  0
 66 67  1  0  0  0  0
 66205  1  0  0  0  0
 66206  1  0  0  0  0
 67 68  1  0  0  0  0
 67207  1  0  0  0  0
 67208  1  0  0  0  0
 68 69  1  0  0  0  0
 68209  1  0  0  0  0
 68210  1  0  0  0  0
 69 70  1  0  0  0  0
 69211  1  0  0  0  0
 69212  1  0  0  0  0
 70 71  1  0  0  0  0
 70213  1  0  0  0  0
 70214  1  0  0  0  0
 71 72  1  0  0  0  0
 71215  1  0  0  0  0
 71216  1  0  0  0  0
 72 73  1  0  0  0  0
 72217  1  0  0  0  0
 72218  1  0  0  0  0
 73 74  1  0  0  0  0
 73219  1  0  0  0  0
 73220  1  0  0  0  0
 74 75  1  0  0  0  0
 74221  1  0  0  0  0
 74222  1  0  0  0  0
 75 76  1  0  0  0  0
 75223  1  0  0  0  0
 75224  1  0  0  0  0
 76 77  1  0  0  0  0
 76225  1  0  0  0  0
 76226  1  0  0  0  0
 77 78  1  0  0  0  0
 77227  1  0  0  0  0
 77228  1  0  0  0  0
 78 79  1  0  0  0  0
 78229  1  0  0  0  0
 78230  1  0  0  0  0
 79231  1  0  0  0  0
 79232  1  0  0  0  0
 79233  1  0  0  0  0
M  END
$$$$
