
 OpenBabel04232216493D

 53 56  0  0  0  0  0  0  0  0999 V2000
    2.2629   -2.0169   -2.2846 C   0  0  0  0  0  0  0  0  0  0  0  0
    1.2922   -2.6619   -3.3221 C   0  0  0  0  0  0  0  0  0  0  0  0
    0.1272   -3.1577   -2.4296 C   0  0  0  0  0  0  0  0  0  0  0  0
    0.0447   -4.3108   -1.6792 C   0  0  0  0  0  0  0  0  0  0  0  0
    0.5651   -5.5473   -2.1738 C   0  0  0  0  0  0  0  0  0  0  0  0
    0.4160   -6.9828   -2.1591 C   0  0  0  0  0  0  0  0  0  0  0  0
   -0.3099   -7.6871   -1.0646 C   0  0  0  0  0  0  0  0  0  0  0  0
    0.5754   -7.3229   -3.6371 C   0  0  0  0  0  0  0  0  0  0  0  0
    0.8942   -8.2875   -4.5970 N   0  0  0  0  0  0  0  0  0  0  0  0
   -0.2606   -8.7503   -5.4385 C   0  0  0  0  0  0  0  0  0  0  0  0
   -1.2345   -9.4424   -4.5970 C   0  0  0  0  0  0  0  0  0  0  0  0
   -2.5236   -9.1470   -4.7780 C   0  0  0  0  0  0  0  0  0  0  0  0
   -3.2686   -9.0515   -3.6616 N   0  0  0  0  0  0  0  0  0  0  0  0
   -3.1392   -7.9072   -3.0420 C   0  0  0  0  0  0  0  0  0  0  0  0
   -2.5651   -6.5403   -3.4279 C   0  0  0  0  0  0  0  0  0  0  0  0
   -1.4527   -5.8000   -3.8623 C   0  0  0  0  0  0  0  0  0  0  0  0
   -0.0450   -6.1771   -4.0923 C   0  0  0  0  0  0  0  0  0  0  0  0
    1.0459   -5.4345   -3.4503 N   0  0  0  0  0  0  0  0  0  0  0  0
    2.4722   -5.2470   -3.6446 C   0  0  0  0  0  0  0  0  0  0  0  0
    2.9423   -4.0499   -4.0676 C   0  0  0  0  0  0  0  0  0  0  0  0
    2.0298   -7.9022   -5.4645 N   0  0  0  0  0  0  0  0  0  0  0  0
    1.7823   -7.5411   -6.7022 C   0  0  0  0  0  0  0  0  0  0  0  0
    2.7989   -6.9647   -7.6384 C   0  0  0  0  0  0  0  0  0  0  0  0
    2.2810   -6.3316   -8.7185 C   0  0  0  0  0  0  0  0  0  0  0  0
    2.4426   -4.8659   -8.6632 C   0  0  0  0  0  0  0  0  0  0  0  0
    1.3668   -4.1573   -8.2363 C   0  0  0  0  0  0  0  0  0  0  0  0
    1.3981   -3.1576   -7.1418 C   0  0  0  0  0  0  0  0  0  0  0  0
    1.4979   -3.6339   -5.8825 C   0  0  0  0  0  0  0  0  0  0  0  0
    1.8847   -3.0930   -4.5174 C   0  0  0  0  0  0  0  0  0  0  0  0
    1.5236   -1.2652   -1.9560 H   0  0  0  0  0  0  0  0  0  0  0  0
    2.6532   -1.8717   -1.2589 H   0  0  0  0  0  0  0  0  0  0  0  0
    2.4383   -3.0323   -1.8687 H   0  0  0  0  0  0  0  0  0  0  0  0
   -0.5041   -2.3302   -2.0942 H   0  0  0  0  0  0  0  0  0  0  0  0
   -0.6466   -4.3726   -0.8454 H   0  0  0  0  0  0  0  0  0  0  0  0
    0.2544   -7.6853   -0.1280 H   0  0  0  0  0  0  0  0  0  0  0  0
   -0.6201   -8.6979   -1.3237 H   0  0  0  0  0  0  0  0  0  0  0  0
   -1.2291   -7.1148   -0.8515 H   0  0  0  0  0  0  0  0  0  0  0  0
    0.0777   -9.4182   -6.2354 H   0  0  0  0  0  0  0  0  0  0  0  0
   -0.7448   -7.8736   -5.9197 H   0  0  0  0  0  0  0  0  0  0  0  0
   -0.8858   -9.7717   -3.6260 H   0  0  0  0  0  0  0  0  0  0  0  0
   -2.9296   -8.7499   -5.7046 H   0  0  0  0  0  0  0  0  0  0  0  0
   -3.7200   -7.8798   -2.0977 H   0  0  0  0  0  0  0  0  0  0  0  0
   -3.3670   -5.8751   -3.0836 H   0  0  0  0  0  0  0  0  0  0  0  0
   -1.6565   -4.7263   -3.8200 H   0  0  0  0  0  0  0  0  0  0  0  0
    3.1273   -5.8948   -3.0721 H   0  0  0  0  0  0  0  0  0  0  0  0
    3.9765   -3.7385   -4.0348 H   0  0  0  0  0  0  0  0  0  0  0  0
    0.7622   -7.4815   -7.1172 H   0  0  0  0  0  0  0  0  0  0  0  0
    3.6674   -6.5892   -7.1001 H   0  0  0  0  0  0  0  0  0  0  0  0
    1.3774   -6.7095   -9.2031 H   0  0  0  0  0  0  0  0  0  0  0  0
    3.4786   -4.5412   -8.5281 H   0  0  0  0  0  0  0  0  0  0  0  0
    0.3839   -4.5981   -8.3976 H   0  0  0  0  0  0  0  0  0  0  0  0
    1.3317   -2.1172   -7.4153 H   0  0  0  0  0  0  0  0  0  0  0  0
    1.6765   -4.7200   -5.9145 H   0  0  0  0  0  0  0  0  0  0  0  0
  1  2  1  0  0  0  0
  1 30  1  0  0  0  0
  1 31  1  0  0  0  0
  1 32  1  0  0  0  0
  2  3  1  0  0  0  0
  2 29  2  0  0  0  0
  3  4  2  0  0  0  0
  3 33  1  0  0  0  0
  4  5  1  0  0  0  0
  4 34  1  0  0  0  0
  5  6  2  0  0  0  0
  5 18  1  0  0  0  0
  6  7  1  0  0  0  0
  6  8  1  0  0  0  0
  7 35  1  0  0  0  0
  7 36  1  0  0  0  0
  7 37  1  0  0  0  0
  8  9  1  0  0  0  0
  8 17  2  0  0  0  0
  9 10  1  0  0  0  0
  9 21  1  0  0  0  0
 10 11  1  0  0  0  0
 10 38  1  0  0  0  0
 10 39  1  0  0  0  0
 11 12  2  3  0  0  0
 11 40  1  0  0  0  0
 12 13  1  0  0  0  0
 12 41  1  0  0  0  0
 13 14  2  3  0  0  0
 14 15  1  0  0  0  0
 14 42  1  0  0  0  0
 15 16  2  3  0  0  0
 15 43  1  0  0  0  0
 16 17  1  0  0  0  0
 16 44  1  0  0  0  0
 17 18  1  0  0  0  0
 18 19  1  0  0  0  0
 19 20  2  0  0  0  0
 19 45  1  0  0  0  0
 20 29  1  0  0  0  0
 20 46  1  0  0  0  0
 21 22  2  3  0  0  0
 22 23  1  0  0  0  0
 22 47  1  0  0  0  0
 23 24  2  3  0  0  0
 23 48  1  0  0  0  0
 24 25  1  0  0  0  0
 24 49  1  0  0  0  0
 25 26  2  3  0  0  0
 25 50  1  0  0  0  0
 26 27  1  0  0  0  0
 26 51  1  0  0  0  0
 27 28  2  3  0  0  0
 27 52  1  0  0  0  0
 28 29  1  0  0  0  0
 28 53  1  0  0  0  0
M  END
$$$$
