
 OpenBabel04232216463D

 56 57  0  0  0  0  0  0  0  0999 V2000
    2.6406   -0.2846    5.4938 C   0  0  0  0  0  0  0  0  0  0  0  0
    3.2977   -1.6856    5.5649 C   0  0  0  0  0  0  0  0  0  0  0  0
    3.5027   -1.7962    4.0730 C   0  0  0  0  0  3  0  0  0  0  0  0
    2.5598   -2.8648    3.5977 C   0  0  0  0  0  0  0  0  0  0  0  0
    3.1313   -3.5037    2.2730 C   0  0  0  0  0  0  0  0  0  0  0  0
    2.2468   -4.4729    1.6932 O   0  0  0  0  0  0  0  0  0  0  0  0
    1.0801   -2.3891    3.2762 C   0  0  0  0  0  0  0  0  0  0  0  0
    0.9073   -1.5791    1.9511 C   0  0  0  0  0  0  0  0  0  0  0  0
   -0.5400   -1.2635    1.5677 C   0  0  0  0  0  0  0  0  0  0  0  0
    2.7279   -3.7706    4.8711 C   0  0  0  0  0  0  0  0  0  0  0  0
    3.8454   -4.5459    4.6163 N   0  0  0  0  0  0  0  0  0  0  0  0
    3.5970   -5.7582    4.2349 C   0  0  0  0  0  0  0  0  0  0  0  0
    2.4891   -6.5401    4.7448 C   0  0  0  0  0  0  0  0  0  0  0  0
    3.1755   -7.1552    5.7376 C   0  0  0  0  0  0  0  0  0  0  0  0
    2.8640   -7.3963    7.0902 C   0  0  0  0  0  0  0  0  0  0  0  0
    1.5018   -6.9063    7.5818 C   0  0  0  0  0  0  0  0  0  0  0  0
    3.9284   -7.7679    7.8531 C   0  0  0  0  0  0  0  0  0  0  0  0
    5.3825   -7.2923    7.5857 C   0  0  0  0  0  0  0  0  0  0  0  0
    3.7378   -8.3273    9.1755 C   0  0  0  0  0  0  0  0  0  0  0  0
    4.2620   -7.5973   10.1833 C   0  0  0  0  0  0  0  0  0  0  0  0
    3.3708   -6.3102   10.2441 C   0  0  0  0  0  0  0  0  0  0  0  0
    2.2595   -6.6983   11.2400 C   0  0  0  0  0  0  0  0  0  0  0  0
    3.6749   -5.3443    9.3655 N   0  0  0  0  0  0  0  0  0  0  0  0
    2.9677   -4.2825    8.6780 C   0  0  0  0  0  0  0  0  0  0  0  0
    3.4744   -3.6788    7.4947 C   0  0  0  0  0  0  0  0  0  0  0  0
    2.8832   -2.8972    6.1532 C   0  0  0  0  0  0  0  0  0  0  0  0
    3.4000    0.5065    5.5547 H   0  0  0  0  0  0  0  0  0  0  0  0
    1.8218   -0.1177    6.1854 H   0  0  0  0  0  0  0  0  0  0  0  0
    2.1861   -0.0918    4.4934 H   0  0  0  0  0  0  0  0  0  0  0  0
    4.5288   -1.7215    3.7148 H   0  0  0  0  0  0  0  0  0  0  0  0
    4.1188   -3.9644    2.3762 H   0  0  0  0  0  0  0  0  0  0  0  0
    3.2878   -2.7275    1.5172 H   0  0  0  0  0  0  0  0  0  0  0  0
    2.1869   -5.2247    2.3022 H   0  0  0  0  0  0  0  0  0  0  0  0
    0.6674   -1.7921    4.0976 H   0  0  0  0  0  0  0  0  0  0  0  0
    0.4401   -3.2786    3.2056 H   0  0  0  0  0  0  0  0  0  0  0  0
    1.3068   -2.1376    1.0994 H   0  0  0  0  0  0  0  0  0  0  0  0
    1.4695   -0.6402    2.0029 H   0  0  0  0  0  0  0  0  0  0  0  0
   -1.1314   -2.1782    1.4528 H   0  0  0  0  0  0  0  0  0  0  0  0
   -0.5643   -0.7417    0.5997 H   0  0  0  0  0  0  0  0  0  0  0  0
   -1.0250   -0.6178    2.3038 H   0  0  0  0  0  0  0  0  0  0  0  0
    4.4010   -6.2835    3.6880 H   0  0  0  0  0  0  0  0  0  0  0  0
    1.4814   -6.1675    4.8408 H   0  0  0  0  0  0  0  0  0  0  0  0
    4.2455   -7.3082    5.5246 H   0  0  0  0  0  0  0  0  0  0  0  0
    1.3150   -5.8731    7.2392 H   0  0  0  0  0  0  0  0  0  0  0  0
    1.4242   -6.8392    8.6661 H   0  0  0  0  0  0  0  0  0  0  0  0
    0.6716   -7.5132    7.2261 H   0  0  0  0  0  0  0  0  0  0  0  0
    5.4798   -6.5112    6.8237 H   0  0  0  0  0  0  0  0  0  0  0  0
    6.0427   -8.1281    7.3577 H   0  0  0  0  0  0  0  0  0  0  0  0
    5.8097   -6.7667    8.4482 H   0  0  0  0  0  0  0  0  0  0  0  0
    2.7146   -8.7017    9.2850 H   0  0  0  0  0  0  0  0  0  0  0  0
    5.3197   -7.3731   10.2361 H   0  0  0  0  0  0  0  0  0  0  0  0
    1.2491   -6.5462   10.8863 H   0  0  0  0  0  0  0  0  0  0  0  0
    2.4521   -6.3073   12.2410 H   0  0  0  0  0  0  0  0  0  0  0  0
    2.2989   -7.8026   11.4344 H   0  0  0  0  0  0  0  0  0  0  0  0
    1.9545   -4.1200    9.0309 H   0  0  0  0  0  0  0  0  0  0  0  0
    4.4925   -3.9921    7.2646 H   0  0  0  0  0  0  0  0  0  0  0  0
  1  2  1  0  0  0  0
  1 27  1  0  0  0  0
  1 28  1  0  0  0  0
  1 29  1  0  0  0  0
  2  3  1  0  0  0  0
  2 26  2  0  0  0  0
  3  4  1  0  0  0  0
  3 30  1  0  0  0  0
  4  5  1  0  0  0  0
  4  7  1  0  0  0  0
  4 10  2  0  0  0  0
  5  6  1  0  0  0  0
  5 31  1  0  0  0  0
  5 32  1  0  0  0  0
  6 33  1  0  0  0  0
  7  8  1  0  0  0  0
  7 34  1  0  0  0  0
  7 35  1  0  0  0  0
  8  9  1  0  0  0  0
  8 36  1  0  0  0  0
  8 37  1  0  0  0  0
  9 38  1  0  0  0  0
  9 39  1  0  0  0  0
  9 40  1  0  0  0  0
 10 11  1  0  0  0  0
 10 26  1  0  0  0  0
 11 12  2  0  0  0  0
 12 13  1  0  0  0  0
 12 41  1  0  0  0  0
 13 14  2  0  0  0  0
 13 42  1  0  0  0  0
 14 15  1  0  0  0  0
 14 43  1  0  0  0  0
 15 16  1  0  0  0  0
 15 17  2  0  0  0  0
 16 44  1  0  0  0  0
 16 45  1  0  0  0  0
 16 46  1  0  0  0  0
 17 18  1  0  0  0  0
 17 19  1  0  0  0  0
 18 47  1  0  0  0  0
 18 48  1  0  0  0  0
 18 49  1  0  0  0  0
 19 20  2  0  0  0  0
 19 50  1  0  0  0  0
 20 21  1  0  0  0  0
 20 51  1  0  0  0  0
 21 22  1  0  0  0  0
 21 23  2  0  0  0  0
 22 52  1  0  0  0  0
 22 53  1  0  0  0  0
 22 54  1  0  0  0  0
 23 24  1  0  0  0  0
 24 25  2  0  0  0  0
 24 55  1  0  0  0  0
 25 26  1  0  0  0  0
 25 56  1  0  0  0  0
M  END
$$$$
