
 OpenBabel04232216593D

229229  0  0  0  0  0  0  0  0999 V2000
    3.8725   -1.5830   -0.4360 O   0  0  0  0  0  0  0  0  0  0  0  0
    3.4751   -0.4863   -0.2807 C   0  0  0  0  0  0  0  0  0  0  0  0
    2.2973    0.2072    0.2958 C   0  0  0  0  0  0  0  0  0  0  0  0
    3.5104    0.8031   -0.1716 N   0  0  0  0  0  0  0  0  0  0  0  0
    4.2625    2.0208   -0.0680 C   0  0  0  0  0  0  0  0  0  0  0  0
    3.3547    3.2527   -0.0910 C   0  0  0  0  0  0  0  0  0  0  0  0
    4.1253    4.5746   -0.0774 C   0  0  0  0  0  0  0  0  0  0  0  0
    3.1496    5.7482   -0.0821 C   0  0  0  0  0  0  0  0  0  0  0  0
    3.8996    7.0703   -0.0660 C   0  0  0  0  0  0  0  0  0  0  0  0
    2.9179    8.2299   -0.0700 C   0  0  0  0  0  0  0  0  0  0  0  0
    3.6708    9.5476   -0.0559 C   0  0  0  0  0  0  0  0  0  0  0  0
    2.6895   10.7046   -0.0599 C   0  0  0  0  0  0  0  0  0  0  0  0
    3.4432   12.0207   -0.0458 C   0  0  0  0  0  0  0  0  0  0  0  0
    2.4618   13.1769   -0.0498 C   0  0  0  0  0  0  0  0  0  0  0  0
    3.2156   14.4926   -0.0357 C   0  0  0  0  0  0  0  0  0  0  0  0
    2.2341   15.6486   -0.0398 C   0  0  0  0  0  0  0  0  0  0  0  0
    2.9880   16.9643   -0.0277 C   0  0  0  0  0  0  0  0  0  0  0  0
    2.0065   18.1203   -0.0317 C   0  0  0  0  0  0  0  0  0  0  0  0
    2.7604   19.4360   -0.0196 C   0  0  0  0  0  0  0  0  0  0  0  0
    1.7790   20.5920   -0.0237 C   0  0  0  0  0  0  0  0  0  0  0  0
    2.5328   21.9077   -0.0116 C   0  0  0  0  0  0  0  0  0  0  0  0
    1.5514   23.0637   -0.0156 C   0  0  0  0  0  0  0  0  0  0  0  0
    2.3052   24.3794   -0.0035 C   0  0  0  0  0  0  0  0  0  0  0  0
    1.3238   25.5353   -0.0075 C   0  0  0  0  0  0  0  0  0  0  0  0
    2.0776   26.8510    0.0046 C   0  0  0  0  0  0  0  0  0  0  0  0
    1.0962   28.0070    0.0005 C   0  0  0  0  0  0  0  0  0  0  0  0
    1.8500   29.3227    0.0106 C   0  0  0  0  0  0  0  0  0  0  0  0
    0.8686   30.4787    0.0066 C   0  0  0  0  0  0  0  0  0  0  0  0
    1.6224   31.7944    0.0147 C   0  0  0  0  0  0  0  0  0  0  0  0
    0.6410   32.9504    0.0106 C   0  0  0  0  0  0  0  0  0  0  0  0
    1.3949   34.2661    0.0167 C   0  0  0  0  0  0  0  0  0  0  0  0
    0.4135   35.4221    0.0126 C   0  0  0  0  0  0  0  0  0  0  0  0
    1.1673   36.7378    0.0167 C   0  0  0  0  0  0  0  0  0  0  0  0
    0.1859   37.8938    0.0146 C   0  0  0  0  0  0  0  0  0  0  0  0
    0.9398   39.2095    0.0167 C   0  0  0  0  0  0  0  0  0  0  0  0
   -0.0416   40.3655    0.0146 C   0  0  0  0  0  0  0  0  0  0  0  0
    0.7123   41.6812    0.0167 C   0  0  0  0  0  0  0  0  0  0  0  0
   -0.2692   42.8372    0.0146 C   0  0  0  0  0  0  0  0  0  0  0  0
    0.4847   44.1529    0.0166 C   0  0  0  0  0  0  0  0  0  0  0  0
   -0.4967   45.3089    0.0146 C   0  0  0  0  0  0  0  0  0  0  0  0
    0.2572   46.6246    0.0146 C   0  0  0  0  0  0  0  0  0  0  0  0
   -0.7243   47.7805    0.0146 C   0  0  0  0  0  0  0  0  0  0  0  0
    0.0296   49.0963    0.0166 C   0  0  0  0  0  0  0  0  0  0  0  0
   -0.9518   50.2522    0.0187 C   0  0  0  0  0  0  0  0  0  0  0  0
   -0.1979   51.5680    0.0187 C   0  0  0  0  0  0  0  0  0  0  0  0
   -1.1793   52.7239    0.0227 C   0  0  0  0  0  0  0  0  0  0  0  0
   -0.4255   54.0397    0.0207 C   0  0  0  0  0  0  0  0  0  0  0  0
   -1.4069   55.1956    0.0247 C   0  0  0  0  0  0  0  0  0  0  0  0
   -0.6530   56.5113    0.0227 C   0  0  0  0  0  0  0  0  0  0  0  0
   -1.6344   57.6673    0.0267 C   0  0  0  0  0  0  0  0  0  0  0  0
   -0.8806   58.9830    0.0227 C   0  0  0  0  0  0  0  0  0  0  0  0
   -1.8620   60.1390    0.0268 C   0  0  0  0  0  0  0  0  0  0  0  0
   -1.1081   61.4547    0.0207 C   0  0  0  0  0  0  0  0  0  0  0  0
   -2.0896   62.6107    0.0247 C   0  0  0  0  0  0  0  0  0  0  0  0
   -1.3357   63.9264    0.0166 C   0  0  0  0  0  0  0  0  0  0  0  0
   -2.3171   65.0824    0.0207 C   0  0  0  0  0  0  0  0  0  0  0  0
   -1.5633   66.3981    0.0146 C   0  0  0  0  0  0  0  0  0  0  0  0
   -2.5447   67.5541    0.0207 C   0  0  0  0  0  0  0  0  0  0  0  0
   -1.7908   68.8698    0.0126 C   0  0  0  0  0  0  0  0  0  0  0  0
   -2.7722   70.0258    0.0207 C   0  0  0  0  0  0  0  0  0  0  0  0
   -2.0184   71.3415    0.0106 C   0  0  0  0  0  0  0  0  0  0  0  0
   -2.9998   72.4975    0.0207 C   0  0  0  0  0  0  0  0  0  0  0  0
   -2.2460   73.8132    0.0086 C   0  0  0  0  0  0  0  0  0  0  0  0
   -3.2273   74.9692    0.0207 C   0  0  0  0  0  0  0  0  0  0  0  0
   -2.4736   76.2849    0.0066 C   0  0  0  0  0  0  0  0  0  0  0  0
   -3.4549   77.4409    0.0187 C   0  0  0  0  0  0  0  0  0  0  0  0
   -2.7012   78.7566    0.0026 C   0  0  0  0  0  0  0  0  0  0  0  0
   -3.6825   79.9125    0.0167 C   0  0  0  0  0  0  0  0  0  0  0  0
   -2.9288   81.2282   -0.0015 C   0  0  0  0  0  0  0  0  0  0  0  0
   -3.9101   82.3842    0.0107 C   0  0  0  0  0  0  0  0  0  0  0  0
   -3.1565   83.7000   -0.0095 C   0  0  0  0  0  0  0  0  0  0  0  0
   -4.1378   84.8561    0.0026 C   0  0  0  0  0  0  0  0  0  0  0  0
   -3.3842   86.1720   -0.0196 C   0  0  0  0  0  0  0  0  0  0  0  0
   -4.3653   87.3288   -0.0095 C   0  0  0  0  0  0  0  0  0  0  0  0
   -3.6113   88.6457   -0.0317 C   0  0  0  0  0  0  0  0  0  0  0  0
   -4.5914   89.8048   -0.0217 C   0  0  0  0  0  0  0  0  0  0  0  0
   -3.8418   91.1272   -0.0419 C   0  0  0  0  0  0  0  0  0  0  0  0
   -4.8222   92.2813   -0.0318 C   0  0  0  0  0  0  0  0  0  0  0  0
    2.1240    0.0628    1.3568 H   0  0  0  0  0  0  0  0  0  0  0  0
    1.4398    0.3105   -0.3385 H   0  0  0  0  0  0  0  0  0  0  0  0
    4.9536    2.0625   -0.9219 H   0  0  0  0  0  0  0  0  0  0  0  0
    4.8889    2.0275    0.8298 H   0  0  0  0  0  0  0  0  0  0  0  0
    2.6923    3.2167    0.7808 H   0  0  0  0  0  0  0  0  0  0  0  0
    2.7210    3.2205   -0.9859 H   0  0  0  0  0  0  0  0  0  0  0  0
    4.7820    4.6459   -0.9535 H   0  0  0  0  0  0  0  0  0  0  0  0
    4.7627    4.6362    0.8130 H   0  0  0  0  0  0  0  0  0  0  0  0
    2.4910    5.6900    0.7934 H   0  0  0  0  0  0  0  0  0  0  0  0
    2.5107    5.7002   -0.9727 H   0  0  0  0  0  0  0  0  0  0  0  0
    4.5557    7.1390   -0.9422 H   0  0  0  0  0  0  0  0  0  0  0  0
    4.5361    7.1286    0.8252 H   0  0  0  0  0  0  0  0  0  0  0  0
    2.2616    8.1680    0.8068 H   0  0  0  0  0  0  0  0  0  0  0  0
    2.2793    8.1769   -0.9604 H   0  0  0  0  0  0  0  0  0  0  0  0
    4.3265    9.6127   -0.9329 H   0  0  0  0  0  0  0  0  0  0  0  0
    4.3089    9.6039    0.8346 H   0  0  0  0  0  0  0  0  0  0  0  0
    2.0336   10.6411    0.8170 H   0  0  0  0  0  0  0  0  0  0  0  0
    2.0513   10.6500   -0.9505 H   0  0  0  0  0  0  0  0  0  0  0  0
    4.0989   12.0849   -0.9228 H   0  0  0  0  0  0  0  0  0  0  0  0
    4.0813   12.0760    0.8447 H   0  0  0  0  0  0  0  0  0  0  0  0
    1.8060   13.1130    0.8271 H   0  0  0  0  0  0  0  0  0  0  0  0
    1.8237   13.1218   -0.9404 H   0  0  0  0  0  0  0  0  0  0  0  0
    3.8713   14.5566   -0.9127 H   0  0  0  0  0  0  0  0  0  0  0  0
    3.8537   14.5478    0.8548 H   0  0  0  0  0  0  0  0  0  0  0  0
    1.5793   15.5854    0.8380 H   0  0  0  0  0  0  0  0  0  0  0  0
    1.5951   15.5927   -0.9296 H   0  0  0  0  0  0  0  0  0  0  0  0
    3.6428   17.0275   -0.9054 H   0  0  0  0  0  0  0  0  0  0  0  0
    3.6270   17.0203    0.8621 H   0  0  0  0  0  0  0  0  0  0  0  0
    1.3517   18.0571    0.8460 H   0  0  0  0  0  0  0  0  0  0  0  0
    1.3675   18.0644   -0.9215 H   0  0  0  0  0  0  0  0  0  0  0  0
    3.4152   19.4992   -0.8974 H   0  0  0  0  0  0  0  0  0  0  0  0
    3.3994   19.4919    0.8702 H   0  0  0  0  0  0  0  0  0  0  0  0
    1.1241   20.5288    0.8541 H   0  0  0  0  0  0  0  0  0  0  0  0
    1.1399   20.5360   -0.9135 H   0  0  0  0  0  0  0  0  0  0  0  0
    3.1876   21.9708   -0.8893 H   0  0  0  0  0  0  0  0  0  0  0  0
    3.1718   21.9636    0.8782 H   0  0  0  0  0  0  0  0  0  0  0  0
    0.8965   23.0005    0.8622 H   0  0  0  0  0  0  0  0  0  0  0  0
    0.9123   23.0077   -0.9054 H   0  0  0  0  0  0  0  0  0  0  0  0
    2.9600   24.4425   -0.8813 H   0  0  0  0  0  0  0  0  0  0  0  0
    2.9442   24.4353    0.8863 H   0  0  0  0  0  0  0  0  0  0  0  0
    0.6689   25.4722    0.8702 H   0  0  0  0  0  0  0  0  0  0  0  0
    0.6847   25.4794   -0.8973 H   0  0  0  0  0  0  0  0  0  0  0  0
    2.7324   26.9142   -0.8732 H   0  0  0  0  0  0  0  0  0  0  0  0
    2.7166   26.9070    0.8943 H   0  0  0  0  0  0  0  0  0  0  0  0
    0.4423   27.9446    0.8790 H   0  0  0  0  0  0  0  0  0  0  0  0
    0.4562   27.9503   -0.8885 H   0  0  0  0  0  0  0  0  0  0  0  0
    2.5039   29.3850   -0.8679 H   0  0  0  0  0  0  0  0  0  0  0  0
    2.4900   29.3795    0.8997 H   0  0  0  0  0  0  0  0  0  0  0  0
    0.2156   30.4171    0.8858 H   0  0  0  0  0  0  0  0  0  0  0  0
    0.2276   30.4212   -0.8817 H   0  0  0  0  0  0  0  0  0  0  0  0
    2.2753   31.8559   -0.8646 H   0  0  0  0  0  0  0  0  0  0  0  0
    2.2634   31.8520    0.9029 H   0  0  0  0  0  0  0  0  0  0  0  0
   -0.0110   32.8896    0.8906 H   0  0  0  0  0  0  0  0  0  0  0  0
   -0.0009   32.8920   -0.8770 H   0  0  0  0  0  0  0  0  0  0  0  0
    2.0468   34.3268   -0.8634 H   0  0  0  0  0  0  0  0  0  0  0  0
    2.0368   34.3245    0.9042 H   0  0  0  0  0  0  0  0  0  0  0  0
   -0.2376   35.3621    0.8934 H   0  0  0  0  0  0  0  0  0  0  0  0
   -0.2294   35.3630   -0.8742 H   0  0  0  0  0  0  0  0  0  0  0  0
    1.8173   36.7983   -0.8649 H   0  0  0  0  0  0  0  0  0  0  0  0
    1.8113   36.7964    0.9027 H   0  0  0  0  0  0  0  0  0  0  0  0
   -0.4631   37.8340    0.8969 H   0  0  0  0  0  0  0  0  0  0  0  0
   -0.4590   37.8344   -0.8707 H   0  0  0  0  0  0  0  0  0  0  0  0
    1.5888   39.2692   -0.8656 H   0  0  0  0  0  0  0  0  0  0  0  0
    1.5847   39.2689    0.9020 H   0  0  0  0  0  0  0  0  0  0  0  0
   -0.6906   40.3057    0.8969 H   0  0  0  0  0  0  0  0  0  0  0  0
   -0.6865   40.3061   -0.8707 H   0  0  0  0  0  0  0  0  0  0  0  0
    1.3612   41.7409   -0.8657 H   0  0  0  0  0  0  0  0  0  0  0  0
    1.3572   41.7406    0.9020 H   0  0  0  0  0  0  0  0  0  0  0  0
   -0.9182   42.7774    0.8969 H   0  0  0  0  0  0  0  0  0  0  0  0
   -0.9141   42.7778   -0.8707 H   0  0  0  0  0  0  0  0  0  0  0  0
    1.1337   44.2126   -0.8657 H   0  0  0  0  0  0  0  0  0  0  0  0
    1.1296   44.2123    0.9019 H   0  0  0  0  0  0  0  0  0  0  0  0
   -1.1447   45.2498    0.8977 H   0  0  0  0  0  0  0  0  0  0  0  0
   -1.1426   45.2488   -0.8699 H   0  0  0  0  0  0  0  0  0  0  0  0
    0.9042   46.6842   -0.8692 H   0  0  0  0  0  0  0  0  0  0  0  0
    0.9041   46.6841    0.8985 H   0  0  0  0  0  0  0  0  0  0  0  0
   -1.3721   47.7202    0.8977 H   0  0  0  0  0  0  0  0  0  0  0  0
   -1.3703   47.7218   -0.8699 H   0  0  0  0  0  0  0  0  0  0  0  0
    0.6765   49.1572   -0.8672 H   0  0  0  0  0  0  0  0  0  0  0  0
    0.6767   49.1545    0.9004 H   0  0  0  0  0  0  0  0  0  0  0  0
   -1.5977   50.1920    0.9032 H   0  0  0  0  0  0  0  0  0  0  0  0
   -1.5999   50.1934   -0.8644 H   0  0  0  0  0  0  0  0  0  0  0  0
    0.4469   51.6287   -0.8666 H   0  0  0  0  0  0  0  0  0  0  0  0
    0.4512   51.6264    0.9010 H   0  0  0  0  0  0  0  0  0  0  0  0
   -1.8232   52.6639    0.9087 H   0  0  0  0  0  0  0  0  0  0  0  0
   -1.8294   52.6648   -0.8589 H   0  0  0  0  0  0  0  0  0  0  0  0
    0.2184   54.0997   -0.8654 H   0  0  0  0  0  0  0  0  0  0  0  0
    0.2246   54.0988    0.9022 H   0  0  0  0  0  0  0  0  0  0  0  0
   -2.0507   55.1356    0.9108 H   0  0  0  0  0  0  0  0  0  0  0  0
   -2.0570   55.1365   -0.8568 H   0  0  0  0  0  0  0  0  0  0  0  0
   -0.0092   56.5713   -0.8634 H   0  0  0  0  0  0  0  0  0  0  0  0
   -0.0029   56.5705    0.9042 H   0  0  0  0  0  0  0  0  0  0  0  0
   -2.2773   57.6081    0.9135 H   0  0  0  0  0  0  0  0  0  0  0  0
   -2.2854   57.6074   -0.8541 H   0  0  0  0  0  0  0  0  0  0  0  0
   -0.2377   59.0422   -0.8641 H   0  0  0  0  0  0  0  0  0  0  0  0
   -0.2295   59.0430    0.9035 H   0  0  0  0  0  0  0  0  0  0  0  0
   -2.5039   60.0806    0.9143 H   0  0  0  0  0  0  0  0  0  0  0  0
   -2.5139   60.0783   -0.8533 H   0  0  0  0  0  0  0  0  0  0  0  0
   -0.4662   61.5131   -0.8669 H   0  0  0  0  0  0  0  0  0  0  0  0
   -0.4561   61.5155    0.9007 H   0  0  0  0  0  0  0  0  0  0  0  0
   -2.7305   62.5531    0.9130 H   0  0  0  0  0  0  0  0  0  0  0  0
   -2.7425   62.5492   -0.8546 H   0  0  0  0  0  0  0  0  0  0  0  0
   -0.6947   63.9841   -0.8716 H   0  0  0  0  0  0  0  0  0  0  0  0
   -0.6828   63.9879    0.8959 H   0  0  0  0  0  0  0  0  0  0  0  0
   -2.9590   65.0240    0.9083 H   0  0  0  0  0  0  0  0  0  0  0  0
   -2.9691   65.0216   -0.8593 H   0  0  0  0  0  0  0  0  0  0  0  0
   -0.9224   66.4570   -0.8737 H   0  0  0  0  0  0  0  0  0  0  0  0
   -0.9102   66.4583    0.8939 H   0  0  0  0  0  0  0  0  0  0  0  0
   -3.1845   67.4958    0.9097 H   0  0  0  0  0  0  0  0  0  0  0  0
   -3.1987   67.4932   -0.8578 H   0  0  0  0  0  0  0  0  0  0  0  0
   -1.1521   68.9286   -0.8772 H   0  0  0  0  0  0  0  0  0  0  0  0
   -1.1358   68.9302    0.8904 H   0  0  0  0  0  0  0  0  0  0  0  0
   -3.4101   69.9677    0.9112 H   0  0  0  0  0  0  0  0  0  0  0  0
   -3.4283   69.9647   -0.8563 H   0  0  0  0  0  0  0  0  0  0  0  0
   -1.3817   71.4001   -0.8807 H   0  0  0  0  0  0  0  0  0  0  0  0
   -1.3613   71.4021    0.8868 H   0  0  0  0  0  0  0  0  0  0  0  0
   -3.6355   72.4396    0.9127 H   0  0  0  0  0  0  0  0  0  0  0  0
   -3.6578   72.4362   -0.8548 H   0  0  0  0  0  0  0  0  0  0  0  0
   -1.6113   73.8715   -0.8842 H   0  0  0  0  0  0  0  0  0  0  0  0
   -1.5869   73.8739    0.8833 H   0  0  0  0  0  0  0  0  0  0  0  0
   -3.8611   74.9115    0.9142 H   0  0  0  0  0  0  0  0  0  0  0  0
   -3.8874   74.9077   -0.8533 H   0  0  0  0  0  0  0  0  0  0  0  0
   -1.8399   76.3425   -0.8869 H   0  0  0  0  0  0  0  0  0  0  0  0
   -1.8135   76.3464    0.8805 H   0  0  0  0  0  0  0  0  0  0  0  0
   -4.0877   77.3840    0.9129 H   0  0  0  0  0  0  0  0  0  0  0  0
   -4.1159   77.3786   -0.8545 H   0  0  0  0  0  0  0  0  0  0  0  0
   -2.0695   78.8139   -0.8924 H   0  0  0  0  0  0  0  0  0  0  0  0
   -2.0391   78.8183    0.8750 H   0  0  0  0  0  0  0  0  0  0  0  0
   -4.3132   79.8559    0.9123 H   0  0  0  0  0  0  0  0  0  0  0  0
   -4.3455   79.8501   -0.8550 H   0  0  0  0  0  0  0  0  0  0  0  0
   -2.2970   81.2843   -0.8965 H   0  0  0  0  0  0  0  0  0  0  0  0
   -2.2668   81.2913    0.8709 H   0  0  0  0  0  0  0  0  0  0  0  0
   -4.5410   82.3290    0.9063 H   0  0  0  0  0  0  0  0  0  0  0  0
   -4.5730   82.3204   -0.8610 H   0  0  0  0  0  0  0  0  0  0  0  0
   -2.5257   83.7551   -0.9052 H   0  0  0  0  0  0  0  0  0  0  0  0
   -2.4935   83.7639    0.8621 H   0  0  0  0  0  0  0  0  0  0  0  0
   -4.7677   84.8016    0.8990 H   0  0  0  0  0  0  0  0  0  0  0  0
   -4.8016   84.7912   -0.8683 H   0  0  0  0  0  0  0  0  0  0  0  0
   -2.7533   86.2254   -0.9153 H   0  0  0  0  0  0  0  0  0  0  0  0
   -2.7214   86.2369    0.8520 H   0  0  0  0  0  0  0  0  0  0  0  0
   -4.9963   87.2743    0.8861 H   0  0  0  0  0  0  0  0  0  0  0  0
   -5.0281   87.2628   -0.8811 H   0  0  0  0  0  0  0  0  0  0  0  0
   -2.9804   88.6978   -0.9275 H   0  0  0  0  0  0  0  0  0  0  0  0
   -2.9486   88.7093    0.8400 H   0  0  0  0  0  0  0  0  0  0  0  0
   -5.2239   89.7469    0.8728 H   0  0  0  0  0  0  0  0  0  0  0  0
   -5.2538   89.7368   -0.8936 H   0  0  0  0  0  0  0  0  0  0  0  0
   -3.2115   91.1852   -0.9369 H   0  0  0  0  0  0  0  0  0  0  0  0
   -3.1816   91.1952    0.8306 H   0  0  0  0  0  0  0  0  0  0  0  0
   -5.4769   92.2368   -0.9079 H   0  0  0  0  0  0  0  0  0  0  0  0
   -4.2857   93.2330   -0.0462 H   0  0  0  0  0  0  0  0  0  0  0  0
   -5.4468   92.2468    0.8665 H   0  0  0  0  0  0  0  0  0  0  0  0
  1  2  2  0  0  0  0
  2  3  1  0  0  0  0
  2  4  1  0  0  0  0
  3  4  1  0  0  0  0
  3 79  1  0  0  0  0
  3 80  1  0  0  0  0
  4  5  1  0  0  0  0
  5  6  1  0  0  0  0
  5 81  1  0  0  0  0
  5 82  1  0  0  0  0
  6  7  1  0  0  0  0
  6 83  1  0  0  0  0
  6 84  1  0  0  0  0
  7  8  1  0  0  0  0
  7 85  1  0  0  0  0
  7 86  1  0  0  0  0
  8  9  1  0  0  0  0
  8 87  1  0  0  0  0
  8 88  1  0  0  0  0
  9 10  1  0  0  0  0
  9 89  1  0  0  0  0
  9 90  1  0  0  0  0
 10 11  1  0  0  0  0
 10 91  1  0  0  0  0
 10 92  1  0  0  0  0
 11 12  1  0  0  0  0
 11 93  1  0  0  0  0
 11 94  1  0  0  0  0
 12 13  1  0  0  0  0
 12 95  1  0  0  0  0
 12 96  1  0  0  0  0
 13 14  1  0  0  0  0
 13 97  1  0  0  0  0
 13 98  1  0  0  0  0
 14 15  1  0  0  0  0
 14 99  1  0  0  0  0
 14100  1  0  0  0  0
 15 16  1  0  0  0  0
 15101  1  0  0  0  0
 15102  1  0  0  0  0
 16 17  1  0  0  0  0
 16103  1  0  0  0  0
 16104  1  0  0  0  0
 17 18  1  0  0  0  0
 17105  1  0  0  0  0
 17106  1  0  0  0  0
 18 19  1  0  0  0  0
 18107  1  0  0  0  0
 18108  1  0  0  0  0
 19 20  1  0  0  0  0
 19109  1  0  0  0  0
 19110  1  0  0  0  0
 20 21  1  0  0  0  0
 20111  1  0  0  0  0
 20112  1  0  0  0  0
 21 22  1  0  0  0  0
 21113  1  0  0  0  0
 21114  1  0  0  0  0
 22 23  1  0  0  0  0
 22115  1  0  0  0  0
 22116  1  0  0  0  0
 23 24  1  0  0  0  0
 23117  1  0  0  0  0
 23118  1  0  0  0  0
 24 25  1  0  0  0  0
 24119  1  0  0  0  0
 24120  1  0  0  0  0
 25 26  1  0  0  0  0
 25121  1  0  0  0  0
 25122  1  0  0  0  0
 26 27  1  0  0  0  0
 26123  1  0  0  0  0
 26124  1  0  0  0  0
 27 28  1  0  0  0  0
 27125  1  0  0  0  0
 27126  1  0  0  0  0
 28 29  1  0  0  0  0
 28127  1  0  0  0  0
 28128  1  0  0  0  0
 29 30  1  0  0  0  0
 29129  1  0  0  0  0
 29130  1  0  0  0  0
 30 31  1  0  0  0  0
 30131  1  0  0  0  0
 30132  1  0  0  0  0
 31 32  1  0  0  0  0
 31133  1  0  0  0  0
 31134  1  0  0  0  0
 32 33  1  0  0  0  0
 32135  1  0  0  0  0
 32136  1  0  0  0  0
 33 34  1  0  0  0  0
 33137  1  0  0  0  0
 33138  1  0  0  0  0
 34 35  1  0  0  0  0
 34139  1  0  0  0  0
 34140  1  0  0  0  0
 35 36  1  0  0  0  0
 35141  1  0  0  0  0
 35142  1  0  0  0  0
 36 37  1  0  0  0  0
 36143  1  0  0  0  0
 36144  1  0  0  0  0
 37 38  1  0  0  0  0
 37145  1  0  0  0  0
 37146  1  0  0  0  0
 38 39  1  0  0  0  0
 38147  1  0  0  0  0
 38148  1  0  0  0  0
 39 40  1  0  0  0  0
 39149  1  0  0  0  0
 39150  1  0  0  0  0
 40 41  1  0  0  0  0
 40151  1  0  0  0  0
 40152  1  0  0  0  0
 41 42  1  0  0  0  0
 41153  1  0  0  0  0
 41154  1  0  0  0  0
 42 43  1  0  0  0  0
 42155  1  0  0  0  0
 42156  1  0  0  0  0
 43 44  1  0  0  0  0
 43157  1  0  0  0  0
 43158  1  0  0  0  0
 44 45  1  0  0  0  0
 44159  1  0  0  0  0
 44160  1  0  0  0  0
 45 46  1  0  0  0  0
 45161  1  0  0  0  0
 45162  1  0  0  0  0
 46 47  1  0  0  0  0
 46163  1  0  0  0  0
 46164  1  0  0  0  0
 47 48  1  0  0  0  0
 47165  1  0  0  0  0
 47166  1  0  0  0  0
 48 49  1  0  0  0  0
 48167  1  0  0  0  0
 48168  1  0  0  0  0
 49 50  1  0  0  0  0
 49169  1  0  0  0  0
 49170  1  0  0  0  0
 50 51  1  0  0  0  0
 50171  1  0  0  0  0
 50172  1  0  0  0  0
 51 52  1  0  0  0  0
 51173  1  0  0  0  0
 51174  1  0  0  0  0
 52 53  1  0  0  0  0
 52175  1  0  0  0  0
 52176  1  0  0  0  0
 53 54  1  0  0  0  0
 53177  1  0  0  0  0
 53178  1  0  0  0  0
 54 55  1  0  0  0  0
 54179  1  0  0  0  0
 54180  1  0  0  0  0
 55 56  1  0  0  0  0
 55181  1  0  0  0  0
 55182  1  0  0  0  0
 56 57  1  0  0  0  0
 56183  1  0  0  0  0
 56184  1  0  0  0  0
 57 58  1  0  0  0  0
 57185  1  0  0  0  0
 57186  1  0  0  0  0
 58 59  1  0  0  0  0
 58187  1  0  0  0  0
 58188  1  0  0  0  0
 59 60  1  0  0  0  0
 59189  1  0  0  0  0
 59190  1  0  0  0  0
 60 61  1  0  0  0  0
 60191  1  0  0  0  0
 60192  1  0  0  0  0
 61 62  1  0  0  0  0
 61193  1  0  0  0  0
 61194  1  0  0  0  0
 62 63  1  0  0  0  0
 62195  1  0  0  0  0
 62196  1  0  0  0  0
 63 64  1  0  0  0  0
 63197  1  0  0  0  0
 63198  1  0  0  0  0
 64 65  1  0  0  0  0
 64199  1  0  0  0  0
 64200  1  0  0  0  0
 65 66  1  0  0  0  0
 65201  1  0  0  0  0
 65202  1  0  0  0  0
 66 67  1  0  0  0  0
 66203  1  0  0  0  0
 66204  1  0  0  0  0
 67 68  1  0  0  0  0
 67205  1  0  0  0  0
 67206  1  0  0  0  0
 68 69  1  0  0  0  0
 68207  1  0  0  0  0
 68208  1  0  0  0  0
 69 70  1  0  0  0  0
 69209  1  0  0  0  0
 69210  1  0  0  0  0
 70 71  1  0  0  0  0
 70211  1  0  0  0  0
 70212  1  0  0  0  0
 71 72  1  0  0  0  0
 71213  1  0  0  0  0
 71214  1  0  0  0  0
 72 73  1  0  0  0  0
 72215  1  0  0  0  0
 72216  1  0  0  0  0
 73 74  1  0  0  0  0
 73217  1  0  0  0  0
 73218  1  0  0  0  0
 74 75  1  0  0  0  0
 74219  1  0  0  0  0
 74220  1  0  0  0  0
 75 76  1  0  0  0  0
 75221  1  0  0  0  0
 75222  1  0  0  0  0
 76 77  1  0  0  0  0
 76223  1  0  0  0  0
 76224  1  0  0  0  0
 77 78  1  0  0  0  0
 77225  1  0  0  0  0
 77226  1  0  0  0  0
 78227  1  0  0  0  0
 78228  1  0  0  0  0
 78229  1  0  0  0  0
M  END
$$$$
