
 OpenBabel04232216403D

225224  0  0  0  0  0  0  0  0999 V2000
    7.0159   -5.6676    0.4194 C   0  0  0  0  0  0  0  0  0  0  0  0
    7.8489   -4.7046    0.0061 C   0  0  0  0  0  0  0  0  0  0  0  0
    8.5802   -3.8083    0.9623 C   0  0  0  0  0  0  0  0  0  0  0  0
    8.2103   -2.3395    0.7377 C   0  0  0  0  0  0  0  0  0  0  0  0
    8.9402   -1.5085    1.6915 N   0  0  0  0  0  0  0  0  0  0  0  0
    8.5732   -0.1494    1.4589 N   0  0  0  0  0  0  0  0  0  0  0  0
    9.2520    0.6848    2.3862 N   0  0  0  0  0  0  0  0  0  0  0  0
    8.9473    2.0616    2.1820 N   0  0  0  0  0  0  0  0  0  0  0  0
    9.6461    2.8859    3.0984 N   0  0  0  0  0  0  0  0  0  0  0  0
   11.0444    2.7492    2.9101 N   0  0  0  0  0  0  0  0  0  0  0  0
   11.7714    3.5390    3.8214 N   0  0  0  0  0  0  0  0  0  0  0  0
   13.1430    3.3412    3.6162 N   0  0  0  0  0  0  0  0  0  0  0  0
   13.8586    4.1551    4.5313 N   0  0  0  0  0  0  0  0  0  0  0  0
   15.2502    3.9939    4.3557 N   0  0  0  0  0  0  0  0  0  0  0  0
   15.9648    4.8099    5.2692 N   0  0  0  0  0  0  0  0  0  0  0  0
   17.3554    4.6394    5.0834 N   0  0  0  0  0  0  0  0  0  0  0  0
   18.0711    5.4432    5.9853 N   0  0  0  0  0  0  0  0  0  0  0  0
   19.4479    5.2687    5.7861 N   0  0  0  0  0  0  0  0  0  0  0  0
   20.1189    6.0809    6.7099 N   0  0  0  0  0  0  0  0  0  0  0  0
   21.5617    5.9057    6.5127 C   0  0  0  0  0  0  0  0  0  0  0  0
   22.3390    6.7771    7.4962 C   0  0  0  0  0  0  0  0  0  0  0  0
   23.8412    6.5990    7.2976 C   0  0  0  0  0  0  0  0  0  0  0  0
   24.6132    7.4692    8.2774 C   0  0  0  0  0  0  0  0  0  0  0  0
   26.1084    7.2899    8.0755 C   0  0  0  0  0  0  0  0  0  0  0  0
   26.8736    8.1605    9.0560 C   0  0  0  0  0  0  0  0  0  0  0  0
   28.3665    7.9789    8.8544 C   0  0  0  0  0  0  0  0  0  0  0  0
   29.1298    8.8493    9.8347 C   0  0  0  0  0  0  0  0  0  0  0  0
   30.6219    8.6672    9.6326 C   0  0  0  0  0  0  0  0  0  0  0  0
   31.3846    9.5376   10.6128 C   0  0  0  0  0  0  0  0  0  0  0  0
   32.8765    9.3554   10.4106 C   0  0  0  0  0  0  0  0  0  0  0  0
   33.6391   10.2258   11.3908 C   0  0  0  0  0  0  0  0  0  0  0  0
   35.1309   10.0436   11.1886 C   0  0  0  0  0  0  0  0  0  0  0  0
   35.8935   10.9125   12.1700 C   0  0  0  0  0  0  0  0  0  0  0  0
   37.3854   10.7302   11.9678 C   0  0  0  0  0  0  0  0  0  0  0  0
   38.1480   11.5991   12.9493 C   0  0  0  0  0  0  0  0  0  0  0  0
   39.6398   11.4167   12.7472 C   0  0  0  0  0  0  0  0  0  0  0  0
   40.4024   12.2870   13.7274 C   0  0  0  0  0  0  0  0  0  0  0  0
   41.8942   12.1033   13.5265 C   0  0  0  0  0  0  0  0  0  0  0  0
   42.6568   12.9723   14.5079 C   0  0  0  0  0  0  0  0  0  0  0  0
   44.1486   12.7900   14.3057 C   0  0  0  0  0  0  0  0  0  0  0  0
   44.9112   13.6603   15.2859 C   0  0  0  0  0  0  0  0  0  0  0  0
   46.4031   13.4795   15.0824 C   0  0  0  0  0  0  0  0  0  0  0  0
   47.1656   14.3499   16.0625 C   0  0  0  0  0  0  0  0  0  0  0  0
   48.6575   14.1693   15.8589 C   0  0  0  0  0  0  0  0  0  0  0  0
   49.4200   15.0396   16.8391 C   0  0  0  0  0  0  0  0  0  0  0  0
   50.9119   14.8588   16.6356 C   0  0  0  0  0  0  0  0  0  0  0  0
   51.6744   15.7292   17.6158 C   0  0  0  0  0  0  0  0  0  0  0  0
   53.1663   15.5470   17.4135 C   0  0  0  0  0  0  0  0  0  0  0  0
   53.9288   16.4188   18.3924 C   0  0  0  0  0  0  0  0  0  0  0  0
   55.4207   16.2381   18.1888 C   0  0  0  0  0  0  0  0  0  0  0  0
   56.1832   17.1100   19.1676 C   0  0  0  0  0  0  0  0  0  0  0  0
   57.6751   16.9306   18.9627 C   0  0  0  0  0  0  0  0  0  0  0  0
   58.4377   17.8040   19.9402 C   0  0  0  0  0  0  0  0  0  0  0  0
   59.9295   17.6234   19.7365 C   0  0  0  0  0  0  0  0  0  0  0  0
   60.6921   18.4954   20.7152 C   0  0  0  0  0  0  0  0  0  0  0  0
   62.1839   18.3161   20.5104 C   0  0  0  0  0  0  0  0  0  0  0  0
   62.9465   19.1894   21.4880 C   0  0  0  0  0  0  0  0  0  0  0  0
   64.4383   19.0102   21.2831 C   0  0  0  0  0  0  0  0  0  0  0  0
   65.2008   19.8822   22.2618 C   0  0  0  0  0  0  0  0  0  0  0  0
   66.6927   19.7030   22.0569 C   0  0  0  0  0  0  0  0  0  0  0  0
   67.4553   20.5748   23.0357 C   0  0  0  0  0  0  0  0  0  0  0  0
   68.9471   20.3955   22.8309 C   0  0  0  0  0  0  0  0  0  0  0  0
   69.7097   21.2674   23.8097 C   0  0  0  0  0  0  0  0  0  0  0  0
   71.2015   21.0881   23.6048 C   0  0  0  0  0  0  0  0  0  0  0  0
   71.9641   21.9600   24.5837 C   0  0  0  0  0  0  0  0  0  0  0  0
   73.4559   21.7807   24.3788 C   0  0  0  0  0  0  0  0  0  0  0  0
   74.2185   22.6527   25.3575 C   0  0  0  0  0  0  0  0  0  0  0  0
   75.7103   22.4734   25.1527 C   0  0  0  0  0  0  0  0  0  0  0  0
   76.4729   23.3468   26.1302 C   0  0  0  0  0  0  0  0  0  0  0  0
   77.9647   23.1675   25.9253 C   0  0  0  0  0  0  0  0  0  0  0  0
   78.7273   24.0409   26.9028 C   0  0  0  0  0  0  0  0  0  0  0  0
   80.2192   23.8617   26.6979 C   0  0  0  0  0  0  0  0  0  0  0  0
   80.9819   24.7352   27.6753 C   0  0  0  0  0  0  0  0  0  0  0  0
   82.4740   24.5560   27.4705 C   0  0  0  0  0  0  0  0  0  0  0  0
   83.2369   25.4311   28.4468 C   0  0  0  0  0  0  0  0  0  0  0  0
   84.7297   25.2526   28.2427 C   0  0  0  0  0  0  0  0  0  0  0  0
   85.4936   26.1282   29.2197 C   0  0  0  0  0  0  0  0  0  0  0  0
   86.9881   25.9496   29.0185 C   0  0  0  0  0  0  0  0  0  0  0  0
   87.7604   26.8225   29.9954 C   0  0  0  0  0  0  0  0  0  0  0  0
   89.2507   26.6420   29.7922 C   0  0  0  0  0  0  0  0  0  0  0  0
    6.4937   -6.2950   -0.2910 H   0  0  0  0  0  0  0  0  0  0  0  0
    6.8399   -5.8252    1.4789 H   0  0  0  0  0  0  0  0  0  0  0  0
    8.0114   -4.5519   -1.0553 H   0  0  0  0  0  0  0  0  0  0  0  0
    9.6605   -3.9460    0.8290 H   0  0  0  0  0  0  0  0  0  0  0  0
    8.3470   -4.0840    1.9990 H   0  0  0  0  0  0  0  0  0  0  0  0
    7.1283   -2.2120    0.8722 H   0  0  0  0  0  0  0  0  0  0  0  0
    8.4615   -2.0467   -0.2903 H   0  0  0  0  0  0  0  0  0  0  0  0
    9.9390   -1.6330    1.5337 H   0  0  0  0  0  0  0  0  0  0  0  0
    7.5567   -0.0707    1.5734 H   0  0  0  0  0  0  0  0  0  0  0  0
   10.2660    0.5840    2.2635 H   0  0  0  0  0  0  0  0  0  0  0  0
    7.9510    2.2389    2.3210 H   0  0  0  0  0  0  0  0  0  0  0  0
    9.4072    2.6340    4.0572 H   0  0  0  0  0  0  0  0  0  0  0  0
   11.2723    3.0080    1.9536 H   0  0  0  0  0  0  0  0  0  0  0  0
   11.5204    3.2615    4.7684 H   0  0  0  0  0  0  0  0  0  0  0  0
   13.3832    3.6315    2.6698 H   0  0  0  0  0  0  0  0  0  0  0  0
   13.5898    3.8824    5.4732 H   0  0  0  0  0  0  0  0  0  0  0  0
   15.4839    4.2803    3.4075 H   0  0  0  0  0  0  0  0  0  0  0  0
   15.7268    4.5313    6.2188 H   0  0  0  0  0  0  0  0  0  0  0  0
   17.6049    4.9336    4.1422 H   0  0  0  0  0  0  0  0  0  0  0  0
   17.8663    5.1848    6.9456 H   0  0  0  0  0  0  0  0  0  0  0  0
   19.6811    5.5528    4.8362 H   0  0  0  0  0  0  0  0  0  0  0  0
   19.8749    5.8085    7.6612 H   0  0  0  0  0  0  0  0  0  0  0  0
   21.8470    6.1891    5.4910 H   0  0  0  0  0  0  0  0  0  0  0  0
   21.8462    4.8560    6.6626 H   0  0  0  0  0  0  0  0  0  0  0  0
   22.0765    6.5111    8.5276 H   0  0  0  0  0  0  0  0  0  0  0  0
   22.0774    7.8332    7.3536 H   0  0  0  0  0  0  0  0  0  0  0  0
   24.1191    6.8669    6.2706 H   0  0  0  0  0  0  0  0  0  0  0  0
   24.1171    5.5474    7.4443 H   0  0  0  0  0  0  0  0  0  0  0  0
   24.3446    7.2018    9.3067 H   0  0  0  0  0  0  0  0  0  0  0  0
   24.3447    8.5229    8.1336 H   0  0  0  0  0  0  0  0  0  0  0  0
   26.3824    7.5589    7.0480 H   0  0  0  0  0  0  0  0  0  0  0  0
   26.3823    6.2377    8.2212 H   0  0  0  0  0  0  0  0  0  0  0  0
   26.6017    7.8934   10.0846 H   0  0  0  0  0  0  0  0  0  0  0  0
   26.6037    9.2137    8.9104 H   0  0  0  0  0  0  0  0  0  0  0  0
   28.6403    8.2466    7.8265 H   0  0  0  0  0  0  0  0  0  0  0  0
   28.6381    6.9262    9.0007 H   0  0  0  0  0  0  0  0  0  0  0  0
   28.8570    8.5819   10.8629 H   0  0  0  0  0  0  0  0  0  0  0  0
   28.8591    9.9023    9.6887 H   0  0  0  0  0  0  0  0  0  0  0  0
   30.8952    8.9349    8.6045 H   0  0  0  0  0  0  0  0  0  0  0  0
   30.8930    7.6144    9.7788 H   0  0  0  0  0  0  0  0  0  0  0  0
   31.1116    9.2701   11.6409 H   0  0  0  0  0  0  0  0  0  0  0  0
   31.1137   10.5905   10.4667 H   0  0  0  0  0  0  0  0  0  0  0  0
   33.1497    9.6230    9.3824 H   0  0  0  0  0  0  0  0  0  0  0  0
   33.1475    8.3025   10.5567 H   0  0  0  0  0  0  0  0  0  0  0  0
   33.3659    9.9582   12.4189 H   0  0  0  0  0  0  0  0  0  0  0  0
   33.3681   11.2787   11.2447 H   0  0  0  0  0  0  0  0  0  0  0  0
   35.4043   10.3124   10.1608 H   0  0  0  0  0  0  0  0  0  0  0  0
   35.4017    8.9904   11.3333 H   0  0  0  0  0  0  0  0  0  0  0  0
   35.6202   10.6435   13.1978 H   0  0  0  0  0  0  0  0  0  0  0  0
   35.6227   11.9656   12.0254 H   0  0  0  0  0  0  0  0  0  0  0  0
   37.6587   10.9991   10.9400 H   0  0  0  0  0  0  0  0  0  0  0  0
   37.6562    9.6771   12.1125 H   0  0  0  0  0  0  0  0  0  0  0  0
   37.8746   11.3302   13.9770 H   0  0  0  0  0  0  0  0  0  0  0  0
   37.8772   12.6523   12.8046 H   0  0  0  0  0  0  0  0  0  0  0  0
   39.9131   11.6844   11.7190 H   0  0  0  0  0  0  0  0  0  0  0  0
   39.9107   10.3638   12.8932 H   0  0  0  0  0  0  0  0  0  0  0  0
   40.1281   12.0204   14.7556 H   0  0  0  0  0  0  0  0  0  0  0  0
   40.1325   13.3400   13.5803 H   0  0  0  0  0  0  0  0  0  0  0  0
   42.1685   12.3713   12.4988 H   0  0  0  0  0  0  0  0  0  0  0  0
   42.1641   11.0500   13.6722 H   0  0  0  0  0  0  0  0  0  0  0  0
   42.3835   12.7034   15.5357 H   0  0  0  0  0  0  0  0  0  0  0  0
   42.3860   14.0254   14.3632 H   0  0  0  0  0  0  0  0  0  0  0  0
   44.4218   13.0576   13.2775 H   0  0  0  0  0  0  0  0  0  0  0  0
   44.4196   11.7371   14.4517 H   0  0  0  0  0  0  0  0  0  0  0  0
   44.6390   13.3918   16.3141 H   0  0  0  0  0  0  0  0  0  0  0  0
   44.6393   14.7130   15.1408 H   0  0  0  0  0  0  0  0  0  0  0  0
   46.6751   13.7481   14.0542 H   0  0  0  0  0  0  0  0  0  0  0  0
   46.6751   12.4267   15.2274 H   0  0  0  0  0  0  0  0  0  0  0  0
   46.8936   14.0815   17.0907 H   0  0  0  0  0  0  0  0  0  0  0  0
   46.8935   15.4027   15.9173 H   0  0  0  0  0  0  0  0  0  0  0  0
   48.9295   14.4378   14.8307 H   0  0  0  0  0  0  0  0  0  0  0  0
   48.9295   13.1165   16.0040 H   0  0  0  0  0  0  0  0  0  0  0  0
   49.1479   14.7711   17.8673 H   0  0  0  0  0  0  0  0  0  0  0  0
   49.1480   16.0924   16.6939 H   0  0  0  0  0  0  0  0  0  0  0  0
   51.1839   15.1274   15.6074 H   0  0  0  0  0  0  0  0  0  0  0  0
   51.1839   13.8060   16.7807 H   0  0  0  0  0  0  0  0  0  0  0  0
   51.4014   15.4617   18.6440 H   0  0  0  0  0  0  0  0  0  0  0  0
   51.4034   16.7820   17.4696 H   0  0  0  0  0  0  0  0  0  0  0  0
   53.4391   15.8132   16.3850 H   0  0  0  0  0  0  0  0  0  0  0  0
   53.4375   14.4943   17.5609 H   0  0  0  0  0  0  0  0  0  0  0  0
   53.6569   16.1517   19.4210 H   0  0  0  0  0  0  0  0  0  0  0  0
   53.6566   17.4713   18.2458 H   0  0  0  0  0  0  0  0  0  0  0  0
   55.6924   16.5053   17.1602 H   0  0  0  0  0  0  0  0  0  0  0  0
   55.6930   15.1856   18.3353 H   0  0  0  0  0  0  0  0  0  0  0  0
   55.9125   16.8420   20.1962 H   0  0  0  0  0  0  0  0  0  0  0  0
   55.9099   18.1623   19.0219 H   0  0  0  0  0  0  0  0  0  0  0  0
   57.9457   17.1976   17.9337 H   0  0  0  0  0  0  0  0  0  0  0  0
   57.9486   15.8785   19.1095 H   0  0  0  0  0  0  0  0  0  0  0  0
   58.1661   17.5382   20.9693 H   0  0  0  0  0  0  0  0  0  0  0  0
   58.1652   18.8562   19.7922 H   0  0  0  0  0  0  0  0  0  0  0  0
   60.2012   17.8905   18.7078 H   0  0  0  0  0  0  0  0  0  0  0  0
   60.2020   16.5709   19.8831 H   0  0  0  0  0  0  0  0  0  0  0  0
   60.4213   18.2273   21.7439 H   0  0  0  0  0  0  0  0  0  0  0  0
   60.4187   19.5477   20.5696 H   0  0  0  0  0  0  0  0  0  0  0  0
   62.4546   18.5829   19.4813 H   0  0  0  0  0  0  0  0  0  0  0  0
   62.4574   17.2640   20.6573 H   0  0  0  0  0  0  0  0  0  0  0  0
   62.6758   18.9226   22.5170 H   0  0  0  0  0  0  0  0  0  0  0  0
   62.6730   20.2415   21.3410 H   0  0  0  0  0  0  0  0  0  0  0  0
   64.7090   19.2783   20.2544 H   0  0  0  0  0  0  0  0  0  0  0  0
   64.7117   17.9578   21.4287 H   0  0  0  0  0  0  0  0  0  0  0  0
   64.9302   19.6140   23.2905 H   0  0  0  0  0  0  0  0  0  0  0  0
   64.9274   20.9345   22.1163 H   0  0  0  0  0  0  0  0  0  0  0  0
   66.9635   19.9711   21.0282 H   0  0  0  0  0  0  0  0  0  0  0  0
   66.9660   18.6506   22.2025 H   0  0  0  0  0  0  0  0  0  0  0  0
   67.1845   20.3067   24.0644 H   0  0  0  0  0  0  0  0  0  0  0  0
   67.1819   21.6272   22.8902 H   0  0  0  0  0  0  0  0  0  0  0  0
   69.2179   20.6637   21.8022 H   0  0  0  0  0  0  0  0  0  0  0  0
   69.2204   19.3432   22.9764 H   0  0  0  0  0  0  0  0  0  0  0  0
   69.4389   20.9993   24.8383 H   0  0  0  0  0  0  0  0  0  0  0  0
   69.4363   22.3197   23.6641 H   0  0  0  0  0  0  0  0  0  0  0  0
   71.4723   21.3563   22.5762 H   0  0  0  0  0  0  0  0  0  0  0  0
   71.4749   20.0358   23.7503 H   0  0  0  0  0  0  0  0  0  0  0  0
   71.6933   21.6919   25.6123 H   0  0  0  0  0  0  0  0  0  0  0  0
   71.6908   23.0123   24.4381 H   0  0  0  0  0  0  0  0  0  0  0  0
   73.7266   22.0489   23.3501 H   0  0  0  0  0  0  0  0  0  0  0  0
   73.7293   20.7284   24.5243 H   0  0  0  0  0  0  0  0  0  0  0  0
   73.9478   22.3846   26.3862 H   0  0  0  0  0  0  0  0  0  0  0  0
   73.9451   23.7050   25.2119 H   0  0  0  0  0  0  0  0  0  0  0  0
   75.9809   22.7402   24.1236 H   0  0  0  0  0  0  0  0  0  0  0  0
   75.9839   21.4213   25.2996 H   0  0  0  0  0  0  0  0  0  0  0  0
   76.2023   23.0800   27.1593 H   0  0  0  0  0  0  0  0  0  0  0  0
   76.1993   24.3989   25.9832 H   0  0  0  0  0  0  0  0  0  0  0  0
   78.2352   23.4343   24.8963 H   0  0  0  0  0  0  0  0  0  0  0  0
   78.2383   22.1154   26.0722 H   0  0  0  0  0  0  0  0  0  0  0  0
   78.4568   23.7742   27.9319 H   0  0  0  0  0  0  0  0  0  0  0  0
   78.4538   25.0930   26.7557 H   0  0  0  0  0  0  0  0  0  0  0  0
   80.4897   24.1285   25.6688 H   0  0  0  0  0  0  0  0  0  0  0  0
   80.4928   22.8096   26.8448 H   0  0  0  0  0  0  0  0  0  0  0  0
   80.7113   24.4684   28.7043 H   0  0  0  0  0  0  0  0  0  0  0  0
   80.7082   25.7872   27.5282 H   0  0  0  0  0  0  0  0  0  0  0  0
   82.7440   24.8214   26.4410 H   0  0  0  0  0  0  0  0  0  0  0  0
   82.7475   23.5041   27.6188 H   0  0  0  0  0  0  0  0  0  0  0  0
   82.9661   25.1655   29.4761 H   0  0  0  0  0  0  0  0  0  0  0  0
   82.9626   26.4827   28.2982 H   0  0  0  0  0  0  0  0  0  0  0  0
   84.9992   25.5175   27.2129 H   0  0  0  0  0  0  0  0  0  0  0  0
   85.0026   24.2004   28.3907 H   0  0  0  0  0  0  0  0  0  0  0  0
   85.2205   25.8629   30.2483 H   0  0  0  0  0  0  0  0  0  0  0  0
   85.2191   27.1794   29.0695 H   0  0  0  0  0  0  0  0  0  0  0  0
   87.2566   26.2134   27.9880 H   0  0  0  0  0  0  0  0  0  0  0  0
   87.2576   24.8962   29.1644 H   0  0  0  0  0  0  0  0  0  0  0  0
   87.4929   26.5571   31.0249 H   0  0  0  0  0  0  0  0  0  0  0  0
   87.4920   27.8751   29.8480 H   0  0  0  0  0  0  0  0  0  0  0  0
   89.5379   25.5983   29.9553 H   0  0  0  0  0  0  0  0  0  0  0  0
   89.8068   27.2687   30.4936 H   0  0  0  0  0  0  0  0  0  0  0  0
   89.5370   26.9218   28.7733 H   0  0  0  0  0  0  0  0  0  0  0  0
  1  2  2  0  0  0  0
  1 81  1  0  0  0  0
  1 82  1  0  0  0  0
  2  3  1  0  0  0  0
  2 83  1  0  0  0  0
  3  4  1  0  0  0  0
  3 84  1  0  0  0  0
  3 85  1  0  0  0  0
  4  5  1  0  0  0  0
  4 86  1  0  0  0  0
  4 87  1  0  0  0  0
  5  6  1  0  0  0  0
  5 88  1  0  0  0  0
  6  7  1  0  0  0  0
  6 89  1  0  0  0  0
  7  8  1  0  0  0  0
  7 90  1  0  0  0  0
  8  9  1  0  0  0  0
  8 91  1  0  0  0  0
  9 10  1  0  0  0  0
  9 92  1  0  0  0  0
 10 11  1  0  0  0  0
 10 93  1  0  0  0  0
 11 12  1  0  0  0  0
 11 94  1  0  0  0  0
 12 13  1  0  0  0  0
 12 95  1  0  0  0  0
 13 14  1  0  0  0  0
 13 96  1  0  0  0  0
 14 15  1  0  0  0  0
 14 97  1  0  0  0  0
 15 16  1  0  0  0  0
 15 98  1  0  0  0  0
 16 17  1  0  0  0  0
 16 99  1  0  0  0  0
 17 18  1  0  0  0  0
 17100  1  0  0  0  0
 18 19  1  0  0  0  0
 18101  1  0  0  0  0
 19 20  1  0  0  0  0
 19102  1  0  0  0  0
 20 21  1  0  0  0  0
 20103  1  0  0  0  0
 20104  1  0  0  0  0
 21 22  1  0  0  0  0
 21105  1  0  0  0  0
 21106  1  0  0  0  0
 22 23  1  0  0  0  0
 22107  1  0  0  0  0
 22108  1  0  0  0  0
 23 24  1  0  0  0  0
 23109  1  0  0  0  0
 23110  1  0  0  0  0
 24 25  1  0  0  0  0
 24111  1  0  0  0  0
 24112  1  0  0  0  0
 25 26  1  0  0  0  0
 25113  1  0  0  0  0
 25114  1  0  0  0  0
 26 27  1  0  0  0  0
 26115  1  0  0  0  0
 26116  1  0  0  0  0
 27 28  1  0  0  0  0
 27117  1  0  0  0  0
 27118  1  0  0  0  0
 28 29  1  0  0  0  0
 28119  1  0  0  0  0
 28120  1  0  0  0  0
 29 30  1  0  0  0  0
 29121  1  0  0  0  0
 29122  1  0  0  0  0
 30 31  1  0  0  0  0
 30123  1  0  0  0  0
 30124  1  0  0  0  0
 31 32  1  0  0  0  0
 31125  1  0  0  0  0
 31126  1  0  0  0  0
 32 33  1  0  0  0  0
 32127  1  0  0  0  0
 32128  1  0  0  0  0
 33 34  1  0  0  0  0
 33129  1  0  0  0  0
 33130  1  0  0  0  0
 34 35  1  0  0  0  0
 34131  1  0  0  0  0
 34132  1  0  0  0  0
 35 36  1  0  0  0  0
 35133  1  0  0  0  0
 35134  1  0  0  0  0
 36 37  1  0  0  0  0
 36135  1  0  0  0  0
 36136  1  0  0  0  0
 37 38  1  0  0  0  0
 37137  1  0  0  0  0
 37138  1  0  0  0  0
 38 39  1  0  0  0  0
 38139  1  0  0  0  0
 38140  1  0  0  0  0
 39 40  1  0  0  0  0
 39141  1  0  0  0  0
 39142  1  0  0  0  0
 40 41  1  0  0  0  0
 40143  1  0  0  0  0
 40144  1  0  0  0  0
 41 42  1  0  0  0  0
 41145  1  0  0  0  0
 41146  1  0  0  0  0
 42 43  1  0  0  0  0
 42147  1  0  0  0  0
 42148  1  0  0  0  0
 43 44  1  0  0  0  0
 43149  1  0  0  0  0
 43150  1  0  0  0  0
 44 45  1  0  0  0  0
 44151  1  0  0  0  0
 44152  1  0  0  0  0
 45 46  1  0  0  0  0
 45153  1  0  0  0  0
 45154  1  0  0  0  0
 46 47  1  0  0  0  0
 46155  1  0  0  0  0
 46156  1  0  0  0  0
 47 48  1  0  0  0  0
 47157  1  0  0  0  0
 47158  1  0  0  0  0
 48 49  1  0  0  0  0
 48159  1  0  0  0  0
 48160  1  0  0  0  0
 49 50  1  0  0  0  0
 49161  1  0  0  0  0
 49162  1  0  0  0  0
 50 51  1  0  0  0  0
 50163  1  0  0  0  0
 50164  1  0  0  0  0
 51 52  1  0  0  0  0
 51165  1  0  0  0  0
 51166  1  0  0  0  0
 52 53  1  0  0  0  0
 52167  1  0  0  0  0
 52168  1  0  0  0  0
 53 54  1  0  0  0  0
 53169  1  0  0  0  0
 53170  1  0  0  0  0
 54 55  1  0  0  0  0
 54171  1  0  0  0  0
 54172  1  0  0  0  0
 55 56  1  0  0  0  0
 55173  1  0  0  0  0
 55174  1  0  0  0  0
 56 57  1  0  0  0  0
 56175  1  0  0  0  0
 56176  1  0  0  0  0
 57 58  1  0  0  0  0
 57177  1  0  0  0  0
 57178  1  0  0  0  0
 58 59  1  0  0  0  0
 58179  1  0  0  0  0
 58180  1  0  0  0  0
 59 60  1  0  0  0  0
 59181  1  0  0  0  0
 59182  1  0  0  0  0
 60 61  1  0  0  0  0
 60183  1  0  0  0  0
 60184  1  0  0  0  0
 61 62  1  0  0  0  0
 61185  1  0  0  0  0
 61186  1  0  0  0  0
 62 63  1  0  0  0  0
 62187  1  0  0  0  0
 62188  1  0  0  0  0
 63 64  1  0  0  0  0
 63189  1  0  0  0  0
 63190  1  0  0  0  0
 64 65  1  0  0  0  0
 64191  1  0  0  0  0
 64192  1  0  0  0  0
 65 66  1  0  0  0  0
 65193  1  0  0  0  0
 65194  1  0  0  0  0
 66 67  1  0  0  0  0
 66195  1  0  0  0  0
 66196  1  0  0  0  0
 67 68  1  0  0  0  0
 67197  1  0  0  0  0
 67198  1  0  0  0  0
 68 69  1  0  0  0  0
 68199  1  0  0  0  0
 68200  1  0  0  0  0
 69 70  1  0  0  0  0
 69201  1  0  0  0  0
 69202  1  0  0  0  0
 70 71  1  0  0  0  0
 70203  1  0  0  0  0
 70204  1  0  0  0  0
 71 72  1  0  0  0  0
 71205  1  0  0  0  0
 71206  1  0  0  0  0
 72 73  1  0  0  0  0
 72207  1  0  0  0  0
 72208  1  0  0  0  0
 73 74  1  0  0  0  0
 73209  1  0  0  0  0
 73210  1  0  0  0  0
 74 75  1  0  0  0  0
 74211  1  0  0  0  0
 74212  1  0  0  0  0
 75 76  1  0  0  0  0
 75213  1  0  0  0  0
 75214  1  0  0  0  0
 76 77  1  0  0  0  0
 76215  1  0  0  0  0
 76216  1  0  0  0  0
 77 78  1  0  0  0  0
 77217  1  0  0  0  0
 77218  1  0  0  0  0
 78 79  1  0  0  0  0
 78219  1  0  0  0  0
 78220  1  0  0  0  0
 79 80  1  0  0  0  0
 79221  1  0  0  0  0
 79222  1  0  0  0  0
 80223  1  0  0  0  0
 80224  1  0  0  0  0
 80225  1  0  0  0  0
M  END
$$$$
