
 OpenBabel04232216473D

182182  0  0  1  0  0  0  0  0999 V2000
    0.0878   35.0803    2.7397 C   0  0  0  0  0  0  0  0  0  0  0  0
    0.0741   33.5964    2.7053 C   0  0  3  0  0  0  0  0  0  0  0  0
   -0.5982   32.8717    3.6384 C   0  0  0  0  0  0  0  0  0  0  0  0
    0.6530   32.8305    4.0422 C   0  0  0  0  0  0  0  0  0  0  0  0
    2.0026   33.1683    3.8494 O   0  0  0  0  0  0  0  0  0  0  0  0
    2.9001   32.7049    4.9553 O   0  0  0  0  0  0  0  0  0  0  0  0
    3.6226   33.8766    5.5913 O   0  0  0  0  0  0  0  0  0  0  0  0
    4.9620   33.6183    6.0922 N   0  0  0  0  0  0  0  0  0  0  0  0
    5.4901   34.6444    6.6477 N   0  0  0  0  0  0  0  0  0  0  0  0
    6.8265   34.3946    7.1839 N   0  0  0  0  0  0  0  0  0  0  0  0
    7.0801   35.1555    8.1721 N   0  0  0  0  0  0  0  0  0  0  0  0
    8.3071   34.9198    8.7626 N   0  0  0  0  0  0  0  0  0  0  0  0
    8.7558   35.6629    9.8328 N   0  0  0  0  0  0  0  0  0  0  0  0
    8.3972   35.0514   11.0707 N   0  0  0  0  0  0  0  0  0  0  0  0
    8.8580   35.8268   12.1804 N   0  0  0  0  0  0  0  0  0  0  0  0
    8.2983   37.1409   12.1645 N   0  0  0  0  0  0  0  0  0  0  0  0
    6.8809   37.1004   12.2311 N   0  0  0  0  0  0  0  0  0  0  0  0
    6.5095   36.4650   13.4427 N   0  0  0  0  0  0  0  0  0  0  0  0
    7.0529   37.2056   14.5293 N   0  0  0  0  0  0  0  0  0  0  0  0
    6.5243   38.5053   14.6270 N   0  0  0  0  0  0  0  0  0  0  0  0
    5.1134   38.4708   14.7354 N   0  0  0  0  0  0  0  0  0  0  0  0
    4.6933   37.7933   15.9132 N   0  0  0  0  0  0  0  0  0  0  0  0
    5.1617   36.4293   15.9409 N   0  0  0  0  0  0  0  0  0  0  0  0
    4.7933   35.7718   17.0702 N   0  0  0  0  0  0  0  0  0  0  0  0
    5.2979   34.4633   16.9682 N   0  0  0  0  0  0  0  0  0  0  0  0
    4.9219   33.7647   18.1466 N   0  0  0  0  0  0  0  0  0  0  0  0
    5.3883   32.4078   18.1259 N   0  0  0  0  0  0  0  0  0  0  0  0
    4.9564   31.7516   19.3158 N   0  0  0  0  0  0  0  0  0  0  0  0
    3.5466   31.7266   19.3900 N   0  0  0  0  0  0  0  0  0  0  0  0
    3.1156   31.0814   20.5672 N   0  0  0  0  0  0  0  0  0  0  0  0
    3.5916   31.7074   21.7258 N   0  0  0  0  0  0  0  0  0  0  0  0
    3.1393   31.0219   22.8674 N   0  0  0  0  0  0  0  0  0  0  0  0
    3.6273   31.6570   24.0479 N   0  0  0  0  0  0  0  0  0  0  0  0
    3.1907   33.0129   24.1018 N   0  0  0  0  0  0  0  0  0  0  0  0
    3.6872   33.6199   25.2822 N   0  0  0  0  0  0  0  0  0  0  0  0
    3.2237   34.9435   25.3289 N   0  0  0  0  0  0  0  0  0  0  0  0
    1.8128   34.9721   25.3685 N   0  0  0  0  0  0  0  0  0  0  0  0
    1.3567   36.2945   25.4154 N   0  0  0  0  0  0  0  0  0  0  0  0
    1.7645   37.0301   24.2649 N   0  0  0  0  0  0  0  0  0  0  0  0
    1.3410   38.3715   24.3436 N   0  0  0  0  0  0  0  0  0  0  0  0
    1.8338   39.0280   25.5176 N   0  0  0  0  0  0  0  0  0  0  0  0
    3.2644   39.0303   25.5090 N   0  0  0  0  0  0  0  0  0  0  0  0
    3.7302   39.7176   24.3434 N   0  0  0  0  0  0  0  0  0  0  0  0
    3.2569   41.1013   24.3242 N   0  0  0  0  0  0  0  0  0  0  0  0
    3.7513   41.7657   25.5382 C   0  0  0  0  0  0  0  0  0  0  0  0
    3.2378   43.1854   25.5323 C   0  0  0  0  0  0  0  0  0  0  0  0
    3.7415   43.9136   26.7641 C   0  0  0  0  0  0  0  0  0  0  0  0
    3.2401   45.3447   26.7596 C   0  0  0  0  0  0  0  0  0  0  0  0
    3.7454   46.0730   27.9909 C   0  0  0  0  0  0  0  0  0  0  0  0
    3.2434   47.5044   27.9854 C   0  0  0  0  0  0  0  0  0  0  0  0
    3.7484   48.2328   29.2163 C   0  0  0  0  0  0  0  0  0  0  0  0
    3.2459   49.6639   29.2101 C   0  0  0  0  0  0  0  0  0  0  0  0
    3.7510   50.3921   30.4410 C   0  0  0  0  0  0  0  0  0  0  0  0
    3.2486   51.8232   30.4349 C   0  0  0  0  0  0  0  0  0  0  0  0
    3.7521   52.5507   31.6668 C   0  0  0  0  0  0  0  0  0  0  0  0
    3.2513   53.9822   31.6596 C   0  0  0  0  0  0  0  0  0  0  0  0
    3.7548   54.7098   32.8915 C   0  0  0  0  0  0  0  0  0  0  0  0
    3.2523   56.1409   32.8853 C   0  0  0  0  0  0  0  0  0  0  0  0
    3.7574   56.8690   34.1161 C   0  0  0  0  0  0  0  0  0  0  0  0
    3.2566   58.3005   34.1089 C   0  0  0  0  0  0  0  0  0  0  0  0
    3.7601   59.0280   35.3407 C   0  0  0  0  0  0  0  0  0  0  0  0
    3.2577   60.4590   35.3345 C   0  0  0  0  0  0  0  0  0  0  0  0
    3.7627   61.1871   36.5653 C   0  0  0  0  0  0  0  0  0  0  0  0
    3.2619   62.6186   36.5581 C   0  0  0  0  0  0  0  0  0  0  0  0
    3.7654   63.3462   37.7899 C   0  0  0  0  0  0  0  0  0  0  0  0
    3.2646   64.7777   37.7827 C   0  0  0  0  0  0  0  0  0  0  0  0
    3.7697   65.5059   39.0136 C   0  0  0  0  0  0  0  0  0  0  0  0
    3.2705   66.9382   39.0055 C   0  0  0  0  0  0  0  0  0  0  0  0
    3.7740   67.6660   40.2374 C   0  0  0  0  0  0  0  0  0  0  0  0
    3.2749   69.0984   40.2295 C   0  0  0  0  0  0  0  0  0  0  0  0
    3.7800   69.8271   41.4605 C   0  0  0  0  0  0  0  0  0  0  0  0
    3.2792   71.2595   41.4539 C   0  0  0  0  0  0  0  0  0  0  0  0
    3.7853   71.9906   42.6841 C   0  0  0  0  0  0  0  0  0  0  0  0
    3.2846   73.4250   42.6785 C   0  0  0  0  0  0  0  0  0  0  0  0
    3.7899   74.1596   43.9093 C   0  0  0  0  0  0  0  0  0  0  0  0
    3.2953   75.5989   43.9124 C   0  0  0  0  0  0  0  0  0  0  0  0
    3.8017   76.3277   45.1418 C   0  0  0  0  0  0  0  0  0  0  0  0
   -0.5806   35.4744    1.9699 H   0  0  0  0  0  0  0  0  0  0  0  0
    1.1004   35.4450    2.5479 H   0  0  0  0  0  0  0  0  0  0  0  0
   -0.2392   35.4769    3.7076 H   0  0  0  0  0  0  0  0  0  0  0  0
    0.3879   33.1287    1.7889 H   0  0  0  0  0  0  0  0  0  0  0  0
   -1.6117   32.6056    3.7958 H   0  0  0  0  0  0  0  0  0  0  0  0
    8.9924   34.3536    8.2752 H   0  0  0  0  0  0  0  0  0  0  0  0
    8.2834   36.5600    9.7827 H   0  0  0  0  0  0  0  0  0  0  0  0
    8.8196   34.1278   11.1344 H   0  0  0  0  0  0  0  0  0  0  0  0
    9.8876   35.8642   12.1352 H   0  0  0  0  0  0  0  0  0  0  0  0
    8.5339   37.6324   11.3189 H   0  0  0  0  0  0  0  0  0  0  0  0
    6.4999   36.5457   11.4753 H   0  0  0  0  0  0  0  0  0  0  0  0
    6.8814   35.5078   13.3831 H   0  0  0  0  0  0  0  0  0  0  0  0
    8.0743   37.2502   14.5237 H   0  0  0  0  0  0  0  0  0  0  0  0
    6.7601   39.0215   13.7806 H   0  0  0  0  0  0  0  0  0  0  0  0
    4.7312   38.0683   13.8714 H   0  0  0  0  0  0  0  0  0  0  0  0
    3.6783   37.7939   15.9591 H   0  0  0  0  0  0  0  0  0  0  0  0
    6.1779   36.4593   15.8420 H   0  0  0  0  0  0  0  0  0  0  0  0
    3.7802   35.7416   17.1500 H   0  0  0  0  0  0  0  0  0  0  0  0
    6.3089   34.5554   16.8800 H   0  0  0  0  0  0  0  0  0  0  0  0
    3.8980   33.7402   18.1610 H   0  0  0  0  0  0  0  0  0  0  0  0
    6.4045   32.3851   18.1450 H   0  0  0  0  0  0  0  0  0  0  0  0
    5.3389   32.1910   20.1510 H   0  0  0  0  0  0  0  0  0  0  0  0
    3.2063   31.2701   18.5338 H   0  0  0  0  0  0  0  0  0  0  0  0
    3.4444   30.1108   20.5517 H   0  0  0  0  0  0  0  0  0  0  0  0
    3.2603   32.6754   21.7811 H   0  0  0  0  0  0  0  0  0  0  0  0
    3.4739   30.0637   22.8626 H   0  0  0  0  0  0  0  0  0  0  0  0
    4.6473   31.6628   24.0293 H   0  0  0  0  0  0  0  0  0  0  0  0
    2.1716   33.0313   24.1518 H   0  0  0  0  0  0  0  0  0  0  0  0
    4.7008   33.6418   25.2595 H   0  0  0  0  0  0  0  0  0  0  0  0
    3.5236   35.4858   24.5205 H   0  0  0  0  0  0  0  0  0  0  0  0
    1.5080   34.3921   26.1577 H   0  0  0  0  0  0  0  0  0  0  0  0
    1.7088   36.6899   26.2852 H   0  0  0  0  0  0  0  0  0  0  0  0
    1.4413   36.5775   23.4094 H   0  0  0  0  0  0  0  0  0  0  0  0
    0.3165   38.4110   24.3442 H   0  0  0  0  0  0  0  0  0  0  0  0
    1.5138   38.5576   26.3624 H   0  0  0  0  0  0  0  0  0  0  0  0
    3.5987   38.0555   25.4848 H   0  0  0  0  0  0  0  0  0  0  0  0
    3.3616   39.2281   23.5173 H   0  0  0  0  0  0  0  0  0  0  0  0
    2.2305   41.0779   24.3648 H   0  0  0  0  0  0  0  0  0  0  0  0
    4.8455   41.7518   25.5448 H   0  0  0  0  0  0  0  0  0  0  0  0
    3.4064   41.2555   26.4544 H   0  0  0  0  0  0  0  0  0  0  0  0
    2.1403   43.1959   25.5156 H   0  0  0  0  0  0  0  0  0  0  0  0
    3.5827   43.6987   24.6277 H   0  0  0  0  0  0  0  0  0  0  0  0
    4.8388   43.9025   26.7826 H   0  0  0  0  0  0  0  0  0  0  0  0
    3.3975   43.3998   27.6707 H   0  0  0  0  0  0  0  0  0  0  0  0
    2.1434   45.3562   26.7426 H   0  0  0  0  0  0  0  0  0  0  0  0
    3.5846   45.8588   25.8538 H   0  0  0  0  0  0  0  0  0  0  0  0
    4.8423   46.0617   28.0087 H   0  0  0  0  0  0  0  0  0  0  0  0
    3.4007   45.5596   28.8970 H   0  0  0  0  0  0  0  0  0  0  0  0
    2.1466   47.5159   27.9681 H   0  0  0  0  0  0  0  0  0  0  0  0
    3.5879   48.0181   27.0795 H   0  0  0  0  0  0  0  0  0  0  0  0
    4.8452   48.2217   29.2339 H   0  0  0  0  0  0  0  0  0  0  0  0
    3.4038   47.7195   30.1225 H   0  0  0  0  0  0  0  0  0  0  0  0
    2.1491   49.6753   29.1927 H   0  0  0  0  0  0  0  0  0  0  0  0
    3.5905   50.1775   28.3041 H   0  0  0  0  0  0  0  0  0  0  0  0
    4.8478   50.3809   30.4585 H   0  0  0  0  0  0  0  0  0  0  0  0
    3.4064   49.8786   31.3471 H   0  0  0  0  0  0  0  0  0  0  0  0
    2.1519   51.8345   30.4160 H   0  0  0  0  0  0  0  0  0  0  0  0
    3.5944   52.3371   29.5295 H   0  0  0  0  0  0  0  0  0  0  0  0
    4.8489   52.5381   31.6865 H   0  0  0  0  0  0  0  0  0  0  0  0
    3.4052   52.0375   32.5722 H   0  0  0  0  0  0  0  0  0  0  0  0
    2.1546   53.9947   31.6399 H   0  0  0  0  0  0  0  0  0  0  0  0
    3.5983   54.4954   30.7542 H   0  0  0  0  0  0  0  0  0  0  0  0
    4.8515   54.6986   32.9104 H   0  0  0  0  0  0  0  0  0  0  0  0
    3.4090   54.1960   33.7969 H   0  0  0  0  0  0  0  0  0  0  0  0
    2.1555   56.1521   32.8678 H   0  0  0  0  0  0  0  0  0  0  0  0
    3.5969   56.6544   31.9792 H   0  0  0  0  0  0  0  0  0  0  0  0
    4.8542   56.8565   34.1344 H   0  0  0  0  0  0  0  0  0  0  0  0
    3.4117   56.3562   35.0222 H   0  0  0  0  0  0  0  0  0  0  0  0
    2.1599   58.3131   34.0892 H   0  0  0  0  0  0  0  0  0  0  0  0
    3.6036   58.8136   33.2035 H   0  0  0  0  0  0  0  0  0  0  0  0
    4.8569   59.0167   35.3597 H   0  0  0  0  0  0  0  0  0  0  0  0
    3.4143   58.5141   36.2462 H   0  0  0  0  0  0  0  0  0  0  0  0
    2.1608   60.4703   35.3170 H   0  0  0  0  0  0  0  0  0  0  0  0
    3.6022   60.9725   34.4284 H   0  0  0  0  0  0  0  0  0  0  0  0
    4.8595   61.1746   36.5836 H   0  0  0  0  0  0  0  0  0  0  0  0
    3.4170   60.6743   37.4714 H   0  0  0  0  0  0  0  0  0  0  0  0
    2.1652   62.6312   36.5384 H   0  0  0  0  0  0  0  0  0  0  0  0
    3.6089   63.1317   35.6527 H   0  0  0  0  0  0  0  0  0  0  0  0
    4.8622   63.3336   37.8096 H   0  0  0  0  0  0  0  0  0  0  0  0
    3.4184   62.8330   38.6953 H   0  0  0  0  0  0  0  0  0  0  0  0
    2.1678   64.7902   37.7645 H   0  0  0  0  0  0  0  0  0  0  0  0
    3.6104   65.2904   36.8766 H   0  0  0  0  0  0  0  0  0  0  0  0
    4.8664   65.4921   39.0326 H   0  0  0  0  0  0  0  0  0  0  0  0
    3.4227   64.9940   39.9197 H   0  0  0  0  0  0  0  0  0  0  0  0
    2.1738   66.9519   38.9850 H   0  0  0  0  0  0  0  0  0  0  0  0
    3.6187   67.4504   38.1000 H   0  0  0  0  0  0  0  0  0  0  0  0
    4.8707   67.6521   40.2577 H   0  0  0  0  0  0  0  0  0  0  0  0
    3.4258   67.1536   41.1427 H   0  0  0  0  0  0  0  0  0  0  0  0
    2.1782   69.1120   40.2103 H   0  0  0  0  0  0  0  0  0  0  0  0
    3.6219   69.6101   39.3233 H   0  0  0  0  0  0  0  0  0  0  0  0
    4.8767   69.8141   41.4786 H   0  0  0  0  0  0  0  0  0  0  0  0
    3.4342   69.3140   42.3664 H   0  0  0  0  0  0  0  0  0  0  0  0
    2.1824   71.2710   41.4365 H   0  0  0  0  0  0  0  0  0  0  0  0
    3.6238   71.7707   40.5466 H   0  0  0  0  0  0  0  0  0  0  0  0
    4.8821   71.9765   42.7004 H   0  0  0  0  0  0  0  0  0  0  0  0
    3.4411   71.4769   43.5902 H   0  0  0  0  0  0  0  0  0  0  0  0
    2.1879   73.4349   42.6604 H   0  0  0  0  0  0  0  0  0  0  0  0
    3.6293   73.9346   41.7704 H   0  0  0  0  0  0  0  0  0  0  0  0
    4.8867   74.1412   43.9253 H   0  0  0  0  0  0  0  0  0  0  0  0
    3.4450   73.6438   44.8141 H   0  0  0  0  0  0  0  0  0  0  0  0
    2.1992   75.6169   43.8982 H   0  0  0  0  0  0  0  0  0  0  0  0
    3.6415   76.1145   43.0090 H   0  0  0  0  0  0  0  0  0  0  0  0
    3.4471   75.8380   46.0543 H   0  0  0  0  0  0  0  0  0  0  0  0
    3.4465   77.3614   45.1440 H   0  0  0  0  0  0  0  0  0  0  0  0
    4.8961   76.3379   45.1611 H   0  0  0  0  0  0  0  0  0  0  0  0
  1  2  1  0  0  0  0
  1 78  1  0  0  0  0
  1 79  1  0  0  0  0
  1 80  1  0  0  0  0
  2  3  1  0  0  0  0
  2  4  1  0  0  0  0
  2 81  1  0  0  0  0
  3  4  2  0  0  0  0
  3 82  1  0  0  0  0
  4  5  1  0  0  0  0
  5  6  1  0  0  0  0
  6  7  1  0  0  0  0
  7  8  1  0  0  0  0
  8  9  2  3  0  0  0
  9 10  1  0  0  0  0
 10 11  2  3  0  0  0
 11 12  1  0  0  0  0
 12 13  1  0  0  0  0
 12 83  1  0  0  0  0
 13 14  1  0  0  0  0
 13 84  1  0  0  0  0
 14 15  1  0  0  0  0
 14 85  1  0  0  0  0
 15 16  1  0  0  0  0
 15 86  1  0  0  0  0
 16 17  1  0  0  0  0
 16 87  1  0  0  0  0
 17 18  1  0  0  0  0
 17 88  1  0  0  0  0
 18 19  1  0  0  0  0
 18 89  1  0  0  0  0
 19 20  1  0  0  0  0
 19 90  1  0  0  0  0
 20 21  1  0  0  0  0
 20 91  1  0  0  0  0
 21 22  1  0  0  0  0
 21 92  1  0  0  0  0
 22 23  1  0  0  0  0
 22 93  1  0  0  0  0
 23 24  1  0  0  0  0
 23 94  1  0  0  0  0
 24 25  1  0  0  0  0
 24 95  1  0  0  0  0
 25 26  1  0  0  0  0
 25 96  1  0  0  0  0
 26 27  1  0  0  0  0
 26 97  1  0  0  0  0
 27 28  1  0  0  0  0
 27 98  1  0  0  0  0
 28 29  1  0  0  0  0
 28 99  1  0  0  0  0
 29 30  1  0  0  0  0
 29100  1  0  0  0  0
 30 31  1  0  0  0  0
 30101  1  0  0  0  0
 31 32  1  0  0  0  0
 31102  1  0  0  0  0
 32 33  1  0  0  0  0
 32103  1  0  0  0  0
 33 34  1  0  0  0  0
 33104  1  0  0  0  0
 34 35  1  0  0  0  0
 34105  1  0  0  0  0
 35 36  1  0  0  0  0
 35106  1  0  0  0  0
 36 37  1  0  0  0  0
 36107  1  0  0  0  0
 37 38  1  0  0  0  0
 37108  1  0  0  0  0
 38 39  1  0  0  0  0
 38109  1  0  0  0  0
 39 40  1  0  0  0  0
 39110  1  0  0  0  0
 40 41  1  0  0  0  0
 40111  1  0  0  0  0
 41 42  1  0  0  0  0
 41112  1  0  0  0  0
 42 43  1  0  0  0  0
 42113  1  0  0  0  0
 43 44  1  0  0  0  0
 43114  1  0  0  0  0
 44 45  1  0  0  0  0
 44115  1  0  0  0  0
 45 46  1  0  0  0  0
 45116  1  0  0  0  0
 45117  1  0  0  0  0
 46 47  1  0  0  0  0
 46118  1  0  0  0  0
 46119  1  0  0  0  0
 47 48  1  0  0  0  0
 47120  1  0  0  0  0
 47121  1  0  0  0  0
 48 49  1  0  0  0  0
 48122  1  0  0  0  0
 48123  1  0  0  0  0
 49 50  1  0  0  0  0
 49124  1  0  0  0  0
 49125  1  0  0  0  0
 50 51  1  0  0  0  0
 50126  1  0  0  0  0
 50127  1  0  0  0  0
 51 52  1  0  0  0  0
 51128  1  0  0  0  0
 51129  1  0  0  0  0
 52 53  1  0  0  0  0
 52130  1  0  0  0  0
 52131  1  0  0  0  0
 53 54  1  0  0  0  0
 53132  1  0  0  0  0
 53133  1  0  0  0  0
 54 55  1  0  0  0  0
 54134  1  0  0  0  0
 54135  1  0  0  0  0
 55 56  1  0  0  0  0
 55136  1  0  0  0  0
 55137  1  0  0  0  0
 56 57  1  0  0  0  0
 56138  1  0  0  0  0
 56139  1  0  0  0  0
 57 58  1  0  0  0  0
 57140  1  0  0  0  0
 57141  1  0  0  0  0
 58 59  1  0  0  0  0
 58142  1  0  0  0  0
 58143  1  0  0  0  0
 59 60  1  0  0  0  0
 59144  1  0  0  0  0
 59145  1  0  0  0  0
 60 61  1  0  0  0  0
 60146  1  0  0  0  0
 60147  1  0  0  0  0
 61 62  1  0  0  0  0
 61148  1  0  0  0  0
 61149  1  0  0  0  0
 62 63  1  0  0  0  0
 62150  1  0  0  0  0
 62151  1  0  0  0  0
 63 64  1  0  0  0  0
 63152  1  0  0  0  0
 63153  1  0  0  0  0
 64 65  1  0  0  0  0
 64154  1  0  0  0  0
 64155  1  0  0  0  0
 65 66  1  0  0  0  0
 65156  1  0  0  0  0
 65157  1  0  0  0  0
 66 67  1  0  0  0  0
 66158  1  0  0  0  0
 66159  1  0  0  0  0
 67 68  1  0  0  0  0
 67160  1  0  0  0  0
 67161  1  0  0  0  0
 68 69  1  0  0  0  0
 68162  1  0  0  0  0
 68163  1  0  0  0  0
 69 70  1  0  0  0  0
 69164  1  0  0  0  0
 69165  1  0  0  0  0
 70 71  1  0  0  0  0
 70166  1  0  0  0  0
 70167  1  0  0  0  0
 71 72  1  0  0  0  0
 71168  1  0  0  0  0
 71169  1  0  0  0  0
 72 73  1  0  0  0  0
 72170  1  0  0  0  0
 72171  1  0  0  0  0
 73 74  1  0  0  0  0
 73172  1  0  0  0  0
 73173  1  0  0  0  0
 74 75  1  0  0  0  0
 74174  1  0  0  0  0
 74175  1  0  0  0  0
 75 76  1  0  0  0  0
 75176  1  0  0  0  0
 75177  1  0  0  0  0
 76 77  1  0  0  0  0
 76178  1  0  0  0  0
 76179  1  0  0  0  0
 77180  1  0  0  0  0
 77181  1  0  0  0  0
 77182  1  0  0  0  0
M  END
$$$$
