
 OpenBabel04232216473D

233233  0  0  1  0  0  0  0  0999 V2000
    1.5517    7.4053  -40.9536 C   0  0  0  0  0  0  0  0  0  0  0  0
    1.5040    6.2949  -39.9501 C   0  0  3  0  0  0  0  0  0  0  0  0
    0.3570    5.6985  -39.5759 C   0  0  0  0  0  0  0  0  0  0  0  0
    0.6118    6.5436  -38.6006 C   0  0  0  0  0  0  0  0  0  0  0  0
    1.3794    7.5052  -38.0047 O   0  0  0  0  0  0  0  0  0  0  0  0
    0.8781    8.0354  -36.7657 C   0  0  0  0  0  0  0  0  0  0  0  0
    1.3547    9.4986  -36.5597 C   0  0  0  0  0  0  0  0  0  0  0  0
    2.8886    9.6534  -36.5221 C   0  0  0  0  0  0  0  0  0  0  0  0
    3.3780   11.1030  -36.3195 C   0  0  0  0  0  0  0  0  0  0  0  0
    2.8914   11.7104  -35.0026 C   0  0  0  0  0  0  0  0  0  0  0  0
    3.3889   13.1416  -34.8185 C   0  0  0  0  0  0  0  0  0  0  0  0
    2.8858   13.7309  -33.5037 C   0  0  0  0  0  0  0  0  0  0  0  0
    3.3886   15.1583  -33.3305 C   0  0  0  0  0  0  0  0  0  0  0  0
    2.8859   15.7426  -32.0194 C   0  0  0  0  0  0  0  0  0  0  0  0
    3.3904   17.1660  -31.8520 C   0  0  0  0  0  0  0  0  0  0  0  0
    2.8867   17.7459  -30.5423 C   0  0  0  0  0  0  0  0  0  0  0  0
    3.3930   19.1669  -30.3756 C   0  0  0  0  0  0  0  0  0  0  0  0
    2.8888   19.7448  -29.0666 C   0  0  0  0  0  0  0  0  0  0  0  0
    3.3952   21.1650  -28.9008 C   0  0  0  0  0  0  0  0  0  0  0  0
    2.8909   21.7423  -27.5919 C   0  0  0  0  0  0  0  0  0  0  0  0
    3.3974   23.1623  -27.4263 C   0  0  0  0  0  0  0  0  0  0  0  0
    2.8930   23.7393  -26.1175 C   0  0  0  0  0  0  0  0  0  0  0  0
    3.3996   25.1592  -25.9521 C   0  0  0  0  0  0  0  0  0  0  0  0
    2.8952   25.7362  -24.6433 C   0  0  0  0  0  0  0  0  0  0  0  0
    3.4017   27.1562  -24.4779 C   0  0  0  0  0  0  0  0  0  0  0  0
    2.8974   27.7332  -23.1691 C   0  0  0  0  0  0  0  0  0  0  0  0
    3.4023   29.1539  -23.0045 C   0  0  0  0  0  0  0  0  0  0  0  0
    2.8979   29.7310  -21.6958 C   0  0  0  0  0  0  0  0  0  0  0  0
    3.4011   31.1523  -21.5321 C   0  0  0  0  0  0  0  0  0  0  0  0
    2.8951   31.7300  -20.2243 C   0  0  0  0  0  0  0  0  0  0  0  0
    3.3984   33.1514  -20.0607 C   0  0  0  0  0  0  0  0  0  0  0  0
    2.8939   33.7285  -18.7520 C   0  0  0  0  0  0  0  0  0  0  0  0
    3.3955   35.1497  -18.5893 C   0  0  0  0  0  0  0  0  0  0  0  0
    2.8907   35.7228  -17.2796 C   0  0  0  0  0  0  0  0  0  0  0  0
    3.3938   37.1371  -17.1137 C   0  0  0  0  0  0  0  0  0  0  0  0
    2.8891   37.7251  -15.8038 C   0  0  0  0  0  0  0  0  0  0  0  0
    3.3894   39.1485  -15.6410 C   0  0  0  0  0  0  0  0  0  0  0  0
    2.8874   40.0165  -16.7860 C   0  0  0  0  0  0  0  0  0  0  0  0
    3.3905   41.4317  -16.6282 C   0  0  0  0  0  0  0  0  0  0  0  0
    2.8869   42.2855  -17.7754 C   0  0  0  0  0  0  0  0  0  0  0  0
    3.3901   43.7062  -17.6138 C   0  0  0  0  0  0  0  0  0  0  0  0
    2.8868   44.5636  -18.7592 C   0  0  0  0  0  0  0  0  0  0  0  0
    3.3901   45.9852  -18.5975 C   0  0  0  0  0  0  0  0  0  0  0  0
    2.8868   46.8426  -19.7428 C   0  0  0  0  0  0  0  0  0  0  0  0
    3.3885   48.2645  -19.5801 C   0  0  0  0  0  0  0  0  0  0  0  0
    2.8868   49.1215  -20.7265 C   0  0  0  0  0  0  0  0  0  0  0  0
    3.3901   50.5430  -20.5648 C   0  0  0  0  0  0  0  0  0  0  0  0
    2.8868   51.4004  -21.7102 C   0  0  0  0  0  0  0  0  0  0  0  0
    3.3885   52.8224  -21.5474 C   0  0  0  0  0  0  0  0  0  0  0  0
    2.8868   53.6793  -22.6938 C   0  0  0  0  0  0  0  0  0  0  0  0
    3.3885   55.1013  -22.5311 C   0  0  0  0  0  0  0  0  0  0  0  0
    2.8868   55.9582  -23.6775 C   0  0  0  0  0  0  0  0  0  0  0  0
    3.3901   57.3797  -23.5158 C   0  0  0  0  0  0  0  0  0  0  0  0
    2.8885   58.2367  -24.6622 C   0  0  0  0  0  0  0  0  0  0  0  0
    3.3918   59.6582  -24.5006 C   0  0  0  0  0  0  0  0  0  0  0  0
    2.8918   60.5146  -25.6480 C   0  0  0  0  0  0  0  0  0  0  0  0
    3.3951   61.9362  -25.4863 C   0  0  0  0  0  0  0  0  0  0  0  0
    2.8935   62.7931  -26.6328 C   0  0  0  0  0  0  0  0  0  0  0  0
    3.3951   64.2151  -26.4700 C   0  0  0  0  0  0  0  0  0  0  0  0
    2.8919   65.0725  -27.6154 C   0  0  0  0  0  0  0  0  0  0  0  0
    3.3951   66.4941  -27.4537 C   0  0  0  0  0  0  0  0  0  0  0  0
    2.8903   67.3520  -28.5980 C   0  0  0  0  0  0  0  0  0  0  0  0
    3.3919   68.7740  -28.4352 C   0  0  0  0  0  0  0  0  0  0  0  0
    2.8886   69.6314  -29.5806 C   0  0  0  0  0  0  0  0  0  0  0  0
    3.3919   71.0529  -29.4188 C   0  0  0  0  0  0  0  0  0  0  0  0
    2.8902   71.9095  -30.5653 C   0  0  0  0  0  0  0  0  0  0  0  0
    3.3935   73.3310  -30.4036 C   0  0  0  0  0  0  0  0  0  0  0  0
    2.8936   74.1875  -31.5509 C   0  0  0  0  0  0  0  0  0  0  0  0
    3.3956   75.6093  -31.3875 C   0  0  0  0  0  0  0  0  0  0  0  0
    2.8942   76.4667  -32.5339 C   0  0  0  0  0  0  0  0  0  0  0  0
    3.3972   77.8889  -32.3728 C   0  0  0  0  0  0  0  0  0  0  0  0
    2.8977   78.7466  -33.5201 C   0  0  0  0  0  0  0  0  0  0  0  0
    3.3999   80.1696  -33.3608 C   0  0  0  0  0  0  0  0  0  0  0  0
    2.8963   81.0248  -34.5096 C   0  0  0  0  0  0  0  0  0  0  0  0
    3.3973   82.4487  -34.3562 C   0  0  0  0  0  0  0  0  0  0  0  0
    2.8948   83.3074  -35.5048 C   0  0  0  0  0  0  0  0  0  0  0  0
    3.4019   84.7306  -35.3418 C   0  0  0  0  0  0  0  0  0  0  0  0
    2.9122   85.6148  -36.4779 C   0  0  0  0  0  0  0  0  0  0  0  0
    3.4275   87.0296  -36.2979 C   0  0  0  0  0  0  0  0  0  0  0  0
    1.9240    7.0278  -41.9118 H   0  0  0  0  0  0  0  0  0  0  0  0
    2.2246    8.1877  -40.6065 H   0  0  0  0  0  0  0  0  0  0  0  0
    0.5646    7.8435  -41.1220 H   0  0  0  0  0  0  0  0  0  0  0  0
    2.4623    5.8357  -39.7289 H   0  0  0  0  0  0  0  0  0  0  0  0
   -0.3205    4.9606  -39.9552 H   0  0  0  0  0  0  0  0  0  0  0  0
    1.2443    7.4211  -35.9295 H   0  0  0  0  0  0  0  0  0  0  0  0
   -0.2199    8.0171  -36.7515 H   0  0  0  0  0  0  0  0  0  0  0  0
    0.9276    9.8885  -35.6257 H   0  0  0  0  0  0  0  0  0  0  0  0
    0.9520   10.1279  -37.3624 H   0  0  0  0  0  0  0  0  0  0  0  0
    3.3120    9.2719  -37.4592 H   0  0  0  0  0  0  0  0  0  0  0  0
    3.2970    9.0359  -35.7125 H   0  0  0  0  0  0  0  0  0  0  0  0
    3.0458   11.7272  -37.1585 H   0  0  0  0  0  0  0  0  0  0  0  0
    4.4788   11.1203  -36.3373 H   0  0  0  0  0  0  0  0  0  0  0  0
    3.2327   11.0944  -34.1628 H   0  0  0  0  0  0  0  0  0  0  0  0
    1.7980   11.7124  -34.9787 H   0  0  0  0  0  0  0  0  0  0  0  0
    3.0452   13.7667  -35.6514 H   0  0  0  0  0  0  0  0  0  0  0  0
    4.4848   13.1599  -34.8290 H   0  0  0  0  0  0  0  0  0  0  0  0
    3.2285   13.1170  -32.6617 H   0  0  0  0  0  0  0  0  0  0  0  0
    1.7890   13.7239  -33.4840 H   0  0  0  0  0  0  0  0  0  0  0  0
    3.0457   15.7802  -34.1666 H   0  0  0  0  0  0  0  0  0  0  0  0
    4.4854   15.1733  -33.3442 H   0  0  0  0  0  0  0  0  0  0  0  0
    3.2290   15.1266  -31.1791 H   0  0  0  0  0  0  0  0  0  0  0  0
    1.7891   15.7336  -32.0016 H   0  0  0  0  0  0  0  0  0  0  0  0
    3.0473   17.7859  -32.6896 H   0  0  0  0  0  0  0  0  0  0  0  0
    4.4872   17.1788  -31.8670 H   0  0  0  0  0  0  0  0  0  0  0  0
    3.2286   17.1276  -29.7032 H   0  0  0  0  0  0  0  0  0  0  0  0
    1.7898   17.7368  -30.5263 H   0  0  0  0  0  0  0  0  0  0  0  0
    3.0511   19.7867  -31.2138 H   0  0  0  0  0  0  0  0  0  0  0  0
    4.4899   19.1775  -30.3907 H   0  0  0  0  0  0  0  0  0  0  0  0
    3.2307   19.1258  -28.2280 H   0  0  0  0  0  0  0  0  0  0  0  0
    1.7919   19.7350  -29.0511 H   0  0  0  0  0  0  0  0  0  0  0  0
    3.0533   21.7846  -29.7390 H   0  0  0  0  0  0  0  0  0  0  0  0
    4.4921   21.1754  -28.9159 H   0  0  0  0  0  0  0  0  0  0  0  0
    3.2329   21.1231  -26.7534 H   0  0  0  0  0  0  0  0  0  0  0  0
    1.7940   21.7323  -27.5765 H   0  0  0  0  0  0  0  0  0  0  0  0
    3.0554   23.7817  -28.2646 H   0  0  0  0  0  0  0  0  0  0  0  0
    4.4943   23.1725  -27.4415 H   0  0  0  0  0  0  0  0  0  0  0  0
    3.2350   23.1200  -25.2791 H   0  0  0  0  0  0  0  0  0  0  0  0
    1.7961   23.7293  -26.1022 H   0  0  0  0  0  0  0  0  0  0  0  0
    3.0576   25.7785  -26.7905 H   0  0  0  0  0  0  0  0  0  0  0  0
    4.4964   25.1693  -25.9673 H   0  0  0  0  0  0  0  0  0  0  0  0
    3.2371   25.1169  -23.8049 H   0  0  0  0  0  0  0  0  0  0  0  0
    1.7983   25.7261  -24.6281 H   0  0  0  0  0  0  0  0  0  0  0  0
    3.0598   27.7754  -25.3164 H   0  0  0  0  0  0  0  0  0  0  0  0
    4.4986   27.1662  -24.4932 H   0  0  0  0  0  0  0  0  0  0  0  0
    3.2405   27.1147  -22.3306 H   0  0  0  0  0  0  0  0  0  0  0  0
    1.8005   27.7218  -23.1533 H   0  0  0  0  0  0  0  0  0  0  0  0
    3.0590   29.7724  -23.8430 H   0  0  0  0  0  0  0  0  0  0  0  0
    4.4991   29.1653  -23.0204 H   0  0  0  0  0  0  0  0  0  0  0  0
    3.2423   29.1133  -20.8572 H   0  0  0  0  0  0  0  0  0  0  0  0
    1.8011   29.7183  -21.6794 H   0  0  0  0  0  0  0  0  0  0  0  0
    3.0579   31.7697  -22.3715 H   0  0  0  0  0  0  0  0  0  0  0  0
    4.4980   31.1649  -21.5471 H   0  0  0  0  0  0  0  0  0  0  0  0
    3.2383   31.1127  -19.3850 H   0  0  0  0  0  0  0  0  0  0  0  0
    1.7983   31.7175  -20.2093 H   0  0  0  0  0  0  0  0  0  0  0  0
    3.0539   33.7690  -20.8993 H   0  0  0  0  0  0  0  0  0  0  0  0
    4.4952   33.1642  -20.0771 H   0  0  0  0  0  0  0  0  0  0  0  0
    3.2396   33.1115  -17.9133 H   0  0  0  0  0  0  0  0  0  0  0  0
    1.7972   33.7144  -18.7349 H   0  0  0  0  0  0  0  0  0  0  0  0
    3.0499   35.7673  -19.4280 H   0  0  0  0  0  0  0  0  0  0  0  0
    4.4924   35.1644  -18.6064 H   0  0  0  0  0  0  0  0  0  0  0  0
    3.2363   35.1093  -16.4421 H   0  0  0  0  0  0  0  0  0  0  0  0
    1.7945   35.7126  -17.2635 H   0  0  0  0  0  0  0  0  0  0  0  0
    3.0446   37.7314  -17.9639 H   0  0  0  0  0  0  0  0  0  0  0  0
    4.4901   37.1619  -17.1349 H   0  0  0  0  0  0  0  0  0  0  0  0
    3.2355   37.1121  -14.9655 H   0  0  0  0  0  0  0  0  0  0  0  0
    1.7923   37.7122  -15.7885 H   0  0  0  0  0  0  0  0  0  0  0  0
    4.4861   39.1573  -15.6208 H   0  0  0  0  0  0  0  0  0  0  0  0
    3.0410   39.5572  -14.6870 H   0  0  0  0  0  0  0  0  0  0  0  0
    1.7912   39.9973  -16.8146 H   0  0  0  0  0  0  0  0  0  0  0  0
    3.2386   39.6286  -17.7474 H   0  0  0  0  0  0  0  0  0  0  0  0
    4.4868   41.4369  -16.6088 H   0  0  0  0  0  0  0  0  0  0  0  0
    3.0441   41.8405  -15.6742 H   0  0  0  0  0  0  0  0  0  0  0  0
    1.7900   42.2762  -17.7954 H   0  0  0  0  0  0  0  0  0  0  0  0
    3.2320   41.8721  -18.7315 H   0  0  0  0  0  0  0  0  0  0  0  0
    4.4869   43.7148  -17.5940 H   0  0  0  0  0  0  0  0  0  0  0  0
    3.0448   44.1189  -16.6578 H   0  0  0  0  0  0  0  0  0  0  0  0
    1.7900   44.5551  -18.7790 H   0  0  0  0  0  0  0  0  0  0  0  0
    3.2320   44.1510  -19.7152 H   0  0  0  0  0  0  0  0  0  0  0  0
    4.4869   45.9938  -18.5777 H   0  0  0  0  0  0  0  0  0  0  0  0
    3.0448   46.3978  -17.6415 H   0  0  0  0  0  0  0  0  0  0  0  0
    1.7900   46.8329  -19.7636 H   0  0  0  0  0  0  0  0  0  0  0  0
    3.2332   46.4307  -20.6987 H   0  0  0  0  0  0  0  0  0  0  0  0
    4.4852   48.2741  -19.5579 H   0  0  0  0  0  0  0  0  0  0  0  0
    3.0408   48.6769  -18.6248 H   0  0  0  0  0  0  0  0  0  0  0  0
    1.7900   49.1130  -20.7478 H   0  0  0  0  0  0  0  0  0  0  0  0
    3.2332   48.7084  -21.6819 H   0  0  0  0  0  0  0  0  0  0  0  0
    4.4869   50.5516  -20.5450 H   0  0  0  0  0  0  0  0  0  0  0  0
    3.0448   50.9557  -19.6088 H   0  0  0  0  0  0  0  0  0  0  0  0
    1.7901   51.3907  -21.7309 H   0  0  0  0  0  0  0  0  0  0  0  0
    3.2333   50.9885  -22.6661 H   0  0  0  0  0  0  0  0  0  0  0  0
    4.4852   52.8319  -21.5253 H   0  0  0  0  0  0  0  0  0  0  0  0
    3.0408   53.2347  -20.5922 H   0  0  0  0  0  0  0  0  0  0  0  0
    1.7901   53.6697  -22.7160 H   0  0  0  0  0  0  0  0  0  0  0  0
    3.2345   53.2670  -23.6491 H   0  0  0  0  0  0  0  0  0  0  0  0
    4.4852   55.1108  -22.5089 H   0  0  0  0  0  0  0  0  0  0  0  0
    3.0408   55.5136  -21.5758 H   0  0  0  0  0  0  0  0  0  0  0  0
    1.7901   55.9498  -23.6988 H   0  0  0  0  0  0  0  0  0  0  0  0
    3.2333   55.5451  -24.6329 H   0  0  0  0  0  0  0  0  0  0  0  0
    4.4869   57.3881  -23.4945 H   0  0  0  0  0  0  0  0  0  0  0  0
    3.0437   57.7929  -22.5605 H   0  0  0  0  0  0  0  0  0  0  0  0
    1.7917   58.2283  -24.6835 H   0  0  0  0  0  0  0  0  0  0  0  0
    3.2350   57.8235  -25.6176 H   0  0  0  0  0  0  0  0  0  0  0  0
    4.4885   59.6665  -24.4778 H   0  0  0  0  0  0  0  0  0  0  0  0
    3.0441   60.0718  -23.5458 H   0  0  0  0  0  0  0  0  0  0  0  0
    1.7951   60.5063  -25.6708 H   0  0  0  0  0  0  0  0  0  0  0  0
    3.2395   60.1010  -26.6027 H   0  0  0  0  0  0  0  0  0  0  0  0
    4.4919   61.9446  -25.4650 H   0  0  0  0  0  0  0  0  0  0  0  0
    3.0486   62.3493  -24.5310 H   0  0  0  0  0  0  0  0  0  0  0  0
    1.7968   62.7835  -26.6549 H   0  0  0  0  0  0  0  0  0  0  0  0
    3.2412   62.3807  -27.5880 H   0  0  0  0  0  0  0  0  0  0  0  0
    4.4919   64.2248  -26.4492 H   0  0  0  0  0  0  0  0  0  0  0  0
    3.0486   64.6270  -25.5141 H   0  0  0  0  0  0  0  0  0  0  0  0
    1.7951   65.0639  -27.6352 H   0  0  0  0  0  0  0  0  0  0  0  0
    3.2371   64.6599  -28.5714 H   0  0  0  0  0  0  0  0  0  0  0  0
    4.4919   66.5028  -27.4353 H   0  0  0  0  0  0  0  0  0  0  0  0
    3.0511   66.9062  -26.4971 H   0  0  0  0  0  0  0  0  0  0  0  0
    1.7935   67.3422  -28.6174 H   0  0  0  0  0  0  0  0  0  0  0  0
    3.2355   66.9407  -29.5546 H   0  0  0  0  0  0  0  0  0  0  0  0
    4.4887   68.7838  -28.4145 H   0  0  0  0  0  0  0  0  0  0  0  0
    3.0455   69.1859  -27.4793 H   0  0  0  0  0  0  0  0  0  0  0  0
    1.7918   69.6229  -29.6005 H   0  0  0  0  0  0  0  0  0  0  0  0
    3.2339   69.2188  -30.5366 H   0  0  0  0  0  0  0  0  0  0  0  0
    4.4887   71.0614  -29.3975 H   0  0  0  0  0  0  0  0  0  0  0  0
    3.0455   71.4661  -28.4635 H   0  0  0  0  0  0  0  0  0  0  0  0
    1.7934   71.9011  -30.5867 H   0  0  0  0  0  0  0  0  0  0  0  0
    3.2367   71.4964  -31.5207 H   0  0  0  0  0  0  0  0  0  0  0  0
    4.4902   73.3393  -30.3808 H   0  0  0  0  0  0  0  0  0  0  0  0
    3.0459   73.7445  -29.4489 H   0  0  0  0  0  0  0  0  0  0  0  0
    1.7969   74.1783  -31.5746 H   0  0  0  0  0  0  0  0  0  0  0  0
    3.2423   73.7748  -32.5056 H   0  0  0  0  0  0  0  0  0  0  0  0
    4.4924   75.6183  -31.3648 H   0  0  0  0  0  0  0  0  0  0  0  0
    3.0479   76.0211  -30.4320 H   0  0  0  0  0  0  0  0  0  0  0  0
    1.7974   76.4577  -32.5550 H   0  0  0  0  0  0  0  0  0  0  0  0
    3.2407   76.0530  -33.4890 H   0  0  0  0  0  0  0  0  0  0  0  0
    4.4939   77.8965  -32.3499 H   0  0  0  0  0  0  0  0  0  0  0  0
    3.0494   78.3019  -31.4180 H   0  0  0  0  0  0  0  0  0  0  0  0
    1.8010   78.7381  -33.5429 H   0  0  0  0  0  0  0  0  0  0  0  0
    3.2452   78.3328  -34.4748 H   0  0  0  0  0  0  0  0  0  0  0  0
    4.4967   80.1789  -33.3396 H   0  0  0  0  0  0  0  0  0  0  0  0
    3.0537   80.5837  -32.4057 H   0  0  0  0  0  0  0  0  0  0  0  0
    1.7995   81.0151  -34.5287 H   0  0  0  0  0  0  0  0  0  0  0  0
    3.2418   80.6084  -35.4638 H   0  0  0  0  0  0  0  0  0  0  0  0
    4.4944   82.4569  -34.3351 H   0  0  0  0  0  0  0  0  0  0  0  0
    3.0529   82.8635  -33.4005 H   0  0  0  0  0  0  0  0  0  0  0  0
    1.7977   83.2983  -35.5246 H   0  0  0  0  0  0  0  0  0  0  0  0
    3.2400   82.8915  -36.4598 H   0  0  0  0  0  0  0  0  0  0  0  0
    4.4982   84.7283  -35.3181 H   0  0  0  0  0  0  0  0  0  0  0  0
    3.0584   85.1341  -34.3817 H   0  0  0  0  0  0  0  0  0  0  0  0
    1.8165   85.6217  -36.5019 H   0  0  0  0  0  0  0  0  0  0  0  0
    3.2573   85.2161  -37.4387 H   0  0  0  0  0  0  0  0  0  0  0  0
    3.0736   87.4537  -35.3513 H   0  0  0  0  0  0  0  0  0  0  0  0
    3.0778   87.6693  -37.1126 H   0  0  0  0  0  0  0  0  0  0  0  0
    4.5235   87.0457  -36.2938 H   0  0  0  0  0  0  0  0  0  0  0  0
  1  2  1  0  0  0  0
  1 80  1  0  0  0  0
  1 81  1  0  0  0  0
  1 82  1  0  0  0  0
  2  3  1  0  0  0  0
  2  4  1  0  0  0  0
  2 83  1  0  0  0  0
  3  4  2  0  0  0  0
  3 84  1  0  0  0  0
  4  5  1  0  0  0  0
  5  6  1  0  0  0  0
  6  7  1  0  0  0  0
  6 85  1  0  0  0  0
  6 86  1  0  0  0  0
  7  8  1  0  0  0  0
  7 87  1  0  0  0  0
  7 88  1  0  0  0  0
  8  9  1  0  0  0  0
  8 89  1  0  0  0  0
  8 90  1  0  0  0  0
  9 10  1  0  0  0  0
  9 91  1  0  0  0  0
  9 92  1  0  0  0  0
 10 11  1  0  0  0  0
 10 93  1  0  0  0  0
 10 94  1  0  0  0  0
 11 12  1  0  0  0  0
 11 95  1  0  0  0  0
 11 96  1  0  0  0  0
 12 13  1  0  0  0  0
 12 97  1  0  0  0  0
 12 98  1  0  0  0  0
 13 14  1  0  0  0  0
 13 99  1  0  0  0  0
 13100  1  0  0  0  0
 14 15  1  0  0  0  0
 14101  1  0  0  0  0
 14102  1  0  0  0  0
 15 16  1  0  0  0  0
 15103  1  0  0  0  0
 15104  1  0  0  0  0
 16 17  1  0  0  0  0
 16105  1  0  0  0  0
 16106  1  0  0  0  0
 17 18  1  0  0  0  0
 17107  1  0  0  0  0
 17108  1  0  0  0  0
 18 19  1  0  0  0  0
 18109  1  0  0  0  0
 18110  1  0  0  0  0
 19 20  1  0  0  0  0
 19111  1  0  0  0  0
 19112  1  0  0  0  0
 20 21  1  0  0  0  0
 20113  1  0  0  0  0
 20114  1  0  0  0  0
 21 22  1  0  0  0  0
 21115  1  0  0  0  0
 21116  1  0  0  0  0
 22 23  1  0  0  0  0
 22117  1  0  0  0  0
 22118  1  0  0  0  0
 23 24  1  0  0  0  0
 23119  1  0  0  0  0
 23120  1  0  0  0  0
 24 25  1  0  0  0  0
 24121  1  0  0  0  0
 24122  1  0  0  0  0
 25 26  1  0  0  0  0
 25123  1  0  0  0  0
 25124  1  0  0  0  0
 26 27  1  0  0  0  0
 26125  1  0  0  0  0
 26126  1  0  0  0  0
 27 28  1  0  0  0  0
 27127  1  0  0  0  0
 27128  1  0  0  0  0
 28 29  1  0  0  0  0
 28129  1  0  0  0  0
 28130  1  0  0  0  0
 29 30  1  0  0  0  0
 29131  1  0  0  0  0
 29132  1  0  0  0  0
 30 31  1  0  0  0  0
 30133  1  0  0  0  0
 30134  1  0  0  0  0
 31 32  1  0  0  0  0
 31135  1  0  0  0  0
 31136  1  0  0  0  0
 32 33  1  0  0  0  0
 32137  1  0  0  0  0
 32138  1  0  0  0  0
 33 34  1  0  0  0  0
 33139  1  0  0  0  0
 33140  1  0  0  0  0
 34 35  1  0  0  0  0
 34141  1  0  0  0  0
 34142  1  0  0  0  0
 35 36  1  0  0  0  0
 35143  1  0  0  0  0
 35144  1  0  0  0  0
 36 37  1  0  0  0  0
 36145  1  0  0  0  0
 36146  1  0  0  0  0
 37 38  1  0  0  0  0
 37147  1  0  0  0  0
 37148  1  0  0  0  0
 38 39  1  0  0  0  0
 38149  1  0  0  0  0
 38150  1  0  0  0  0
 39 40  1  0  0  0  0
 39151  1  0  0  0  0
 39152  1  0  0  0  0
 40 41  1  0  0  0  0
 40153  1  0  0  0  0
 40154  1  0  0  0  0
 41 42  1  0  0  0  0
 41155  1  0  0  0  0
 41156  1  0  0  0  0
 42 43  1  0  0  0  0
 42157  1  0  0  0  0
 42158  1  0  0  0  0
 43 44  1  0  0  0  0
 43159  1  0  0  0  0
 43160  1  0  0  0  0
 44 45  1  0  0  0  0
 44161  1  0  0  0  0
 44162  1  0  0  0  0
 45 46  1  0  0  0  0
 45163  1  0  0  0  0
 45164  1  0  0  0  0
 46 47  1  0  0  0  0
 46165  1  0  0  0  0
 46166  1  0  0  0  0
 47 48  1  0  0  0  0
 47167  1  0  0  0  0
 47168  1  0  0  0  0
 48 49  1  0  0  0  0
 48169  1  0  0  0  0
 48170  1  0  0  0  0
 49 50  1  0  0  0  0
 49171  1  0  0  0  0
 49172  1  0  0  0  0
 50 51  1  0  0  0  0
 50173  1  0  0  0  0
 50174  1  0  0  0  0
 51 52  1  0  0  0  0
 51175  1  0  0  0  0
 51176  1  0  0  0  0
 52 53  1  0  0  0  0
 52177  1  0  0  0  0
 52178  1  0  0  0  0
 53 54  1  0  0  0  0
 53179  1  0  0  0  0
 53180  1  0  0  0  0
 54 55  1  0  0  0  0
 54181  1  0  0  0  0
 54182  1  0  0  0  0
 55 56  1  0  0  0  0
 55183  1  0  0  0  0
 55184  1  0  0  0  0
 56 57  1  0  0  0  0
 56185  1  0  0  0  0
 56186  1  0  0  0  0
 57 58  1  0  0  0  0
 57187  1  0  0  0  0
 57188  1  0  0  0  0
 58 59  1  0  0  0  0
 58189  1  0  0  0  0
 58190  1  0  0  0  0
 59 60  1  0  0  0  0
 59191  1  0  0  0  0
 59192  1  0  0  0  0
 60 61  1  0  0  0  0
 60193  1  0  0  0  0
 60194  1  0  0  0  0
 61 62  1  0  0  0  0
 61195  1  0  0  0  0
 61196  1  0  0  0  0
 62 63  1  0  0  0  0
 62197  1  0  0  0  0
 62198  1  0  0  0  0
 63 64  1  0  0  0  0
 63199  1  0  0  0  0
 63200  1  0  0  0  0
 64 65  1  0  0  0  0
 64201  1  0  0  0  0
 64202  1  0  0  0  0
 65 66  1  0  0  0  0
 65203  1  0  0  0  0
 65204  1  0  0  0  0
 66 67  1  0  0  0  0
 66205  1  0  0  0  0
 66206  1  0  0  0  0
 67 68  1  0  0  0  0
 67207  1  0  0  0  0
 67208  1  0  0  0  0
 68 69  1  0  0  0  0
 68209  1  0  0  0  0
 68210  1  0  0  0  0
 69 70  1  0  0  0  0
 69211  1  0  0  0  0
 69212  1  0  0  0  0
 70 71  1  0  0  0  0
 70213  1  0  0  0  0
 70214  1  0  0  0  0
 71 72  1  0  0  0  0
 71215  1  0  0  0  0
 71216  1  0  0  0  0
 72 73  1  0  0  0  0
 72217  1  0  0  0  0
 72218  1  0  0  0  0
 73 74  1  0  0  0  0
 73219  1  0  0  0  0
 73220  1  0  0  0  0
 74 75  1  0  0  0  0
 74221  1  0  0  0  0
 74222  1  0  0  0  0
 75 76  1  0  0  0  0
 75223  1  0  0  0  0
 75224  1  0  0  0  0
 76 77  1  0  0  0  0
 76225  1  0  0  0  0
 76226  1  0  0  0  0
 77 78  1  0  0  0  0
 77227  1  0  0  0  0
 77228  1  0  0  0  0
 78 79  1  0  0  0  0
 78229  1  0  0  0  0
 78230  1  0  0  0  0
 79231  1  0  0  0  0
 79232  1  0  0  0  0
 79233  1  0  0  0  0
M  END
$$$$
