
 OpenBabel04232216423D

 37 39  0  0  0  0  0  0  0  0999 V2000
   -1.2549    2.8166   -2.1328 C   0  0  0  0  0  0  0  0  0  0  0  0
   -1.3336    4.1879   -2.1343 C   0  0  0  0  0  0  0  0  0  0  0  0
   -0.2058    5.0421   -1.6077 C   0  0  0  0  0  0  0  0  0  0  0  0
    0.9607    4.5148   -1.1305 C   0  0  0  0  0  0  0  0  0  0  0  0
    2.3377    5.2684   -0.5167 C   0  0  0  0  0  0  0  0  0  0  0  0
    3.0839    6.7613    0.2419 C   0  0  0  0  0  0  0  0  0  0  0  0
    4.3182    8.0294   -0.1717 C   0  0  0  0  0  0  0  0  0  0  0  0
    3.8502    8.6996   -1.1703 N   0  0  0  0  0  0  0  0  0  0  0  0
    3.7285    9.9271   -0.3292 N   0  0  0  0  0  0  0  0  0  0  0  0
    2.6065    9.8637    0.4820 N   0  0  0  0  0  0  0  0  0  0  0  0
    1.6312   10.2363   -0.2519 N   0  0  0  0  0  0  0  0  0  0  0  0
    1.3007   11.4979    0.1560 N   0  0  0  0  0  0  0  0  0  0  0  0
    2.1639   12.2673   -0.2942 N   0  0  0  0  0  0  0  0  0  0  0  0
    2.3858   13.2744    0.6043 N   0  0  0  0  0  0  0  0  0  0  0  0
    3.0943   14.0918    0.0040 N   0  0  0  0  0  0  0  0  0  0  0  0
    3.5232   15.0993    0.8456 N   0  0  0  0  0  0  0  0  0  0  0  0
    4.2026   15.8507    0.1261 N   0  0  0  0  0  0  0  0  0  0  0  0
    5.4856   15.9431    0.6422 N   0  0  0  0  0  0  0  0  0  0  0  0
    6.2052   14.9015    0.4743 N   0  0  0  0  0  0  0  0  0  0  0  0
    5.8479   13.9765   -0.5310 N   0  0  0  0  0  0  0  0  0  0  0  0
    5.6874   12.7149   -0.3692 N   0  0  0  0  0  0  0  0  0  0  0  0
    6.1502   11.9542    0.7367 N   0  0  0  0  0  0  0  0  0  0  0  0
    7.3990   12.5311    1.3446 C   0  0  0  0  0  0  0  0  0  0  0  0
    5.9676   10.2881    0.7161 N   0  0  0  0  0  0  0  0  0  0  0  0
    4.8725    9.6062    0.3022 C   0  0  0  0  0  0  0  0  0  0  0  0
    0.9761    3.1356   -1.1651 N   0  0  0  0  0  0  0  0  0  0  0  0
   -0.1370    2.2728   -1.6570 N   0  0  0  0  0  0  0  0  0  0  0  0
   -2.0162    2.1402   -2.5032 H   0  0  0  0  0  0  0  0  0  0  0  0
   -2.2510    4.6357   -2.4979 H   0  0  0  0  0  0  0  0  0  0  0  0
   -0.4277    6.0972   -1.6632 H   0  0  0  0  0  0  0  0  0  0  0  0
    3.1572    4.7603   -1.0447 H   0  0  0  0  0  0  0  0  0  0  0  0
    2.2439    4.7276    0.4469 H   0  0  0  0  0  0  0  0  0  0  0  0
    3.6417    6.2724    1.0490 H   0  0  0  0  0  0  0  0  0  0  0  0
    2.2272    7.2993    0.6815 H   0  0  0  0  0  0  0  0  0  0  0  0
    7.3286   13.6047    1.6223 H   0  0  0  0  0  0  0  0  0  0  0  0
    8.2609   12.4970    0.6589 H   0  0  0  0  0  0  0  0  0  0  0  0
    7.6610   12.0906    2.3250 H   0  0  0  0  0  0  0  0  0  0  0  0
  1  2  1  0  0  0  0
  1 27  2  0  0  0  0
  1 28  1  0  0  0  0
  2  3  2  0  0  0  0
  2 29  1  0  0  0  0
  3  4  1  0  0  0  0
  3 30  1  0  0  0  0
  4  5  1  0  0  0  0
  4 26  2  0  0  0  0
  5  6  1  0  0  0  0
  5 31  1  0  0  0  0
  5 32  1  0  0  0  0
  6  7  1  0  0  0  0
  6 33  1  0  0  0  0
  6 34  1  0  0  0  0
  7  8  2  0  0  0  0
  7 25  1  0  0  0  0
  8  9  1  0  0  0  0
  9 10  1  0  0  0  0
  9 25  1  0  0  0  0
 10 11  2  3  0  0  0
 11 12  1  0  0  0  0
 12 13  2  3  0  0  0
 13 14  1  0  0  0  0
 14 15  2  3  0  0  0
 15 16  1  0  0  0  0
 16 17  2  3  0  0  0
 17 18  1  0  0  0  0
 18 19  2  3  0  0  0
 19 20  1  0  0  0  0
 20 21  2  3  0  0  0
 21 22  1  0  0  0  0
 22 23  1  0  0  0  0
 22 24  1  0  0  0  0
 23 35  1  0  0  0  0
 23 36  1  0  0  0  0
 23 37  1  0  0  0  0
 24 25  2  3  0  0  0
 26 27  1  0  0  0  0
M  END
$$$$
