
 OpenBabel04232216573D

  8  8  0  0  0  0  0  0  0  0999 V2000
    1.1497    0.2741    0.0829 F   0  0  0  0  0  0  0  0  0  0  0  0
    2.4788    0.1687    0.0817 N   0  0  0  0  0  0  0  0  0  0  0  0
    3.3661    1.2327    0.0783 C   0  0  0  0  0  0  0  0  0  0  0  0
    3.1377    2.4304    0.0771 O   0  0  0  0  0  0  0  0  0  0  0  0
    4.5827    0.5697    0.0763 N   0  0  0  0  0  0  0  0  0  0  0  0
    5.7803    1.1555    0.0719 F   0  0  0  0  0  0  0  0  0  0  0  0
    4.3980   -0.7806    0.0777 N   0  0  0  0  0  0  0  0  0  0  0  0
    3.1467   -1.0190    0.0808 N   0  0  0  0  0  0  0  0  0  0  0  0
  1  2  1  0  0  0  0
  2  3  1  0  0  0  0
  2  8  1  0  0  0  0
  3  4  2  0  0  0  0
  3  5  1  0  0  0  0
  5  6  1  0  0  0  0
  5  7  1  0  0  0  0
  7  8  2  0  0  0  0
M  END
$$$$
