
 OpenBabel04232216593D

 80 79  0  0  0  0  0  0  0  0999 V2000
    2.9415   -5.2524   -1.0805 O   0  0  0  0  0  0  0  0  0  0  0  0
    2.1594   -4.4237   -0.7135 C   0  0  0  0  0  0  0  0  0  0  0  0
    0.8206   -4.5254   -0.7964 O   0  0  0  0  0  0  0  0  0  0  0  0
    2.4621   -3.2261   -0.1106 O   0  0  0  0  0  0  0  0  0  0  0  0
    3.9102   -3.1765   -0.0871 O   0  0  0  0  0  0  0  0  0  0  0  0
    4.3607   -2.0466   -0.8650 O   0  0  0  0  0  0  0  0  0  0  0  0
    5.7828   -2.0110   -0.8591 O   0  0  0  0  0  0  0  0  0  0  0  0
    6.2376   -3.2292   -1.4193 O   0  0  0  0  0  0  0  0  0  0  0  0
    7.6344   -3.2262   -1.4049 O   0  0  0  0  0  0  0  0  0  0  0  0
    8.0539   -4.4374   -1.9662 O   0  0  0  0  0  0  0  0  0  0  0  0
    9.4447   -4.4264   -1.9613 O   0  0  0  0  0  0  0  0  0  0  0  0
    9.8633   -5.6277   -2.5178 O   0  0  0  0  0  0  0  0  0  0  0  0
   11.2484   -5.5958   -2.5030 O   0  0  0  0  0  0  0  0  0  0  0  0
   11.6770   -6.7877   -3.0551 O   0  0  0  0  0  0  0  0  0  0  0  0
   13.0567   -6.7400   -3.0331 O   0  0  0  0  0  0  0  0  0  0  0  0
   13.4819   -7.9284   -3.5835 O   0  0  0  0  0  0  0  0  0  0  0  0
   14.8564   -7.8818   -3.5619 O   0  0  0  0  0  0  0  0  0  0  0  0
   15.2675   -9.0712   -4.1129 O   0  0  0  0  0  0  0  0  0  0  0  0
   16.6381   -9.0296   -4.0936 O   0  0  0  0  0  0  0  0  0  0  0  0
   17.0410  -10.2185   -4.6444 O   0  0  0  0  0  0  0  0  0  0  0  0
   18.4092  -10.1736   -4.6236 O   0  0  0  0  0  0  0  0  0  0  0  0
   18.8135  -11.3594   -5.1729 O   0  0  0  0  0  0  0  0  0  0  0  0
   20.1800  -11.3075   -5.1488 O   0  0  0  0  0  0  0  0  0  0  0  0
   20.5852  -12.4913   -5.6972 O   0  0  0  0  0  0  0  0  0  0  0  0
   21.9500  -12.4389   -5.6729 O   0  0  0  0  0  0  0  0  0  0  0  0
   22.3496  -13.6236   -6.2217 O   0  0  0  0  0  0  0  0  0  0  0  0
   23.7133  -13.5754   -6.1994 O   0  0  0  0  0  0  0  0  0  0  0  0
   24.1078  -14.7609   -6.7486 O   0  0  0  0  0  0  0  0  0  0  0  0
   25.4708  -14.7132   -6.7264 O   0  0  0  0  0  0  0  0  0  0  0  0
   25.8662  -15.8976   -7.2751 O   0  0  0  0  0  0  0  0  0  0  0  0
   27.2292  -15.8456   -7.2511 O   0  0  0  0  0  0  0  0  0  0  0  0
   27.6286  -17.0287   -7.7990 O   0  0  0  0  0  0  0  0  0  0  0  0
   28.9909  -16.9725   -7.7731 O   0  0  0  0  0  0  0  0  0  0  0  0
   29.3917  -18.1547   -8.3207 O   0  0  0  0  0  0  0  0  0  0  0  0
   30.7535  -18.0991   -8.2948 O   0  0  0  0  0  0  0  0  0  0  0  0
   31.1530  -19.2817   -8.8427 O   0  0  0  0  0  0  0  0  0  0  0  0
   32.5148  -19.2272   -8.8176 O   0  0  0  0  0  0  0  0  0  0  0  0
   32.9138  -20.4100   -9.3655 O   0  0  0  0  0  0  0  0  0  0  0  0
   34.2757  -20.3559   -9.3403 O   0  0  0  0  0  0  0  0  0  0  0  0
   34.6746  -21.5389   -9.8883 O   0  0  0  0  0  0  0  0  0  0  0  0
   36.0366  -21.4852   -9.8635 O   0  0  0  0  0  0  0  0  0  0  0  0
   36.4350  -22.6686  -10.4117 O   0  0  0  0  0  0  0  0  0  0  0  0
   37.7971  -22.6158  -10.3871 O   0  0  0  0  0  0  0  0  0  0  0  0
   38.1949  -23.7992  -10.9356 O   0  0  0  0  0  0  0  0  0  0  0  0
   39.5573  -23.7476  -10.9114 O   0  0  0  0  0  0  0  0  0  0  0  0
   39.9535  -24.9319  -11.4589 O   0  0  0  0  0  0  0  0  0  0  0  0
   41.3161  -24.8806  -11.4371 O   0  0  0  0  0  0  0  0  0  0  0  0
   41.7132  -26.0650  -11.9841 O   0  0  0  0  0  0  0  0  0  0  0  0
   43.0758  -26.0102  -11.9627 O   0  0  0  0  0  0  0  0  0  0  0  0
   43.4763  -27.1924  -12.5113 O   0  0  0  0  0  0  0  0  0  0  0  0
   44.8389  -27.1350  -12.4909 O   0  0  0  0  0  0  0  0  0  0  0  0
   45.2383  -28.3185  -13.0378 O   0  0  0  0  0  0  0  0  0  0  0  0
   46.6008  -28.2644  -13.0165 O   0  0  0  0  0  0  0  0  0  0  0  0
   46.9986  -29.4496  -13.5618 O   0  0  0  0  0  0  0  0  0  0  0  0
   48.3606  -29.3947  -13.5406 O   0  0  0  0  0  0  0  0  0  0  0  0
   48.7638  -30.5771  -14.0869 O   0  0  0  0  0  0  0  0  0  0  0  0
   50.1269  -30.5193  -14.0620 O   0  0  0  0  0  0  0  0  0  0  0  0
   50.5310  -31.7024  -14.6112 O   0  0  0  0  0  0  0  0  0  0  0  0
   51.8958  -31.6489  -14.5859 O   0  0  0  0  0  0  0  0  0  0  0  0
   52.2967  -32.8350  -15.1337 O   0  0  0  0  0  0  0  0  0  0  0  0
   53.6638  -32.7925  -15.1164 O   0  0  0  0  0  0  0  0  0  0  0  0
   54.0686  -33.9721  -15.6634 O   0  0  0  0  0  0  0  0  0  0  0  0
   55.4395  -33.9263  -15.6417 O   0  0  0  0  0  0  0  0  0  0  0  0
   55.8523  -35.1108  -16.1934 O   0  0  0  0  0  0  0  0  0  0  0  0
   57.2262  -35.0676  -16.1755 O   0  0  0  0  0  0  0  0  0  0  0  0
   57.6389  -36.2584  -16.7297 O   0  0  0  0  0  0  0  0  0  0  0  0
   59.0180  -36.2271  -16.7177 O   0  0  0  0  0  0  0  0  0  0  0  0
   59.4321  -37.4230  -17.2742 O   0  0  0  0  0  0  0  0  0  0  0  0
   60.8168  -37.3926  -17.2626 O   0  0  0  0  0  0  0  0  0  0  0  0
   61.2508  -38.5887  -17.8193 O   0  0  0  0  0  0  0  0  0  0  0  0
   62.6436  -38.5504  -17.8040 O   0  0  0  0  0  0  0  0  0  0  0  0
   63.0969  -39.7471  -18.3610 O   0  0  0  0  0  0  0  0  0  0  0  0
   64.4992  -39.7148  -18.3484 O   0  0  0  0  0  0  0  0  0  0  0  0
   64.9519  -40.9228  -18.9106 O   0  0  0  0  0  0  0  0  0  0  0  0
   66.3617  -40.9170  -18.9213 O   0  0  0  0  0  0  0  0  0  0  0  0
   66.8108  -42.1472  -19.4916 O   0  0  0  0  0  0  0  0  0  0  0  0
   68.2399  -42.1599  -19.4926 O   0  0  0  0  0  0  0  0  0  0  0  0
   68.7273  -42.0478  -18.1348 O   0  0  0  0  0  0  0  0  0  0  0  0
    0.3618   -3.7550   -0.4494 H   0  0  0  0  0  0  0  0  0  0  0  0
   69.6595  -42.0738  -18.3855 H   0  0  0  0  0  0  0  0  0  0  0  0
  1  2  2  0  0  0  0
  2  3  1  0  0  0  0
  2  4  1  0  0  0  0
  3 79  1  0  0  0  0
  4  5  1  0  0  0  0
  5  6  1  0  0  0  0
  6  7  1  0  0  0  0
  7  8  1  0  0  0  0
  8  9  1  0  0  0  0
  9 10  1  0  0  0  0
 10 11  1  0  0  0  0
 11 12  1  0  0  0  0
 12 13  1  0  0  0  0
 13 14  1  0  0  0  0
 14 15  1  0  0  0  0
 15 16  1  0  0  0  0
 16 17  1  0  0  0  0
 17 18  1  0  0  0  0
 18 19  1  0  0  0  0
 19 20  1  0  0  0  0
 20 21  1  0  0  0  0
 21 22  1  0  0  0  0
 22 23  1  0  0  0  0
 23 24  1  0  0  0  0
 24 25  1  0  0  0  0
 25 26  1  0  0  0  0
 26 27  1  0  0  0  0
 27 28  1  0  0  0  0
 28 29  1  0  0  0  0
 29 30  1  0  0  0  0
 30 31  1  0  0  0  0
 31 32  1  0  0  0  0
 32 33  1  0  0  0  0
 33 34  1  0  0  0  0
 34 35  1  0  0  0  0
 35 36  1  0  0  0  0
 36 37  1  0  0  0  0
 37 38  1  0  0  0  0
 38 39  1  0  0  0  0
 39 40  1  0  0  0  0
 40 41  1  0  0  0  0
 41 42  1  0  0  0  0
 42 43  1  0  0  0  0
 43 44  1  0  0  0  0
 44 45  1  0  0  0  0
 45 46  1  0  0  0  0
 46 47  1  0  0  0  0
 47 48  1  0  0  0  0
 48 49  1  0  0  0  0
 49 50  1  0  0  0  0
 50 51  1  0  0  0  0
 51 52  1  0  0  0  0
 52 53  1  0  0  0  0
 53 54  1  0  0  0  0
 54 55  1  0  0  0  0
 55 56  1  0  0  0  0
 56 57  1  0  0  0  0
 57 58  1  0  0  0  0
 58 59  1  0  0  0  0
 59 60  1  0  0  0  0
 60 61  1  0  0  0  0
 61 62  1  0  0  0  0
 62 63  1  0  0  0  0
 63 64  1  0  0  0  0
 64 65  1  0  0  0  0
 65 66  1  0  0  0  0
 66 67  1  0  0  0  0
 67 68  1  0  0  0  0
 68 69  1  0  0  0  0
 69 70  1  0  0  0  0
 70 71  1  0  0  0  0
 71 72  1  0  0  0  0
 72 73  1  0  0  0  0
 73 74  1  0  0  0  0
 74 75  1  0  0  0  0
 75 76  1  0  0  0  0
 76 77  1  0  0  0  0
 77 78  1  0  0  0  0
 78 80  1  0  0  0  0
M  END
$$$$
