
 OpenBabel04232216593D

183182  0  0  0  0  0  0  0  0999 V2000
    3.2039   -4.8375   -3.7267 O   0  0  0  0  0  0  0  0  0  0  0  0
    2.4340   -5.6470   -3.2563 C   0  0  0  0  0  0  0  0  0  0  0  0
    0.9255   -5.5053   -3.3376 C   0  0  0  0  0  0  0  0  0  0  0  0
    0.1482   -6.6189   -2.6413 C   0  0  0  0  0  0  0  0  0  0  0  0
    2.7792   -6.8035   -2.5901 O   0  0  0  0  0  0  0  0  0  0  0  0
    4.2186   -6.8484   -2.5117 O   0  0  0  0  0  0  0  0  0  0  0  0
    4.6376   -6.8289   -1.1114 O   0  0  0  0  0  0  0  0  0  0  0  0
    6.0494   -6.8079   -1.1500 C   0  0  0  0  0  0  0  0  0  0  0  0
    6.5580   -5.5739   -1.8640 C   0  0  0  0  0  0  0  0  0  0  0  0
    7.9662   -5.5820   -1.7529 O   0  0  0  0  0  0  0  0  0  0  0  0
    8.3970   -4.3842   -2.4449 O   0  0  0  0  0  0  0  0  0  0  0  0
    9.8307   -4.3938   -2.5674 O   0  0  0  0  0  0  0  0  0  0  0  0
   10.2295   -5.6181   -3.2111 O   0  0  0  0  0  0  0  0  0  0  0  0
   11.6244   -5.6434   -3.1643 C   0  0  0  0  0  0  0  0  0  0  0  0
   12.0685   -6.8531   -3.8030 N   0  0  0  0  0  0  0  0  0  0  0  0
   13.4938   -6.7581   -3.8046 O   0  0  0  0  0  0  0  0  0  0  0  0
   14.0000   -7.9627   -4.3743 O   0  0  0  0  0  0  0  0  0  0  0  0
   15.4240   -7.9256   -4.3821 O   0  0  0  0  0  0  0  0  0  0  0  0
   15.7797   -9.1217   -5.0325 C   0  0  0  0  0  0  0  0  0  0  0  0
   17.2804   -9.1244   -5.0364 C   0  0  0  0  0  0  0  0  0  0  0  0
   17.7812  -10.3730   -5.7152 C   0  0  0  0  0  0  0  0  0  0  0  0
   19.2932  -10.3655   -5.7156 C   0  0  0  0  0  0  0  0  0  0  0  0
   19.7998  -11.6192   -6.3951 C   0  0  0  0  0  0  0  0  0  0  0  0
   21.3164  -11.6185   -6.4010 C   0  0  0  0  0  0  0  0  0  0  0  0
   21.8233  -12.8744   -7.0798 C   0  0  0  0  0  0  0  0  0  0  0  0
   23.3400  -12.8767   -7.0878 C   0  0  0  0  0  0  0  0  0  0  0  0
   23.8496  -14.1331   -7.7687 C   0  0  0  0  0  0  0  0  0  0  0  0
   25.3654  -14.1385   -7.7784 C   0  0  0  0  0  0  0  0  0  0  0  0
   25.8827  -15.3877   -8.4555 C   0  0  0  0  0  0  0  0  0  0  0  0
   27.2973  -15.3259   -8.4285 O   0  0  0  0  0  0  0  0  0  0  0  0
   27.7260  -16.5398   -9.0882 O   0  0  0  0  0  0  0  0  0  0  0  0
   29.1405  -16.4781   -9.0612 C   0  0  0  0  0  0  0  0  0  0  0  0
   29.6577  -17.7260   -9.7401 C   0  0  0  0  0  0  0  0  0  0  0  0
   31.1741  -17.7323   -9.7503 C   0  0  0  0  0  0  0  0  0  0  0  0
   31.6835  -18.9873  -10.4351 C   0  0  0  0  0  0  0  0  0  0  0  0
   33.2003  -18.9935  -10.4432 C   0  0  0  0  0  0  0  0  0  0  0  0
   33.7107  -20.2466  -11.1290 C   0  0  0  0  0  0  0  0  0  0  0  0
   35.2267  -20.2493  -11.1340 C   0  0  0  0  0  0  0  0  0  0  0  0
   35.7392  -21.5012  -11.8171 C   0  0  0  0  0  0  0  0  0  0  0  0
   37.2560  -21.5040  -11.8182 C   0  0  0  0  0  0  0  0  0  0  0  0
   37.7660  -22.7575  -12.5021 C   0  0  0  0  0  0  0  0  0  0  0  0
   39.2822  -22.7617  -12.5042 C   0  0  0  0  0  0  0  0  0  0  0  0
   39.7919  -24.0152  -13.1881 C   0  0  0  0  0  0  0  0  0  0  0  0
   41.3076  -24.0186  -13.1899 C   0  0  0  0  0  0  0  0  0  0  0  0
   41.8162  -25.2715  -13.8735 C   0  0  0  0  0  0  0  0  0  0  0  0
   43.3291  -25.2722  -13.8741 C   0  0  0  0  0  0  0  0  0  0  0  0
   43.8338  -26.5245  -14.5577 C   0  0  0  0  0  0  0  0  0  0  0  0
   45.3454  -26.5197  -14.5554 C   0  0  0  0  0  0  0  0  0  0  0  0
   45.8527  -27.7685  -15.2324 C   0  0  0  0  0  0  0  0  0  0  0  0
   47.3567  -27.7542  -15.2095 C   0  0  0  0  0  0  0  0  0  0  0  0
   47.7736  -28.9591  -15.8000 O   0  0  0  0  0  0  0  0  0  0  0  0
   49.2114  -28.9274  -15.6862 O   0  0  0  0  0  0  0  0  0  0  0  0
   49.7621  -30.0320  -16.4093 O   0  0  0  0  0  0  0  0  0  0  0  0
   49.2365  -30.0125  -17.7392 O   0  0  0  0  0  0  0  0  0  0  0  0
   49.5283  -31.2408  -18.3950 O   0  0  0  0  0  0  0  0  0  0  0  0
   49.0220  -31.1785  -19.7272 O   0  0  0  0  0  0  0  0  0  0  0  0
   49.5098  -32.3546  -20.3077 C   0  0  0  0  0  0  0  0  0  0  0  0
   48.9898  -32.3474  -21.7019 C   0  0  0  0  0  0  0  0  0  0  0  0
   49.4749  -33.5339  -22.2698 O   0  0  0  0  0  0  0  0  0  0  0  0
   48.9609  -33.4949  -23.5952 O   0  0  0  0  0  0  0  0  0  0  0  0
   49.3924  -34.6636  -24.2761 O   0  0  0  0  0  0  0  0  0  0  0  0
   48.8801  -34.6328  -25.6079 O   0  0  0  0  0  0  0  0  0  0  0  0
   49.3697  -35.8247  -26.1706 C   0  0  0  0  0  0  0  0  0  0  0  0
   48.8504  -35.8276  -27.5758 C   0  0  0  0  0  0  0  0  0  0  0  0
   49.3205  -37.0753  -28.2781 C   0  0  0  0  0  0  0  0  0  0  0  0
   48.7949  -37.0751  -29.6949 C   0  0  0  0  0  0  0  0  0  0  0  0
   49.2640  -38.3282  -30.4024 C   0  0  0  0  0  0  0  0  0  0  0  0
   48.7411  -38.3354  -31.8235 C   0  0  0  0  0  0  0  0  0  0  0  0
   49.2100  -39.5894  -32.5334 C   0  0  0  0  0  0  0  0  0  0  0  0
   48.6872  -39.5991  -33.9575 C   0  0  0  0  0  0  0  0  0  0  0  0
   49.1552  -40.8536  -34.6701 C   0  0  0  0  0  0  0  0  0  0  0  0
   48.6326  -40.8639  -36.0955 C   0  0  0  0  0  0  0  0  0  0  0  0
   49.1002  -42.1162  -36.8120 C   0  0  0  0  0  0  0  0  0  0  0  0
   48.5849  -42.1377  -38.2356 C   0  0  0  0  0  0  0  0  0  0  0  0
   49.0570  -43.3291  -38.8438 O   0  0  0  0  0  0  0  0  0  0  0  0
   48.5331  -43.2862  -40.1948 O   0  0  0  0  0  0  0  0  0  0  0  0
   49.0061  -44.4768  -40.8064 C   0  0  0  0  0  0  0  0  0  0  0  0
   48.4932  -44.4968  -42.2282 C   0  0  0  0  0  0  0  0  0  0  0  0
    0.6465   -5.4855   -4.3927 H   0  0  0  0  0  0  0  0  0  0  0  0
    0.6565   -4.5479   -2.8780 H   0  0  0  0  0  0  0  0  0  0  0  0
    0.3832   -7.5916   -3.0858 H   0  0  0  0  0  0  0  0  0  0  0  0
   -0.9281   -6.4550   -2.7339 H   0  0  0  0  0  0  0  0  0  0  0  0
    0.3983   -6.6623   -1.5779 H   0  0  0  0  0  0  0  0  0  0  0  0
    6.4338   -7.7263   -1.6160 H   0  0  0  0  0  0  0  0  0  0  0  0
    6.4248   -6.8134   -0.1215 H   0  0  0  0  0  0  0  0  0  0  0  0
    6.1716   -4.6660   -1.3932 H   0  0  0  0  0  0  0  0  0  0  0  0
    6.2666   -5.5705   -2.9208 H   0  0  0  0  0  0  0  0  0  0  0  0
   11.9728   -5.6147   -2.1139 H   0  0  0  0  0  0  0  0  0  0  0  0
   12.0208   -4.7545   -3.6780 H   0  0  0  0  0  0  0  0  0  0  0  0
   11.8642   -6.7897   -4.7996 H   0  0  0  0  0  0  0  0  0  0  0  0
   15.3746   -9.1290   -6.0515 H   0  0  0  0  0  0  0  0  0  0  0  0
   15.3784   -9.9808   -4.4813 H   0  0  0  0  0  0  0  0  0  0  0  0
   17.6495   -9.0600   -4.0046 H   0  0  0  0  0  0  0  0  0  0  0  0
   17.6471   -8.2233   -5.5449 H   0  0  0  0  0  0  0  0  0  0  0  0
   17.4007  -10.4164   -6.7430 H   0  0  0  0  0  0  0  0  0  0  0  0
   17.4051  -11.2591   -5.1895 H   0  0  0  0  0  0  0  0  0  0  0  0
   19.6679  -10.3155   -4.6856 H   0  0  0  0  0  0  0  0  0  0  0  0
   19.6631   -9.4752   -6.2393 H   0  0  0  0  0  0  0  0  0  0  0  0
   19.4192  -11.6667   -7.4228 H   0  0  0  0  0  0  0  0  0  0  0  0
   19.4259  -12.5060   -5.8686 H   0  0  0  0  0  0  0  0  0  0  0  0
   21.6923  -11.5676   -5.3725 H   0  0  0  0  0  0  0  0  0  0  0  0
   21.6853  -10.7301   -6.9278 H   0  0  0  0  0  0  0  0  0  0  0  0
   21.4430  -12.9236   -8.1076 H   0  0  0  0  0  0  0  0  0  0  0  0
   21.4500  -13.7610   -6.5526 H   0  0  0  0  0  0  0  0  0  0  0  0
   23.7185  -12.8276   -6.0593 H   0  0  0  0  0  0  0  0  0  0  0  0
   23.7117  -11.9883   -7.6135 H   0  0  0  0  0  0  0  0  0  0  0  0
   23.4685  -14.1806   -8.7963 H   0  0  0  0  0  0  0  0  0  0  0  0
   23.4754  -15.0199   -7.2425 H   0  0  0  0  0  0  0  0  0  0  0  0
   25.7570  -14.0840   -6.7550 H   0  0  0  0  0  0  0  0  0  0  0  0
   25.7501  -13.2512   -8.2966 H   0  0  0  0  0  0  0  0  0  0  0  0
   25.5378  -15.4361   -9.4948 H   0  0  0  0  0  0  0  0  0  0  0  0
   25.5449  -16.2847   -7.9240 H   0  0  0  0  0  0  0  0  0  0  0  0
   29.4855  -16.4310   -8.0219 H   0  0  0  0  0  0  0  0  0  0  0  0
   29.4782  -15.5802   -9.5916 H   0  0  0  0  0  0  0  0  0  0  0  0
   29.2661  -17.7793  -10.7637 H   0  0  0  0  0  0  0  0  0  0  0  0
   29.2731  -18.6143   -9.2233 H   0  0  0  0  0  0  0  0  0  0  0  0
   31.5549  -17.6875   -8.7225 H   0  0  0  0  0  0  0  0  0  0  0  0
   31.5481  -16.8439  -10.2739 H   0  0  0  0  0  0  0  0  0  0  0  0
   31.3051  -19.0318  -11.4637 H   0  0  0  0  0  0  0  0  0  0  0  0
   31.3100  -19.8765   -9.9126 H   0  0  0  0  0  0  0  0  0  0  0  0
   33.5797  -18.9502   -9.4146 H   0  0  0  0  0  0  0  0  0  0  0  0
   33.5753  -18.1038  -10.9643 H   0  0  0  0  0  0  0  0  0  0  0  0
   33.3332  -20.2905  -12.1589 H   0  0  0  0  0  0  0  0  0  0  0  0
   33.3358  -21.1375  -10.6095 H   0  0  0  0  0  0  0  0  0  0  0  0
   35.6037  -20.2040  -10.1033 H   0  0  0  0  0  0  0  0  0  0  0  0
   35.6012  -19.3583  -11.6538 H   0  0  0  0  0  0  0  0  0  0  0  0
   35.3645  -21.5450  -12.8466 H   0  0  0  0  0  0  0  0  0  0  0  0
   35.3650  -22.3902  -11.2965 H   0  0  0  0  0  0  0  0  0  0  0  0
   37.6314  -21.4607  -10.7882 H   0  0  0  0  0  0  0  0  0  0  0  0
   37.6316  -20.6145  -12.3386 H   0  0  0  0  0  0  0  0  0  0  0  0
   37.3900  -22.8014  -13.5320 H   0  0  0  0  0  0  0  0  0  0  0  0
   37.3900  -23.6474  -11.9812 H   0  0  0  0  0  0  0  0  0  0  0  0
   39.6578  -22.7186  -11.4745 H   0  0  0  0  0  0  0  0  0  0  0  0
   39.6577  -21.8720  -13.0244 H   0  0  0  0  0  0  0  0  0  0  0  0
   39.4168  -24.0592  -14.2181 H   0  0  0  0  0  0  0  0  0  0  0  0
   39.4168  -24.9051  -12.6675 H   0  0  0  0  0  0  0  0  0  0  0  0
   41.6841  -23.9758  -12.1602 H   0  0  0  0  0  0  0  0  0  0  0  0
   41.6842  -23.1295  -13.7109 H   0  0  0  0  0  0  0  0  0  0  0  0
   41.4416  -25.3156  -14.9036 H   0  0  0  0  0  0  0  0  0  0  0  0
   41.4416  -26.1616  -13.3533 H   0  0  0  0  0  0  0  0  0  0  0  0
   43.7074  -25.2303  -12.8451 H   0  0  0  0  0  0  0  0  0  0  0  0
   43.7075  -24.3841  -14.3955 H   0  0  0  0  0  0  0  0  0  0  0  0
   43.4616  -26.5701  -15.5889 H   0  0  0  0  0  0  0  0  0  0  0  0
   43.4617  -27.4163  -14.0376 H   0  0  0  0  0  0  0  0  0  0  0  0
   45.7216  -26.4754  -13.5255 H   0  0  0  0  0  0  0  0  0  0  0  0
   45.7228  -25.6319  -15.0781 H   0  0  0  0  0  0  0  0  0  0  0  0
   45.4915  -27.8318  -16.2663 H   0  0  0  0  0  0  0  0  0  0  0  0
   45.4818  -28.6690  -14.7268 H   0  0  0  0  0  0  0  0  0  0  0  0
   47.7347  -27.7183  -14.1829 H   0  0  0  0  0  0  0  0  0  0  0  0
   47.7535  -26.9019  -15.7732 H   0  0  0  0  0  0  0  0  0  0  0  0
   49.1480  -33.2325  -19.7589 H   0  0  0  0  0  0  0  0  0  0  0  0
   50.6057  -32.3716  -20.2957 H   0  0  0  0  0  0  0  0  0  0  0  0
   49.3545  -31.4731  -22.2545 H   0  0  0  0  0  0  0  0  0  0  0  0
   47.8971  -32.3293  -21.7175 H   0  0  0  0  0  0  0  0  0  0  0  0
   48.9975  -36.6843  -25.6001 H   0  0  0  0  0  0  0  0  0  0  0  0
   50.4662  -35.8241  -26.1448 H   0  0  0  0  0  0  0  0  0  0  0  0
   49.1948  -34.9254  -28.0980 H   0  0  0  0  0  0  0  0  0  0  0  0
   47.7541  -35.7691  -27.5636 H   0  0  0  0  0  0  0  0  0  0  0  0
   48.9643  -37.9619  -27.7396 H   0  0  0  0  0  0  0  0  0  0  0  0
   50.4167  -37.1115  -28.2783 H   0  0  0  0  0  0  0  0  0  0  0  0
   49.1516  -36.1843  -30.2268 H   0  0  0  0  0  0  0  0  0  0  0  0
   47.6987  -37.0325  -29.6880 H   0  0  0  0  0  0  0  0  0  0  0  0
   48.9076  -39.2159  -29.8648 H   0  0  0  0  0  0  0  0  0  0  0  0
   50.3606  -38.3678  -30.4035 H   0  0  0  0  0  0  0  0  0  0  0  0
   49.0978  -37.4454  -32.3569 H   0  0  0  0  0  0  0  0  0  0  0  0
   47.6449  -38.2935  -31.8181 H   0  0  0  0  0  0  0  0  0  0  0  0
   48.8533  -40.4775  -31.9971 H   0  0  0  0  0  0  0  0  0  0  0  0
   50.3061  -39.6295  -32.5359 H   0  0  0  0  0  0  0  0  0  0  0  0
   49.0437  -38.7095  -34.4910 H   0  0  0  0  0  0  0  0  0  0  0  0
   47.5913  -39.5573  -33.9524 H   0  0  0  0  0  0  0  0  0  0  0  0
   48.7989  -41.7420  -34.1340 H   0  0  0  0  0  0  0  0  0  0  0  0
   50.2516  -40.8939  -34.6726 H   0  0  0  0  0  0  0  0  0  0  0  0
   48.9878  -39.9729  -36.6278 H   0  0  0  0  0  0  0  0  0  0  0  0
   47.5364  -40.8227  -36.0895 H   0  0  0  0  0  0  0  0  0  0  0  0
   48.7561  -43.0128  -36.2813 H   0  0  0  0  0  0  0  0  0  0  0  0
   50.1962  -42.1695  -36.8153 H   0  0  0  0  0  0  0  0  0  0  0  0
   48.9560  -41.2692  -38.7921 H   0  0  0  0  0  0  0  0  0  0  0  0
   47.4889  -42.1284  -38.2481 H   0  0  0  0  0  0  0  0  0  0  0  0
   48.6337  -45.3453  -40.2525 H   0  0  0  0  0  0  0  0  0  0  0  0
   50.1013  -44.4841  -40.7941 H   0  0  0  0  0  0  0  0  0  0  0  0
   47.3987  -44.4615  -42.2384 H   0  0  0  0  0  0  0  0  0  0  0  0
   48.8270  -45.3953  -42.7519 H   0  0  0  0  0  0  0  0  0  0  0  0
   48.8442  -43.6134  -42.7719 H   0  0  0  0  0  0  0  0  0  0  0  0
  1  2  2  0  0  0  0
  2  3  1  0  0  0  0
  2  5  1  0  0  0  0
  3  4  1  0  0  0  0
  3 79  1  0  0  0  0
  3 80  1  0  0  0  0
  4 81  1  0  0  0  0
  4 82  1  0  0  0  0
  4 83  1  0  0  0  0
  5  6  1  0  0  0  0
  6  7  1  0  0  0  0
  7  8  1  0  0  0  0
  8  9  1  0  0  0  0
  8 84  1  0  0  0  0
  8 85  1  0  0  0  0
  9 10  1  0  0  0  0
  9 86  1  0  0  0  0
  9 87  1  0  0  0  0
 10 11  1  0  0  0  0
 11 12  1  0  0  0  0
 12 13  1  0  0  0  0
 13 14  1  0  0  0  0
 14 15  1  0  0  0  0
 14 88  1  0  0  0  0
 14 89  1  0  0  0  0
 15 16  1  0  0  0  0
 15 90  1  0  0  0  0
 16 17  1  0  0  0  0
 17 18  1  0  0  0  0
 18 19  1  0  0  0  0
 19 20  1  0  0  0  0
 19 91  1  0  0  0  0
 19 92  1  0  0  0  0
 20 21  1  0  0  0  0
 20 93  1  0  0  0  0
 20 94  1  0  0  0  0
 21 22  1  0  0  0  0
 21 95  1  0  0  0  0
 21 96  1  0  0  0  0
 22 23  1  0  0  0  0
 22 97  1  0  0  0  0
 22 98  1  0  0  0  0
 23 24  1  0  0  0  0
 23 99  1  0  0  0  0
 23100  1  0  0  0  0
 24 25  1  0  0  0  0
 24101  1  0  0  0  0
 24102  1  0  0  0  0
 25 26  1  0  0  0  0
 25103  1  0  0  0  0
 25104  1  0  0  0  0
 26 27  1  0  0  0  0
 26105  1  0  0  0  0
 26106  1  0  0  0  0
 27 28  1  0  0  0  0
 27107  1  0  0  0  0
 27108  1  0  0  0  0
 28 29  1  0  0  0  0
 28109  1  0  0  0  0
 28110  1  0  0  0  0
 29 30  1  0  0  0  0
 29111  1  0  0  0  0
 29112  1  0  0  0  0
 30 31  1  0  0  0  0
 31 32  1  0  0  0  0
 32 33  1  0  0  0  0
 32113  1  0  0  0  0
 32114  1  0  0  0  0
 33 34  1  0  0  0  0
 33115  1  0  0  0  0
 33116  1  0  0  0  0
 34 35  1  0  0  0  0
 34117  1  0  0  0  0
 34118  1  0  0  0  0
 35 36  1  0  0  0  0
 35119  1  0  0  0  0
 35120  1  0  0  0  0
 36 37  1  0  0  0  0
 36121  1  0  0  0  0
 36122  1  0  0  0  0
 37 38  1  0  0  0  0
 37123  1  0  0  0  0
 37124  1  0  0  0  0
 38 39  1  0  0  0  0
 38125  1  0  0  0  0
 38126  1  0  0  0  0
 39 40  1  0  0  0  0
 39127  1  0  0  0  0
 39128  1  0  0  0  0
 40 41  1  0  0  0  0
 40129  1  0  0  0  0
 40130  1  0  0  0  0
 41 42  1  0  0  0  0
 41131  1  0  0  0  0
 41132  1  0  0  0  0
 42 43  1  0  0  0  0
 42133  1  0  0  0  0
 42134  1  0  0  0  0
 43 44  1  0  0  0  0
 43135  1  0  0  0  0
 43136  1  0  0  0  0
 44 45  1  0  0  0  0
 44137  1  0  0  0  0
 44138  1  0  0  0  0
 45 46  1  0  0  0  0
 45139  1  0  0  0  0
 45140  1  0  0  0  0
 46 47  1  0  0  0  0
 46141  1  0  0  0  0
 46142  1  0  0  0  0
 47 48  1  0  0  0  0
 47143  1  0  0  0  0
 47144  1  0  0  0  0
 48 49  1  0  0  0  0
 48145  1  0  0  0  0
 48146  1  0  0  0  0
 49 50  1  0  0  0  0
 49147  1  0  0  0  0
 49148  1  0  0  0  0
 50 51  1  0  0  0  0
 50149  1  0  0  0  0
 50150  1  0  0  0  0
 51 52  1  0  0  0  0
 52 53  1  0  0  0  0
 53 54  1  0  0  0  0
 54 55  1  0  0  0  0
 55 56  1  0  0  0  0
 56 57  1  0  0  0  0
 57 58  1  0  0  0  0
 57151  1  0  0  0  0
 57152  1  0  0  0  0
 58 59  1  0  0  0  0
 58153  1  0  0  0  0
 58154  1  0  0  0  0
 59 60  1  0  0  0  0
 60 61  1  0  0  0  0
 61 62  1  0  0  0  0
 62 63  1  0  0  0  0
 63 64  1  0  0  0  0
 63155  1  0  0  0  0
 63156  1  0  0  0  0
 64 65  1  0  0  0  0
 64157  1  0  0  0  0
 64158  1  0  0  0  0
 65 66  1  0  0  0  0
 65159  1  0  0  0  0
 65160  1  0  0  0  0
 66 67  1  0  0  0  0
 66161  1  0  0  0  0
 66162  1  0  0  0  0
 67 68  1  0  0  0  0
 67163  1  0  0  0  0
 67164  1  0  0  0  0
 68 69  1  0  0  0  0
 68165  1  0  0  0  0
 68166  1  0  0  0  0
 69 70  1  0  0  0  0
 69167  1  0  0  0  0
 69168  1  0  0  0  0
 70 71  1  0  0  0  0
 70169  1  0  0  0  0
 70170  1  0  0  0  0
 71 72  1  0  0  0  0
 71171  1  0  0  0  0
 71172  1  0  0  0  0
 72 73  1  0  0  0  0
 72173  1  0  0  0  0
 72174  1  0  0  0  0
 73 74  1  0  0  0  0
 73175  1  0  0  0  0
 73176  1  0  0  0  0
 74 75  1  0  0  0  0
 74177  1  0  0  0  0
 74178  1  0  0  0  0
 75 76  1  0  0  0  0
 76 77  1  0  0  0  0
 77 78  1  0  0  0  0
 77179  1  0  0  0  0
 77180  1  0  0  0  0
 78181  1  0  0  0  0
 78182  1  0  0  0  0
 78183  1  0  0  0  0
M  END
$$$$
