
 OpenBabel04232216553D

 39 39  0  0  0  0  0  0  0  0999 V2000
    2.9590    1.2172    1.7854 C   0  0  0  0  0  0  0  0  0  0  0  0
    3.9467    0.0931    1.8611 N   0  0  0  0  0  0  0  0  0  0  0  0
    3.4887   -1.0230    1.1155 C   0  0  0  0  0  0  0  0  0  0  0  0
    2.0508   -1.5010    1.2677 C   0  0  0  0  0  0  0  0  0  0  0  0
    4.2822   -1.7446    0.2983 C   0  0  0  0  0  0  0  0  0  0  0  0
    4.9164   -0.9372   -0.8385 C   0  0  0  0  0  0  0  0  0  0  0  0
    4.0595    0.0915   -1.3489 O   0  0  0  0  0  0  0  0  0  0  0  0
    5.0856   -2.7226    1.0874 C   0  0  0  0  0  0  0  0  0  0  0  0
    4.4308   -3.2967    2.3732 C   0  0  0  0  0  0  0  0  0  0  0  0
    4.6298   -4.7076    2.4206 O   0  0  0  0  0  0  0  0  0  0  0  0
    6.4314   -2.6012    1.0860 C   0  0  0  0  0  0  0  0  0  0  0  0
    7.4061   -2.2696   -0.0251 C   0  0  0  0  0  0  0  0  0  0  0  0
    6.9889   -2.1749    2.3761 C   0  0  0  0  0  0  0  0  0  0  0  0
    7.6689   -3.2806    3.1531 C   0  0  0  0  0  0  0  0  0  0  0  0
    7.0224   -0.8337    2.6231 C   0  0  0  0  0  0  0  0  0  0  0  0
    8.4128   -0.3982    3.0701 C   0  0  0  0  0  0  0  0  0  0  0  0
    6.3638    0.1835    1.9650 N   0  0  0  0  0  0  0  0  0  0  0  0
    5.2233    0.6502    1.7004 N   0  0  0  0  0  0  0  0  0  0  0  0
    2.0514    0.9887    2.3559 H   0  0  0  0  0  0  0  0  0  0  0  0
    2.6611    1.3829    0.7380 H   0  0  0  0  0  0  0  0  0  0  0  0
    3.3722    2.1570    2.1605 H   0  0  0  0  0  0  0  0  0  0  0  0
    1.3785   -0.9440    0.6138 H   0  0  0  0  0  0  0  0  0  0  0  0
    1.7018   -1.4172    2.2991 H   0  0  0  0  0  0  0  0  0  0  0  0
    1.9388   -2.5624    0.9744 H   0  0  0  0  0  0  0  0  0  0  0  0
    5.1370   -1.5847   -1.6933 H   0  0  0  0  0  0  0  0  0  0  0  0
    5.8299   -0.4199   -0.5421 H   0  0  0  0  0  0  0  0  0  0  0  0
    3.2575   -0.3342   -1.6661 H   0  0  0  0  0  0  0  0  0  0  0  0
    3.3609   -3.1472    2.4630 H   0  0  0  0  0  0  0  0  0  0  0  0
    4.8361   -2.8623    3.2939 H   0  0  0  0  0  0  0  0  0  0  0  0
    3.9465   -5.0854    1.8438 H   0  0  0  0  0  0  0  0  0  0  0  0
    6.9955   -2.4572   -1.0182 H   0  0  0  0  0  0  0  0  0  0  0  0
    8.2996   -2.8963    0.0622 H   0  0  0  0  0  0  0  0  0  0  0  0
    7.7526   -1.2275    0.0160 H   0  0  0  0  0  0  0  0  0  0  0  0
    6.9365   -3.9885    3.5423 H   0  0  0  0  0  0  0  0  0  0  0  0
    8.2058   -2.8943    4.0330 H   0  0  0  0  0  0  0  0  0  0  0  0
    8.3788   -3.8413    2.5373 H   0  0  0  0  0  0  0  0  0  0  0  0
    8.7278    0.4668    2.4703 H   0  0  0  0  0  0  0  0  0  0  0  0
    9.1699   -1.1606    2.8306 H   0  0  0  0  0  0  0  0  0  0  0  0
    8.4748   -0.1582    4.1262 H   0  0  0  0  0  0  0  0  0  0  0  0
  1  2  1  0  0  0  0
  1 19  1  0  0  0  0
  1 20  1  0  0  0  0
  1 21  1  0  0  0  0
  2  3  1  0  0  0  0
  2 18  1  0  0  0  0
  3  4  1  0  0  0  0
  3  5  2  0  0  0  0
  4 22  1  0  0  0  0
  4 23  1  0  0  0  0
  4 24  1  0  0  0  0
  5  6  1  0  0  0  0
  5  8  1  0  0  0  0
  6  7  1  0  0  0  0
  6 25  1  0  0  0  0
  6 26  1  0  0  0  0
  7 27  1  0  0  0  0
  8  9  1  0  0  0  0
  8 11  2  0  0  0  0
  9 10  1  0  0  0  0
  9 28  1  0  0  0  0
  9 29  1  0  0  0  0
 10 30  1  0  0  0  0
 11 12  1  0  0  0  0
 11 13  1  0  0  0  0
 12 31  1  0  0  0  0
 12 32  1  0  0  0  0
 12 33  1  0  0  0  0
 13 14  1  0  0  0  0
 13 15  2  0  0  0  0
 14 34  1  0  0  0  0
 14 35  1  0  0  0  0
 14 36  1  0  0  0  0
 15 16  1  0  0  0  0
 15 17  1  0  0  0  0
 16 37  1  0  0  0  0
 16 38  1  0  0  0  0
 16 39  1  0  0  0  0
 17 18  2  0  0  0  0
M  END
$$$$
