
 OpenBabel04232216483D

 52 54  0  0  0  0  0  0  0  0999 V2000
    0.7638   -0.4548   -0.2744 C   0  0  0  0  0  0  0  0  0  0  0  0
    2.1325   -0.0246   -0.6425 C   0  0  0  0  0  0  0  0  0  0  0  0
    2.6542   -0.0594   -2.0010 C   0  0  0  0  0  0  0  0  0  0  0  0
    3.9327   -0.4792   -2.1708 C   0  0  0  0  0  0  0  0  0  0  0  0
    5.0279    0.3039   -2.7866 C   0  0  0  0  0  0  0  0  0  0  0  0
    6.3278   -0.2481   -2.7625 N   0  0  0  0  0  0  0  0  0  0  0  0
    6.8613   -1.2999   -1.9580 N   0  0  0  0  0  0  0  0  0  0  0  0
    6.7748   -1.1842   -0.4771 C   0  0  0  0  0  0  0  0  0  0  0  0
    7.3524    0.0628    0.2485 C   0  0  0  0  0  0  0  0  0  0  0  0
    6.5886    0.5543    1.5222 C   0  0  0  0  0  0  0  0  0  0  0  0
    6.4386    2.1132    1.6026 C   0  0  0  0  0  0  0  0  0  0  0  0
    5.3345    2.9361    0.8261 C   0  0  0  0  0  0  0  0  0  0  0  0
    4.8672    1.6065   -3.2155 C   0  0  0  0  0  0  0  0  0  0  0  0
    5.8046    2.1133   -4.3252 C   0  0  0  0  0  0  0  0  0  0  0  0
    7.1778    1.9485   -3.9842 O   0  0  0  0  0  0  0  0  0  0  0  0
    3.8824    2.5659   -2.7925 N   0  0  0  0  0  0  0  0  0  0  0  0
    3.7800    3.0769   -1.3521 C   0  0  0  0  0  0  0  0  0  0  0  0
    4.5896    2.3018   -0.3264 C   0  0  0  0  0  0  0  0  0  0  0  0
    4.1352    1.1285    0.1558 C   0  0  0  0  0  0  0  0  0  0  0  0
    2.8303    0.6173    0.3073 C   0  0  0  0  0  0  0  0  0  0  0  0
    3.0740    3.2116   -3.7302 C   0  0  0  0  0  0  0  0  0  0  0  0
    2.5918    2.6693   -4.9177 C   0  0  0  0  0  0  0  0  0  0  0  0
    1.7877    3.5644   -5.6908 C   0  0  0  0  0  0  0  0  0  0  0  0
    1.6840    4.7936   -5.0867 C   0  0  0  0  0  0  0  0  0  0  0  0
    2.5158    4.8462   -3.5965 S   0  0  0  0  0  0  0  0  0  0  0  0
    0.0564   -0.2581   -1.0779 H   0  0  0  0  0  0  0  0  0  0  0  0
    0.4159    0.1035    0.6066 H   0  0  0  0  0  0  0  0  0  0  0  0
    0.7604   -1.5135   -0.0066 H   0  0  0  0  0  0  0  0  0  0  0  0
    2.2110    0.6540   -2.6552 H   0  0  0  0  0  0  0  0  0  0  0  0
    4.2955   -1.2821   -1.5303 H   0  0  0  0  0  0  0  0  0  0  0  0
    7.0101    0.3370   -3.2695 H   0  0  0  0  0  0  0  0  0  0  0  0
    7.8479   -1.4229   -2.2038 H   0  0  0  0  0  0  0  0  0  0  0  0
    7.3602   -2.0420   -0.1114 H   0  0  0  0  0  0  0  0  0  0  0  0
    5.7712   -1.4395   -0.1339 H   0  0  0  0  0  0  0  0  0  0  0  0
    7.4725    0.8906   -0.4530 H   0  0  0  0  0  0  0  0  0  0  0  0
    8.3627   -0.2041    0.5900 H   0  0  0  0  0  0  0  0  0  0  0  0
    7.1707    0.2425    2.4008 H   0  0  0  0  0  0  0  0  0  0  0  0
    5.6416    0.0300    1.7014 H   0  0  0  0  0  0  0  0  0  0  0  0
    7.4080    2.5461    1.3377 H   0  0  0  0  0  0  0  0  0  0  0  0
    6.2933    2.3513    2.6669 H   0  0  0  0  0  0  0  0  0  0  0  0
    5.7241    3.9260    0.5639 H   0  0  0  0  0  0  0  0  0  0  0  0
    4.5522    3.1680    1.5764 H   0  0  0  0  0  0  0  0  0  0  0  0
    5.6495    3.1697   -4.5626 H   0  0  0  0  0  0  0  0  0  0  0  0
    5.6118    1.5463   -5.2469 H   0  0  0  0  0  0  0  0  0  0  0  0
    7.3220    2.5362   -3.2227 H   0  0  0  0  0  0  0  0  0  0  0  0
    2.7179    3.0423   -1.0683 H   0  0  0  0  0  0  0  0  0  0  0  0
    4.0787    4.1320   -1.3138 H   0  0  0  0  0  0  0  0  0  0  0  0
    4.8441    0.3443   -0.0159 H   0  0  0  0  0  0  0  0  0  0  0  0
    2.4628    0.7378    1.3200 H   0  0  0  0  0  0  0  0  0  0  0  0
    2.7889    1.6463   -5.2142 H   0  0  0  0  0  0  0  0  0  0  0  0
    1.3152    3.3138   -6.6284 H   0  0  0  0  0  0  0  0  0  0  0  0
    1.1473    5.6617   -5.4483 H   0  0  0  0  0  0  0  0  0  0  0  0
  1  2  1  0  0  0  0
  1 26  1  0  0  0  0
  1 27  1  0  0  0  0
  1 28  1  0  0  0  0
  2  3  1  0  0  0  0
  2 20  2  3  0  0  0
  3  4  2  3  0  0  0
  3 29  1  0  0  0  0
  4  5  1  0  0  0  0
  4 30  1  0  0  0  0
  5  6  1  0  0  0  0
  5 13  2  3  0  0  0
  6  7  1  0  0  0  0
  6 31  1  0  0  0  0
  7  8  1  0  0  0  0
  7 32  1  0  0  0  0
  8  9  1  0  0  0  0
  8 33  1  0  0  0  0
  8 34  1  0  0  0  0
  9 10  1  0  0  0  0
  9 35  1  0  0  0  0
  9 36  1  0  0  0  0
 10 11  1  0  0  0  0
 10 37  1  0  0  0  0
 10 38  1  0  0  0  0
 11 12  1  0  0  0  0
 11 39  1  0  0  0  0
 11 40  1  0  0  0  0
 12 18  1  0  0  0  0
 12 41  1  0  0  0  0
 12 42  1  0  0  0  0
 13 14  1  0  0  0  0
 13 16  1  0  0  0  0
 14 15  1  0  0  0  0
 14 43  1  0  0  0  0
 14 44  1  0  0  0  0
 15 45  1  0  0  0  0
 16 17  1  0  0  0  0
 16 21  1  0  0  0  0
 17 18  1  0  0  0  0
 17 46  1  0  0  0  0
 17 47  1  0  0  0  0
 18 19  2  3  0  0  0
 19 20  1  0  0  0  0
 19 48  1  0  0  0  0
 20 49  1  0  0  0  0
 21 22  2  0  0  0  0
 21 25  1  0  0  0  0
 22 23  1  0  0  0  0
 22 50  1  0  0  0  0
 23 24  2  0  0  0  0
 23 51  1  0  0  0  0
 24 25  1  0  0  0  0
 24 52  1  0  0  0  0
M  END
$$$$
