
 OpenBabel04232216543D

 63 64  0  0  1  0  0  0  0  0999 V2000
    0.5299   -5.3976   -2.5693 C   0  0  0  0  0  0  0  0  0  0  0  0
    1.9514   -5.5398   -2.0271 C   0  0  0  0  0  0  0  0  0  0  0  0
    1.9491   -5.5344   -0.4978 C   0  0  0  0  0  0  0  0  0  0  0  0
    3.3585   -5.7025    0.0832 C   0  0  0  0  0  0  0  0  0  0  0  0
    3.3468   -5.8183    1.5589 N   0  0  0  0  0  0  0  0  0  0  0  0
    2.5436   -6.9193    2.1475 C   0  0  3  0  0  0  0  0  0  0  0  0
    3.0195   -8.2888    1.6598 C   0  0  0  0  0  0  0  0  0  0  0  0
    2.5923   -6.8734    3.6564 C   0  0  0  0  0  0  0  0  0  0  0  0
    3.3497   -6.0299    4.3755 C   0  0  0  0  0  0  0  0  0  0  0  0
    4.2331   -5.0798    3.7199 C   0  0  0  0  0  0  0  0  0  0  0  0
    5.1791   -4.1238    4.4508 C   0  0  0  0  0  0  0  0  0  0  0  0
    5.5425   -3.1065    3.8545 O   0  0  0  0  0  0  0  0  0  0  0  0
    5.6331   -4.4876    5.8951 C   0  0  0  0  0  0  0  0  0  0  0  0
    5.8549   -6.0456    6.1659 C   0  0  0  0  0  0  0  0  0  0  0  0
    5.8753   -6.3876    7.4952 C   0  0  0  0  0  0  0  0  0  0  0  0
    6.0830   -3.5955    6.8183 C   0  0  0  0  0  0  0  0  0  0  0  0
    6.1926   -2.1221    6.4612 C   0  0  0  0  0  0  0  0  0  0  0  0
    6.7373   -1.3579    7.6553 C   0  0  0  0  0  0  0  0  0  0  0  0
    6.8642    0.1217    7.3255 C   0  0  0  0  0  0  0  0  0  0  0  0
    7.4166    0.8986    8.5137 C   0  0  0  0  0  0  0  0  0  0  0  0
    7.5302    2.3782    8.1676 C   0  0  0  0  0  0  0  0  0  0  0  0
    8.0798    3.1740    9.3453 C   0  0  0  0  0  0  0  0  0  0  0  0
    8.1886    4.6538    8.9900 C   0  0  0  0  0  0  0  0  0  0  0  0
    8.7395    5.4580   10.1631 C   0  0  0  0  0  0  0  0  0  0  0  0
    8.8498    6.9316    9.8131 C   0  0  0  0  0  0  0  0  0  0  0  0
    4.1625   -5.0120    2.3710 C   0  0  0  0  0  0  0  0  0  0  0  0
    0.5350   -5.4275   -3.6640 H   0  0  0  0  0  0  0  0  0  0  0  0
    0.0931   -4.4424   -2.2575 H   0  0  0  0  0  0  0  0  0  0  0  0
   -0.1097   -6.2121   -2.2123 H   0  0  0  0  0  0  0  0  0  0  0  0
    2.5678   -4.7273   -2.4099 H   0  0  0  0  0  0  0  0  0  0  0  0
    2.3754   -6.4820   -2.3946 H   0  0  0  0  0  0  0  0  0  0  0  0
    1.2945   -6.3466   -0.1659 H   0  0  0  0  0  0  0  0  0  0  0  0
    1.5108   -4.6014   -0.1256 H   0  0  0  0  0  0  0  0  0  0  0  0
    3.9684   -4.8446   -0.2279 H   0  0  0  0  0  0  0  0  0  0  0  0
    3.8449   -6.5861   -0.3468 H   0  0  0  0  0  0  0  0  0  0  0  0
    1.4912   -6.7850    1.8732 H   0  0  0  0  0  0  0  0  0  0  0  0
    4.0859   -8.4372    1.8624 H   0  0  0  0  0  0  0  0  0  0  0  0
    2.8661   -8.4100    0.5818 H   0  0  0  0  0  0  0  0  0  0  0  0
    2.4644   -9.0963    2.1514 H   0  0  0  0  0  0  0  0  0  0  0  0
    1.9428   -7.5774    4.1742 H   0  0  0  0  0  0  0  0  0  0  0  0
    3.2945   -6.0592    5.4562 H   0  0  0  0  0  0  0  0  0  0  0  0
    5.8156   -6.7865    5.3533 H   0  0  0  0  0  0  0  0  0  0  0  0
    5.8861   -6.0406    8.5290 H   0  0  0  0  0  0  0  0  0  0  0  0
    5.2268   -1.7375    6.1118 H   0  0  0  0  0  0  0  0  0  0  0  0
    6.8719   -2.0054    5.6071 H   0  0  0  0  0  0  0  0  0  0  0  0
    7.7178   -1.7609    7.9417 H   0  0  0  0  0  0  0  0  0  0  0  0
    6.0761   -1.4929    8.5209 H   0  0  0  0  0  0  0  0  0  0  0  0
    5.8819    0.5211    7.0454 H   0  0  0  0  0  0  0  0  0  0  0  0
    7.5258    0.2509    6.4601 H   0  0  0  0  0  0  0  0  0  0  0  0
    8.4022    0.5042    8.7902 H   0  0  0  0  0  0  0  0  0  0  0  0
    6.7596    0.7677    9.3821 H   0  0  0  0  0  0  0  0  0  0  0  0
    6.5433    2.7667    7.8865 H   0  0  0  0  0  0  0  0  0  0  0  0
    8.1863    2.5030    7.2975 H   0  0  0  0  0  0  0  0  0  0  0  0
    9.0667    2.7855    9.6246 H   0  0  0  0  0  0  0  0  0  0  0  0
    7.4233    3.0479   10.2148 H   0  0  0  0  0  0  0  0  0  0  0  0
    7.2005    5.0383    8.7087 H   0  0  0  0  0  0  0  0  0  0  0  0
    8.8424    4.7755    8.1177 H   0  0  0  0  0  0  0  0  0  0  0  0
    9.7282    5.0764   10.4442 H   0  0  0  0  0  0  0  0  0  0  0  0
    8.0855    5.3398   11.0350 H   0  0  0  0  0  0  0  0  0  0  0  0
    9.5216    7.0814    8.9617 H   0  0  0  0  0  0  0  0  0  0  0  0
    9.2458    7.4940   10.6637 H   0  0  0  0  0  0  0  0  0  0  0  0
    7.8706    7.3462    9.5553 H   0  0  0  0  0  0  0  0  0  0  0  0
    4.7599   -4.2944    1.8110 H   0  0  0  0  0  0  0  0  0  0  0  0
  1  2  1  0  0  0  0
  1 27  1  0  0  0  0
  1 28  1  0  0  0  0
  1 29  1  0  0  0  0
  2  3  1  0  0  0  0
  2 30  1  0  0  0  0
  2 31  1  0  0  0  0
  3  4  1  0  0  0  0
  3 32  1  0  0  0  0
  3 33  1  0  0  0  0
  4  5  1  0  0  0  0
  4 34  1  0  0  0  0
  4 35  1  0  0  0  0
  5  6  1  0  0  0  0
  5 26  1  0  0  0  0
  6  7  1  0  0  0  0
  6  8  1  0  0  0  0
  6 36  1  0  0  0  0
  7 37  1  0  0  0  0
  7 38  1  0  0  0  0
  7 39  1  0  0  0  0
  8  9  2  0  0  0  0
  8 40  1  0  0  0  0
  9 10  1  0  0  0  0
  9 41  1  0  0  0  0
 10 11  1  0  0  0  0
 10 26  2  0  0  0  0
 11 12  2  0  0  0  0
 11 13  1  0  0  0  0
 13 14  1  0  0  0  0
 13 16  2  0  0  0  0
 14 15  2  0  0  0  0
 14 42  1  0  0  0  0
 15 16  1  0  0  0  0
 15 43  1  0  0  0  0
 16 17  1  0  0  0  0
 17 18  1  0  0  0  0
 17 44  1  0  0  0  0
 17 45  1  0  0  0  0
 18 19  1  0  0  0  0
 18 46  1  0  0  0  0
 18 47  1  0  0  0  0
 19 20  1  0  0  0  0
 19 48  1  0  0  0  0
 19 49  1  0  0  0  0
 20 21  1  0  0  0  0
 20 50  1  0  0  0  0
 20 51  1  0  0  0  0
 21 22  1  0  0  0  0
 21 52  1  0  0  0  0
 21 53  1  0  0  0  0
 22 23  1  0  0  0  0
 22 54  1  0  0  0  0
 22 55  1  0  0  0  0
 23 24  1  0  0  0  0
 23 56  1  0  0  0  0
 23 57  1  0  0  0  0
 24 25  1  0  0  0  0
 24 58  1  0  0  0  0
 24 59  1  0  0  0  0
 25 60  1  0  0  0  0
 25 61  1  0  0  0  0
 25 62  1  0  0  0  0
 26 63  1  0  0  0  0
M  END
$$$$
