
 OpenBabel04232216423D

 16 16  0  0  0  0  0  0  0  0999 V2000
    1.1881    0.0973   -0.2415 C   0  0  0  0  0  0  0  0  0  0  0  0
    0.4119    0.6562   -1.3416 C   0  0  0  0  0  3  0  0  0  0  0  0
   -0.9410    0.2984   -1.0862 C   0  0  0  0  0  0  0  0  0  0  0  0
   -0.9357   -0.4235    0.2368 C   0  0  0  0  0  0  0  0  0  0  0  0
   -1.6848    0.3878    1.2972 C   0  0  0  0  0  0  0  0  0  0  0  0
   -1.5056   -1.8369    0.1186 C   0  0  0  0  0  0  0  0  0  0  0  0
    0.5002   -0.5211    0.6598 N   0  0  0  0  0  0  0  0  0  0  0  0
    2.2788    0.2207   -0.2273 H   0  0  0  0  0  0  0  0  0  0  0  0
    0.7814    1.3548   -2.0673 H   0  0  0  0  0  0  0  0  0  0  0  0
   -1.8043    0.6442   -1.6281 H   0  0  0  0  0  0  0  0  0  0  0  0
   -2.7683    0.2400    1.2244 H   0  0  0  0  0  0  0  0  0  0  0  0
   -1.4925    1.4621    1.1909 H   0  0  0  0  0  0  0  0  0  0  0  0
   -1.3708    0.1041    2.3078 H   0  0  0  0  0  0  0  0  0  0  0  0
   -2.5672   -1.8181   -0.1534 H   0  0  0  0  0  0  0  0  0  0  0  0
   -1.4101   -2.3780    1.0668 H   0  0  0  0  0  0  0  0  0  0  0  0
   -0.9772   -2.4223   -0.6432 H   0  0  0  0  0  0  0  0  0  0  0  0
  1  2  1  0  0  0  0
  1  7  2  0  0  0  0
  1  8  1  0  0  0  0
  2  3  1  0  0  0  0
  2  9  1  0  0  0  0
  3  4  2  0  0  0  0
  3 10  1  0  0  0  0
  4  5  1  0  0  0  0
  4  6  1  0  0  0  0
  4  7  1  0  0  0  0
  5 11  1  0  0  0  0
  5 12  1  0  0  0  0
  5 13  1  0  0  0  0
  6 14  1  0  0  0  0
  6 15  1  0  0  0  0
  6 16  1  0  0  0  0
M  END
$$$$
