
 OpenBabel04232216393D

 40 40  0  0  0  0  0  0  0  0999 V2000
    8.9649   -4.0099    0.7097 C   0  0  0  0  0  0  0  0  0  0  0  0
    7.4577   -3.7636    0.1487 C   0  0  0  0  0  0  0  0  0  0  0  0
    6.4242   -2.8407    0.2494 C   0  0  0  0  0  0  0  0  0  0  0  0
    6.2027   -1.5625    0.8998 C   0  0  0  0  0  0  0  0  0  0  0  0
    6.0359   -1.2671    2.2232 C   0  0  0  0  0  0  0  0  0  0  0  0
    7.3647   -0.9825    2.7079 C   0  0  0  0  0  0  0  0  0  0  0  0
    7.9146   -1.9871    3.3844 C   0  0  0  0  0  0  0  0  0  0  0  0
    9.2947   -2.2241    3.2355 C   0  0  0  0  0  0  0  0  0  0  0  0
    9.7712   -3.3893    3.6525 C   0  0  0  0  0  0  0  0  0  0  0  0
   11.1655   -3.5137    3.6471 C   0  0  0  0  0  0  0  0  0  0  0  0
   11.7054   -4.4502    4.4109 C   0  0  0  0  0  0  0  0  0  0  0  0
   13.0861   -4.3121    4.6652 C   0  0  0  0  0  0  0  0  0  0  0  0
   13.7431   -5.2619    5.3196 C   0  0  0  0  0  0  0  0  0  0  0  0
   15.1110   -5.4001    4.8519 C   0  0  0  0  0  0  0  0  0  0  0  0
   15.1618   -6.4937    4.0951 C   0  0  0  0  0  0  0  0  0  0  0  0
   14.9780   -6.5367    2.6631 C   0  0  0  0  0  0  0  0  0  0  0  0
   14.0054   -6.2906    1.7151 C   0  0  0  0  0  0  0  0  0  0  0  0
   12.5222   -5.6805    1.6617 C   0  0  0  0  0  0  0  0  0  0  0  0
   11.5450   -4.9808    0.9172 C   0  0  0  0  0  0  0  0  0  0  0  0
    9.9462   -5.0172    0.8872 C   0  0  0  0  0  0  0  0  0  0  0  0
    8.3293   -4.3895    1.5517 H   0  0  0  0  0  0  0  0  0  0  0  0
    7.1970   -4.6105   -0.4925 H   0  0  0  0  0  0  0  0  0  0  0  0
    5.4942   -3.1139   -0.2815 H   0  0  0  0  0  0  0  0  0  0  0  0
    6.2182   -0.6776    0.2311 H   0  0  0  0  0  0  0  0  0  0  0  0
    5.5557   -1.9849    2.9068 H   0  0  0  0  0  0  0  0  0  0  0  0
    7.9996   -0.3153    2.1202 H   0  0  0  0  0  0  0  0  0  0  0  0
    7.3219   -2.7899    3.8217 H   0  0  0  0  0  0  0  0  0  0  0  0
    9.9289   -1.5120    2.7125 H   0  0  0  0  0  0  0  0  0  0  0  0
    9.1540   -4.1778    4.0762 H   0  0  0  0  0  0  0  0  0  0  0  0
   11.7631   -2.7596    3.1360 H   0  0  0  0  0  0  0  0  0  0  0  0
   11.1246   -5.2700    4.8219 H   0  0  0  0  0  0  0  0  0  0  0  0
   13.6099   -3.5205    4.1252 H   0  0  0  0  0  0  0  0  0  0  0  0
   13.2027   -6.1366    5.6810 H   0  0  0  0  0  0  0  0  0  0  0  0
   15.5138   -4.4414    4.5097 H   0  0  0  0  0  0  0  0  0  0  0  0
   14.9249   -7.4427    4.5803 H   0  0  0  0  0  0  0  0  0  0  0  0
   15.9400   -6.9565    2.2493 H   0  0  0  0  0  0  0  0  0  0  0  0
   14.3043   -6.6474    0.7228 H   0  0  0  0  0  0  0  0  0  0  0  0
   13.1975   -4.7824    1.6495 H   0  0  0  0  0  0  0  0  0  0  0  0
   11.8832   -4.1043    0.3532 H   0  0  0  0  0  0  0  0  0  0  0  0
    9.6105   -5.9659    1.3195 H   0  0  0  0  0  0  0  0  0  0  0  0
  1  2  1  0  0  0  0
  1 20  2  3  0  0  0
  1 21  1  0  0  0  0
  2  3  2  3  0  0  0
  2 22  1  0  0  0  0
  3  4  1  0  0  0  0
  3 23  1  0  0  0  0
  4  5  2  3  0  0  0
  4 24  1  0  0  0  0
  5  6  1  0  0  0  0
  5 25  1  0  0  0  0
  6  7  2  3  0  0  0
  6 26  1  0  0  0  0
  7  8  1  0  0  0  0
  7 27  1  0  0  0  0
  8  9  2  3  0  0  0
  8 28  1  0  0  0  0
  9 10  1  0  0  0  0
  9 29  1  0  0  0  0
 10 11  2  3  0  0  0
 10 30  1  0  0  0  0
 11 12  1  0  0  0  0
 11 31  1  0  0  0  0
 12 13  2  3  0  0  0
 12 32  1  0  0  0  0
 13 14  1  0  0  0  0
 13 33  1  0  0  0  0
 14 15  2  3  0  0  0
 14 34  1  0  0  0  0
 15 16  1  0  0  0  0
 15 35  1  0  0  0  0
 16 17  2  3  0  0  0
 16 36  1  0  0  0  0
 17 18  1  0  0  0  0
 17 37  1  0  0  0  0
 18 19  2  3  0  0  0
 18 38  1  0  0  0  0
 19 20  1  0  0  0  0
 19 39  1  0  0  0  0
 20 40  1  0  0  0  0
M  END
$$$$
