
 OpenBabel04232216493D

 66 67  0  0  1  0  0  0  0  0999 V2000
    5.5457    0.8090   -4.2986 C   0  0  0  0  0  0  0  0  0  0  0  0
    5.9968    2.5315   -4.7297 C   0  0  3  0  0  0  0  0  0  0  0  0
    4.7410    2.9469   -3.3656 C   0  0  0  0  0  0  0  0  0  0  0  0
    4.9068    2.4554   -1.8335 C   0  0  0  0  0  0  0  0  0  0  0  0
    6.0520    3.2599   -1.3232 C   0  0  0  0  0  0  0  0  0  0  0  0
    7.2298    2.3278   -1.3138 C   0  0  0  0  0  0  0  0  0  0  0  0
    7.9392    2.6140   -2.5569 C   0  0  0  0  0  0  0  0  0  0  0  0
    9.3410    2.3081   -2.3364 C   0  0  0  0  0  0  0  0  0  0  0  0
    9.9721    2.9865   -3.4424 C   0  0  0  0  0  0  0  0  0  0  0  0
   11.4057    2.6865   -3.2632 C   0  0  0  0  0  0  0  0  0  0  0  0
   11.8346    3.1595   -4.5568 C   0  0  0  0  0  0  0  0  0  0  0  0
   13.2651    2.8692   -4.8229 C   0  0  0  0  0  0  0  0  0  0  0  0
   13.1543    3.0384   -6.3019 C   0  0  0  0  0  0  0  0  0  0  0  0
   13.3931    2.2288   -7.1530 O   0  0  0  0  0  0  0  0  0  0  0  0
   12.3944    4.1880   -6.3738 N   0  0  0  0  0  0  0  0  0  0  0  0
   11.6878    4.5391   -7.4340 C   0  0  0  0  0  0  0  0  0  0  0  0
   10.2156    4.7310   -7.3134 C   0  0  0  0  0  0  0  0  0  0  0  0
   10.4750    6.2967   -8.0923 C   0  0  0  0  0  0  0  0  0  0  0  0
   11.3702    7.0309   -9.4965 C   0  0  0  0  0  0  0  0  0  0  0  0
   11.1200    8.2708   -9.6632 O   0  0  0  0  0  0  0  0  0  0  0  0
   12.7377    6.5768  -10.3621 C   0  0  0  0  0  0  0  0  0  0  0  0
   12.9330    5.2678  -11.0796 C   0  0  0  0  0  0  0  0  0  0  0  0
   13.3899    4.0496  -10.2031 C   0  0  0  0  0  0  0  0  0  0  0  0
   14.1392    4.5385   -9.0032 C   0  0  0  0  0  0  0  0  0  0  0  0
   13.1413    5.2940   -8.0687 C   0  0  0  0  0  0  0  0  0  0  0  0
    8.6922    4.2148   -6.2489 C   0  0  0  0  0  0  0  0  0  0  0  0
    7.5779    3.1472   -5.7440 C   0  0  0  0  0  0  0  0  0  0  0  0
    4.7460    0.7356   -3.5026 H   0  0  0  0  0  0  0  0  0  0  0  0
    6.2832    0.1976   -3.7953 H   0  0  0  0  0  0  0  0  0  0  0  0
    4.9155    0.3049   -5.0625 H   0  0  0  0  0  0  0  0  0  0  0  0
    5.2937    2.6808   -5.5509 H   0  0  0  0  0  0  0  0  0  0  0  0
    4.4248    3.9761   -3.3659 H   0  0  0  0  0  0  0  0  0  0  0  0
    3.7773    2.4071   -3.6070 H   0  0  0  0  0  0  0  0  0  0  0  0
    5.0617    1.3691   -1.6770 H   0  0  0  0  0  0  0  0  0  0  0  0
    4.0485    2.6360   -1.1606 H   0  0  0  0  0  0  0  0  0  0  0  0
    5.9000    3.7431   -0.3674 H   0  0  0  0  0  0  0  0  0  0  0  0
    6.1706    4.0977   -2.0264 H   0  0  0  0  0  0  0  0  0  0  0  0
    7.0125    1.2557   -1.3346 H   0  0  0  0  0  0  0  0  0  0  0  0
    7.8403    2.5117   -0.4278 H   0  0  0  0  0  0  0  0  0  0  0  0
    7.7960    3.6596   -2.9258 H   0  0  0  0  0  0  0  0  0  0  0  0
    7.6200    1.9420   -3.3644 H   0  0  0  0  0  0  0  0  0  0  0  0
    9.5224    1.2515   -2.4394 H   0  0  0  0  0  0  0  0  0  0  0  0
    9.7450    2.7005   -1.4090 H   0  0  0  0  0  0  0  0  0  0  0  0
    9.7500    4.1065   -3.5002 H   0  0  0  0  0  0  0  0  0  0  0  0
    9.5613    2.5763   -4.4007 H   0  0  0  0  0  0  0  0  0  0  0  0
   11.5911    1.6191   -3.1754 H   0  0  0  0  0  0  0  0  0  0  0  0
   11.8365    3.2622   -2.4685 H   0  0  0  0  0  0  0  0  0  0  0  0
   11.5762    4.2484   -4.5217 H   0  0  0  0  0  0  0  0  0  0  0  0
   11.1880    2.7075   -5.3382 H   0  0  0  0  0  0  0  0  0  0  0  0
   13.5386    1.8372   -4.6175 H   0  0  0  0  0  0  0  0  0  0  0  0
   13.9220    3.5988   -4.3731 H   0  0  0  0  0  0  0  0  0  0  0  0
   12.8037    4.9728   -5.8444 H   0  0  0  0  0  0  0  0  0  0  0  0
   11.1068    6.7789   -7.3003 H   0  0  0  0  0  0  0  0  0  0  0  0
    9.5637    6.9078   -7.9849 H   0  0  0  0  0  0  0  0  0  0  0  0
   13.6923    6.8866   -9.8605 H   0  0  0  0  0  0  0  0  0  0  0  0
   12.8069    7.3111  -11.1984 H   0  0  0  0  0  0  0  0  0  0  0  0
   13.7796    5.3535  -11.8249 H   0  0  0  0  0  0  0  0  0  0  0  0
   12.0756    4.9595  -11.6506 H   0  0  0  0  0  0  0  0  0  0  0  0
   13.9937    3.3231  -10.7672 H   0  0  0  0  0  0  0  0  0  0  0  0
   12.5066    3.5251   -9.8672 H   0  0  0  0  0  0  0  0  0  0  0  0
   14.9983    5.1766   -9.2997 H   0  0  0  0  0  0  0  0  0  0  0  0
   14.6463    3.7069   -8.4900 H   0  0  0  0  0  0  0  0  0  0  0  0
   13.0500    6.3665   -8.1794 H   0  0  0  0  0  0  0  0  0  0  0  0
   13.8787    5.4369   -7.2399 H   0  0  0  0  0  0  0  0  0  0  0  0
    8.4512    5.1866   -5.8145 H   0  0  0  0  0  0  0  0  0  0  0  0
    7.7596    2.1282   -6.2004 H   0  0  0  0  0  0  0  0  0  0  0  0
  1  2  1  0  0  0  0
  1 28  1  0  0  0  0
  1 29  1  0  0  0  0
  1 30  1  0  0  0  0
  2  3  1  0  0  0  0
  2 27  1  0  0  0  0
  2 31  1  0  0  0  0
  3  4  1  0  0  0  0
  3 32  1  0  0  0  0
  3 33  1  0  0  0  0
  4  5  1  0  0  0  0
  4 34  1  0  0  0  0
  4 35  1  0  0  0  0
  5  6  1  0  0  0  0
  5 36  1  0  0  0  0
  5 37  1  0  0  0  0
  6  7  1  0  0  0  0
  6 38  1  0  0  0  0
  6 39  1  0  0  0  0
  7  8  1  0  0  0  0
  7 40  1  0  0  0  0
  7 41  1  0  0  0  0
  8  9  1  0  0  0  0
  8 42  1  0  0  0  0
  8 43  1  0  0  0  0
  9 10  1  0  0  0  0
  9 44  1  0  0  0  0
  9 45  1  0  0  0  0
 10 11  1  0  0  0  0
 10 46  1  0  0  0  0
 10 47  1  0  0  0  0
 11 12  1  0  0  0  0
 11 48  1  0  0  0  0
 11 49  1  0  0  0  0
 12 13  1  0  0  0  0
 12 50  1  0  0  0  0
 12 51  1  0  0  0  0
 13 14  2  0  0  0  0
 13 15  1  0  0  0  0
 15 16  1  0  0  0  0
 15 52  1  0  0  0  0
 16 17  2  3  0  0  0
 16 25  1  0  0  0  0
 17 18  1  0  0  0  0
 17 26  1  0  0  0  0
 18 19  1  0  0  0  0
 18 53  1  0  0  0  0
 18 54  1  0  0  0  0
 19 20  2  0  0  0  0
 19 21  1  0  0  0  0
 21 22  1  0  0  0  0
 21 55  1  0  0  0  0
 21 56  1  0  0  0  0
 22 23  1  0  0  0  0
 22 57  1  0  0  0  0
 22 58  1  0  0  0  0
 23 24  1  0  0  0  0
 23 59  1  0  0  0  0
 23 60  1  0  0  0  0
 24 25  1  0  0  0  0
 24 61  1  0  0  0  0
 24 62  1  0  0  0  0
 25 63  1  0  0  0  0
 25 64  1  0  0  0  0
 26 27  2  3  0  0  0
 26 65  1  0  0  0  0
 27 66  1  0  0  0  0
M  END
$$$$
