
 OpenBabel04232216433D

 46 46  0  0  0  0  0  0  0  0999 V2000
    6.1770    3.0473    5.0773 C   0  0  0  0  0  0  0  0  0  0  0  0
    5.1604    1.9612    4.2443 C   0  0  0  0  0  0  0  0  0  0  0  0
    4.4832    2.2797    2.8446 C   0  0  0  0  0  0  0  0  0  0  0  0
    4.8531    1.9730    1.5979 C   0  0  0  0  0  0  0  0  0  0  0  0
    5.7929    2.9260    1.0620 C   0  0  0  0  0  0  0  0  0  0  0  0
    7.0975    2.6431    1.1938 C   0  0  0  0  0  0  0  0  0  0  0  0
    7.7051    1.2691    1.0271 C   0  0  0  0  0  0  0  0  0  0  0  0
    7.8544    3.6192    1.9954 C   0  0  0  0  0  0  0  0  0  0  0  0
    8.8626    3.1213    2.7005 C   0  0  0  0  0  0  0  0  0  0  0  0
    9.6245    3.7456    3.7804 C   0  0  0  0  0  0  0  0  0  0  0  0
   11.0886    3.4784    3.4283 C   0  0  0  0  0  0  0  0  0  0  0  0
   11.9952    4.1585    4.3814 C   0  0  0  0  0  0  0  0  0  0  0  0
   11.8930    5.5157    4.4320 C   0  0  0  0  0  0  0  0  0  0  0  0
   10.8484    5.9831    5.3755 C   0  0  0  0  0  0  0  0  0  0  0  0
   10.5695    5.2737    6.4927 C   0  0  0  0  0  0  0  0  0  0  0  0
   11.8841    5.0748    7.3580 C   0  0  0  0  0  0  0  0  0  0  0  0
    9.1340    5.1766    7.0205 C   0  0  0  0  0  0  0  0  0  0  0  0
    9.2273    6.0148    8.3129 C   0  0  0  0  0  0  0  0  0  0  0  0
    7.8742    4.7058    6.6056 C   0  0  0  0  0  0  0  0  0  0  0  0
    6.9745    4.1620    5.3865 C   0  0  0  0  0  0  0  0  0  0  0  0
    5.3632    3.7049    4.6953 H   0  0  0  0  0  0  0  0  0  0  0  0
    4.2678    1.8673    4.8896 H   0  0  0  0  0  0  0  0  0  0  0  0
    5.5759    0.9392    4.2210 H   0  0  0  0  0  0  0  0  0  0  0  0
    3.3940    2.0757    2.9142 H   0  0  0  0  0  0  0  0  0  0  0  0
    5.1594    0.9184    1.3128 H   0  0  0  0  0  0  0  0  0  0  0  0
    5.4266    3.9518    1.2097 H   0  0  0  0  0  0  0  0  0  0  0  0
    7.1446    0.6213    0.3557 H   0  0  0  0  0  0  0  0  0  0  0  0
    7.7800    0.7479    1.9972 H   0  0  0  0  0  0  0  0  0  0  0  0
    8.7134    1.3622    0.6002 H   0  0  0  0  0  0  0  0  0  0  0  0
    7.4257    4.5888    2.2082 H   0  0  0  0  0  0  0  0  0  0  0  0
    9.2029    2.0989    2.5833 H   0  0  0  0  0  0  0  0  0  0  0  0
    9.3810    3.2373    4.7221 H   0  0  0  0  0  0  0  0  0  0  0  0
    9.3333    4.7944    3.8706 H   0  0  0  0  0  0  0  0  0  0  0  0
   11.3200    3.7855    2.4079 H   0  0  0  0  0  0  0  0  0  0  0  0
   11.2645    2.4022    3.5211 H   0  0  0  0  0  0  0  0  0  0  0  0
   11.9273    3.5562    5.3033 H   0  0  0  0  0  0  0  0  0  0  0  0
   11.9068    6.1110    3.4811 H   0  0  0  0  0  0  0  0  0  0  0  0
   10.0876    6.6135    4.9254 H   0  0  0  0  0  0  0  0  0  0  0  0
   12.5693    4.3068    6.9773 H   0  0  0  0  0  0  0  0  0  0  0  0
   11.7578    4.8635    8.4213 H   0  0  0  0  0  0  0  0  0  0  0  0
   12.4946    5.9999    7.3125 H   0  0  0  0  0  0  0  0  0  0  0  0
    8.2561    6.3179    8.7062 H   0  0  0  0  0  0  0  0  0  0  0  0
    9.7702    6.9541    8.1091 H   0  0  0  0  0  0  0  0  0  0  0  0
    9.7804    5.4942    9.1033 H   0  0  0  0  0  0  0  0  0  0  0  0
    7.1038    4.9939    7.3292 H   0  0  0  0  0  0  0  0  0  0  0  0
    6.6460    5.0772    4.8750 H   0  0  0  0  0  0  0  0  0  0  0  0
  1  2  1  0  0  0  0
  1 20  2  3  0  0  0
  1 21  1  0  0  0  0
  2  3  1  0  0  0  0
  2 22  1  0  0  0  0
  2 23  1  0  0  0  0
  3  4  2  3  0  0  0
  3 24  1  0  0  0  0
  4  5  1  0  0  0  0
  4 25  1  0  0  0  0
  5  6  2  3  0  0  0
  5 26  1  0  0  0  0
  6  7  1  0  0  0  0
  6  8  1  0  0  0  0
  7 27  1  0  0  0  0
  7 28  1  0  0  0  0
  7 29  1  0  0  0  0
  8  9  2  3  0  0  0
  8 30  1  0  0  0  0
  9 10  1  0  0  0  0
  9 31  1  0  0  0  0
 10 11  1  0  0  0  0
 10 32  1  0  0  0  0
 10 33  1  0  0  0  0
 11 12  1  0  0  0  0
 11 34  1  0  0  0  0
 11 35  1  0  0  0  0
 12 13  2  3  0  0  0
 12 36  1  0  0  0  0
 13 14  1  0  0  0  0
 13 37  1  0  0  0  0
 14 15  2  3  0  0  0
 14 38  1  0  0  0  0
 15 16  1  0  0  0  0
 15 17  1  0  0  0  0
 16 39  1  0  0  0  0
 16 40  1  0  0  0  0
 16 41  1  0  0  0  0
 17 18  1  0  0  0  0
 17 19  2  3  0  0  0
 18 42  1  0  0  0  0
 18 43  1  0  0  0  0
 18 44  1  0  0  0  0
 19 20  1  0  0  0  0
 19 45  1  0  0  0  0
 20 46  1  0  0  0  0
M  END
$$$$
