
 OpenBabel04232216563D

 83 83  0  0  0  0  0  0  0  0999 V2000
    2.3199    5.4258   -2.9431 C   0  0  0  0  0  0  0  0  0  0  0  0
    3.7240    5.3244   -2.7726 N   0  0  0  0  0  0  0  0  0  0  0  0
    4.7928    5.7717   -2.4669 N   0  0  0  0  0  0  0  0  0  0  0  0
    4.7849    4.5332   -2.8830 C   0  0  0  0  0  0  0  0  0  0  0  0
    4.0606    3.4791   -3.3311 O   0  0  0  0  0  0  0  0  0  0  0  0
    4.9328    2.3754   -3.5691 O   0  0  0  0  0  0  0  0  0  0  0  0
    4.1232    1.2478   -4.0237 O   0  0  0  0  0  0  0  0  0  0  0  0
    3.4151    1.6318   -5.2110 O   0  0  0  0  0  0  0  0  0  0  0  0
    4.3794    1.9604   -6.2012 O   0  0  0  0  0  0  0  0  0  0  0  0
    3.7014    2.3517   -7.3581 O   0  0  0  0  0  0  0  0  0  0  0  0
    4.6572    2.6634   -8.3176 O   0  0  0  0  0  0  0  0  0  0  0  0
    3.9534    3.0330   -9.4549 O   0  0  0  0  0  0  0  0  0  0  0  0
    4.8977    3.3420  -10.4053 O   0  0  0  0  0  0  0  0  0  0  0  0
    4.1901    3.7049  -11.5212 O   0  0  0  0  0  0  0  0  0  0  0  0
    5.1368    4.0127  -12.4678 O   0  0  0  0  0  0  0  0  0  0  0  0
    4.4283    4.3745  -13.5803 O   0  0  0  0  0  0  0  0  0  0  0  0
    5.3845    4.6772  -14.5113 O   0  0  0  0  0  0  0  0  0  0  0  0
    4.6779    5.0380  -15.6207 O   0  0  0  0  0  0  0  0  0  0  0  0
    5.6273    5.3408  -16.5520 O   0  0  0  0  0  0  0  0  0  0  0  0
    4.9179    5.7011  -17.6600 O   0  0  0  0  0  0  0  0  0  0  0  0
    5.8679    6.0035  -18.5899 O   0  0  0  0  0  0  0  0  0  0  0  0
    5.1588    6.3634  -19.6968 O   0  0  0  0  0  0  0  0  0  0  0  0
    6.1083    6.6660  -20.6272 O   0  0  0  0  0  0  0  0  0  0  0  0
    5.3993    7.0260  -21.7341 O   0  0  0  0  0  0  0  0  0  0  0  0
    6.3490    7.3284  -22.6643 O   0  0  0  0  0  0  0  0  0  0  0  0
    5.6396    7.6884  -23.7713 O   0  0  0  0  0  0  0  0  0  0  0  0
    6.5895    7.9909  -24.7015 O   0  0  0  0  0  0  0  0  0  0  0  0
    5.8803    8.3508  -25.8083 O   0  0  0  0  0  0  0  0  0  0  0  0
    6.8300    8.6532  -26.7382 O   0  0  0  0  0  0  0  0  0  0  0  0
    6.1210    9.0132  -27.8453 O   0  0  0  0  0  0  0  0  0  0  0  0
    7.0707    9.3156  -28.7752 O   0  0  0  0  0  0  0  0  0  0  0  0
    6.3616    9.6756  -29.8824 O   0  0  0  0  0  0  0  0  0  0  0  0
    7.3113    9.9780  -30.8123 O   0  0  0  0  0  0  0  0  0  0  0  0
    6.6022   10.3381  -31.9195 O   0  0  0  0  0  0  0  0  0  0  0  0
    7.5519   10.6405  -32.8494 O   0  0  0  0  0  0  0  0  0  0  0  0
    6.8428   11.0005  -33.9565 O   0  0  0  0  0  0  0  0  0  0  0  0
    7.7925   11.3029  -34.8865 O   0  0  0  0  0  0  0  0  0  0  0  0
    7.0834   11.6629  -35.9936 O   0  0  0  0  0  0  0  0  0  0  0  0
    8.0331   11.9653  -36.9235 O   0  0  0  0  0  0  0  0  0  0  0  0
    7.3241   12.3253  -38.0307 O   0  0  0  0  0  0  0  0  0  0  0  0
    8.2737   12.6277  -38.9606 O   0  0  0  0  0  0  0  0  0  0  0  0
    7.5647   12.9878  -40.0678 O   0  0  0  0  0  0  0  0  0  0  0  0
    8.5144   13.2902  -40.9977 O   0  0  0  0  0  0  0  0  0  0  0  0
    7.8053   13.6502  -42.1048 O   0  0  0  0  0  0  0  0  0  0  0  0
    8.7550   13.9526  -43.0348 O   0  0  0  0  0  0  0  0  0  0  0  0
    8.0459   14.3126  -44.1419 O   0  0  0  0  0  0  0  0  0  0  0  0
    8.9956   14.6150  -45.0719 O   0  0  0  0  0  0  0  0  0  0  0  0
    8.2865   14.9750  -46.1790 O   0  0  0  0  0  0  0  0  0  0  0  0
    9.2362   15.2774  -47.1089 O   0  0  0  0  0  0  0  0  0  0  0  0
    8.5271   15.6375  -48.2161 O   0  0  0  0  0  0  0  0  0  0  0  0
    9.4768   15.9399  -49.1460 O   0  0  0  0  0  0  0  0  0  0  0  0
    8.7678   16.2999  -50.2531 O   0  0  0  0  0  0  0  0  0  0  0  0
    9.7174   16.6023  -51.1831 O   0  0  0  0  0  0  0  0  0  0  0  0
    9.0084   16.9623  -52.2902 O   0  0  0  0  0  0  0  0  0  0  0  0
    9.9581   17.2647  -53.2202 O   0  0  0  0  0  0  0  0  0  0  0  0
    9.2490   17.6247  -54.3273 O   0  0  0  0  0  0  0  0  0  0  0  0
   10.1987   17.9271  -55.2572 O   0  0  0  0  0  0  0  0  0  0  0  0
    9.4896   18.2872  -56.3644 O   0  0  0  0  0  0  0  0  0  0  0  0
   10.4394   18.5896  -57.2943 O   0  0  0  0  0  0  0  0  0  0  0  0
    9.7302   18.9496  -58.4015 O   0  0  0  0  0  0  0  0  0  0  0  0
   10.6799   19.2520  -59.3314 O   0  0  0  0  0  0  0  0  0  0  0  0
    9.9692   19.6114  -60.4365 O   0  0  0  0  0  0  0  0  0  0  0  0
   10.9207   19.9140  -61.3672 O   0  0  0  0  0  0  0  0  0  0  0  0
   10.2124   20.2742  -62.4750 O   0  0  0  0  0  0  0  0  0  0  0  0
   11.1625   20.5761  -63.4032 O   0  0  0  0  0  0  0  0  0  0  0  0
   10.4519   20.9363  -64.5108 O   0  0  0  0  0  0  0  0  0  0  0  0
   11.4017   21.2388  -65.4412 O   0  0  0  0  0  0  0  0  0  0  0  0
   10.6930   21.5997  -66.5512 O   0  0  0  0  0  0  0  0  0  0  0  0
   11.6424   21.9018  -67.4801 O   0  0  0  0  0  0  0  0  0  0  0  0
   10.9409   22.2631  -68.5911 O   0  0  0  0  0  0  0  0  0  0  0  0
   11.8908   22.5664  -69.5238 O   0  0  0  0  0  0  0  0  0  0  0  0
   11.1884   22.9299  -70.6418 O   0  0  0  0  0  0  0  0  0  0  0  0
   12.1332   23.2385  -71.5907 O   0  0  0  0  0  0  0  0  0  0  0  0
   11.4201   23.6036  -72.7134 O   0  0  0  0  0  0  0  0  0  0  0  0
   12.3559   23.9182  -73.6808 O   0  0  0  0  0  0  0  0  0  0  0  0
   11.6513   24.2881  -74.8183 O   0  0  0  0  0  0  0  0  0  0  0  0
   12.6100   24.6022  -75.7843 O   0  0  0  0  0  0  0  0  0  0  0  0
   11.9450   24.9853  -76.9624 O   0  0  0  0  0  0  0  0  0  0  0  0
   12.9320   25.3024  -77.9374 O   0  0  0  0  0  0  0  0  0  0  0  0
    1.9230    6.3966   -2.6744 H   0  0  0  0  0  0  0  0  0  0  0  0
    1.8336    4.6569   -2.3332 H   0  0  0  0  0  0  0  0  0  0  0  0
    2.0750    5.2136   -3.9893 H   0  0  0  0  0  0  0  0  0  0  0  0
   12.2789   25.5213  -78.6106 H   0  0  0  0  0  0  0  0  0  0  0  0
  1  2  1  0  0  0  0
  1 80  1  0  0  0  0
  1 81  1  0  0  0  0
  1 82  1  0  0  0  0
  2  3  1  0  0  0  0
  2  4  1  0  0  0  0
  3  4  2  0  0  0  0
  4  5  1  0  0  0  0
  5  6  1  0  0  0  0
  6  7  1  0  0  0  0
  7  8  1  0  0  0  0
  8  9  1  0  0  0  0
  9 10  1  0  0  0  0
 10 11  1  0  0  0  0
 11 12  1  0  0  0  0
 12 13  1  0  0  0  0
 13 14  1  0  0  0  0
 14 15  1  0  0  0  0
 15 16  1  0  0  0  0
 16 17  1  0  0  0  0
 17 18  1  0  0  0  0
 18 19  1  0  0  0  0
 19 20  1  0  0  0  0
 20 21  1  0  0  0  0
 21 22  1  0  0  0  0
 22 23  1  0  0  0  0
 23 24  1  0  0  0  0
 24 25  1  0  0  0  0
 25 26  1  0  0  0  0
 26 27  1  0  0  0  0
 27 28  1  0  0  0  0
 28 29  1  0  0  0  0
 29 30  1  0  0  0  0
 30 31  1  0  0  0  0
 31 32  1  0  0  0  0
 32 33  1  0  0  0  0
 33 34  1  0  0  0  0
 34 35  1  0  0  0  0
 35 36  1  0  0  0  0
 36 37  1  0  0  0  0
 37 38  1  0  0  0  0
 38 39  1  0  0  0  0
 39 40  1  0  0  0  0
 40 41  1  0  0  0  0
 41 42  1  0  0  0  0
 42 43  1  0  0  0  0
 43 44  1  0  0  0  0
 44 45  1  0  0  0  0
 45 46  1  0  0  0  0
 46 47  1  0  0  0  0
 47 48  1  0  0  0  0
 48 49  1  0  0  0  0
 49 50  1  0  0  0  0
 50 51  1  0  0  0  0
 51 52  1  0  0  0  0
 52 53  1  0  0  0  0
 53 54  1  0  0  0  0
 54 55  1  0  0  0  0
 55 56  1  0  0  0  0
 56 57  1  0  0  0  0
 57 58  1  0  0  0  0
 58 59  1  0  0  0  0
 59 60  1  0  0  0  0
 60 61  1  0  0  0  0
 61 62  1  0  0  0  0
 62 63  1  0  0  0  0
 63 64  1  0  0  0  0
 64 65  1  0  0  0  0
 65 66  1  0  0  0  0
 66 67  1  0  0  0  0
 67 68  1  0  0  0  0
 68 69  1  0  0  0  0
 69 70  1  0  0  0  0
 70 71  1  0  0  0  0
 71 72  1  0  0  0  0
 72 73  1  0  0  0  0
 73 74  1  0  0  0  0
 74 75  1  0  0  0  0
 75 76  1  0  0  0  0
 76 77  1  0  0  0  0
 77 78  1  0  0  0  0
 78 79  1  0  0  0  0
 79 83  1  0  0  0  0
M  END
$$$$
