
 OpenBabel04232216493D

 65 65  0  0  1  0  0  0  0  0999 V2000
    7.2693    2.1634   -0.0021 C   0  0  0  0  0  0  0  0  0  0  0  0
    6.4383    1.7404   -1.1976 C   0  0  0  0  0  0  0  0  0  0  0  0
    6.7507    2.4914   -2.2963 C   0  0  0  0  0  0  0  0  0  0  0  0
    6.0616    2.4980   -3.5673 C   0  0  0  0  0  0  0  0  0  0  0  0
    6.5981    1.8064   -4.5633 C   0  0  0  0  0  0  0  0  0  0  0  0
    6.1101    0.3825   -4.6227 C   0  0  0  0  0  0  0  0  0  0  0  0
    5.6159   -0.2496   -5.9204 C   0  0  0  0  0  0  0  0  0  0  0  0
    4.4466   -1.1023   -5.4532 C   0  0  0  0  0  0  0  0  0  0  0  0
    4.7674   -2.3201   -4.9852 C   0  0  0  0  0  0  0  0  0  0  0  0
    4.5792   -2.6561   -3.5171 C   0  0  0  0  0  0  0  0  0  0  0  0
    5.6098   -1.9532   -2.5050 C   0  0  0  0  0  0  0  0  0  0  0  0
    5.1692   -0.9424   -1.3237 C   0  0  0  0  0  0  0  0  0  0  0  0
    5.1870    0.7616   -1.0561 C   0  0  3  0  0  0  0  0  0  0  0  0
    4.1334    1.0274    0.2060 C   0  0  0  0  0  0  0  0  0  0  0  0
    4.2832    1.7516    1.5808 C   0  0  0  0  0  0  0  0  0  0  0  0
    3.4639    3.0169    2.0563 C   0  0  0  0  0  0  0  0  0  0  0  0
    2.0293    3.4835    1.6369 C   0  0  0  0  0  0  0  0  0  0  0  0
    0.7411    2.6566    1.8041 C   0  0  0  0  0  0  0  0  0  0  0  0
    0.1316    2.3505    3.1862 C   0  0  0  0  0  0  0  0  0  0  0  0
   -0.4325    3.4831    4.0799 C   0  0  0  0  0  0  0  0  0  0  0  0
   -1.6982    4.2207    3.5906 C   0  0  0  0  0  0  0  0  0  0  0  0
   -2.2304    5.1991    4.6606 C   0  0  0  0  0  0  0  0  0  0  0  0
   -3.4343    6.0279    4.2010 C   0  0  0  0  0  0  0  0  0  0  0  0
   -3.8142    6.9053    5.2703 O   0  0  0  0  0  0  0  0  0  0  0  0
   -4.9552    7.6805    4.7809 O   0  0  0  0  0  0  0  0  0  0  0  0
    8.2185    2.6390   -0.3050 H   0  0  0  0  0  0  0  0  0  0  0  0
    7.5457    1.3476    0.6598 H   0  0  0  0  0  0  0  0  0  0  0  0
    6.7422    2.9450    0.5596 H   0  0  0  0  0  0  0  0  0  0  0  0
    7.5803    3.2034   -2.2787 H   0  0  0  0  0  0  0  0  0  0  0  0
    4.9746    2.4297   -3.4190 H   0  0  0  0  0  0  0  0  0  0  0  0
    7.6892    1.8445   -4.7204 H   0  0  0  0  0  0  0  0  0  0  0  0
    5.3223    0.2887   -3.8573 H   0  0  0  0  0  0  0  0  0  0  0  0
    6.9409   -0.2199   -4.2346 H   0  0  0  0  0  0  0  0  0  0  0  0
    6.4288   -0.8706   -6.3261 H   0  0  0  0  0  0  0  0  0  0  0  0
    5.3134    0.4801   -6.6729 H   0  0  0  0  0  0  0  0  0  0  0  0
    3.6628   -0.5323   -4.9493 H   0  0  0  0  0  0  0  0  0  0  0  0
    5.5385   -2.8882   -5.5070 H   0  0  0  0  0  0  0  0  0  0  0  0
    3.5332   -2.5783   -3.2080 H   0  0  0  0  0  0  0  0  0  0  0  0
    4.7977   -3.7398   -3.5009 H   0  0  0  0  0  0  0  0  0  0  0  0
    5.9217   -2.8457   -1.9328 H   0  0  0  0  0  0  0  0  0  0  0  0
    6.5419   -1.6815   -2.9985 H   0  0  0  0  0  0  0  0  0  0  0  0
    5.6836   -1.3450   -0.4411 H   0  0  0  0  0  0  0  0  0  0  0  0
    4.1062   -1.1961   -1.2084 H   0  0  0  0  0  0  0  0  0  0  0  0
    4.5513    1.0474   -1.8973 H   0  0  0  0  0  0  0  0  0  0  0  0
    3.9355   -0.0020    0.5434 H   0  0  0  0  0  0  0  0  0  0  0  0
    3.1956    1.3681   -0.2396 H   0  0  0  0  0  0  0  0  0  0  0  0
    5.3344    1.9220    1.8372 H   0  0  0  0  0  0  0  0  0  0  0  0
    3.9725    1.0004    2.3244 H   0  0  0  0  0  0  0  0  0  0  0  0
    4.1095    3.8790    1.8244 H   0  0  0  0  0  0  0  0  0  0  0  0
    3.4600    2.9786    3.1537 H   0  0  0  0  0  0  0  0  0  0  0  0
    2.0965    3.7861    0.5967 H   0  0  0  0  0  0  0  0  0  0  0  0
    1.8565    4.4300    2.1964 H   0  0  0  0  0  0  0  0  0  0  0  0
    0.8959    1.7094    1.2785 H   0  0  0  0  0  0  0  0  0  0  0  0
   -0.0346    3.1935    1.2372 H   0  0  0  0  0  0  0  0  0  0  0  0
    0.8679    1.7928    3.7700 H   0  0  0  0  0  0  0  0  0  0  0  0
   -0.7033    1.6563    3.0085 H   0  0  0  0  0  0  0  0  0  0  0  0
    0.3565    4.2069    4.3039 H   0  0  0  0  0  0  0  0  0  0  0  0
   -0.6988    3.0113    5.0383 H   0  0  0  0  0  0  0  0  0  0  0  0
   -2.4881    3.4948    3.3588 H   0  0  0  0  0  0  0  0  0  0  0  0
   -1.4716    4.7702    2.6724 H   0  0  0  0  0  0  0  0  0  0  0  0
   -1.4321    5.8833    4.9754 H   0  0  0  0  0  0  0  0  0  0  0  0
   -2.5140    4.6454    5.5664 H   0  0  0  0  0  0  0  0  0  0  0  0
   -4.2839    5.3796    3.9569 H   0  0  0  0  0  0  0  0  0  0  0  0
   -3.1742    6.6278    3.3235 H   0  0  0  0  0  0  0  0  0  0  0  0
   -4.9698    8.3222    5.5140 H   0  0  0  0  0  0  0  0  0  0  0  0
  1  2  1  0  0  0  0
  1 26  1  0  0  0  0
  1 27  1  0  0  0  0
  1 28  1  0  0  0  0
  2  3  2  3  0  0  0
  2 13  1  0  0  0  0
  3  4  1  0  0  0  0
  3 29  1  0  0  0  0
  4  5  2  3  0  0  0
  4 30  1  0  0  0  0
  5  6  1  0  0  0  0
  5 31  1  0  0  0  0
  6  7  1  0  0  0  0
  6 32  1  0  0  0  0
  6 33  1  0  0  0  0
  7  8  1  0  0  0  0
  7 34  1  0  0  0  0
  7 35  1  0  0  0  0
  8  9  2  3  0  0  0
  8 36  1  0  0  0  0
  9 10  1  0  0  0  0
  9 37  1  0  0  0  0
 10 11  1  0  0  0  0
 10 38  1  0  0  0  0
 10 39  1  0  0  0  0
 11 12  1  0  0  0  0
 11 40  1  0  0  0  0
 11 41  1  0  0  0  0
 12 13  1  0  0  0  0
 12 42  1  0  0  0  0
 12 43  1  0  0  0  0
 13 14  1  0  0  0  0
 13 44  1  0  0  0  0
 14 15  1  0  0  0  0
 14 45  1  0  0  0  0
 14 46  1  0  0  0  0
 15 16  1  0  0  0  0
 15 47  1  0  0  0  0
 15 48  1  0  0  0  0
 16 17  1  0  0  0  0
 16 49  1  0  0  0  0
 16 50  1  0  0  0  0
 17 18  1  0  0  0  0
 17 51  1  0  0  0  0
 17 52  1  0  0  0  0
 18 19  1  0  0  0  0
 18 53  1  0  0  0  0
 18 54  1  0  0  0  0
 19 20  1  0  0  0  0
 19 55  1  0  0  0  0
 19 56  1  0  0  0  0
 20 21  1  0  0  0  0
 20 57  1  0  0  0  0
 20 58  1  0  0  0  0
 21 22  1  0  0  0  0
 21 59  1  0  0  0  0
 21 60  1  0  0  0  0
 22 23  1  0  0  0  0
 22 61  1  0  0  0  0
 22 62  1  0  0  0  0
 23 24  1  0  0  0  0
 23 63  1  0  0  0  0
 23 64  1  0  0  0  0
 24 25  1  0  0  0  0
 25 65  1  0  0  0  0
M  END
$$$$
