
 OpenBabel04232216483D

 60 61  0  0  1  0  0  0  0  0999 V2000
    0.8867    0.7291   -0.6418 C   0  0  0  0  0  0  0  0  0  0  0  0
    2.3954    0.7746   -0.5418 C   0  0  0  0  0  0  0  0  0  0  0  0
    3.0157   -0.3992   -0.6891 C   0  0  0  0  0  0  0  0  0  0  0  0
    4.4213   -0.7104   -0.6798 C   0  0  0  0  0  0  0  0  0  0  0  0
    5.4797    0.0847   -0.5019 C   0  0  0  0  0  0  0  0  0  0  0  0
    6.8291   -0.6592   -0.6883 C   0  0  0  0  0  0  0  0  0  0  0  0
    7.7240   -0.8374    0.5393 C   0  0  0  0  0  0  0  0  0  0  0  0
    7.0989   -1.6338    1.6772 C   0  0  0  0  0  0  0  0  0  0  0  0
    5.5182    1.6161   -0.2422 C   0  0  0  0  0  0  0  0  0  0  0  0
    4.2339    2.5418   -0.2182 C   0  0  0  0  0  0  0  0  0  0  0  0
    4.5148    4.1619   -0.0140 C   0  0  0  0  0  0  0  0  0  0  0  0
    3.3107    5.3386   -0.0181 C   0  0  3  0  0  0  0  0  0  0  0  0
    2.6211    5.2489    1.2427 O   0  0  0  0  0  0  0  0  0  0  0  0
    3.5527    6.9523   -0.2319 C   0  0  0  0  0  0  0  0  0  0  0  0
    4.7735    7.4382    0.1067 C   0  0  0  0  0  0  0  0  0  0  0  0
    5.1677    8.8375    0.0695 C   0  0  0  0  0  0  0  0  0  0  0  0
    5.5954    9.2673   -1.1390 C   0  0  0  0  0  0  0  0  0  0  0  0
    4.4395    9.7684   -1.9278 C   0  0  0  0  0  0  0  0  0  0  0  0
    4.3853   10.6590   -3.1360 C   0  0  3  0  0  0  0  0  0  0  0  0
    4.8856    9.9580   -4.2827 O   0  0  0  0  0  0  0  0  0  0  0  0
    4.9225   10.9263   -5.3734 O   0  0  0  0  0  0  0  0  0  0  0  0
    2.8726   10.9474   -3.3239 C   0  0  0  0  0  0  0  0  0  0  0  0
    1.9081   10.6452   -2.1149 C   0  0  0  0  0  0  0  0  0  0  0  0
    1.5753    9.2168   -1.4246 C   0  0  0  0  0  0  0  0  0  0  0  0
    2.2258    7.8848   -0.5611 C   0  0  0  0  0  0  0  0  0  0  0  0
    2.9630    2.1089   -0.3414 C   0  0  0  0  0  0  0  0  0  0  0  0
    0.5127   -0.2917   -0.8085 H   0  0  0  0  0  0  0  0  0  0  0  0
    0.5461    1.3308   -1.4867 H   0  0  0  0  0  0  0  0  0  0  0  0
    0.4365    1.0878    0.2832 H   0  0  0  0  0  0  0  0  0  0  0  0
    2.4229   -1.2941   -0.8368 H   0  0  0  0  0  0  0  0  0  0  0  0
    4.5727   -1.7752   -0.8795 H   0  0  0  0  0  0  0  0  0  0  0  0
    7.3925   -0.1633   -1.4861 H   0  0  0  0  0  0  0  0  0  0  0  0
    6.6518   -1.6759   -1.0822 H   0  0  0  0  0  0  0  0  0  0  0  0
    8.0461    0.1402    0.9061 H   0  0  0  0  0  0  0  0  0  0  0  0
    8.6303   -1.3720    0.2221 H   0  0  0  0  0  0  0  0  0  0  0  0
    6.1819   -1.1641    2.0416 H   0  0  0  0  0  0  0  0  0  0  0  0
    7.8017   -1.6923    2.5163 H   0  0  0  0  0  0  0  0  0  0  0  0
    6.8678   -2.6604    1.3717 H   0  0  0  0  0  0  0  0  0  0  0  0
    6.1845    2.0347   -1.0046 H   0  0  0  0  0  0  0  0  0  0  0  0
    6.0101    1.7385    0.7302 H   0  0  0  0  0  0  0  0  0  0  0  0
    5.2431    4.4417   -0.7832 H   0  0  0  0  0  0  0  0  0  0  0  0
    5.0143    4.2269    0.9652 H   0  0  0  0  0  0  0  0  0  0  0  0
    2.6035    5.0408   -0.7963 H   0  0  0  0  0  0  0  0  0  0  0  0
    2.8859    4.4197    1.6775 H   0  0  0  0  0  0  0  0  0  0  0  0
    5.5607    6.7818    0.4631 H   0  0  0  0  0  0  0  0  0  0  0  0
    4.4385    9.4516    0.6193 H   0  0  0  0  0  0  0  0  0  0  0  0
    6.2669    8.6463   -1.7258 H   0  0  0  0  0  0  0  0  0  0  0  0
    3.8626   10.3071   -1.1749 H   0  0  0  0  0  0  0  0  0  0  0  0
    3.9288    8.8554   -2.2659 H   0  0  0  0  0  0  0  0  0  0  0  0
    4.9731   11.5724   -2.9847 H   0  0  0  0  0  0  0  0  0  0  0  0
    5.8414   10.7482   -5.6438 H   0  0  0  0  0  0  0  0  0  0  0  0
    2.8040   12.0328   -3.5187 H   0  0  0  0  0  0  0  0  0  0  0  0
    2.4832   10.4848   -4.2385 H   0  0  0  0  0  0  0  0  0  0  0  0
    0.9310   10.9782   -2.5141 H   0  0  0  0  0  0  0  0  0  0  0  0
    2.1030   11.3969   -1.3343 H   0  0  0  0  0  0  0  0  0  0  0  0
    0.8695    8.7565   -2.1295 H   0  0  0  0  0  0  0  0  0  0  0  0
    0.9036    9.6063   -0.6326 H   0  0  0  0  0  0  0  0  0  0  0  0
    1.5343    7.1122   -0.9328 H   0  0  0  0  0  0  0  0  0  0  0  0
    1.8552    8.0905    0.4581 H   0  0  0  0  0  0  0  0  0  0  0  0
    2.1813    2.8551   -0.2774 H   0  0  0  0  0  0  0  0  0  0  0  0
  1  2  1  0  0  0  0
  1 27  1  0  0  0  0
  1 28  1  0  0  0  0
  1 29  1  0  0  0  0
  2  3  2  0  0  0  0
  2 26  1  0  0  0  0
  3  4  1  0  0  0  0
  3 30  1  0  0  0  0
  4  5  2  0  0  0  0
  4 31  1  0  0  0  0
  5  6  1  0  0  0  0
  5  9  1  0  0  0  0
  6  7  1  0  0  0  0
  6 32  1  0  0  0  0
  6 33  1  0  0  0  0
  7  8  1  0  0  0  0
  7 34  1  0  0  0  0
  7 35  1  0  0  0  0
  8 36  1  0  0  0  0
  8 37  1  0  0  0  0
  8 38  1  0  0  0  0
  9 10  1  0  0  0  0
  9 39  1  0  0  0  0
  9 40  1  0  0  0  0
 10 11  1  0  0  0  0
 10 26  2  0  0  0  0
 11 12  1  0  0  0  0
 11 41  1  0  0  0  0
 11 42  1  0  0  0  0
 12 13  1  0  0  0  0
 12 14  1  0  0  0  0
 12 43  1  0  0  0  0
 13 44  1  0  0  0  0
 14 15  2  3  0  0  0
 14 25  1  0  0  0  0
 15 16  1  0  0  0  0
 15 45  1  0  0  0  0
 16 17  2  3  0  0  0
 16 46  1  0  0  0  0
 17 18  1  0  0  0  0
 17 47  1  0  0  0  0
 18 19  1  0  0  0  0
 18 48  1  0  0  0  0
 18 49  1  0  0  0  0
 19 20  1  0  0  0  0
 19 22  1  0  0  0  0
 19 50  1  0  0  0  0
 20 21  1  0  0  0  0
 21 51  1  0  0  0  0
 22 23  1  0  0  0  0
 22 52  1  0  0  0  0
 22 53  1  0  0  0  0
 23 24  1  0  0  0  0
 23 54  1  0  0  0  0
 23 55  1  0  0  0  0
 24 25  1  0  0  0  0
 24 56  1  0  0  0  0
 24 57  1  0  0  0  0
 25 58  1  0  0  0  0
 25 59  1  0  0  0  0
 26 60  1  0  0  0  0
M  END
$$$$
