
 OpenBabel04232216593D

202202  0  0  1  0  0  0  0  0999 V2000
    3.2753   23.6301   -8.0026 O   0  0  0  0  0  0  0  0  0  0  0  0
    2.0921   23.7570   -7.7635 C   0  0  0  0  0  0  0  0  0  0  0  0
    1.3613   23.7016   -6.5106 C   0  0  0  0  0  0  0  0  0  0  0  0
    1.0230   22.7780   -7.6619 C   0  0  3  0  0  0  0  0  0  0  0  0
    1.2446   21.3103   -7.5254 C   0  0  0  0  0  0  0  0  0  0  0  0
    0.3417   20.8122   -6.5304 O   0  0  0  0  0  0  0  0  0  0  0  0
    0.4995   19.4158   -6.2944 C   0  0  0  0  0  0  0  0  0  0  0  0
    1.8118   19.0102   -5.9092 O   0  0  0  0  0  0  0  0  0  0  0  0
    2.2232   19.6947   -4.7338 C   0  0  0  0  0  0  0  0  0  0  0  0
    3.5471   19.3100   -4.3746 O   0  0  0  0  0  0  0  0  0  0  0  0
    3.9445   20.0028   -3.1975 C   0  0  0  0  0  0  0  0  0  0  0  0
    3.1464   19.6089   -2.0836 O   0  0  0  0  0  0  0  0  0  0  0  0
    3.4908   20.3415   -0.9306 C   0  0  0  0  0  0  0  0  0  0  0  0
    3.3800   21.7419   -1.1454 O   0  0  0  0  0  0  0  0  0  0  0  0
    3.7942   22.4705    0.0009 C   0  0  0  0  0  0  0  0  0  0  0  0
    5.1484   22.1670    0.3284 O   0  0  0  0  0  0  0  0  0  0  0  0
    5.5437   22.8271    1.5229 C   0  0  0  0  0  0  0  0  0  0  0  0
    4.7259   22.4323    2.6194 O   0  0  0  0  0  0  0  0  0  0  0  0
    5.0828   23.1550    3.7778 C   0  0  0  0  0  0  0  0  0  0  0  0
    4.9825   24.5483    3.5281 O   0  0  0  0  0  0  0  0  0  0  0  0
    5.3991   25.2933    4.6595 C   0  0  0  0  0  0  0  0  0  0  0  0
    6.7614   25.0133    4.9810 O   0  0  0  0  0  0  0  0  0  0  0  0
    7.1522   25.6914    6.1620 C   0  0  0  0  0  0  0  0  0  0  0  0
    6.3336   25.3095    7.2574 O   0  0  0  0  0  0  0  0  0  0  0  0
    6.6899   26.0494    8.4070 C   0  0  0  0  0  0  0  0  0  0  0  0
    6.5760   27.4511    8.1751 O   0  0  0  0  0  0  0  0  0  0  0  0
    7.0083   28.1942    9.3070 C   0  0  0  0  0  0  0  0  0  0  0  0
    8.3667   27.8953    9.6166 O   0  0  0  0  0  0  0  0  0  0  0  0
    8.7808   28.5620   10.8003 C   0  0  0  0  0  0  0  0  0  0  0  0
    7.9757   28.1881   11.9146 O   0  0  0  0  0  0  0  0  0  0  0  0
    8.3365   28.9174   13.0784 C   0  0  0  0  0  0  0  0  0  0  0  0
    8.1987   30.3166   12.8747 O   0  0  0  0  0  0  0  0  0  0  0  0
    8.6475   31.0282   14.0139 C   0  0  0  0  0  0  0  0  0  0  0  0
    8.5517   32.5079   13.7134 C   0  0  0  0  0  0  0  0  0  0  0  0
    8.9874   33.2896   14.9372 C   0  0  0  0  0  0  0  0  0  0  0  0
    8.8952   34.7797   14.6782 C   0  0  0  0  0  0  0  0  0  0  0  0
    9.3309   35.5402   15.9174 C   0  0  0  0  0  0  0  0  0  0  0  0
    9.2400   37.0324   15.6643 C   0  0  0  0  0  0  0  0  0  0  0  0
    9.6758   37.7936   16.9019 C   0  0  0  0  0  0  0  0  0  0  0  0
    9.5855   39.2859   16.6453 C   0  0  0  0  0  0  0  0  0  0  0  0
   10.0210   40.0480   17.8825 C   0  0  0  0  0  0  0  0  0  0  0  0
    9.9307   41.5401   17.6252 C   0  0  0  0  0  0  0  0  0  0  0  0
   10.3660   42.3027   18.8617 C   0  0  0  0  0  0  0  0  0  0  0  0
   10.2740   43.7946   18.6052 C   0  0  0  0  0  0  0  0  0  0  0  0
   10.7111   44.5570   19.8413 C   0  0  0  0  0  0  0  0  0  0  0  0
   10.6205   46.0489   19.5843 C   0  0  0  0  0  0  0  0  0  0  0  0
   11.0596   46.8114   20.8195 C   0  0  0  0  0  0  0  0  0  0  0  0
   10.9688   48.3033   20.5625 C   0  0  0  0  0  0  0  0  0  0  0  0
   11.4076   49.0655   21.7982 C   0  0  0  0  0  0  0  0  0  0  0  0
   11.3179   50.5574   21.5412 C   0  0  0  0  0  0  0  0  0  0  0  0
   11.7589   51.3198   22.7759 C   0  0  0  0  0  0  0  0  0  0  0  0
   11.6685   52.8117   22.5187 C   0  0  0  0  0  0  0  0  0  0  0  0
   12.1084   53.5744   23.7536 C   0  0  0  0  0  0  0  0  0  0  0  0
   12.0187   55.0665   23.4962 C   0  0  0  0  0  0  0  0  0  0  0  0
   12.4586   55.8291   24.7312 C   0  0  0  0  0  0  0  0  0  0  0  0
   12.3684   57.3212   24.4744 C   0  0  0  0  0  0  0  0  0  0  0  0
   12.8129   58.0836   25.7080 C   0  0  0  0  0  0  0  0  0  0  0  0
   12.7224   59.5758   25.4515 C   0  0  0  0  0  0  0  0  0  0  0  0
   13.1663   60.3383   26.6853 C   0  0  0  0  0  0  0  0  0  0  0  0
   13.0754   61.8305   26.4289 C   0  0  0  0  0  0  0  0  0  0  0  0
   13.5208   62.5928   27.6622 C   0  0  0  0  0  0  0  0  0  0  0  0
   13.4325   64.0849   27.4045 C   0  0  0  0  0  0  0  0  0  0  0  0
   13.8738   64.8473   28.6391 C   0  0  0  0  0  0  0  0  0  0  0  0
   13.7867   66.3393   28.3807 C   0  0  0  0  0  0  0  0  0  0  0  0
   14.2265   67.1019   29.6157 C   0  0  0  0  0  0  0  0  0  0  0  0
   14.1397   68.5939   29.3573 C   0  0  0  0  0  0  0  0  0  0  0  0
   14.5808   69.3567   30.5919 C   0  0  0  0  0  0  0  0  0  0  0  0
   14.4925   70.8488   30.3341 C   0  0  0  0  0  0  0  0  0  0  0  0
   14.9352   71.6119   31.5679 C   0  0  0  0  0  0  0  0  0  0  0  0
   14.8484   73.1044   31.3097 C   0  0  0  0  0  0  0  0  0  0  0  0
   15.2928   73.8675   32.5436 C   0  0  0  0  0  0  0  0  0  0  0  0
   15.2088   75.3611   32.2870 C   0  0  0  0  0  0  0  0  0  0  0  0
   15.6558   76.1252   33.5208 C   0  0  0  0  0  0  0  0  0  0  0  0
   15.5696   77.6207   33.2686 C   0  0  0  0  0  0  0  0  0  0  0  0
   16.0168   78.3887   34.5026 C   0  0  0  0  0  0  0  0  0  0  0  0
   15.9294   79.8865   34.2496 C   0  0  0  0  0  0  0  0  0  0  0  0
   16.3767   80.6671   35.4786 C   0  0  0  0  0  0  0  0  0  0  0  0
   16.2899   82.1600   35.2249 C   0  0  0  0  0  0  0  0  0  0  0  0
    0.7141   24.5437   -6.3074 H   0  0  0  0  0  0  0  0  0  0  0  0
    1.8661   23.2867   -5.6466 H   0  0  0  0  0  0  0  0  0  0  0  0
    0.1272   22.9897   -8.2295 H   0  0  0  0  0  0  0  0  0  0  0  0
    2.2822   21.0909   -7.2452 H   0  0  0  0  0  0  0  0  0  0  0  0
    1.0339   20.8035   -8.4731 H   0  0  0  0  0  0  0  0  0  0  0  0
    0.2152   18.8618   -7.1924 H   0  0  0  0  0  0  0  0  0  0  0  0
   -0.2044   19.1299   -5.5014 H   0  0  0  0  0  0  0  0  0  0  0  0
    1.5368   19.4281   -3.9220 H   0  0  0  0  0  0  0  0  0  0  0  0
    2.1959   20.7800   -4.8865 H   0  0  0  0  0  0  0  0  0  0  0  0
    3.8872   21.0830   -3.3837 H   0  0  0  0  0  0  0  0  0  0  0  0
    4.9901   19.7492   -2.9972 H   0  0  0  0  0  0  0  0  0  0  0  0
    4.5109   20.0600   -0.6447 H   0  0  0  0  0  0  0  0  0  0  0  0
    2.8091   20.0423   -0.1278 H   0  0  0  0  0  0  0  0  0  0  0  0
    3.1179   22.2199    0.8261 H   0  0  0  0  0  0  0  0  0  0  0  0
    3.7028   23.5384   -0.2195 H   0  0  0  0  0  0  0  0  0  0  0  0
    5.5003   23.9066    1.3377 H   0  0  0  0  0  0  0  0  0  0  0  0
    6.5818   22.5461    1.7269 H   0  0  0  0  0  0  0  0  0  0  0  0
    6.1044   22.8720    4.0569 H   0  0  0  0  0  0  0  0  0  0  0  0
    4.4024   22.8694    4.5856 H   0  0  0  0  0  0  0  0  0  0  0  0
    4.7294   25.0547    5.4941 H   0  0  0  0  0  0  0  0  0  0  0  0
    5.2970   26.3570    4.4226 H   0  0  0  0  0  0  0  0  0  0  0  0
    7.1029   26.7683    5.9650 H   0  0  0  0  0  0  0  0  0  0  0  0
    8.1915   25.4193    6.3730 H   0  0  0  0  0  0  0  0  0  0  0  0
    7.7142   25.7759    8.6865 H   0  0  0  0  0  0  0  0  0  0  0  0
    6.0182   25.7617    9.2216 H   0  0  0  0  0  0  0  0  0  0  0  0
    6.3416   27.9576   10.1443 H   0  0  0  0  0  0  0  0  0  0  0  0
    6.9138   29.2586    9.0705 H   0  0  0  0  0  0  0  0  0  0  0  0
    8.7351   29.6411   10.6139 H   0  0  0  0  0  0  0  0  0  0  0  0
    9.8199   28.2812   10.9973 H   0  0  0  0  0  0  0  0  0  0  0  0
    9.3665   28.6602   13.3498 H   0  0  0  0  0  0  0  0  0  0  0  0
    7.6652   28.6081   13.8853 H   0  0  0  0  0  0  0  0  0  0  0  0
    9.6862   30.7583   14.2385 H   0  0  0  0  0  0  0  0  0  0  0  0
    8.0159   30.7698   14.8708 H   0  0  0  0  0  0  0  0  0  0  0  0
    7.5242   32.7672   13.4297 H   0  0  0  0  0  0  0  0  0  0  0  0
    9.1780   32.7580   12.8472 H   0  0  0  0  0  0  0  0  0  0  0  0
   10.0176   33.0206   15.2024 H   0  0  0  0  0  0  0  0  0  0  0  0
    8.3541   33.0211   15.7921 H   0  0  0  0  0  0  0  0  0  0  0  0
    7.8655   35.0508   14.4156 H   0  0  0  0  0  0  0  0  0  0  0  0
    9.5319   35.0523   13.8279 H   0  0  0  0  0  0  0  0  0  0  0  0
   10.3603   35.2675   16.1814 H   0  0  0  0  0  0  0  0  0  0  0  0
    8.6951   35.2657   16.7684 H   0  0  0  0  0  0  0  0  0  0  0  0
    8.2106   37.3047   15.4012 H   0  0  0  0  0  0  0  0  0  0  0  0
    9.8762   37.3063   14.8137 H   0  0  0  0  0  0  0  0  0  0  0  0
   10.7055   37.5215   17.1655 H   0  0  0  0  0  0  0  0  0  0  0  0
    9.0400   37.5201   17.7530 H   0  0  0  0  0  0  0  0  0  0  0  0
    8.5556   39.5579   16.3845 H   0  0  0  0  0  0  0  0  0  0  0  0
   10.2215   39.5577   15.7904 H   0  0  0  0  0  0  0  0  0  0  0  0
   11.0496   39.7749   18.1468 H   0  0  0  0  0  0  0  0  0  0  0  0
    9.3839   39.7761   18.7336 H   0  0  0  0  0  0  0  0  0  0  0  0
    8.9017   41.8119   17.3604 H   0  0  0  0  0  0  0  0  0  0  0  0
   10.5672   41.8127   16.7742 H   0  0  0  0  0  0  0  0  0  0  0  0
   11.3956   42.0310   19.1254 H   0  0  0  0  0  0  0  0  0  0  0  0
    9.7301   42.0296   19.7128 H   0  0  0  0  0  0  0  0  0  0  0  0
    9.2441   44.0663   18.3427 H   0  0  0  0  0  0  0  0  0  0  0  0
   10.9090   44.0675   17.7533 H   0  0  0  0  0  0  0  0  0  0  0  0
   11.7407   44.2846   20.1043 H   0  0  0  0  0  0  0  0  0  0  0  0
   10.0755   44.2848   20.6930 H   0  0  0  0  0  0  0  0  0  0  0  0
    9.5907   46.3217   19.3226 H   0  0  0  0  0  0  0  0  0  0  0  0
   11.2550   46.3209   18.7317 H   0  0  0  0  0  0  0  0  0  0  0  0
   12.0896   46.5389   21.0809 H   0  0  0  0  0  0  0  0  0  0  0  0
   10.4255   46.5393   21.6723 H   0  0  0  0  0  0  0  0  0  0  0  0
    9.9391   48.5760   20.3004 H   0  0  0  0  0  0  0  0  0  0  0  0
   11.6035   48.5754   19.7102 H   0  0  0  0  0  0  0  0  0  0  0  0
   12.4373   48.7922   22.0601 H   0  0  0  0  0  0  0  0  0  0  0  0
   10.7729   48.7939   22.6506 H   0  0  0  0  0  0  0  0  0  0  0  0
   10.2880   50.8308   21.2807 H   0  0  0  0  0  0  0  0  0  0  0  0
   11.9516   50.8289   20.6879 H   0  0  0  0  0  0  0  0  0  0  0  0
   12.7891   51.0467   23.0361 H   0  0  0  0  0  0  0  0  0  0  0  0
   11.1257   51.0480   23.6295 H   0  0  0  0  0  0  0  0  0  0  0  0
   10.6386   53.0846   22.2574 H   0  0  0  0  0  0  0  0  0  0  0  0
   12.3025   53.0833   21.6656 H   0  0  0  0  0  0  0  0  0  0  0  0
   13.1381   53.3010   24.0151 H   0  0  0  0  0  0  0  0  0  0  0  0
   11.4740   53.3031   24.6064 H   0  0  0  0  0  0  0  0  0  0  0  0
   10.9891   55.3398   23.2343 H   0  0  0  0  0  0  0  0  0  0  0  0
   12.6535   55.3378   22.6436 H   0  0  0  0  0  0  0  0  0  0  0  0
   13.4886   55.5559   24.9916 H   0  0  0  0  0  0  0  0  0  0  0  0
   11.8249   55.5572   25.5844 H   0  0  0  0  0  0  0  0  0  0  0  0
   11.3379   57.5948   24.2163 H   0  0  0  0  0  0  0  0  0  0  0  0
   13.0001   57.5924   23.6195 H   0  0  0  0  0  0  0  0  0  0  0  0
   13.8437   57.8102   25.9652 H   0  0  0  0  0  0  0  0  0  0  0  0
   12.1821   57.8119   26.5634 H   0  0  0  0  0  0  0  0  0  0  0  0
   11.6920   59.8493   25.1931 H   0  0  0  0  0  0  0  0  0  0  0  0
   13.3543   59.8472   24.5968 H   0  0  0  0  0  0  0  0  0  0  0  0
   14.1972   60.0654   26.9427 H   0  0  0  0  0  0  0  0  0  0  0  0
   12.5354   60.0666   27.5405 H   0  0  0  0  0  0  0  0  0  0  0  0
   12.0445   62.1041   26.1723 H   0  0  0  0  0  0  0  0  0  0  0  0
   13.7059   62.1021   25.5733 H   0  0  0  0  0  0  0  0  0  0  0  0
   14.5511   62.3183   27.9201 H   0  0  0  0  0  0  0  0  0  0  0  0
   12.8892   62.3228   28.5174 H   0  0  0  0  0  0  0  0  0  0  0  0
   12.4030   64.3593   27.1437 H   0  0  0  0  0  0  0  0  0  0  0  0
   14.0667   64.3552   26.5512 H   0  0  0  0  0  0  0  0  0  0  0  0
   14.9030   64.5724   28.9009 H   0  0  0  0  0  0  0  0  0  0  0  0
   13.2389   64.5776   29.4920 H   0  0  0  0  0  0  0  0  0  0  0  0
   12.7577   66.6141   28.1180 H   0  0  0  0  0  0  0  0  0  0  0  0
   14.4224   66.6090   27.5283 H   0  0  0  0  0  0  0  0  0  0  0  0
   15.2555   66.8269   29.8785 H   0  0  0  0  0  0  0  0  0  0  0  0
   13.5907   66.8322   30.4680 H   0  0  0  0  0  0  0  0  0  0  0  0
   13.1104   68.8688   29.0955 H   0  0  0  0  0  0  0  0  0  0  0  0
   14.7746   68.8634   28.5043 H   0  0  0  0  0  0  0  0  0  0  0  0
   15.6104   69.0823   30.8528 H   0  0  0  0  0  0  0  0  0  0  0  0
   13.9467   69.0863   31.4452 H   0  0  0  0  0  0  0  0  0  0  0  0
   13.4626   71.1231   30.0743 H   0  0  0  0  0  0  0  0  0  0  0  0
   15.1257   71.1189   29.4799 H   0  0  0  0  0  0  0  0  0  0  0  0
   15.9647   71.3366   31.8285 H   0  0  0  0  0  0  0  0  0  0  0  0
   14.3013   71.3427   32.4217 H   0  0  0  0  0  0  0  0  0  0  0  0
   13.8188   73.3795   31.0497 H   0  0  0  0  0  0  0  0  0  0  0  0
   15.4817   73.3732   30.4552 H   0  0  0  0  0  0  0  0  0  0  0  0
   16.3216   73.5895   32.8035 H   0  0  0  0  0  0  0  0  0  0  0  0
   14.6584   73.5983   33.3972 H   0  0  0  0  0  0  0  0  0  0  0  0
   14.1790   75.6364   32.0285 H   0  0  0  0  0  0  0  0  0  0  0  0
   15.8409   75.6290   31.4314 H   0  0  0  0  0  0  0  0  0  0  0  0
   16.6858   75.8480   33.7770 H   0  0  0  0  0  0  0  0  0  0  0  0
   15.0242   75.8529   34.3752 H   0  0  0  0  0  0  0  0  0  0  0  0
   14.5391   77.8944   33.0110 H   0  0  0  0  0  0  0  0  0  0  0  0
   16.2000   77.8892   32.4119 H   0  0  0  0  0  0  0  0  0  0  0  0
   17.0468   78.1122   34.7592 H   0  0  0  0  0  0  0  0  0  0  0  0
   15.3851   78.1159   35.3568 H   0  0  0  0  0  0  0  0  0  0  0  0
   14.8981   80.1566   33.9909 H   0  0  0  0  0  0  0  0  0  0  0  0
   16.5575   80.1518   33.3903 H   0  0  0  0  0  0  0  0  0  0  0  0
   17.4078   80.3979   35.7357 H   0  0  0  0  0  0  0  0  0  0  0  0
   15.7474   80.4033   36.3366 H   0  0  0  0  0  0  0  0  0  0  0  0
   16.9304   82.4489   34.3853 H   0  0  0  0  0  0  0  0  0  0  0  0
   16.6123   82.7144   36.1105 H   0  0  0  0  0  0  0  0  0  0  0  0
   15.2620   82.4545   34.9892 H   0  0  0  0  0  0  0  0  0  0  0  0
  1  2  2  0  0  0  0
  2  3  1  0  0  0  0
  2  4  1  0  0  0  0
  3  4  1  0  0  0  0
  3 79  1  0  0  0  0
  3 80  1  0  0  0  0
  4  5  1  0  0  0  0
  4 81  1  0  0  0  0
  5  6  1  0  0  0  0
  5 82  1  0  0  0  0
  5 83  1  0  0  0  0
  6  7  1  0  0  0  0
  7  8  1  0  0  0  0
  7 84  1  0  0  0  0
  7 85  1  0  0  0  0
  8  9  1  0  0  0  0
  9 10  1  0  0  0  0
  9 86  1  0  0  0  0
  9 87  1  0  0  0  0
 10 11  1  0  0  0  0
 11 12  1  0  0  0  0
 11 88  1  0  0  0  0
 11 89  1  0  0  0  0
 12 13  1  0  0  0  0
 13 14  1  0  0  0  0
 13 90  1  0  0  0  0
 13 91  1  0  0  0  0
 14 15  1  0  0  0  0
 15 16  1  0  0  0  0
 15 92  1  0  0  0  0
 15 93  1  0  0  0  0
 16 17  1  0  0  0  0
 17 18  1  0  0  0  0
 17 94  1  0  0  0  0
 17 95  1  0  0  0  0
 18 19  1  0  0  0  0
 19 20  1  0  0  0  0
 19 96  1  0  0  0  0
 19 97  1  0  0  0  0
 20 21  1  0  0  0  0
 21 22  1  0  0  0  0
 21 98  1  0  0  0  0
 21 99  1  0  0  0  0
 22 23  1  0  0  0  0
 23 24  1  0  0  0  0
 23100  1  0  0  0  0
 23101  1  0  0  0  0
 24 25  1  0  0  0  0
 25 26  1  0  0  0  0
 25102  1  0  0  0  0
 25103  1  0  0  0  0
 26 27  1  0  0  0  0
 27 28  1  0  0  0  0
 27104  1  0  0  0  0
 27105  1  0  0  0  0
 28 29  1  0  0  0  0
 29 30  1  0  0  0  0
 29106  1  0  0  0  0
 29107  1  0  0  0  0
 30 31  1  0  0  0  0
 31 32  1  0  0  0  0
 31108  1  0  0  0  0
 31109  1  0  0  0  0
 32 33  1  0  0  0  0
 33 34  1  0  0  0  0
 33110  1  0  0  0  0
 33111  1  0  0  0  0
 34 35  1  0  0  0  0
 34112  1  0  0  0  0
 34113  1  0  0  0  0
 35 36  1  0  0  0  0
 35114  1  0  0  0  0
 35115  1  0  0  0  0
 36 37  1  0  0  0  0
 36116  1  0  0  0  0
 36117  1  0  0  0  0
 37 38  1  0  0  0  0
 37118  1  0  0  0  0
 37119  1  0  0  0  0
 38 39  1  0  0  0  0
 38120  1  0  0  0  0
 38121  1  0  0  0  0
 39 40  1  0  0  0  0
 39122  1  0  0  0  0
 39123  1  0  0  0  0
 40 41  1  0  0  0  0
 40124  1  0  0  0  0
 40125  1  0  0  0  0
 41 42  1  0  0  0  0
 41126  1  0  0  0  0
 41127  1  0  0  0  0
 42 43  1  0  0  0  0
 42128  1  0  0  0  0
 42129  1  0  0  0  0
 43 44  1  0  0  0  0
 43130  1  0  0  0  0
 43131  1  0  0  0  0
 44 45  1  0  0  0  0
 44132  1  0  0  0  0
 44133  1  0  0  0  0
 45 46  1  0  0  0  0
 45134  1  0  0  0  0
 45135  1  0  0  0  0
 46 47  1  0  0  0  0
 46136  1  0  0  0  0
 46137  1  0  0  0  0
 47 48  1  0  0  0  0
 47138  1  0  0  0  0
 47139  1  0  0  0  0
 48 49  1  0  0  0  0
 48140  1  0  0  0  0
 48141  1  0  0  0  0
 49 50  1  0  0  0  0
 49142  1  0  0  0  0
 49143  1  0  0  0  0
 50 51  1  0  0  0  0
 50144  1  0  0  0  0
 50145  1  0  0  0  0
 51 52  1  0  0  0  0
 51146  1  0  0  0  0
 51147  1  0  0  0  0
 52 53  1  0  0  0  0
 52148  1  0  0  0  0
 52149  1  0  0  0  0
 53 54  1  0  0  0  0
 53150  1  0  0  0  0
 53151  1  0  0  0  0
 54 55  1  0  0  0  0
 54152  1  0  0  0  0
 54153  1  0  0  0  0
 55 56  1  0  0  0  0
 55154  1  0  0  0  0
 55155  1  0  0  0  0
 56 57  1  0  0  0  0
 56156  1  0  0  0  0
 56157  1  0  0  0  0
 57 58  1  0  0  0  0
 57158  1  0  0  0  0
 57159  1  0  0  0  0
 58 59  1  0  0  0  0
 58160  1  0  0  0  0
 58161  1  0  0  0  0
 59 60  1  0  0  0  0
 59162  1  0  0  0  0
 59163  1  0  0  0  0
 60 61  1  0  0  0  0
 60164  1  0  0  0  0
 60165  1  0  0  0  0
 61 62  1  0  0  0  0
 61166  1  0  0  0  0
 61167  1  0  0  0  0
 62 63  1  0  0  0  0
 62168  1  0  0  0  0
 62169  1  0  0  0  0
 63 64  1  0  0  0  0
 63170  1  0  0  0  0
 63171  1  0  0  0  0
 64 65  1  0  0  0  0
 64172  1  0  0  0  0
 64173  1  0  0  0  0
 65 66  1  0  0  0  0
 65174  1  0  0  0  0
 65175  1  0  0  0  0
 66 67  1  0  0  0  0
 66176  1  0  0  0  0
 66177  1  0  0  0  0
 67 68  1  0  0  0  0
 67178  1  0  0  0  0
 67179  1  0  0  0  0
 68 69  1  0  0  0  0
 68180  1  0  0  0  0
 68181  1  0  0  0  0
 69 70  1  0  0  0  0
 69182  1  0  0  0  0
 69183  1  0  0  0  0
 70 71  1  0  0  0  0
 70184  1  0  0  0  0
 70185  1  0  0  0  0
 71 72  1  0  0  0  0
 71186  1  0  0  0  0
 71187  1  0  0  0  0
 72 73  1  0  0  0  0
 72188  1  0  0  0  0
 72189  1  0  0  0  0
 73 74  1  0  0  0  0
 73190  1  0  0  0  0
 73191  1  0  0  0  0
 74 75  1  0  0  0  0
 74192  1  0  0  0  0
 74193  1  0  0  0  0
 75 76  1  0  0  0  0
 75194  1  0  0  0  0
 75195  1  0  0  0  0
 76 77  1  0  0  0  0
 76196  1  0  0  0  0
 76197  1  0  0  0  0
 77 78  1  0  0  0  0
 77198  1  0  0  0  0
 77199  1  0  0  0  0
 78200  1  0  0  0  0
 78201  1  0  0  0  0
 78202  1  0  0  0  0
M  END
$$$$
