
 OpenBabel04232216513D

 98 99  0  0  1  0  0  0  0  0999 V2000
    6.6227   -4.2527    1.6369 C   0  0  0  0  0  0  0  0  0  0  0  0
    7.9263   -4.6777    2.6565 C   0  0  0  0  0  0  0  0  0  0  0  0
    9.3960   -3.7432    3.1118 C   0  0  3  0  0  0  0  0  0  0  0  0
    8.6843   -2.3148    2.2888 C   0  0  0  0  0  0  0  0  0  0  0  0
    7.0826   -1.6163    2.5530 C   0  0  0  0  0  0  0  0  0  0  0  0
    6.9427   -0.3698    3.4349 C   0  0  0  0  0  0  0  0  0  0  0  0
    7.0849   -0.9214    4.8001 C   0  0  0  0  0  0  0  0  0  0  0  0
    8.5518   -0.9982    4.9010 C   0  0  0  0  0  0  0  0  0  0  0  0
    8.7938   -2.1685    5.7572 C   0  0  0  0  0  0  0  0  0  0  0  0
   10.2196   -1.8636    5.9026 C   0  0  0  0  0  0  0  0  0  0  0  0
   10.4498   -1.7806    7.2179 C   0  0  0  0  0  0  0  0  0  0  0  0
   11.7749   -1.3772    7.5960 C   0  0  0  0  0  0  0  0  0  0  0  0
   11.9863   -2.5333    8.5169 C   0  0  0  0  0  0  0  0  0  0  0  0
   12.9508   -3.2627    7.7497 C   0  0  0  0  0  0  0  0  0  0  0  0
   12.5032   -4.2567    6.9666 C   0  0  0  0  0  0  0  0  0  0  0  0
   13.6514   -5.2434    7.7328 C   0  0  0  0  0  0  0  0  0  0  0  0
   14.1341   -6.5538    7.2292 C   0  0  0  0  0  0  0  0  0  0  0  0
   14.6150   -7.6485    8.2193 C   0  0  0  0  0  0  0  0  0  0  0  0
   14.6360   -8.8376    7.2615 C   0  0  0  0  0  0  0  0  0  0  0  0
   14.9570  -10.2031    7.7722 C   0  0  0  0  0  0  0  0  0  0  0  0
   13.9594  -10.6863    8.8159 C   0  0  0  0  0  0  0  0  0  0  0  0
   14.2440  -12.1327    9.1772 C   0  0  0  0  0  0  0  0  0  0  0  0
   15.6566  -12.2638    9.7211 C   0  0  0  0  0  0  0  0  0  0  0  0
   15.9697  -13.6974   10.0778 C   0  0  0  0  0  0  0  0  0  0  0  0
   17.4019  -13.7700   10.5691 C   0  0  0  0  0  0  0  0  0  0  0  0
   17.7366  -15.2021   10.9138 C   0  0  0  0  0  0  0  0  0  0  0  0
   19.1539  -15.3060   11.4253 C   0  0  0  0  0  0  0  0  0  0  0  0
   19.3809  -16.6717   11.7310 O   0  0  0  0  0  0  0  0  0  0  0  0
   20.7422  -16.7235   12.2231 O   0  0  0  0  0  0  0  0  0  0  0  0
   20.9572  -18.0939   12.5288 C   0  0  0  0  0  0  0  0  0  0  0  0
   22.3735  -18.2355   13.0514 C   0  0  0  0  0  0  0  0  0  0  0  0
   22.6852  -19.6758   13.4019 C   0  0  0  0  0  0  0  0  0  0  0  0
   12.2194   -3.7457    5.2502 C   0  0  0  0  0  0  0  0  0  0  0  0
   13.6108   -3.3913    4.9746 C   0  0  0  0  0  0  0  0  0  0  0  0
   14.3249   -3.7863    3.9271 C   0  0  0  0  0  0  0  0  0  0  0  0
   13.5602   -4.6609    3.1211 C   0  0  0  0  0  0  0  0  0  0  0  0
   12.1305   -4.7885    3.0705 C   0  0  0  0  0  0  0  0  0  0  0  0
   11.1987   -4.1514    3.9419 C   0  0  0  0  0  0  0  0  0  0  0  0
    5.6630   -4.3437    2.1944 H   0  0  0  0  0  0  0  0  0  0  0  0
    6.4993   -4.9080    0.7681 H   0  0  0  0  0  0  0  0  0  0  0  0
    6.5303   -3.2607    1.1682 H   0  0  0  0  0  0  0  0  0  0  0  0
    8.1519   -5.7145    2.4244 H   0  0  0  0  0  0  0  0  0  0  0  0
    7.3616   -4.6247    3.5985 H   0  0  0  0  0  0  0  0  0  0  0  0
    9.1048   -3.8726    4.1452 H   0  0  0  0  0  0  0  0  0  0  0  0
    9.3769   -1.4993    2.0561 H   0  0  0  0  0  0  0  0  0  0  0  0
    8.5156   -2.7352    1.2814 H   0  0  0  0  0  0  0  0  0  0  0  0
    6.3654   -2.3477    2.9662 H   0  0  0  0  0  0  0  0  0  0  0  0
    6.6304   -1.2929    1.6022 H   0  0  0  0  0  0  0  0  0  0  0  0
    5.9831    0.1551    3.3996 H   0  0  0  0  0  0  0  0  0  0  0  0
    7.7136    0.3567    3.1463 H   0  0  0  0  0  0  0  0  0  0  0  0
    6.6056   -1.9189    4.9006 H   0  0  0  0  0  0  0  0  0  0  0  0
    6.7030   -0.3094    5.6229 H   0  0  0  0  0  0  0  0  0  0  0  0
    8.9385   -0.0459    5.2837 H   0  0  0  0  0  0  0  0  0  0  0  0
    9.1106   -1.1005    3.9833 H   0  0  0  0  0  0  0  0  0  0  0  0
    8.5016   -3.1623    5.4462 H   0  0  0  0  0  0  0  0  0  0  0  0
    8.1952   -2.1031    6.6672 H   0  0  0  0  0  0  0  0  0  0  0  0
   10.8502   -1.6516    5.0947 H   0  0  0  0  0  0  0  0  0  0  0  0
    9.7228   -2.0533    7.8967 H   0  0  0  0  0  0  0  0  0  0  0  0
   11.8089   -0.4081    8.0783 H   0  0  0  0  0  0  0  0  0  0  0  0
   12.4465   -1.3371    6.7167 H   0  0  0  0  0  0  0  0  0  0  0  0
   11.1520   -3.2714    8.6579 H   0  0  0  0  0  0  0  0  0  0  0  0
   12.3108   -2.2401    9.5144 H   0  0  0  0  0  0  0  0  0  0  0  0
   13.8912   -2.7246    7.6375 H   0  0  0  0  0  0  0  0  0  0  0  0
   13.1870   -5.4453    8.7257 H   0  0  0  0  0  0  0  0  0  0  0  0
   14.5880   -4.7077    8.0396 H   0  0  0  0  0  0  0  0  0  0  0  0
   14.9743   -6.3630    6.5552 H   0  0  0  0  0  0  0  0  0  0  0  0
   13.2812   -6.9461    6.6870 H   0  0  0  0  0  0  0  0  0  0  0  0
   13.9383   -7.8079    9.0720 H   0  0  0  0  0  0  0  0  0  0  0  0
   15.6151   -7.4723    8.6541 H   0  0  0  0  0  0  0  0  0  0  0  0
   15.3565   -8.6070    6.4661 H   0  0  0  0  0  0  0  0  0  0  0  0
   13.6481   -8.9139    6.7943 H   0  0  0  0  0  0  0  0  0  0  0  0
   15.9869  -10.1978    8.1320 H   0  0  0  0  0  0  0  0  0  0  0  0
   14.9170  -10.8823    6.9078 H   0  0  0  0  0  0  0  0  0  0  0  0
   12.9350  -10.6097    8.4292 H   0  0  0  0  0  0  0  0  0  0  0  0
   14.0164  -10.0629    9.7147 H   0  0  0  0  0  0  0  0  0  0  0  0
   14.1153  -12.7703    8.2943 H   0  0  0  0  0  0  0  0  0  0  0  0
   13.5189  -12.4685    9.9257 H   0  0  0  0  0  0  0  0  0  0  0  0
   15.7837  -11.6090   10.5920 H   0  0  0  0  0  0  0  0  0  0  0  0
   16.3948  -11.9534    8.9735 H   0  0  0  0  0  0  0  0  0  0  0  0
   15.8443  -14.3285    9.1891 H   0  0  0  0  0  0  0  0  0  0  0  0
   15.2736  -14.0519   10.8427 H   0  0  0  0  0  0  0  0  0  0  0  0
   17.5305  -13.1245   11.4470 H   0  0  0  0  0  0  0  0  0  0  0  0
   18.0883  -13.3994    9.7961 H   0  0  0  0  0  0  0  0  0  0  0  0
   17.6113  -15.8453   10.0335 H   0  0  0  0  0  0  0  0  0  0  0  0
   17.0390  -15.5841   11.6693 H   0  0  0  0  0  0  0  0  0  0  0  0
   19.2859  -14.7000   12.3288 H   0  0  0  0  0  0  0  0  0  0  0  0
   19.8687  -14.9761   10.6629 H   0  0  0  0  0  0  0  0  0  0  0  0
   20.8145  -18.6908   11.6206 H   0  0  0  0  0  0  0  0  0  0  0  0
   20.2284  -18.4121   13.2831 H   0  0  0  0  0  0  0  0  0  0  0  0
   22.5060  -17.5940   13.9308 H   0  0  0  0  0  0  0  0  0  0  0  0
   23.0809  -17.8668   12.2989 H   0  0  0  0  0  0  0  0  0  0  0  0
   22.0037  -20.0439   14.1754 H   0  0  0  0  0  0  0  0  0  0  0  0
   23.7088  -19.7608   13.7768 H   0  0  0  0  0  0  0  0  0  0  0  0
   22.5863  -20.3201   12.5224 H   0  0  0  0  0  0  0  0  0  0  0  0
   14.3170   -3.1190    5.8373 H   0  0  0  0  0  0  0  0  0  0  0  0
   15.4199   -3.7213    3.9866 H   0  0  0  0  0  0  0  0  0  0  0  0
   14.2349   -5.4352    2.7204 H   0  0  0  0  0  0  0  0  0  0  0  0
   11.8210   -5.7458    2.6541 H   0  0  0  0  0  0  0  0  0  0  0  0
  1  2  1  0  0  0  0
  1 39  1  0  0  0  0
  1 40  1  0  0  0  0
  1 41  1  0  0  0  0
  2  3  1  0  0  0  0
  2 42  1  0  0  0  0
  2 43  1  0  0  0  0
  3  4  1  0  0  0  0
  3 38  1  0  0  0  0
  3 44  1  0  0  0  0
  4  5  1  0  0  0  0
  4 45  1  0  0  0  0
  4 46  1  0  0  0  0
  5  6  1  0  0  0  0
  5 47  1  0  0  0  0
  5 48  1  0  0  0  0
  6  7  1  0  0  0  0
  6 49  1  0  0  0  0
  6 50  1  0  0  0  0
  7  8  1  0  0  0  0
  7 51  1  0  0  0  0
  7 52  1  0  0  0  0
  8  9  1  0  0  0  0
  8 53  1  0  0  0  0
  8 54  1  0  0  0  0
  9 10  1  0  0  0  0
  9 55  1  0  0  0  0
  9 56  1  0  0  0  0
 10 11  2  3  0  0  0
 10 57  1  0  0  0  0
 11 12  1  0  0  0  0
 11 58  1  0  0  0  0
 12 13  1  0  0  0  0
 12 59  1  0  0  0  0
 12 60  1  0  0  0  0
 13 14  1  0  0  0  0
 13 61  1  0  0  0  0
 13 62  1  0  0  0  0
 14 15  2  3  0  0  0
 14 63  1  0  0  0  0
 15 16  1  0  0  0  0
 15 33  1  0  0  0  0
 16 17  1  0  0  0  0
 16 64  1  0  0  0  0
 16 65  1  0  0  0  0
 17 18  1  0  0  0  0
 17 66  1  0  0  0  0
 17 67  1  0  0  0  0
 18 19  1  0  0  0  0
 18 68  1  0  0  0  0
 18 69  1  0  0  0  0
 19 20  1  0  0  0  0
 19 70  1  0  0  0  0
 19 71  1  0  0  0  0
 20 21  1  0  0  0  0
 20 72  1  0  0  0  0
 20 73  1  0  0  0  0
 21 22  1  0  0  0  0
 21 74  1  0  0  0  0
 21 75  1  0  0  0  0
 22 23  1  0  0  0  0
 22 76  1  0  0  0  0
 22 77  1  0  0  0  0
 23 24  1  0  0  0  0
 23 78  1  0  0  0  0
 23 79  1  0  0  0  0
 24 25  1  0  0  0  0
 24 80  1  0  0  0  0
 24 81  1  0  0  0  0
 25 26  1  0  0  0  0
 25 82  1  0  0  0  0
 25 83  1  0  0  0  0
 26 27  1  0  0  0  0
 26 84  1  0  0  0  0
 26 85  1  0  0  0  0
 27 28  1  0  0  0  0
 27 86  1  0  0  0  0
 27 87  1  0  0  0  0
 28 29  1  0  0  0  0
 29 30  1  0  0  0  0
 30 31  1  0  0  0  0
 30 88  1  0  0  0  0
 30 89  1  0  0  0  0
 31 32  1  0  0  0  0
 31 90  1  0  0  0  0
 31 91  1  0  0  0  0
 32 92  1  0  0  0  0
 32 93  1  0  0  0  0
 32 94  1  0  0  0  0
 33 34  1  0  0  0  0
 33 38  2  0  0  0  0
 34 35  2  0  0  0  0
 34 95  1  0  0  0  0
 35 36  1  0  0  0  0
 35 96  1  0  0  0  0
 36 37  2  0  0  0  0
 36 97  1  0  0  0  0
 37 38  1  0  0  0  0
 37 98  1  0  0  0  0
M  END
$$$$
