
 OpenBabel04232216543D

203202  0  0  0  0  0  0  0  0999 V2000
    0.8927   -7.0336   -0.3835 C   0  0  0  0  0  0  0  0  0  0  0  0
    2.4063   -7.0733   -0.3847 C   0  0  0  0  0  0  0  0  0  0  0  0
    2.9579   -5.8132   -1.0299 C   0  0  0  0  0  0  0  0  0  0  0  0
    4.4709   -5.8498   -1.0345 C   0  0  0  0  0  0  0  0  0  0  0  0
    5.0106   -4.5945   -1.6739 C   0  0  0  0  0  0  0  0  0  0  0  0
    6.4159   -4.6872   -1.6169 O   0  0  0  0  0  0  0  0  0  0  0  0
    6.8863   -3.4669   -2.2226 O   0  0  0  0  0  0  0  0  0  0  0  0
    8.3215   -3.4902   -2.2669 O   0  0  0  0  0  0  0  0  0  0  0  0
    8.7492   -4.6495   -3.0094 O   0  0  0  0  0  0  0  0  0  0  0  0
   10.1593   -4.6037   -2.9536 C   0  0  0  0  0  0  0  0  0  0  0  0
   10.6658   -5.7898   -3.7311 C   0  0  0  0  0  0  0  0  0  0  0  0
   12.1731   -5.7701   -3.7225 C   0  0  0  0  0  0  0  0  0  0  0  0
   12.6350   -6.8888   -4.4572 O   0  0  0  0  0  0  0  0  0  0  0  0
   14.0557   -6.8872   -4.4635 C   0  0  0  0  0  0  0  0  0  0  0  0
   14.5391   -8.0831   -5.2493 C   0  0  0  0  0  0  0  0  0  0  0  0
   16.0565   -8.0915   -5.2599 C   0  0  0  0  0  0  0  0  0  0  0  0
   16.5698   -9.2823   -6.0448 C   0  0  0  0  0  0  0  0  0  0  0  0
   18.0877   -9.2810   -6.0512 C   0  0  0  0  0  0  0  0  0  0  0  0
   18.5998  -10.4743   -6.8354 C   0  0  0  0  0  0  0  0  0  0  0  0
   20.1167  -10.4759   -6.8415 C   0  0  0  0  0  0  0  0  0  0  0  0
   20.6270  -11.6708   -7.6243 C   0  0  0  0  0  0  0  0  0  0  0  0
   22.1436  -11.6714   -7.6319 C   0  0  0  0  0  0  0  0  0  0  0  0
   22.6537  -12.8652   -8.4165 C   0  0  0  0  0  0  0  0  0  0  0  0
   24.1670  -12.8640   -8.4210 C   0  0  0  0  0  0  0  0  0  0  0  0
   24.6809  -14.0590   -9.2065 C   0  0  0  0  0  0  0  0  0  0  0  0
   26.1962  -14.0625   -9.2113 C   0  0  0  0  0  0  0  0  0  0  0  0
   26.7068  -15.2577   -9.9963 C   0  0  0  0  0  0  0  0  0  0  0  0
   28.2240  -15.2597   -9.9999 C   0  0  0  0  0  0  0  0  0  0  0  0
   28.7338  -16.4533  -10.7842 C   0  0  0  0  0  0  0  0  0  0  0  0
   30.2501  -16.4566  -10.7895 C   0  0  0  0  0  0  0  0  0  0  0  0
   30.7609  -17.6498  -11.5726 C   0  0  0  0  0  0  0  0  0  0  0  0
   32.2771  -17.6533  -11.5784 C   0  0  0  0  0  0  0  0  0  0  0  0
   32.7879  -18.8464  -12.3616 C   0  0  0  0  0  0  0  0  0  0  0  0
   34.3036  -18.8486  -12.3687 C   0  0  0  0  0  0  0  0  0  0  0  0
   34.8142  -20.0416  -13.1519 C   0  0  0  0  0  0  0  0  0  0  0  0
   36.3300  -20.0448  -13.1575 C   0  0  0  0  0  0  0  0  0  0  0  0
   36.8412  -21.2371  -13.9425 C   0  0  0  0  0  0  0  0  0  0  0  0
   38.3570  -21.2415  -13.9466 C   0  0  0  0  0  0  0  0  0  0  0  0
   38.8678  -22.4327  -14.7333 C   0  0  0  0  0  0  0  0  0  0  0  0
   40.3843  -22.4376  -14.7343 C   0  0  0  0  0  0  0  0  0  0  0  0
   40.8933  -23.6308  -15.5211 C   0  0  0  0  0  0  0  0  0  0  0  0
   42.4117  -23.6358  -15.5222 C   0  0  0  0  0  0  0  0  0  0  0  0
   42.9220  -24.8273  -16.3069 C   0  0  0  0  0  0  0  0  0  0  0  0
   44.4413  -24.8346  -16.3095 C   0  0  0  0  0  0  0  0  0  0  0  0
   44.9476  -26.0257  -17.0948 C   0  0  0  0  0  0  0  0  0  0  0  0
   46.4644  -26.0307  -17.0957 C   0  0  0  0  0  0  0  0  0  0  0  0
   46.9744  -27.2233  -17.8818 C   0  0  0  0  0  0  0  0  0  0  0  0
   48.4914  -27.2287  -17.8830 C   0  0  0  0  0  0  0  0  0  0  0  0
   49.0012  -28.4216  -18.6693 C   0  0  0  0  0  0  0  0  0  0  0  0
   50.5178  -28.4273  -18.6731 C   0  0  0  0  0  0  0  0  0  0  0  0
   51.0241  -29.6214  -19.4604 C   0  0  0  0  0  0  0  0  0  0  0  0
   52.5409  -29.6257  -19.4656 C   0  0  0  0  0  0  0  0  0  0  0  0
   53.0608  -30.8154  -20.2445 C   0  0  0  0  0  0  0  0  0  0  0  0
   54.5708  -30.7908  -20.2241 C   0  0  0  0  0  0  0  0  0  0  0  0
   55.0443  -31.9281  -20.9286 O   0  0  0  0  0  0  0  0  0  0  0  0
   56.4544  -31.9279  -20.9694 C   0  0  0  0  0  0  0  0  0  0  0  0
   56.9507  -33.0149  -21.7245 O   0  0  0  0  0  0  0  0  0  0  0  0
   56.4621  -32.9746  -23.0590 C   0  0  0  0  0  0  0  0  0  0  0  0
   56.9027  -34.0929  -23.7997 O   0  0  0  0  0  0  0  0  0  0  0  0
   56.4578  -35.2947  -23.1860 C   0  0  0  0  0  0  0  0  0  0  0  0
   56.9467  -36.4129  -23.8905 O   0  0  0  0  0  0  0  0  0  0  0  0
   58.3708  -36.4124  -23.9231 C   0  0  0  0  0  0  0  0  0  0  0  0
   58.8627  -37.4977  -24.6835 O   0  0  0  0  0  0  0  0  0  0  0  0
   58.3674  -37.4375  -26.0141 C   0  0  0  0  0  0  0  0  0  0  0  0
   58.8036  -38.5533  -26.7660 O   0  0  0  0  0  0  0  0  0  0  0  0
   58.3535  -39.7602  -26.1755 C   0  0  0  0  0  0  0  0  0  0  0  0
   58.8393  -40.8807  -26.8912 O   0  0  0  0  0  0  0  0  0  0  0  0
   60.2633  -40.8500  -26.9295 C   0  0  0  0  0  0  0  0  0  0  0  0
   60.7782  -41.9344  -27.6941 O   0  0  0  0  0  0  0  0  0  0  0  0
   60.3032  -41.8733  -29.0268 C   0  0  0  0  0  0  0  0  0  0  0  0
   60.7812  -42.9644  -29.7894 O   0  0  0  0  0  0  0  0  0  0  0  0
   60.3171  -44.1784  -29.2155 C   0  0  0  0  0  0  0  0  0  0  0  0
   60.7753  -45.2756  -29.9732 O   0  0  0  0  0  0  0  0  0  0  0  0
   60.3439  -46.4896  -29.3885 C   0  0  0  0  0  0  0  0  0  0  0  0
   60.8411  -47.5723  -30.1445 O   0  0  0  0  0  0  0  0  0  0  0  0
   62.2553  -47.5342  -30.1608 C   0  0  0  0  0  0  0  0  0  0  0  0
   62.7154  -48.6444  -30.9113 O   0  0  0  0  0  0  0  0  0  0  0  0
   64.1527  -48.5491  -30.8749 O   0  0  0  0  0  0  0  0  0  0  0  0
   64.7305  -49.6133  -31.6738 O   0  0  0  0  0  0  0  0  0  0  0  0
   64.2743  -49.5191  -33.0483 O   0  0  0  0  0  0  0  0  0  0  0  0
   64.7290  -48.2805  -33.6532 O   0  0  0  0  0  0  0  0  0  0  0  0
    0.4915   -7.9380    0.0794 H   0  0  0  0  0  0  0  0  0  0  0  0
    0.5091   -6.9655   -1.4066 H   0  0  0  0  0  0  0  0  0  0  0  0
    0.5313   -6.1650    0.1762 H   0  0  0  0  0  0  0  0  0  0  0  0
    2.7557   -7.9563   -0.9326 H   0  0  0  0  0  0  0  0  0  0  0  0
    2.7779   -7.1593    0.6431 H   0  0  0  0  0  0  0  0  0  0  0  0
    2.6123   -4.9267   -0.4831 H   0  0  0  0  0  0  0  0  0  0  0  0
    2.5881   -5.7225   -2.0589 H   0  0  0  0  0  0  0  0  0  0  0  0
    4.8391   -6.7305   -1.5771 H   0  0  0  0  0  0  0  0  0  0  0  0
    4.8623   -5.9414   -0.0128 H   0  0  0  0  0  0  0  0  0  0  0  0
    4.6911   -3.7033   -1.1193 H   0  0  0  0  0  0  0  0  0  0  0  0
    4.6810   -4.5101   -2.7169 H   0  0  0  0  0  0  0  0  0  0  0  0
   10.4921   -4.6465   -1.9097 H   0  0  0  0  0  0  0  0  0  0  0  0
   10.5017   -3.6641   -3.4020 H   0  0  0  0  0  0  0  0  0  0  0  0
   10.2808   -5.7714   -4.7588 H   0  0  0  0  0  0  0  0  0  0  0  0
   10.2846   -6.7265   -3.3040 H   0  0  0  0  0  0  0  0  0  0  0  0
   12.5427   -5.8254   -2.6922 H   0  0  0  0  0  0  0  0  0  0  0  0
   12.5378   -4.8460   -4.1858 H   0  0  0  0  0  0  0  0  0  0  0  0
   14.4233   -6.9386   -3.4319 H   0  0  0  0  0  0  0  0  0  0  0  0
   14.4160   -5.9604   -4.9253 H   0  0  0  0  0  0  0  0  0  0  0  0
   14.1424   -8.0442   -6.2713 H   0  0  0  0  0  0  0  0  0  0  0  0
   14.1473   -9.0062   -4.8046 H   0  0  0  0  0  0  0  0  0  0  0  0
   16.4368   -8.1309   -4.2313 H   0  0  0  0  0  0  0  0  0  0  0  0
   16.4319   -7.1615   -5.7051 H   0  0  0  0  0  0  0  0  0  0  0  0
   16.1919   -9.2421   -7.0735 H   0  0  0  0  0  0  0  0  0  0  0  0
   16.1988  -10.2120   -5.5969 H   0  0  0  0  0  0  0  0  0  0  0  0
   18.4673   -9.3189   -5.0226 H   0  0  0  0  0  0  0  0  0  0  0  0
   18.4603   -8.3514   -6.4994 H   0  0  0  0  0  0  0  0  0  0  0  0
   18.2219  -10.4354   -7.8645 H   0  0  0  0  0  0  0  0  0  0  0  0
   18.2268  -11.4037   -6.3877 H   0  0  0  0  0  0  0  0  0  0  0  0
   20.4952  -10.5138   -5.8126 H   0  0  0  0  0  0  0  0  0  0  0  0
   20.4901   -9.5474   -7.2906 H   0  0  0  0  0  0  0  0  0  0  0  0
   20.2477  -11.6339   -8.6530 H   0  0  0  0  0  0  0  0  0  0  0  0
   20.2548  -12.5995   -7.1745 H   0  0  0  0  0  0  0  0  0  0  0  0
   22.5231  -11.7099   -6.6035 H   0  0  0  0  0  0  0  0  0  0  0  0
   22.5162  -10.7424   -8.0808 H   0  0  0  0  0  0  0  0  0  0  0  0
   22.2757  -12.8261   -9.4455 H   0  0  0  0  0  0  0  0  0  0  0  0
   22.2806  -13.7945   -7.9687 H   0  0  0  0  0  0  0  0  0  0  0  0
   24.5488  -12.9062   -7.3935 H   0  0  0  0  0  0  0  0  0  0  0  0
   24.5442  -11.9377   -8.8706 H   0  0  0  0  0  0  0  0  0  0  0  0
   24.3018  -14.0218  -10.2373 H   0  0  0  0  0  0  0  0  0  0  0  0
   24.3028  -14.9909   -8.7622 H   0  0  0  0  0  0  0  0  0  0  0  0
   26.5738  -14.1035   -8.1827 H   0  0  0  0  0  0  0  0  0  0  0  0
   26.5714  -13.1346   -9.6584 H   0  0  0  0  0  0  0  0  0  0  0  0
   26.3305  -15.2172  -11.0252 H   0  0  0  0  0  0  0  0  0  0  0  0
   26.3329  -16.1863   -9.5489 H   0  0  0  0  0  0  0  0  0  0  0  0
   28.6010  -15.3002   -8.9709 H   0  0  0  0  0  0  0  0  0  0  0  0
   28.5986  -14.3311  -10.4472 H   0  0  0  0  0  0  0  0  0  0  0  0
   28.3571  -16.4138  -11.8143 H   0  0  0  0  0  0  0  0  0  0  0  0
   28.3597  -17.3829  -10.3378 H   0  0  0  0  0  0  0  0  0  0  0  0
   30.6280  -16.4964   -9.7591 H   0  0  0  0  0  0  0  0  0  0  0  0
   30.6253  -15.5273  -11.2362 H   0  0  0  0  0  0  0  0  0  0  0  0
   30.3834  -17.6103  -12.6033 H   0  0  0  0  0  0  0  0  0  0  0  0
   30.3863  -18.5794  -11.1262 H   0  0  0  0  0  0  0  0  0  0  0  0
   32.6547  -17.6928  -10.5478 H   0  0  0  0  0  0  0  0  0  0  0  0
   32.6517  -16.7236  -12.0249 H   0  0  0  0  0  0  0  0  0  0  0  0
   32.4089  -18.8074  -13.3917 H   0  0  0  0  0  0  0  0  0  0  0  0
   32.4138  -19.7759  -11.9140 H   0  0  0  0  0  0  0  0  0  0  0  0
   34.6823  -18.8875  -11.3386 H   0  0  0  0  0  0  0  0  0  0  0  0
   34.6774  -17.9190  -12.8162 H   0  0  0  0  0  0  0  0  0  0  0  0
   34.4366  -20.0020  -14.1825 H   0  0  0  0  0  0  0  0  0  0  0  0
   34.4396  -20.9713  -12.7054 H   0  0  0  0  0  0  0  0  0  0  0  0
   36.7078  -20.0861  -12.1270 H   0  0  0  0  0  0  0  0  0  0  0  0
   36.7053  -19.1149  -13.6029 H   0  0  0  0  0  0  0  0  0  0  0  0
   36.4644  -21.1951  -14.9732 H   0  0  0  0  0  0  0  0  0  0  0  0
   36.4649  -22.1671  -13.4980 H   0  0  0  0  0  0  0  0  0  0  0  0
   38.7332  -21.2846  -12.9155 H   0  0  0  0  0  0  0  0  0  0  0  0
   38.7330  -20.3109  -14.3894 H   0  0  0  0  0  0  0  0  0  0  0  0
   38.4923  -22.3882  -15.7637 H   0  0  0  0  0  0  0  0  0  0  0  0
   38.4901  -23.3627  -14.2907 H   0  0  0  0  0  0  0  0  0  0  0  0
   40.7584  -22.4808  -13.7044 H   0  0  0  0  0  0  0  0  0  0  0  0
   40.7606  -21.5080  -15.1783 H   0  0  0  0  0  0  0  0  0  0  0  0
   40.5192  -23.5871  -16.5506 H   0  0  0  0  0  0  0  0  0  0  0  0
   40.5170  -24.5597  -15.0766 H   0  0  0  0  0  0  0  0  0  0  0  0
   42.7851  -23.6786  -14.4921 H   0  0  0  0  0  0  0  0  0  0  0  0
   42.7875  -22.7062  -15.9656 H   0  0  0  0  0  0  0  0  0  0  0  0
   42.5452  -24.7884  -17.3391 H   0  0  0  0  0  0  0  0  0  0  0  0
   42.5430  -25.7594  -15.8650 H   0  0  0  0  0  0  0  0  0  0  0  0
   44.8120  -24.8759  -15.2782 H   0  0  0  0  0  0  0  0  0  0  0  0
   44.8143  -23.9031  -16.7525 H   0  0  0  0  0  0  0  0  0  0  0  0
   44.5728  -25.9826  -18.1248 H   0  0  0  0  0  0  0  0  0  0  0  0
   44.5704  -26.9551  -16.6508 H   0  0  0  0  0  0  0  0  0  0  0  0
   46.8388  -26.0736  -16.0655 H   0  0  0  0  0  0  0  0  0  0  0  0
   46.8411  -25.1010  -17.5395 H   0  0  0  0  0  0  0  0  0  0  0  0
   46.5996  -27.1803  -18.9119 H   0  0  0  0  0  0  0  0  0  0  0  0
   46.5973  -28.1529  -17.4379 H   0  0  0  0  0  0  0  0  0  0  0  0
   48.8660  -27.2715  -16.8528 H   0  0  0  0  0  0  0  0  0  0  0  0
   48.8681  -26.2989  -18.3268 H   0  0  0  0  0  0  0  0  0  0  0  0
   48.6250  -28.3790  -19.6988 H   0  0  0  0  0  0  0  0  0  0  0  0
   48.6249  -29.3509  -18.2244 H   0  0  0  0  0  0  0  0  0  0  0  0
   50.8945  -28.4693  -17.6435 H   0  0  0  0  0  0  0  0  0  0  0  0
   50.8943  -27.4976  -19.1176 H   0  0  0  0  0  0  0  0  0  0  0  0
   50.6493  -29.5791  -20.4895 H   0  0  0  0  0  0  0  0  0  0  0  0
   50.6515  -30.5505  -19.0138 H   0  0  0  0  0  0  0  0  0  0  0  0
   52.9181  -29.6635  -18.4355 H   0  0  0  0  0  0  0  0  0  0  0  0
   52.9162  -28.6953  -19.9110 H   0  0  0  0  0  0  0  0  0  0  0  0
   52.6961  -30.7936  -21.2823 H   0  0  0  0  0  0  0  0  0  0  0  0
   52.6942  -31.7575  -19.8163 H   0  0  0  0  0  0  0  0  0  0  0  0
   54.9402  -30.8420  -19.1923 H   0  0  0  0  0  0  0  0  0  0  0  0
   54.9444  -29.8822  -20.7002 H   0  0  0  0  0  0  0  0  0  0  0  0
   56.8502  -32.0088  -19.9549 H   0  0  0  0  0  0  0  0  0  0  0  0
   56.8379  -30.9834  -21.4204 H   0  0  0  0  0  0  0  0  0  0  0  0
   56.8356  -32.0661  -23.5518 H   0  0  0  0  0  0  0  0  0  0  0  0
   55.3679  -32.9625  -23.0828 H   0  0  0  0  0  0  0  0  0  0  0  0
   55.3662  -35.3280  -23.1993 H   0  0  0  0  0  0  0  0  0  0  0  0
   56.8044  -35.3698  -22.1557 H   0  0  0  0  0  0  0  0  0  0  0  0
   58.7561  -36.5008  -22.9029 H   0  0  0  0  0  0  0  0  0  0  0  0
   58.7534  -35.4997  -24.3655 H   0  0  0  0  0  0  0  0  0  0  0  0
   58.7381  -36.5295  -26.4993 H   0  0  0  0  0  0  0  0  0  0  0  0
   57.2814  -37.4302  -26.0373 H   0  0  0  0  0  0  0  0  0  0  0  0
   57.2607  -39.7886  -26.1822 H   0  0  0  0  0  0  0  0  0  0  0  0
   58.7028  -39.8530  -25.1460 H   0  0  0  0  0  0  0  0  0  0  0  0
   60.6434  -40.9403  -25.9199 H   0  0  0  0  0  0  0  0  0  0  0  0
   60.6378  -39.9185  -27.3756 H   0  0  0  0  0  0  0  0  0  0  0  0
   60.6592  -40.9499  -29.5191 H   0  0  0  0  0  0  0  0  0  0  0  0
   59.1966  -41.8822  -29.0625 H   0  0  0  0  0  0  0  0  0  0  0  0
   59.2137  -44.1820  -29.2112 H   0  0  0  0  0  0  0  0  0  0  0  0
   60.6867  -44.2745  -28.1928 H   0  0  0  0  0  0  0  0  0  0  0  0
   59.2517  -46.5353  -29.3991 H   0  0  0  0  0  0  0  0  0  0  0  0
   60.6944  -46.5765  -28.3511 H   0  0  0  0  0  0  0  0  0  0  0  0
   62.6365  -47.6177  -29.1384 H   0  0  0  0  0  0  0  0  0  0  0  0
   62.6259  -46.6043  -30.6137 H   0  0  0  0  0  0  0  0  0  0  0  0
   64.2829  -48.4159  -34.4855 H   0  0  0  0  0  0  0  0  0  0  0  0
  1  2  1  0  0  0  0
  1 82  1  0  0  0  0
  1 83  1  0  0  0  0
  1 84  1  0  0  0  0
  2  3  1  0  0  0  0
  2 85  1  0  0  0  0
  2 86  1  0  0  0  0
  3  4  1  0  0  0  0
  3 87  1  0  0  0  0
  3 88  1  0  0  0  0
  4  5  1  0  0  0  0
  4 89  1  0  0  0  0
  4 90  1  0  0  0  0
  5  6  1  0  0  0  0
  5 91  1  0  0  0  0
  5 92  1  0  0  0  0
  6  7  1  0  0  0  0
  7  8  1  0  0  0  0
  8  9  1  0  0  0  0
  9 10  1  0  0  0  0
 10 11  1  0  0  0  0
 10 93  1  0  0  0  0
 10 94  1  0  0  0  0
 11 12  1  0  0  0  0
 11 95  1  0  0  0  0
 11 96  1  0  0  0  0
 12 13  1  0  0  0  0
 12 97  1  0  0  0  0
 12 98  1  0  0  0  0
 13 14  1  0  0  0  0
 14 15  1  0  0  0  0
 14 99  1  0  0  0  0
 14100  1  0  0  0  0
 15 16  1  0  0  0  0
 15101  1  0  0  0  0
 15102  1  0  0  0  0
 16 17  1  0  0  0  0
 16103  1  0  0  0  0
 16104  1  0  0  0  0
 17 18  1  0  0  0  0
 17105  1  0  0  0  0
 17106  1  0  0  0  0
 18 19  1  0  0  0  0
 18107  1  0  0  0  0
 18108  1  0  0  0  0
 19 20  1  0  0  0  0
 19109  1  0  0  0  0
 19110  1  0  0  0  0
 20 21  1  0  0  0  0
 20111  1  0  0  0  0
 20112  1  0  0  0  0
 21 22  1  0  0  0  0
 21113  1  0  0  0  0
 21114  1  0  0  0  0
 22 23  1  0  0  0  0
 22115  1  0  0  0  0
 22116  1  0  0  0  0
 23 24  1  0  0  0  0
 23117  1  0  0  0  0
 23118  1  0  0  0  0
 24 25  1  0  0  0  0
 24119  1  0  0  0  0
 24120  1  0  0  0  0
 25 26  1  0  0  0  0
 25121  1  0  0  0  0
 25122  1  0  0  0  0
 26 27  1  0  0  0  0
 26123  1  0  0  0  0
 26124  1  0  0  0  0
 27 28  1  0  0  0  0
 27125  1  0  0  0  0
 27126  1  0  0  0  0
 28 29  1  0  0  0  0
 28127  1  0  0  0  0
 28128  1  0  0  0  0
 29 30  1  0  0  0  0
 29129  1  0  0  0  0
 29130  1  0  0  0  0
 30 31  1  0  0  0  0
 30131  1  0  0  0  0
 30132  1  0  0  0  0
 31 32  1  0  0  0  0
 31133  1  0  0  0  0
 31134  1  0  0  0  0
 32 33  1  0  0  0  0
 32135  1  0  0  0  0
 32136  1  0  0  0  0
 33 34  1  0  0  0  0
 33137  1  0  0  0  0
 33138  1  0  0  0  0
 34 35  1  0  0  0  0
 34139  1  0  0  0  0
 34140  1  0  0  0  0
 35 36  1  0  0  0  0
 35141  1  0  0  0  0
 35142  1  0  0  0  0
 36 37  1  0  0  0  0
 36143  1  0  0  0  0
 36144  1  0  0  0  0
 37 38  1  0  0  0  0
 37145  1  0  0  0  0
 37146  1  0  0  0  0
 38 39  1  0  0  0  0
 38147  1  0  0  0  0
 38148  1  0  0  0  0
 39 40  1  0  0  0  0
 39149  1  0  0  0  0
 39150  1  0  0  0  0
 40 41  1  0  0  0  0
 40151  1  0  0  0  0
 40152  1  0  0  0  0
 41 42  1  0  0  0  0
 41153  1  0  0  0  0
 41154  1  0  0  0  0
 42 43  1  0  0  0  0
 42155  1  0  0  0  0
 42156  1  0  0  0  0
 43 44  1  0  0  0  0
 43157  1  0  0  0  0
 43158  1  0  0  0  0
 44 45  1  0  0  0  0
 44159  1  0  0  0  0
 44160  1  0  0  0  0
 45 46  1  0  0  0  0
 45161  1  0  0  0  0
 45162  1  0  0  0  0
 46 47  1  0  0  0  0
 46163  1  0  0  0  0
 46164  1  0  0  0  0
 47 48  1  0  0  0  0
 47165  1  0  0  0  0
 47166  1  0  0  0  0
 48 49  1  0  0  0  0
 48167  1  0  0  0  0
 48168  1  0  0  0  0
 49 50  1  0  0  0  0
 49169  1  0  0  0  0
 49170  1  0  0  0  0
 50 51  1  0  0  0  0
 50171  1  0  0  0  0
 50172  1  0  0  0  0
 51 52  1  0  0  0  0
 51173  1  0  0  0  0
 51174  1  0  0  0  0
 52 53  1  0  0  0  0
 52175  1  0  0  0  0
 52176  1  0  0  0  0
 53 54  1  0  0  0  0
 53177  1  0  0  0  0
 53178  1  0  0  0  0
 54 55  1  0  0  0  0
 54179  1  0  0  0  0
 54180  1  0  0  0  0
 55 56  1  0  0  0  0
 56 57  1  0  0  0  0
 56181  1  0  0  0  0
 56182  1  0  0  0  0
 57 58  1  0  0  0  0
 58 59  1  0  0  0  0
 58183  1  0  0  0  0
 58184  1  0  0  0  0
 59 60  1  0  0  0  0
 60 61  1  0  0  0  0
 60185  1  0  0  0  0
 60186  1  0  0  0  0
 61 62  1  0  0  0  0
 62 63  1  0  0  0  0
 62187  1  0  0  0  0
 62188  1  0  0  0  0
 63 64  1  0  0  0  0
 64 65  1  0  0  0  0
 64189  1  0  0  0  0
 64190  1  0  0  0  0
 65 66  1  0  0  0  0
 66 67  1  0  0  0  0
 66191  1  0  0  0  0
 66192  1  0  0  0  0
 67 68  1  0  0  0  0
 68 69  1  0  0  0  0
 68193  1  0  0  0  0
 68194  1  0  0  0  0
 69 70  1  0  0  0  0
 70 71  1  0  0  0  0
 70195  1  0  0  0  0
 70196  1  0  0  0  0
 71 72  1  0  0  0  0
 72 73  1  0  0  0  0
 72197  1  0  0  0  0
 72198  1  0  0  0  0
 73 74  1  0  0  0  0
 74 75  1  0  0  0  0
 74199  1  0  0  0  0
 74200  1  0  0  0  0
 75 76  1  0  0  0  0
 76 77  1  0  0  0  0
 76201  1  0  0  0  0
 76202  1  0  0  0  0
 77 78  1  0  0  0  0
 78 79  1  0  0  0  0
 79 80  1  0  0  0  0
 80 81  1  0  0  0  0
 81203  1  0  0  0  0
M  END
$$$$
