
 OpenBabel04232216583D

 57 56  0  0  0  0  0  0  0  0999 V2000
    6.8310   10.3632   -0.4626 N   0  0  0  0  0  0  0  0  0  0  0  0
    6.3498    9.8570    0.7901 N   0  0  0  0  0  0  0  0  0  0  0  0
    6.8564    8.4887    0.9769 C   0  0  0  0  0  0  0  0  0  0  0  0
    6.3808    7.9054    2.3152 C   0  0  0  0  0  0  0  0  0  0  0  0
    6.8336    6.5179    2.5225 N   0  0  0  0  0  0  0  0  0  0  0  0
    8.2412    6.5178    2.5194 N   0  0  0  0  0  0  0  0  0  0  0  0
    8.7205    5.2094    2.6804 N   0  0  0  0  0  0  0  0  0  0  0  0
   10.1305    5.2041    2.6826 N   0  0  0  0  0  0  0  0  0  0  0  0
   10.6649    5.9719    3.7623 N   0  0  0  0  0  0  0  0  0  0  0  0
   10.1575    5.5048    5.0235 N   0  0  0  0  0  0  0  0  0  0  0  0
   10.6252    4.1679    5.2849 N   0  0  0  0  0  0  0  0  0  0  0  0
   12.0701    4.1457    5.2719 N   0  0  0  0  0  0  0  0  0  0  0  0
   12.5616    5.0317    6.3340 C   0  0  0  0  0  0  0  0  0  0  0  0
   14.0869    5.0469    6.3253 C   0  0  0  0  0  0  0  0  0  0  0  0
   14.5632    5.9610    7.3608 N   0  0  0  0  0  0  0  0  0  0  0  0
   15.9898    5.9322    7.3885 N   0  0  0  0  0  0  0  0  0  0  0  0
   16.4306    6.7800    8.4296 N   0  0  0  0  0  0  0  0  0  0  0  0
   15.9637    6.2763    9.6884 N   0  0  0  0  0  0  0  0  0  0  0  0
   16.4421    7.1541   10.7498 C   0  0  0  0  0  0  0  0  0  0  0  0
   15.9190    6.6435   12.0865 C   0  0  0  0  0  0  0  0  0  0  0  0
   16.4084    7.5390   13.2211 C   0  0  0  0  0  0  0  0  0  0  0  0
   15.8988    7.0432   14.5674 C   0  0  0  0  0  0  0  0  0  0  0  0
   16.3920    7.9373   15.6911 C   0  0  0  0  0  0  0  0  0  0  0  0
    6.5418   11.3323   -0.6123 H   0  0  0  0  0  0  0  0  0  0  0  0
    6.4877    9.8309   -1.2684 H   0  0  0  0  0  0  0  0  0  0  0  0
    5.3191    9.8488    0.8559 H   0  0  0  0  0  0  0  0  0  0  0  0
    7.9441    8.5089    0.9392 H   0  0  0  0  0  0  0  0  0  0  0  0
    6.5000    7.8432    0.1560 H   0  0  0  0  0  0  0  0  0  0  0  0
    5.2814    7.8933    2.3522 H   0  0  0  0  0  0  0  0  0  0  0  0
    6.7120    8.5327    3.1530 H   0  0  0  0  0  0  0  0  0  0  0  0
    6.4730    5.9362    1.7622 H   0  0  0  0  0  0  0  0  0  0  0  0
    8.5905    7.0903    3.2935 H   0  0  0  0  0  0  0  0  0  0  0  0
    8.3487    4.5673    1.9734 H   0  0  0  0  0  0  0  0  0  0  0  0
   10.5200    5.5163    1.7905 H   0  0  0  0  0  0  0  0  0  0  0  0
   10.4690    6.9678    3.6510 H   0  0  0  0  0  0  0  0  0  0  0  0
    9.1294    5.5007    4.9977 H   0  0  0  0  0  0  0  0  0  0  0  0
   10.2751    3.5808    4.5179 H   0  0  0  0  0  0  0  0  0  0  0  0
   12.3603    4.5554    4.3764 H   0  0  0  0  0  0  0  0  0  0  0  0
   12.1857    4.6816    7.3098 H   0  0  0  0  0  0  0  0  0  0  0  0
   12.2185    6.0617    6.1990 H   0  0  0  0  0  0  0  0  0  0  0  0
   14.4338    5.4036    5.3463 H   0  0  0  0  0  0  0  0  0  0  0  0
   14.4716    4.0330    6.4805 H   0  0  0  0  0  0  0  0  0  0  0  0
   14.2306    5.6417    8.2797 H   0  0  0  0  0  0  0  0  0  0  0  0
   16.3755    6.2461    6.4920 H   0  0  0  0  0  0  0  0  0  0  0  0
   16.0702    7.7269    8.2623 H   0  0  0  0  0  0  0  0  0  0  0  0
   16.3210    5.3289    9.8239 H   0  0  0  0  0  0  0  0  0  0  0  0
   16.0772    8.1767   10.5885 H   0  0  0  0  0  0  0  0  0  0  0  0
   17.5391    7.1822   10.7600 H   0  0  0  0  0  0  0  0  0  0  0  0
   16.2600    5.6141   12.2569 H   0  0  0  0  0  0  0  0  0  0  0  0
   14.8219    6.6248   12.0783 H   0  0  0  0  0  0  0  0  0  0  0  0
   16.0659    8.5680   13.0503 H   0  0  0  0  0  0  0  0  0  0  0  0
   17.5051    7.5610   13.2237 H   0  0  0  0  0  0  0  0  0  0  0  0
   16.2411    6.0161   14.7414 H   0  0  0  0  0  0  0  0  0  0  0  0
   14.8023    7.0255   14.5696 H   0  0  0  0  0  0  0  0  0  0  0  0
   17.4862    7.9511   15.7245 H   0  0  0  0  0  0  0  0  0  0  0  0
   16.0237    7.5750   16.6549 H   0  0  0  0  0  0  0  0  0  0  0  0
   16.0403    8.9647   15.5529 H   0  0  0  0  0  0  0  0  0  0  0  0
  1  2  1  0  0  0  0
  1 24  1  0  0  0  0
  1 25  1  0  0  0  0
  2  3  1  0  0  0  0
  2 26  1  0  0  0  0
  3  4  1  0  0  0  0
  3 27  1  0  0  0  0
  3 28  1  0  0  0  0
  4  5  1  0  0  0  0
  4 29  1  0  0  0  0
  4 30  1  0  0  0  0
  5  6  1  0  0  0  0
  5 31  1  0  0  0  0
  6  7  1  0  0  0  0
  6 32  1  0  0  0  0
  7  8  1  0  0  0  0
  7 33  1  0  0  0  0
  8  9  1  0  0  0  0
  8 34  1  0  0  0  0
  9 10  1  0  0  0  0
  9 35  1  0  0  0  0
 10 11  1  0  0  0  0
 10 36  1  0  0  0  0
 11 12  1  0  0  0  0
 11 37  1  0  0  0  0
 12 13  1  0  0  0  0
 12 38  1  0  0  0  0
 13 14  1  0  0  0  0
 13 39  1  0  0  0  0
 13 40  1  0  0  0  0
 14 15  1  0  0  0  0
 14 41  1  0  0  0  0
 14 42  1  0  0  0  0
 15 16  1  0  0  0  0
 15 43  1  0  0  0  0
 16 17  1  0  0  0  0
 16 44  1  0  0  0  0
 17 18  1  0  0  0  0
 17 45  1  0  0  0  0
 18 19  1  0  0  0  0
 18 46  1  0  0  0  0
 19 20  1  0  0  0  0
 19 47  1  0  0  0  0
 19 48  1  0  0  0  0
 20 21  1  0  0  0  0
 20 49  1  0  0  0  0
 20 50  1  0  0  0  0
 21 22  1  0  0  0  0
 21 51  1  0  0  0  0
 21 52  1  0  0  0  0
 22 23  1  0  0  0  0
 22 53  1  0  0  0  0
 22 54  1  0  0  0  0
 23 55  1  0  0  0  0
 23 56  1  0  0  0  0
 23 57  1  0  0  0  0
M  END
$$$$
