
 OpenBabel04232216443D

 55 57  0  0  0  0  0  0  0  0999 V2000
    2.5036    0.8686   -0.8448 C   0  0  0  0  0  0  0  0  0  0  0  0
    3.2412    2.0311   -0.2214 C   0  0  0  0  0  0  0  0  0  0  0  0
    3.9571    1.7530    1.0376 C   0  0  0  0  0  0  0  0  0  0  0  0
    3.4153    2.3486    2.0962 C   0  0  0  0  0  0  0  0  0  0  0  0
    5.0725    0.7410    1.2440 C   0  0  0  0  0  0  0  0  0  0  0  0
    5.5627    0.7279    2.7164 C   0  0  0  0  0  0  0  0  0  0  0  0
    6.8309    1.4648    2.8308 C   0  0  0  0  0  0  0  0  0  0  0  0
    6.9734    2.7357    3.2391 C   0  0  0  0  0  0  0  0  0  0  0  0
    5.8978    3.5551    3.7495 C   0  0  0  0  0  0  0  0  0  0  0  0
    5.1141    3.1930    4.7732 C   0  0  0  0  0  0  0  0  0  0  0  0
    5.3063    1.9048    5.4941 C   0  0  0  0  0  0  0  0  0  0  0  0
    5.2403    0.6582    5.0923 N   0  0  0  0  0  0  0  0  0  0  0  0
    4.8256    0.3462    3.8038 C   0  0  0  0  0  0  0  0  0  0  0  0
    3.4050   -0.3493    3.8462 C   0  0  0  0  0  0  0  0  0  0  0  0
    2.6748   -0.8193    2.5626 C   0  0  0  0  0  0  0  0  0  0  0  0
    1.2394   -1.2986    2.5902 C   0  0  0  0  0  0  0  0  0  0  0  0
    0.9788   -2.6250    2.4639 C   0  0  0  0  0  0  0  0  0  0  0  0
   -0.4288   -2.8591    2.2631 C   0  0  0  0  0  0  0  0  0  0  0  0
   -1.0769   -1.6872    2.2836 C   0  0  0  0  0  0  0  0  0  0  0  0
   -0.0858   -0.6162    2.4708 C   0  0  0  0  0  0  0  0  0  0  0  0
   -0.5463    0.6588    2.4203 C   0  0  0  0  0  0  0  0  0  0  0  0
    0.1889    1.8863    2.2573 C   0  0  0  0  0  0  0  0  0  0  0  0
   -0.0933    3.1380    2.6915 C   0  0  0  0  0  0  0  0  0  0  0  0
    0.8815    4.2236    2.5124 C   0  0  0  0  0  0  0  0  0  0  0  0
    1.1649    4.8153    1.3306 C   0  0  0  0  0  0  0  0  0  0  0  0
    2.5190    5.2210    0.9270 C   0  0  0  0  0  0  0  0  0  0  0  0
    3.3022    4.5483    0.0426 C   0  0  0  0  0  0  0  0  0  0  0  0
    2.9703    3.2985   -0.6448 C   0  0  0  0  0  0  0  0  0  0  0  0
    1.8115    0.4149   -0.1280 H   0  0  0  0  0  0  0  0  0  0  0  0
    3.1801    0.0827   -1.2009 H   0  0  0  0  0  0  0  0  0  0  0  0
    1.8731    1.1846   -1.6854 H   0  0  0  0  0  0  0  0  0  0  0  0
    2.5673    2.9472    1.9578 H   0  0  0  0  0  0  0  0  0  0  0  0
    3.6277    2.2249    3.1361 H   0  0  0  0  0  0  0  0  0  0  0  0
    5.8994    1.0182    0.5775 H   0  0  0  0  0  0  0  0  0  0  0  0
    4.7833   -0.2682    0.9416 H   0  0  0  0  0  0  0  0  0  0  0  0
    7.7092    0.9379    2.4381 H   0  0  0  0  0  0  0  0  0  0  0  0
    7.9362    3.2288    3.1604 H   0  0  0  0  0  0  0  0  0  0  0  0
    5.7313    4.5023    3.2482 H   0  0  0  0  0  0  0  0  0  0  0  0
    4.3066    3.8406    5.1238 H   0  0  0  0  0  0  0  0  0  0  0  0
    5.5244    2.0587    6.5645 H   0  0  0  0  0  0  0  0  0  0  0  0
    2.7293    0.3234    4.3904 H   0  0  0  0  0  0  0  0  0  0  0  0
    3.5236   -1.2353    4.4885 H   0  0  0  0  0  0  0  0  0  0  0  0
    3.2972   -1.6297    2.1522 H   0  0  0  0  0  0  0  0  0  0  0  0
    2.6743   -0.0585    1.8064 H   0  0  0  0  0  0  0  0  0  0  0  0
    1.7156   -3.4142    2.4141 H   0  0  0  0  0  0  0  0  0  0  0  0
   -0.8583   -3.8250    2.0452 H   0  0  0  0  0  0  0  0  0  0  0  0
   -2.1282   -1.5454    2.0827 H   0  0  0  0  0  0  0  0  0  0  0  0
   -1.6262    0.8109    2.3677 H   0  0  0  0  0  0  0  0  0  0  0  0
    1.0443    1.7258    1.6195 H   0  0  0  0  0  0  0  0  0  0  0  0
   -0.9478    3.3442    3.3317 H   0  0  0  0  0  0  0  0  0  0  0  0
    1.6232    4.2454    3.3225 H   0  0  0  0  0  0  0  0  0  0  0  0
    0.4521    4.7651    0.5129 H   0  0  0  0  0  0  0  0  0  0  0  0
    2.9400    6.0975    1.4180 H   0  0  0  0  0  0  0  0  0  0  0  0
    4.3062    4.8986   -0.1581 H   0  0  0  0  0  0  0  0  0  0  0  0
    2.3246    3.4355   -1.5091 H   0  0  0  0  0  0  0  0  0  0  0  0
  1  2  1  0  0  0  0
  1 29  1  0  0  0  0
  1 30  1  0  0  0  0
  1 31  1  0  0  0  0
  2  3  1  0  0  0  0
  2 28  2  3  0  0  0
  3  4  2  0  0  0  0
  3  5  1  0  0  0  0
  4 32  1  0  0  0  0
  4 33  1  0  0  0  0
  5  6  1  0  0  0  0
  5 34  1  0  0  0  0
  5 35  1  0  0  0  0
  6  7  1  0  0  0  0
  6 13  2  0  0  0  0
  7  8  2  0  0  0  0
  7 36  1  0  0  0  0
  8  9  1  0  0  0  0
  8 37  1  0  0  0  0
  9 10  2  0  0  0  0
  9 38  1  0  0  0  0
 10 11  1  0  0  0  0
 10 39  1  0  0  0  0
 11 12  2  0  0  0  0
 11 40  1  0  0  0  0
 12 13  1  0  0  0  0
 13 14  1  0  0  0  0
 14 15  1  0  0  0  0
 14 41  1  0  0  0  0
 14 42  1  0  0  0  0
 15 16  1  0  0  0  0
 15 43  1  0  0  0  0
 15 44  1  0  0  0  0
 16 17  2  0  0  0  0
 16 20  1  0  0  0  0
 17 18  1  0  0  0  0
 17 45  1  0  0  0  0
 18 19  2  0  0  0  0
 18 46  1  0  0  0  0
 19 20  1  0  0  0  0
 19 47  1  0  0  0  0
 20 21  2  3  0  0  0
 21 22  1  0  0  0  0
 21 48  1  0  0  0  0
 22 23  2  3  0  0  0
 22 49  1  0  0  0  0
 23 24  1  0  0  0  0
 23 50  1  0  0  0  0
 24 25  2  3  0  0  0
 24 51  1  0  0  0  0
 25 26  1  0  0  0  0
 25 52  1  0  0  0  0
 26 27  2  3  0  0  0
 26 53  1  0  0  0  0
 27 28  1  0  0  0  0
 27 54  1  0  0  0  0
 28 55  1  0  0  0  0
M  END
$$$$
