
 OpenBabel04232216583D

159158  0  0  0  0  0  0  0  0999 V2000
   19.6580   -8.0216   25.5156 N   0  0  0  0  0  0  0  0  0  0  0  0
   19.2006   -8.7807   24.3949 N   0  0  0  0  0  0  0  0  0  0  0  0
   19.8537   -8.3429   23.2009 N   0  0  0  0  0  0  0  0  0  0  0  0
   21.2814   -8.4914   23.2920 N   0  0  0  0  0  0  0  0  0  0  0  0
   21.6187   -9.8667   23.5219 N   0  0  0  0  0  0  0  0  0  0  0  0
   21.1399  -10.6591   22.4341 N   0  0  0  0  0  0  0  0  0  0  0  0
   21.7444  -10.1868   21.2348 N   0  0  0  0  0  0  0  0  0  0  0  0
   23.1671  -10.3069   21.3537 N   0  0  0  0  0  0  0  0  0  0  0  0
   23.5319  -11.6845   21.5723 N   0  0  0  0  0  0  0  0  0  0  0  0
   23.0598  -12.4984   20.4977 N   0  0  0  0  0  0  0  0  0  0  0  0
   23.6572  -12.0586   19.2662 N   0  0  0  0  0  0  0  0  0  0  0  0
   25.0901  -12.1385   19.3741 N   0  0  0  0  0  0  0  0  0  0  0  0
   25.4545  -13.5024   19.6234 N   0  0  0  0  0  0  0  0  0  0  0  0
   24.9797  -14.3103   18.5603 N   0  0  0  0  0  0  0  0  0  0  0  0
   25.5537  -13.8885   17.3348 N   0  0  0  0  0  0  0  0  0  0  0  0
   26.9683  -13.9607   17.4217 N   0  0  0  0  0  0  0  0  0  0  0  0
   27.3692  -15.3231   17.6544 N   0  0  0  0  0  0  0  0  0  0  0  0
   26.9056  -16.1838   16.5909 N   0  0  0  0  0  0  0  0  0  0  0  0
   27.4620  -15.7364   15.3533 N   0  0  0  0  0  0  0  0  0  0  0  0
   28.8908  -15.7830   15.4599 N   0  0  0  0  0  0  0  0  0  0  0  0
   29.2698  -17.1247   15.7467 N   0  0  0  0  0  0  0  0  0  0  0  0
   28.8086  -17.9737   14.6956 N   0  0  0  0  0  0  0  0  0  0  0  0
   29.3566  -17.5475   13.4461 N   0  0  0  0  0  0  0  0  0  0  0  0
   30.7890  -17.6047   13.4918 N   0  0  0  0  0  0  0  0  0  0  0  0
   31.2196  -18.9548   13.7606 N   0  0  0  0  0  0  0  0  0  0  0  0
   30.7295  -19.8284   12.7326 N   0  0  0  0  0  0  0  0  0  0  0  0
   31.2636  -19.4061   11.4790 N   0  0  0  0  0  0  0  0  0  0  0  0
   32.6870  -19.4400   11.5231 N   0  0  0  0  0  0  0  0  0  0  0  0
   33.1180  -20.7608   11.8150 N   0  0  0  0  0  0  0  0  0  0  0  0
   32.6659  -21.6567   10.7810 N   0  0  0  0  0  0  0  0  0  0  0  0
   33.1840  -21.2601    9.4908 N   0  0  0  0  0  0  0  0  0  0  0  0
   34.6025  -21.2431    9.5644 N   0  0  0  0  0  0  0  0  0  0  0  0
   35.0340  -22.5670    9.8743 N   0  0  0  0  0  0  0  0  0  0  0  0
   34.5577  -23.4599    8.8636 N   0  0  0  0  0  0  0  0  0  0  0  0
   35.0585  -23.0615    7.5778 N   0  0  0  0  0  0  0  0  0  0  0  0
   36.5073  -23.0892    7.5712 N   0  0  0  0  0  0  0  0  0  0  0  0
   36.9673  -24.4090    7.8949 N   0  0  0  0  0  0  0  0  0  0  0  0
   36.4895  -25.3122    6.8947 N   0  0  0  0  0  0  0  0  0  0  0  0
   36.9645  -24.9049    5.6171 N   0  0  0  0  0  0  0  0  0  0  0  0
   38.3938  -24.9061    5.6122 N   0  0  0  0  0  0  0  0  0  0  0  0
   38.8925  -26.2187    5.9048 N   0  0  0  0  0  0  0  0  0  0  0  0
   38.3785  -27.1365    4.9531 N   0  0  0  0  0  0  0  0  0  0  0  0
   38.8402  -26.7269    3.6704 N   0  0  0  0  0  0  0  0  0  0  0  0
   40.2614  -26.6856    3.6905 N   0  0  0  0  0  0  0  0  0  0  0  0
   40.7953  -28.0058    3.9587 N   0  0  0  0  0  0  0  0  0  0  0  0
   40.3242  -28.9693    2.9876 N   0  0  0  0  0  0  0  0  0  0  0  0
   40.7755  -28.5748    1.7038 N   0  0  0  0  0  0  0  0  0  0  0  0
   42.1963  -28.5335    1.6890 N   0  0  0  0  0  0  0  0  0  0  0  0
   42.7156  -29.8235    2.0057 N   0  0  0  0  0  0  0  0  0  0  0  0
   42.2583  -30.7851    1.0519 N   0  0  0  0  0  0  0  0  0  0  0  0
   42.6710  -30.3913   -0.2495 N   0  0  0  0  0  0  0  0  0  0  0  0
   44.0982  -30.3366   -0.2608 N   0  0  0  0  0  0  0  0  0  0  0  0
   44.6246  -31.6249    0.0902 N   0  0  0  0  0  0  0  0  0  0  0  0
   44.1958  -32.6235   -0.8758 N   0  0  0  0  0  0  0  0  0  0  0  0
   44.6142  -32.2532   -2.1815 N   0  0  0  0  0  0  0  0  0  0  0  0
   46.0314  -32.1753   -2.2108 N   0  0  0  0  0  0  0  0  0  0  0  0
   46.5796  -33.4584   -1.8717 N   0  0  0  0  0  0  0  0  0  0  0  0
   46.1210  -34.4461   -2.7958 N   0  0  0  0  0  0  0  0  0  0  0  0
   46.5141  -34.0705   -4.1069 N   0  0  0  0  0  0  0  0  0  0  0  0
   47.9459  -33.9802   -4.1361 N   0  0  0  0  0  0  0  0  0  0  0  0
   48.5244  -35.2706   -3.8015 N   0  0  0  0  0  0  0  0  0  0  0  0
   48.0776  -36.2798   -4.7133 N   0  0  0  0  0  0  0  0  0  0  0  0
   48.4587  -35.9216   -6.0281 N   0  0  0  0  0  0  0  0  0  0  0  0
   49.8881  -35.8220   -6.0756 N   0  0  0  0  0  0  0  0  0  0  0  0
   50.4760  -37.0939   -5.7108 N   0  0  0  0  0  0  0  0  0  0  0  0
   50.0031  -38.1034   -6.6130 N   0  0  0  0  0  0  0  0  0  0  0  0
   50.3957  -37.7669   -7.9608 N   0  0  0  0  0  0  0  0  0  0  0  0
   51.8247  -37.6605   -8.0338 N   0  0  0  0  0  0  0  0  0  0  0  0
   52.4100  -38.8981   -7.6436 N   0  0  0  0  0  0  0  0  0  0  0  0
   51.9487  -39.9178   -8.5320 N   0  0  0  0  0  0  0  0  0  0  0  0
   52.3212  -39.5860   -9.8904 N   0  0  0  0  0  0  0  0  0  0  0  0
   53.7651  -39.4622   -9.9658 N   0  0  0  0  0  0  0  0  0  0  0  0
   54.3792  -40.7172   -9.5944 N   0  0  0  0  0  0  0  0  0  0  0  0
   53.9000  -41.7515  -10.4654 N   0  0  0  0  0  0  0  0  0  0  0  0
   54.2767  -41.3947  -11.8374 C   0  0  0  0  0  0  0  0  0  0  0  0
   53.7982  -42.4696  -12.7855 C   0  0  0  0  0  0  0  0  0  0  0  0
   54.1852  -42.1182  -14.2063 C   0  0  0  0  0  0  0  0  0  0  0  0
   19.2140   -8.3335   26.3793 H   0  0  0  0  0  0  0  0  0  0  0  0
   19.4344   -7.0293   25.3845 H   0  0  0  0  0  0  0  0  0  0  0  0
   18.1827   -8.7038   24.2817 H   0  0  0  0  0  0  0  0  0  0  0  0
   19.6373   -7.3730   23.0004 H   0  0  0  0  0  0  0  0  0  0  0  0
   21.6359   -7.9448   24.0688 H   0  0  0  0  0  0  0  0  0  0  0  0
   21.1703  -10.1793   24.3755 H   0  0  0  0  0  0  0  0  0  0  0  0
   20.1270  -10.5634   22.3587 H   0  0  0  0  0  0  0  0  0  0  0  0
   21.4922   -9.1980   21.0728 H   0  0  0  0  0  0  0  0  0  0  0  0
   23.5094   -9.7267   22.1394 H   0  0  0  0  0  0  0  0  0  0  0  0
   23.0948  -12.0201   22.4310 H   0  0  0  0  0  0  0  0  0  0  0  0
   22.0540  -12.3990   20.4159 H   0  0  0  0  0  0  0  0  0  0  0  0
   23.4108  -11.0851   19.1323 H   0  0  0  0  0  0  0  0  0  0  0  0
   25.3717  -11.5475   20.1659 H   0  0  0  0  0  0  0  0  0  0  0  0
   25.0158  -13.8233   20.4822 H   0  0  0  0  0  0  0  0  0  0  0  0
   23.9707  -14.2522   18.4797 H   0  0  0  0  0  0  0  0  0  0  0  0
   25.2981  -12.9231   17.1489 H   0  0  0  0  0  0  0  0  0  0  0  0
   27.2852  -13.3552   18.1933 H   0  0  0  0  0  0  0  0  0  0  0  0
   26.9405  -15.6379   18.5287 H   0  0  0  0  0  0  0  0  0  0  0  0
   25.8921  -16.0852   16.5501 H   0  0  0  0  0  0  0  0  0  0  0  0
   27.1665  -14.7712   15.2111 H   0  0  0  0  0  0  0  0  0  0  0  0
   29.1765  -15.1727   16.2369 H   0  0  0  0  0  0  0  0  0  0  0  0
   28.8569  -17.4521   16.6139 H   0  0  0  0  0  0  0  0  0  0  0  0
   27.7924  -17.9255   14.6297 H   0  0  0  0  0  0  0  0  0  0  0  0
   29.0458  -16.5856   13.2549 H   0  0  0  0  0  0  0  0  0  0  0  0
   31.1258  -17.0199   14.2471 H   0  0  0  0  0  0  0  0  0  0  0  0
   30.8012  -19.2497   14.6359 H   0  0  0  0  0  0  0  0  0  0  0  0
   29.7048  -19.7591   12.7210 H   0  0  0  0  0  0  0  0  0  0  0  0
   30.9753  -18.4436   11.2980 H   0  0  0  0  0  0  0  0  0  0  0  0
   33.0255  -18.8252   12.2616 H   0  0  0  0  0  0  0  0  0  0  0  0
   32.7322  -21.0470   12.7256 H   0  0  0  0  0  0  0  0  0  0  0  0
   31.6455  -21.5938   10.7501 H   0  0  0  0  0  0  0  0  0  0  0  0
   32.8701  -20.3019    9.3393 H   0  0  0  0  0  0  0  0  0  0  0  0
   34.8783  -20.5998   10.3123 H   0  0  0  0  0  0  0  0  0  0  0  0
   34.6345  -22.8677   10.7577 H   0  0  0  0  0  0  0  0  0  0  0  0
   33.5394  -23.4232    8.8290 H   0  0  0  0  0  0  0  0  0  0  0  0
   34.7126  -22.1094    7.3868 H   0  0  0  0  0  0  0  0  0  0  0  0
   36.8346  -22.4704    8.3048 H   0  0  0  0  0  0  0  0  0  0  0  0
   36.5762  -24.6598    8.8115 H   0  0  0  0  0  0  0  0  0  0  0  0
   35.4688  -25.2713    6.8841 H   0  0  0  0  0  0  0  0  0  0  0  0
   36.6240  -23.9645    5.4026 H   0  0  0  0  0  0  0  0  0  0  0  0
   38.7281  -24.2630    6.3323 H   0  0  0  0  0  0  0  0  0  0  0  0
   38.5260  -26.4879    6.8146 H   0  0  0  0  0  0  0  0  0  0  0  0
   37.3591  -27.0722    4.9818 H   0  0  0  0  0  0  0  0  0  0  0  0
   38.5182  -25.7838    3.4947 H   0  0  0  0  0  0  0  0  0  0  0  0
   40.5870  -26.0159    4.3984 H   0  0  0  0  0  0  0  0  0  0  0  0
   40.4586  -28.3038    4.8713 H   0  0  0  0  0  0  0  0  0  0  0  0
   39.2965  -28.9556    3.0263 H   0  0  0  0  0  0  0  0  0  0  0  0
   40.4336  -27.6449    1.4821 H   0  0  0  0  0  0  0  0  0  0  0  0
   42.5164  -27.8667    2.3942 H   0  0  0  0  0  0  0  0  0  0  0  0
   42.3933  -30.0887    2.9378 H   0  0  0  0  0  0  0  0  0  0  0  0
   41.2429  -30.8002    1.0568 H   0  0  0  0  0  0  0  0  0  0  0  0
   42.2952  -29.4607   -0.4408 H   0  0  0  0  0  0  0  0  0  0  0  0
   44.4158  -29.6883    0.4499 H   0  0  0  0  0  0  0  0  0  0  0  0
   44.2857  -31.8692    1.0326 H   0  0  0  0  0  0  0  0  0  0  0  0
   43.1696  -32.6557   -0.8477 H   0  0  0  0  0  0  0  0  0  0  0  0
   44.2476  -31.3358   -2.4181 H   0  0  0  0  0  0  0  0  0  0  0  0
   46.3232  -31.4682   -1.5196 H   0  0  0  0  0  0  0  0  0  0  0  0
   46.2456  -33.7040   -0.9362 H   0  0  0  0  0  0  0  0  0  0  0  0
   45.1036  -34.4752   -2.7734 H   0  0  0  0  0  0  0  0  0  0  0  0
   46.1137  -33.1538   -4.3145 H   0  0  0  0  0  0  0  0  0  0  0  0
   48.2535  -33.2883   -3.4468 H   0  0  0  0  0  0  0  0  0  0  0  0
   48.1979  -35.5245   -2.8648 H   0  0  0  0  0  0  0  0  0  0  0  0
   47.0570  -36.3225   -4.6635 H   0  0  0  0  0  0  0  0  0  0  0  0
   48.0312  -35.0139   -6.2569 H   0  0  0  0  0  0  0  0  0  0  0  0
   50.1830  -35.1041   -5.3961 H   0  0  0  0  0  0  0  0  0  0  0  0
   50.1532  -37.3266   -4.7646 H   0  0  0  0  0  0  0  0  0  0  0  0
   48.9875  -38.1314   -6.5786 H   0  0  0  0  0  0  0  0  0  0  0  0
   49.9892  -36.8605   -8.1852 H   0  0  0  0  0  0  0  0  0  0  0  0
   52.1070  -36.9435   -7.3611 H   0  0  0  0  0  0  0  0  0  0  0  0
   52.0995  -39.1049   -6.6813 H   0  0  0  0  0  0  0  0  0  0  0  0
   50.9248  -39.9660   -8.4536 H   0  0  0  0  0  0  0  0  0  0  0  0
   51.8962  -38.6747  -10.1149 H   0  0  0  0  0  0  0  0  0  0  0  0
   54.0512  -38.7286   -9.3055 H   0  0  0  0  0  0  0  0  0  0  0  0
   54.0809  -40.9275   -8.6261 H   0  0  0  0  0  0  0  0  0  0  0  0
   52.8757  -41.7989  -10.4051 H   0  0  0  0  0  0  0  0  0  0  0  0
   55.3626  -41.2891  -11.9115 H   0  0  0  0  0  0  0  0  0  0  0  0
   53.8210  -40.4403  -12.1394 H   0  0  0  0  0  0  0  0  0  0  0  0
   52.7103  -42.5686  -12.7226 H   0  0  0  0  0  0  0  0  0  0  0  0
   54.2507  -43.4260  -12.5129 H   0  0  0  0  0  0  0  0  0  0  0  0
   53.7292  -41.1685  -14.4995 H   0  0  0  0  0  0  0  0  0  0  0  0
   53.8457  -42.8968  -14.8929 H   0  0  0  0  0  0  0  0  0  0  0  0
   55.2714  -42.0258  -14.2898 H   0  0  0  0  0  0  0  0  0  0  0  0
  1  2  1  0  0  0  0
  1 78  1  0  0  0  0
  1 79  1  0  0  0  0
  2  3  1  0  0  0  0
  2 80  1  0  0  0  0
  3  4  1  0  0  0  0
  3 81  1  0  0  0  0
  4  5  1  0  0  0  0
  4 82  1  0  0  0  0
  5  6  1  0  0  0  0
  5 83  1  0  0  0  0
  6  7  1  0  0  0  0
  6 84  1  0  0  0  0
  7  8  1  0  0  0  0
  7 85  1  0  0  0  0
  8  9  1  0  0  0  0
  8 86  1  0  0  0  0
  9 10  1  0  0  0  0
  9 87  1  0  0  0  0
 10 11  1  0  0  0  0
 10 88  1  0  0  0  0
 11 12  1  0  0  0  0
 11 89  1  0  0  0  0
 12 13  1  0  0  0  0
 12 90  1  0  0  0  0
 13 14  1  0  0  0  0
 13 91  1  0  0  0  0
 14 15  1  0  0  0  0
 14 92  1  0  0  0  0
 15 16  1  0  0  0  0
 15 93  1  0  0  0  0
 16 17  1  0  0  0  0
 16 94  1  0  0  0  0
 17 18  1  0  0  0  0
 17 95  1  0  0  0  0
 18 19  1  0  0  0  0
 18 96  1  0  0  0  0
 19 20  1  0  0  0  0
 19 97  1  0  0  0  0
 20 21  1  0  0  0  0
 20 98  1  0  0  0  0
 21 22  1  0  0  0  0
 21 99  1  0  0  0  0
 22 23  1  0  0  0  0
 22100  1  0  0  0  0
 23 24  1  0  0  0  0
 23101  1  0  0  0  0
 24 25  1  0  0  0  0
 24102  1  0  0  0  0
 25 26  1  0  0  0  0
 25103  1  0  0  0  0
 26 27  1  0  0  0  0
 26104  1  0  0  0  0
 27 28  1  0  0  0  0
 27105  1  0  0  0  0
 28 29  1  0  0  0  0
 28106  1  0  0  0  0
 29 30  1  0  0  0  0
 29107  1  0  0  0  0
 30 31  1  0  0  0  0
 30108  1  0  0  0  0
 31 32  1  0  0  0  0
 31109  1  0  0  0  0
 32 33  1  0  0  0  0
 32110  1  0  0  0  0
 33 34  1  0  0  0  0
 33111  1  0  0  0  0
 34 35  1  0  0  0  0
 34112  1  0  0  0  0
 35 36  1  0  0  0  0
 35113  1  0  0  0  0
 36 37  1  0  0  0  0
 36114  1  0  0  0  0
 37 38  1  0  0  0  0
 37115  1  0  0  0  0
 38 39  1  0  0  0  0
 38116  1  0  0  0  0
 39 40  1  0  0  0  0
 39117  1  0  0  0  0
 40 41  1  0  0  0  0
 40118  1  0  0  0  0
 41 42  1  0  0  0  0
 41119  1  0  0  0  0
 42 43  1  0  0  0  0
 42120  1  0  0  0  0
 43 44  1  0  0  0  0
 43121  1  0  0  0  0
 44 45  1  0  0  0  0
 44122  1  0  0  0  0
 45 46  1  0  0  0  0
 45123  1  0  0  0  0
 46 47  1  0  0  0  0
 46124  1  0  0  0  0
 47 48  1  0  0  0  0
 47125  1  0  0  0  0
 48 49  1  0  0  0  0
 48126  1  0  0  0  0
 49 50  1  0  0  0  0
 49127  1  0  0  0  0
 50 51  1  0  0  0  0
 50128  1  0  0  0  0
 51 52  1  0  0  0  0
 51129  1  0  0  0  0
 52 53  1  0  0  0  0
 52130  1  0  0  0  0
 53 54  1  0  0  0  0
 53131  1  0  0  0  0
 54 55  1  0  0  0  0
 54132  1  0  0  0  0
 55 56  1  0  0  0  0
 55133  1  0  0  0  0
 56 57  1  0  0  0  0
 56134  1  0  0  0  0
 57 58  1  0  0  0  0
 57135  1  0  0  0  0
 58 59  1  0  0  0  0
 58136  1  0  0  0  0
 59 60  1  0  0  0  0
 59137  1  0  0  0  0
 60 61  1  0  0  0  0
 60138  1  0  0  0  0
 61 62  1  0  0  0  0
 61139  1  0  0  0  0
 62 63  1  0  0  0  0
 62140  1  0  0  0  0
 63 64  1  0  0  0  0
 63141  1  0  0  0  0
 64 65  1  0  0  0  0
 64142  1  0  0  0  0
 65 66  1  0  0  0  0
 65143  1  0  0  0  0
 66 67  1  0  0  0  0
 66144  1  0  0  0  0
 67 68  1  0  0  0  0
 67145  1  0  0  0  0
 68 69  1  0  0  0  0
 68146  1  0  0  0  0
 69 70  1  0  0  0  0
 69147  1  0  0  0  0
 70 71  1  0  0  0  0
 70148  1  0  0  0  0
 71 72  1  0  0  0  0
 71149  1  0  0  0  0
 72 73  1  0  0  0  0
 72150  1  0  0  0  0
 73 74  1  0  0  0  0
 73151  1  0  0  0  0
 74 75  1  0  0  0  0
 74152  1  0  0  0  0
 75 76  1  0  0  0  0
 75153  1  0  0  0  0
 75154  1  0  0  0  0
 76 77  1  0  0  0  0
 76155  1  0  0  0  0
 76156  1  0  0  0  0
 77157  1  0  0  0  0
 77158  1  0  0  0  0
 77159  1  0  0  0  0
M  END
$$$$
