
 OpenBabel04232216493D

 80 80  0  0  0  0  0  0  0  0999 V2000
   10.3715   -1.7946   -5.9011 C   0  0  0  0  0  0  0  0  0  0  0  0
   12.1840   -1.7571   -5.3076 C   0  0  0  0  0  0  0  0  0  0  0  0
   11.1103   -1.3629   -3.9038 C   0  0  0  0  0  0  0  0  0  0  0  0
    9.1893   -1.2712   -3.4635 C   0  0  0  0  0  0  0  0  0  0  0  0
    7.9387   -1.9050   -2.9064 C   0  0  0  0  0  0  0  0  0  0  0  0
    7.9004   -2.2816   -1.4193 C   0  0  0  0  0  0  0  0  0  0  0  0
    8.1518   -1.0469   -0.4397 C   0  0  0  0  0  0  0  0  0  0  0  0
    7.2208   -0.4718    0.6998 C   0  0  0  0  0  0  0  0  0  0  0  0
    7.7014    0.9517    1.1247 C   0  0  0  0  0  0  0  0  0  0  0  0
    6.9026    1.5127    2.3018 C   0  0  0  0  0  0  0  0  0  0  0  0
    7.4438    2.8862    2.6862 C   0  0  0  0  0  0  0  0  0  0  0  0
    6.6782    3.4606    3.8688 C   0  0  0  0  0  0  0  0  0  0  0  0
    7.2373    4.8210    4.2361 C   0  0  0  0  0  0  0  0  0  0  0  0
    8.4602   -3.4933   -1.5905 C   0  0  0  0  0  0  0  0  0  0  0  0
    9.8769   -3.4306   -1.8983 C   0  0  0  0  0  0  0  0  0  0  0  0
   10.2353   -3.9496   -3.0811 C   0  0  0  0  0  0  0  0  0  0  0  0
   11.5621   -3.9662   -3.5024 C   0  0  0  0  0  0  0  0  0  0  0  0
   11.9188   -4.4769   -4.6747 C   0  0  0  0  0  0  0  0  0  0  0  0
   13.3075   -4.6443   -4.7237 C   0  0  0  0  0  0  0  0  0  0  0  0
   13.9330   -5.1219   -5.7791 C   0  0  0  0  0  0  0  0  0  0  0  0
   15.3355   -5.1880   -5.6539 C   0  0  0  0  0  0  0  0  0  0  0  0
   16.0318   -5.6851   -6.6602 C   0  0  0  0  0  0  0  0  0  0  0  0
   17.4297   -5.7096   -6.5298 C   0  0  0  0  0  0  0  0  0  0  0  0
   18.1878   -6.2240   -7.4803 C   0  0  0  0  0  0  0  0  0  0  0  0
   19.5882   -6.2163   -7.2230 C   0  0  0  0  0  0  0  0  0  0  0  0
   20.3484   -6.8039   -8.1273 C   0  0  0  0  0  0  0  0  0  0  0  0
   21.7261   -7.0710   -7.9871 C   0  0  0  0  0  0  0  0  0  0  0  0
   22.2266   -7.8720   -8.9287 C   0  0  0  0  0  0  0  0  0  0  0  0
   23.5919   -8.2541   -8.9817 C   0  0  0  0  0  0  0  0  0  0  0  0
   23.9381   -8.6023  -10.2209 C   0  0  0  0  0  0  0  0  0  0  0  0
   24.6990   -7.5041  -10.6348 C   0  0  0  0  0  0  0  0  0  0  0  0
   24.1034   -6.1223  -10.6004 C   0  0  0  0  0  0  0  0  0  0  0  0
   22.5592   -5.5874   -9.6930 O   0  0  0  0  0  0  0  0  0  0  0  0
   21.0738   -4.2106   -9.1783 O   0  0  0  0  0  0  0  0  0  0  0  0
   19.1129   -4.0709   -8.6055 O   0  0  0  0  0  0  0  0  0  0  0  0
   17.5530   -3.1307   -7.4459 O   0  0  0  0  0  0  0  0  0  0  0  0
   15.6305   -2.7476   -6.9437 C   0  0  0  0  0  0  0  0  0  0  0  0
   14.0845   -2.2652   -6.0614 C   0  0  0  0  0  0  0  0  0  0  0  0
    9.1472   -1.7299   -5.5517 H   0  0  0  0  0  0  0  0  0  0  0  0
    9.9949   -0.6729   -5.5925 H   0  0  0  0  0  0  0  0  0  0  0  0
    9.9519   -2.6683   -5.2513 H   0  0  0  0  0  0  0  0  0  0  0  0
   10.7860   -0.3094   -3.7353 H   0  0  0  0  0  0  0  0  0  0  0  0
    8.7492   -0.2631   -3.1419 H   0  0  0  0  0  0  0  0  0  0  0  0
    6.7738   -1.7363   -2.8144 H   0  0  0  0  0  0  0  0  0  0  0  0
    8.2260   -0.1597   -1.0742 H   0  0  0  0  0  0  0  0  0  0  0  0
    9.1390   -1.1679    0.0156 H   0  0  0  0  0  0  0  0  0  0  0  0
    7.2553   -1.1060    1.5932 H   0  0  0  0  0  0  0  0  0  0  0  0
    6.1751   -0.3647    0.3869 H   0  0  0  0  0  0  0  0  0  0  0  0
    7.6126    1.6587    0.2866 H   0  0  0  0  0  0  0  0  0  0  0  0
    8.7638    0.9258    1.4004 H   0  0  0  0  0  0  0  0  0  0  0  0
    6.9757    0.8356    3.1604 H   0  0  0  0  0  0  0  0  0  0  0  0
    5.8415    1.5975    2.0379 H   0  0  0  0  0  0  0  0  0  0  0  0
    7.3681    3.5690    1.8303 H   0  0  0  0  0  0  0  0  0  0  0  0
    8.5084    2.8055    2.9402 H   0  0  0  0  0  0  0  0  0  0  0  0
    6.7561    2.7844    4.7280 H   0  0  0  0  0  0  0  0  0  0  0  0
    5.6154    3.5526    3.6172 H   0  0  0  0  0  0  0  0  0  0  0  0
    8.2954    4.7420    4.5062 H   0  0  0  0  0  0  0  0  0  0  0  0
    6.6920    5.2387    5.0858 H   0  0  0  0  0  0  0  0  0  0  0  0
    7.1507    5.5132    3.3923 H   0  0  0  0  0  0  0  0  0  0  0  0
    8.0286   -4.0645   -2.4636 H   0  0  0  0  0  0  0  0  0  0  0  0
   10.4266   -2.5423   -1.5391 H   0  0  0  0  0  0  0  0  0  0  0  0
    9.5169   -4.1984   -3.8655 H   0  0  0  0  0  0  0  0  0  0  0  0
   12.2762   -3.4498   -2.8585 H   0  0  0  0  0  0  0  0  0  0  0  0
   11.2586   -4.7140   -5.5086 H   0  0  0  0  0  0  0  0  0  0  0  0
   13.8683   -4.2855   -3.8570 H   0  0  0  0  0  0  0  0  0  0  0  0
   13.4262   -5.3372   -6.7100 H   0  0  0  0  0  0  0  0  0  0  0  0
   15.8187   -4.6883   -4.8061 H   0  0  0  0  0  0  0  0  0  0  0  0
   15.5510   -6.0147   -7.5728 H   0  0  0  0  0  0  0  0  0  0  0  0
   17.8872   -5.2533   -5.6544 H   0  0  0  0  0  0  0  0  0  0  0  0
   17.7851   -6.5848   -8.4277 H   0  0  0  0  0  0  0  0  0  0  0  0
   19.9501   -5.7148   -6.3292 H   0  0  0  0  0  0  0  0  0  0  0  0
   19.8837   -7.1535   -9.0449 H   0  0  0  0  0  0  0  0  0  0  0  0
   22.3354   -6.5719   -7.2374 H   0  0  0  0  0  0  0  0  0  0  0  0
   21.6980   -7.9679   -9.8936 H   0  0  0  0  0  0  0  0  0  0  0  0
   24.2932   -7.6124   -8.4071 H   0  0  0  0  0  0  0  0  0  0  0  0
   23.3638   -8.9778  -11.0658 H   0  0  0  0  0  0  0  0  0  0  0  0
   25.7777   -8.0012  -10.6201 H   0  0  0  0  0  0  0  0  0  0  0  0
   25.2365   -5.8450  -10.6567 H   0  0  0  0  0  0  0  0  0  0  0  0
   16.3350   -2.8995   -6.0546 H   0  0  0  0  0  0  0  0  0  0  0  0
   14.4373   -2.2582   -4.8680 H   0  0  0  0  0  0  0  0  0  0  0  0
  1  2  1  0  0  0  0
  1 39  1  0  0  0  0
  1 40  1  0  0  0  0
  1 41  1  0  0  0  0
  2  3  2  3  0  0  0
  2 38  1  0  0  0  0
  3  4  1  0  0  0  0
  3 42  1  0  0  0  0
  4  5  2  3  0  0  0
  4 43  1  0  0  0  0
  5  6  1  0  0  0  0
  5 44  1  0  0  0  0
  6  7  1  0  0  0  0
  6 14  2  3  0  0  0
  7  8  1  0  0  0  0
  7 45  1  0  0  0  0
  7 46  1  0  0  0  0
  8  9  1  0  0  0  0
  8 47  1  0  0  0  0
  8 48  1  0  0  0  0
  9 10  1  0  0  0  0
  9 49  1  0  0  0  0
  9 50  1  0  0  0  0
 10 11  1  0  0  0  0
 10 51  1  0  0  0  0
 10 52  1  0  0  0  0
 11 12  1  0  0  0  0
 11 53  1  0  0  0  0
 11 54  1  0  0  0  0
 12 13  1  0  0  0  0
 12 55  1  0  0  0  0
 12 56  1  0  0  0  0
 13 57  1  0  0  0  0
 13 58  1  0  0  0  0
 13 59  1  0  0  0  0
 14 15  1  0  0  0  0
 14 60  1  0  0  0  0
 15 16  2  3  0  0  0
 15 61  1  0  0  0  0
 16 17  1  0  0  0  0
 16 62  1  0  0  0  0
 17 18  2  3  0  0  0
 17 63  1  0  0  0  0
 18 19  1  0  0  0  0
 18 64  1  0  0  0  0
 19 20  2  3  0  0  0
 19 65  1  0  0  0  0
 20 21  1  0  0  0  0
 20 66  1  0  0  0  0
 21 22  2  3  0  0  0
 21 67  1  0  0  0  0
 22 23  1  0  0  0  0
 22 68  1  0  0  0  0
 23 24  2  3  0  0  0
 23 69  1  0  0  0  0
 24 25  1  0  0  0  0
 24 70  1  0  0  0  0
 25 26  2  3  0  0  0
 25 71  1  0  0  0  0
 26 27  1  0  0  0  0
 26 72  1  0  0  0  0
 27 28  2  3  0  0  0
 27 73  1  0  0  0  0
 28 29  1  0  0  0  0
 28 74  1  0  0  0  0
 29 30  2  3  0  0  0
 29 75  1  0  0  0  0
 30 31  1  0  0  0  0
 30 76  1  0  0  0  0
 31 32  2  3  0  0  0
 31 77  1  0  0  0  0
 32 33  1  0  0  0  0
 32 78  1  0  0  0  0
 33 34  1  0  0  0  0
 34 35  1  0  0  0  0
 35 36  1  0  0  0  0
 36 37  1  0  0  0  0
 37 38  2  3  0  0  0
 37 79  1  0  0  0  0
 38 80  1  0  0  0  0
M  END
$$$$
