
 OpenBabel04232216433D

 15 15  0  0  0  0  0  0  0  0999 V2000
   -0.6905    1.1111   -0.0376 C   0  0  0  0  0  0  0  0  0  0  0  0
    0.6835    1.2514   -0.0140 C   0  0  0  0  0  0  0  0  0  0  0  0
    1.4592    0.0976    0.0267 C   0  0  0  0  0  0  0  0  0  0  0  0
    0.8267   -1.1522    0.0458 C   0  0  0  0  0  0  0  0  0  0  0  0
   -0.5715   -1.2004    0.0121 C   0  0  0  0  0  0  0  0  0  0  0  0
   -1.3024   -2.5209    0.0555 C   0  0  0  0  0  0  0  0  0  0  0  0
   -1.5499   -3.0528   -1.2421 O   0  0  0  0  0  0  0  0  0  0  0  0
   -1.3308   -0.0809   -0.0353 N   0  0  0  0  0  0  0  0  0  0  0  0
   -1.3401    1.9831   -0.0590 H   0  0  0  0  0  0  0  0  0  0  0  0
    1.1436    2.2337   -0.0252 H   0  0  0  0  0  0  0  0  0  0  0  0
    2.5431    0.1621    0.0490 H   0  0  0  0  0  0  0  0  0  0  0  0
    1.4197   -2.0543    0.0962 H   0  0  0  0  0  0  0  0  0  0  0  0
   -2.2696   -2.3861    0.5582 H   0  0  0  0  0  0  0  0  0  0  0  0
   -0.7332   -3.2553    0.6242 H   0  0  0  0  0  0  0  0  0  0  0  0
   -2.1576   -2.4314   -1.6787 H   0  0  0  0  0  0  0  0  0  0  0  0
  1  2  1  0  0  0  0
  1  8  2  0  0  0  0
  1  9  1  0  0  0  0
  2  3  2  0  0  0  0
  2 10  1  0  0  0  0
  3  4  1  0  0  0  0
  3 11  1  0  0  0  0
  4  5  2  0  0  0  0
  4 12  1  0  0  0  0
  5  6  1  0  0  0  0
  5  8  1  0  0  0  0
  6  7  1  0  0  0  0
  6 13  1  0  0  0  0
  6 14  1  0  0  0  0
  7 15  1  0  0  0  0
M  END
$$$$
