
 OpenBabel04232216543D

240239  0  0  0  0  0  0  0  0999 V2000
    0.9571   -0.2054    0.1238 C   0  0  0  0  0  0  0  0  0  0  0  0
    2.4732   -0.1941    0.1298 C   0  0  0  0  0  0  0  0  0  0  0  0
    2.9979    0.0832    1.5357 C   0  0  0  0  0  0  0  0  0  0  0  0
    4.5205    0.0975    1.5451 C   0  0  0  0  0  0  0  0  0  0  0  0
    5.0019    0.3567    2.9031 N   0  0  0  0  0  0  0  0  0  0  0  0
    6.4209    0.3856    2.8792 N   0  0  0  0  0  0  0  0  0  0  0  0
    6.8917    0.6360    4.1816 N   0  0  0  0  0  0  0  0  0  0  0  0
    8.3106    0.6476    4.2016 N   0  0  0  0  0  0  0  0  0  0  0  0
    8.7769    0.9129    5.5221 N   0  0  0  0  0  0  0  0  0  0  0  0
   10.2327    0.9206    5.4975 C   0  0  0  0  0  0  0  0  0  0  0  0
   10.7493    1.1980    6.9032 C   0  0  0  0  0  0  0  0  0  0  0  0
   12.2686    1.2101    6.9105 C   0  0  0  0  0  0  0  0  0  0  0  0
   12.7850    1.4859    8.3131 C   0  0  0  0  0  0  0  0  0  0  0  0
   14.3024    1.4950    8.3176 C   0  0  0  0  0  0  0  0  0  0  0  0
   14.8138    1.7701    9.7191 C   0  0  0  0  0  0  0  0  0  0  0  0
   16.3304    1.7772    9.7234 C   0  0  0  0  0  0  0  0  0  0  0  0
   16.8409    2.0503   11.1250 C   0  0  0  0  0  0  0  0  0  0  0  0
   18.3573    2.0592   11.1287 C   0  0  0  0  0  0  0  0  0  0  0  0
   18.8677    2.3343   12.5298 C   0  0  0  0  0  0  0  0  0  0  0  0
   20.3840    2.3451   12.5330 C   0  0  0  0  0  0  0  0  0  0  0  0
   20.8943    2.6183   13.9345 C   0  0  0  0  0  0  0  0  0  0  0  0
   22.4106    2.6272   13.9381 C   0  0  0  0  0  0  0  0  0  0  0  0
   22.9210    2.9022   15.3392 C   0  0  0  0  0  0  0  0  0  0  0  0
   24.4373    2.9091   15.3432 C   0  0  0  0  0  0  0  0  0  0  0  0
   24.9476    3.1842   16.7443 C   0  0  0  0  0  0  0  0  0  0  0  0
   26.4639    3.1892   16.7486 C   0  0  0  0  0  0  0  0  0  0  0  0
   26.9743    3.4642   18.1497 C   0  0  0  0  0  0  0  0  0  0  0  0
   28.4905    3.4692   18.1541 C   0  0  0  0  0  0  0  0  0  0  0  0
   29.0009    3.7442   19.5552 C   0  0  0  0  0  0  0  0  0  0  0  0
   30.5172    3.7492   19.5596 C   0  0  0  0  0  0  0  0  0  0  0  0
   31.0275    4.0243   20.9607 C   0  0  0  0  0  0  0  0  0  0  0  0
   32.5438    4.0292   20.9650 C   0  0  0  0  0  0  0  0  0  0  0  0
   33.0542    4.3043   22.3661 C   0  0  0  0  0  0  0  0  0  0  0  0
   34.5705    4.3073   22.3709 C   0  0  0  0  0  0  0  0  0  0  0  0
   35.0808    4.5824   23.7720 C   0  0  0  0  0  0  0  0  0  0  0  0
   36.5971    4.5873   23.7764 C   0  0  0  0  0  0  0  0  0  0  0  0
   37.1075    4.8604   25.1778 C   0  0  0  0  0  0  0  0  0  0  0  0
   38.6238    4.8634   25.1826 C   0  0  0  0  0  0  0  0  0  0  0  0
   39.1342    5.1345   26.5844 C   0  0  0  0  0  0  0  0  0  0  0  0
   40.6505    5.1355   26.5896 C   0  0  0  0  0  0  0  0  0  0  0  0
   41.1608    5.4046   27.9918 C   0  0  0  0  0  0  0  0  0  0  0  0
   42.6771    5.4056   27.9970 C   0  0  0  0  0  0  0  0  0  0  0  0
   43.1875    5.6747   29.3992 C   0  0  0  0  0  0  0  0  0  0  0  0
   44.7038    5.6757   29.4044 C   0  0  0  0  0  0  0  0  0  0  0  0
   45.2141    5.9448   30.8066 C   0  0  0  0  0  0  0  0  0  0  0  0
   46.7304    5.9458   30.8117 C   0  0  0  0  0  0  0  0  0  0  0  0
   47.2408    6.2150   32.2140 C   0  0  0  0  0  0  0  0  0  0  0  0
   48.7571    6.2159   32.2191 C   0  0  0  0  0  0  0  0  0  0  0  0
   49.2675    6.4851   33.6214 C   0  0  0  0  0  0  0  0  0  0  0  0
   50.7838    6.4841   33.6269 C   0  0  0  0  0  0  0  0  0  0  0  0
   51.2941    6.7532   35.0291 C   0  0  0  0  0  0  0  0  0  0  0  0
   52.8104    6.7542   35.0343 C   0  0  0  0  0  0  0  0  0  0  0  0
   53.3208    7.0214   36.4369 C   0  0  0  0  0  0  0  0  0  0  0  0
   54.8371    7.0204   36.4424 C   0  0  0  0  0  0  0  0  0  0  0  0
   55.3475    7.2895   37.8447 C   0  0  0  0  0  0  0  0  0  0  0  0
   56.8638    7.2905   37.8498 C   0  0  0  0  0  0  0  0  0  0  0  0
   57.3741    7.5577   39.2524 C   0  0  0  0  0  0  0  0  0  0  0  0
   58.8904    7.5606   39.2572 C   0  0  0  0  0  0  0  0  0  0  0  0
   59.4008    7.8278   40.6598 C   0  0  0  0  0  0  0  0  0  0  0  0
   60.9171    7.8288   40.6649 C   0  0  0  0  0  0  0  0  0  0  0  0
   61.4274    8.0959   42.0675 C   0  0  0  0  0  0  0  0  0  0  0  0
   62.9437    8.0969   42.0727 C   0  0  0  0  0  0  0  0  0  0  0  0
   63.4541    8.3641   43.4753 C   0  0  0  0  0  0  0  0  0  0  0  0
   64.9704    8.3651   43.4804 C   0  0  0  0  0  0  0  0  0  0  0  0
   65.4808    8.6322   44.8831 C   0  0  0  0  0  0  0  0  0  0  0  0
   66.9971    8.6332   44.8882 C   0  0  0  0  0  0  0  0  0  0  0  0
   67.5074    8.9004   46.2908 C   0  0  0  0  0  0  0  0  0  0  0  0
   69.0237    8.9014   46.2960 C   0  0  0  0  0  0  0  0  0  0  0  0
   69.5341    9.1685   47.6986 C   0  0  0  0  0  0  0  0  0  0  0  0
   71.0504    9.1676   47.7041 C   0  0  0  0  0  0  0  0  0  0  0  0
   71.5608    9.4347   49.1067 C   0  0  0  0  0  0  0  0  0  0  0  0
   73.0771    9.4337   49.1122 C   0  0  0  0  0  0  0  0  0  0  0  0
   73.5874    9.7008   50.5149 C   0  0  0  0  0  0  0  0  0  0  0  0
   75.1037    9.6999   50.5204 C   0  0  0  0  0  0  0  0  0  0  0  0
   75.6142    9.9670   51.9231 C   0  0  0  0  0  0  0  0  0  0  0  0
   77.1306    9.9681   51.9283 C   0  0  0  0  0  0  0  0  0  0  0  0
   77.6417   10.2352   53.3310 C   0  0  0  0  0  0  0  0  0  0  0  0
   79.1591   10.2363   53.3367 C   0  0  0  0  0  0  0  0  0  0  0  0
   79.6720   10.5017   54.7406 C   0  0  0  0  0  0  0  0  0  0  0  0
   81.1913   10.5021   54.7536 C   0  0  0  0  0  0  0  0  0  0  0  0
   81.7000   10.7671   56.1558 C   0  0  0  0  0  0  0  0  0  0  0  0
    0.5824   -0.4052   -0.8831 H   0  0  0  0  0  0  0  0  0  0  0  0
    0.5629    0.7612    0.4541 H   0  0  0  0  0  0  0  0  0  0  0  0
    0.5746   -0.9809    0.7954 H   0  0  0  0  0  0  0  0  0  0  0  0
    2.8366    0.5733   -0.5639 H   0  0  0  0  0  0  0  0  0  0  0  0
    2.8482   -1.1613   -0.2246 H   0  0  0  0  0  0  0  0  0  0  0  0
    2.6248   -0.6869    2.2224 H   0  0  0  0  0  0  0  0  0  0  0  0
    2.6111    1.0492    1.8851 H   0  0  0  0  0  0  0  0  0  0  0  0
    4.8725    0.8806    0.8618 H   0  0  0  0  0  0  0  0  0  0  0  0
    4.8994   -0.8674    1.1813 H   0  0  0  0  0  0  0  0  0  0  0  0
    4.6886   -0.3867    3.5217 H   0  0  0  0  0  0  0  0  0  0  0  0
    6.7611    1.1450    2.2763 H   0  0  0  0  0  0  0  0  0  0  0  0
    6.5287   -0.0911    4.7908 H   0  0  0  0  0  0  0  0  0  0  0  0
    8.6167    1.3889    3.5736 H   0  0  0  0  0  0  0  0  0  0  0  0
    8.4409    0.1718    6.1346 H   0  0  0  0  0  0  0  0  0  0  0  0
   10.6026    1.7031    4.8220 H   0  0  0  0  0  0  0  0  0  0  0  0
   10.6250   -0.0433    5.1492 H   0  0  0  0  0  0  0  0  0  0  0  0
   10.3875    0.4301    7.5978 H   0  0  0  0  0  0  0  0  0  0  0  0
   10.3748    2.1663    7.2588 H   0  0  0  0  0  0  0  0  0  0  0  0
   12.6425    1.9800    6.2233 H   0  0  0  0  0  0  0  0  0  0  0  0
   12.6539    0.2445    6.5600 H   0  0  0  0  0  0  0  0  0  0  0  0
   12.4164    0.7172    9.0031 H   0  0  0  0  0  0  0  0  0  0  0  0
   12.4069    2.4532    8.6657 H   0  0  0  0  0  0  0  0  0  0  0  0
   14.6733    2.2639    7.6289 H   0  0  0  0  0  0  0  0  0  0  0  0
   14.6826    0.5280    7.9663 H   0  0  0  0  0  0  0  0  0  0  0  0
   14.4430    1.0022   10.4089 H   0  0  0  0  0  0  0  0  0  0  0  0
   14.4360    2.7380   10.0707 H   0  0  0  0  0  0  0  0  0  0  0  0
   16.7017    2.5462    9.0351 H   0  0  0  0  0  0  0  0  0  0  0  0
   16.7089    0.8099    9.3709 H   0  0  0  0  0  0  0  0  0  0  0  0
   16.4711    1.2805   11.8132 H   0  0  0  0  0  0  0  0  0  0  0  0
   16.4617    3.0169   11.4782 H   0  0  0  0  0  0  0  0  0  0  0  0
   18.7273    2.8281   10.4395 H   0  0  0  0  0  0  0  0  0  0  0  0
   18.7367    1.0921   10.7768 H   0  0  0  0  0  0  0  0  0  0  0  0
   18.4988    1.5646   13.2187 H   0  0  0  0  0  0  0  0  0  0  0  0
   18.4872    3.3007   12.8822 H   0  0  0  0  0  0  0  0  0  0  0  0
   20.7528    3.1157   11.8451 H   0  0  0  0  0  0  0  0  0  0  0  0
   20.7645    1.3791   12.1793 H   0  0  0  0  0  0  0  0  0  0  0  0
   20.5244    1.8484   14.6227 H   0  0  0  0  0  0  0  0  0  0  0  0
   20.5149    3.5849   14.2876 H   0  0  0  0  0  0  0  0  0  0  0  0
   22.7807    3.3960   13.2489 H   0  0  0  0  0  0  0  0  0  0  0  0
   22.7899    1.6600   13.5862 H   0  0  0  0  0  0  0  0  0  0  0  0
   22.5498    2.1342   16.0287 H   0  0  0  0  0  0  0  0  0  0  0  0
   22.5427    3.8700   15.6905 H   0  0  0  0  0  0  0  0  0  0  0  0
   24.8085    3.6772   14.6537 H   0  0  0  0  0  0  0  0  0  0  0  0
   24.8154    1.9413   14.9919 H   0  0  0  0  0  0  0  0  0  0  0  0
   24.5753    2.4170   17.4340 H   0  0  0  0  0  0  0  0  0  0  0  0
   24.5705    4.1527   17.0950 H   0  0  0  0  0  0  0  0  0  0  0  0
   26.8362    3.9564   16.0588 H   0  0  0  0  0  0  0  0  0  0  0  0
   26.8409    2.2207   16.3979 H   0  0  0  0  0  0  0  0  0  0  0  0
   26.6019    2.6970   18.8395 H   0  0  0  0  0  0  0  0  0  0  0  0
   26.5972    4.4327   18.5004 H   0  0  0  0  0  0  0  0  0  0  0  0
   28.8629    4.2364   17.4643 H   0  0  0  0  0  0  0  0  0  0  0  0
   28.8676    2.5007   17.8034 H   0  0  0  0  0  0  0  0  0  0  0  0
   28.6286    2.9770   20.2450 H   0  0  0  0  0  0  0  0  0  0  0  0
   28.6239    4.7127   19.9059 H   0  0  0  0  0  0  0  0  0  0  0  0
   30.8895    4.5164   18.8698 H   0  0  0  0  0  0  0  0  0  0  0  0
   30.8942    2.7807   19.2088 H   0  0  0  0  0  0  0  0  0  0  0  0
   30.6552    3.2571   21.6504 H   0  0  0  0  0  0  0  0  0  0  0  0
   30.6505    4.9927   21.3114 H   0  0  0  0  0  0  0  0  0  0  0  0
   32.9162    4.7964   20.2753 H   0  0  0  0  0  0  0  0  0  0  0  0
   32.9208    3.0607   20.6143 H   0  0  0  0  0  0  0  0  0  0  0  0
   32.6807    3.5379   23.0562 H   0  0  0  0  0  0  0  0  0  0  0  0
   32.6783    5.2734   22.7163 H   0  0  0  0  0  0  0  0  0  0  0  0
   34.9440    5.0737   21.6808 H   0  0  0  0  0  0  0  0  0  0  0  0
   34.9464    3.3382   22.0207 H   0  0  0  0  0  0  0  0  0  0  0  0
   34.7084    3.8151   24.4617 H   0  0  0  0  0  0  0  0  0  0  0  0
   34.7039    5.5508   24.1228 H   0  0  0  0  0  0  0  0  0  0  0  0
   36.9695    5.3554   23.0876 H   0  0  0  0  0  0  0  0  0  0  0  0
   36.9741    3.6193   23.4243 H   0  0  0  0  0  0  0  0  0  0  0  0
   36.7340    4.0930   25.8668 H   0  0  0  0  0  0  0  0  0  0  0  0
   36.7316    5.8290   25.5294 H   0  0  0  0  0  0  0  0  0  0  0  0
   38.9973    5.6317   24.4947 H   0  0  0  0  0  0  0  0  0  0  0  0
   38.9996    3.8952   24.8297 H   0  0  0  0  0  0  0  0  0  0  0  0
   38.7595    4.3669   27.2726 H   0  0  0  0  0  0  0  0  0  0  0  0
   38.7594    6.1032   26.9368 H   0  0  0  0  0  0  0  0  0  0  0  0
   41.0251    5.9039   25.9025 H   0  0  0  0  0  0  0  0  0  0  0  0
   41.0252    4.1672   26.2359 H   0  0  0  0  0  0  0  0  0  0  0  0
   40.7861    4.6361   28.6789 H   0  0  0  0  0  0  0  0  0  0  0  0
   40.7861    6.3729   28.3456 H   0  0  0  0  0  0  0  0  0  0  0  0
   43.0518    6.1741   27.3099 H   0  0  0  0  0  0  0  0  0  0  0  0
   43.0518    4.4373   27.6433 H   0  0  0  0  0  0  0  0  0  0  0  0
   42.8128    4.9062   30.0863 H   0  0  0  0  0  0  0  0  0  0  0  0
   42.8128    6.6430   29.7529 H   0  0  0  0  0  0  0  0  0  0  0  0
   45.0785    6.4442   28.7173 H   0  0  0  0  0  0  0  0  0  0  0  0
   45.0785    4.7074   29.0506 H   0  0  0  0  0  0  0  0  0  0  0  0
   44.8395    5.1763   31.4937 H   0  0  0  0  0  0  0  0  0  0  0  0
   44.8395    6.9131   31.1603 H   0  0  0  0  0  0  0  0  0  0  0  0
   47.1051    6.7143   30.1247 H   0  0  0  0  0  0  0  0  0  0  0  0
   47.1051    4.9775   30.4580 H   0  0  0  0  0  0  0  0  0  0  0  0
   46.8661    5.4465   32.9010 H   0  0  0  0  0  0  0  0  0  0  0  0
   46.8661    7.1832   32.5677 H   0  0  0  0  0  0  0  0  0  0  0  0
   49.1318    6.9844   31.5321 H   0  0  0  0  0  0  0  0  0  0  0  0
   49.1318    5.2477   31.8654 H   0  0  0  0  0  0  0  0  0  0  0  0
   48.8916    5.7174   34.3087 H   0  0  0  0  0  0  0  0  0  0  0  0
   48.8939    7.4540   33.9745 H   0  0  0  0  0  0  0  0  0  0  0  0
   51.1596    7.2518   32.9395 H   0  0  0  0  0  0  0  0  0  0  0  0
   51.1573    5.5152   33.2737 H   0  0  0  0  0  0  0  0  0  0  0  0
   50.9194    5.9847   35.7161 H   0  0  0  0  0  0  0  0  0  0  0  0
   50.9195    7.7215   35.3829 H   0  0  0  0  0  0  0  0  0  0  0  0
   53.1851    7.5237   34.3483 H   0  0  0  0  0  0  0  0  0  0  0  0
   53.1851    5.7864   34.6792 H   0  0  0  0  0  0  0  0  0  0  0  0
   52.9450    6.2527   37.1232 H   0  0  0  0  0  0  0  0  0  0  0  0
   52.9472    7.9898   36.7914 H   0  0  0  0  0  0  0  0  0  0  0  0
   55.2129    7.7881   35.7551 H   0  0  0  0  0  0  0  0  0  0  0  0
   55.2106    6.0515   36.0892 H   0  0  0  0  0  0  0  0  0  0  0  0
   54.9727    6.5210   38.5317 H   0  0  0  0  0  0  0  0  0  0  0  0
   54.9728    8.2578   38.1984 H   0  0  0  0  0  0  0  0  0  0  0  0
   57.2384    8.0600   37.1638 H   0  0  0  0  0  0  0  0  0  0  0  0
   57.2385    6.3227   37.4947 H   0  0  0  0  0  0  0  0  0  0  0  0
   57.0006    6.7874   39.9381 H   0  0  0  0  0  0  0  0  0  0  0  0
   56.9983    8.5248   39.6081 H   0  0  0  0  0  0  0  0  0  0  0  0
   59.2640    8.3309   38.5715 H   0  0  0  0  0  0  0  0  0  0  0  0
   59.2662    6.5935   38.9015 H   0  0  0  0  0  0  0  0  0  0  0  0
   59.0261    7.0583   41.3458 H   0  0  0  0  0  0  0  0  0  0  0  0
   59.0260    8.7955   41.0149 H   0  0  0  0  0  0  0  0  0  0  0  0
   61.2918    8.5983   39.9789 H   0  0  0  0  0  0  0  0  0  0  0  0
   61.2918    6.8610   40.3098 H   0  0  0  0  0  0  0  0  0  0  0  0
   61.0528    7.3265   42.7535 H   0  0  0  0  0  0  0  0  0  0  0  0
   61.0527    9.0637   42.4226 H   0  0  0  0  0  0  0  0  0  0  0  0
   63.3184    8.8664   41.3867 H   0  0  0  0  0  0  0  0  0  0  0  0
   63.3184    7.1292   41.7176 H   0  0  0  0  0  0  0  0  0  0  0  0
   63.0794    7.5946   44.1613 H   0  0  0  0  0  0  0  0  0  0  0  0
   63.0794    9.3319   43.8304 H   0  0  0  0  0  0  0  0  0  0  0  0
   65.3451    9.1346   42.7945 H   0  0  0  0  0  0  0  0  0  0  0  0
   65.3451    7.3973   43.1254 H   0  0  0  0  0  0  0  0  0  0  0  0
   65.1061    7.8628   45.5690 H   0  0  0  0  0  0  0  0  0  0  0  0
   65.1061    9.6000   45.2381 H   0  0  0  0  0  0  0  0  0  0  0  0
   67.3718    9.4027   44.2022 H   0  0  0  0  0  0  0  0  0  0  0  0
   67.3718    7.6655   44.5331 H   0  0  0  0  0  0  0  0  0  0  0  0
   67.1327    8.1309   46.9768 H   0  0  0  0  0  0  0  0  0  0  0  0
   67.1327    9.8682   46.6459 H   0  0  0  0  0  0  0  0  0  0  0  0
   69.3985    9.6708   45.6100 H   0  0  0  0  0  0  0  0  0  0  0  0
   69.3984    7.9336   45.9409 H   0  0  0  0  0  0  0  0  0  0  0  0
   69.1583    8.3999   48.3848 H   0  0  0  0  0  0  0  0  0  0  0  0
   69.1605   10.1369   48.0531 H   0  0  0  0  0  0  0  0  0  0  0  0
   71.4263    9.9362   47.0178 H   0  0  0  0  0  0  0  0  0  0  0  0
   71.4239    8.1991   47.3496 H   0  0  0  0  0  0  0  0  0  0  0  0
   71.1849    8.6660   49.7930 H   0  0  0  0  0  0  0  0  0  0  0  0
   71.1872   10.4031   49.4612 H   0  0  0  0  0  0  0  0  0  0  0  0
   73.4529   10.2024   48.4260 H   0  0  0  0  0  0  0  0  0  0  0  0
   73.4506    8.4653   48.7577 H   0  0  0  0  0  0  0  0  0  0  0  0
   73.2116    8.9322   51.2011 H   0  0  0  0  0  0  0  0  0  0  0  0
   73.2139   10.6693   50.8694 H   0  0  0  0  0  0  0  0  0  0  0  0
   75.4795   10.4685   49.8341 H   0  0  0  0  0  0  0  0  0  0  0  0
   75.4773    8.7315   50.1658 H   0  0  0  0  0  0  0  0  0  0  0  0
   75.2394    9.1976   52.6090 H   0  0  0  0  0  0  0  0  0  0  0  0
   75.2394   10.9348   52.2781 H   0  0  0  0  0  0  0  0  0  0  0  0
   77.5051   10.7375   51.2422 H   0  0  0  0  0  0  0  0  0  0  0  0
   77.5051    9.0002   51.5730 H   0  0  0  0  0  0  0  0  0  0  0  0
   77.2663    9.4657   54.0167 H   0  0  0  0  0  0  0  0  0  0  0  0
   77.2664   11.2029   53.6859 H   0  0  0  0  0  0  0  0  0  0  0  0
   79.5325   11.0067   52.6510 H   0  0  0  0  0  0  0  0  0  0  0  0
   79.5325    9.2688   52.9795 H   0  0  0  0  0  0  0  0  0  0  0  0
   79.2929    9.7321   55.4241 H   0  0  0  0  0  0  0  0  0  0  0  0
   79.2951   11.4689   55.0949 H   0  0  0  0  0  0  0  0  0  0  0  0
   81.5698   11.2718   54.0713 H   0  0  0  0  0  0  0  0  0  0  0  0
   81.5674    9.5351   54.4004 H   0  0  0  0  0  0  0  0  0  0  0  0
   81.3474   11.7392   56.5154 H   0  0  0  0  0  0  0  0  0  0  0  0
   82.7920   10.7678   56.1671 H   0  0  0  0  0  0  0  0  0  0  0  0
   81.3451    9.9949   56.8459 H   0  0  0  0  0  0  0  0  0  0  0  0
  1  2  1  0  0  0  0
  1 82  1  0  0  0  0
  1 83  1  0  0  0  0
  1 84  1  0  0  0  0
  2  3  1  0  0  0  0
  2 85  1  0  0  0  0
  2 86  1  0  0  0  0
  3  4  1  0  0  0  0
  3 87  1  0  0  0  0
  3 88  1  0  0  0  0
  4  5  1  0  0  0  0
  4 89  1  0  0  0  0
  4 90  1  0  0  0  0
  5  6  1  0  0  0  0
  5 91  1  0  0  0  0
  6  7  1  0  0  0  0
  6 92  1  0  0  0  0
  7  8  1  0  0  0  0
  7 93  1  0  0  0  0
  8  9  1  0  0  0  0
  8 94  1  0  0  0  0
  9 10  1  0  0  0  0
  9 95  1  0  0  0  0
 10 11  1  0  0  0  0
 10 96  1  0  0  0  0
 10 97  1  0  0  0  0
 11 12  1  0  0  0  0
 11 98  1  0  0  0  0
 11 99  1  0  0  0  0
 12 13  1  0  0  0  0
 12100  1  0  0  0  0
 12101  1  0  0  0  0
 13 14  1  0  0  0  0
 13102  1  0  0  0  0
 13103  1  0  0  0  0
 14 15  1  0  0  0  0
 14104  1  0  0  0  0
 14105  1  0  0  0  0
 15 16  1  0  0  0  0
 15106  1  0  0  0  0
 15107  1  0  0  0  0
 16 17  1  0  0  0  0
 16108  1  0  0  0  0
 16109  1  0  0  0  0
 17 18  1  0  0  0  0
 17110  1  0  0  0  0
 17111  1  0  0  0  0
 18 19  1  0  0  0  0
 18112  1  0  0  0  0
 18113  1  0  0  0  0
 19 20  1  0  0  0  0
 19114  1  0  0  0  0
 19115  1  0  0  0  0
 20 21  1  0  0  0  0
 20116  1  0  0  0  0
 20117  1  0  0  0  0
 21 22  1  0  0  0  0
 21118  1  0  0  0  0
 21119  1  0  0  0  0
 22 23  1  0  0  0  0
 22120  1  0  0  0  0
 22121  1  0  0  0  0
 23 24  1  0  0  0  0
 23122  1  0  0  0  0
 23123  1  0  0  0  0
 24 25  1  0  0  0  0
 24124  1  0  0  0  0
 24125  1  0  0  0  0
 25 26  1  0  0  0  0
 25126  1  0  0  0  0
 25127  1  0  0  0  0
 26 27  1  0  0  0  0
 26128  1  0  0  0  0
 26129  1  0  0  0  0
 27 28  1  0  0  0  0
 27130  1  0  0  0  0
 27131  1  0  0  0  0
 28 29  1  0  0  0  0
 28132  1  0  0  0  0
 28133  1  0  0  0  0
 29 30  1  0  0  0  0
 29134  1  0  0  0  0
 29135  1  0  0  0  0
 30 31  1  0  0  0  0
 30136  1  0  0  0  0
 30137  1  0  0  0  0
 31 32  1  0  0  0  0
 31138  1  0  0  0  0
 31139  1  0  0  0  0
 32 33  1  0  0  0  0
 32140  1  0  0  0  0
 32141  1  0  0  0  0
 33 34  1  0  0  0  0
 33142  1  0  0  0  0
 33143  1  0  0  0  0
 34 35  1  0  0  0  0
 34144  1  0  0  0  0
 34145  1  0  0  0  0
 35 36  1  0  0  0  0
 35146  1  0  0  0  0
 35147  1  0  0  0  0
 36 37  1  0  0  0  0
 36148  1  0  0  0  0
 36149  1  0  0  0  0
 37 38  1  0  0  0  0
 37150  1  0  0  0  0
 37151  1  0  0  0  0
 38 39  1  0  0  0  0
 38152  1  0  0  0  0
 38153  1  0  0  0  0
 39 40  1  0  0  0  0
 39154  1  0  0  0  0
 39155  1  0  0  0  0
 40 41  1  0  0  0  0
 40156  1  0  0  0  0
 40157  1  0  0  0  0
 41 42  1  0  0  0  0
 41158  1  0  0  0  0
 41159  1  0  0  0  0
 42 43  1  0  0  0  0
 42160  1  0  0  0  0
 42161  1  0  0  0  0
 43 44  1  0  0  0  0
 43162  1  0  0  0  0
 43163  1  0  0  0  0
 44 45  1  0  0  0  0
 44164  1  0  0  0  0
 44165  1  0  0  0  0
 45 46  1  0  0  0  0
 45166  1  0  0  0  0
 45167  1  0  0  0  0
 46 47  1  0  0  0  0
 46168  1  0  0  0  0
 46169  1  0  0  0  0
 47 48  1  0  0  0  0
 47170  1  0  0  0  0
 47171  1  0  0  0  0
 48 49  1  0  0  0  0
 48172  1  0  0  0  0
 48173  1  0  0  0  0
 49 50  1  0  0  0  0
 49174  1  0  0  0  0
 49175  1  0  0  0  0
 50 51  1  0  0  0  0
 50176  1  0  0  0  0
 50177  1  0  0  0  0
 51 52  1  0  0  0  0
 51178  1  0  0  0  0
 51179  1  0  0  0  0
 52 53  1  0  0  0  0
 52180  1  0  0  0  0
 52181  1  0  0  0  0
 53 54  1  0  0  0  0
 53182  1  0  0  0  0
 53183  1  0  0  0  0
 54 55  1  0  0  0  0
 54184  1  0  0  0  0
 54185  1  0  0  0  0
 55 56  1  0  0  0  0
 55186  1  0  0  0  0
 55187  1  0  0  0  0
 56 57  1  0  0  0  0
 56188  1  0  0  0  0
 56189  1  0  0  0  0
 57 58  1  0  0  0  0
 57190  1  0  0  0  0
 57191  1  0  0  0  0
 58 59  1  0  0  0  0
 58192  1  0  0  0  0
 58193  1  0  0  0  0
 59 60  1  0  0  0  0
 59194  1  0  0  0  0
 59195  1  0  0  0  0
 60 61  1  0  0  0  0
 60196  1  0  0  0  0
 60197  1  0  0  0  0
 61 62  1  0  0  0  0
 61198  1  0  0  0  0
 61199  1  0  0  0  0
 62 63  1  0  0  0  0
 62200  1  0  0  0  0
 62201  1  0  0  0  0
 63 64  1  0  0  0  0
 63202  1  0  0  0  0
 63203  1  0  0  0  0
 64 65  1  0  0  0  0
 64204  1  0  0  0  0
 64205  1  0  0  0  0
 65 66  1  0  0  0  0
 65206  1  0  0  0  0
 65207  1  0  0  0  0
 66 67  1  0  0  0  0
 66208  1  0  0  0  0
 66209  1  0  0  0  0
 67 68  1  0  0  0  0
 67210  1  0  0  0  0
 67211  1  0  0  0  0
 68 69  1  0  0  0  0
 68212  1  0  0  0  0
 68213  1  0  0  0  0
 69 70  1  0  0  0  0
 69214  1  0  0  0  0
 69215  1  0  0  0  0
 70 71  1  0  0  0  0
 70216  1  0  0  0  0
 70217  1  0  0  0  0
 71 72  1  0  0  0  0
 71218  1  0  0  0  0
 71219  1  0  0  0  0
 72 73  1  0  0  0  0
 72220  1  0  0  0  0
 72221  1  0  0  0  0
 73 74  1  0  0  0  0
 73222  1  0  0  0  0
 73223  1  0  0  0  0
 74 75  1  0  0  0  0
 74224  1  0  0  0  0
 74225  1  0  0  0  0
 75 76  1  0  0  0  0
 75226  1  0  0  0  0
 75227  1  0  0  0  0
 76 77  1  0  0  0  0
 76228  1  0  0  0  0
 76229  1  0  0  0  0
 77 78  1  0  0  0  0
 77230  1  0  0  0  0
 77231  1  0  0  0  0
 78 79  1  0  0  0  0
 78232  1  0  0  0  0
 78233  1  0  0  0  0
 79 80  1  0  0  0  0
 79234  1  0  0  0  0
 79235  1  0  0  0  0
 80 81  1  0  0  0  0
 80236  1  0  0  0  0
 80237  1  0  0  0  0
 81238  1  0  0  0  0
 81239  1  0  0  0  0
 81240  1  0  0  0  0
M  END
$$$$
