
 OpenBabel04232216433D

 31 31  0  0  0  0  0  0  0  0999 V2000
    6.5085   -0.8338   -2.4202 C   0  0  0  0  0  0  0  0  0  0  0  0
    5.1056   -0.7220   -1.9616 C   0  0  0  0  0  0  0  0  0  0  0  0
    4.4961   -1.0416   -0.7951 C   0  0  0  0  0  0  0  0  0  0  0  0
    5.2017   -1.5314    0.3732 C   0  0  0  0  0  0  0  0  0  0  0  0
    5.6160   -2.7897    0.3303 C   0  0  0  0  0  0  0  0  0  0  0  0
    7.0369   -3.0477    0.5458 C   0  0  0  0  0  0  0  0  0  0  0  0
    7.5076   -4.0562   -0.2486 C   0  0  0  0  0  0  0  0  0  0  0  0
    8.8266   -4.4811   -0.5258 C   0  0  0  0  0  0  0  0  0  0  0  0
    8.9913   -5.3726   -1.5131 C   0  0  0  0  0  0  0  0  0  0  0  0
   10.0692   -6.0718   -1.9031 N   0  0  0  0  0  0  0  0  0  0  0  0
   11.0091   -5.4475   -2.5897 C   0  0  0  0  0  0  0  0  0  0  0  0
   11.0068   -3.9816   -2.7778 C   0  0  0  0  0  0  0  0  0  0  0  0
   10.2343   -3.4873   -3.7481 C   0  0  0  0  0  0  0  0  0  0  0  0
    9.8111   -2.1069   -3.6222 C   0  0  0  0  0  0  0  0  0  0  0  0
    8.7641   -1.5469   -2.9964 C   0  0  0  0  0  0  0  0  0  0  0  0
    7.3476   -1.8616   -2.7081 C   0  0  0  0  0  0  0  0  0  0  0  0
    6.5739   -0.1008   -3.2497 H   0  0  0  0  0  0  0  0  0  0  0  0
    4.5108   -0.0603   -2.5893 H   0  0  0  0  0  0  0  0  0  0  0  0
    3.4373   -0.8335   -0.6671 H   0  0  0  0  0  0  0  0  0  0  0  0
    5.7060   -0.7605    0.9413 H   0  0  0  0  0  0  0  0  0  0  0  0
    5.0803   -3.5016   -0.2779 H   0  0  0  0  0  0  0  0  0  0  0  0
    7.6802   -2.3428    1.0332 H   0  0  0  0  0  0  0  0  0  0  0  0
    6.7599   -4.5897   -0.8206 H   0  0  0  0  0  0  0  0  0  0  0  0
    9.6796   -4.0692    0.0232 H   0  0  0  0  0  0  0  0  0  0  0  0
    8.0979   -5.6492   -2.1108 H   0  0  0  0  0  0  0  0  0  0  0  0
   11.8397   -6.0117   -3.0086 H   0  0  0  0  0  0  0  0  0  0  0  0
   11.3115   -3.4324   -1.8925 H   0  0  0  0  0  0  0  0  0  0  0  0
   10.0105   -4.0970   -4.6391 H   0  0  0  0  0  0  0  0  0  0  0  0
   10.6495   -1.4535   -3.8321 H   0  0  0  0  0  0  0  0  0  0  0  0
    9.0385   -0.5865   -2.5183 H   0  0  0  0  0  0  0  0  0  0  0  0
    6.9287   -2.7242   -3.2118 H   0  0  0  0  0  0  0  0  0  0  0  0
  1  2  1  0  0  0  0
  1 16  2  3  0  0  0
  1 17  1  0  0  0  0
  2  3  2  3  0  0  0
  2 18  1  0  0  0  0
  3  4  1  0  0  0  0
  3 19  1  0  0  0  0
  4  5  2  3  0  0  0
  4 20  1  0  0  0  0
  5  6  1  0  0  0  0
  5 21  1  0  0  0  0
  6  7  2  3  0  0  0
  6 22  1  0  0  0  0
  7  8  1  0  0  0  0
  7 23  1  0  0  0  0
  8  9  2  3  0  0  0
  8 24  1  0  0  0  0
  9 10  1  0  0  0  0
  9 25  1  0  0  0  0
 10 11  2  3  0  0  0
 11 12  1  0  0  0  0
 11 26  1  0  0  0  0
 12 13  2  3  0  0  0
 12 27  1  0  0  0  0
 13 14  1  0  0  0  0
 13 28  1  0  0  0  0
 14 15  2  3  0  0  0
 14 29  1  0  0  0  0
 15 16  1  0  0  0  0
 15 30  1  0  0  0  0
 16 31  1  0  0  0  0
M  END
$$$$
