
 OpenBabel04232217033D

162161  0  0  0  0  0  0  0  0999 V2000
   22.3245   27.1579    2.8092 S   0  0  0  0  0  0  0  0  0  0  0  0
   21.4310   26.6195    1.5168 O   0  0  0  0  0  0  0  0  0  0  0  0
   21.9142   25.3119    1.1158 N   0  0  0  0  0  0  0  0  0  0  0  0
   21.4719   24.9441   -0.1860 N   0  0  0  0  0  0  0  0  0  0  0  0
   22.1839   25.6402   -1.2055 N   0  0  0  0  0  0  0  0  0  0  0  0
   23.5943   25.3903   -1.1250 N   0  0  0  0  0  0  0  0  0  0  0  0
   23.8901   23.9968   -1.3414 N   0  0  0  0  0  0  0  0  0  0  0  0
   23.4490   23.5718   -2.6403 N   0  0  0  0  0  0  0  0  0  0  0  0
   24.1150   24.3291   -3.6669 N   0  0  0  0  0  0  0  0  0  0  0  0
   25.5427   24.1299   -3.5788 N   0  0  0  0  0  0  0  0  0  0  0  0
   25.8471   22.7332   -3.7558 N   0  0  0  0  0  0  0  0  0  0  0  0
   25.3834   22.2762   -5.0354 N   0  0  0  0  0  0  0  0  0  0  0  0
   26.0096   23.0442   -6.0811 N   0  0  0  0  0  0  0  0  0  0  0  0
   27.4407   22.8912   -6.0014 N   0  0  0  0  0  0  0  0  0  0  0  0
   27.7822   21.4969   -6.1413 N   0  0  0  0  0  0  0  0  0  0  0  0
   27.2995   21.0089   -7.4097 N   0  0  0  0  0  0  0  0  0  0  0  0
   27.8973   21.7757   -8.4751 N   0  0  0  0  0  0  0  0  0  0  0  0
   29.3331   21.6502   -8.4036 N   0  0  0  0  0  0  0  0  0  0  0  0
   29.6971   20.2594   -8.5215 N   0  0  0  0  0  0  0  0  0  0  0  0
   29.2087   19.7447   -9.7779 N   0  0  0  0  0  0  0  0  0  0  0  0
   29.7823   20.5087  -10.8596 N   0  0  0  0  0  0  0  0  0  0  0  0
   31.2213   20.4111  -10.7990 N   0  0  0  0  0  0  0  0  0  0  0  0
   31.6076   19.0248  -10.9013 N   0  0  0  0  0  0  0  0  0  0  0  0
   31.1173   18.4841  -12.1461 N   0  0  0  0  0  0  0  0  0  0  0  0
   31.6709   19.2452  -13.2364 N   0  0  0  0  0  0  0  0  0  0  0  0
   33.1102   19.1688  -13.1938 N   0  0  0  0  0  0  0  0  0  0  0  0
   33.5153   17.7863  -13.2818 N   0  0  0  0  0  0  0  0  0  0  0  0
   33.0229   17.2246  -14.5165 N   0  0  0  0  0  0  0  0  0  0  0  0
   33.5540   17.9797  -15.6260 N   0  0  0  0  0  0  0  0  0  0  0  0
   34.9959   17.9294  -15.5877 N   0  0  0  0  0  0  0  0  0  0  0  0
   35.4246   16.5526  -15.6587 N   0  0  0  0  0  0  0  0  0  0  0  0
   34.9296   15.9647  -16.8806 N   0  0  0  0  0  0  0  0  0  0  0  0
   35.4383   16.7122  -18.0055 N   0  0  0  0  0  0  0  0  0  0  0  0
   36.8814   16.6874  -17.9767 N   0  0  0  0  0  0  0  0  0  0  0  0
   37.3332   15.3177  -18.0354 N   0  0  0  0  0  0  0  0  0  0  0  0
   36.8371   14.7064  -19.2453 N   0  0  0  0  0  0  0  0  0  0  0  0
   37.3217   15.4484  -20.3848 N   0  0  0  0  0  0  0  0  0  0  0  0
   38.7650   15.4485  -20.3714 N   0  0  0  0  0  0  0  0  0  0  0  0
   39.2395   14.0859  -20.4142 N   0  0  0  0  0  0  0  0  0  0  0  0
   38.7440   13.4488  -21.6110 N   0  0  0  0  0  0  0  0  0  0  0  0
   39.2064   14.1827  -22.7647 N   0  0  0  0  0  0  0  0  0  0  0  0
   40.6496   14.2068  -22.7640 N   0  0  0  0  0  0  0  0  0  0  0  0
   41.1463   12.8518  -22.7931 N   0  0  0  0  0  0  0  0  0  0  0  0
   40.6514   12.1910  -23.9771 N   0  0  0  0  0  0  0  0  0  0  0  0
   41.0919   12.9173  -25.1444 N   0  0  0  0  0  0  0  0  0  0  0  0
   42.5341   12.9653  -25.1564 N   0  0  0  0  0  0  0  0  0  0  0  0
   43.0529   11.6189  -25.1719 N   0  0  0  0  0  0  0  0  0  0  0  0
   42.5590   10.9339  -26.3430 N   0  0  0  0  0  0  0  0  0  0  0  0
   42.9772   11.6516  -27.5235 N   0  0  0  0  0  0  0  0  0  0  0  0
   44.4190   11.7240  -27.5489 N   0  0  0  0  0  0  0  0  0  0  0  0
   44.9602   10.3855  -27.5514 N   0  0  0  0  0  0  0  0  0  0  0  0
   44.4674    9.6762  -28.7082 N   0  0  0  0  0  0  0  0  0  0  0  0
   44.8623   10.3843  -29.9023 N   0  0  0  0  0  0  0  0  0  0  0  0
   46.3019   10.4793  -29.9437 N   0  0  0  0  0  0  0  0  0  0  0  0
   46.8662    9.1515  -29.9345 N   0  0  0  0  0  0  0  0  0  0  0  0
   46.3747    8.4181  -31.0766 N   0  0  0  0  0  0  0  0  0  0  0  0
   46.7480    9.1115  -32.2859 N   0  0  0  0  0  0  0  0  0  0  0  0
   48.1850    9.2329  -32.3379 N   0  0  0  0  0  0  0  0  0  0  0  0
   48.7725    7.9154  -32.3169 N   0  0  0  0  0  0  0  0  0  0  0  0
   48.2835    7.1616  -33.4469 N   0  0  0  0  0  0  0  0  0  0  0  0
   48.6367    7.8516  -34.6651 N   0  0  0  0  0  0  0  0  0  0  0  0
   50.0714    7.9928  -34.7304 N   0  0  0  0  0  0  0  0  0  0  0  0
   50.6778    6.6835  -34.6958 N   0  0  0  0  0  0  0  0  0  0  0  0
   50.1923    5.9071  -35.8113 N   0  0  0  0  0  0  0  0  0  0  0  0
   50.5245    6.5849  -37.0408 N   0  0  0  0  0  0  0  0  0  0  0  0
   51.9551    6.7479  -37.1225 N   0  0  0  0  0  0  0  0  0  0  0  0
   52.5849    5.4508  -37.0778 N   0  0  0  0  0  0  0  0  0  0  0  0
   52.1059    4.6507  -38.1769 N   0  0  0  0  0  0  0  0  0  0  0  0
   52.4111    5.3143  -39.4203 N   0  0  0  0  0  0  0  0  0  0  0  0
   53.8376    5.5042  -39.5218 N   0  0  0  0  0  0  0  0  0  0  0  0
   54.4963    4.2208  -39.4658 N   0  0  0  0  0  0  0  0  0  0  0  0
   54.0287    3.3907  -40.5506 N   0  0  0  0  0  0  0  0  0  0  0  0
   54.3088    4.0382  -41.8067 N   0  0  0  0  0  0  0  0  0  0  0  0
   55.7295    4.2570  -41.9377 N   0  0  0  0  0  0  0  0  0  0  0  0
   56.4290    2.9971  -41.8745 N   0  0  0  0  0  0  0  0  0  0  0  0
   55.9854    2.1314  -42.9363 N   0  0  0  0  0  0  0  0  0  0  0  0
   56.2299    2.7460  -44.2155 N   0  0  0  0  0  0  0  0  0  0  0  0
   57.6418    2.9623  -44.4100 N   0  0  0  0  0  0  0  0  0  0  0  0
   58.3612    1.7105  -44.3985 N   0  0  0  0  0  0  0  0  0  0  0  0
   57.8954    0.8373  -45.4319 N   0  0  0  0  0  0  0  0  0  0  0  0
   58.1529    1.4659  -46.6905 N   0  0  0  0  0  0  0  0  0  0  0  0
   22.1616   28.4751    2.6251 H   0  0  0  0  0  0  0  0  0  0  0  0
   21.4626   24.7300    1.8245 H   0  0  0  0  0  0  0  0  0  0  0  0
   20.4596   25.0507   -0.3055 H   0  0  0  0  0  0  0  0  0  0  0  0
   22.0117   26.6486   -1.1444 H   0  0  0  0  0  0  0  0  0  0  0  0
   23.9121   25.6491   -0.1837 H   0  0  0  0  0  0  0  0  0  0  0  0
   23.3925   23.4564   -0.6211 H   0  0  0  0  0  0  0  0  0  0  0  0
   22.4357   23.7517   -2.6980 H   0  0  0  0  0  0  0  0  0  0  0  0
   23.9101   25.3164   -3.4976 H   0  0  0  0  0  0  0  0  0  0  0  0
   25.8255   24.4228   -2.6517 H   0  0  0  0  0  0  0  0  0  0  0  0
   25.3497   22.2241   -3.0139 H   0  0  0  0  0  0  0  0  0  0  0  0
   24.3721   22.4570   -5.0569 H   0  0  0  0  0  0  0  0  0  0  0  0
   25.7764   24.0319   -5.9049 H   0  0  0  0  0  0  0  0  0  0  0  0
   27.7189   23.2040   -5.0638 H   0  0  0  0  0  0  0  0  0  0  0  0
   27.2863   20.9980   -5.3889 H   0  0  0  0  0  0  0  0  0  0  0  0
   26.2831   21.1747   -7.4189 H   0  0  0  0  0  0  0  0  0  0  0  0
   27.6468   22.7591   -8.3028 H   0  0  0  0  0  0  0  0  0  0  0  0
   29.6078   21.9818   -7.4688 H   0  0  0  0  0  0  0  0  0  0  0  0
   29.2131   19.7675   -7.7574 H   0  0  0  0  0  0  0  0  0  0  0  0
   28.1900   19.8958   -9.7768 H   0  0  0  0  0  0  0  0  0  0  0  0
   29.5153   21.4892  -10.6953 H   0  0  0  0  0  0  0  0  0  0  0  0
   31.4961   20.7594   -9.8701 H   0  0  0  0  0  0  0  0  0  0  0  0
   31.1373   18.5359  -10.1255 H   0  0  0  0  0  0  0  0  0  0  0  0
   30.0957   18.6181  -12.1365 H   0  0  0  0  0  0  0  0  0  0  0  0
   31.3885   20.2241  -13.0838 H   0  0  0  0  0  0  0  0  0  0  0  0
   33.3863   19.5306  -12.2719 H   0  0  0  0  0  0  0  0  0  0  0  0
   33.0577   17.3007  -12.4973 H   0  0  0  0  0  0  0  0  0  0  0  0
   32.0003   17.3441  -14.5009 H   0  0  0  0  0  0  0  0  0  0  0  0
   33.2584   18.9555  -15.4792 H   0  0  0  0  0  0  0  0  0  0  0  0
   35.2745   18.3102  -14.6720 H   0  0  0  0  0  0  0  0  0  0  0  0
   34.9819   16.0711  -14.8629 H   0  0  0  0  0  0  0  0  0  0  0  0
   33.9052   16.0686  -16.8568 H   0  0  0  0  0  0  0  0  0  0  0  0
   35.1268   17.6847  -17.8709 H   0  0  0  0  0  0  0  0  0  0  0  0
   37.1580   17.0826  -17.0667 H   0  0  0  0  0  0  0  0  0  0  0  0
   36.9066   14.8382  -17.2299 H   0  0  0  0  0  0  0  0  0  0  0  0
   35.8113   14.7931  -19.2128 H   0  0  0  0  0  0  0  0  0  0  0  0
   36.9947   16.4169  -20.2590 H   0  0  0  0  0  0  0  0  0  0  0  0
   39.0454   15.8627  -19.4711 H   0  0  0  0  0  0  0  0  0  0  0  0
   38.8278   13.6111  -19.5983 H   0  0  0  0  0  0  0  0  0  0  0  0
   37.7172   13.5181  -21.5709 H   0  0  0  0  0  0  0  0  0  0  0  0
   38.8645   15.1473  -22.6493 H   0  0  0  0  0  0  0  0  0  0  0  0
   40.9306   14.6375  -21.8715 H   0  0  0  0  0  0  0  0  0  0  0  0
   40.7495   12.3811  -21.9674 H   0  0  0  0  0  0  0  0  0  0  0  0
   39.6240   12.2438  -23.9290 H   0  0  0  0  0  0  0  0  0  0  0  0
   40.7346   13.8774  -25.0383 H   0  0  0  0  0  0  0  0  0  0  0  0
   42.8157   13.4126  -24.2723 H   0  0  0  0  0  0  0  0  0  0  0  0
   42.6716   11.1522  -24.3370 H   0  0  0  0  0  0  0  0  0  0  0  0
   41.5322   10.9700  -26.2868 H   0  0  0  0  0  0  0  0  0  0  0  0
   42.6052   12.6072  -27.4271 H   0  0  0  0  0  0  0  0  0  0  0  0
   44.7003   12.1871  -26.6738 H   0  0  0  0  0  0  0  0  0  0  0  0
   44.5943    9.9250  -26.7067 H   0  0  0  0  0  0  0  0  0  0  0  0
   43.4391    9.6982  -28.6418 H   0  0  0  0  0  0  0  0  0  0  0  0
   44.4761   11.3354  -29.8151 H   0  0  0  0  0  0  0  0  0  0  0  0
   46.5843   10.9587  -29.0774 H   0  0  0  0  0  0  0  0  0  0  0  0
   46.5168    8.6946  -29.0802 H   0  0  0  0  0  0  0  0  0  0  0  0
   45.3480    8.4234  -31.0019 H   0  0  0  0  0  0  0  0  0  0  0  0
   46.3435   10.0559  -32.2172 H   0  0  0  0  0  0  0  0  0  0  0  0
   48.4669    9.7289  -31.4810 H   0  0  0  0  0  0  0  0  0  0  0  0
   48.4387    7.4628  -31.4547 H   0  0  0  0  0  0  0  0  0  0  0  0
   47.2579    7.1529  -33.3646 H   0  0  0  0  0  0  0  0  0  0  0  0
   48.2204    8.7910  -34.5964 H   0  0  0  0  0  0  0  0  0  0  0  0
   50.3506    8.5020  -33.8805 H   0  0  0  0  0  0  0  0  0  0  0  0
   50.3544    6.2385  -33.8256 H   0  0  0  0  0  0  0  0  0  0  0  0
   49.1677    5.8803  -35.7213 H   0  0  0  0  0  0  0  0  0  0  0  0
   50.0927    7.5185  -36.9827 H   0  0  0  0  0  0  0  0  0  0  0  0
   52.2343    7.2752  -36.2830 H   0  0  0  0  0  0  0  0  0  0  0  0
   52.2800    5.0121  -36.1973 H   0  0  0  0  0  0  0  0  0  0  0  0
   51.0802    4.6057  -38.0758 H   0  0  0  0  0  0  0  0  0  0  0  0
   51.9646    6.2413  -39.3725 H   0  0  0  0  0  0  0  0  0  0  0  0
   54.1167    6.0474  -38.6935 H   0  0  0  0  0  0  0  0  0  0  0  0
   54.2087    3.7868  -38.5779 H   0  0  0  0  0  0  0  0  0  0  0  0
   53.0078    3.3223  -40.4407 H   0  0  0  0  0  0  0  0  0  0  0  0
   53.8419    4.9517  -41.7751 H   0  0  0  0  0  0  0  0  0  0  0  0
   56.0072    4.8218  -41.1215 H   0  0  0  0  0  0  0  0  0  0  0  0
   56.1671    2.5671  -40.9781 H   0  0  0  0  0  0  0  0  0  0  0  0
   54.9688    2.0269  -42.8202 H   0  0  0  0  0  0  0  0  0  0  0  0
   55.7587    3.6598  -44.1924 H   0  0  0  0  0  0  0  0  0  0  0  0
   57.9597    3.5282  -43.6098 H   0  0  0  0  0  0  0  0  0  0  0  0
   58.1632    1.2723  -43.4885 H   0  0  0  0  0  0  0  0  0  0  0  0
   56.8781    0.7249  -45.2926 H   0  0  0  0  0  0  0  0  0  0  0  0
   59.1470    1.6877  -46.7148 H   0  0  0  0  0  0  0  0  0  0  0  0
   57.7153    2.3932  -46.6234 H   0  0  0  0  0  0  0  0  0  0  0  0
  1  2  1  0  0  0  0
  1 82  1  0  0  0  0
  2  3  1  0  0  0  0
  3  4  1  0  0  0  0
  3 83  1  0  0  0  0
  4  5  1  0  0  0  0
  4 84  1  0  0  0  0
  5  6  1  0  0  0  0
  5 85  1  0  0  0  0
  6  7  1  0  0  0  0
  6 86  1  0  0  0  0
  7  8  1  0  0  0  0
  7 87  1  0  0  0  0
  8  9  1  0  0  0  0
  8 88  1  0  0  0  0
  9 10  1  0  0  0  0
  9 89  1  0  0  0  0
 10 11  1  0  0  0  0
 10 90  1  0  0  0  0
 11 12  1  0  0  0  0
 11 91  1  0  0  0  0
 12 13  1  0  0  0  0
 12 92  1  0  0  0  0
 13 14  1  0  0  0  0
 13 93  1  0  0  0  0
 14 15  1  0  0  0  0
 14 94  1  0  0  0  0
 15 16  1  0  0  0  0
 15 95  1  0  0  0  0
 16 17  1  0  0  0  0
 16 96  1  0  0  0  0
 17 18  1  0  0  0  0
 17 97  1  0  0  0  0
 18 19  1  0  0  0  0
 18 98  1  0  0  0  0
 19 20  1  0  0  0  0
 19 99  1  0  0  0  0
 20 21  1  0  0  0  0
 20100  1  0  0  0  0
 21 22  1  0  0  0  0
 21101  1  0  0  0  0
 22 23  1  0  0  0  0
 22102  1  0  0  0  0
 23 24  1  0  0  0  0
 23103  1  0  0  0  0
 24 25  1  0  0  0  0
 24104  1  0  0  0  0
 25 26  1  0  0  0  0
 25105  1  0  0  0  0
 26 27  1  0  0  0  0
 26106  1  0  0  0  0
 27 28  1  0  0  0  0
 27107  1  0  0  0  0
 28 29  1  0  0  0  0
 28108  1  0  0  0  0
 29 30  1  0  0  0  0
 29109  1  0  0  0  0
 30 31  1  0  0  0  0
 30110  1  0  0  0  0
 31 32  1  0  0  0  0
 31111  1  0  0  0  0
 32 33  1  0  0  0  0
 32112  1  0  0  0  0
 33 34  1  0  0  0  0
 33113  1  0  0  0  0
 34 35  1  0  0  0  0
 34114  1  0  0  0  0
 35 36  1  0  0  0  0
 35115  1  0  0  0  0
 36 37  1  0  0  0  0
 36116  1  0  0  0  0
 37 38  1  0  0  0  0
 37117  1  0  0  0  0
 38 39  1  0  0  0  0
 38118  1  0  0  0  0
 39 40  1  0  0  0  0
 39119  1  0  0  0  0
 40 41  1  0  0  0  0
 40120  1  0  0  0  0
 41 42  1  0  0  0  0
 41121  1  0  0  0  0
 42 43  1  0  0  0  0
 42122  1  0  0  0  0
 43 44  1  0  0  0  0
 43123  1  0  0  0  0
 44 45  1  0  0  0  0
 44124  1  0  0  0  0
 45 46  1  0  0  0  0
 45125  1  0  0  0  0
 46 47  1  0  0  0  0
 46126  1  0  0  0  0
 47 48  1  0  0  0  0
 47127  1  0  0  0  0
 48 49  1  0  0  0  0
 48128  1  0  0  0  0
 49 50  1  0  0  0  0
 49129  1  0  0  0  0
 50 51  1  0  0  0  0
 50130  1  0  0  0  0
 51 52  1  0  0  0  0
 51131  1  0  0  0  0
 52 53  1  0  0  0  0
 52132  1  0  0  0  0
 53 54  1  0  0  0  0
 53133  1  0  0  0  0
 54 55  1  0  0  0  0
 54134  1  0  0  0  0
 55 56  1  0  0  0  0
 55135  1  0  0  0  0
 56 57  1  0  0  0  0
 56136  1  0  0  0  0
 57 58  1  0  0  0  0
 57137  1  0  0  0  0
 58 59  1  0  0  0  0
 58138  1  0  0  0  0
 59 60  1  0  0  0  0
 59139  1  0  0  0  0
 60 61  1  0  0  0  0
 60140  1  0  0  0  0
 61 62  1  0  0  0  0
 61141  1  0  0  0  0
 62 63  1  0  0  0  0
 62142  1  0  0  0  0
 63 64  1  0  0  0  0
 63143  1  0  0  0  0
 64 65  1  0  0  0  0
 64144  1  0  0  0  0
 65 66  1  0  0  0  0
 65145  1  0  0  0  0
 66 67  1  0  0  0  0
 66146  1  0  0  0  0
 67 68  1  0  0  0  0
 67147  1  0  0  0  0
 68 69  1  0  0  0  0
 68148  1  0  0  0  0
 69 70  1  0  0  0  0
 69149  1  0  0  0  0
 70 71  1  0  0  0  0
 70150  1  0  0  0  0
 71 72  1  0  0  0  0
 71151  1  0  0  0  0
 72 73  1  0  0  0  0
 72152  1  0  0  0  0
 73 74  1  0  0  0  0
 73153  1  0  0  0  0
 74 75  1  0  0  0  0
 74154  1  0  0  0  0
 75 76  1  0  0  0  0
 75155  1  0  0  0  0
 76 77  1  0  0  0  0
 76156  1  0  0  0  0
 77 78  1  0  0  0  0
 77157  1  0  0  0  0
 78 79  1  0  0  0  0
 78158  1  0  0  0  0
 79 80  1  0  0  0  0
 79159  1  0  0  0  0
 80 81  1  0  0  0  0
 80160  1  0  0  0  0
 81161  1  0  0  0  0
 81162  1  0  0  0  0
M  END
$$$$
