
 OpenBabel04232217013D

 91 90  0  0  0  0  0  0  0  0999 V2000
    0.8557   -0.0459   -0.0542 O   0  0  0  0  0  0  0  0  0  0  0  0
    2.2673   -0.0407   -0.0701 C   0  0  0  0  0  0  0  0  0  0  0  0
    2.7475   -0.7575    1.1614 C   0  0  0  0  0  0  0  0  0  0  0  0
    4.2440   -0.7550    1.1535 C   0  0  0  0  0  0  0  0  0  0  0  0
    4.7141   -1.4637    2.3711 C   0  0  0  0  0  0  0  0  0  0  0  0
    6.0971   -1.3881    2.2377 O   0  0  0  0  0  0  0  0  0  0  0  0
    6.5234   -2.0606    3.3889 O   0  0  0  0  0  0  0  0  0  0  0  0
    7.9126   -2.0540    3.3781 O   0  0  0  0  0  0  0  0  0  0  0  0
    8.3227   -2.7230    4.5236 O   0  0  0  0  0  0  0  0  0  0  0  0
    9.7067   -2.7110    4.5030 O   0  0  0  0  0  0  0  0  0  0  0  0
   10.1236   -3.3754    5.6407 O   0  0  0  0  0  0  0  0  0  0  0  0
   11.5030   -3.3533    5.6029 O   0  0  0  0  0  0  0  0  0  0  0  0
   11.9242   -4.0144    6.7349 O   0  0  0  0  0  0  0  0  0  0  0  0
   13.2988   -3.9880    6.6896 O   0  0  0  0  0  0  0  0  0  0  0  0
   13.7144   -4.6476    7.8191 O   0  0  0  0  0  0  0  0  0  0  0  0
   15.0743   -4.6157    7.7644 O   0  0  0  0  0  0  0  0  0  0  0  0
   15.4857   -5.2775    8.8977 O   0  0  0  0  0  0  0  0  0  0  0  0
   16.8506   -5.2527    8.8553 O   0  0  0  0  0  0  0  0  0  0  0  0
   17.2588   -5.9132    9.9863 O   0  0  0  0  0  0  0  0  0  0  0  0
   18.6249   -5.8858    9.9394 O   0  0  0  0  0  0  0  0  0  0  0  0
   19.0289   -6.5375   11.0553 O   0  0  0  0  0  0  0  0  0  0  0  0
   20.3941   -6.5128   11.0130 O   0  0  0  0  0  0  0  0  0  0  0  0
   20.8032   -7.1694   12.1372 O   0  0  0  0  0  0  0  0  0  0  0  0
   22.1584   -7.1452   12.0959 O   0  0  0  0  0  0  0  0  0  0  0  0
   22.5607   -7.8019   13.2203 O   0  0  0  0  0  0  0  0  0  0  0  0
   23.9233   -7.7724   13.1698 O   0  0  0  0  0  0  0  0  0  0  0  0
   24.3213   -8.4301   14.2961 O   0  0  0  0  0  0  0  0  0  0  0  0
   25.6835   -8.4009   14.2460 O   0  0  0  0  0  0  0  0  0  0  0  0
   26.0810   -9.0584   15.3719 O   0  0  0  0  0  0  0  0  0  0  0  0
   27.4428   -9.0287   15.3210 O   0  0  0  0  0  0  0  0  0  0  0  0
   27.8407   -9.6861   16.4467 O   0  0  0  0  0  0  0  0  0  0  0  0
   29.2024   -9.6560   16.3952 O   0  0  0  0  0  0  0  0  0  0  0  0
   29.6005  -10.3134   17.5208 O   0  0  0  0  0  0  0  0  0  0  0  0
   30.9621  -10.2831   17.4689 O   0  0  0  0  0  0  0  0  0  0  0  0
   31.3535  -10.9398   18.5935 O   0  0  0  0  0  0  0  0  0  0  0  0
   32.7219  -10.9101   18.5426 O   0  0  0  0  0  0  0  0  0  0  0  0
   33.1199  -11.5676   19.6685 O   0  0  0  0  0  0  0  0  0  0  0  0
   34.4805  -11.5385   19.6187 O   0  0  0  0  0  0  0  0  0  0  0  0
   34.8757  -12.1961   20.7446 O   0  0  0  0  0  0  0  0  0  0  0  0
   36.2383  -12.1674   20.6955 O   0  0  0  0  0  0  0  0  0  0  0  0
   36.6304  -12.8267   21.8245 O   0  0  0  0  0  0  0  0  0  0  0  0
   37.9952  -12.7983   21.7758 O   0  0  0  0  0  0  0  0  0  0  0  0
   38.3908  -13.4578   22.9052 O   0  0  0  0  0  0  0  0  0  0  0  0
   39.7544  -13.4237   22.8468 O   0  0  0  0  0  0  0  0  0  0  0  0
   40.1593  -14.0816   23.9732 O   0  0  0  0  0  0  0  0  0  0  0  0
   41.5249  -14.0486   23.9168 O   0  0  0  0  0  0  0  0  0  0  0  0
   41.9318  -14.7057   25.0420 O   0  0  0  0  0  0  0  0  0  0  0  0
   43.2960  -14.6757   24.9904 O   0  0  0  0  0  0  0  0  0  0  0  0
   43.6960  -15.3336   26.1172 O   0  0  0  0  0  0  0  0  0  0  0  0
   45.0572  -15.3075   26.0726 O   0  0  0  0  0  0  0  0  0  0  0  0
   45.4489  -15.9622   27.1932 O   0  0  0  0  0  0  0  0  0  0  0  0
   46.8074  -15.9356   27.1478 O   0  0  0  0  0  0  0  0  0  0  0  0
   47.1957  -16.5917   28.2755 O   0  0  0  0  0  0  0  0  0  0  0  0
   48.5606  -16.5607   28.2183 O   0  0  0  0  0  0  0  0  0  0  0  0
   48.9742  -17.2188   29.3421 O   0  0  0  0  0  0  0  0  0  0  0  0
   50.3123  -17.1883   29.2945 O   0  0  0  0  0  0  0  0  0  0  0  0
   50.7216  -17.8450   30.4183 O   0  0  0  0  0  0  0  0  0  0  0  0
   52.0849  -17.8168   30.3688 O   0  0  0  0  0  0  0  0  0  0  0  0
   52.4845  -18.4742   31.4948 O   0  0  0  0  0  0  0  0  0  0  0  0
   53.8478  -18.4416   31.4391 O   0  0  0  0  0  0  0  0  0  0  0  0
   54.2501  -19.0989   32.5645 O   0  0  0  0  0  0  0  0  0  0  0  0
   55.6124  -19.0712   32.5171 O   0  0  0  0  0  0  0  0  0  0  0  0
   56.0078  -19.7300   33.6452 O   0  0  0  0  0  0  0  0  0  0  0  0
   57.3711  -19.7017   33.5967 O   0  0  0  0  0  0  0  0  0  0  0  0
   57.7724  -20.3596   34.7233 O   0  0  0  0  0  0  0  0  0  0  0  0
   59.1375  -20.3305   34.6735 O   0  0  0  0  0  0  0  0  0  0  0  0
   59.5423  -20.9890   35.8010 O   0  0  0  0  0  0  0  0  0  0  0  0
   60.9102  -20.9612   35.7534 O   0  0  0  0  0  0  0  0  0  0  0  0
   61.3180  -21.6206   36.8825 O   0  0  0  0  0  0  0  0  0  0  0  0
   62.6885  -21.5963   36.8409 O   0  0  0  0  0  0  0  0  0  0  0  0
   63.0991  -22.2582   37.9742 O   0  0  0  0  0  0  0  0  0  0  0  0
   64.4749  -22.2353   37.9350 O   0  0  0  0  0  0  0  0  0  0  0  0
   64.8986  -22.8975   39.0691 O   0  0  0  0  0  0  0  0  0  0  0  0
   66.2827  -22.8747   39.0299 O   0  0  0  0  0  0  0  0  0  0  0  0
   66.7163  -23.5404   40.1683 O   0  0  0  0  0  0  0  0  0  0  0  0
   68.1099  -23.5253   40.1476 O   0  0  0  0  0  0  0  0  0  0  0  0
   68.5415  -24.1910   41.3021 O   0  0  0  0  0  0  0  0  0  0  0  0
   69.9463  -24.2348   41.2807 O   0  0  0  0  0  0  0  0  0  0  0  0
   70.3959  -24.9149   42.4475 O   0  0  0  0  0  0  0  0  0  0  0  0
   71.8254  -24.8774   42.4724 O   0  0  0  0  0  0  0  0  0  0  0  0
   72.2750  -23.5043   42.4814 O   0  0  0  0  0  0  0  0  0  0  0  0
    0.5731    0.4212   -0.8565 H   0  0  0  0  0  0  0  0  0  0  0  0
    2.6305    0.9925   -0.0755 H   0  0  0  0  0  0  0  0  0  0  0  0
    2.6261   -0.5493   -0.9712 H   0  0  0  0  0  0  0  0  0  0  0  0
    2.3706   -1.7876    1.1885 H   0  0  0  0  0  0  0  0  0  0  0  0
    2.3728   -0.2708    2.0706 H   0  0  0  0  0  0  0  0  0  0  0  0
    4.6561    0.2634    1.1452 H   0  0  0  0  0  0  0  0  0  0  0  0
    4.6540   -1.2523    0.2638 H   0  0  0  0  0  0  0  0  0  0  0  0
    4.4040   -2.5155    2.3990 H   0  0  0  0  0  0  0  0  0  0  0  0
    4.4063   -0.9671    3.2995 H   0  0  0  0  0  0  0  0  0  0  0  0
   73.2164  -23.7272   42.4420 H   0  0  0  0  0  0  0  0  0  0  0  0
  1  2  1  0  0  0  0
  1 82  1  0  0  0  0
  2  3  1  0  0  0  0
  2 83  1  0  0  0  0
  2 84  1  0  0  0  0
  3  4  1  0  0  0  0
  3 85  1  0  0  0  0
  3 86  1  0  0  0  0
  4  5  1  0  0  0  0
  4 87  1  0  0  0  0
  4 88  1  0  0  0  0
  5  6  1  0  0  0  0
  5 89  1  0  0  0  0
  5 90  1  0  0  0  0
  6  7  1  0  0  0  0
  7  8  1  0  0  0  0
  8  9  1  0  0  0  0
  9 10  1  0  0  0  0
 10 11  1  0  0  0  0
 11 12  1  0  0  0  0
 12 13  1  0  0  0  0
 13 14  1  0  0  0  0
 14 15  1  0  0  0  0
 15 16  1  0  0  0  0
 16 17  1  0  0  0  0
 17 18  1  0  0  0  0
 18 19  1  0  0  0  0
 19 20  1  0  0  0  0
 20 21  1  0  0  0  0
 21 22  1  0  0  0  0
 22 23  1  0  0  0  0
 23 24  1  0  0  0  0
 24 25  1  0  0  0  0
 25 26  1  0  0  0  0
 26 27  1  0  0  0  0
 27 28  1  0  0  0  0
 28 29  1  0  0  0  0
 29 30  1  0  0  0  0
 30 31  1  0  0  0  0
 31 32  1  0  0  0  0
 32 33  1  0  0  0  0
 33 34  1  0  0  0  0
 34 35  1  0  0  0  0
 35 36  1  0  0  0  0
 36 37  1  0  0  0  0
 37 38  1  0  0  0  0
 38 39  1  0  0  0  0
 39 40  1  0  0  0  0
 40 41  1  0  0  0  0
 41 42  1  0  0  0  0
 42 43  1  0  0  0  0
 43 44  1  0  0  0  0
 44 45  1  0  0  0  0
 45 46  1  0  0  0  0
 46 47  1  0  0  0  0
 47 48  1  0  0  0  0
 48 49  1  0  0  0  0
 49 50  1  0  0  0  0
 50 51  1  0  0  0  0
 51 52  1  0  0  0  0
 52 53  1  0  0  0  0
 53 54  1  0  0  0  0
 54 55  1  0  0  0  0
 55 56  1  0  0  0  0
 56 57  1  0  0  0  0
 57 58  1  0  0  0  0
 58 59  1  0  0  0  0
 59 60  1  0  0  0  0
 60 61  1  0  0  0  0
 61 62  1  0  0  0  0
 62 63  1  0  0  0  0
 63 64  1  0  0  0  0
 64 65  1  0  0  0  0
 65 66  1  0  0  0  0
 66 67  1  0  0  0  0
 67 68  1  0  0  0  0
 68 69  1  0  0  0  0
 69 70  1  0  0  0  0
 70 71  1  0  0  0  0
 71 72  1  0  0  0  0
 72 73  1  0  0  0  0
 73 74  1  0  0  0  0
 74 75  1  0  0  0  0
 75 76  1  0  0  0  0
 76 77  1  0  0  0  0
 77 78  1  0  0  0  0
 78 79  1  0  0  0  0
 79 80  1  0  0  0  0
 80 81  1  0  0  0  0
 81 91  1  0  0  0  0
M  END
$$$$
