
 OpenBabel04232216513D

 65 66  0  0  1  0  0  0  0  0999 V2000
    2.0162   -1.2562   -1.2953 C   0  0  0  0  0  0  0  0  0  0  0  0
    2.2460   -0.2081   -0.2144 C   0  0  0  0  0  0  0  0  0  0  0  0
    2.7454   -0.7229    1.1753 C   0  0  3  0  0  0  0  0  0  0  0  0
    4.1356   -1.4652    1.0684 C   0  0  3  0  0  0  0  0  0  0  0  0
    5.3619   -1.1136    2.0532 C   0  0  3  0  0  0  0  0  0  0  0  0
    6.0076    0.3226    1.9405 C   0  0  3  0  0  0  0  0  0  0  0  0
    5.6662    1.5324    2.8426 C   0  0  0  0  0  0  0  0  0  0  0  0
    5.2918   -1.7080    3.4581 C   0  0  0  0  0  0  0  0  0  0  0  0
    5.5109   -0.8593    4.6824 C   0  0  0  0  0  0  0  0  0  0  0  0
    4.5678   -0.5105    5.3955 O   0  0  0  0  0  0  0  0  0  0  0  0
    6.8766   -0.5452    5.1574 C   0  0  0  0  0  0  0  0  0  0  0  0
    7.9865   -0.2541    4.4737 C   0  0  0  0  0  0  0  0  0  0  0  0
    8.2888   -0.1592    3.0659 C   0  0  0  0  0  0  0  0  0  0  0  0
    7.5102    0.1225    2.0085 C   0  0  0  0  0  0  0  0  0  0  0  0
    3.9258   -3.0126    0.7839 C   0  0  0  0  0  0  0  0  0  0  0  0
    3.8466   -4.0982    1.8912 C   0  0  0  0  0  0  0  0  0  0  0  0
    2.4838   -4.2385    2.5891 C   0  0  0  0  0  0  0  0  0  0  0  0
    2.5636   -4.2645    4.1234 C   0  0  0  0  0  0  0  0  0  0  0  0
    1.2186   -3.9290    4.7987 C   0  0  0  0  0  0  0  0  0  0  0  0
    1.3570   -2.9124    5.9515 C   0  0  0  0  0  0  0  0  0  0  0  0
    0.8556   -1.4937    5.6309 C   0  0  0  0  0  0  0  0  0  0  0  0
    1.3892   -0.9540    4.3110 C   0  0  0  0  0  0  0  0  0  0  0  0
    1.2581    0.5649    4.1605 C   0  0  0  0  0  0  0  0  0  0  0  0
    1.5015    1.0226    2.7084 C   0  0  0  0  0  0  0  0  0  0  0  0
    2.8057    0.4830    2.1169 C   0  0  0  0  0  0  0  0  0  0  0  0
    1.5836   -0.7847   -2.1834 H   0  0  0  0  0  0  0  0  0  0  0  0
    1.3187   -2.0285   -0.9560 H   0  0  0  0  0  0  0  0  0  0  0  0
    2.9512   -1.7273   -1.6082 H   0  0  0  0  0  0  0  0  0  0  0  0
    1.3004    0.3304   -0.0795 H   0  0  0  0  0  0  0  0  0  0  0  0
    2.9611    0.5271   -0.6070 H   0  0  0  0  0  0  0  0  0  0  0  0
    1.9984   -1.4259    1.5499 H   0  0  0  0  0  0  0  0  0  0  0  0
    4.5333   -1.1123    0.1019 H   0  0  0  0  0  0  0  0  0  0  0  0
    6.1207   -1.7597    1.5734 H   0  0  0  0  0  0  0  0  0  0  0  0
    5.7846    0.6639    0.9200 H   0  0  0  0  0  0  0  0  0  0  0  0
    6.1957    1.5607    3.7946 H   0  0  0  0  0  0  0  0  0  0  0  0
    4.6245    1.6779    3.1008 H   0  0  0  0  0  0  0  0  0  0  0  0
    5.9650    2.4540    2.3266 H   0  0  0  0  0  0  0  0  0  0  0  0
    5.9861   -2.5558    3.5391 H   0  0  0  0  0  0  0  0  0  0  0  0
    4.2975   -2.1218    3.5841 H   0  0  0  0  0  0  0  0  0  0  0  0
    6.9121   -0.4692    6.2417 H   0  0  0  0  0  0  0  0  0  0  0  0
    8.8551    0.0006    5.0913 H   0  0  0  0  0  0  0  0  0  0  0  0
    9.3565   -0.2594    2.8576 H   0  0  0  0  0  0  0  0  0  0  0  0
    8.0014    0.1828    1.0370 H   0  0  0  0  0  0  0  0  0  0  0  0
    4.7586   -3.3138    0.1329 H   0  0  0  0  0  0  0  0  0  0  0  0
    3.0350   -3.1506    0.1680 H   0  0  0  0  0  0  0  0  0  0  0  0
    4.6789   -4.0281    2.5919 H   0  0  0  0  0  0  0  0  0  0  0  0
    4.0221   -5.0573    1.3790 H   0  0  0  0  0  0  0  0  0  0  0  0
    2.0285   -5.1872    2.2694 H   0  0  0  0  0  0  0  0  0  0  0  0
    1.8032   -3.4540    2.2554 H   0  0  0  0  0  0  0  0  0  0  0  0
    3.3374   -3.5871    4.4806 H   0  0  0  0  0  0  0  0  0  0  0  0
    2.8867   -5.2644    4.4457 H   0  0  0  0  0  0  0  0  0  0  0  0
    0.8133   -4.8615    5.2103 H   0  0  0  0  0  0  0  0  0  0  0  0
    0.4774   -3.5846    4.0695 H   0  0  0  0  0  0  0  0  0  0  0  0
    2.3997   -2.8530    6.2907 H   0  0  0  0  0  0  0  0  0  0  0  0
    0.7820   -3.2774    6.8091 H   0  0  0  0  0  0  0  0  0  0  0  0
    1.1427   -0.8322    6.4581 H   0  0  0  0  0  0  0  0  0  0  0  0
   -0.2408   -1.4962    5.5898 H   0  0  0  0  0  0  0  0  0  0  0  0
    0.8595   -1.4395    3.4860 H   0  0  0  0  0  0  0  0  0  0  0  0
    2.4393   -1.2328    4.2312 H   0  0  0  0  0  0  0  0  0  0  0  0
    1.9874    1.0490    4.8241 H   0  0  0  0  0  0  0  0  0  0  0  0
    0.2732    0.9007    4.4785 H   0  0  0  0  0  0  0  0  0  0  0  0
    1.5691    2.1182    2.7301 H   0  0  0  0  0  0  0  0  0  0  0  0
    0.6406    0.7697    2.0834 H   0  0  0  0  0  0  0  0  0  0  0  0
    3.4224    0.2021    2.9629 H   0  0  0  0  0  0  0  0  0  0  0  0
    3.2864    1.3014    1.5708 H   0  0  0  0  0  0  0  0  0  0  0  0
  1  2  1  0  0  0  0
  1 26  1  0  0  0  0
  1 27  1  0  0  0  0
  1 28  1  0  0  0  0
  2  3  1  0  0  0  0
  2 29  1  0  0  0  0
  2 30  1  0  0  0  0
  3  4  1  0  0  0  0
  3 25  1  0  0  0  0
  3 31  1  0  0  0  0
  4  5  1  0  0  0  0
  4 15  1  0  0  0  0
  4 32  1  0  0  0  0
  5  6  1  0  0  0  0
  5  8  1  0  0  0  0
  5 33  1  0  0  0  0
  6  7  1  0  0  0  0
  6 14  1  0  0  0  0
  6 34  1  0  0  0  0
  7 35  1  0  0  0  0
  7 36  1  0  0  0  0
  7 37  1  0  0  0  0
  8  9  1  0  0  0  0
  8 38  1  0  0  0  0
  8 39  1  0  0  0  0
  9 10  2  0  0  0  0
  9 11  1  0  0  0  0
 11 12  2  0  0  0  0
 11 40  1  0  0  0  0
 12 13  1  0  0  0  0
 12 41  1  0  0  0  0
 13 14  2  0  0  0  0
 13 42  1  0  0  0  0
 14 43  1  0  0  0  0
 15 16  1  0  0  0  0
 15 44  1  0  0  0  0
 15 45  1  0  0  0  0
 16 17  1  0  0  0  0
 16 46  1  0  0  0  0
 16 47  1  0  0  0  0
 17 18  1  0  0  0  0
 17 48  1  0  0  0  0
 17 49  1  0  0  0  0
 18 19  1  0  0  0  0
 18 50  1  0  0  0  0
 18 51  1  0  0  0  0
 19 20  1  0  0  0  0
 19 52  1  0  0  0  0
 19 53  1  0  0  0  0
 20 21  1  0  0  0  0
 20 54  1  0  0  0  0
 20 55  1  0  0  0  0
 21 22  1  0  0  0  0
 21 56  1  0  0  0  0
 21 57  1  0  0  0  0
 22 23  1  0  0  0  0
 22 58  1  0  0  0  0
 22 59  1  0  0  0  0
 23 24  1  0  0  0  0
 23 60  1  0  0  0  0
 23 61  1  0  0  0  0
 24 25  1  0  0  0  0
 24 62  1  0  0  0  0
 24 63  1  0  0  0  0
 25 64  1  0  0  0  0
 25 65  1  0  0  0  0
M  END
$$$$
