
 OpenBabel04232216533D

111110  0  0  0  0  0  0  0  0999 V2000
   20.0754    6.6797  -14.4070 C   0  0  0  0  0  0  0  0  0  0  0  0
   19.5076    7.4595  -13.2365 C   0  0  0  0  0  0  0  0  0  0  0  0
   19.6854    6.6798  -11.9397 C   0  0  0  0  0  0  0  0  0  0  0  0
   19.1171    7.4569  -10.7636 C   0  0  0  0  0  0  0  0  0  0  0  0
   19.2975    6.6771   -9.4705 C   0  0  0  0  0  0  0  0  0  0  0  0
   18.7240    7.4660   -8.3136 C   0  0  0  0  0  0  0  0  0  0  0  0
   18.8893    6.7014   -7.1239 O   0  0  0  0  0  0  0  0  0  0  0  0
   18.3699    7.4241   -6.0171 C   0  0  0  0  0  0  0  0  0  0  0  0
   16.9786    7.6611   -6.1910 O   0  0  0  0  0  0  0  0  0  0  0  0
   16.4490    8.4121   -5.1121 C   0  0  0  0  0  0  0  0  0  0  0  0
   17.0606    9.6961   -5.0125 O   0  0  0  0  0  0  0  0  0  0  0  0
   16.5573   10.4018   -3.8918 C   0  0  0  0  0  0  0  0  0  0  0  0
   17.2034   11.6646   -3.7676 O   0  0  0  0  0  0  0  0  0  0  0  0
   16.6794   12.3679   -2.6478 C   0  0  0  0  0  0  0  0  0  0  0  0
   16.8778   11.6109   -1.4684 O   0  0  0  0  0  0  0  0  0  0  0  0
   16.3516   12.2566   -0.3189 C   0  0  0  0  0  0  0  0  0  0  0  0
   16.5708   11.1871    1.1294 S   0  0  0  0  0  0  0  0  0  0  0  0
   18.3773   11.0922    1.0918 C   0  0  0  0  0  0  0  0  0  0  0  0
   18.9126   12.3886    1.2417 O   0  0  0  0  0  0  0  0  0  0  0  0
   20.3218   12.3596    1.2397 C   0  0  0  0  0  0  0  0  0  0  0  0
   20.7398   13.6884    1.3790 O   0  0  0  0  0  0  0  0  0  0  0  0
   22.1296   13.7311    1.3720 C   0  0  0  0  0  0  0  0  0  0  0  0
   22.4604   15.0708    1.5102 O   0  0  0  0  0  0  0  0  0  0  0  0
   23.8616   15.0051    1.5049 O   0  0  0  0  0  0  0  0  0  0  0  0
   24.3342   16.3033    1.6421 O   0  0  0  0  0  0  0  0  0  0  0  0
   25.7220   16.2352    1.6313 O   0  0  0  0  0  0  0  0  0  0  0  0
   26.1634   17.5417    1.7659 O   0  0  0  0  0  0  0  0  0  0  0  0
   27.5441   17.5025    1.7629 O   0  0  0  0  0  0  0  0  0  0  0  0
   27.9545   18.8153    1.8985 O   0  0  0  0  0  0  0  0  0  0  0  0
   29.3308   18.7799    1.8947 O   0  0  0  0  0  0  0  0  0  0  0  0
   29.7446   20.0861    2.0297 O   0  0  0  0  0  0  0  0  0  0  0  0
   31.1198   20.0328    2.0242 O   0  0  0  0  0  0  0  0  0  0  0  0
   31.5370   21.3364    2.1589 O   0  0  0  0  0  0  0  0  0  0  0  0
   32.9078   21.2782    2.1529 O   0  0  0  0  0  0  0  0  0  0  0  0
   33.3111   22.5828    2.2877 O   0  0  0  0  0  0  0  0  0  0  0  0
   34.6859   22.5368    2.2829 O   0  0  0  0  0  0  0  0  0  0  0  0
   35.0840   23.8274    2.4163 O   0  0  0  0  0  0  0  0  0  0  0  0
   36.4377   23.7802    2.4114 O   0  0  0  0  0  0  0  0  0  0  0  0
   36.8541   25.1012    2.5479 O   0  0  0  0  0  0  0  0  0  0  0  0
   38.1997   25.0331    2.5408 O   0  0  0  0  0  0  0  0  0  0  0  0
   38.5937   26.3216    2.6740 O   0  0  0  0  0  0  0  0  0  0  0  0
   39.9552   26.2622    2.6678 O   0  0  0  0  0  0  0  0  0  0  0  0
   40.3560   27.5583    2.8018 O   0  0  0  0  0  0  0  0  0  0  0  0
   41.7182   27.4966    2.7954 O   0  0  0  0  0  0  0  0  0  0  0  0
   42.1187   28.7927    2.9293 O   0  0  0  0  0  0  0  0  0  0  0  0
   43.4820   28.7325    2.9231 O   0  0  0  0  0  0  0  0  0  0  0  0
   43.8778   30.0311    3.0573 O   0  0  0  0  0  0  0  0  0  0  0  0
   45.2386   29.9756    3.0517 O   0  0  0  0  0  0  0  0  0  0  0  0
   45.6355   31.2702    3.1853 O   0  0  0  0  0  0  0  0  0  0  0  0
   46.9995   31.2095    3.1790 O   0  0  0  0  0  0  0  0  0  0  0  0
   47.3981   32.5059    3.3130 O   0  0  0  0  0  0  0  0  0  0  0  0
   48.7568   32.4485    3.3070 O   0  0  0  0  0  0  0  0  0  0  0  0
   49.1559   33.7462    3.4411 O   0  0  0  0  0  0  0  0  0  0  0  0
   50.5202   33.6886    3.4352 O   0  0  0  0  0  0  0  0  0  0  0  0
   50.9193   34.9856    3.5692 O   0  0  0  0  0  0  0  0  0  0  0  0
   52.2819   34.9263    3.5631 O   0  0  0  0  0  0  0  0  0  0  0  0
   52.6806   36.2232    3.6971 O   0  0  0  0  0  0  0  0  0  0  0  0
   54.0428   36.1649    3.6911 O   0  0  0  0  0  0  0  0  0  0  0  0
   54.4411   37.4621    3.8251 O   0  0  0  0  0  0  0  0  0  0  0  0
   55.8034   37.4037    3.8191 O   0  0  0  0  0  0  0  0  0  0  0  0
   56.2027   38.7008    3.9531 O   0  0  0  0  0  0  0  0  0  0  0  0
   57.5655   38.6420    3.9470 O   0  0  0  0  0  0  0  0  0  0  0  0
   57.9657   39.9392    4.0810 O   0  0  0  0  0  0  0  0  0  0  0  0
   59.3295   39.8820    4.0751 O   0  0  0  0  0  0  0  0  0  0  0  0
   59.7285   41.1812    4.2094 O   0  0  0  0  0  0  0  0  0  0  0  0
   61.0935   41.1283    4.2039 O   0  0  0  0  0  0  0  0  0  0  0  0
   61.4942   42.4284    4.3382 O   0  0  0  0  0  0  0  0  0  0  0  0
   62.8625   42.3763    4.3328 O   0  0  0  0  0  0  0  0  0  0  0  0
   63.2698   43.6777    4.4673 O   0  0  0  0  0  0  0  0  0  0  0  0
   64.6418   43.6263    4.4620 O   0  0  0  0  0  0  0  0  0  0  0  0
   65.0574   44.9297    4.5966 O   0  0  0  0  0  0  0  0  0  0  0  0
   66.4351   44.8824    4.5918 O   0  0  0  0  0  0  0  0  0  0  0  0
   66.8608   46.1876    4.7272 O   0  0  0  0  0  0  0  0  0  0  0  0
   68.2469   46.1486    4.7221 O   0  0  0  0  0  0  0  0  0  0  0  0
   68.6775   47.4622    4.8548 O   0  0  0  0  0  0  0  0  0  0  0  0
   70.0737   47.4442    4.8650 O   0  0  0  0  0  0  0  0  0  0  0  0
   70.5027   48.7736    5.0077 O   0  0  0  0  0  0  0  0  0  0  0  0
   71.9072   48.7899    4.9093 O   0  0  0  0  0  0  0  0  0  0  0  0
   72.3657   50.1285    5.0761 O   0  0  0  0  0  0  0  0  0  0  0  0
   73.7937   50.1138    5.1717 O   0  0  0  0  0  0  0  0  0  0  0  0
   74.2007   49.2776    6.2806 O   0  0  0  0  0  0  0  0  0  0  0  0
   19.9468    7.2414  -15.3361 H   0  0  0  0  0  0  0  0  0  0  0  0
   19.5670    5.7161  -14.5133 H   0  0  0  0  0  0  0  0  0  0  0  0
   21.1439    6.4898  -14.2638 H   0  0  0  0  0  0  0  0  0  0  0  0
   18.4437    7.6597  -13.4100 H   0  0  0  0  0  0  0  0  0  0  0  0
   20.0128    8.4297  -13.1618 H   0  0  0  0  0  0  0  0  0  0  0  0
   20.7501    6.4801  -11.7678 H   0  0  0  0  0  0  0  0  0  0  0  0
   19.1814    5.7086  -12.0167 H   0  0  0  0  0  0  0  0  0  0  0  0
   18.0510    7.6571  -10.9299 H   0  0  0  0  0  0  0  0  0  0  0  0
   19.6179    8.4296  -10.6816 H   0  0  0  0  0  0  0  0  0  0  0  0
   20.3578    6.4672   -9.2851 H   0  0  0  0  0  0  0  0  0  0  0  0
   18.7988    5.7018   -9.5328 H   0  0  0  0  0  0  0  0  0  0  0  0
   17.6592    7.6528   -8.4963 H   0  0  0  0  0  0  0  0  0  0  0  0
   19.2406    8.4287   -8.2156 H   0  0  0  0  0  0  0  0  0  0  0  0
   18.9185    8.3700   -5.9203 H   0  0  0  0  0  0  0  0  0  0  0  0
   18.5325    6.8323   -5.1117 H   0  0  0  0  0  0  0  0  0  0  0  0
   16.5717    7.8408   -4.1838 H   0  0  0  0  0  0  0  0  0  0  0  0
   15.3789    8.5490   -5.2994 H   0  0  0  0  0  0  0  0  0  0  0  0
   16.7271    9.7986   -2.9918 H   0  0  0  0  0  0  0  0  0  0  0  0
   15.4847   10.5646   -4.0387 H   0  0  0  0  0  0  0  0  0  0  0  0
   15.6130   12.5586   -2.8147 H   0  0  0  0  0  0  0  0  0  0  0  0
   17.2084   13.3228   -2.5751 H   0  0  0  0  0  0  0  0  0  0  0  0
   15.2787   12.4258   -0.4506 H   0  0  0  0  0  0  0  0  0  0  0  0
   16.8411   13.2259   -0.1702 H   0  0  0  0  0  0  0  0  0  0  0  0
   18.7329   10.6456    0.1565 H   0  0  0  0  0  0  0  0  0  0  0  0
   18.7230   10.4717    1.9248 H   0  0  0  0  0  0  0  0  0  0  0  0
   20.6991   11.9581    0.2906 H   0  0  0  0  0  0  0  0  0  0  0  0
   20.7003   11.7688    2.0816 H   0  0  0  0  0  0  0  0  0  0  0  0
   22.5448   13.3516    0.4285 H   0  0  0  0  0  0  0  0  0  0  0  0
   22.5498   13.1675    2.2158 H   0  0  0  0  0  0  0  0  0  0  0  0
   75.1456   49.3185    6.0726 H   0  0  0  0  0  0  0  0  0  0  0  0
  1  2  1  0  0  0  0
  1 82  1  0  0  0  0
  1 83  1  0  0  0  0
  1 84  1  0  0  0  0
  2  3  1  0  0  0  0
  2 85  1  0  0  0  0
  2 86  1  0  0  0  0
  3  4  1  0  0  0  0
  3 87  1  0  0  0  0
  3 88  1  0  0  0  0
  4  5  1  0  0  0  0
  4 89  1  0  0  0  0
  4 90  1  0  0  0  0
  5  6  1  0  0  0  0
  5 91  1  0  0  0  0
  5 92  1  0  0  0  0
  6  7  1  0  0  0  0
  6 93  1  0  0  0  0
  6 94  1  0  0  0  0
  7  8  1  0  0  0  0
  8  9  1  0  0  0  0
  8 95  1  0  0  0  0
  8 96  1  0  0  0  0
  9 10  1  0  0  0  0
 10 11  1  0  0  0  0
 10 97  1  0  0  0  0
 10 98  1  0  0  0  0
 11 12  1  0  0  0  0
 12 13  1  0  0  0  0
 12 99  1  0  0  0  0
 12100  1  0  0  0  0
 13 14  1  0  0  0  0
 14 15  1  0  0  0  0
 14101  1  0  0  0  0
 14102  1  0  0  0  0
 15 16  1  0  0  0  0
 16 17  1  0  0  0  0
 16103  1  0  0  0  0
 16104  1  0  0  0  0
 17 18  1  0  0  0  0
 18 19  1  0  0  0  0
 18105  1  0  0  0  0
 18106  1  0  0  0  0
 19 20  1  0  0  0  0
 20 21  1  0  0  0  0
 20107  1  0  0  0  0
 20108  1  0  0  0  0
 21 22  1  0  0  0  0
 22 23  1  0  0  0  0
 22109  1  0  0  0  0
 22110  1  0  0  0  0
 23 24  1  0  0  0  0
 24 25  1  0  0  0  0
 25 26  1  0  0  0  0
 26 27  1  0  0  0  0
 27 28  1  0  0  0  0
 28 29  1  0  0  0  0
 29 30  1  0  0  0  0
 30 31  1  0  0  0  0
 31 32  1  0  0  0  0
 32 33  1  0  0  0  0
 33 34  1  0  0  0  0
 34 35  1  0  0  0  0
 35 36  1  0  0  0  0
 36 37  1  0  0  0  0
 37 38  1  0  0  0  0
 38 39  1  0  0  0  0
 39 40  1  0  0  0  0
 40 41  1  0  0  0  0
 41 42  1  0  0  0  0
 42 43  1  0  0  0  0
 43 44  1  0  0  0  0
 44 45  1  0  0  0  0
 45 46  1  0  0  0  0
 46 47  1  0  0  0  0
 47 48  1  0  0  0  0
 48 49  1  0  0  0  0
 49 50  1  0  0  0  0
 50 51  1  0  0  0  0
 51 52  1  0  0  0  0
 52 53  1  0  0  0  0
 53 54  1  0  0  0  0
 54 55  1  0  0  0  0
 55 56  1  0  0  0  0
 56 57  1  0  0  0  0
 57 58  1  0  0  0  0
 58 59  1  0  0  0  0
 59 60  1  0  0  0  0
 60 61  1  0  0  0  0
 61 62  1  0  0  0  0
 62 63  1  0  0  0  0
 63 64  1  0  0  0  0
 64 65  1  0  0  0  0
 65 66  1  0  0  0  0
 66 67  1  0  0  0  0
 67 68  1  0  0  0  0
 68 69  1  0  0  0  0
 69 70  1  0  0  0  0
 70 71  1  0  0  0  0
 71 72  1  0  0  0  0
 72 73  1  0  0  0  0
 73 74  1  0  0  0  0
 74 75  1  0  0  0  0
 75 76  1  0  0  0  0
 76 77  1  0  0  0  0
 77 78  1  0  0  0  0
 78 79  1  0  0  0  0
 79 80  1  0  0  0  0
 80 81  1  0  0  0  0
 81111  1  0  0  0  0
M  END
$$$$
