
 OpenBabel04232216453D

 52 52  0  0  0  0  0  0  0  0999 V2000
    6.3030    3.4483    0.0789 C   0  0  0  0  0  0  0  0  0  0  0  0
    6.9684    3.1922   -1.3280 C   0  0  0  0  0  0  0  0  0  0  0  0
    5.9365    2.6409   -2.0083 C   0  0  0  0  0  0  0  0  0  0  0  0
    5.2481    1.2983   -1.8712 C   0  0  0  0  0  0  0  0  0  0  0  0
    4.8012    0.5115   -0.6354 C   0  0  0  0  0  0  0  0  0  0  0  0
    5.5493    0.5234   -2.9426 C   0  0  0  0  0  0  0  0  0  0  0  0
    5.0380    1.0774   -4.2698 C   0  0  0  0  0  0  0  0  0  0  0  0
    6.7532   -0.2847   -2.8680 N   0  0  0  0  0  0  0  0  0  0  0  0
    7.2490   -0.6991   -1.5308 C   0  0  0  0  0  0  0  0  0  0  0  0
    7.7269    0.0013   -3.8240 C   0  0  0  0  0  0  0  0  0  0  0  0
    9.0129    0.3893   -3.6940 C   0  0  0  0  0  0  0  0  0  0  0  0
    9.7094    0.4038   -2.3206 C   0  0  0  0  0  0  0  0  0  0  0  0
    9.5628    1.2042   -4.8192 C   0  0  0  0  0  0  0  0  0  0  0  0
    8.5528    2.0678   -5.6537 C   0  0  0  0  0  0  0  0  0  0  0  0
   10.8078    1.7224   -4.5838 C   0  0  0  0  0  0  0  0  0  0  0  0
   12.0591    1.1069   -4.0444 C   0  0  0  0  0  0  0  0  0  0  0  0
   10.6462    3.2082   -4.2768 C   0  0  0  0  0  0  0  0  0  0  0  0
   11.0013    4.0410   -5.5139 C   0  0  0  0  0  0  0  0  0  0  0  0
    9.8564    3.3944   -3.1578 C   0  0  0  0  0  0  0  0  0  0  0  0
    8.9581    4.3680   -2.3817 C   0  0  0  0  0  0  0  0  0  0  0  0
    9.7323    5.6730   -2.2715 C   0  0  0  0  0  0  0  0  0  0  0  0
    7.8253    4.2713   -1.6982 N   0  0  0  0  0  0  0  0  0  0  0  0
    5.4308    4.1149   -0.0675 H   0  0  0  0  0  0  0  0  0  0  0  0
    6.9552    3.9132    0.8143 H   0  0  0  0  0  0  0  0  0  0  0  0
    5.8892    2.5441    0.5403 H   0  0  0  0  0  0  0  0  0  0  0  0
    5.3836    3.3164   -2.6568 H   0  0  0  0  0  0  0  0  0  0  0  0
    3.7747    0.7412   -0.3330 H   0  0  0  0  0  0  0  0  0  0  0  0
    5.4646    0.5785    0.2286 H   0  0  0  0  0  0  0  0  0  0  0  0
    4.7273   -0.5710   -0.8669 H   0  0  0  0  0  0  0  0  0  0  0  0
    3.9575    1.2592   -4.1796 H   0  0  0  0  0  0  0  0  0  0  0  0
    5.1582    0.3982   -5.1177 H   0  0  0  0  0  0  0  0  0  0  0  0
    5.4861    2.0474   -4.5191 H   0  0  0  0  0  0  0  0  0  0  0  0
    6.5556   -1.3482   -1.0035 H   0  0  0  0  0  0  0  0  0  0  0  0
    7.4607    0.1692   -0.8894 H   0  0  0  0  0  0  0  0  0  0  0  0
    8.1471   -1.3066   -1.6067 H   0  0  0  0  0  0  0  0  0  0  0  0
    7.2651    0.0679   -4.8026 H   0  0  0  0  0  0  0  0  0  0  0  0
   10.6730    0.8965   -2.2322 H   0  0  0  0  0  0  0  0  0  0  0  0
    9.1240    0.9607   -1.5824 H   0  0  0  0  0  0  0  0  0  0  0  0
    9.9422   -0.6059   -1.9894 H   0  0  0  0  0  0  0  0  0  0  0  0
    7.5106    1.8358   -5.5207 H   0  0  0  0  0  0  0  0  0  0  0  0
    8.8033    1.9627   -6.7177 H   0  0  0  0  0  0  0  0  0  0  0  0
    8.5827    3.1220   -5.4277 H   0  0  0  0  0  0  0  0  0  0  0  0
   11.8818    0.0940   -3.6780 H   0  0  0  0  0  0  0  0  0  0  0  0
   12.5054    1.6839   -3.2158 H   0  0  0  0  0  0  0  0  0  0  0  0
   12.8284    1.0082   -4.8134 H   0  0  0  0  0  0  0  0  0  0  0  0
   10.1297    4.4763   -6.0129 H   0  0  0  0  0  0  0  0  0  0  0  0
   11.4721    3.3932   -6.2749 H   0  0  0  0  0  0  0  0  0  0  0  0
   11.7385    4.8251   -5.3173 H   0  0  0  0  0  0  0  0  0  0  0  0
   10.0602    2.6802   -2.3794 H   0  0  0  0  0  0  0  0  0  0  0  0
    9.1811    6.5155   -2.6807 H   0  0  0  0  0  0  0  0  0  0  0  0
   10.6883    5.6003   -2.8149 H   0  0  0  0  0  0  0  0  0  0  0  0
   10.0106    5.8233   -1.2236 H   0  0  0  0  0  0  0  0  0  0  0  0
  1  2  1  0  0  0  0
  1 23  1  0  0  0  0
  1 24  1  0  0  0  0
  1 25  1  0  0  0  0
  2  3  2  0  0  0  0
  2 22  1  0  0  0  0
  3  4  1  0  0  0  0
  3 26  1  0  0  0  0
  4  5  1  0  0  0  0
  4  6  2  0  0  0  0
  5 27  1  0  0  0  0
  5 28  1  0  0  0  0
  5 29  1  0  0  0  0
  6  7  1  0  0  0  0
  6  8  1  0  0  0  0
  7 30  1  0  0  0  0
  7 31  1  0  0  0  0
  7 32  1  0  0  0  0
  8  9  1  0  0  0  0
  8 10  1  0  0  0  0
  9 33  1  0  0  0  0
  9 34  1  0  0  0  0
  9 35  1  0  0  0  0
 10 11  2  0  0  0  0
 10 36  1  0  0  0  0
 11 12  1  0  0  0  0
 11 13  1  0  0  0  0
 12 37  1  0  0  0  0
 12 38  1  0  0  0  0
 12 39  1  0  0  0  0
 13 14  1  0  0  0  0
 13 15  2  0  0  0  0
 14 40  1  0  0  0  0
 14 41  1  0  0  0  0
 14 42  1  0  0  0  0
 15 16  1  0  0  0  0
 15 17  1  0  0  0  0
 16 43  1  0  0  0  0
 16 44  1  0  0  0  0
 16 45  1  0  0  0  0
 17 18  1  0  0  0  0
 17 19  2  0  0  0  0
 18 46  1  0  0  0  0
 18 47  1  0  0  0  0
 18 48  1  0  0  0  0
 19 20  1  0  0  0  0
 19 49  1  0  0  0  0
 20 21  1  0  0  0  0
 20 22  2  0  0  0  0
 21 50  1  0  0  0  0
 21 51  1  0  0  0  0
 21 52  1  0  0  0  0
M  END
$$$$
