
 OpenBabel04232216513D

 40 40  0  0  0  0  0  0  0  0999 V2000
    3.4357    0.6342   -4.5602 C   0  0  0  0  0  0  0  0  0  0  0  0
    4.1935    0.0841   -3.3614 C   0  0  0  0  0  0  0  0  0  0  0  0
    3.3041   -0.8091   -2.4978 C   0  0  0  0  0  0  0  0  0  0  0  0
    4.0531   -1.2969   -1.3121 C   0  0  0  0  0  0  0  0  0  0  0  0
    4.3456   -2.5370   -0.9174 C   0  0  0  0  0  0  0  0  0  0  0  0
    3.9707   -3.8326   -1.5326 C   0  0  0  0  0  0  0  0  0  0  0  0
    5.1693   -4.6872   -1.9657 C   0  0  0  0  0  0  0  0  0  0  0  0
    4.6302   -5.9757   -2.5896 C   0  0  0  0  0  0  0  0  0  0  0  0
    5.7001   -6.9541   -3.0699 C   0  0  0  0  0  0  0  0  0  0  0  0
    5.0042   -8.1778   -3.6759 C   0  0  0  0  0  0  0  0  0  0  0  0
    5.9784   -9.2323   -4.1895 C   0  0  0  0  0  0  0  0  0  0  0  0
    5.2124  -10.4200   -4.7775 C   0  0  0  0  0  0  0  0  0  0  0  0
    6.1499  -11.4938   -5.2991 C   0  0  0  0  0  0  0  0  0  0  0  0
    3.5246   -1.7275   -0.0435 C   0  0  0  0  0  0  0  0  0  0  0  0
    4.0948    1.2600   -5.1697 H   0  0  0  0  0  0  0  0  0  0  0  0
    2.5868    1.2462   -4.2399 H   0  0  0  0  0  0  0  0  0  0  0  0
    3.0572   -0.1762   -5.1913 H   0  0  0  0  0  0  0  0  0  0  0  0
    4.5772    0.9219   -2.7664 H   0  0  0  0  0  0  0  0  0  0  0  0
    5.0620   -0.4836   -3.7170 H   0  0  0  0  0  0  0  0  0  0  0  0
    2.9224   -1.6380   -3.1047 H   0  0  0  0  0  0  0  0  0  0  0  0
    2.4299   -0.2391   -2.1610 H   0  0  0  0  0  0  0  0  0  0  0  0
    3.3175   -3.6767   -2.3977 H   0  0  0  0  0  0  0  0  0  0  0  0
    3.3810   -4.4017   -0.8025 H   0  0  0  0  0  0  0  0  0  0  0  0
    5.8058   -4.9207   -1.1031 H   0  0  0  0  0  0  0  0  0  0  0  0
    5.7865   -4.1443   -2.6920 H   0  0  0  0  0  0  0  0  0  0  0  0
    3.9868   -5.7123   -3.4388 H   0  0  0  0  0  0  0  0  0  0  0  0
    3.9919   -6.4834   -1.8555 H   0  0  0  0  0  0  0  0  0  0  0  0
    6.3377   -7.2591   -2.2319 H   0  0  0  0  0  0  0  0  0  0  0  0
    6.3420   -6.4764   -3.8188 H   0  0  0  0  0  0  0  0  0  0  0  0
    4.3585   -7.8525   -4.5016 H   0  0  0  0  0  0  0  0  0  0  0  0
    4.3486   -8.6302   -2.9208 H   0  0  0  0  0  0  0  0  0  0  0  0
    6.6214   -9.5746   -3.3696 H   0  0  0  0  0  0  0  0  0  0  0  0
    6.6296   -8.7952   -4.9556 H   0  0  0  0  0  0  0  0  0  0  0  0
    4.5671  -10.0779   -5.5977 H   0  0  0  0  0  0  0  0  0  0  0  0
    4.5584  -10.8552   -4.0144 H   0  0  0  0  0  0  0  0  0  0  0  0
    6.7961  -11.0993   -6.0890 H   0  0  0  0  0  0  0  0  0  0  0  0
    5.5746  -12.3279   -5.7155 H   0  0  0  0  0  0  0  0  0  0  0  0
    6.7824  -11.8850   -4.4967 H   0  0  0  0  0  0  0  0  0  0  0  0
    3.9913   -1.3317    0.8439 H   0  0  0  0  0  0  0  0  0  0  0  0
    2.4722   -1.9704    0.0041 H   0  0  0  0  0  0  0  0  0  0  0  0
  1  2  1  0  0  0  0
  1 15  1  0  0  0  0
  1 16  1  0  0  0  0
  1 17  1  0  0  0  0
  2  3  1  0  0  0  0
  2 18  1  0  0  0  0
  2 19  1  0  0  0  0
  3  4  1  0  0  0  0
  3 20  1  0  0  0  0
  3 21  1  0  0  0  0
  4  5  2  0  0  0  0
  4 14  1  0  0  0  0
  5  6  1  0  0  0  0
  5 14  1  0  0  0  0
  6  7  1  0  0  0  0
  6 22  1  0  0  0  0
  6 23  1  0  0  0  0
  7  8  1  0  0  0  0
  7 24  1  0  0  0  0
  7 25  1  0  0  0  0
  8  9  1  0  0  0  0
  8 26  1  0  0  0  0
  8 27  1  0  0  0  0
  9 10  1  0  0  0  0
  9 28  1  0  0  0  0
  9 29  1  0  0  0  0
 10 11  1  0  0  0  0
 10 30  1  0  0  0  0
 10 31  1  0  0  0  0
 11 12  1  0  0  0  0
 11 32  1  0  0  0  0
 11 33  1  0  0  0  0
 12 13  1  0  0  0  0
 12 34  1  0  0  0  0
 12 35  1  0  0  0  0
 13 36  1  0  0  0  0
 13 37  1  0  0  0  0
 13 38  1  0  0  0  0
 14 39  1  0  0  0  0
 14 40  1  0  0  0  0
M  END
$$$$
