
 OpenBabel04232216523D

 39 39  0  0  0  0  0  0  0  0999 V2000
    5.8288   -1.8286    0.9688 C   0  0  0  0  0  0  0  0  0  0  0  0
    4.7439   -0.8931    0.4467 C   0  0  0  0  0  0  0  0  0  0  0  0
    5.3748    0.2724   -0.3152 C   0  0  0  0  0  0  0  0  0  0  0  0
    4.3392    1.2834   -0.8413 C   0  0  0  0  0  0  0  0  0  0  0  0
    4.9618    2.4666   -1.6594 C   0  0  0  0  0  0  0  0  0  0  0  0
    5.7714    1.9343   -2.8895 C   0  0  0  0  0  0  0  0  0  0  0  0
    4.9808    1.0467   -3.8609 C   0  0  0  0  0  0  0  0  0  0  0  0
    5.8558    0.5552   -5.0052 C   0  0  0  0  0  0  0  0  0  0  0  0
    3.8460    3.4192   -2.1786 C   0  0  0  0  0  0  0  0  0  0  0  0
    3.1744    4.2756   -1.1037 C   0  0  0  0  0  0  0  0  0  0  0  0
    4.1797    5.0082   -0.2225 C   0  0  0  0  0  0  0  0  0  0  0  0
    5.2249    4.0596    0.3469 C   0  0  0  0  0  0  0  0  0  0  0  0
    5.9331    3.3017   -0.7766 C   0  0  0  0  0  0  0  0  0  0  0  0
    5.3868   -2.6710    1.5089 H   0  0  0  0  0  0  0  0  0  0  0  0
    6.5013   -1.3036    1.6550 H   0  0  0  0  0  0  0  0  0  0  0  0
    6.4296   -2.2310    0.1465 H   0  0  0  0  0  0  0  0  0  0  0  0
    4.1531   -0.5208    1.2899 H   0  0  0  0  0  0  0  0  0  0  0  0
    4.0700   -1.4535   -0.2105 H   0  0  0  0  0  0  0  0  0  0  0  0
    5.9545   -0.1402   -1.1455 H   0  0  0  0  0  0  0  0  0  0  0  0
    6.0768    0.7756    0.3550 H   0  0  0  0  0  0  0  0  0  0  0  0
    3.7692    1.6706    0.0109 H   0  0  0  0  0  0  0  0  0  0  0  0
    3.6013    0.7557   -1.4584 H   0  0  0  0  0  0  0  0  0  0  0  0
    6.6538    1.3855   -2.5396 H   0  0  0  0  0  0  0  0  0  0  0  0
    6.1675    2.7903   -3.4510 H   0  0  0  0  0  0  0  0  0  0  0  0
    4.1352    1.6005   -4.2818 H   0  0  0  0  0  0  0  0  0  0  0  0
    4.5741    0.1709   -3.3463 H   0  0  0  0  0  0  0  0  0  0  0  0
    6.2665    1.3944   -5.5750 H   0  0  0  0  0  0  0  0  0  0  0  0
    5.2680   -0.0649   -5.6899 H   0  0  0  0  0  0  0  0  0  0  0  0
    6.6866   -0.0495   -4.6299 H   0  0  0  0  0  0  0  0  0  0  0  0
    3.0684    2.8515   -2.7027 H   0  0  0  0  0  0  0  0  0  0  0  0
    4.2806    4.1024   -2.9217 H   0  0  0  0  0  0  0  0  0  0  0  0
    2.5266    3.6493   -0.4816 H   0  0  0  0  0  0  0  0  0  0  0  0
    2.5233    5.0126   -1.5898 H   0  0  0  0  0  0  0  0  0  0  0  0
    3.6535    5.5171    0.5931 H   0  0  0  0  0  0  0  0  0  0  0  0
    4.6813    5.7876   -0.8096 H   0  0  0  0  0  0  0  0  0  0  0  0
    4.7542    3.3628    1.0498 H   0  0  0  0  0  0  0  0  0  0  0  0
    5.9603    4.6308    0.9252 H   0  0  0  0  0  0  0  0  0  0  0  0
    6.7205    2.6743   -0.3482 H   0  0  0  0  0  0  0  0  0  0  0  0
    6.4560    4.0363   -1.4054 H   0  0  0  0  0  0  0  0  0  0  0  0
  1  2  1  0  0  0  0
  1 14  1  0  0  0  0
  1 15  1  0  0  0  0
  1 16  1  0  0  0  0
  2  3  1  0  0  0  0
  2 17  1  0  0  0  0
  2 18  1  0  0  0  0
  3  4  1  0  0  0  0
  3 19  1  0  0  0  0
  3 20  1  0  0  0  0
  4  5  1  0  0  0  0
  4 21  1  0  0  0  0
  4 22  1  0  0  0  0
  5  6  1  0  0  0  0
  5  9  1  0  0  0  0
  5 13  1  0  0  0  0
  6  7  1  0  0  0  0
  6 23  1  0  0  0  0
  6 24  1  0  0  0  0
  7  8  1  0  0  0  0
  7 25  1  0  0  0  0
  7 26  1  0  0  0  0
  8 27  1  0  0  0  0
  8 28  1  0  0  0  0
  8 29  1  0  0  0  0
  9 10  1  0  0  0  0
  9 30  1  0  0  0  0
  9 31  1  0  0  0  0
 10 11  1  0  0  0  0
 10 32  1  0  0  0  0
 10 33  1  0  0  0  0
 11 12  1  0  0  0  0
 11 34  1  0  0  0  0
 11 35  1  0  0  0  0
 12 13  1  0  0  0  0
 12 36  1  0  0  0  0
 12 37  1  0  0  0  0
 13 38  1  0  0  0  0
 13 39  1  0  0  0  0
M  END
$$$$
