
 OpenBabel04232216553D

 57 58  0  0  0  0  0  0  0  0999 V2000
   13.4536    0.7450   -1.8102 C   0  0  0  0  0  0  0  0  0  0  0  0
   12.0019    0.4216   -1.8860 N   0  0  0  0  0  0  0  0  0  0  0  0
   11.5219   -0.3247   -0.6932 C   0  0  0  0  0  0  0  0  0  0  0  0
   10.5095   -0.1016    0.1962 C   0  0  0  0  0  0  0  0  0  0  0  0
    9.6858    1.1469   -0.0172 C   0  0  0  0  0  0  0  0  0  0  0  0
   10.4057    2.3050   -0.3935 O   0  0  0  0  0  0  0  0  0  0  0  0
    9.9932   -0.9126    1.3966 C   0  0  0  0  0  0  0  0  0  0  0  0
   10.8155   -1.4082    2.5989 C   0  0  0  0  0  0  0  0  0  0  0  0
   12.3193   -1.5065    2.7462 C   0  0  0  0  0  0  0  0  0  0  0  0
   13.0041   -0.1583    2.8562 C   0  0  0  0  0  0  0  0  0  0  0  0
   14.4984   -0.3933    3.0386 C   0  0  0  0  0  0  0  0  0  0  0  0
   15.2749    0.9043    3.0110 C   0  0  0  0  0  0  0  0  0  0  0  0
    8.6715   -1.0238    1.6185 C   0  0  0  0  0  0  0  0  0  0  0  0
    7.5947   -1.2981    2.4669 C   0  0  0  0  0  0  0  0  0  0  0  0
    8.0612   -1.8249    3.7588 C   0  0  0  0  0  0  0  0  0  0  0  0
    7.2931   -0.8532    1.2511 C   0  0  0  0  0  0  0  0  0  0  0  0
    7.2244   -0.5099   -0.1253 C   0  0  0  0  0  0  0  0  0  0  0  0
    6.4241    0.3608   -0.7844 C   0  0  0  0  0  0  0  0  0  0  0  0
    6.9185    0.8231   -2.0785 C   0  0  0  0  0  0  0  0  0  0  0  0
    6.5468    1.8077   -2.9239 C   0  0  0  0  0  0  0  0  0  0  0  0
    7.6853    2.3805   -3.6195 C   0  0  0  0  0  0  0  0  0  0  0  0
    7.9991    3.1185   -4.6969 C   0  0  0  0  0  0  0  0  0  0  0  0
    9.4804    3.2361   -4.8420 C   0  0  0  0  0  0  0  0  0  0  0  0
   10.1798    2.0834   -5.0338 C   0  0  0  0  0  0  0  0  0  0  0  0
   11.3239    1.5519   -4.2074 C   0  0  0  0  0  0  0  0  0  0  0  0
   11.1828    0.9726   -2.9707 C   0  0  0  0  0  0  0  0  0  0  0  0
   13.8367    0.5193   -0.8020 H   0  0  0  0  0  0  0  0  0  0  0  0
   13.6296    1.8170   -1.9518 H   0  0  0  0  0  0  0  0  0  0  0  0
   14.0510    0.1614   -2.5155 H   0  0  0  0  0  0  0  0  0  0  0  0
   12.2178   -1.1431   -0.4994 H   0  0  0  0  0  0  0  0  0  0  0  0
    9.0557    1.4232    0.8276 H   0  0  0  0  0  0  0  0  0  0  0  0
    9.0669    0.8903   -0.8540 H   0  0  0  0  0  0  0  0  0  0  0  0
   11.1309    1.9911   -0.9612 H   0  0  0  0  0  0  0  0  0  0  0  0
   10.4913   -2.4439    2.7849 H   0  0  0  0  0  0  0  0  0  0  0  0
   10.4959   -0.8261    3.4771 H   0  0  0  0  0  0  0  0  0  0  0  0
   12.7438   -2.1278    1.9546 H   0  0  0  0  0  0  0  0  0  0  0  0
   12.5136   -2.0435    3.6924 H   0  0  0  0  0  0  0  0  0  0  0  0
   12.6080    0.4044    3.7131 H   0  0  0  0  0  0  0  0  0  0  0  0
   12.8089    0.4346    1.9597 H   0  0  0  0  0  0  0  0  0  0  0  0
   14.8633   -1.0492    2.2400 H   0  0  0  0  0  0  0  0  0  0  0  0
   14.6811   -0.9109    3.9889 H   0  0  0  0  0  0  0  0  0  0  0  0
   15.1111    1.4311    2.0660 H   0  0  0  0  0  0  0  0  0  0  0  0
   16.3439    0.6960    3.1084 H   0  0  0  0  0  0  0  0  0  0  0  0
   14.9726    1.5594    3.8333 H   0  0  0  0  0  0  0  0  0  0  0  0
    7.1973   -2.1182    4.3705 H   0  0  0  0  0  0  0  0  0  0  0  0
    8.6165   -1.1088    4.3687 H   0  0  0  0  0  0  0  0  0  0  0  0
    8.6301   -2.7557    3.6493 H   0  0  0  0  0  0  0  0  0  0  0  0
    7.9716   -1.0434   -0.7198 H   0  0  0  0  0  0  0  0  0  0  0  0
    5.6330    0.9234   -0.3022 H   0  0  0  0  0  0  0  0  0  0  0  0
    7.9081    0.4099   -2.2900 H   0  0  0  0  0  0  0  0  0  0  0  0
    5.5795    2.2852   -2.9392 H   0  0  0  0  0  0  0  0  0  0  0  0
    8.5767    2.1944   -3.0144 H   0  0  0  0  0  0  0  0  0  0  0  0
    7.2852    3.5508   -5.3899 H   0  0  0  0  0  0  0  0  0  0  0  0
    9.8748    4.0732   -4.2649 H   0  0  0  0  0  0  0  0  0  0  0  0
    9.7184    1.3501   -5.7010 H   0  0  0  0  0  0  0  0  0  0  0  0
   12.2657    1.5669   -4.7520 H   0  0  0  0  0  0  0  0  0  0  0  0
   10.1569    0.8743   -2.6543 H   0  0  0  0  0  0  0  0  0  0  0  0
  1  2  1  0  0  0  0
  1 27  1  0  0  0  0
  1 28  1  0  0  0  0
  1 29  1  0  0  0  0
  2  3  1  0  0  0  0
  2 26  1  0  0  0  0
  3  4  2  3  0  0  0
  3 30  1  0  0  0  0
  4  5  1  0  0  0  0
  4  7  1  0  0  0  0
  5  6  1  0  0  0  0
  5 31  1  0  0  0  0
  5 32  1  0  0  0  0
  6 33  1  0  0  0  0
  7  8  1  0  0  0  0
  7 13  2  3  0  0  0
  8  9  1  0  0  0  0
  8 34  1  0  0  0  0
  8 35  1  0  0  0  0
  9 10  1  0  0  0  0
  9 36  1  0  0  0  0
  9 37  1  0  0  0  0
 10 11  1  0  0  0  0
 10 38  1  0  0  0  0
 10 39  1  0  0  0  0
 11 12  1  0  0  0  0
 11 40  1  0  0  0  0
 11 41  1  0  0  0  0
 12 42  1  0  0  0  0
 12 43  1  0  0  0  0
 12 44  1  0  0  0  0
 13 14  1  0  0  0  0
 13 16  1  0  0  0  0
 14 15  1  0  0  0  0
 14 16  2  0  0  0  0
 15 45  1  0  0  0  0
 15 46  1  0  0  0  0
 15 47  1  0  0  0  0
 16 17  1  0  0  0  0
 17 18  2  3  0  0  0
 17 48  1  0  0  0  0
 18 19  1  0  0  0  0
 18 49  1  0  0  0  0
 19 20  2  3  0  0  0
 19 50  1  0  0  0  0
 20 21  1  0  0  0  0
 20 51  1  0  0  0  0
 21 22  2  3  0  0  0
 21 52  1  0  0  0  0
 22 23  1  0  0  0  0
 22 53  1  0  0  0  0
 23 24  2  3  0  0  0
 23 54  1  0  0  0  0
 24 25  1  0  0  0  0
 24 55  1  0  0  0  0
 25 26  2  3  0  0  0
 25 56  1  0  0  0  0
 26 57  1  0  0  0  0
M  END
$$$$
