
 OpenBabel04232217033D

 86 85  0  0  0  0  0  0  0  0999 V2000
    8.1881    1.2792   -9.6050 S   0  0  0  0  0  0  0  0  0  0  0  0
    9.8259    1.2191   -9.8966 O   0  0  0  0  0  0  0  0  0  0  0  0
   10.1364   -0.1448  -10.8196 S   0  0  0  0  0  0  0  0  0  0  0  0
   12.1856   -0.0935  -10.9654 S   0  0  0  0  0  0  0  0  0  0  0  0
   12.9593   -0.2282   -9.0561 S   0  0  0  0  0  0  0  0  0  0  0  0
   12.4081   -1.7085   -8.5005 N   0  0  0  0  0  0  0  0  0  0  0  0
   12.8729   -1.8788   -7.1165 N   0  0  0  0  0  0  0  0  0  0  0  0
   12.4469   -3.1381   -6.5035 N   0  0  0  0  0  0  0  0  0  0  0  0
   13.1084   -3.2104   -4.9366 S   0  0  0  0  0  0  0  0  0  0  0  0
   12.4163   -5.0240   -4.2389 S   0  0  0  0  0  0  0  0  0  0  0  0
   13.1478   -6.5538   -5.4468 S   0  0  0  0  0  0  0  0  0  0  0  0
   15.2281   -6.5896   -5.3762 S   0  0  0  0  0  0  0  0  0  0  0  0
   15.8927   -8.1332   -6.6456 S   0  0  0  0  0  0  0  0  0  0  0  0
   18.0038   -8.1354   -6.6469 S   0  0  0  0  0  0  0  0  0  0  0  0
   18.6946   -9.6928   -7.8951 S   0  0  0  0  0  0  0  0  0  0  0  0
   20.8071   -9.6845   -7.8887 S   0  0  0  0  0  0  0  0  0  0  0  0
   21.5001  -11.2400   -9.1364 S   0  0  0  0  0  0  0  0  0  0  0  0
   23.6106  -11.2300   -9.1283 S   0  0  0  0  0  0  0  0  0  0  0  0
   24.3020  -12.7851  -10.3757 S   0  0  0  0  0  0  0  0  0  0  0  0
   26.4117  -12.7750  -10.3675 S   0  0  0  0  0  0  0  0  0  0  0  0
   27.1025  -14.3299  -11.6147 S   0  0  0  0  0  0  0  0  0  0  0  0
   29.2120  -14.3196  -11.6064 S   0  0  0  0  0  0  0  0  0  0  0  0
   29.9026  -15.8745  -12.8535 S   0  0  0  0  0  0  0  0  0  0  0  0
   32.0120  -15.8641  -12.8453 S   0  0  0  0  0  0  0  0  0  0  0  0
   32.7026  -17.4189  -14.0923 S   0  0  0  0  0  0  0  0  0  0  0  0
   34.8119  -17.4087  -14.0841 S   0  0  0  0  0  0  0  0  0  0  0  0
   35.5025  -18.9636  -15.3312 S   0  0  0  0  0  0  0  0  0  0  0  0
   37.6121  -18.9525  -15.3224 S   0  0  0  0  0  0  0  0  0  0  0  0
   38.3036  -20.5071  -16.5692 S   0  0  0  0  0  0  0  0  0  0  0  0
   40.4130  -20.4967  -16.5609 S   0  0  0  0  0  0  0  0  0  0  0  0
   41.1017  -22.0524  -17.8087 S   0  0  0  0  0  0  0  0  0  0  0  0
   43.2111  -22.0426  -17.8009 S   0  0  0  0  0  0  0  0  0  0  0  0
   43.9022  -23.5974  -19.0479 S   0  0  0  0  0  0  0  0  0  0  0  0
   46.0120  -23.5864  -19.0391 S   0  0  0  0  0  0  0  0  0  0  0  0
   46.7027  -25.1413  -20.2863 S   0  0  0  0  0  0  0  0  0  0  0  0
   48.8116  -25.1311  -20.2781 S   0  0  0  0  0  0  0  0  0  0  0  0
   49.5026  -26.6858  -21.5251 S   0  0  0  0  0  0  0  0  0  0  0  0
   51.6120  -26.6755  -21.5168 S   0  0  0  0  0  0  0  0  0  0  0  0
   52.3026  -28.2303  -22.7639 S   0  0  0  0  0  0  0  0  0  0  0  0
   54.4120  -28.2199  -22.7556 S   0  0  0  0  0  0  0  0  0  0  0  0
   55.1026  -29.7748  -24.0027 S   0  0  0  0  0  0  0  0  0  0  0  0
   57.2119  -29.7644  -23.9944 S   0  0  0  0  0  0  0  0  0  0  0  0
   57.9026  -31.3192  -25.2415 S   0  0  0  0  0  0  0  0  0  0  0  0
   60.0119  -31.3089  -25.2332 S   0  0  0  0  0  0  0  0  0  0  0  0
   60.7026  -32.8637  -26.4803 S   0  0  0  0  0  0  0  0  0  0  0  0
   62.8119  -32.8534  -26.4720 S   0  0  0  0  0  0  0  0  0  0  0  0
   63.5026  -34.4082  -27.7191 S   0  0  0  0  0  0  0  0  0  0  0  0
   65.6119  -34.3979  -27.7108 S   0  0  0  0  0  0  0  0  0  0  0  0
   66.3025  -35.9527  -28.9578 S   0  0  0  0  0  0  0  0  0  0  0  0
   68.4119  -35.9423  -28.9496 S   0  0  0  0  0  0  0  0  0  0  0  0
   69.1025  -37.4971  -30.1966 S   0  0  0  0  0  0  0  0  0  0  0  0
   71.2119  -37.4868  -30.1883 S   0  0  0  0  0  0  0  0  0  0  0  0
   71.9025  -39.0416  -31.4354 S   0  0  0  0  0  0  0  0  0  0  0  0
   74.0119  -39.0313  -31.4271 S   0  0  0  0  0  0  0  0  0  0  0  0
   74.7025  -40.5861  -32.6742 S   0  0  0  0  0  0  0  0  0  0  0  0
   76.8119  -40.5758  -32.6659 S   0  0  0  0  0  0  0  0  0  0  0  0
   77.5025  -42.1306  -33.9130 S   0  0  0  0  0  0  0  0  0  0  0  0
   79.6119  -42.1202  -33.9047 S   0  0  0  0  0  0  0  0  0  0  0  0
   80.3025  -43.6750  -35.1518 S   0  0  0  0  0  0  0  0  0  0  0  0
   82.4119  -43.6648  -35.1435 S   0  0  0  0  0  0  0  0  0  0  0  0
   83.1025  -45.2196  -36.3906 S   0  0  0  0  0  0  0  0  0  0  0  0
   85.2118  -45.2092  -36.3823 S   0  0  0  0  0  0  0  0  0  0  0  0
   85.9025  -46.7640  -37.6294 S   0  0  0  0  0  0  0  0  0  0  0  0
   88.0119  -46.7537  -37.6211 S   0  0  0  0  0  0  0  0  0  0  0  0
   88.7025  -48.3085  -38.8682 S   0  0  0  0  0  0  0  0  0  0  0  0
   90.8118  -48.2981  -38.8599 S   0  0  0  0  0  0  0  0  0  0  0  0
   91.5025  -49.8529  -40.1070 S   0  0  0  0  0  0  0  0  0  0  0  0
   93.6118  -49.8426  -40.0987 S   0  0  0  0  0  0  0  0  0  0  0  0
   94.3023  -51.3973  -41.3457 S   0  0  0  0  0  0  0  0  0  0  0  0
   96.4115  -51.3869  -41.3373 S   0  0  0  0  0  0  0  0  0  0  0  0
   97.1018  -52.9415  -42.5843 S   0  0  0  0  0  0  0  0  0  0  0  0
   99.2104  -52.9308  -42.5757 S   0  0  0  0  0  0  0  0  0  0  0  0
   99.8995  -54.4849  -43.8222 S   0  0  0  0  0  0  0  0  0  0  0  0
  102.0062  -54.4730  -43.8126 S   0  0  0  0  0  0  0  0  0  0  0  0
  102.6921  -56.0250  -45.0576 S   0  0  0  0  0  0  0  0  0  0  0  0
  104.7929  -56.0090  -45.0440 S   0  0  0  0  0  0  0  0  0  0  0  0
  105.4688  -57.5564  -46.2858 S   0  0  0  0  0  0  0  0  0  0  0  0
  107.5551  -57.5108  -46.2809 S   0  0  0  0  0  0  0  0  0  0  0  0
  108.2202  -59.0894  -47.4580 S   0  0  0  0  0  0  0  0  0  0  0  0
  110.2902  -59.0101  -47.4694 S   0  0  0  0  0  0  0  0  0  0  0  0
  110.8807  -59.3808  -45.5316 S   0  0  0  0  0  0  0  0  0  0  0  0
    8.1002    2.3954   -8.8545 H   0  0  0  0  0  0  0  0  0  0  0  0
   12.7637   -2.4645   -9.0802 H   0  0  0  0  0  0  0  0  0  0  0  0
   12.5064   -1.1009   -6.5729 H   0  0  0  0  0  0  0  0  0  0  0  0
   12.8271   -3.8982   -7.0085 H   0  0  0  0  0  0  0  0  0  0  0  0
  112.2219  -59.3263  -45.6370 H   0  0  0  0  0  0  0  0  0  0  0  0
  1  2  1  0  0  0  0
  1 82  1  0  0  0  0
  2  3  1  0  0  0  0
  3  4  1  0  0  0  0
  4  5  1  0  0  0  0
  5  6  1  0  0  0  0
  6  7  1  0  0  0  0
  6 83  1  0  0  0  0
  7  8  1  0  0  0  0
  7 84  1  0  0  0  0
  8  9  1  0  0  0  0
  8 85  1  0  0  0  0
  9 10  1  0  0  0  0
 10 11  1  0  0  0  0
 11 12  1  0  0  0  0
 12 13  1  0  0  0  0
 13 14  1  0  0  0  0
 14 15  1  0  0  0  0
 15 16  1  0  0  0  0
 16 17  1  0  0  0  0
 17 18  1  0  0  0  0
 18 19  1  0  0  0  0
 19 20  1  0  0  0  0
 20 21  1  0  0  0  0
 21 22  1  0  0  0  0
 22 23  1  0  0  0  0
 23 24  1  0  0  0  0
 24 25  1  0  0  0  0
 25 26  1  0  0  0  0
 26 27  1  0  0  0  0
 27 28  1  0  0  0  0
 28 29  1  0  0  0  0
 29 30  1  0  0  0  0
 30 31  1  0  0  0  0
 31 32  1  0  0  0  0
 32 33  1  0  0  0  0
 33 34  1  0  0  0  0
 34 35  1  0  0  0  0
 35 36  1  0  0  0  0
 36 37  1  0  0  0  0
 37 38  1  0  0  0  0
 38 39  1  0  0  0  0
 39 40  1  0  0  0  0
 40 41  1  0  0  0  0
 41 42  1  0  0  0  0
 42 43  1  0  0  0  0
 43 44  1  0  0  0  0
 44 45  1  0  0  0  0
 45 46  1  0  0  0  0
 46 47  1  0  0  0  0
 47 48  1  0  0  0  0
 48 49  1  0  0  0  0
 49 50  1  0  0  0  0
 50 51  1  0  0  0  0
 51 52  1  0  0  0  0
 52 53  1  0  0  0  0
 53 54  1  0  0  0  0
 54 55  1  0  0  0  0
 55 56  1  0  0  0  0
 56 57  1  0  0  0  0
 57 58  1  0  0  0  0
 58 59  1  0  0  0  0
 59 60  1  0  0  0  0
 60 61  1  0  0  0  0
 61 62  1  0  0  0  0
 62 63  1  0  0  0  0
 63 64  1  0  0  0  0
 64 65  1  0  0  0  0
 65 66  1  0  0  0  0
 66 67  1  0  0  0  0
 67 68  1  0  0  0  0
 68 69  1  0  0  0  0
 69 70  1  0  0  0  0
 70 71  1  0  0  0  0
 71 72  1  0  0  0  0
 72 73  1  0  0  0  0
 73 74  1  0  0  0  0
 74 75  1  0  0  0  0
 75 76  1  0  0  0  0
 76 77  1  0  0  0  0
 77 78  1  0  0  0  0
 78 79  1  0  0  0  0
 79 80  1  0  0  0  0
 80 81  1  0  0  0  0
 81 86  1  0  0  0  0
M  END
$$$$
