
 OpenBabel04232216533D

115114  0  0  0  0  0  0  0  0999 V2000
    0.9913   -0.0042   -0.0604 C   0  0  0  0  0  0  0  0  0  0  0  0
    2.5087   -0.0123   -0.0562 C   0  0  0  0  0  0  0  0  0  0  0  0
    3.0400   -0.8852    1.0734 C   0  0  0  0  0  0  0  0  0  0  0  0
    4.5618   -0.8935    1.0805 C   0  0  0  0  0  0  0  0  0  0  0  0
    5.0771   -1.7682    2.2123 C   0  0  0  0  0  0  0  0  0  0  0  0
    6.5950   -1.7759    2.2186 C   0  0  0  0  0  0  0  0  0  0  0  0
    7.1020   -2.6510    3.3482 C   0  0  0  0  0  0  0  0  0  0  0  0
    8.6157   -2.6553    3.3476 C   0  0  0  0  0  0  0  0  0  0  0  0
    9.1154   -3.5287    4.4743 C   0  0  0  0  0  0  0  0  0  0  0  0
   10.6228   -3.5237    4.4636 C   0  0  0  0  0  0  0  0  0  0  0  0
   11.0988   -4.3971    5.5878 C   0  0  0  0  0  0  0  0  0  0  0  0
   12.5932   -4.4119    5.6000 C   0  0  0  0  0  0  0  0  0  0  0  0
   13.0416   -5.2751    6.7130 C   0  0  0  0  0  0  0  0  0  0  0  0
   14.5742   -5.2318    6.6546 C   0  0  0  0  0  0  0  0  0  0  0  0
   15.0411   -6.0943    7.7698 C   0  0  0  0  0  0  0  0  0  0  0  0
   16.5245   -6.0692    7.7415 C   0  0  0  0  0  0  0  0  0  0  0  0
   16.8334   -6.8809    8.8295 O   0  0  0  0  0  0  0  0  0  0  0  0
   18.2373   -6.9242    8.7426 O   0  0  0  0  0  0  0  0  0  0  0  0
   18.7021   -7.7246    9.7810 O   0  0  0  0  0  0  0  0  0  0  0  0
   20.0801   -7.5315    9.8655 O   0  0  0  0  0  0  0  0  0  0  0  0
   20.5221   -8.3904   10.8619 O   0  0  0  0  0  0  0  0  0  0  0  0
   21.8670   -8.6735   10.6263 O   0  0  0  0  0  0  0  0  0  0  0  0
   22.3108   -9.2993   11.7874 O   0  0  0  0  0  0  0  0  0  0  0  0
   23.6546   -9.0035   11.9885 O   0  0  0  0  0  0  0  0  0  0  0  0
   24.1095  -10.0578   12.7779 O   0  0  0  0  0  0  0  0  0  0  0  0
   25.4861  -10.1286   12.6755 O   0  0  0  0  0  0  0  0  0  0  0  0
   25.8988  -10.6518   13.8933 O   0  0  0  0  0  0  0  0  0  0  0  0
   27.2790  -10.6242   13.8942 O   0  0  0  0  0  0  0  0  0  0  0  0
   27.6835  -11.6616   14.7170 O   0  0  0  0  0  0  0  0  0  0  0  0
   29.0654  -11.6471   14.6898 O   0  0  0  0  0  0  0  0  0  0  0  0
   29.4752  -12.1727   15.8992 O   0  0  0  0  0  0  0  0  0  0  0  0
   30.8505  -12.1658   15.8552 O   0  0  0  0  0  0  0  0  0  0  0  0
   31.2775  -13.1735   16.6903 O   0  0  0  0  0  0  0  0  0  0  0  0
   32.6391  -12.9863   16.7928 O   0  0  0  0  0  0  0  0  0  0  0  0
   33.0238  -13.7414   17.8686 O   0  0  0  0  0  0  0  0  0  0  0  0
   34.3717  -13.9266   17.7140 O   0  0  0  0  0  0  0  0  0  0  0  0
   34.7666  -14.5269   18.8802 O   0  0  0  0  0  0  0  0  0  0  0  0
   36.1349  -14.5111   18.8522 O   0  0  0  0  0  0  0  0  0  0  0  0
   36.5267  -15.4819   19.7398 O   0  0  0  0  0  0  0  0  0  0  0  0
   37.8955  -15.4455   19.7057 O   0  0  0  0  0  0  0  0  0  0  0  0
   38.3037  -16.0422   20.8657 O   0  0  0  0  0  0  0  0  0  0  0  0
   39.6614  -16.1077   20.7449 O   0  0  0  0  0  0  0  0  0  0  0  0
   40.0659  -16.9437   21.7440 O   0  0  0  0  0  0  0  0  0  0  0  0
   41.4276  -16.8311   21.7540 O   0  0  0  0  0  0  0  0  0  0  0  0
   41.8331  -17.6398   22.7768 O   0  0  0  0  0  0  0  0  0  0  0  0
   43.1965  -17.6575   22.6886 O   0  0  0  0  0  0  0  0  0  0  0  0
   43.6001  -18.4222   23.7461 O   0  0  0  0  0  0  0  0  0  0  0  0
   44.9640  -18.3500   23.7317 O   0  0  0  0  0  0  0  0  0  0  0  0
   45.3610  -19.1632   24.7550 O   0  0  0  0  0  0  0  0  0  0  0  0
   46.7240  -19.1766   24.6809 O   0  0  0  0  0  0  0  0  0  0  0  0
   47.1219  -19.9898   25.7046 O   0  0  0  0  0  0  0  0  0  0  0  0
   48.4834  -19.8738   25.7265 O   0  0  0  0  0  0  0  0  0  0  0  0
   48.8912  -20.6430   26.7806 O   0  0  0  0  0  0  0  0  0  0  0  0
   50.2461  -20.7681   26.6183 O   0  0  0  0  0  0  0  0  0  0  0  0
   50.6590  -21.5219   27.6829 O   0  0  0  0  0  0  0  0  0  0  0  0
   52.0074  -21.2865   27.8130 O   0  0  0  0  0  0  0  0  0  0  0  0
   52.4201  -22.2291   28.7180 O   0  0  0  0  0  0  0  0  0  0  0  0
   53.7683  -22.4242   28.5245 O   0  0  0  0  0  0  0  0  0  0  0  0
   54.1850  -22.9602   29.7213 O   0  0  0  0  0  0  0  0  0  0  0  0
   55.5468  -22.7952   29.7955 O   0  0  0  0  0  0  0  0  0  0  0  0
   55.9632  -23.8087   30.6326 O   0  0  0  0  0  0  0  0  0  0  0  0
   57.3353  -23.8490   30.5503 O   0  0  0  0  0  0  0  0  0  0  0  0
   57.7489  -24.4664   31.7112 O   0  0  0  0  0  0  0  0  0  0  0  0
   59.1258  -24.3921   31.7194 O   0  0  0  0  0  0  0  0  0  0  0  0
   59.5346  -25.3265   32.6503 O   0  0  0  0  0  0  0  0  0  0  0  0
   60.9103  -25.4307   32.5431 O   0  0  0  0  0  0  0  0  0  0  0  0
   61.3171  -26.0235   33.7276 O   0  0  0  0  0  0  0  0  0  0  0  0
   62.6932  -25.9061   33.8129 O   0  0  0  0  0  0  0  0  0  0  0  0
   63.1130  -26.9986   34.5730 O   0  0  0  0  0  0  0  0  0  0  0  0
   64.5034  -26.9608   34.5794 O   0  0  0  0  0  0  0  0  0  0  0  0
   64.9564  -27.4062   35.8347 O   0  0  0  0  0  0  0  0  0  0  0  0
   66.3465  -27.5630   35.6969 O   0  0  0  0  0  0  0  0  0  0  0  0
   66.8386  -28.5878   36.5382 O   0  0  0  0  0  0  0  0  0  0  0  0
   68.2155  -28.2952   36.7447 O   0  0  0  0  0  0  0  0  0  0  0  0
   68.7082  -28.9590   37.8993 O   0  0  0  0  0  0  0  0  0  0  0  0
   70.0322  -29.4211   37.6044 O   0  0  0  0  0  0  0  0  0  0  0  0
   70.4970  -30.2622   38.6593 O   0  0  0  0  0  0  0  0  0  0  0  0
   71.7148  -29.7365   39.2173 O   0  0  0  0  0  0  0  0  0  0  0  0
   72.3296  -30.7555   40.0333 O   0  0  0  0  0  0  0  0  0  0  0  0
   73.7456  -30.8504   39.7669 O   0  0  0  0  0  0  0  0  0  0  0  0
   73.9915  -31.3882   38.4450 O   0  0  0  0  0  0  0  0  0  0  0  0
    0.6183    0.6242   -0.8737 H   0  0  0  0  0  0  0  0  0  0  0  0
    0.6020    0.3889    0.8843 H   0  0  0  0  0  0  0  0  0  0  0  0
    0.5974   -1.0161   -0.1991 H   0  0  0  0  0  0  0  0  0  0  0  0
    2.8798    1.0128    0.0586 H   0  0  0  0  0  0  0  0  0  0  0  0
    2.8753   -0.3854   -1.0196 H   0  0  0  0  0  0  0  0  0  0  0  0
    2.6678   -1.9106    0.9585 H   0  0  0  0  0  0  0  0  0  0  0  0
    2.6704   -0.5134    2.0370 H   0  0  0  0  0  0  0  0  0  0  0  0
    4.9419    0.1284    1.2008 H   0  0  0  0  0  0  0  0  0  0  0  0
    4.9393   -1.2695    0.1217 H   0  0  0  0  0  0  0  0  0  0  0  0
    4.7025   -2.7926    2.0954 H   0  0  0  0  0  0  0  0  0  0  0  0
    4.7051   -1.3950    3.1745 H   0  0  0  0  0  0  0  0  0  0  0  0
    6.9761   -0.7545    2.3407 H   0  0  0  0  0  0  0  0  0  0  0  0
    6.9734   -2.1512    1.2599 H   0  0  0  0  0  0  0  0  0  0  0  0
    6.7271   -3.6752    3.2305 H   0  0  0  0  0  0  0  0  0  0  0  0
    6.7314   -2.2781    4.3110 H   0  0  0  0  0  0  0  0  0  0  0  0
    8.9982   -1.6343    3.4697 H   0  0  0  0  0  0  0  0  0  0  0  0
    8.9938   -3.0314    2.3888 H   0  0  0  0  0  0  0  0  0  0  0  0
    8.7437   -4.5544    4.3570 H   0  0  0  0  0  0  0  0  0  0  0  0
    8.7468   -3.1575    5.4388 H   0  0  0  0  0  0  0  0  0  0  0  0
   11.0071   -2.5054    4.5917 H   0  0  0  0  0  0  0  0  0  0  0  0
   11.0041   -3.9016    3.5083 H   0  0  0  0  0  0  0  0  0  0  0  0
   10.7439   -5.4225    5.4724 H   0  0  0  0  0  0  0  0  0  0  0  0
   10.7483   -4.0285    6.5533 H   0  0  0  0  0  0  0  0  0  0  0  0
   12.9889   -3.3601    5.6865 H   0  0  0  0  0  0  0  0  0  0  0  0
   12.9847   -4.7607    4.6030 H   0  0  0  0  0  0  0  0  0  0  0  0
   12.7179   -6.2874    6.5742 H   0  0  0  0  0  0  0  0  0  0  0  0
   12.7205   -4.8857    7.6596 H   0  0  0  0  0  0  0  0  0  0  0  0
   14.9690   -4.2179    6.7873 H   0  0  0  0  0  0  0  0  0  0  0  0
   14.9669   -5.6157    5.7059 H   0  0  0  0  0  0  0  0  0  0  0  0
   14.6987   -7.1325    7.6784 H   0  0  0  0  0  0  0  0  0  0  0  0
   14.6973   -5.7471    8.7517 H   0  0  0  0  0  0  0  0  0  0  0  0
   16.9455   -5.0711    7.9083 H   0  0  0  0  0  0  0  0  0  0  0  0
   16.9432   -6.4873    6.8163 H   0  0  0  0  0  0  0  0  0  0  0  0
   74.9075  -31.0690   38.3902 H   0  0  0  0  0  0  0  0  0  0  0  0
  1  2  1  0  0  0  0
  1 82  1  0  0  0  0
  1 83  1  0  0  0  0
  1 84  1  0  0  0  0
  2  3  1  0  0  0  0
  2 85  1  0  0  0  0
  2 86  1  0  0  0  0
  3  4  1  0  0  0  0
  3 87  1  0  0  0  0
  3 88  1  0  0  0  0
  4  5  1  0  0  0  0
  4 89  1  0  0  0  0
  4 90  1  0  0  0  0
  5  6  1  0  0  0  0
  5 91  1  0  0  0  0
  5 92  1  0  0  0  0
  6  7  1  0  0  0  0
  6 93  1  0  0  0  0
  6 94  1  0  0  0  0
  7  8  1  0  0  0  0
  7 95  1  0  0  0  0
  7 96  1  0  0  0  0
  8  9  1  0  0  0  0
  8 97  1  0  0  0  0
  8 98  1  0  0  0  0
  9 10  1  0  0  0  0
  9 99  1  0  0  0  0
  9100  1  0  0  0  0
 10 11  1  0  0  0  0
 10101  1  0  0  0  0
 10102  1  0  0  0  0
 11 12  1  0  0  0  0
 11103  1  0  0  0  0
 11104  1  0  0  0  0
 12 13  1  0  0  0  0
 12105  1  0  0  0  0
 12106  1  0  0  0  0
 13 14  1  0  0  0  0
 13107  1  0  0  0  0
 13108  1  0  0  0  0
 14 15  1  0  0  0  0
 14109  1  0  0  0  0
 14110  1  0  0  0  0
 15 16  1  0  0  0  0
 15111  1  0  0  0  0
 15112  1  0  0  0  0
 16 17  1  0  0  0  0
 16113  1  0  0  0  0
 16114  1  0  0  0  0
 17 18  1  0  0  0  0
 18 19  1  0  0  0  0
 19 20  1  0  0  0  0
 20 21  1  0  0  0  0
 21 22  1  0  0  0  0
 22 23  1  0  0  0  0
 23 24  1  0  0  0  0
 24 25  1  0  0  0  0
 25 26  1  0  0  0  0
 26 27  1  0  0  0  0
 27 28  1  0  0  0  0
 28 29  1  0  0  0  0
 29 30  1  0  0  0  0
 30 31  1  0  0  0  0
 31 32  1  0  0  0  0
 32 33  1  0  0  0  0
 33 34  1  0  0  0  0
 34 35  1  0  0  0  0
 35 36  1  0  0  0  0
 36 37  1  0  0  0  0
 37 38  1  0  0  0  0
 38 39  1  0  0  0  0
 39 40  1  0  0  0  0
 40 41  1  0  0  0  0
 41 42  1  0  0  0  0
 42 43  1  0  0  0  0
 43 44  1  0  0  0  0
 44 45  1  0  0  0  0
 45 46  1  0  0  0  0
 46 47  1  0  0  0  0
 47 48  1  0  0  0  0
 48 49  1  0  0  0  0
 49 50  1  0  0  0  0
 50 51  1  0  0  0  0
 51 52  1  0  0  0  0
 52 53  1  0  0  0  0
 53 54  1  0  0  0  0
 54 55  1  0  0  0  0
 55 56  1  0  0  0  0
 56 57  1  0  0  0  0
 57 58  1  0  0  0  0
 58 59  1  0  0  0  0
 59 60  1  0  0  0  0
 60 61  1  0  0  0  0
 61 62  1  0  0  0  0
 62 63  1  0  0  0  0
 63 64  1  0  0  0  0
 64 65  1  0  0  0  0
 65 66  1  0  0  0  0
 66 67  1  0  0  0  0
 67 68  1  0  0  0  0
 68 69  1  0  0  0  0
 69 70  1  0  0  0  0
 70 71  1  0  0  0  0
 71 72  1  0  0  0  0
 72 73  1  0  0  0  0
 73 74  1  0  0  0  0
 74 75  1  0  0  0  0
 75 76  1  0  0  0  0
 76 77  1  0  0  0  0
 77 78  1  0  0  0  0
 78 79  1  0  0  0  0
 79 80  1  0  0  0  0
 80 81  1  0  0  0  0
 81115  1  0  0  0  0
M  END
$$$$
