
 OpenBabel04232216463D

 80 81  0  0  1  0  0  0  0  0999 V2000
    6.1597    2.9628    0.7128 C   0  0  0  0  0  0  0  0  0  0  0  0
    7.8274    4.2385    0.5578 C   0  0  0  0  0  0  0  0  0  0  0  0
    9.5209    4.6768    1.1219 C   0  0  0  0  0  0  0  0  0  0  0  0
   10.3280    5.9078    0.1974 C   0  0  0  0  0  0  0  0  0  0  0  0
   12.3694    6.5855   -0.5430 C   0  0  3  0  0  0  0  0  0  0  0  0
   11.0747    5.0958   -1.1094 C   0  0  0  0  0  0  0  0  0  0  0  0
    9.6681    4.7172   -2.3753 C   0  0  0  0  0  0  0  0  0  0  0  0
   10.0011    3.1744   -2.3628 C   0  0  0  0  0  0  0  0  0  0  0  0
   11.1699    3.6707   -3.0943 C   0  0  0  0  0  0  0  0  0  0  0  0
   12.3043    3.1456   -2.2881 C   0  0  0  0  0  0  0  0  0  0  0  0
   13.1424    4.3065   -2.5017 C   0  0  0  0  0  0  0  0  0  0  0  0
   14.4838    4.0656   -2.0932 C   0  0  0  0  0  0  0  0  0  0  0  0
   14.9153    5.4514   -2.2825 C   0  0  0  0  0  0  0  0  0  0  0  0
   16.3234    5.4659   -2.5334 C   0  0  0  0  0  0  0  0  0  0  0  0
   16.6172    6.6632   -3.3946 C   0  0  0  0  0  0  0  0  0  0  0  0
   18.0771    6.5428   -3.3887 C   0  0  0  0  0  0  0  0  0  0  0  0
   18.8634    7.6271   -3.9839 C   0  0  0  0  0  0  0  0  0  0  0  0
   20.1919    7.0294   -3.4715 C   0  0  0  0  0  0  0  0  0  0  0  0
   21.0947    8.0457   -3.0200 C   0  0  0  0  0  0  0  0  0  0  0  0
   22.4704    8.0387   -3.6094 C   0  0  0  0  0  0  0  0  0  0  0  0
   22.6556    9.1083   -4.7149 C   0  0  0  0  0  0  0  0  0  0  0  0
   24.0887    9.5590   -4.5968 C   0  0  0  0  0  0  0  0  0  0  0  0
   23.5474   11.0323   -4.4239 C   0  0  0  0  0  0  0  0  0  0  0  0
   22.7161   10.6347   -2.7680 C   0  0  0  0  0  0  0  0  0  0  0  0
   20.8457   10.1749   -1.9933 C   0  0  0  0  0  0  0  0  0  0  0  0
   18.6871    9.4723   -1.5925 C   0  0  0  0  0  0  0  0  0  0  0  0
   16.6177    8.5088   -1.1201 C   0  0  0  0  0  0  0  0  0  0  0  0
   14.3404    7.6219   -0.9401 C   0  0  0  0  0  0  0  0  0  0  0  0
   14.0308    8.2670   -2.1038 O   0  0  0  0  0  0  0  0  0  0  0  0
    8.4883    5.3045   -0.2437 C   0  0  0  0  0  0  0  0  0  0  0  0
    5.8713    2.0862    1.5617 H   0  0  0  0  0  0  0  0  0  0  0  0
    5.5765    2.2086   -0.1669 H   0  0  0  0  0  0  0  0  0  0  0  0
    4.9887    3.3787    0.7955 H   0  0  0  0  0  0  0  0  0  0  0  0
    9.4335    3.8248    1.8137 H   0  0  0  0  0  0  0  0  0  0  0  0
   12.0823    6.9420   -1.5591 H   0  0  0  0  0  0  0  0  0  0  0  0
   10.3123    4.3433   -0.7055 H   0  0  0  0  0  0  0  0  0  0  0  0
   11.4313    4.2909   -0.3428 H   0  0  0  0  0  0  0  0  0  0  0  0
    8.9544    5.5549   -2.2363 H   0  0  0  0  0  0  0  0  0  0  0  0
    8.6526    4.2128   -2.4794 H   0  0  0  0  0  0  0  0  0  0  0  0
    9.6871    2.3126   -2.9754 H   0  0  0  0  0  0  0  0  0  0  0  0
   10.2641    2.6619   -1.3945 H   0  0  0  0  0  0  0  0  0  0  0  0
   11.2823    4.8131   -3.1134 H   0  0  0  0  0  0  0  0  0  0  0  0
   10.9541    3.6967   -4.1550 H   0  0  0  0  0  0  0  0  0  0  0  0
   12.5599    2.1304   -2.4995 H   0  0  0  0  0  0  0  0  0  0  0  0
   12.2543    3.1011   -1.1731 H   0  0  0  0  0  0  0  0  0  0  0  0
   12.8702    4.9778   -1.7193 H   0  0  0  0  0  0  0  0  0  0  0  0
   12.9739    4.9282   -3.4028 H   0  0  0  0  0  0  0  0  0  0  0  0
   14.8633    3.3363   -2.7834 H   0  0  0  0  0  0  0  0  0  0  0  0
   14.4551    3.8179   -1.0204 H   0  0  0  0  0  0  0  0  0  0  0  0
   14.6956    5.8358   -1.3046 H   0  0  0  0  0  0  0  0  0  0  0  0
   14.4097    6.0141   -3.0859 H   0  0  0  0  0  0  0  0  0  0  0  0
   16.6021    4.5823   -3.0955 H   0  0  0  0  0  0  0  0  0  0  0  0
   16.7898    5.4628   -1.5321 H   0  0  0  0  0  0  0  0  0  0  0  0
   16.1714    7.5464   -2.9660 H   0  0  0  0  0  0  0  0  0  0  0  0
   16.2174    6.7444   -4.3953 H   0  0  0  0  0  0  0  0  0  0  0  0
   18.4039    5.5922   -3.8087 H   0  0  0  0  0  0  0  0  0  0  0  0
   18.3574    6.4917   -2.3123 H   0  0  0  0  0  0  0  0  0  0  0  0
   18.2856    8.5286   -3.7336 H   0  0  0  0  0  0  0  0  0  0  0  0
   19.0018    7.8599   -5.0427 H   0  0  0  0  0  0  0  0  0  0  0  0
   20.6540    6.4684   -4.2682 H   0  0  0  0  0  0  0  0  0  0  0  0
   20.1349    6.3653   -2.5843 H   0  0  0  0  0  0  0  0  0  0  0  0
   20.9912    8.0191   -1.9044 H   0  0  0  0  0  0  0  0  0  0  0  0
   20.6313    8.8870   -3.4951 H   0  0  0  0  0  0  0  0  0  0  0  0
   22.7596    7.0989   -4.0378 H   0  0  0  0  0  0  0  0  0  0  0  0
   23.1232    8.2043   -2.7297 H   0  0  0  0  0  0  0  0  0  0  0  0
   21.9279    9.9427   -4.5284 H   0  0  0  0  0  0  0  0  0  0  0  0
   22.4523    9.0606   -5.7854 H   0  0  0  0  0  0  0  0  0  0  0  0
   24.7557    9.1738   -5.4058 H   0  0  0  0  0  0  0  0  0  0  0  0
   24.5846    9.0744   -3.7268 H   0  0  0  0  0  0  0  0  0  0  0  0
   23.7712   12.0635   -4.0896 H   0  0  0  0  0  0  0  0  0  0  0  0
   24.6105   11.3540   -4.8565 H   0  0  0  0  0  0  0  0  0  0  0  0
   23.9583   10.6401   -2.7444 H   0  0  0  0  0  0  0  0  0  0  0  0
   23.4827   10.3578   -1.8750 H   0  0  0  0  0  0  0  0  0  0  0  0
   20.9050   11.2721   -1.7135 H   0  0  0  0  0  0  0  0  0  0  0  0
   21.5552    9.5628   -1.4143 H   0  0  0  0  0  0  0  0  0  0  0  0
   18.7923    9.6870   -2.6455 H   0  0  0  0  0  0  0  0  0  0  0  0
   19.2598    9.3608   -0.5920 H   0  0  0  0  0  0  0  0  0  0  0  0
   16.3940    9.2574   -1.9573 H   0  0  0  0  0  0  0  0  0  0  0  0
   17.1781    7.6603   -1.5106 H   0  0  0  0  0  0  0  0  0  0  0  0
    7.7284    4.9931   -1.1272 H   0  0  0  0  0  0  0  0  0  0  0  0
  1  2  1  0  0  0  0
  1 31  1  0  0  0  0
  1 32  1  0  0  0  0
  1 33  1  0  0  0  0
  2  3  1  0  0  0  0
  2 30  2  0  0  0  0
  3  4  2  0  0  0  0
  3 34  1  0  0  0  0
  4  5  1  0  0  0  0
  4 30  1  0  0  0  0
  5  6  1  0  0  0  0
  5 28  1  0  0  0  0
  5 35  1  0  0  0  0
  6  7  1  0  0  0  0
  6 36  1  0  0  0  0
  6 37  1  0  0  0  0
  7  8  1  0  0  0  0
  7 38  1  0  0  0  0
  7 39  1  0  0  0  0
  8  9  1  0  0  0  0
  8 40  1  0  0  0  0
  8 41  1  0  0  0  0
  9 10  1  0  0  0  0
  9 42  1  0  0  0  0
  9 43  1  0  0  0  0
 10 11  1  0  0  0  0
 10 44  1  0  0  0  0
 10 45  1  0  0  0  0
 11 12  1  0  0  0  0
 11 46  1  0  0  0  0
 11 47  1  0  0  0  0
 12 13  1  0  0  0  0
 12 48  1  0  0  0  0
 12 49  1  0  0  0  0
 13 14  1  0  0  0  0
 13 50  1  0  0  0  0
 13 51  1  0  0  0  0
 14 15  1  0  0  0  0
 14 52  1  0  0  0  0
 14 53  1  0  0  0  0
 15 16  1  0  0  0  0
 15 54  1  0  0  0  0
 15 55  1  0  0  0  0
 16 17  1  0  0  0  0
 16 56  1  0  0  0  0
 16 57  1  0  0  0  0
 17 18  1  0  0  0  0
 17 58  1  0  0  0  0
 17 59  1  0  0  0  0
 18 19  1  0  0  0  0
 18 60  1  0  0  0  0
 18 61  1  0  0  0  0
 19 20  1  0  0  0  0
 19 62  1  0  0  0  0
 19 63  1  0  0  0  0
 20 21  1  0  0  0  0
 20 64  1  0  0  0  0
 20 65  1  0  0  0  0
 21 22  1  0  0  0  0
 21 66  1  0  0  0  0
 21 67  1  0  0  0  0
 22 23  1  0  0  0  0
 22 68  1  0  0  0  0
 22 69  1  0  0  0  0
 23 24  1  0  0  0  0
 23 70  1  0  0  0  0
 23 71  1  0  0  0  0
 24 25  1  0  0  0  0
 24 72  1  0  0  0  0
 24 73  1  0  0  0  0
 25 26  1  0  0  0  0
 25 74  1  0  0  0  0
 25 75  1  0  0  0  0
 26 27  1  0  0  0  0
 26 76  1  0  0  0  0
 26 77  1  0  0  0  0
 27 28  1  0  0  0  0
 27 78  1  0  0  0  0
 27 79  1  0  0  0  0
 28 29  2  0  0  0  0
 30 80  1  0  0  0  0
M  END
$$$$
