
 OpenBabel04232216443D

 46 47  0  0  1  0  0  0  0  0999 V2000
    0.8013    0.1891   -0.5969 C   0  0  0  0  0  0  0  0  0  0  0  0
    2.2073   -0.0700   -0.0713 C   0  0  3  0  0  0  0  0  0  0  0  0
    2.7734   -1.4063   -0.4894 C   0  0  3  0  0  3  0  0  0  0  0  0
    2.7523   -1.7671   -1.8855 N   0  0  0  0  0  0  0  0  0  0  0  0
    3.6624   -2.7458   -2.4432 C   0  0  0  0  0  0  0  0  0  0  0  0
    3.0089   -4.0856   -2.3565 C   0  0  0  0  0  0  0  0  0  0  0  0
    3.5096   -5.1538   -1.7282 C   0  0  0  0  0  0  0  0  0  0  0  0
    3.8722   -1.8307    0.4699 C   0  0  3  0  0  0  0  0  0  0  0  0
    3.4512   -1.9797    1.9418 C   0  0  0  0  0  0  0  0  0  0  0  0
    2.2192   -2.8342    2.0735 C   0  0  0  0  0  0  0  0  0  0  0  0
    1.2068   -2.4646    2.6795 O   0  0  0  0  0  0  0  0  0  0  0  0
    5.0185   -0.8018    0.3589 C   0  0  0  0  0  0  0  0  0  0  0  0
    4.7347    0.4708   -0.0675 C   0  0  0  0  0  0  0  0  0  0  0  0
    5.6834    1.4134   -0.3593 O   0  0  0  0  0  0  0  0  0  0  0  0
    6.4430    1.8988    0.7440 C   0  0  0  0  0  0  0  0  0  0  0  0
    7.9034    1.5659    0.4839 C   0  0  0  0  0  0  0  0  0  0  0  0
    8.2742    0.1946    1.0305 C   0  0  0  0  0  0  0  0  0  0  0  0
    7.6979   -0.9467    0.2044 C   0  0  0  0  0  0  0  0  0  0  0  0
    6.3465   -1.4651    0.6844 C   0  0  0  0  0  0  0  0  0  0  0  0
    3.3060    0.9547   -0.4064 C   0  0  0  0  0  0  0  0  0  0  0  0
    0.1165   -0.5816   -0.2139 H   0  0  0  0  0  0  0  0  0  0  0  0
    0.7373    0.1718   -1.6886 H   0  0  0  0  0  0  0  0  0  0  0  0
    0.4278    1.1566   -0.2439 H   0  0  0  0  0  0  0  0  0  0  0  0
    2.0801   -0.0498    1.0156 H   0  0  0  0  0  0  0  0  0  0  0  0
    2.3599   -1.1204   -2.5622 H   0  0  0  0  0  0  0  0  0  0  0  0
    4.6645   -2.7262   -1.9960 H   0  0  0  0  0  0  0  0  0  0  0  0
    3.8256   -2.5159   -3.5066 H   0  0  0  0  0  0  0  0  0  0  0  0
    2.0317   -4.1644   -2.8390 H   0  0  0  0  0  0  0  0  0  0  0  0
    4.4712   -5.1234   -1.2295 H   0  0  0  0  0  0  0  0  0  0  0  0
    2.9432   -6.0808   -1.6912 H   0  0  0  0  0  0  0  0  0  0  0  0
    4.2188   -2.8180    0.1476 H   0  0  0  0  0  0  0  0  0  0  0  0
    3.2735   -1.0121    2.4306 H   0  0  0  0  0  0  0  0  0  0  0  0
    4.2451   -2.4711    2.5167 H   0  0  0  0  0  0  0  0  0  0  0  0
    2.2798   -3.8400    1.6391 H   0  0  0  0  0  0  0  0  0  0  0  0
    6.0903    1.5326    1.7166 H   0  0  0  0  0  0  0  0  0  0  0  0
    6.3306    2.9894    0.7512 H   0  0  0  0  0  0  0  0  0  0  0  0
    8.5412    2.3124    0.9705 H   0  0  0  0  0  0  0  0  0  0  0  0
    8.1198    1.6009   -0.5908 H   0  0  0  0  0  0  0  0  0  0  0  0
    7.9843    0.1063    2.0842 H   0  0  0  0  0  0  0  0  0  0  0  0
    9.3691    0.1125    1.0077 H   0  0  0  0  0  0  0  0  0  0  0  0
    8.3989   -1.7885    0.3137 H   0  0  0  0  0  0  0  0  0  0  0  0
    7.6771   -0.7148   -0.8656 H   0  0  0  0  0  0  0  0  0  0  0  0
    6.3879   -1.6072    1.7714 H   0  0  0  0  0  0  0  0  0  0  0  0
    6.2946   -2.4791    0.2623 H   0  0  0  0  0  0  0  0  0  0  0  0
    3.2734    1.2041   -1.4752 H   0  0  0  0  0  0  0  0  0  0  0  0
    3.1020    1.8819    0.1433 H   0  0  0  0  0  0  0  0  0  0  0  0
  1  2  1  0  0  0  0
  1 21  1  0  0  0  0
  1 22  1  0  0  0  0
  1 23  1  0  0  0  0
  2  3  1  0  0  0  0
  2 20  1  0  0  0  0
  2 24  1  0  0  0  0
  3  4  1  0  0  0  0
  3  8  1  0  0  0  0
  4  5  1  0  0  0  0
  4 25  1  0  0  0  0
  5  6  1  0  0  0  0
  5 26  1  0  0  0  0
  5 27  1  0  0  0  0
  6  7  2  0  0  0  0
  6 28  1  0  0  0  0
  7 29  1  0  0  0  0
  7 30  1  0  0  0  0
  8  9  1  0  0  0  0
  8 12  1  0  0  0  0
  8 31  1  0  0  0  0
  9 10  1  0  0  0  0
  9 32  1  0  0  0  0
  9 33  1  0  0  0  0
 10 11  2  0  0  0  0
 10 34  1  0  0  0  0
 12 13  2  0  0  0  0
 12 19  1  0  0  0  0
 13 14  1  0  0  0  0
 13 20  1  0  0  0  0
 14 15  1  0  0  0  0
 15 16  1  0  0  0  0
 15 35  1  0  0  0  0
 15 36  1  0  0  0  0
 16 17  1  0  0  0  0
 16 37  1  0  0  0  0
 16 38  1  0  0  0  0
 17 18  1  0  0  0  0
 17 39  1  0  0  0  0
 17 40  1  0  0  0  0
 18 19  1  0  0  0  0
 18 41  1  0  0  0  0
 18 42  1  0  0  0  0
 19 43  1  0  0  0  0
 19 44  1  0  0  0  0
 20 45  1  0  0  0  0
 20 46  1  0  0  0  0
M  END
$$$$
