
 OpenBabel04232216483D

 59 60  0  0  0  0  0  0  0  0999 V2000
    2.7437    0.9878   -0.9095 C   0  0  0  0  0  0  0  0  0  0  0  0
    4.2197    0.6165   -1.1264 C   0  0  0  0  0  0  0  0  0  0  0  0
    4.3064   -0.7985   -0.9062 C   0  0  0  0  0  0  0  0  0  0  0  0
    5.1701   -1.3646   -0.0749 C   0  0  0  0  0  0  0  0  0  0  0  0
    6.4558   -0.8447    0.3598 C   0  0  0  0  0  0  0  0  0  0  0  0
    7.4089   -2.0505    0.2484 C   0  0  0  0  0  0  0  0  0  0  0  0
    7.3980   -2.4974   -1.2265 C   0  0  0  0  0  0  0  0  0  0  0  0
    8.0336   -3.8361   -1.5360 C   0  0  0  0  0  0  0  0  0  0  0  0
    7.7848   -4.0731   -3.0209 C   0  0  0  0  0  0  0  0  0  0  0  0
    8.4503   -5.3233   -3.5464 C   0  0  0  0  0  0  0  0  0  0  0  0
    8.2124   -5.4084   -5.0498 C   0  0  0  0  0  0  0  0  0  0  0  0
    8.9247   -6.5946   -5.6580 C   0  0  0  0  0  0  0  0  0  0  0  0
    7.0143    0.3705    0.1170 C   0  0  0  0  0  0  0  0  0  0  0  0
    7.4263    1.1535    1.2787 C   0  0  0  0  0  0  0  0  0  0  0  0
    8.6698    0.9691    1.7243 C   0  0  0  0  0  0  0  0  0  0  0  0
    9.5274    2.0052    2.2743 C   0  0  0  0  0  0  0  0  0  0  0  0
   10.8300    1.7543    2.0887 C   0  0  0  0  0  0  0  0  0  0  0  0
   11.5820    2.5842    1.1141 C   0  0  0  0  0  0  0  0  0  0  0  0
   11.2788    2.3808   -0.1974 C   0  0  0  0  0  0  0  0  0  0  0  0
    9.8627    2.5221   -0.6935 C   0  0  0  0  0  0  0  0  0  0  0  0
    9.2041    1.8089   -1.6328 C   0  0  0  0  0  0  0  0  0  0  0  0
   10.1752    1.4016   -2.7664 C   0  0  0  0  0  0  0  0  0  0  0  0
    7.7641    1.8633   -1.8369 N   0  0  0  0  0  0  0  0  0  0  0  0
    6.8054    1.2512   -1.1191 C   0  0  0  0  0  0  0  0  0  0  0  0
    5.2426    1.5154   -1.2614 C   0  0  0  0  0  0  0  0  0  0  0  0
    4.8347    2.9520   -1.0602 C   0  0  0  0  0  0  0  0  0  0  0  0
    2.0777    0.1097   -0.8842 H   0  0  0  0  0  0  0  0  0  0  0  0
    2.3406    1.6392   -1.6862 H   0  0  0  0  0  0  0  0  0  0  0  0
    2.6244    1.4503    0.0778 H   0  0  0  0  0  0  0  0  0  0  0  0
    3.4778   -1.4166   -1.2564 H   0  0  0  0  0  0  0  0  0  0  0  0
    4.9570   -2.4021    0.2001 H   0  0  0  0  0  0  0  0  0  0  0  0
    7.0732   -2.8504    0.9187 H   0  0  0  0  0  0  0  0  0  0  0  0
    8.4293   -1.7967    0.5465 H   0  0  0  0  0  0  0  0  0  0  0  0
    7.8578   -1.7145   -1.8382 H   0  0  0  0  0  0  0  0  0  0  0  0
    6.3748   -2.5890   -1.6079 H   0  0  0  0  0  0  0  0  0  0  0  0
    7.5591   -4.6306   -0.9405 H   0  0  0  0  0  0  0  0  0  0  0  0
    9.1005   -3.8178   -1.2982 H   0  0  0  0  0  0  0  0  0  0  0  0
    8.1441   -3.2030   -3.5870 H   0  0  0  0  0  0  0  0  0  0  0  0
    6.7026   -4.1377   -3.2110 H   0  0  0  0  0  0  0  0  0  0  0  0
    8.0425   -6.2068   -3.0343 H   0  0  0  0  0  0  0  0  0  0  0  0
    9.5260   -5.2873   -3.3281 H   0  0  0  0  0  0  0  0  0  0  0  0
    8.5634   -4.4882   -5.5342 H   0  0  0  0  0  0  0  0  0  0  0  0
    7.1368   -5.4824   -5.2556 H   0  0  0  0  0  0  0  0  0  0  0  0
    9.9880   -6.5809   -5.3998 H   0  0  0  0  0  0  0  0  0  0  0  0
    8.8340   -6.5689   -6.7472 H   0  0  0  0  0  0  0  0  0  0  0  0
    8.4874   -7.5294   -5.2972 H   0  0  0  0  0  0  0  0  0  0  0  0
    6.8243    2.0345    1.5094 H   0  0  0  0  0  0  0  0  0  0  0  0
    9.2057    0.1454    1.2606 H   0  0  0  0  0  0  0  0  0  0  0  0
    9.1515    3.0289    2.1750 H   0  0  0  0  0  0  0  0  0  0  0  0
   11.1601    0.7028    2.0514 H   0  0  0  0  0  0  0  0  0  0  0  0
   11.6493    3.6069    1.4843 H   0  0  0  0  0  0  0  0  0  0  0  0
   11.6875    1.4355   -0.5757 H   0  0  0  0  0  0  0  0  0  0  0  0
    9.2697    3.2291   -0.0898 H   0  0  0  0  0  0  0  0  0  0  0  0
   10.2672    0.3242   -2.9149 H   0  0  0  0  0  0  0  0  0  0  0  0
   11.2266    1.7758   -2.6115 H   0  0  0  0  0  0  0  0  0  0  0  0
    9.8970    1.8888   -3.7144 H   0  0  0  0  0  0  0  0  0  0  0  0
    5.6474    3.6643   -1.1803 H   0  0  0  0  0  0  0  0  0  0  0  0
    4.4640    3.0482   -0.0275 H   0  0  0  0  0  0  0  0  0  0  0  0
    4.0105    3.2383   -1.7243 H   0  0  0  0  0  0  0  0  0  0  0  0
  1  2  1  0  0  0  0
  1 27  1  0  0  0  0
  1 28  1  0  0  0  0
  1 29  1  0  0  0  0
  2  3  1  0  0  0  0
  2 25  2  0  0  0  0
  3  4  2  0  0  0  0
  3 30  1  0  0  0  0
  4  5  1  0  0  0  0
  4 31  1  0  0  0  0
  5  6  1  0  0  0  0
  5 13  2  0  0  0  0
  6  7  1  0  0  0  0
  6 32  1  0  0  0  0
  6 33  1  0  0  0  0
  7  8  1  0  0  0  0
  7 34  1  0  0  0  0
  7 35  1  0  0  0  0
  8  9  1  0  0  0  0
  8 36  1  0  0  0  0
  8 37  1  0  0  0  0
  9 10  1  0  0  0  0
  9 38  1  0  0  0  0
  9 39  1  0  0  0  0
 10 11  1  0  0  0  0
 10 40  1  0  0  0  0
 10 41  1  0  0  0  0
 11 12  1  0  0  0  0
 11 42  1  0  0  0  0
 11 43  1  0  0  0  0
 12 44  1  0  0  0  0
 12 45  1  0  0  0  0
 12 46  1  0  0  0  0
 13 14  1  0  0  0  0
 13 24  1  0  0  0  0
 14 15  2  3  0  0  0
 14 47  1  0  0  0  0
 15 16  1  0  0  0  0
 15 48  1  0  0  0  0
 16 17  2  3  0  0  0
 16 49  1  0  0  0  0
 17 18  1  0  0  0  0
 17 50  1  0  0  0  0
 18 19  2  3  0  0  0
 18 51  1  0  0  0  0
 19 20  1  0  0  0  0
 19 52  1  0  0  0  0
 20 21  2  3  0  0  0
 20 53  1  0  0  0  0
 21 22  1  0  0  0  0
 21 23  1  0  0  0  0
 22 54  1  0  0  0  0
 22 55  1  0  0  0  0
 22 56  1  0  0  0  0
 23 24  2  3  0  0  0
 24 25  1  0  0  0  0
 25 26  1  0  0  0  0
 26 57  1  0  0  0  0
 26 58  1  0  0  0  0
 26 59  1  0  0  0  0
M  END
$$$$
