
 OpenBabel04232216463D

 50 52  0  0  1  0  0  0  0  0999 V2000
    0.6926   -0.5989   -2.2186 C   0  0  0  0  0  0  0  0  0  0  0  0
    2.0271   -0.1752   -2.7946 C   0  0  0  0  0  0  0  0  0  0  0  0
    2.7114    0.3778   -1.6511 C   0  0  0  0  0  3  0  0  0  0  0  0
    3.7013   -0.5569   -1.2270 C   0  0  0  0  0  0  0  0  0  0  0  0
    5.0305   -0.1710   -1.3136 C   0  0  3  0  0  0  0  0  0  0  0  0
    5.7113   -0.2799    0.0558 C   0  0  0  0  0  0  0  0  0  0  0  0
    5.5288   -1.4764    1.0092 C   0  0  0  0  0  0  0  0  0  0  0  0
    6.2622   -2.7766    0.6767 C   0  0  0  0  0  0  0  0  0  0  0  0
    7.7871   -2.6755    0.6969 C   0  0  0  0  0  0  0  0  0  0  0  0
    8.4330   -4.0042    0.3276 C   0  0  0  0  0  0  0  0  0  0  0  0
    9.7834   -3.8407    0.2949 F   0  0  0  0  0  0  0  0  0  0  0  0
    4.1779   -1.2487   -2.4030 C   0  0  0  0  0  0  0  0  0  0  0  0
    5.1129   -2.2932   -2.6683 N   0  0  0  0  0  0  0  0  0  0  0  0
    6.0589   -1.8976   -3.4757 C   0  0  0  0  0  0  0  0  0  0  0  0
    6.0756   -0.6197   -4.0011 N   0  0  0  0  0  0  0  0  0  0  0  0
    6.1292   -0.6292   -5.2470 N   0  0  0  0  0  0  0  0  0  0  0  0
    5.3533    0.3413   -5.8330 C   0  0  0  0  0  0  0  0  0  0  0  0
    5.2511    0.4507   -7.1629 C   0  0  0  0  0  0  0  0  0  0  0  0
    3.9675    0.9954   -7.5894 C   0  0  0  0  0  0  0  0  0  0  0  0
    3.7474    2.2013   -7.7086 O   0  0  0  0  0  0  0  0  0  0  0  0
    2.9425   -0.0546   -7.8560 C   0  0  0  0  0  0  0  0  0  0  0  0
    2.2718   -0.3811   -6.7205 C   0  0  0  0  0  0  0  0  0  0  0  0
    2.5145   -1.6512   -5.9854 C   0  0  0  0  0  0  0  0  0  0  0  0
    2.5232   -2.8552   -6.9452 C   0  0  0  0  0  0  0  0  0  0  0  0
    2.7798   -1.8177   -4.6508 C   0  0  0  0  0  0  0  0  0  0  0  0
    2.9758   -0.9152   -3.4538 C   0  0  0  0  0  0  0  0  0  0  0  0
    0.1975    0.2689   -1.7520 H   0  0  0  0  0  0  0  0  0  0  0  0
    0.8826   -1.2824   -1.3677 H   0  0  0  0  0  0  0  0  0  0  0  0
   -0.0015   -1.0894   -2.8893 H   0  0  0  0  0  0  0  0  0  0  0  0
    2.5024    1.3428   -1.2145 H   0  0  0  0  0  0  0  0  0  0  0  0
    5.3326    0.7528   -1.7957 H   0  0  0  0  0  0  0  0  0  0  0  0
    5.3026    0.5740    0.6251 H   0  0  0  0  0  0  0  0  0  0  0  0
    6.7746   -0.0495   -0.0490 H   0  0  0  0  0  0  0  0  0  0  0  0
    4.4653   -1.6998    1.1548 H   0  0  0  0  0  0  0  0  0  0  0  0
    5.8842   -1.1558    2.0037 H   0  0  0  0  0  0  0  0  0  0  0  0
    5.9264   -3.1489   -0.2931 H   0  0  0  0  0  0  0  0  0  0  0  0
    5.9681   -3.5267    1.4252 H   0  0  0  0  0  0  0  0  0  0  0  0
    8.1433   -2.3777    1.6916 H   0  0  0  0  0  0  0  0  0  0  0  0
    8.1393   -1.9082    0.0011 H   0  0  0  0  0  0  0  0  0  0  0  0
    8.1136   -4.3442   -0.6616 H   0  0  0  0  0  0  0  0  0  0  0  0
    8.2083   -4.7849    1.0612 H   0  0  0  0  0  0  0  0  0  0  0  0
    6.8829   -2.5808   -3.7332 H   0  0  0  0  0  0  0  0  0  0  0  0
    4.6458    0.8646   -5.1836 H   0  0  0  0  0  0  0  0  0  0  0  0
    5.8534   -0.1561   -7.8095 H   0  0  0  0  0  0  0  0  0  0  0  0
    3.4372   -0.8389   -8.4386 H   0  0  0  0  0  0  0  0  0  0  0  0
    1.1893   -0.3671   -6.9353 H   0  0  0  0  0  0  0  0  0  0  0  0
    3.5541   -3.1822   -7.1301 H   0  0  0  0  0  0  0  0  0  0  0  0
    2.0988   -2.6215   -7.9347 H   0  0  0  0  0  0  0  0  0  0  0  0
    1.9372   -3.6977   -6.5703 H   0  0  0  0  0  0  0  0  0  0  0  0
    2.9802   -2.8540   -4.3624 H   0  0  0  0  0  0  0  0  0  0  0  0
  1  2  1  0  0  0  0
  1 27  1  0  0  0  0
  1 28  1  0  0  0  0
  1 29  1  0  0  0  0
  2  3  1  0  0  0  0
  2 26  2  0  0  0  0
  3  4  1  0  0  0  0
  3 30  1  0  0  0  0
  4  5  1  0  0  0  0
  4 12  2  0  0  0  0
  5  6  1  0  0  0  0
  5 12  1  0  0  0  0
  5 31  1  0  0  0  0
  6  7  1  0  0  0  0
  6 32  1  0  0  0  0
  6 33  1  0  0  0  0
  7  8  1  0  0  0  0
  7 34  1  0  0  0  0
  7 35  1  0  0  0  0
  8  9  1  0  0  0  0
  8 36  1  0  0  0  0
  8 37  1  0  0  0  0
  9 10  1  0  0  0  0
  9 38  1  0  0  0  0
  9 39  1  0  0  0  0
 10 11  1  0  0  0  0
 10 40  1  0  0  0  0
 10 41  1  0  0  0  0
 12 13  1  0  0  0  0
 12 26  1  0  0  0  0
 13 14  2  3  0  0  0
 14 15  1  0  0  0  0
 14 42  1  0  0  0  0
 15 16  2  3  0  0  0
 16 17  1  0  0  0  0
 17 18  2  3  0  0  0
 17 43  1  0  0  0  0
 18 19  1  0  0  0  0
 18 44  1  0  0  0  0
 19 20  2  0  0  0  0
 19 21  1  0  0  0  0
 21 22  2  3  0  0  0
 21 45  1  0  0  0  0
 22 23  1  0  0  0  0
 22 46  1  0  0  0  0
 23 24  1  0  0  0  0
 23 25  2  3  0  0  0
 24 47  1  0  0  0  0
 24 48  1  0  0  0  0
 24 49  1  0  0  0  0
 25 26  1  0  0  0  0
 25 50  1  0  0  0  0
M  END
$$$$
