
 OpenBabel04232216523D

 65 66  0  0  1  0  0  0  0  0999 V2000
    0.6978   -1.5447    0.1583 C   0  0  0  0  0  0  0  0  0  0  0  0
    2.2118   -1.6629    0.2144 C   0  0  0  0  0  0  0  0  0  0  0  0
    2.8223   -0.5861    1.1140 C   0  0  0  0  0  0  0  0  0  0  0  0
    4.3508   -0.6811    1.1934 C   0  0  3  0  0  0  0  0  0  0  0  0
    4.9432    0.3951    2.1153 C   0  0  0  0  0  0  0  0  0  0  0  0
    5.5409    1.4829    1.2045 C   0  0  3  0  0  0  0  0  0  0  0  0
    6.9026    1.9763    1.6870 C   0  0  0  0  0  0  0  0  0  0  0  0
    6.8305    2.5924    3.0804 C   0  0  0  0  0  0  0  0  0  0  0  0
    8.2112    3.0496    3.5221 C   0  0  0  0  0  0  0  0  0  0  0  0
    8.1524    3.6466    4.9196 C   0  0  0  0  0  0  0  0  0  0  0  0
    9.5407    4.1020    5.3441 C   0  0  0  0  0  0  0  0  0  0  0  0
    9.4998    4.6822    6.7468 C   0  0  0  0  0  0  0  0  0  0  0  0
   10.8662    5.1519    7.1984 C   0  0  0  0  0  0  0  0  0  0  0  0
   11.8723    4.9928    6.5043 O   0  0  0  0  0  0  0  0  0  0  0  0
   10.9544    5.8693    8.4988 C   0  0  0  0  0  0  0  0  0  0  0  0
   11.9962    6.6988    8.6584 C   0  0  0  0  0  0  0  0  0  0  0  0
   12.2031    7.4943    9.8339 C   0  0  0  0  0  0  0  0  0  0  0  0
   11.3506    7.4561   10.8700 C   0  0  0  0  0  0  0  0  0  0  0  0
   11.5642    8.3022   12.0991 C   0  0  0  0  0  0  0  0  0  0  0  0
   11.7202    7.4955   13.3917 C   0  0  0  0  0  0  0  0  0  0  0  0
   12.9034    6.5253   13.3600 C   0  0  0  0  0  0  0  0  0  0  0  0
   13.0093    5.7579   14.6669 C   0  0  0  0  0  0  0  0  0  0  0  0
   10.1331    6.5693   10.8558 C   0  0  0  0  0  0  0  0  0  0  0  0
    9.9494    5.7529    9.5882 C   0  0  0  0  0  0  0  0  0  0  0  0
    8.9823    4.9972    9.4880 O   0  0  0  0  0  0  0  0  0  0  0  0
    5.6559    0.7831   -0.1128 C   0  0  0  0  0  0  0  0  0  0  0  0
    5.0302   -0.3939   -0.1127 C   0  0  0  0  0  0  0  0  0  0  0  0
    0.2816   -2.3321   -0.4775 H   0  0  0  0  0  0  0  0  0  0  0  0
    0.3973   -0.5778   -0.2579 H   0  0  0  0  0  0  0  0  0  0  0  0
    0.2580   -1.6427    1.1556 H   0  0  0  0  0  0  0  0  0  0  0  0
    2.6060   -1.5802   -0.8042 H   0  0  0  0  0  0  0  0  0  0  0  0
    2.4846   -2.6561    0.5895 H   0  0  0  0  0  0  0  0  0  0  0  0
    2.4083   -0.6913    2.1254 H   0  0  0  0  0  0  0  0  0  0  0  0
    2.5228    0.4070    0.7545 H   0  0  0  0  0  0  0  0  0  0  0  0
    4.6419   -1.6718    1.5630 H   0  0  0  0  0  0  0  0  0  0  0  0
    5.7221   -0.0655    2.7377 H   0  0  0  0  0  0  0  0  0  0  0  0
    4.2046    0.8214    2.8049 H   0  0  0  0  0  0  0  0  0  0  0  0
    4.8466    2.3264    1.1088 H   0  0  0  0  0  0  0  0  0  0  0  0
    7.2920    2.7216    0.9808 H   0  0  0  0  0  0  0  0  0  0  0  0
    7.6248    1.1483    1.6916 H   0  0  0  0  0  0  0  0  0  0  0  0
    6.4487    1.8634    3.8042 H   0  0  0  0  0  0  0  0  0  0  0  0
    6.1348    3.4400    3.0778 H   0  0  0  0  0  0  0  0  0  0  0  0
    8.6029    3.7909    2.8162 H   0  0  0  0  0  0  0  0  0  0  0  0
    8.9033    2.1978    3.5165 H   0  0  0  0  0  0  0  0  0  0  0  0
    7.7700    2.9017    5.6279 H   0  0  0  0  0  0  0  0  0  0  0  0
    7.4575    4.4950    4.9356 H   0  0  0  0  0  0  0  0  0  0  0  0
    9.9242    4.8472    4.6373 H   0  0  0  0  0  0  0  0  0  0  0  0
   10.2325    3.2506    5.3193 H   0  0  0  0  0  0  0  0  0  0  0  0
    9.1467    3.9033    7.4280 H   0  0  0  0  0  0  0  0  0  0  0  0
    8.8124    5.5366    6.7734 H   0  0  0  0  0  0  0  0  0  0  0  0
   12.7331    6.8026    7.8640 H   0  0  0  0  0  0  0  0  0  0  0  0
   13.0830    8.1369    9.8474 H   0  0  0  0  0  0  0  0  0  0  0  0
   10.7085    8.9815   12.2044 H   0  0  0  0  0  0  0  0  0  0  0  0
   12.4464    8.9419   11.9743 H   0  0  0  0  0  0  0  0  0  0  0  0
   10.7962    6.9447   13.6037 H   0  0  0  0  0  0  0  0  0  0  0  0
   11.8538    8.1999   14.2227 H   0  0  0  0  0  0  0  0  0  0  0  0
   13.8332    7.0777   13.1828 H   0  0  0  0  0  0  0  0  0  0  0  0
   12.7926    5.8051   12.5410 H   0  0  0  0  0  0  0  0  0  0  0  0
   13.1534    6.4407   15.5100 H   0  0  0  0  0  0  0  0  0  0  0  0
   13.8576    5.0677   14.6356 H   0  0  0  0  0  0  0  0  0  0  0  0
   12.1014    5.1734   14.8489 H   0  0  0  0  0  0  0  0  0  0  0  0
    9.2342    7.1825   10.9815 H   0  0  0  0  0  0  0  0  0  0  0  0
   10.1929    5.8476   11.6776 H   0  0  0  0  0  0  0  0  0  0  0  0
    6.1813    1.1998   -0.9646 H   0  0  0  0  0  0  0  0  0  0  0  0
    4.9956   -1.0625   -0.9619 H   0  0  0  0  0  0  0  0  0  0  0  0
  1  2  1  0  0  0  0
  1 28  1  0  0  0  0
  1 29  1  0  0  0  0
  1 30  1  0  0  0  0
  2  3  1  0  0  0  0
  2 31  1  0  0  0  0
  2 32  1  0  0  0  0
  3  4  1  0  0  0  0
  3 33  1  0  0  0  0
  3 34  1  0  0  0  0
  4  5  1  0  0  0  0
  4 27  1  0  0  0  0
  4 35  1  0  0  0  0
  5  6  1  0  0  0  0
  5 36  1  0  0  0  0
  5 37  1  0  0  0  0
  6  7  1  0  0  0  0
  6 26  1  0  0  0  0
  6 38  1  0  0  0  0
  7  8  1  0  0  0  0
  7 39  1  0  0  0  0
  7 40  1  0  0  0  0
  8  9  1  0  0  0  0
  8 41  1  0  0  0  0
  8 42  1  0  0  0  0
  9 10  1  0  0  0  0
  9 43  1  0  0  0  0
  9 44  1  0  0  0  0
 10 11  1  0  0  0  0
 10 45  1  0  0  0  0
 10 46  1  0  0  0  0
 11 12  1  0  0  0  0
 11 47  1  0  0  0  0
 11 48  1  0  0  0  0
 12 13  1  0  0  0  0
 12 49  1  0  0  0  0
 12 50  1  0  0  0  0
 13 14  2  0  0  0  0
 13 15  1  0  0  0  0
 15 16  2  0  0  0  0
 15 24  1  0  0  0  0
 16 17  1  0  0  0  0
 16 51  1  0  0  0  0
 17 18  2  0  0  0  0
 17 52  1  0  0  0  0
 18 19  1  0  0  0  0
 18 23  1  0  0  0  0
 19 20  1  0  0  0  0
 19 53  1  0  0  0  0
 19 54  1  0  0  0  0
 20 21  1  0  0  0  0
 20 55  1  0  0  0  0
 20 56  1  0  0  0  0
 21 22  1  0  0  0  0
 21 57  1  0  0  0  0
 21 58  1  0  0  0  0
 22 59  1  0  0  0  0
 22 60  1  0  0  0  0
 22 61  1  0  0  0  0
 23 24  1  0  0  0  0
 23 62  1  0  0  0  0
 23 63  1  0  0  0  0
 24 25  2  0  0  0  0
 26 27  2  0  0  0  0
 26 64  1  0  0  0  0
 27 65  1  0  0  0  0
M  END
$$$$
