
 OpenBabel04232216493D

 76 77  0  0  1  0  0  0  0  0999 V2000
    1.7118   -0.2764   -0.9035 C   0  0  0  0  0  0  0  0  0  0  0  0
    0.3338   -0.2783   -0.2443 C   0  0  3  0  0  0  0  0  0  0  0  0
   -0.5100    0.9085   -0.7301 C   0  0  0  0  0  0  0  0  0  0  0  0
   -1.9280    0.8915   -0.1576 C   0  0  0  0  0  0  0  0  0  0  0  0
   -2.6227   -0.4557   -0.3608 C   0  0  0  0  0  0  0  0  0  0  0  0
   -1.7837   -1.6421    0.1442 C   0  0  3  0  0  0  0  0  0  0  0  0
   -1.7343   -1.6484    1.6865 C   0  0  0  0  0  0  0  0  0  0  0  0
   -0.9091   -2.7937    2.2705 C   0  0  0  0  0  0  0  0  0  0  0  0
   -0.8789   -2.7134    3.7944 C   0  0  0  0  0  0  0  0  0  0  0  0
   -0.0180   -3.8306    4.3737 C   0  0  0  0  0  0  0  0  0  0  0  0
    0.0443   -3.7354    5.8948 C   0  0  0  0  0  0  0  0  0  0  0  0
    0.8427   -4.8960    6.4725 C   0  0  0  0  0  0  0  0  0  0  0  0
    0.8580   -4.8557    7.9907 C   0  0  0  0  0  0  0  0  0  0  0  0
    1.4103   -3.9258    8.5842 O   0  0  0  0  0  0  0  0  0  0  0  0
    0.1134   -5.8777    8.7947 C   0  0  0  0  0  0  0  0  0  0  0  0
   -0.1055   -7.1555    8.4376 C   0  0  0  0  0  0  0  0  0  0  0  0
    0.2492   -7.9143    7.3482 N   0  0  0  0  0  0  0  0  0  0  0  0
   -0.6910   -8.8130    6.6692 C   0  0  0  0  0  0  0  0  0  0  0  0
   -1.8011   -8.0358    5.9403 C   0  0  0  0  0  0  0  0  0  0  0  0
   -2.9593   -7.6147    6.8616 C   0  0  0  0  0  0  0  0  0  0  0  0
   -3.8059   -6.4861    6.2622 C   0  0  0  0  0  0  0  0  0  0  0  0
   -4.8769   -5.9847    7.2479 C   0  0  0  0  0  0  0  0  0  0  0  0
   -4.7473   -4.5093    7.6640 C   0  0  0  0  0  0  0  0  0  0  0  0
   -3.8976   -4.2672    8.9219 C   0  0  0  0  0  0  0  0  0  0  0  0
   -2.4050   -4.2245    8.6154 C   0  0  0  0  0  0  0  0  0  0  0  0
   -1.4991   -4.1317    9.8519 C   0  0  0  0  0  0  0  0  0  0  0  0
   -0.5356   -5.3271   10.0553 C   0  0  3  0  0  0  0  0  0  0  0  0
    0.4703   -4.9481   10.9960 O   0  0  0  0  0  0  0  0  0  0  0  0
   -0.3990   -1.5971   -0.5243 C   0  0  0  0  0  0  0  0  0  0  0  0
    2.2443    0.6549   -0.6849 H   0  0  0  0  0  0  0  0  0  0  0  0
    1.6358   -0.3795   -1.9906 H   0  0  0  0  0  0  0  0  0  0  0  0
    2.3209   -1.1052   -0.5259 H   0  0  0  0  0  0  0  0  0  0  0  0
    0.4938   -0.1759    0.8359 H   0  0  0  0  0  0  0  0  0  0  0  0
   -0.5704    0.8943   -1.8268 H   0  0  0  0  0  0  0  0  0  0  0  0
   -0.0217    1.8501   -0.4533 H   0  0  0  0  0  0  0  0  0  0  0  0
   -2.5214    1.6820   -0.6343 H   0  0  0  0  0  0  0  0  0  0  0  0
   -1.8928    1.1369    0.9093 H   0  0  0  0  0  0  0  0  0  0  0  0
   -2.8212   -0.5924   -1.4317 H   0  0  0  0  0  0  0  0  0  0  0  0
   -3.6009   -0.4436    0.1360 H   0  0  0  0  0  0  0  0  0  0  0  0
   -2.2805   -2.5677   -0.1736 H   0  0  0  0  0  0  0  0  0  0  0  0
   -2.7604   -1.7210    2.0698 H   0  0  0  0  0  0  0  0  0  0  0  0
   -1.3361   -0.7016    2.0673 H   0  0  0  0  0  0  0  0  0  0  0  0
    0.1223   -2.7476    1.9063 H   0  0  0  0  0  0  0  0  0  0  0  0
   -1.3287   -3.7547    1.9507 H   0  0  0  0  0  0  0  0  0  0  0  0
   -1.8992   -2.7825    4.1906 H   0  0  0  0  0  0  0  0  0  0  0  0
   -0.4751   -1.7420    4.1048 H   0  0  0  0  0  0  0  0  0  0  0  0
    0.9963   -3.7769    3.9607 H   0  0  0  0  0  0  0  0  0  0  0  0
   -0.4368   -4.8006    4.0784 H   0  0  0  0  0  0  0  0  0  0  0  0
   -0.9753   -3.7617    6.2844 H   0  0  0  0  0  0  0  0  0  0  0  0
    0.4793   -2.7781    6.2029 H   0  0  0  0  0  0  0  0  0  0  0  0
    1.8798   -4.8774    6.1260 H   0  0  0  0  0  0  0  0  0  0  0  0
    0.3928   -5.8084    6.0953 H   0  0  0  0  0  0  0  0  0  0  0  0
   -0.7233   -7.7613    9.1065 H   0  0  0  0  0  0  0  0  0  0  0  0
    0.9475   -7.5163    6.7286 H   0  0  0  0  0  0  0  0  0  0  0  0
   -1.1145   -9.5353    7.3786 H   0  0  0  0  0  0  0  0  0  0  0  0
   -0.1200   -9.3867    5.9308 H   0  0  0  0  0  0  0  0  0  0  0  0
   -2.2165   -8.6757    5.1531 H   0  0  0  0  0  0  0  0  0  0  0  0
   -1.3727   -7.1611    5.4364 H   0  0  0  0  0  0  0  0  0  0  0  0
   -2.5914   -7.2898    7.8344 H   0  0  0  0  0  0  0  0  0  0  0  0
   -3.5936   -8.4882    7.0548 H   0  0  0  0  0  0  0  0  0  0  0  0
   -4.3045   -6.8714    5.3637 H   0  0  0  0  0  0  0  0  0  0  0  0
   -3.1639   -5.6622    5.9306 H   0  0  0  0  0  0  0  0  0  0  0  0
   -4.9310   -6.6231    8.1376 H   0  0  0  0  0  0  0  0  0  0  0  0
   -5.8474   -6.0909    6.7455 H   0  0  0  0  0  0  0  0  0  0  0  0
   -5.7585   -4.1489    7.8921 H   0  0  0  0  0  0  0  0  0  0  0  0
   -4.3890   -3.8961    6.8278 H   0  0  0  0  0  0  0  0  0  0  0  0
   -4.1170   -5.0272    9.6803 H   0  0  0  0  0  0  0  0  0  0  0  0
   -4.1826   -3.2983    9.3515 H   0  0  0  0  0  0  0  0  0  0  0  0
   -2.2227   -3.3334    8.0022 H   0  0  0  0  0  0  0  0  0  0  0  0
   -2.1448   -5.0818    7.9979 H   0  0  0  0  0  0  0  0  0  0  0  0
   -2.0977   -4.0114   10.7648 H   0  0  0  0  0  0  0  0  0  0  0  0
   -0.9126   -3.2064    9.7878 H   0  0  0  0  0  0  0  0  0  0  0  0
   -1.1161   -6.1194   10.5458 H   0  0  0  0  0  0  0  0  0  0  0  0
    1.0689   -4.3349   10.5194 H   0  0  0  0  0  0  0  0  0  0  0  0
   -0.5289   -1.7151   -1.6082 H   0  0  0  0  0  0  0  0  0  0  0  0
    0.2141   -2.4500   -0.2107 H   0  0  0  0  0  0  0  0  0  0  0  0
  1  2  1  0  0  0  0
  1 30  1  0  0  0  0
  1 31  1  0  0  0  0
  1 32  1  0  0  0  0
  2  3  1  0  0  0  0
  2 29  1  0  0  0  0
  2 33  1  0  0  0  0
  3  4  1  0  0  0  0
  3 34  1  0  0  0  0
  3 35  1  0  0  0  0
  4  5  1  0  0  0  0
  4 36  1  0  0  0  0
  4 37  1  0  0  0  0
  5  6  1  0  0  0  0
  5 38  1  0  0  0  0
  5 39  1  0  0  0  0
  6  7  1  0  0  0  0
  6 29  1  0  0  0  0
  6 40  1  0  0  0  0
  7  8  1  0  0  0  0
  7 41  1  0  0  0  0
  7 42  1  0  0  0  0
  8  9  1  0  0  0  0
  8 43  1  0  0  0  0
  8 44  1  0  0  0  0
  9 10  1  0  0  0  0
  9 45  1  0  0  0  0
  9 46  1  0  0  0  0
 10 11  1  0  0  0  0
 10 47  1  0  0  0  0
 10 48  1  0  0  0  0
 11 12  1  0  0  0  0
 11 49  1  0  0  0  0
 11 50  1  0  0  0  0
 12 13  1  0  0  0  0
 12 51  1  0  0  0  0
 12 52  1  0  0  0  0
 13 14  2  0  0  0  0
 13 15  1  0  0  0  0
 15 16  2  3  0  0  0
 15 27  1  0  0  0  0
 16 17  1  0  0  0  0
 16 53  1  0  0  0  0
 17 18  1  0  0  0  0
 17 54  1  0  0  0  0
 18 19  1  0  0  0  0
 18 55  1  0  0  0  0
 18 56  1  0  0  0  0
 19 20  1  0  0  0  0
 19 57  1  0  0  0  0
 19 58  1  0  0  0  0
 20 21  1  0  0  0  0
 20 59  1  0  0  0  0
 20 60  1  0  0  0  0
 21 22  1  0  0  0  0
 21 61  1  0  0  0  0
 21 62  1  0  0  0  0
 22 23  1  0  0  0  0
 22 63  1  0  0  0  0
 22 64  1  0  0  0  0
 23 24  1  0  0  0  0
 23 65  1  0  0  0  0
 23 66  1  0  0  0  0
 24 25  1  0  0  0  0
 24 67  1  0  0  0  0
 24 68  1  0  0  0  0
 25 26  1  0  0  0  0
 25 69  1  0  0  0  0
 25 70  1  0  0  0  0
 26 27  1  0  0  0  0
 26 71  1  0  0  0  0
 26 72  1  0  0  0  0
 27 28  1  0  0  0  0
 27 73  1  0  0  0  0
 28 74  1  0  0  0  0
 29 75  1  0  0  0  0
 29 76  1  0  0  0  0
M  END
$$$$
