
 OpenBabel04232216513D

 47 48  0  0  1  0  0  0  0  0999 V2000
    0.8578    2.1499   -1.3439 C   0  0  0  0  0  0  0  0  0  0  0  0
    2.3605    2.3857   -1.3320 C   0  0  0  0  0  0  0  0  0  0  0  0
    3.1336    1.1093   -0.9825 C   0  0  0  0  0  0  0  0  0  0  0  0
    4.6573    1.3361   -0.9114 C   0  0  3  0  0  0  0  0  0  0  0  0
    5.3920    0.0556   -0.5296 C   0  0  3  0  0  3  0  0  0  0  0  0
    6.3708   -0.5684   -1.3967 C   0  0  0  0  0  0  0  0  0  0  0  0
    6.4562   -0.4082   -2.7225 C   0  0  0  0  0  0  0  0  0  0  0  0
    5.5089    0.0752    0.9975 C   0  0  3  0  0  0  0  0  0  0  0  0
    6.6933   -0.6667    1.6169 C   0  0  0  0  0  0  0  0  0  0  0  0
    6.6483   -0.6922    3.1376 C   0  0  0  0  0  0  0  0  0  0  0  0
    5.7448   -0.1435    3.7760 O   0  0  0  0  0  0  0  0  0  0  0  0
    7.7152   -1.4512    3.8764 C   0  0  0  0  0  0  0  0  0  0  0  0
    7.5083   -1.6949    5.1829 C   0  0  0  0  0  0  0  0  0  0  0  0
    8.4170   -2.4335    6.0400 C   0  0  0  0  0  0  0  0  0  0  0  0
    7.9866   -2.6124    7.4742 C   0  0  0  0  0  0  0  0  0  0  0  0
    9.5688   -2.9248    5.5448 C   0  0  0  0  0  0  0  0  0  0  0  0
   10.5764   -3.7093    6.3405 C   0  0  0  0  0  0  0  0  0  0  0  0
    9.9604   -2.7291    4.1035 C   0  0  0  0  0  0  0  0  0  0  0  0
    8.9633   -1.9645    3.2503 C   0  0  0  0  0  0  0  0  0  0  0  0
    9.1992   -1.7785    2.0574 O   0  0  0  0  0  0  0  0  0  0  0  0
    5.4980    1.5617    1.2776 C   0  0  0  0  0  0  0  0  0  0  0  0
    5.0274    2.2504    0.2287 C   0  0  0  0  0  0  0  0  0  0  0  0
    0.3320    3.0832   -1.5701 H   0  0  0  0  0  0  0  0  0  0  0  0
    0.5079    1.7943   -0.3692 H   0  0  0  0  0  0  0  0  0  0  0  0
    0.5805    1.4104   -2.1011 H   0  0  0  0  0  0  0  0  0  0  0  0
    2.5767    3.1757   -0.6043 H   0  0  0  0  0  0  0  0  0  0  0  0
    2.6785    2.7523   -2.3143 H   0  0  0  0  0  0  0  0  0  0  0  0
    2.9130    0.3368   -1.7300 H   0  0  0  0  0  0  0  0  0  0  0  0
    2.7603    0.7230   -0.0231 H   0  0  0  0  0  0  0  0  0  0  0  0
    5.0280    1.7621   -1.8486 H   0  0  0  0  0  0  0  0  0  0  0  0
    7.1287   -1.1929   -0.9270 H   0  0  0  0  0  0  0  0  0  0  0  0
    5.7542    0.1881   -3.2937 H   0  0  0  0  0  0  0  0  0  0  0  0
    7.2637   -0.8784   -3.2773 H   0  0  0  0  0  0  0  0  0  0  0  0
    4.5832   -0.3514    1.4107 H   0  0  0  0  0  0  0  0  0  0  0  0
    7.6256   -0.1947    1.2954 H   0  0  0  0  0  0  0  0  0  0  0  0
    6.6689   -1.7137    1.2856 H   0  0  0  0  0  0  0  0  0  0  0  0
    6.5951   -1.3295    5.6540 H   0  0  0  0  0  0  0  0  0  0  0  0
    7.0151   -2.1518    7.6847 H   0  0  0  0  0  0  0  0  0  0  0  0
    8.7138   -2.1533    8.1523 H   0  0  0  0  0  0  0  0  0  0  0  0
    7.8943   -3.6770    7.7171 H   0  0  0  0  0  0  0  0  0  0  0  0
   10.2907   -3.8496    7.3859 H   0  0  0  0  0  0  0  0  0  0  0  0
   11.5424   -3.1941    6.3292 H   0  0  0  0  0  0  0  0  0  0  0  0
   10.7100   -4.7025    5.8992 H   0  0  0  0  0  0  0  0  0  0  0  0
   10.0960   -3.7089    3.6325 H   0  0  0  0  0  0  0  0  0  0  0  0
   10.9070   -2.1788    4.0627 H   0  0  0  0  0  0  0  0  0  0  0  0
    5.7953    2.0044    2.2180 H   0  0  0  0  0  0  0  0  0  0  0  0
    4.9117    3.3245    0.1977 H   0  0  0  0  0  0  0  0  0  0  0  0
  1  2  1  0  0  0  0
  1 23  1  0  0  0  0
  1 24  1  0  0  0  0
  1 25  1  0  0  0  0
  2  3  1  0  0  0  0
  2 26  1  0  0  0  0
  2 27  1  0  0  0  0
  3  4  1  0  0  0  0
  3 28  1  0  0  0  0
  3 29  1  0  0  0  0
  4  5  1  0  0  0  0
  4 22  1  0  0  0  0
  4 30  1  0  0  0  0
  5  6  1  0  0  0  0
  5  8  1  0  0  0  0
  6  7  2  0  0  0  0
  6 31  1  0  0  0  0
  7 32  1  0  0  0  0
  7 33  1  0  0  0  0
  8  9  1  0  0  0  0
  8 21  1  0  0  0  0
  8 34  1  0  0  0  0
  9 10  1  0  0  0  0
  9 35  1  0  0  0  0
  9 36  1  0  0  0  0
 10 11  2  0  0  0  0
 10 12  1  0  0  0  0
 12 13  2  0  0  0  0
 12 19  1  0  0  0  0
 13 14  1  0  0  0  0
 13 37  1  0  0  0  0
 14 15  1  0  0  0  0
 14 16  2  0  0  0  0
 15 38  1  0  0  0  0
 15 39  1  0  0  0  0
 15 40  1  0  0  0  0
 16 17  1  0  0  0  0
 16 18  1  0  0  0  0
 17 41  1  0  0  0  0
 17 42  1  0  0  0  0
 17 43  1  0  0  0  0
 18 19  1  0  0  0  0
 18 44  1  0  0  0  0
 18 45  1  0  0  0  0
 19 20  2  0  0  0  0
 21 22  2  0  0  0  0
 21 46  1  0  0  0  0
 22 47  1  0  0  0  0
M  END
$$$$
