
 OpenBabel04232216563D

222222  0  0  0  0  0  0  0  0999 V2000
    3.9302   12.4252    3.7724 C   0  0  0  0  0  0  0  0  0  0  0  0
    3.4419   11.3007    3.0046 N   0  0  0  0  0  0  0  0  0  0  0  0
    2.1394   10.8363    2.9431 C   0  0  0  0  0  0  0  0  0  0  0  0
    1.8772    9.5459    2.5886 C   0  0  0  0  0  0  0  0  0  0  0  0
    3.2671    8.5268    2.3326 S   0  0  0  0  0  0  0  0  0  0  0  0
    4.5384   10.1500    2.3773 S   0  0  3  0  0  0  0  0  0  0  0  0
    4.8575   10.7141    0.4008 S   0  0  0  0  0  0  0  0  0  0  0  0
    5.6070    9.2620   -0.4331 C   0  0  0  0  0  0  0  0  0  0  0  0
    5.8851    9.7351   -2.1793 S   0  0  0  0  0  0  0  0  0  0  0  0
    6.6431    8.2377   -2.9511 C   0  0  0  0  0  0  0  0  0  0  0  0
    6.9074    8.7230   -4.6973 S   0  0  0  0  0  0  0  0  0  0  0  0
    7.6828    7.2802   -5.4880 C   0  0  0  0  0  0  0  0  0  0  0  0
    7.9648    7.6811   -7.2726 S   0  0  0  0  0  0  0  0  0  0  0  0
    9.1006    9.1685   -7.2281 C   0  0  0  0  0  0  0  0  0  0  0  0
    9.3656    9.6388   -8.9861 S   0  0  0  0  0  0  0  0  0  0  0  0
   10.4869   11.0785   -8.8880 C   0  0  0  0  0  0  0  0  0  0  0  0
   10.7700   11.5433  -10.3243 C   0  0  0  0  0  0  0  0  0  0  0  0
   11.7034   12.7501  -10.3512 C   0  0  0  0  0  0  0  0  0  0  0  0
   11.9701   13.1967  -11.7852 C   0  0  0  0  0  0  0  0  0  0  0  0
   12.9012   14.3996  -11.7990 C   0  0  0  0  0  0  0  0  0  0  0  0
   13.1665   14.8441  -13.2275 C   0  0  0  0  0  0  0  0  0  0  0  0
   14.0962   16.0446  -13.2346 C   0  0  0  0  0  0  0  0  0  0  0  0
   14.3600   16.4870  -14.6621 C   0  0  0  0  0  0  0  0  0  0  0  0
   15.2889   17.6864  -14.6676 C   0  0  0  0  0  0  0  0  0  0  0  0
   15.5521   18.1281  -16.0947 C   0  0  0  0  0  0  0  0  0  0  0  0
   16.4808   19.3272  -16.0999 C   0  0  0  0  0  0  0  0  0  0  0  0
   16.7437   19.7685  -17.5269 C   0  0  0  0  0  0  0  0  0  0  0  0
   17.6724   20.9676  -17.5320 C   0  0  0  0  0  0  0  0  0  0  0  0
   17.9337   21.4100  -18.9589 C   0  0  0  0  0  0  0  0  0  0  0  0
   18.8622   22.6092  -18.9639 C   0  0  0  0  0  0  0  0  0  0  0  0
   19.1222   23.0527  -20.3908 C   0  0  0  0  0  0  0  0  0  0  0  0
   20.0505   24.2520  -20.3958 C   0  0  0  0  0  0  0  0  0  0  0  0
   20.3122   24.6943  -21.8227 C   0  0  0  0  0  0  0  0  0  0  0  0
   21.2405   25.8936  -21.8277 C   0  0  0  0  0  0  0  0  0  0  0  0
   21.5006   26.3370  -23.2545 C   0  0  0  0  0  0  0  0  0  0  0  0
   22.4273   27.5376  -23.2594 C   0  0  0  0  0  0  0  0  0  0  0  0
   22.6889   27.9798  -24.6863 C   0  0  0  0  0  0  0  0  0  0  0  0
   23.6156   29.1804  -24.6912 C   0  0  0  0  0  0  0  0  0  0  0  0
   23.8773   29.6226  -26.1182 C   0  0  0  0  0  0  0  0  0  0  0  0
   24.8040   30.8232  -26.1231 C   0  0  0  0  0  0  0  0  0  0  0  0
   25.0656   31.2654  -27.5500 C   0  0  0  0  0  0  0  0  0  0  0  0
   25.9923   32.4660  -27.5549 C   0  0  0  0  0  0  0  0  0  0  0  0
   26.2540   32.9082  -28.9818 C   0  0  0  0  0  0  0  0  0  0  0  0
   27.1823   34.1075  -28.9868 C   0  0  0  0  0  0  0  0  0  0  0  0
   27.4456   34.5485  -30.4138 C   0  0  0  0  0  0  0  0  0  0  0  0
   28.3754   35.7466  -30.4189 C   0  0  0  0  0  0  0  0  0  0  0  0
   28.6403   36.1863  -31.8460 C   0  0  0  0  0  0  0  0  0  0  0  0
   29.5718   37.3832  -31.8511 C   0  0  0  0  0  0  0  0  0  0  0  0
   29.8366   37.8229  -33.2783 C   0  0  0  0  0  0  0  0  0  0  0  0
   30.7681   39.0198  -33.2834 C   0  0  0  0  0  0  0  0  0  0  0  0
   31.0330   39.4595  -34.7105 C   0  0  0  0  0  0  0  0  0  0  0  0
   31.9628   40.6576  -34.7156 C   0  0  0  0  0  0  0  0  0  0  0  0
   32.2277   41.0974  -36.1427 C   0  0  0  0  0  0  0  0  0  0  0  0
   33.1560   42.2967  -36.1477 C   0  0  0  0  0  0  0  0  0  0  0  0
   33.4208   42.7364  -37.5748 C   0  0  0  0  0  0  0  0  0  0  0  0
   34.3507   43.9345  -37.5799 C   0  0  0  0  0  0  0  0  0  0  0  0
   34.6156   44.3743  -39.0070 C   0  0  0  0  0  0  0  0  0  0  0  0
   35.5438   45.5736  -39.0120 C   0  0  0  0  0  0  0  0  0  0  0  0
   35.8071   46.0146  -40.4390 C   0  0  0  0  0  0  0  0  0  0  0  0
   36.7370   47.2127  -40.4440 C   0  0  0  0  0  0  0  0  0  0  0  0
   37.0018   47.6524  -41.8712 C   0  0  0  0  0  0  0  0  0  0  0  0
   37.9301   48.8518  -41.8761 C   0  0  0  0  0  0  0  0  0  0  0  0
   38.1966   49.2902  -43.3033 C   0  0  0  0  0  0  0  0  0  0  0  0
   39.1264   50.4883  -43.3084 C   0  0  0  0  0  0  0  0  0  0  0  0
   39.3944   50.9257  -44.7356 C   0  0  0  0  0  0  0  0  0  0  0  0
   40.3229   52.1248  -44.7407 C   0  0  0  0  0  0  0  0  0  0  0  0
   40.5906   52.5623  -46.1679 C   0  0  0  0  0  0  0  0  0  0  0  0
   41.5208   53.7602  -46.1730 C   0  0  0  0  0  0  0  0  0  0  0  0
   41.7901   54.1965  -47.6004 C   0  0  0  0  0  0  0  0  0  0  0  0
   42.7188   55.3956  -47.6055 C   0  0  0  0  0  0  0  0  0  0  0  0
   42.9867   55.8333  -49.0329 C   0  0  0  0  0  0  0  0  0  0  0  0
   43.9139   57.0339  -49.0380 C   0  0  0  0  0  0  0  0  0  0  0  0
   44.1826   57.4728  -50.4652 C   0  0  0  0  0  0  0  0  0  0  0  0
   45.1088   58.6753  -50.4706 C   0  0  0  0  0  0  0  0  0  0  0  0
   45.3801   59.1142  -51.8985 C   0  0  0  0  0  0  0  0  0  0  0  0
   46.3073   60.3184  -51.9079 C   0  0  0  0  0  0  0  0  0  0  0  0
   46.5811   60.7606  -53.3364 C   0  0  0  0  0  0  0  0  0  0  0  0
   47.5081   61.9684  -53.3569 C   0  0  0  0  0  0  0  0  0  0  0  0
   47.7768   62.4039  -54.7848 C   0  0  0  0  0  0  0  0  0  0  0  0
    3.1160   13.0306    4.1877 H   0  0  0  0  0  0  0  0  0  0  0  0
    4.5416   13.0733    3.1368 H   0  0  0  0  0  0  0  0  0  0  0  0
    4.5538   12.0856    4.6063 H   0  0  0  0  0  0  0  0  0  0  0  0
    1.3488   11.5438    3.1462 H   0  0  0  0  0  0  0  0  0  0  0  0
    0.8863    9.1507    2.4633 H   0  0  0  0  0  0  0  0  0  0  0  0
    5.6798   10.0409    3.0798 H   0  0  0  0  0  0  0  0  0  0  0  0
    4.9246    8.4094   -0.3700 H   0  0  0  0  0  0  0  0  0  0  0  0
    6.5500    9.0283    0.0661 H   0  0  0  0  0  0  0  0  0  0  0  0
    5.9504    7.3964   -2.8913 H   0  0  0  0  0  0  0  0  0  0  0  0
    7.5940    8.0123   -2.4644 H   0  0  0  0  0  0  0  0  0  0  0  0
    7.0145    6.4065   -5.4562 H   0  0  0  0  0  0  0  0  0  0  0  0
    8.6422    7.0064   -5.0302 H   0  0  0  0  0  0  0  0  0  0  0  0
   10.0495    8.8918   -6.7582 H   0  0  0  0  0  0  0  0  0  0  0  0
    8.6308    9.9983   -6.6902 H   0  0  0  0  0  0  0  0  0  0  0  0
   11.4256   10.7988   -8.3990 H   0  0  0  0  0  0  0  0  0  0  0  0
   10.0166   11.8902   -8.3237 H   0  0  0  0  0  0  0  0  0  0  0  0
    9.8334   11.8133  -10.8308 H   0  0  0  0  0  0  0  0  0  0  0  0
   11.2292   10.7321  -10.9055 H   0  0  0  0  0  0  0  0  0  0  0  0
   12.6530   12.4971   -9.8650 H   0  0  0  0  0  0  0  0  0  0  0  0
   11.2574   13.5783   -9.7879 H   0  0  0  0  0  0  0  0  0  0  0  0
   11.0265   13.4563  -12.2811 H   0  0  0  0  0  0  0  0  0  0  0  0
   12.4203   12.3765  -12.3582 H   0  0  0  0  0  0  0  0  0  0  0  0
   13.8489   14.1446  -11.3087 H   0  0  0  0  0  0  0  0  0  0  0  0
   12.4541   15.2251  -11.2316 H   0  0  0  0  0  0  0  0  0  0  0  0
   12.2216   15.1028  -13.7209 H   0  0  0  0  0  0  0  0  0  0  0  0
   13.6165   14.0223  -13.7981 H   0  0  0  0  0  0  0  0  0  0  0  0
   15.0427   15.7880  -12.7431 H   0  0  0  0  0  0  0  0  0  0  0  0
   13.6479   16.8686  -12.6659 H   0  0  0  0  0  0  0  0  0  0  0  0
   13.4143   16.7449  -15.1547 H   0  0  0  0  0  0  0  0  0  0  0  0
   14.8092   15.6642  -15.2319 H   0  0  0  0  0  0  0  0  0  0  0  0
   16.2350   17.4292  -14.1756 H   0  0  0  0  0  0  0  0  0  0  0  0
   14.8401   18.5099  -14.0984 H   0  0  0  0  0  0  0  0  0  0  0  0
   14.6062   18.3856  -16.5870 H   0  0  0  0  0  0  0  0  0  0  0  0
   16.0011   17.3050  -16.6642 H   0  0  0  0  0  0  0  0  0  0  0  0
   17.4268   19.0698  -15.6077 H   0  0  0  0  0  0  0  0  0  0  0  0
   16.0319   20.1505  -15.5306 H   0  0  0  0  0  0  0  0  0  0  0  0
   15.7977   20.0259  -18.0192 H   0  0  0  0  0  0  0  0  0  0  0  0
   17.1927   18.9453  -18.0964 H   0  0  0  0  0  0  0  0  0  0  0  0
   18.6189   20.7097  -17.0410 H   0  0  0  0  0  0  0  0  0  0  0  0
   17.2240   21.7903  -16.9615 H   0  0  0  0  0  0  0  0  0  0  0  0
   16.9872   21.6678  -19.4499 H   0  0  0  0  0  0  0  0  0  0  0  0
   18.3822   20.5874  -19.5295 H   0  0  0  0  0  0  0  0  0  0  0  0
   19.8091   22.3511  -18.4740 H   0  0  0  0  0  0  0  0  0  0  0  0
   18.4143   23.4315  -18.3924 H   0  0  0  0  0  0  0  0  0  0  0  0
   18.1753   23.3107  -20.8808 H   0  0  0  0  0  0  0  0  0  0  0  0
   19.5702   22.2305  -20.9623 H   0  0  0  0  0  0  0  0  0  0  0  0
   20.9970   23.9946  -19.9045 H   0  0  0  0  0  0  0  0  0  0  0  0
   19.6018   25.0748  -19.8254 H   0  0  0  0  0  0  0  0  0  0  0  0
   19.3658   24.9517  -22.3140 H   0  0  0  0  0  0  0  0  0  0  0  0
   20.7609   23.8716  -22.3930 H   0  0  0  0  0  0  0  0  0  0  0  0
   22.1874   25.6357  -21.3376 H   0  0  0  0  0  0  0  0  0  0  0  0
   20.7924   26.7158  -21.2562 H   0  0  0  0  0  0  0  0  0  0  0  0
   20.5535   26.5936  -23.7450 H   0  0  0  0  0  0  0  0  0  0  0  0
   21.9499   25.5152  -23.8256 H   0  0  0  0  0  0  0  0  0  0  0  0
   23.3738   27.2815  -22.7676 H   0  0  0  0  0  0  0  0  0  0  0  0
   21.9772   28.3599  -22.6895 H   0  0  0  0  0  0  0  0  0  0  0  0
   21.7424   28.2359  -25.1781 H   0  0  0  0  0  0  0  0  0  0  0  0
   23.1389   27.1576  -25.2563 H   0  0  0  0  0  0  0  0  0  0  0  0
   24.5622   28.9243  -24.1995 H   0  0  0  0  0  0  0  0  0  0  0  0
   23.1656   30.0027  -24.1213 H   0  0  0  0  0  0  0  0  0  0  0  0
   22.9307   29.8787  -26.6099 H   0  0  0  0  0  0  0  0  0  0  0  0
   24.3273   28.8003  -26.6881 H   0  0  0  0  0  0  0  0  0  0  0  0
   25.7505   30.5671  -25.6313 H   0  0  0  0  0  0  0  0  0  0  0  0
   24.3540   31.6454  -25.5531 H   0  0  0  0  0  0  0  0  0  0  0  0
   24.1191   31.5215  -28.0418 H   0  0  0  0  0  0  0  0  0  0  0  0
   25.5157   30.4431  -28.1199 H   0  0  0  0  0  0  0  0  0  0  0  0
   26.9389   32.2098  -27.0631 H   0  0  0  0  0  0  0  0  0  0  0  0
   25.5423   33.2882  -26.9850 H   0  0  0  0  0  0  0  0  0  0  0  0
   25.3076   33.1656  -29.4732 H   0  0  0  0  0  0  0  0  0  0  0  0
   26.7027   32.0854  -29.5521 H   0  0  0  0  0  0  0  0  0  0  0  0
   28.1282   33.8504  -28.4942 H   0  0  0  0  0  0  0  0  0  0  0  0
   26.7330   34.9307  -28.4177 H   0  0  0  0  0  0  0  0  0  0  0  0
   26.4998   34.8069  -30.9060 H   0  0  0  0  0  0  0  0  0  0  0  0
   27.8936   33.7248  -30.9833 H   0  0  0  0  0  0  0  0  0  0  0  0
   29.3206   35.4886  -29.9255 H   0  0  0  0  0  0  0  0  0  0  0  0
   27.9268   36.5707  -29.8506 H   0  0  0  0  0  0  0  0  0  0  0  0
   27.6952   36.4457  -32.3390 H   0  0  0  0  0  0  0  0  0  0  0  0
   29.0876   35.3617  -32.4146 H   0  0  0  0  0  0  0  0  0  0  0  0
   30.5168   37.1238  -31.3582 H   0  0  0  0  0  0  0  0  0  0  0  0
   29.1245   38.2078  -31.2825 H   0  0  0  0  0  0  0  0  0  0  0  0
   28.8916   38.0823  -33.7712 H   0  0  0  0  0  0  0  0  0  0  0  0
   30.2839   36.9983  -33.8469 H   0  0  0  0  0  0  0  0  0  0  0  0
   31.7132   38.7604  -32.7904 H   0  0  0  0  0  0  0  0  0  0  0  0
   30.3208   39.8444  -32.7148 H   0  0  0  0  0  0  0  0  0  0  0  0
   30.0878   39.7175  -35.2040 H   0  0  0  0  0  0  0  0  0  0  0  0
   31.4816   38.6353  -35.2788 H   0  0  0  0  0  0  0  0  0  0  0  0
   32.9080   40.3996  -34.2222 H   0  0  0  0  0  0  0  0  0  0  0  0
   31.5142   41.4818  -34.1473 H   0  0  0  0  0  0  0  0  0  0  0  0
   31.2824   41.3540  -36.6366 H   0  0  0  0  0  0  0  0  0  0  0  0
   32.6776   40.2736  -36.7106 H   0  0  0  0  0  0  0  0  0  0  0  0
   34.1013   42.0401  -35.6538 H   0  0  0  0  0  0  0  0  0  0  0  0
   32.7060   43.1204  -35.5798 H   0  0  0  0  0  0  0  0  0  0  0  0
   32.4756   42.9944  -38.0682 H   0  0  0  0  0  0  0  0  0  0  0  0
   33.8695   41.9123  -38.1431 H   0  0  0  0  0  0  0  0  0  0  0  0
   35.2959   43.6766  -37.0864 H   0  0  0  0  0  0  0  0  0  0  0  0
   33.9020   44.7587  -37.0116 H   0  0  0  0  0  0  0  0  0  0  0  0
   33.6702   44.6309  -39.5009 H   0  0  0  0  0  0  0  0  0  0  0  0
   35.0655   43.5506  -39.5748 H   0  0  0  0  0  0  0  0  0  0  0  0
   36.4897   45.3165  -38.5193 H   0  0  0  0  0  0  0  0  0  0  0  0
   35.0945   46.3969  -38.4429 H   0  0  0  0  0  0  0  0  0  0  0  0
   34.8614   46.2730  -40.9311 H   0  0  0  0  0  0  0  0  0  0  0  0
   36.2551   45.1909  -41.0084 H   0  0  0  0  0  0  0  0  0  0  0  0
   37.6822   46.9547  -39.9507 H   0  0  0  0  0  0  0  0  0  0  0  0
   36.2883   48.0368  -39.8758 H   0  0  0  0  0  0  0  0  0  0  0  0
   36.0565   47.9091  -42.3651 H   0  0  0  0  0  0  0  0  0  0  0  0
   37.4518   46.8287  -42.4390 H   0  0  0  0  0  0  0  0  0  0  0  0
   38.8749   48.5955  -41.3810 H   0  0  0  0  0  0  0  0  0  0  0  0
   37.4795   49.6760  -41.3095 H   0  0  0  0  0  0  0  0  0  0  0  0
   37.2519   49.5478  -43.7980 H   0  0  0  0  0  0  0  0  0  0  0  0
   38.6458   48.4656  -43.8704 H   0  0  0  0  0  0  0  0  0  0  0  0
   40.0706   50.2312  -42.8125 H   0  0  0  0  0  0  0  0  0  0  0  0
   38.6766   51.3134  -42.7424 H   0  0  0  0  0  0  0  0  0  0  0  0
   38.4501   51.1816  -45.2319 H   0  0  0  0  0  0  0  0  0  0  0  0
   39.8454   50.1009  -45.3011 H   0  0  0  0  0  0  0  0  0  0  0  0
   41.2672   51.8688  -44.2445 H   0  0  0  0  0  0  0  0  0  0  0  0
   39.8719   52.9495  -44.1750 H   0  0  0  0  0  0  0  0  0  0  0  0
   39.6465   52.8198  -46.6636 H   0  0  0  0  0  0  0  0  0  0  0  0
   41.0402   51.7372  -46.7340 H   0  0  0  0  0  0  0  0  0  0  0  0
   42.4645   53.5031  -45.6762 H   0  0  0  0  0  0  0  0  0  0  0  0
   41.0706   54.5858  -45.6081 H   0  0  0  0  0  0  0  0  0  0  0  0
   40.8463   54.4522  -48.0977 H   0  0  0  0  0  0  0  0  0  0  0  0
   42.2416   53.3713  -48.1649 H   0  0  0  0  0  0  0  0  0  0  0  0
   43.6630   55.1394  -47.1093 H   0  0  0  0  0  0  0  0  0  0  0  0
   42.2679   56.2202  -47.0397 H   0  0  0  0  0  0  0  0  0  0  0  0
   42.0422   56.0879  -49.5294 H   0  0  0  0  0  0  0  0  0  0  0  0
   43.4386   55.0090  -49.5982 H   0  0  0  0  0  0  0  0  0  0  0  0
   44.8581   56.7788  -48.5412 H   0  0  0  0  0  0  0  0  0  0  0  0
   43.4614   57.8578  -48.4724 H   0  0  0  0  0  0  0  0  0  0  0  0
   43.2378   57.7257  -50.9621 H   0  0  0  0  0  0  0  0  0  0  0  0
   44.6357   56.6486  -51.0300 H   0  0  0  0  0  0  0  0  0  0  0  0
   46.0522   58.4215  -49.9713 H   0  0  0  0  0  0  0  0  0  0  0  0
   44.6540   59.4987  -49.9058 H   0  0  0  0  0  0  0  0  0  0  0  0
   44.4349   59.3656  -52.3958 H   0  0  0  0  0  0  0  0  0  0  0  0
   45.8330   58.2884  -52.4613 H   0  0  0  0  0  0  0  0  0  0  0  0
   47.2502   60.0635  -51.4080 H   0  0  0  0  0  0  0  0  0  0  0  0
   45.8516   61.1409  -51.3425 H   0  0  0  0  0  0  0  0  0  0  0  0
   45.6347   61.0083  -53.8338 H   0  0  0  0  0  0  0  0  0  0  0  0
   47.0335   59.9336  -53.8984 H   0  0  0  0  0  0  0  0  0  0  0  0
   48.4550   61.7213  -52.8620 H   0  0  0  0  0  0  0  0  0  0  0  0
   47.0559   62.7961  -52.7975 H   0  0  0  0  0  0  0  0  0  0  0  0
   48.2487   61.5959  -55.3532 H   0  0  0  0  0  0  0  0  0  0  0  0
   48.4423   63.2712  -54.8017 H   0  0  0  0  0  0  0  0  0  0  0  0
   46.8432   62.6756  -55.2883 H   0  0  0  0  0  0  0  0  0  0  0  0
  1  2  1  0  0  0  0
  1 80  1  0  0  0  0
  1 81  1  0  0  0  0
  1 82  1  0  0  0  0
  2  3  1  0  0  0  0
  2  6  1  0  0  0  0
  3  4  2  0  0  0  0
  3 83  1  0  0  0  0
  4  5  1  0  0  0  0
  4 84  1  0  0  0  0
  5  6  1  0  0  0  0
  6  7  1  0  0  0  0
  6 85  1  0  0  0  0
  7  8  1  0  0  0  0
  8  9  1  0  0  0  0
  8 86  1  0  0  0  0
  8 87  1  0  0  0  0
  9 10  1  0  0  0  0
 10 11  1  0  0  0  0
 10 88  1  0  0  0  0
 10 89  1  0  0  0  0
 11 12  1  0  0  0  0
 12 13  1  0  0  0  0
 12 90  1  0  0  0  0
 12 91  1  0  0  0  0
 13 14  1  0  0  0  0
 14 15  1  0  0  0  0
 14 92  1  0  0  0  0
 14 93  1  0  0  0  0
 15 16  1  0  0  0  0
 16 17  1  0  0  0  0
 16 94  1  0  0  0  0
 16 95  1  0  0  0  0
 17 18  1  0  0  0  0
 17 96  1  0  0  0  0
 17 97  1  0  0  0  0
 18 19  1  0  0  0  0
 18 98  1  0  0  0  0
 18 99  1  0  0  0  0
 19 20  1  0  0  0  0
 19100  1  0  0  0  0
 19101  1  0  0  0  0
 20 21  1  0  0  0  0
 20102  1  0  0  0  0
 20103  1  0  0  0  0
 21 22  1  0  0  0  0
 21104  1  0  0  0  0
 21105  1  0  0  0  0
 22 23  1  0  0  0  0
 22106  1  0  0  0  0
 22107  1  0  0  0  0
 23 24  1  0  0  0  0
 23108  1  0  0  0  0
 23109  1  0  0  0  0
 24 25  1  0  0  0  0
 24110  1  0  0  0  0
 24111  1  0  0  0  0
 25 26  1  0  0  0  0
 25112  1  0  0  0  0
 25113  1  0  0  0  0
 26 27  1  0  0  0  0
 26114  1  0  0  0  0
 26115  1  0  0  0  0
 27 28  1  0  0  0  0
 27116  1  0  0  0  0
 27117  1  0  0  0  0
 28 29  1  0  0  0  0
 28118  1  0  0  0  0
 28119  1  0  0  0  0
 29 30  1  0  0  0  0
 29120  1  0  0  0  0
 29121  1  0  0  0  0
 30 31  1  0  0  0  0
 30122  1  0  0  0  0
 30123  1  0  0  0  0
 31 32  1  0  0  0  0
 31124  1  0  0  0  0
 31125  1  0  0  0  0
 32 33  1  0  0  0  0
 32126  1  0  0  0  0
 32127  1  0  0  0  0
 33 34  1  0  0  0  0
 33128  1  0  0  0  0
 33129  1  0  0  0  0
 34 35  1  0  0  0  0
 34130  1  0  0  0  0
 34131  1  0  0  0  0
 35 36  1  0  0  0  0
 35132  1  0  0  0  0
 35133  1  0  0  0  0
 36 37  1  0  0  0  0
 36134  1  0  0  0  0
 36135  1  0  0  0  0
 37 38  1  0  0  0  0
 37136  1  0  0  0  0
 37137  1  0  0  0  0
 38 39  1  0  0  0  0
 38138  1  0  0  0  0
 38139  1  0  0  0  0
 39 40  1  0  0  0  0
 39140  1  0  0  0  0
 39141  1  0  0  0  0
 40 41  1  0  0  0  0
 40142  1  0  0  0  0
 40143  1  0  0  0  0
 41 42  1  0  0  0  0
 41144  1  0  0  0  0
 41145  1  0  0  0  0
 42 43  1  0  0  0  0
 42146  1  0  0  0  0
 42147  1  0  0  0  0
 43 44  1  0  0  0  0
 43148  1  0  0  0  0
 43149  1  0  0  0  0
 44 45  1  0  0  0  0
 44150  1  0  0  0  0
 44151  1  0  0  0  0
 45 46  1  0  0  0  0
 45152  1  0  0  0  0
 45153  1  0  0  0  0
 46 47  1  0  0  0  0
 46154  1  0  0  0  0
 46155  1  0  0  0  0
 47 48  1  0  0  0  0
 47156  1  0  0  0  0
 47157  1  0  0  0  0
 48 49  1  0  0  0  0
 48158  1  0  0  0  0
 48159  1  0  0  0  0
 49 50  1  0  0  0  0
 49160  1  0  0  0  0
 49161  1  0  0  0  0
 50 51  1  0  0  0  0
 50162  1  0  0  0  0
 50163  1  0  0  0  0
 51 52  1  0  0  0  0
 51164  1  0  0  0  0
 51165  1  0  0  0  0
 52 53  1  0  0  0  0
 52166  1  0  0  0  0
 52167  1  0  0  0  0
 53 54  1  0  0  0  0
 53168  1  0  0  0  0
 53169  1  0  0  0  0
 54 55  1  0  0  0  0
 54170  1  0  0  0  0
 54171  1  0  0  0  0
 55 56  1  0  0  0  0
 55172  1  0  0  0  0
 55173  1  0  0  0  0
 56 57  1  0  0  0  0
 56174  1  0  0  0  0
 56175  1  0  0  0  0
 57 58  1  0  0  0  0
 57176  1  0  0  0  0
 57177  1  0  0  0  0
 58 59  1  0  0  0  0
 58178  1  0  0  0  0
 58179  1  0  0  0  0
 59 60  1  0  0  0  0
 59180  1  0  0  0  0
 59181  1  0  0  0  0
 60 61  1  0  0  0  0
 60182  1  0  0  0  0
 60183  1  0  0  0  0
 61 62  1  0  0  0  0
 61184  1  0  0  0  0
 61185  1  0  0  0  0
 62 63  1  0  0  0  0
 62186  1  0  0  0  0
 62187  1  0  0  0  0
 63 64  1  0  0  0  0
 63188  1  0  0  0  0
 63189  1  0  0  0  0
 64 65  1  0  0  0  0
 64190  1  0  0  0  0
 64191  1  0  0  0  0
 65 66  1  0  0  0  0
 65192  1  0  0  0  0
 65193  1  0  0  0  0
 66 67  1  0  0  0  0
 66194  1  0  0  0  0
 66195  1  0  0  0  0
 67 68  1  0  0  0  0
 67196  1  0  0  0  0
 67197  1  0  0  0  0
 68 69  1  0  0  0  0
 68198  1  0  0  0  0
 68199  1  0  0  0  0
 69 70  1  0  0  0  0
 69200  1  0  0  0  0
 69201  1  0  0  0  0
 70 71  1  0  0  0  0
 70202  1  0  0  0  0
 70203  1  0  0  0  0
 71 72  1  0  0  0  0
 71204  1  0  0  0  0
 71205  1  0  0  0  0
 72 73  1  0  0  0  0
 72206  1  0  0  0  0
 72207  1  0  0  0  0
 73 74  1  0  0  0  0
 73208  1  0  0  0  0
 73209  1  0  0  0  0
 74 75  1  0  0  0  0
 74210  1  0  0  0  0
 74211  1  0  0  0  0
 75 76  1  0  0  0  0
 75212  1  0  0  0  0
 75213  1  0  0  0  0
 76 77  1  0  0  0  0
 76214  1  0  0  0  0
 76215  1  0  0  0  0
 77 78  1  0  0  0  0
 77216  1  0  0  0  0
 77217  1  0  0  0  0
 78 79  1  0  0  0  0
 78218  1  0  0  0  0
 78219  1  0  0  0  0
 79220  1  0  0  0  0
 79221  1  0  0  0  0
 79222  1  0  0  0  0
M  END
$$$$
