
 OpenBabel04232216453D

 55 55  0  0  0  0  0  0  0  0999 V2000
    3.8885    1.3141    2.3764 C   0  0  0  0  0  0  0  0  0  0  0  0
    4.8760    0.1438    2.3915 C   0  0  0  0  0  0  0  0  0  0  0  0
    4.3015   -0.9581    1.6422 C   0  0  0  0  0  0  0  0  0  0  0  0
    4.9256   -1.4209    0.5496 C   0  0  0  0  0  0  0  0  0  0  0  0
    5.2290   -0.4355   -0.5676 C   0  0  0  0  0  0  0  0  0  0  0  0
    5.5996   -2.7127    0.8305 C   0  0  0  0  0  0  0  0  0  0  0  0
    4.7612   -3.6138    1.8202 C   0  0  0  0  0  0  0  0  0  0  0  0
    3.2293   -3.7719    1.8240 C   0  0  0  0  0  0  0  0  0  0  0  0
    2.7101   -4.7687    0.8061 C   0  0  0  0  0  0  0  0  0  0  0  0
    1.2084   -4.9816    1.0194 C   0  0  0  0  0  0  0  0  0  0  0  0
    0.6308   -5.9942    0.0400 C   0  0  0  0  0  0  0  0  0  0  0  0
   -0.8510   -6.1828    0.2671 C   0  0  0  0  0  0  0  0  0  0  0  0
   -1.4955   -4.9998    0.0611 F   0  0  0  0  0  0  0  0  0  0  0  0
    6.9432   -2.9109    0.6390 C   0  0  0  0  0  0  0  0  0  0  0  0
    7.9218   -1.8591    0.0975 C   0  0  0  0  0  0  0  0  0  0  0  0
    8.1078   -1.9083   -1.3083 O   0  0  0  0  0  0  0  0  0  0  0  0
    7.5775   -3.9686    1.4821 C   0  0  0  0  0  0  0  0  0  0  0  0
    8.8778   -4.0381    1.8359 C   0  0  0  0  0  0  0  0  0  0  0  0
    9.0608   -3.6509    3.2670 C   0  0  0  0  0  0  0  0  0  0  0  0
    8.7213   -4.7427    4.2464 C   0  0  0  0  0  0  0  0  0  0  0  0
    8.9828   -2.3127    3.4964 C   0  0  0  0  0  0  0  0  0  0  0  0
    7.6682   -1.6352    3.8299 C   0  0  0  0  0  0  0  0  0  0  0  0
    7.3100   -0.5464    3.1516 C   0  0  0  0  0  0  0  0  0  0  0  0
    6.0975    0.2681    2.9601 C   0  0  0  0  0  0  0  0  0  0  0  0
    2.9434    1.0061    2.8538 H   0  0  0  0  0  0  0  0  0  0  0  0
    3.6539    1.6078    1.3433 H   0  0  0  0  0  0  0  0  0  0  0  0
    4.2608    2.1889    2.9048 H   0  0  0  0  0  0  0  0  0  0  0  0
    3.2489   -0.7334    1.4300 H   0  0  0  0  0  0  0  0  0  0  0  0
    6.1777   -0.5808   -1.0831 H   0  0  0  0  0  0  0  0  0  0  0  0
    4.4553   -0.4430   -1.3267 H   0  0  0  0  0  0  0  0  0  0  0  0
    5.2802    0.5970   -0.1819 H   0  0  0  0  0  0  0  0  0  0  0  0
    5.0003   -3.2182    2.8221 H   0  0  0  0  0  0  0  0  0  0  0  0
    5.1359   -4.6453    1.8004 H   0  0  0  0  0  0  0  0  0  0  0  0
    2.6858   -2.8298    1.7137 H   0  0  0  0  0  0  0  0  0  0  0  0
    2.9564   -4.1373    2.8249 H   0  0  0  0  0  0  0  0  0  0  0  0
    3.2363   -5.7293    0.9260 H   0  0  0  0  0  0  0  0  0  0  0  0
    2.9047   -4.4092   -0.2092 H   0  0  0  0  0  0  0  0  0  0  0  0
    0.6890   -4.0227    0.9205 H   0  0  0  0  0  0  0  0  0  0  0  0
    1.0334   -5.3312    2.0485 H   0  0  0  0  0  0  0  0  0  0  0  0
    1.1460   -6.9555    0.1516 H   0  0  0  0  0  0  0  0  0  0  0  0
    0.8030   -5.6389   -0.9843 H   0  0  0  0  0  0  0  0  0  0  0  0
   -1.0715   -6.5138    1.2849 H   0  0  0  0  0  0  0  0  0  0  0  0
   -1.2747   -6.9133   -0.4394 H   0  0  0  0  0  0  0  0  0  0  0  0
    8.9211   -1.9381    0.5233 H   0  0  0  0  0  0  0  0  0  0  0  0
    7.6280   -0.8457    0.3854 H   0  0  0  0  0  0  0  0  0  0  0  0
    7.6951   -2.7199   -1.6299 H   0  0  0  0  0  0  0  0  0  0  0  0
    6.9277   -4.2479    2.3086 H   0  0  0  0  0  0  0  0  0  0  0  0
    9.6772   -3.7513    1.1643 H   0  0  0  0  0  0  0  0  0  0  0  0
    7.6426   -4.9014    4.3392 H   0  0  0  0  0  0  0  0  0  0  0  0
    9.1295   -4.5121    5.2352 H   0  0  0  0  0  0  0  0  0  0  0  0
    9.1734   -5.6926    3.9339 H   0  0  0  0  0  0  0  0  0  0  0  0
    9.4545   -1.6997    2.7320 H   0  0  0  0  0  0  0  0  0  0  0  0
    7.5750   -1.5865    4.9480 H   0  0  0  0  0  0  0  0  0  0  0  0
    8.1285    0.2027    3.2463 H   0  0  0  0  0  0  0  0  0  0  0  0
    6.3431    1.3356    3.1703 H   0  0  0  0  0  0  0  0  0  0  0  0
  1  2  1  0  0  0  0
  1 25  1  0  0  0  0
  1 26  1  0  0  0  0
  1 27  1  0  0  0  0
  2  3  1  0  0  0  0
  2 24  2  3  0  0  0
  3  4  2  3  0  0  0
  3 28  1  0  0  0  0
  4  5  1  0  0  0  0
  4  6  1  0  0  0  0
  5 29  1  0  0  0  0
  5 30  1  0  0  0  0
  5 31  1  0  0  0  0
  6  7  1  0  0  0  0
  6 14  2  3  0  0  0
  7  8  1  0  0  0  0
  7 32  1  0  0  0  0
  7 33  1  0  0  0  0
  8  9  1  0  0  0  0
  8 34  1  0  0  0  0
  8 35  1  0  0  0  0
  9 10  1  0  0  0  0
  9 36  1  0  0  0  0
  9 37  1  0  0  0  0
 10 11  1  0  0  0  0
 10 38  1  0  0  0  0
 10 39  1  0  0  0  0
 11 12  1  0  0  0  0
 11 40  1  0  0  0  0
 11 41  1  0  0  0  0
 12 13  1  0  0  0  0
 12 42  1  0  0  0  0
 12 43  1  0  0  0  0
 14 15  1  0  0  0  0
 14 17  1  0  0  0  0
 15 16  1  0  0  0  0
 15 44  1  0  0  0  0
 15 45  1  0  0  0  0
 16 46  1  0  0  0  0
 17 18  2  3  0  0  0
 17 47  1  0  0  0  0
 18 19  1  0  0  0  0
 18 48  1  0  0  0  0
 19 20  1  0  0  0  0
 19 21  2  3  0  0  0
 20 49  1  0  0  0  0
 20 50  1  0  0  0  0
 20 51  1  0  0  0  0
 21 22  1  0  0  0  0
 21 52  1  0  0  0  0
 22 23  2  3  0  0  0
 22 53  1  0  0  0  0
 23 24  1  0  0  0  0
 23 54  1  0  0  0  0
 24 55  1  0  0  0  0
M  END
$$$$
