
 OpenBabel04232216423D

189188  0  0  0  0  0  0  0  0999 V2000
   25.3794   16.5100   21.3552 C   0  0  0  0  0  0  0  0  0  0  0  0
   26.1913   16.4563   20.2886 C   0  0  0  0  0  0  0  0  0  0  0  0
   27.1673   17.5401   19.9663 C   0  0  0  0  0  0  0  0  0  0  0  0
   26.8963   18.1050   18.6331 N   0  0  0  0  0  0  0  0  0  0  0  0
   27.8363   19.1321   18.3906 N   0  0  0  0  0  0  0  0  0  0  0  0
   27.5937   19.7002   17.1115 N   0  0  0  0  0  0  0  0  0  0  0  0
   28.5249   20.7302   16.8320 N   0  0  0  0  0  0  0  0  0  0  0  0
   29.8651   20.2023   16.7992 N   0  0  0  0  0  0  0  0  0  0  0  0
   30.0105   19.1736   15.8233 N   0  0  0  0  0  0  0  0  0  0  0  0
   29.6948   19.6914   14.5500 N   0  0  0  0  0  0  0  0  0  0  0  0
   30.6157   20.7509   14.2562 N   0  0  0  0  0  0  0  0  0  0  0  0
   31.9578   20.2497   14.3096 N   0  0  0  0  0  0  0  0  0  0  0  0
   32.0989   19.2004   13.3421 N   0  0  0  0  0  0  0  0  0  0  0  0
   31.8036   19.7199   12.0455 N   0  0  0  0  0  0  0  0  0  0  0  0
   32.7126   20.7864   11.7328 N   0  0  0  0  0  0  0  0  0  0  0  0
   34.0702   20.3268   11.7576 N   0  0  0  0  0  0  0  0  0  0  0  0
   34.2573   19.2761   10.8119 N   0  0  0  0  0  0  0  0  0  0  0  0
   33.9708   19.7329    9.4792 N   0  0  0  0  0  0  0  0  0  0  0  0
   34.8380   20.8187    9.1407 N   0  0  0  0  0  0  0  0  0  0  0  0
   36.1953   20.4050    9.1946 N   0  0  0  0  0  0  0  0  0  0  0  0
   36.3904   19.3346    8.2967 N   0  0  0  0  0  0  0  0  0  0  0  0
   36.0685   19.7768    6.9871 N   0  0  0  0  0  0  0  0  0  0  0  0
   36.8925   20.8746    6.6551 N   0  0  0  0  0  0  0  0  0  0  0  0
   38.2595   20.4805    6.7074 N   0  0  0  0  0  0  0  0  0  0  0  0
   38.4809   19.4026    5.8118 N   0  0  0  0  0  0  0  0  0  0  0  0
   38.1691   19.8096    4.4829 N   0  0  0  0  0  0  0  0  0  0  0  0
   38.9764   20.9207    4.1314 N   0  0  0  0  0  0  0  0  0  0  0  0
   40.3603   20.5427    4.1580 N   0  0  0  0  0  0  0  0  0  0  0  0
   40.6061   19.4600    3.2756 N   0  0  0  0  0  0  0  0  0  0  0  0
   40.3145   19.8297    1.9397 N   0  0  0  0  0  0  0  0  0  0  0  0
   41.1015   20.9348    1.5397 N   0  0  0  0  0  0  0  0  0  0  0  0
   42.4831   20.6064    1.6262 N   0  0  0  0  0  0  0  0  0  0  0  0
   42.7448   19.4935    0.7803 N   0  0  0  0  0  0  0  0  0  0  0  0
   42.4047   19.8355   -0.5672 N   0  0  0  0  0  0  0  0  0  0  0  0
   43.1786   20.9578   -0.9715 N   0  0  0  0  0  0  0  0  0  0  0  0
   44.5609   20.6471   -0.8586 N   0  0  0  0  0  0  0  0  0  0  0  0
   44.8701   19.5303   -1.7245 N   0  0  0  0  0  0  0  0  0  0  0  0
   44.5218   19.8449   -3.0762 N   0  0  0  0  0  0  0  0  0  0  0  0
   45.2817   20.9840   -3.5200 N   0  0  0  0  0  0  0  0  0  0  0  0
   46.6764   20.6982   -3.4091 N   0  0  0  0  0  0  0  0  0  0  0  0
   46.9980   19.5676   -4.2432 N   0  0  0  0  0  0  0  0  0  0  0  0
   46.6486   19.8552   -5.6052 N   0  0  0  0  0  0  0  0  0  0  0  0
   47.3781   20.9924   -6.0507 N   0  0  0  0  0  0  0  0  0  0  0  0
   48.7846   20.7297   -5.9640 N   0  0  0  0  0  0  0  0  0  0  0  0
   49.1130   19.5905   -6.7495 N   0  0  0  0  0  0  0  0  0  0  0  0
   48.7605   19.8464   -8.1027 N   0  0  0  0  0  0  0  0  0  0  0  0
   49.4806   20.9849   -8.5920 N   0  0  0  0  0  0  0  0  0  0  0  0
   50.9219   20.7607   -8.4753 N   0  0  0  0  0  0  0  0  0  0  0  0
   51.2361   19.5859   -9.2905 C   0  0  0  0  0  0  0  0  0  0  0  0
   50.9041   19.8056  -10.7064 N   0  0  0  0  0  0  0  0  0  0  0  0
   51.6171   20.9759  -11.2153 C   0  0  0  0  0  0  0  0  0  0  0  0
   51.2399   21.2171  -12.6102 N   0  0  0  0  0  0  0  0  0  0  0  0
   51.9693   22.3726  -13.1242 C   0  0  0  0  0  0  0  0  0  0  0  0
   51.6332   22.6143  -14.5413 N   0  0  0  0  0  0  0  0  0  0  0  0
   52.3529   23.7734  -15.0325 C   0  0  0  0  0  0  0  0  0  0  0  0
   52.0064   24.0176  -16.4440 N   0  0  0  0  0  0  0  0  0  0  0  0
   52.7161   25.1774  -16.9512 C   0  0  0  0  0  0  0  0  0  0  0  0
   52.3467   25.4006  -18.3427 N   0  0  0  0  0  0  0  0  0  0  0  0
   53.0777   26.5611  -18.8614 C   0  0  0  0  0  0  0  0  0  0  0  0
   52.7349   26.8066  -20.2717 N   0  0  0  0  0  0  0  0  0  0  0  0
   53.4551   27.9704  -20.7712 C   0  0  0  0  0  0  0  0  0  0  0  0
   53.0879   28.2126  -22.2236 C   0  0  0  0  0  0  0  0  0  0  0  0
   53.8358   29.4209  -22.7588 C   0  0  0  0  0  0  0  0  0  0  0  0
   53.4699   29.6645  -24.2092 C   0  0  0  0  0  0  0  0  0  0  0  0
   54.2168   30.8702  -24.7414 C   0  0  0  0  0  0  0  0  0  0  0  0
   53.8501   31.1121  -26.1906 C   0  0  0  0  0  0  0  0  0  0  0  0
   54.5968   32.3173  -26.7224 C   0  0  0  0  0  0  0  0  0  0  0  0
   54.2300   32.5591  -28.1714 C   0  0  0  0  0  0  0  0  0  0  0  0
   54.9752   33.7654  -28.7025 C   0  0  0  0  0  0  0  0  0  0  0  0
   54.6084   34.0072  -30.1515 C   0  0  0  0  0  0  0  0  0  0  0  0
   55.3536   35.2136  -30.6826 C   0  0  0  0  0  0  0  0  0  0  0  0
   54.9868   35.4553  -32.1316 C   0  0  0  0  0  0  0  0  0  0  0  0
   55.7320   36.6617  -32.6627 C   0  0  0  0  0  0  0  0  0  0  0  0
   55.3652   36.9034  -34.1117 C   0  0  0  0  0  0  0  0  0  0  0  0
   56.1089   38.1109  -34.6422 C   0  0  0  0  0  0  0  0  0  0  0  0
   55.7421   38.3527  -36.0913 C   0  0  0  0  0  0  0  0  0  0  0  0
   56.4860   39.5604  -36.6216 C   0  0  0  0  0  0  0  0  0  0  0  0
   56.1181   39.8039  -38.0700 C   0  0  0  0  0  0  0  0  0  0  0  0
   56.8605   41.0139  -38.6021 C   0  0  0  0  0  0  0  0  0  0  0  0
   56.4906   41.2531  -40.0472 C   0  0  0  0  0  0  0  0  0  0  0  0
   24.6793   15.7160   21.5577 H   0  0  0  0  0  0  0  0  0  0  0  0
   25.3999   17.3684   22.0182 H   0  0  0  0  0  0  0  0  0  0  0  0
   26.1491   15.5924   19.6319 H   0  0  0  0  0  0  0  0  0  0  0  0
   28.1858   17.1256   19.9884 H   0  0  0  0  0  0  0  0  0  0  0  0
   27.1148   18.3328   20.7226 H   0  0  0  0  0  0  0  0  0  0  0  0
   25.9700   18.5237   18.6154 H   0  0  0  0  0  0  0  0  0  0  0  0
   28.7730   18.7232   18.4106 H   0  0  0  0  0  0  0  0  0  0  0  0
   26.6628   20.0853   17.0707 H   0  0  0  0  0  0  0  0  0  0  0  0
   28.4480   21.4886   17.5155 H   0  0  0  0  0  0  0  0  0  0  0  0
   30.1054   19.8394   17.7195 H   0  0  0  0  0  0  0  0  0  0  0  0
   29.3555   18.4192   16.0205 H   0  0  0  0  0  0  0  0  0  0  0  0
   28.7298   20.0422   14.5558 H   0  0  0  0  0  0  0  0  0  0  0  0
   30.5402   21.4752   14.9644 H   0  0  0  0  0  0  0  0  0  0  0  0
   32.1519   19.8718   15.2414 H   0  0  0  0  0  0  0  0  0  0  0  0
   31.4490   18.4359   13.5662 H   0  0  0  0  0  0  0  0  0  0  0  0
   30.8509   20.0806   11.9860 H   0  0  0  0  0  0  0  0  0  0  0  0
   32.6414   21.5470   12.3991 H   0  0  0  0  0  0  0  0  0  0  0  0
   34.3128   19.9666   12.6721 H   0  0  0  0  0  0  0  0  0  0  0  0
   33.6437   18.4913   11.0568 H   0  0  0  0  0  0  0  0  0  0  0  0
   33.0107   20.0702    9.4267 H   0  0  0  0  0  0  0  0  0  0  0  0
   34.7168   21.5729    9.8145 H   0  0  0  0  0  0  0  0  0  0  0  0
   36.3924   20.0676   10.1319 H   0  0  0  0  0  0  0  0  0  0  0  0
   35.7663   18.5665    8.5654 H   0  0  0  0  0  0  0  0  0  0  0  0
   35.0856   20.0784    6.9894 H   0  0  0  0  0  0  0  0  0  0  0  0
   36.7660   21.6324    7.3189 H   0  0  0  0  0  0  0  0  0  0  0  0
   38.4511   20.1814    7.6705 H   0  0  0  0  0  0  0  0  0  0  0  0
   37.8732   18.6315    6.0447 H   0  0  0  0  0  0  0  0  0  0  0  0
   37.1809   20.0815    4.4531 H   0  0  0  0  0  0  0  0  0  0  0  0
   38.8059   21.7016    4.7766 H   0  0  0  0  0  0  0  0  0  0  0  0
   40.6053   20.2272    5.0951 H   0  0  0  0  0  0  0  0  0  0  0  0
   40.0216   18.6660    3.5389 H   0  0  0  0  0  0  0  0  0  0  0  0
   39.3368   20.0953    1.8831 H   0  0  0  0  0  0  0  0  0  0  0  0
   40.9197   21.7030    2.1794 H   0  0  0  0  0  0  0  0  0  0  0  0
   42.6523   20.3605    2.6177 H   0  0  0  0  0  0  0  0  0  0  0  0
   42.1549   18.7105    1.1046 H   0  0  0  0  0  0  0  0  0  0  0  0
   41.4228   20.1004   -0.6056 H   0  0  0  0  0  0  0  0  0  0  0  0
   42.9844   21.7402   -0.3519 H   0  0  0  0  0  0  0  0  0  0  0  0
   44.7712   20.4161    0.1176 H   0  0  0  0  0  0  0  0  0  0  0  0
   44.3015   18.7347   -1.4475 H   0  0  0  0  0  0  0  0  0  0  0  0
   43.5381   20.0860   -3.1412 H   0  0  0  0  0  0  0  0  0  0  0  0
   45.0581   21.7702   -2.9059 H   0  0  0  0  0  0  0  0  0  0  0  0
   46.9013   20.4969   -2.4292 H   0  0  0  0  0  0  0  0  0  0  0  0
   46.4594   18.7512   -3.9017 H   0  0  0  0  0  0  0  0  0  0  0  0
   45.6350   20.0431   -5.6876 H   0  0  0  0  0  0  0  0  0  0  0  0
   47.1782   21.8050   -5.4817 H   0  0  0  0  0  0  0  0  0  0  0  0
   49.0173   20.5179   -5.0019 H   0  0  0  0  0  0  0  0  0  0  0  0
   48.5799   18.7877   -6.4311 H   0  0  0  0  0  0  0  0  0  0  0  0
   47.7617   20.0262   -8.1792 H   0  0  0  0  0  0  0  0  0  0  0  0
   49.2194   21.7921   -8.0106 H   0  0  0  0  0  0  0  0  0  0  0  0
   51.1322   20.5544   -7.4900 H   0  0  0  0  0  0  0  0  0  0  0  0
   50.7097   18.6881   -8.9348 H   0  0  0  0  0  0  0  0  0  0  0  0
   52.3046   19.3674   -9.2015 H   0  0  0  0  0  0  0  0  0  0  0  0
   49.9011   19.9933  -10.7582 H   0  0  0  0  0  0  0  0  0  0  0  0
   52.6941   20.8010  -11.1283 H   0  0  0  0  0  0  0  0  0  0  0  0
   51.3631   21.8679  -10.6262 H   0  0  0  0  0  0  0  0  0  0  0  0
   50.2392   21.3763  -12.6845 H   0  0  0  0  0  0  0  0  0  0  0  0
   53.0534   22.2026  -13.0430 H   0  0  0  0  0  0  0  0  0  0  0  0
   51.7220   23.2592  -12.5262 H   0  0  0  0  0  0  0  0  0  0  0  0
   50.6326   22.7849  -14.5988 H   0  0  0  0  0  0  0  0  0  0  0  0
   53.4299   23.6001  -14.9569 H   0  0  0  0  0  0  0  0  0  0  0  0
   52.0956   24.6598  -14.4395 H   0  0  0  0  0  0  0  0  0  0  0  0
   51.0064   24.1882  -16.5173 H   0  0  0  0  0  0  0  0  0  0  0  0
   53.7946   24.9966  -16.8767 H   0  0  0  0  0  0  0  0  0  0  0  0
   52.4664   26.0595  -16.3555 H   0  0  0  0  0  0  0  0  0  0  0  0
   51.3495   25.5827  -18.4288 H   0  0  0  0  0  0  0  0  0  0  0  0
   54.1606   26.3936  -18.7889 H   0  0  0  0  0  0  0  0  0  0  0  0
   52.8309   27.4543  -18.2715 H   0  0  0  0  0  0  0  0  0  0  0  0
   51.7306   26.9611  -20.3229 H   0  0  0  0  0  0  0  0  0  0  0  0
   54.5347   27.8021  -20.6981 H   0  0  0  0  0  0  0  0  0  0  0  0
   53.2003   28.8578  -20.1827 H   0  0  0  0  0  0  0  0  0  0  0  0
   52.0095   28.3862  -22.3129 H   0  0  0  0  0  0  0  0  0  0  0  0
   53.3429   27.3329  -22.8256 H   0  0  0  0  0  0  0  0  0  0  0  0
   54.9157   29.2543  -22.6765 H   0  0  0  0  0  0  0  0  0  0  0  0
   53.5834   30.3059  -22.1639 H   0  0  0  0  0  0  0  0  0  0  0  0
   52.3908   29.8336  -24.2938 H   0  0  0  0  0  0  0  0  0  0  0  0
   53.7233   28.7818  -24.8066 H   0  0  0  0  0  0  0  0  0  0  0  0
   55.2961   30.7019  -24.6577 H   0  0  0  0  0  0  0  0  0  0  0  0
   53.9636   31.7537  -24.1449 H   0  0  0  0  0  0  0  0  0  0  0  0
   52.7708   31.2807  -26.2746 H   0  0  0  0  0  0  0  0  0  0  0  0
   54.1033   30.2289  -26.7874 H   0  0  0  0  0  0  0  0  0  0  0  0
   55.6761   32.1488  -26.6385 H   0  0  0  0  0  0  0  0  0  0  0  0
   54.3435   33.2006  -26.1257 H   0  0  0  0  0  0  0  0  0  0  0  0
   53.1505   32.7262  -28.2555 H   0  0  0  0  0  0  0  0  0  0  0  0
   54.4845   31.6763  -28.7683 H   0  0  0  0  0  0  0  0  0  0  0  0
   56.0547   33.5984  -28.6184 H   0  0  0  0  0  0  0  0  0  0  0  0
   54.7206   34.6482  -28.1056 H   0  0  0  0  0  0  0  0  0  0  0  0
   53.5289   34.1743  -30.2356 H   0  0  0  0  0  0  0  0  0  0  0  0
   54.8629   33.1244  -30.7484 H   0  0  0  0  0  0  0  0  0  0  0  0
   56.4331   35.0465  -30.5985 H   0  0  0  0  0  0  0  0  0  0  0  0
   55.0990   36.0963  -30.0857 H   0  0  0  0  0  0  0  0  0  0  0  0
   53.9073   35.6224  -32.2157 H   0  0  0  0  0  0  0  0  0  0  0  0
   55.2413   34.5726  -32.7286 H   0  0  0  0  0  0  0  0  0  0  0  0
   56.8115   36.4946  -32.5786 H   0  0  0  0  0  0  0  0  0  0  0  0
   55.4774   37.5444  -32.0658 H   0  0  0  0  0  0  0  0  0  0  0  0
   54.2855   37.0691  -34.1961 H   0  0  0  0  0  0  0  0  0  0  0  0
   55.6210   36.0212  -34.7089 H   0  0  0  0  0  0  0  0  0  0  0  0
   57.1886   37.9453  -34.5579 H   0  0  0  0  0  0  0  0  0  0  0  0
   55.8530   38.9931  -34.0451 H   0  0  0  0  0  0  0  0  0  0  0  0
   54.6624   38.5183  -36.1756 H   0  0  0  0  0  0  0  0  0  0  0  0
   55.9980   37.4705  -36.6885 H   0  0  0  0  0  0  0  0  0  0  0  0
   57.5656   39.3940  -36.5387 H   0  0  0  0  0  0  0  0  0  0  0  0
   56.2310   40.4422  -36.0236 H   0  0  0  0  0  0  0  0  0  0  0  0
   55.0379   39.9680  -38.1532 H   0  0  0  0  0  0  0  0  0  0  0  0
   56.3736   38.9220  -38.6682 H   0  0  0  0  0  0  0  0  0  0  0  0
   57.9400   40.8498  -38.5223 H   0  0  0  0  0  0  0  0  0  0  0  0
   56.6036   41.8963  -38.0071 H   0  0  0  0  0  0  0  0  0  0  0  0
   56.7538   40.3821  -40.6545 H   0  0  0  0  0  0  0  0  0  0  0  0
   57.0240   42.1243  -40.4330 H   0  0  0  0  0  0  0  0  0  0  0  0
   55.4149   41.4305  -40.1383 H   0  0  0  0  0  0  0  0  0  0  0  0
  1  2  2  0  0  0  0
  1 81  1  0  0  0  0
  1 82  1  0  0  0  0
  2  3  1  0  0  0  0
  2 83  1  0  0  0  0
  3  4  1  0  0  0  0
  3 84  1  0  0  0  0
  3 85  1  0  0  0  0
  4  5  1  0  0  0  0
  4 86  1  0  0  0  0
  5  6  1  0  0  0  0
  5 87  1  0  0  0  0
  6  7  1  0  0  0  0
  6 88  1  0  0  0  0
  7  8  1  0  0  0  0
  7 89  1  0  0  0  0
  8  9  1  0  0  0  0
  8 90  1  0  0  0  0
  9 10  1  0  0  0  0
  9 91  1  0  0  0  0
 10 11  1  0  0  0  0
 10 92  1  0  0  0  0
 11 12  1  0  0  0  0
 11 93  1  0  0  0  0
 12 13  1  0  0  0  0
 12 94  1  0  0  0  0
 13 14  1  0  0  0  0
 13 95  1  0  0  0  0
 14 15  1  0  0  0  0
 14 96  1  0  0  0  0
 15 16  1  0  0  0  0
 15 97  1  0  0  0  0
 16 17  1  0  0  0  0
 16 98  1  0  0  0  0
 17 18  1  0  0  0  0
 17 99  1  0  0  0  0
 18 19  1  0  0  0  0
 18100  1  0  0  0  0
 19 20  1  0  0  0  0
 19101  1  0  0  0  0
 20 21  1  0  0  0  0
 20102  1  0  0  0  0
 21 22  1  0  0  0  0
 21103  1  0  0  0  0
 22 23  1  0  0  0  0
 22104  1  0  0  0  0
 23 24  1  0  0  0  0
 23105  1  0  0  0  0
 24 25  1  0  0  0  0
 24106  1  0  0  0  0
 25 26  1  0  0  0  0
 25107  1  0  0  0  0
 26 27  1  0  0  0  0
 26108  1  0  0  0  0
 27 28  1  0  0  0  0
 27109  1  0  0  0  0
 28 29  1  0  0  0  0
 28110  1  0  0  0  0
 29 30  1  0  0  0  0
 29111  1  0  0  0  0
 30 31  1  0  0  0  0
 30112  1  0  0  0  0
 31 32  1  0  0  0  0
 31113  1  0  0  0  0
 32 33  1  0  0  0  0
 32114  1  0  0  0  0
 33 34  1  0  0  0  0
 33115  1  0  0  0  0
 34 35  1  0  0  0  0
 34116  1  0  0  0  0
 35 36  1  0  0  0  0
 35117  1  0  0  0  0
 36 37  1  0  0  0  0
 36118  1  0  0  0  0
 37 38  1  0  0  0  0
 37119  1  0  0  0  0
 38 39  1  0  0  0  0
 38120  1  0  0  0  0
 39 40  1  0  0  0  0
 39121  1  0  0  0  0
 40 41  1  0  0  0  0
 40122  1  0  0  0  0
 41 42  1  0  0  0  0
 41123  1  0  0  0  0
 42 43  1  0  0  0  0
 42124  1  0  0  0  0
 43 44  1  0  0  0  0
 43125  1  0  0  0  0
 44 45  1  0  0  0  0
 44126  1  0  0  0  0
 45 46  1  0  0  0  0
 45127  1  0  0  0  0
 46 47  1  0  0  0  0
 46128  1  0  0  0  0
 47 48  1  0  0  0  0
 47129  1  0  0  0  0
 48 49  1  0  0  0  0
 48130  1  0  0  0  0
 49 50  1  0  0  0  0
 49131  1  0  0  0  0
 49132  1  0  0  0  0
 50 51  1  0  0  0  0
 50133  1  0  0  0  0
 51 52  1  0  0  0  0
 51134  1  0  0  0  0
 51135  1  0  0  0  0
 52 53  1  0  0  0  0
 52136  1  0  0  0  0
 53 54  1  0  0  0  0
 53137  1  0  0  0  0
 53138  1  0  0  0  0
 54 55  1  0  0  0  0
 54139  1  0  0  0  0
 55 56  1  0  0  0  0
 55140  1  0  0  0  0
 55141  1  0  0  0  0
 56 57  1  0  0  0  0
 56142  1  0  0  0  0
 57 58  1  0  0  0  0
 57143  1  0  0  0  0
 57144  1  0  0  0  0
 58 59  1  0  0  0  0
 58145  1  0  0  0  0
 59 60  1  0  0  0  0
 59146  1  0  0  0  0
 59147  1  0  0  0  0
 60 61  1  0  0  0  0
 60148  1  0  0  0  0
 61 62  1  0  0  0  0
 61149  1  0  0  0  0
 61150  1  0  0  0  0
 62 63  1  0  0  0  0
 62151  1  0  0  0  0
 62152  1  0  0  0  0
 63 64  1  0  0  0  0
 63153  1  0  0  0  0
 63154  1  0  0  0  0
 64 65  1  0  0  0  0
 64155  1  0  0  0  0
 64156  1  0  0  0  0
 65 66  1  0  0  0  0
 65157  1  0  0  0  0
 65158  1  0  0  0  0
 66 67  1  0  0  0  0
 66159  1  0  0  0  0
 66160  1  0  0  0  0
 67 68  1  0  0  0  0
 67161  1  0  0  0  0
 67162  1  0  0  0  0
 68 69  1  0  0  0  0
 68163  1  0  0  0  0
 68164  1  0  0  0  0
 69 70  1  0  0  0  0
 69165  1  0  0  0  0
 69166  1  0  0  0  0
 70 71  1  0  0  0  0
 70167  1  0  0  0  0
 70168  1  0  0  0  0
 71 72  1  0  0  0  0
 71169  1  0  0  0  0
 71170  1  0  0  0  0
 72 73  1  0  0  0  0
 72171  1  0  0  0  0
 72172  1  0  0  0  0
 73 74  1  0  0  0  0
 73173  1  0  0  0  0
 73174  1  0  0  0  0
 74 75  1  0  0  0  0
 74175  1  0  0  0  0
 74176  1  0  0  0  0
 75 76  1  0  0  0  0
 75177  1  0  0  0  0
 75178  1  0  0  0  0
 76 77  1  0  0  0  0
 76179  1  0  0  0  0
 76180  1  0  0  0  0
 77 78  1  0  0  0  0
 77181  1  0  0  0  0
 77182  1  0  0  0  0
 78 79  1  0  0  0  0
 78183  1  0  0  0  0
 78184  1  0  0  0  0
 79 80  1  0  0  0  0
 79185  1  0  0  0  0
 79186  1  0  0  0  0
 80187  1  0  0  0  0
 80188  1  0  0  0  0
 80189  1  0  0  0  0
M  END
$$$$
