
 OpenBabel04232216463D

 56 57  0  0  0  0  0  0  0  0999 V2000
    3.0678   -2.0494   -3.3409 C   0  0  0  0  0  0  0  0  0  0  0  0
    4.4212   -2.4971   -3.7063 C   0  0  0  0  0  0  0  0  0  0  0  0
    5.7209   -2.0552   -3.3020 C   0  0  0  0  0  0  0  0  0  0  0  0
    6.2194   -3.0026   -4.1023 C   0  0  0  0  0  0  0  0  0  0  0  0
    7.5825   -3.5259   -4.5131 C   0  0  0  0  0  0  0  0  0  0  0  0
    8.7982   -2.8239   -3.9018 C   0  0  0  0  0  0  0  0  0  0  0  0
   10.1019   -3.4974   -4.3667 C   0  0  0  0  0  0  0  0  0  0  0  0
   11.4249   -2.8537   -3.9130 C   0  0  0  0  0  0  0  0  0  0  0  0
   11.7809   -2.8197   -2.4128 C   0  0  0  0  0  0  0  0  0  0  0  0
   11.8764   -4.1392   -1.6209 C   0  0  0  0  0  0  0  0  0  0  0  0
   13.0183   -5.1339   -1.9008 C   0  0  0  0  0  0  0  0  0  0  0  0
   14.5045   -4.8035   -1.5965 C   0  0  0  0  0  0  0  0  0  0  0  0
   15.0728   -4.2736   -0.2391 C   0  0  0  0  0  0  0  0  0  0  0  0
   15.2675   -5.1076    1.0757 C   0  0  0  0  0  0  0  0  0  0  0  0
   14.5640   -6.1813    1.3407 N   0  0  0  0  0  0  0  0  0  0  0  0
   14.8834   -6.6554    2.5973 N   0  0  0  0  0  0  0  0  0  0  0  0
   15.4715   -7.8080    2.7115 C   0  0  0  0  0  0  0  0  0  0  0  0
   15.1802   -9.0030    1.8640 C   0  0  0  0  0  0  0  0  0  0  0  0
   16.5748   -7.9432    3.7502 C   0  0  0  0  0  0  0  0  0  0  0  0
   16.4348   -7.0756    4.7661 C   0  0  0  0  0  0  0  0  0  0  0  0
   16.9701   -5.7040    4.6990 C   0  0  0  0  0  0  0  0  0  0  0  0
   17.4831   -5.3681    6.1060 C   0  0  0  0  0  0  0  0  0  0  0  0
   16.2986   -4.7853    3.9357 C   0  0  0  0  0  0  0  0  0  0  0  0
   16.6567   -4.4744    2.1841 S   0  0  0  0  0  0  0  0  0  0  0  0
    4.9125   -3.4028   -4.4755 N   0  0  0  0  0  0  0  0  0  0  0  0
    3.1299   -1.2201   -2.6327 H   0  0  0  0  0  0  0  0  0  0  0  0
    2.5190   -2.8766   -2.8797 H   0  0  0  0  0  0  0  0  0  0  0  0
    2.5223   -1.7230   -4.2314 H   0  0  0  0  0  0  0  0  0  0  0  0
    6.1439   -1.2842   -2.6474 H   0  0  0  0  0  0  0  0  0  0  0  0
    7.6201   -3.5240   -5.6115 H   0  0  0  0  0  0  0  0  0  0  0  0
    7.5968   -4.6063   -4.2955 H   0  0  0  0  0  0  0  0  0  0  0  0
    8.7311   -2.8515   -2.8078 H   0  0  0  0  0  0  0  0  0  0  0  0
    8.7910   -1.7700   -4.2009 H   0  0  0  0  0  0  0  0  0  0  0  0
   10.1004   -3.4753   -5.4662 H   0  0  0  0  0  0  0  0  0  0  0  0
   10.0934   -4.5549   -4.0830 H   0  0  0  0  0  0  0  0  0  0  0  0
   11.4242   -1.8132   -4.2721 H   0  0  0  0  0  0  0  0  0  0  0  0
   12.2402   -3.3498   -4.4519 H   0  0  0  0  0  0  0  0  0  0  0  0
   11.0251   -2.1980   -1.9189 H   0  0  0  0  0  0  0  0  0  0  0  0
   12.7308   -2.2853   -2.3056 H   0  0  0  0  0  0  0  0  0  0  0  0
   10.9290   -4.6747   -1.7718 H   0  0  0  0  0  0  0  0  0  0  0  0
   11.9127   -3.8891   -0.5549 H   0  0  0  0  0  0  0  0  0  0  0  0
   12.9578   -5.3869   -2.9713 H   0  0  0  0  0  0  0  0  0  0  0  0
   12.7758   -6.0665   -1.3765 H   0  0  0  0  0  0  0  0  0  0  0  0
   14.7812   -4.0509   -2.3519 H   0  0  0  0  0  0  0  0  0  0  0  0
   15.0788   -5.6995   -1.8722 H   0  0  0  0  0  0  0  0  0  0  0  0
   14.5580   -3.3438    0.0218 H   0  0  0  0  0  0  0  0  0  0  0  0
   16.0990   -3.9749   -0.5110 H   0  0  0  0  0  0  0  0  0  0  0  0
   14.9378   -8.7192    0.8402 H   0  0  0  0  0  0  0  0  0  0  0  0
   14.3187   -9.5093    2.3135 H   0  0  0  0  0  0  0  0  0  0  0  0
   16.0266   -9.6941    1.8657 H   0  0  0  0  0  0  0  0  0  0  0  0
   17.4546   -7.7837    3.1098 H   0  0  0  0  0  0  0  0  0  0  0  0
   16.0964   -7.4749    5.7246 H   0  0  0  0  0  0  0  0  0  0  0  0
   17.7693   -4.3191    6.2242 H   0  0  0  0  0  0  0  0  0  0  0  0
   18.3734   -5.9726    6.3362 H   0  0  0  0  0  0  0  0  0  0  0  0
   16.7416   -5.6014    6.8839 H   0  0  0  0  0  0  0  0  0  0  0  0
   15.2194   -4.7645    4.0946 H   0  0  0  0  0  0  0  0  0  0  0  0
  1  2  1  0  0  0  0
  1 26  1  0  0  0  0
  1 27  1  0  0  0  0
  1 28  1  0  0  0  0
  2  3  1  0  0  0  0
  2 25  2  0  0  0  0
  3  4  2  0  0  0  0
  3 29  1  0  0  0  0
  4  5  1  0  0  0  0
  4 25  1  0  0  0  0
  5  6  1  0  0  0  0
  5 30  1  0  0  0  0
  5 31  1  0  0  0  0
  6  7  1  0  0  0  0
  6 32  1  0  0  0  0
  6 33  1  0  0  0  0
  7  8  1  0  0  0  0
  7 34  1  0  0  0  0
  7 35  1  0  0  0  0
  8  9  1  0  0  0  0
  8 36  1  0  0  0  0
  8 37  1  0  0  0  0
  9 10  1  0  0  0  0
  9 38  1  0  0  0  0
  9 39  1  0  0  0  0
 10 11  1  0  0  0  0
 10 40  1  0  0  0  0
 10 41  1  0  0  0  0
 11 12  1  0  0  0  0
 11 42  1  0  0  0  0
 11 43  1  0  0  0  0
 12 13  1  0  0  0  0
 12 44  1  0  0  0  0
 12 45  1  0  0  0  0
 13 14  1  0  0  0  0
 13 46  1  0  0  0  0
 13 47  1  0  0  0  0
 14 15  2  0  0  0  0
 14 24  1  0  0  0  0
 15 16  1  0  0  0  0
 16 17  2  0  0  0  0
 17 18  1  0  0  0  0
 17 19  1  0  0  0  0
 18 48  1  0  0  0  0
 18 49  1  0  0  0  0
 18 50  1  0  0  0  0
 19 20  2  0  0  0  0
 19 51  1  0  0  0  0
 20 21  1  0  0  0  0
 20 52  1  0  0  0  0
 21 22  1  0  0  0  0
 21 23  2  0  0  0  0
 22 53  1  0  0  0  0
 22 54  1  0  0  0  0
 22 55  1  0  0  0  0
 23 24  1  0  0  0  0
 23 56  1  0  0  0  0
M  END
$$$$
