
 OpenBabel04232216443D

 52 53  0  0  1  0  0  0  0  0999 V2000
    6.6740    3.8898    0.0146 C   0  0  0  0  0  0  0  0  0  0  0  0
    5.3649    3.8922    0.8118 C   0  0  0  0  0  0  0  0  0  0  0  0
    5.3510    4.9519    1.9059 C   0  0  3  0  0  0  0  0  0  0  0  0
    6.1309    4.4563    3.1286 C   0  0  0  0  0  0  0  0  0  0  0  0
    6.0172    5.3139    4.3823 C   0  0  0  0  0  0  0  0  0  0  0  0
    7.2363    5.1179    5.2897 C   0  0  0  0  0  0  0  0  0  0  0  0
    7.0936    5.9609    6.5491 C   0  0  0  0  0  0  0  0  0  0  0  0
    6.3258    5.8380    1.3928 F   0  0  0  0  0  0  0  0  0  0  0  0
    4.1432    6.0007    2.1152 C   0  0  0  0  0  0  0  0  0  0  0  0
    4.6870    7.1544    1.9094 N   0  0  0  0  0  0  0  0  0  0  0  0
    3.9585    8.1605    1.4371 C   0  0  0  0  0  0  0  0  0  0  0  0
    4.0860    9.3561    2.0292 C   0  0  0  0  0  0  0  0  0  0  0  0
    5.3459    9.7092    2.8083 C   0  0  0  0  0  0  0  0  0  0  0  0
    6.6759    9.4883    2.0285 C   0  0  0  0  0  0  0  0  0  0  0  0
    6.8356   10.4228    0.8375 C   0  0  0  0  0  0  0  0  0  0  0  0
    2.7424    9.8163    2.3643 C   0  0  0  0  0  0  0  0  0  0  0  0
    2.2513    9.1216    3.4146 C   0  0  0  0  0  0  0  0  0  0  0  0
    1.4102    7.9249    3.3032 C   0  0  0  0  0  0  0  0  0  0  0  0
    1.5990    6.6440    2.8937 C   0  0  0  0  0  0  0  0  0  0  0  0
    2.6598    5.7097    2.3275 C   0  0  0  0  0  0  0  0  0  0  0  0
    2.1663    4.8184    1.4349 C   0  0  0  0  0  0  0  0  0  0  0  0
    2.2693    3.3722    1.6334 C   0  0  0  0  0  0  0  0  0  0  0  0
    3.2467    2.5755    1.1798 C   0  0  0  0  0  0  0  0  0  0  0  0
    4.4600    2.9353    0.5238 C   0  0  0  0  0  0  0  0  0  0  0  0
    7.1931    2.9351    0.1360 H   0  0  0  0  0  0  0  0  0  0  0  0
    7.4096    4.6258    0.3579 H   0  0  0  0  0  0  0  0  0  0  0  0
    6.4993    4.1123   -1.0403 H   0  0  0  0  0  0  0  0  0  0  0  0
    7.1929    4.4863    2.8287 H   0  0  0  0  0  0  0  0  0  0  0  0
    5.9203    3.4089    3.3613 H   0  0  0  0  0  0  0  0  0  0  0  0
    5.0983    5.0429    4.9135 H   0  0  0  0  0  0  0  0  0  0  0  0
    5.9566    6.3774    4.1300 H   0  0  0  0  0  0  0  0  0  0  0  0
    8.1460    5.4230    4.7613 H   0  0  0  0  0  0  0  0  0  0  0  0
    7.3502    4.0629    5.5577 H   0  0  0  0  0  0  0  0  0  0  0  0
    6.9393    7.0152    6.2956 H   0  0  0  0  0  0  0  0  0  0  0  0
    7.9957    5.8834    7.1641 H   0  0  0  0  0  0  0  0  0  0  0  0
    6.2392    5.6232    7.1438 H   0  0  0  0  0  0  0  0  0  0  0  0
    3.0821    7.8757    0.8691 H   0  0  0  0  0  0  0  0  0  0  0  0
    5.3996    9.0864    3.7133 H   0  0  0  0  0  0  0  0  0  0  0  0
    5.3023   10.7475    3.1393 H   0  0  0  0  0  0  0  0  0  0  0  0
    6.7799    8.4551    1.6751 H   0  0  0  0  0  0  0  0  0  0  0  0
    7.5220    9.6462    2.7096 H   0  0  0  0  0  0  0  0  0  0  0  0
    6.0768   10.2317    0.0736 H   0  0  0  0  0  0  0  0  0  0  0  0
    7.8172   10.2829    0.3715 H   0  0  0  0  0  0  0  0  0  0  0  0
    6.7595   11.4679    1.1529 H   0  0  0  0  0  0  0  0  0  0  0  0
    2.1503    9.8295    1.4420 H   0  0  0  0  0  0  0  0  0  0  0  0
    2.7479    9.1910    4.3765 H   0  0  0  0  0  0  0  0  0  0  0  0
    0.3941    8.1641    3.6354 H   0  0  0  0  0  0  0  0  0  0  0  0
    0.6823    6.0463    3.0138 H   0  0  0  0  0  0  0  0  0  0  0  0
    2.5300    4.9766    0.4132 H   0  0  0  0  0  0  0  0  0  0  0  0
    1.4006    2.8879    2.0859 H   0  0  0  0  0  0  0  0  0  0  0  0
    3.1114    1.4944    1.2604 H   0  0  0  0  0  0  0  0  0  0  0  0
    4.7128    2.2545   -0.3253 H   0  0  0  0  0  0  0  0  0  0  0  0
  1  2  1  0  0  0  0
  1 25  1  0  0  0  0
  1 26  1  0  0  0  0
  1 27  1  0  0  0  0
  2  3  1  0  0  0  0
  2 24  2  0  0  0  0
  3  4  1  0  0  0  0
  3  8  1  0  0  0  0
  3  9  1  0  0  0  0
  4  5  1  0  0  0  0
  4 28  1  0  0  0  0
  4 29  1  0  0  0  0
  5  6  1  0  0  0  0
  5 30  1  0  0  0  0
  5 31  1  0  0  0  0
  6  7  1  0  0  0  0
  6 32  1  0  0  0  0
  6 33  1  0  0  0  0
  7 34  1  0  0  0  0
  7 35  1  0  0  0  0
  7 36  1  0  0  0  0
  9 10  2  3  0  0  0
  9 20  1  0  0  0  0
 10 11  1  0  0  0  0
 11 12  2  3  0  0  0
 11 37  1  0  0  0  0
 12 13  1  0  0  0  0
 12 16  1  0  0  0  0
 13 14  1  0  0  0  0
 13 38  1  0  0  0  0
 13 39  1  0  0  0  0
 14 15  1  0  0  0  0
 14 40  1  0  0  0  0
 14 41  1  0  0  0  0
 15 42  1  0  0  0  0
 15 43  1  0  0  0  0
 15 44  1  0  0  0  0
 16 17  2  3  0  0  0
 16 45  1  0  0  0  0
 17 18  1  0  0  0  0
 17 46  1  0  0  0  0
 18 19  2  3  0  0  0
 18 47  1  0  0  0  0
 19 20  1  0  0  0  0
 19 48  1  0  0  0  0
 20 21  2  0  0  0  0
 21 22  1  0  0  0  0
 21 49  1  0  0  0  0
 22 23  2  0  0  0  0
 22 50  1  0  0  0  0
 23 24  1  0  0  0  0
 23 51  1  0  0  0  0
 24 52  1  0  0  0  0
M  END
$$$$
