
 OpenBabel04232216513D

 93 93  0  0  1  0  0  0  0  0999 V2000
   13.3925   -1.9176   -5.8429 C   0  0  0  0  0  0  0  0  0  0  0  0
   15.8198   -2.9386   -6.8283 C   0  0  0  0  0  0  0  0  0  0  0  0
   18.3505   -4.0519   -8.1389 C   0  0  3  0  0  0  0  0  0  0  0  0
   15.6563   -3.7234   -7.0495 C   0  0  0  0  0  0  0  0  0  0  0  0
   13.4499   -3.5958   -6.0852 C   0  0  0  0  0  0  0  0  0  0  0  0
   11.1114   -3.0458   -4.8595 C   0  0  0  0  0  0  0  0  0  0  0  0
    9.3815   -2.9783   -3.6696 C   0  0  0  0  0  0  0  0  0  0  0  0
   10.0282   -2.6305   -2.0788 C   0  0  0  0  0  0  0  0  0  0  0  0
   11.2255   -2.7361   -2.5725 C   0  0  0  0  0  0  0  0  0  0  0  0
   11.9282   -3.7892   -3.2031 C   0  0  0  0  0  0  0  0  0  0  0  0
   11.8674   -4.7224   -4.4423 C   0  0  0  0  0  0  0  0  0  0  0  0
   13.4666   -4.7819   -4.6291 C   0  0  0  0  0  0  0  0  0  0  0  0
   14.2931   -5.5645   -5.4240 C   0  0  0  0  0  0  0  0  0  0  0  0
   16.0849   -5.5978   -5.3028 C   0  0  0  0  0  0  0  0  0  0  0  0
   16.8602   -5.9544   -6.5126 C   0  0  0  0  0  0  0  0  0  0  0  0
   18.1077   -5.2132   -6.3489 C   0  0  0  0  0  0  0  0  0  0  0  0
   19.2883   -5.0597   -6.8421 C   0  0  0  0  0  0  0  0  0  0  0  0
   20.0968   -5.8363   -7.5584 C   0  0  0  0  0  0  0  0  0  0  0  0
   20.5836   -6.6924   -8.4548 C   0  0  0  0  0  0  0  0  0  0  0  0
   22.1477   -6.7618   -8.6038 C   0  0  0  0  0  0  0  0  0  0  0  0
   22.5938   -7.2557   -9.8193 C   0  0  0  0  0  0  0  0  0  0  0  0
   24.0777   -7.4751   -9.4012 C   0  0  0  0  0  0  0  0  0  0  0  0
   24.7918   -8.0728  -10.4121 C   0  0  0  0  0  0  0  0  0  0  0  0
   24.8815   -7.3471  -11.6213 C   0  0  0  0  0  0  0  0  0  0  0  0
   25.8139   -7.7680  -12.5817 C   0  0  0  0  0  0  0  0  0  0  0  0
   27.5792   -8.5644  -12.1602 C   0  0  0  0  0  0  0  0  0  0  0  0
   28.9043   -9.0185  -11.5949 C   0  0  0  0  0  0  0  0  0  0  0  0
   30.6694   -9.4866  -11.8013 C   0  0  0  0  0  0  0  0  0  0  0  0
   31.9648   -9.4755  -12.3410 C   0  0  0  0  0  0  0  0  0  0  0  0
   32.9902  -10.2046  -13.1469 C   0  0  0  0  0  0  0  0  0  0  0  0
   33.6401  -10.9060  -14.1149 C   0  0  0  0  0  0  0  0  0  0  0  0
   35.2497  -10.9581  -13.8308 C   0  0  0  0  0  0  0  0  0  0  0  0
   35.7604  -11.6167  -14.8944 C   0  0  0  0  0  0  0  0  0  0  0  0
   37.1405  -12.0033  -14.7853 C   0  0  0  0  0  0  0  0  0  0  0  0
   37.0928  -12.6676  -15.9946 C   0  0  0  0  0  0  0  0  0  0  0  0
   38.6556  -12.5089  -15.9602 C   0  0  0  0  0  0  0  0  0  0  0  0
   39.0464  -12.7477  -17.4061 C   0  0  0  0  0  0  0  0  0  0  0  0
   38.7728  -10.9763  -16.4867 C   0  0  0  0  0  0  0  0  0  0  0  0
   36.7996  -10.1030  -15.9148 C   0  0  0  0  0  0  0  0  0  0  0  0
   34.2482   -9.3009  -14.9841 C   0  0  0  0  0  0  0  0  0  0  0  0
   32.0662   -8.2934  -14.0296 C   0  0  0  0  0  0  0  0  0  0  0  0
   29.3405   -7.3710  -12.8858 C   0  0  0  0  0  0  0  0  0  0  0  0
   26.7299   -6.6564  -11.8478 C   0  0  0  0  0  0  0  0  0  0  0  0
   23.9662   -5.6986  -10.4683 C   0  0  0  0  0  0  0  0  0  0  0  0
   21.4539   -4.8956   -9.2971 C   0  0  0  0  0  0  0  0  0  0  0  0
   11.7012   -1.5839   -4.9695 H   0  0  0  0  0  0  0  0  0  0  0  0
   11.5728   -1.5585   -5.2821 H   0  0  0  0  0  0  0  0  0  0  0  0
   11.7443   -1.4247   -4.9428 H   0  0  0  0  0  0  0  0  0  0  0  0
   14.5354   -2.4591   -5.5793 H   0  0  0  0  0  0  0  0  0  0  0  0
   14.4842   -2.2765   -5.7232 H   0  0  0  0  0  0  0  0  0  0  0  0
   16.9926   -3.8523   -7.0585 H   0  0  0  0  0  0  0  0  0  0  0  0
   13.9818   -3.2401   -6.5747 H   0  0  0  0  0  0  0  0  0  0  0  0
   11.6745   -3.0234   -5.5366 H   0  0  0  0  0  0  0  0  0  0  0  0
    9.8145   -2.2380   -3.7395 H   0  0  0  0  0  0  0  0  0  0  0  0
    7.6051   -2.9753   -3.5409 H   0  0  0  0  0  0  0  0  0  0  0  0
    9.8821   -1.4473   -1.8770 H   0  0  0  0  0  0  0  0  0  0  0  0
   10.7458   -3.8402   -3.3596 H   0  0  0  0  0  0  0  0  0  0  0  0
   12.0374   -2.4347   -3.2151 H   0  0  0  0  0  0  0  0  0  0  0  0
   11.2430   -4.3996   -5.6228 H   0  0  0  0  0  0  0  0  0  0  0  0
   13.8275   -3.4704   -4.2315 H   0  0  0  0  0  0  0  0  0  0  0  0
   13.7333   -5.0684   -6.5046 H   0  0  0  0  0  0  0  0  0  0  0  0
   16.2147   -4.3424   -4.9582 H   0  0  0  0  0  0  0  0  0  0  0  0
   16.0577   -5.6003   -7.4377 H   0  0  0  0  0  0  0  0  0  0  0  0
   18.1706   -4.2603   -5.9078 H   0  0  0  0  0  0  0  0  0  0  0  0
   18.6739   -5.5802   -7.8027 H   0  0  0  0  0  0  0  0  0  0  0  0
   20.6702   -5.0694   -7.0851 H   0  0  0  0  0  0  0  0  0  0  0  0
   20.0877   -6.7846   -9.4686 H   0  0  0  0  0  0  0  0  0  0  0  0
   22.7331   -5.8597   -8.0100 H   0  0  0  0  0  0  0  0  0  0  0  0
   22.0491   -7.8389  -10.9016 H   0  0  0  0  0  0  0  0  0  0  0  0
   24.7776   -6.4817   -8.8877 H   0  0  0  0  0  0  0  0  0  0  0  0
   24.3983   -8.3755  -11.4019 H   0  0  0  0  0  0  0  0  0  0  0  0
   25.5826   -7.2229  -10.3763 H   0  0  0  0  0  0  0  0  0  0  0  0
   26.2454   -8.6399  -12.6678 H   0  0  0  0  0  0  0  0  0  0  0  0
   28.5473   -7.9885  -11.2241 H   0  0  0  0  0  0  0  0  0  0  0  0
   28.8684   -9.2959  -12.7801 H   0  0  0  0  0  0  0  0  0  0  0  0
   31.2917   -8.4370  -11.6379 H   0  0  0  0  0  0  0  0  0  0  0  0
   31.5584   -9.7510  -13.4685 H   0  0  0  0  0  0  0  0  0  0  0  0
   33.7134   -9.2731  -12.7949 H   0  0  0  0  0  0  0  0  0  0  0  0
   33.3010  -10.8644  -15.2873 H   0  0  0  0  0  0  0  0  0  0  0  0
   35.8652   -9.8689  -13.6252 H   0  0  0  0  0  0  0  0  0  0  0  0
   35.4198  -11.4376  -16.1447 H   0  0  0  0  0  0  0  0  0  0  0  0
   37.8755  -10.8612  -14.4788 H   0  0  0  0  0  0  0  0  0  0  0  0
   37.2776  -12.2275  -17.0701 H   0  0  0  0  0  0  0  0  0  0  0  0
   39.3447  -11.3519  -15.1312 H   0  0  0  0  0  0  0  0  0  0  0  0
   39.8395  -12.8037  -18.3184 H   0  0  0  0  0  0  0  0  0  0  0  0
   40.6264  -11.6744  -16.6306 H   0  0  0  0  0  0  0  0  0  0  0  0
   38.5293  -10.7222  -16.5171 H   0  0  0  0  0  0  0  0  0  0  0  0
   36.1607   -9.6367  -15.4882 H   0  0  0  0  0  0  0  0  0  0  0  0
   33.7741   -8.8208  -14.5612 H   0  0  0  0  0  0  0  0  0  0  0  0
   30.9951   -7.8293  -13.3392 H   0  0  0  0  0  0  0  0  0  0  0  0
   28.5187   -6.9624  -12.1657 H   0  0  0  0  0  0  0  0  0  0  0  0
   25.5967   -5.8952  -10.7650 H   0  0  0  0  0  0  0  0  0  0  0  0
   19.9521   -4.7480   -9.2325 H   0  0  0  0  0  0  0  0  0  0  0  0
  1  2  1  0  0  0  0
  1 46  1  0  0  0  0
  1 47  1  0  0  0  0
  1 48  1  0  0  0  0
  2  3  1  0  0  0  0
  2 49  1  0  0  0  0
  2 50  1  0  0  0  0
  3  4  1  0  0  0  0
  3 45  1  0  0  0  0
  3 51  1  0  0  0  0
  4  5  2  3  0  0  0
  4 52  1  0  0  0  0
  5  6  1  0  0  0  0
  5 53  1  0  0  0  0
  6  7  2  3  0  0  0
  6 54  1  0  0  0  0
  7  8  1  0  0  0  0
  7 55  1  0  0  0  0
  8  9  2  3  0  0  0
  8 56  1  0  0  0  0
  9 10  1  0  0  0  0
  9 57  1  0  0  0  0
 10 11  2  3  0  0  0
 10 58  1  0  0  0  0
 11 12  1  0  0  0  0
 11 59  1  0  0  0  0
 12 13  2  3  0  0  0
 12 60  1  0  0  0  0
 13 14  1  0  0  0  0
 13 61  1  0  0  0  0
 14 15  2  3  0  0  0
 14 62  1  0  0  0  0
 15 16  1  0  0  0  0
 15 63  1  0  0  0  0
 16 17  2  3  0  0  0
 16 64  1  0  0  0  0
 17 18  1  0  0  0  0
 17 65  1  0  0  0  0
 18 19  2  3  0  0  0
 18 66  1  0  0  0  0
 19 20  1  0  0  0  0
 19 67  1  0  0  0  0
 20 21  2  3  0  0  0
 20 68  1  0  0  0  0
 21 22  1  0  0  0  0
 21 69  1  0  0  0  0
 22 23  2  3  0  0  0
 22 70  1  0  0  0  0
 23 24  1  0  0  0  0
 23 71  1  0  0  0  0
 24 25  2  3  0  0  0
 24 72  1  0  0  0  0
 25 26  1  0  0  0  0
 25 73  1  0  0  0  0
 26 27  2  3  0  0  0
 26 74  1  0  0  0  0
 27 28  1  0  0  0  0
 27 75  1  0  0  0  0
 28 29  2  3  0  0  0
 28 76  1  0  0  0  0
 29 30  1  0  0  0  0
 29 77  1  0  0  0  0
 30 31  2  3  0  0  0
 30 78  1  0  0  0  0
 31 32  1  0  0  0  0
 31 79  1  0  0  0  0
 32 33  2  3  0  0  0
 32 80  1  0  0  0  0
 33 34  1  0  0  0  0
 33 81  1  0  0  0  0
 34 35  2  3  0  0  0
 34 82  1  0  0  0  0
 35 36  1  0  0  0  0
 35 83  1  0  0  0  0
 36 37  2  3  0  0  0
 36 84  1  0  0  0  0
 37 38  1  0  0  0  0
 37 85  1  0  0  0  0
 38 39  2  3  0  0  0
 38 86  1  0  0  0  0
 39 40  1  0  0  0  0
 39 87  1  0  0  0  0
 40 41  2  3  0  0  0
 40 88  1  0  0  0  0
 41 42  1  0  0  0  0
 41 89  1  0  0  0  0
 42 43  2  3  0  0  0
 42 90  1  0  0  0  0
 43 44  1  0  0  0  0
 43 91  1  0  0  0  0
 44 45  2  3  0  0  0
 44 92  1  0  0  0  0
 45 93  1  0  0  0  0
M  END
$$$$
