
 OpenBabel04232216443D

 49 52  0  0  1  0  0  0  0  0999 V2000
    2.8629   -1.8893   -2.3288 C   0  0  0  0  0  0  0  0  0  0  0  0
    4.1719   -1.6800   -1.5806 C   0  0  0  0  0  0  0  0  0  0  0  0
    3.8302   -0.8904   -0.4009 C   0  0  3  0  0  3  0  0  0  0  0  0
    3.8000   -1.7179    0.8519 C   0  0  0  0  0  0  0  0  0  0  0  0
    4.1250    0.5407   -0.4049 C   0  0  0  0  0  0  0  0  0  0  0  0
    5.5892    0.8192   -0.8443 C   0  0  0  0  0  0  0  0  0  0  0  0
    6.4238    0.3072    0.4134 C   0  0  0  0  0  0  0  0  0  0  0  0
    7.0305   -0.9784    0.2858 O   0  0  0  0  0  0  0  0  0  0  0  0
    7.5627   -1.4023    1.5377 C   0  0  0  0  0  0  0  0  0  0  0  0
    5.8222    2.3725   -0.9229 C   0  0  0  0  0  0  0  0  0  0  0  0
    7.3058    2.8033   -0.8106 C   0  0  0  0  0  0  0  0  0  0  0  0
    7.9526    3.7931    0.0431 C   0  0  0  0  0  0  0  0  0  0  0  0
    9.1062    3.1293   -0.0873 C   0  0  0  0  0  0  0  0  0  0  0  0
   10.4694    2.8749    0.3511 C   0  0  0  0  0  0  0  0  0  0  0  0
   11.1824    1.9054   -0.2661 C   0  0  0  0  0  0  0  0  0  0  0  0
   10.6223    1.1502   -1.3921 C   0  0  0  0  0  0  0  0  0  0  0  0
    9.3303    1.2829   -1.7702 C   0  0  0  0  0  0  0  0  0  0  0  0
    8.5049    2.2988   -1.1008 C   0  0  0  0  0  0  0  0  0  0  0  0
    5.7643    0.0811   -2.2160 C   0  0  0  0  0  0  0  0  0  0  0  0
    6.1164    0.6234   -3.4102 C   0  0  0  0  0  0  0  0  0  0  0  0
    6.2125   -0.0862   -4.6864 C   0  0  0  0  0  0  0  0  0  0  0  0
    6.6329   -1.3522   -4.8639 C   0  0  0  0  0  0  0  0  0  0  0  0
    6.9541   -2.2853   -3.8067 C   0  0  0  0  0  0  0  0  0  0  0  0
    6.2607   -2.3590   -2.6599 C   0  0  0  0  0  0  0  0  0  0  0  0
    5.3020   -1.3322   -2.2446 C   0  0  0  0  0  0  0  0  0  0  0  0
    1.9966   -1.6526   -1.6868 H   0  0  0  0  0  0  0  0  0  0  0  0
    2.7304   -2.9167   -2.6634 H   0  0  0  0  0  0  0  0  0  0  0  0
    2.7828   -1.1995   -3.1788 H   0  0  0  0  0  0  0  0  0  0  0  0
    3.2432   -1.2256    1.6513 H   0  0  0  0  0  0  0  0  0  0  0  0
    4.8067   -1.9370    1.2122 H   0  0  0  0  0  0  0  0  0  0  0  0
    3.3336   -2.6938    0.6638 H   0  0  0  0  0  0  0  0  0  0  0  0
    3.3534    1.1299   -0.9013 H   0  0  0  0  0  0  0  0  0  0  0  0
    5.7659    0.2953    1.2965 H   0  0  0  0  0  0  0  0  0  0  0  0
    7.2095    0.9956    0.7188 H   0  0  0  0  0  0  0  0  0  0  0  0
    8.1543   -2.3042    1.3781 H   0  0  0  0  0  0  0  0  0  0  0  0
    6.7480   -1.6380    2.2305 H   0  0  0  0  0  0  0  0  0  0  0  0
    8.1990   -0.6297    1.9820 H   0  0  0  0  0  0  0  0  0  0  0  0
    5.2761    2.8843   -0.1158 H   0  0  0  0  0  0  0  0  0  0  0  0
    5.3972    2.7890   -1.8435 H   0  0  0  0  0  0  0  0  0  0  0  0
    7.5925    4.6038    0.6659 H   0  0  0  0  0  0  0  0  0  0  0  0
   10.8605    3.4391    1.1994 H   0  0  0  0  0  0  0  0  0  0  0  0
   12.1826    1.6526    0.0713 H   0  0  0  0  0  0  0  0  0  0  0  0
   11.2703    0.4315   -1.8720 H   0  0  0  0  0  0  0  0  0  0  0  0
    8.9059    0.6743   -2.5602 H   0  0  0  0  0  0  0  0  0  0  0  0
    6.3218    1.6850   -3.5064 H   0  0  0  0  0  0  0  0  0  0  0  0
    5.9465    0.4886   -5.5727 H   0  0  0  0  0  0  0  0  0  0  0  0
    6.7138   -1.7563   -5.8701 H   0  0  0  0  0  0  0  0  0  0  0  0
    7.7562   -2.9929   -4.0009 H   0  0  0  0  0  0  0  0  0  0  0  0
    6.5279   -3.0959   -1.9064 H   0  0  0  0  0  0  0  0  0  0  0  0
  1  2  1  0  0  0  0
  1 26  1  0  0  0  0
  1 27  1  0  0  0  0
  1 28  1  0  0  0  0
  2  3  1  0  0  0  0
  2 25  2  0  0  0  0
  3  4  1  0  0  0  0
  3  5  1  0  0  0  0
  4 29  1  0  0  0  0
  4 30  1  0  0  0  0
  4 31  1  0  0  0  0
  5  6  2  0  0  0  0
  5 32  1  0  0  0  0
  6  7  1  0  0  0  0
  6 10  1  0  0  0  0
  6 19  1  0  0  0  0
  7  8  1  0  0  0  0
  7 33  1  0  0  0  0
  7 34  1  0  0  0  0
  8  9  1  0  0  0  0
  9 35  1  0  0  0  0
  9 36  1  0  0  0  0
  9 37  1  0  0  0  0
 10 11  1  0  0  0  0
 10 38  1  0  0  0  0
 10 39  1  0  0  0  0
 11 12  1  0  0  0  0
 11 18  2  0  0  0  0
 12 13  2  0  0  0  0
 12 40  1  0  0  0  0
 13 14  1  0  0  0  0
 13 18  1  0  0  0  0
 14 15  2  0  0  0  0
 14 41  1  0  0  0  0
 15 16  1  0  0  0  0
 15 42  1  0  0  0  0
 16 17  2  0  0  0  0
 16 43  1  0  0  0  0
 17 18  1  0  0  0  0
 17 44  1  0  0  0  0
 19 20  2  0  0  0  0
 19 25  1  0  0  0  0
 20 21  1  0  0  0  0
 20 45  1  0  0  0  0
 21 22  2  0  0  0  0
 21 46  1  0  0  0  0
 22 23  1  0  0  0  0
 22 47  1  0  0  0  0
 23 24  2  0  0  0  0
 23 48  1  0  0  0  0
 24 25  1  0  0  0  0
 24 49  1  0  0  0  0
M  END
$$$$
