
 OpenBabel04232217023D

 87 86  0  0  0  0  0  0  0  0999 V2000
    7.8051    0.0542   -3.2935 O   0  0  0  0  0  0  0  0  0  0  0  0
    7.3408    0.4514   -4.6109 O   0  0  0  0  0  0  0  0  0  0  0  0
    8.0367    1.9068   -5.0302 S   0  0  0  0  0  0  0  0  0  0  0  0
    7.2930    2.9936   -3.7534 C   0  0  0  0  0  0  0  0  0  0  0  0
    7.8228    4.4033   -3.9736 C   0  0  0  0  0  0  0  0  0  0  0  0
    7.1872    5.6285   -2.7561 S   0  0  0  0  0  0  0  0  0  0  0  0
    7.8056    4.9877   -0.8974 S   0  0  0  0  0  0  0  0  0  0  0  0
    9.8753    4.9889   -0.8894 S   0  0  0  0  0  0  0  0  0  0  0  0
   10.5545    6.9240   -1.2076 S   0  0  0  0  0  0  0  0  0  0  0  0
   12.6536    6.8879   -1.2214 S   0  0  0  0  0  0  0  0  0  0  0  0
   13.3429    8.8421   -1.5950 S   0  0  0  0  0  0  0  0  0  0  0  0
   15.4505    8.8282   -1.5919 S   0  0  0  0  0  0  0  0  0  0  0  0
   16.1408   10.7855   -1.9666 S   0  0  0  0  0  0  0  0  0  0  0  0
   18.2500   10.7725   -1.9641 S   0  0  0  0  0  0  0  0  0  0  0  0
   18.9405   12.7301   -2.3386 S   0  0  0  0  0  0  0  0  0  0  0  0
   21.0499   12.7171   -2.3361 S   0  0  0  0  0  0  0  0  0  0  0  0
   21.7405   14.6747   -2.7107 S   0  0  0  0  0  0  0  0  0  0  0  0
   23.8499   14.6617   -2.7082 S   0  0  0  0  0  0  0  0  0  0  0  0
   24.5405   16.6193   -3.0828 S   0  0  0  0  0  0  0  0  0  0  0  0
   26.6499   16.6063   -3.0803 S   0  0  0  0  0  0  0  0  0  0  0  0
   27.3405   18.5640   -3.4549 S   0  0  0  0  0  0  0  0  0  0  0  0
   29.4499   18.5509   -3.4524 S   0  0  0  0  0  0  0  0  0  0  0  0
   30.1405   20.5086   -3.8270 S   0  0  0  0  0  0  0  0  0  0  0  0
   32.2499   20.4956   -3.8245 S   0  0  0  0  0  0  0  0  0  0  0  0
   32.9405   22.4532   -4.1991 S   0  0  0  0  0  0  0  0  0  0  0  0
   35.0499   22.4402   -4.1966 S   0  0  0  0  0  0  0  0  0  0  0  0
   35.7405   24.3978   -4.5711 S   0  0  0  0  0  0  0  0  0  0  0  0
   37.8499   24.3848   -4.5687 S   0  0  0  0  0  0  0  0  0  0  0  0
   38.5405   26.3425   -4.9432 S   0  0  0  0  0  0  0  0  0  0  0  0
   40.6498   26.3294   -4.9407 S   0  0  0  0  0  0  0  0  0  0  0  0
   41.3405   28.2871   -5.3153 S   0  0  0  0  0  0  0  0  0  0  0  0
   43.4498   28.2741   -5.3128 S   0  0  0  0  0  0  0  0  0  0  0  0
   44.1405   30.2317   -5.6874 S   0  0  0  0  0  0  0  0  0  0  0  0
   46.2498   30.2187   -5.6849 S   0  0  0  0  0  0  0  0  0  0  0  0
   46.9405   32.1763   -6.0595 S   0  0  0  0  0  0  0  0  0  0  0  0
   49.0498   32.1633   -6.0570 S   0  0  0  0  0  0  0  0  0  0  0  0
   49.7404   34.1209   -6.4316 S   0  0  0  0  0  0  0  0  0  0  0  0
   51.8498   34.1079   -6.4291 S   0  0  0  0  0  0  0  0  0  0  0  0
   52.5404   36.0656   -6.8037 S   0  0  0  0  0  0  0  0  0  0  0  0
   54.6498   36.0526   -6.8012 S   0  0  0  0  0  0  0  0  0  0  0  0
   55.3404   38.0102   -7.1758 S   0  0  0  0  0  0  0  0  0  0  0  0
   57.4498   37.9972   -7.1733 S   0  0  0  0  0  0  0  0  0  0  0  0
   58.1404   39.9548   -7.5478 S   0  0  0  0  0  0  0  0  0  0  0  0
   60.2498   39.9418   -7.5454 S   0  0  0  0  0  0  0  0  0  0  0  0
   60.9404   41.8994   -7.9199 S   0  0  0  0  0  0  0  0  0  0  0  0
   63.0498   41.8864   -7.9174 S   0  0  0  0  0  0  0  0  0  0  0  0
   63.7404   43.8441   -8.2920 S   0  0  0  0  0  0  0  0  0  0  0  0
   65.8498   43.8311   -8.2895 S   0  0  0  0  0  0  0  0  0  0  0  0
   66.5404   45.7887   -8.6641 S   0  0  0  0  0  0  0  0  0  0  0  0
   68.6498   45.7757   -8.6616 S   0  0  0  0  0  0  0  0  0  0  0  0
   69.3404   47.7333   -9.0362 S   0  0  0  0  0  0  0  0  0  0  0  0
   71.4498   47.7203   -9.0337 S   0  0  0  0  0  0  0  0  0  0  0  0
   72.1404   49.6779   -9.4083 S   0  0  0  0  0  0  0  0  0  0  0  0
   74.2498   49.6649   -9.4058 S   0  0  0  0  0  0  0  0  0  0  0  0
   74.9404   51.6226   -9.7804 S   0  0  0  0  0  0  0  0  0  0  0  0
   77.0497   51.6095   -9.7779 S   0  0  0  0  0  0  0  0  0  0  0  0
   77.7404   53.5672  -10.1525 S   0  0  0  0  0  0  0  0  0  0  0  0
   79.8497   53.5542  -10.1500 S   0  0  0  0  0  0  0  0  0  0  0  0
   80.5404   55.5118  -10.5245 S   0  0  0  0  0  0  0  0  0  0  0  0
   82.6497   55.4988  -10.5221 S   0  0  0  0  0  0  0  0  0  0  0  0
   83.3404   57.4564  -10.8966 S   0  0  0  0  0  0  0  0  0  0  0  0
   85.4497   57.4434  -10.8941 S   0  0  0  0  0  0  0  0  0  0  0  0
   86.1403   59.4011  -11.2687 S   0  0  0  0  0  0  0  0  0  0  0  0
   88.2497   59.3880  -11.2662 S   0  0  0  0  0  0  0  0  0  0  0  0
   88.9403   61.3457  -11.6408 S   0  0  0  0  0  0  0  0  0  0  0  0
   91.0497   61.3327  -11.6383 S   0  0  0  0  0  0  0  0  0  0  0  0
   91.7403   63.2903  -12.0129 S   0  0  0  0  0  0  0  0  0  0  0  0
   93.8497   63.2773  -12.0104 S   0  0  0  0  0  0  0  0  0  0  0  0
   94.5403   65.2349  -12.3850 S   0  0  0  0  0  0  0  0  0  0  0  0
   96.6497   65.2219  -12.3825 S   0  0  0  0  0  0  0  0  0  0  0  0
   97.3403   67.1795  -12.7571 S   0  0  0  0  0  0  0  0  0  0  0  0
   99.4497   67.1665  -12.7546 S   0  0  0  0  0  0  0  0  0  0  0  0
  100.1402   69.1241  -13.1291 S   0  0  0  0  0  0  0  0  0  0  0  0
  102.2494   69.1110  -13.1266 S   0  0  0  0  0  0  0  0  0  0  0  0
  102.9395   71.0682  -13.5012 S   0  0  0  0  0  0  0  0  0  0  0  0
  105.0468   71.0542  -13.4981 S   0  0  0  0  0  0  0  0  0  0  0  0
  105.7337   73.0084  -13.8723 S   0  0  0  0  0  0  0  0  0  0  0  0
  107.8302   72.9762  -13.8861 S   0  0  0  0  0  0  0  0  0  0  0  0
  108.5153   74.9192  -14.1934 S   0  0  0  0  0  0  0  0  0  0  0  0
  110.5963   74.8678  -14.2335 S   0  0  0  0  0  0  0  0  0  0  0  0
  111.2064   74.2871  -12.3557 S   0  0  0  0  0  0  0  0  0  0  0  0
    7.3136   -0.8312   -3.3006 H   0  0  0  0  0  0  0  0  0  0  0  0
    7.5817    2.6345   -2.7568 H   0  0  0  0  0  0  0  0  0  0  0  0
    6.1978    2.9781   -3.8270 H   0  0  0  0  0  0  0  0  0  0  0  0
    7.5489    4.7630   -4.9701 H   0  0  0  0  0  0  0  0  0  0  0  0
    8.9151    4.4359   -3.9277 H   0  0  0  0  0  0  0  0  0  0  0  0
  112.5522   74.2902  -12.4555 H   0  0  0  0  0  0  0  0  0  0  0  0
  1  2  1  0  0  0  0
  1 82  1  0  0  0  0
  2  3  1  0  0  0  0
  3  4  1  0  0  0  0
  4  5  1  0  0  0  0
  4 83  1  0  0  0  0
  4 84  1  0  0  0  0
  5  6  1  0  0  0  0
  5 85  1  0  0  0  0
  5 86  1  0  0  0  0
  6  7  1  0  0  0  0
  7  8  1  0  0  0  0
  8  9  1  0  0  0  0
  9 10  1  0  0  0  0
 10 11  1  0  0  0  0
 11 12  1  0  0  0  0
 12 13  1  0  0  0  0
 13 14  1  0  0  0  0
 14 15  1  0  0  0  0
 15 16  1  0  0  0  0
 16 17  1  0  0  0  0
 17 18  1  0  0  0  0
 18 19  1  0  0  0  0
 19 20  1  0  0  0  0
 20 21  1  0  0  0  0
 21 22  1  0  0  0  0
 22 23  1  0  0  0  0
 23 24  1  0  0  0  0
 24 25  1  0  0  0  0
 25 26  1  0  0  0  0
 26 27  1  0  0  0  0
 27 28  1  0  0  0  0
 28 29  1  0  0  0  0
 29 30  1  0  0  0  0
 30 31  1  0  0  0  0
 31 32  1  0  0  0  0
 32 33  1  0  0  0  0
 33 34  1  0  0  0  0
 34 35  1  0  0  0  0
 35 36  1  0  0  0  0
 36 37  1  0  0  0  0
 37 38  1  0  0  0  0
 38 39  1  0  0  0  0
 39 40  1  0  0  0  0
 40 41  1  0  0  0  0
 41 42  1  0  0  0  0
 42 43  1  0  0  0  0
 43 44  1  0  0  0  0
 44 45  1  0  0  0  0
 45 46  1  0  0  0  0
 46 47  1  0  0  0  0
 47 48  1  0  0  0  0
 48 49  1  0  0  0  0
 49 50  1  0  0  0  0
 50 51  1  0  0  0  0
 51 52  1  0  0  0  0
 52 53  1  0  0  0  0
 53 54  1  0  0  0  0
 54 55  1  0  0  0  0
 55 56  1  0  0  0  0
 56 57  1  0  0  0  0
 57 58  1  0  0  0  0
 58 59  1  0  0  0  0
 59 60  1  0  0  0  0
 60 61  1  0  0  0  0
 61 62  1  0  0  0  0
 62 63  1  0  0  0  0
 63 64  1  0  0  0  0
 64 65  1  0  0  0  0
 65 66  1  0  0  0  0
 66 67  1  0  0  0  0
 67 68  1  0  0  0  0
 68 69  1  0  0  0  0
 69 70  1  0  0  0  0
 70 71  1  0  0  0  0
 71 72  1  0  0  0  0
 72 73  1  0  0  0  0
 73 74  1  0  0  0  0
 74 75  1  0  0  0  0
 75 76  1  0  0  0  0
 76 77  1  0  0  0  0
 77 78  1  0  0  0  0
 78 79  1  0  0  0  0
 79 80  1  0  0  0  0
 80 81  1  0  0  0  0
 81 87  1  0  0  0  0
M  END
$$$$
