
 OpenBabel04232216593D

229229  0  0  1  0  0  0  0  0999 V2000
    1.1224   -0.0764   -0.1248 O   0  0  0  0  0  0  0  0  0  0  0  0
    2.2989   -0.0219    0.0267 C   0  0  0  0  0  0  0  0  0  0  0  0
    3.4831   -0.7867   -0.0585 C   0  0  0  0  0  0  0  0  0  0  0  0
    3.5055    0.7316    0.0140 C   0  0  3  0  0  3  0  0  0  0  0  0
    3.9287    1.4833    1.2325 C   0  0  0  0  0  0  0  0  0  0  0  0
    3.8454    2.9928    0.9948 C   0  0  0  0  0  0  0  0  0  0  0  0
    4.2845    3.7728    2.2321 C   0  0  0  0  0  0  0  0  0  0  0  0
    4.1973    5.2728    1.9820 C   0  0  0  0  0  0  0  0  0  0  0  0
    4.6349    6.0419    3.2187 C   0  0  0  0  0  0  0  0  0  0  0  0
    4.5454    7.5366    2.9641 C   0  0  0  0  0  0  0  0  0  0  0  0
    4.9807    8.3010    4.2010 C   0  0  0  0  0  0  0  0  0  0  0  0
    4.8906    9.7937    3.9447 C   0  0  0  0  0  0  0  0  0  0  0  0
    5.3257   10.5567    5.1814 C   0  0  0  0  0  0  0  0  0  0  0  0
    5.2355   12.0488    4.9247 C   0  0  0  0  0  0  0  0  0  0  0  0
    5.6706   12.8113    6.1613 C   0  0  0  0  0  0  0  0  0  0  0  0
    5.5804   14.3033    5.9045 C   0  0  0  0  0  0  0  0  0  0  0  0
    6.0174   15.0658    7.1404 C   0  0  0  0  0  0  0  0  0  0  0  0
    5.9271   16.5576    6.8836 C   0  0  0  0  0  0  0  0  0  0  0  0
    6.3641   17.3202    8.1194 C   0  0  0  0  0  0  0  0  0  0  0  0
    6.2739   18.8120    7.8626 C   0  0  0  0  0  0  0  0  0  0  0  0
    6.7109   19.5745    9.0985 C   0  0  0  0  0  0  0  0  0  0  0  0
    6.6206   21.0664    8.8417 C   0  0  0  0  0  0  0  0  0  0  0  0
    7.0576   21.8289   10.0776 C   0  0  0  0  0  0  0  0  0  0  0  0
    6.9673   23.3208    9.8208 C   0  0  0  0  0  0  0  0  0  0  0  0
    7.4044   24.0833   11.0567 C   0  0  0  0  0  0  0  0  0  0  0  0
    7.3141   25.5752   10.7999 C   0  0  0  0  0  0  0  0  0  0  0  0
    7.7530   26.3377   12.0351 C   0  0  0  0  0  0  0  0  0  0  0  0
    7.6627   27.8295   11.7783 C   0  0  0  0  0  0  0  0  0  0  0  0
    8.0998   28.5920   13.0142 C   0  0  0  0  0  0  0  0  0  0  0  0
    8.0095   30.0839   12.7573 C   0  0  0  0  0  0  0  0  0  0  0  0
    8.4484   30.8464   13.9926 C   0  0  0  0  0  0  0  0  0  0  0  0
    8.3581   32.3383   13.7358 C   0  0  0  0  0  0  0  0  0  0  0  0
    8.7952   33.1008   14.9716 C   0  0  0  0  0  0  0  0  0  0  0  0
    8.7030   34.5927   14.7155 C   0  0  0  0  0  0  0  0  0  0  0  0
    9.1419   35.3552   15.9507 C   0  0  0  0  0  0  0  0  0  0  0  0
    9.0498   36.8471   15.6946 C   0  0  0  0  0  0  0  0  0  0  0  0
    9.4887   37.6096   16.9298 C   0  0  0  0  0  0  0  0  0  0  0  0
    9.3965   39.1014   16.6737 C   0  0  0  0  0  0  0  0  0  0  0  0
    9.8354   39.8639   17.9089 C   0  0  0  0  0  0  0  0  0  0  0  0
    9.7432   41.3558   17.6527 C   0  0  0  0  0  0  0  0  0  0  0  0
   10.1803   42.1183   18.8886 C   0  0  0  0  0  0  0  0  0  0  0  0
   10.0900   43.6102   18.6318 C   0  0  0  0  0  0  0  0  0  0  0  0
   10.5289   44.3727   19.8670 C   0  0  0  0  0  0  0  0  0  0  0  0
   10.4405   45.8646   19.6096 C   0  0  0  0  0  0  0  0  0  0  0  0
   10.8776   46.6271   20.8454 C   0  0  0  0  0  0  0  0  0  0  0  0
   10.7911   48.1189   20.5873 C   0  0  0  0  0  0  0  0  0  0  0  0
   11.2300   48.8814   21.8225 C   0  0  0  0  0  0  0  0  0  0  0  0
   11.1435   50.3733   21.5643 C   0  0  0  0  0  0  0  0  0  0  0  0
   11.5825   51.1358   22.7996 C   0  0  0  0  0  0  0  0  0  0  0  0
   11.4960   52.6277   22.5414 C   0  0  0  0  0  0  0  0  0  0  0  0
   11.9368   53.3902   23.7759 C   0  0  0  0  0  0  0  0  0  0  0  0
   11.8504   54.8820   23.5178 C   0  0  0  0  0  0  0  0  0  0  0  0
   12.2893   55.6445   24.7530 C   0  0  0  0  0  0  0  0  0  0  0  0
   12.2028   57.1364   24.4948 C   0  0  0  0  0  0  0  0  0  0  0  0
   12.6436   57.8989   25.7294 C   0  0  0  0  0  0  0  0  0  0  0  0
   12.5572   59.3908   25.4712 C   0  0  0  0  0  0  0  0  0  0  0  0
   12.9961   60.1533   26.7064 C   0  0  0  0  0  0  0  0  0  0  0  0
   12.9115   61.6451   26.4476 C   0  0  0  0  0  0  0  0  0  0  0  0
   13.3523   62.4076   27.6822 C   0  0  0  0  0  0  0  0  0  0  0  0
   13.2659   63.8995   27.4240 C   0  0  0  0  0  0  0  0  0  0  0  0
   13.7049   64.6620   28.6592 C   0  0  0  0  0  0  0  0  0  0  0  0
   13.6203   66.1539   28.4004 C   0  0  0  0  0  0  0  0  0  0  0  0
   14.0573   66.9164   29.6363 C   0  0  0  0  0  0  0  0  0  0  0  0
   13.9708   68.4082   29.3781 C   0  0  0  0  0  0  0  0  0  0  0  0
   14.4059   69.1707   30.6147 C   0  0  0  0  0  0  0  0  0  0  0  0
   14.3195   70.6626   30.3565 C   0  0  0  0  0  0  0  0  0  0  0  0
   14.7564   71.4251   31.5924 C   0  0  0  0  0  0  0  0  0  0  0  0
   14.6719   72.9170   31.3336 C   0  0  0  0  0  0  0  0  0  0  0  0
   15.1070   73.6795   32.5702 C   0  0  0  0  0  0  0  0  0  0  0  0
   15.0244   75.1714   32.3107 C   0  0  0  0  0  0  0  0  0  0  0  0
   15.4614   75.9340   33.5466 C   0  0  0  0  0  0  0  0  0  0  0  0
   15.3788   77.4260   33.2872 C   0  0  0  0  0  0  0  0  0  0  0  0
   15.8140   78.1889   34.5239 C   0  0  0  0  0  0  0  0  0  0  0  0
   15.7297   79.6817   34.2661 C   0  0  0  0  0  0  0  0  0  0  0  0
   16.1652   80.4456   35.5037 C   0  0  0  0  0  0  0  0  0  0  0  0
   16.0818   81.9400   35.2481 C   0  0  0  0  0  0  0  0  0  0  0  0
   16.5186   82.7119   36.4834 C   0  0  0  0  0  0  0  0  0  0  0  0
   16.4343   84.2025   36.2251 C   0  0  0  0  0  0  0  0  0  0  0  0
    3.8165   -1.1816   -1.0083 H   0  0  0  0  0  0  0  0  0  0  0  0
    3.8178   -1.3222    0.8166 H   0  0  0  0  0  0  0  0  0  0  0  0
    4.9653    1.2231    1.4804 H   0  0  0  0  0  0  0  0  0  0  0  0
    3.3155    1.2159    2.1027 H   0  0  0  0  0  0  0  0  0  0  0  0
    2.8170    3.2749    0.7373 H   0  0  0  0  0  0  0  0  0  0  0  0
    4.4792    3.2799    0.1456 H   0  0  0  0  0  0  0  0  0  0  0  0
    5.3145    3.5068    2.5005 H   0  0  0  0  0  0  0  0  0  0  0  0
    3.6476    3.5078    3.0847 H   0  0  0  0  0  0  0  0  0  0  0  0
    3.1683    5.5498    1.7218 H   0  0  0  0  0  0  0  0  0  0  0  0
    4.8333    5.5500    1.1323 H   0  0  0  0  0  0  0  0  0  0  0  0
    5.6649    5.7722    3.4828 H   0  0  0  0  0  0  0  0  0  0  0  0
    3.9993    5.7728    4.0714 H   0  0  0  0  0  0  0  0  0  0  0  0
    3.5164    7.8105    2.7008 H   0  0  0  0  0  0  0  0  0  0  0  0
    5.1829    7.8103    2.1144 H   0  0  0  0  0  0  0  0  0  0  0  0
    6.0101    8.0298    4.4654 H   0  0  0  0  0  0  0  0  0  0  0  0
    4.3435    8.0299    5.0518 H   0  0  0  0  0  0  0  0  0  0  0  0
    3.8613   10.0664    3.6810 H   0  0  0  0  0  0  0  0  0  0  0  0
    5.5280   10.0663    3.0946 H   0  0  0  0  0  0  0  0  0  0  0  0
    6.3551   10.2847    5.4454 H   0  0  0  0  0  0  0  0  0  0  0  0
    4.6884   10.2848    6.0318 H   0  0  0  0  0  0  0  0  0  0  0  0
    4.2061   12.3210    4.6608 H   0  0  0  0  0  0  0  0  0  0  0  0
    5.8728   12.3209    4.0744 H   0  0  0  0  0  0  0  0  0  0  0  0
    6.7000   12.5392    6.4252 H   0  0  0  0  0  0  0  0  0  0  0  0
    5.0333   12.5393    7.0117 H   0  0  0  0  0  0  0  0  0  0  0  0
    4.5507   14.5756    5.6419 H   0  0  0  0  0  0  0  0  0  0  0  0
    6.2166   14.5751    5.0532 H   0  0  0  0  0  0  0  0  0  0  0  0
    7.0470   14.7934    7.4029 H   0  0  0  0  0  0  0  0  0  0  0  0
    5.3811   14.7939    7.9916 H   0  0  0  0  0  0  0  0  0  0  0  0
    4.8974   16.8300    6.6210 H   0  0  0  0  0  0  0  0  0  0  0  0
    6.5633   16.8295    6.0323 H   0  0  0  0  0  0  0  0  0  0  0  0
    7.3938   17.0478    8.3820 H   0  0  0  0  0  0  0  0  0  0  0  0
    5.7279   17.0483    8.9707 H   0  0  0  0  0  0  0  0  0  0  0  0
    5.2442   19.0844    7.6001 H   0  0  0  0  0  0  0  0  0  0  0  0
    6.9101   19.0839    7.0114 H   0  0  0  0  0  0  0  0  0  0  0  0
    7.7405   19.3021    9.3611 H   0  0  0  0  0  0  0  0  0  0  0  0
    6.0746   19.3027    9.9498 H   0  0  0  0  0  0  0  0  0  0  0  0
    5.5909   21.3388    8.5792 H   0  0  0  0  0  0  0  0  0  0  0  0
    7.2568   21.3383    7.9905 H   0  0  0  0  0  0  0  0  0  0  0  0
    8.0873   21.5565   10.3401 H   0  0  0  0  0  0  0  0  0  0  0  0
    6.4214   21.5571   10.9289 H   0  0  0  0  0  0  0  0  0  0  0  0
    5.9377   23.5932    9.5583 H   0  0  0  0  0  0  0  0  0  0  0  0
    7.6036   23.5926    8.9695 H   0  0  0  0  0  0  0  0  0  0  0  0
    8.4340   23.8109   11.3192 H   0  0  0  0  0  0  0  0  0  0  0  0
    6.7682   23.8115   11.9080 H   0  0  0  0  0  0  0  0  0  0  0  0
    6.2841   25.8477   10.5387 H   0  0  0  0  0  0  0  0  0  0  0  0
    7.9492   25.8468    9.9477 H   0  0  0  0  0  0  0  0  0  0  0  0
    8.7830   26.0651   12.2962 H   0  0  0  0  0  0  0  0  0  0  0  0
    7.1179   26.0660   12.8872 H   0  0  0  0  0  0  0  0  0  0  0  0
    6.6331   28.1020   11.5158 H   0  0  0  0  0  0  0  0  0  0  0  0
    8.2990   28.1014   10.9270 H   0  0  0  0  0  0  0  0  0  0  0  0
    9.1294   28.3196   13.2767 H   0  0  0  0  0  0  0  0  0  0  0  0
    7.4636   28.3202   13.8654 H   0  0  0  0  0  0  0  0  0  0  0  0
    6.9796   30.3565   12.4962 H   0  0  0  0  0  0  0  0  0  0  0  0
    8.6446   30.3556   11.9052 H   0  0  0  0  0  0  0  0  0  0  0  0
    9.4784   30.5738   14.2537 H   0  0  0  0  0  0  0  0  0  0  0  0
    7.8133   30.5748   14.8447 H   0  0  0  0  0  0  0  0  0  0  0  0
    7.3285   32.6107   13.4733 H   0  0  0  0  0  0  0  0  0  0  0  0
    8.9944   32.6101   12.8845 H   0  0  0  0  0  0  0  0  0  0  0  0
    9.8253   32.8294   15.2333 H   0  0  0  0  0  0  0  0  0  0  0  0
    8.1599   32.8279   15.8233 H   0  0  0  0  0  0  0  0  0  0  0  0
    7.6726   34.8642   14.4552 H   0  0  0  0  0  0  0  0  0  0  0  0
    9.3372   34.8654   13.8630 H   0  0  0  0  0  0  0  0  0  0  0  0
   10.1724   35.0837   16.2110 H   0  0  0  0  0  0  0  0  0  0  0  0
    8.5077   35.0825   16.8032 H   0  0  0  0  0  0  0  0  0  0  0  0
    8.0193   37.1186   15.4343 H   0  0  0  0  0  0  0  0  0  0  0  0
    9.6839   37.1198   14.8421 H   0  0  0  0  0  0  0  0  0  0  0  0
   10.5191   37.3380   17.1901 H   0  0  0  0  0  0  0  0  0  0  0  0
    8.8545   37.3369   17.7823 H   0  0  0  0  0  0  0  0  0  0  0  0
    8.3660   39.3730   16.4134 H   0  0  0  0  0  0  0  0  0  0  0  0
   10.0307   39.3741   15.8212 H   0  0  0  0  0  0  0  0  0  0  0  0
   10.8659   39.5924   18.1692 H   0  0  0  0  0  0  0  0  0  0  0  0
    9.2012   39.5912   18.7614 H   0  0  0  0  0  0  0  0  0  0  0  0
    8.7131   41.6272   17.3911 H   0  0  0  0  0  0  0  0  0  0  0  0
   10.3785   41.6287   16.8011 H   0  0  0  0  0  0  0  0  0  0  0  0
   11.2099   41.8459   19.1511 H   0  0  0  0  0  0  0  0  0  0  0  0
    9.5441   41.8465   19.7399 H   0  0  0  0  0  0  0  0  0  0  0  0
    9.0600   43.8828   18.3707 H   0  0  0  0  0  0  0  0  0  0  0  0
   10.7251   43.8818   17.7797 H   0  0  0  0  0  0  0  0  0  0  0  0
   11.5584   44.0991   20.1290 H   0  0  0  0  0  0  0  0  0  0  0  0
    9.8929   44.1021   20.7188 H   0  0  0  0  0  0  0  0  0  0  0  0
    9.4114   46.1381   19.3462 H   0  0  0  0  0  0  0  0  0  0  0  0
   11.0777   46.1353   18.7586 H   0  0  0  0  0  0  0  0  0  0  0  0
   11.9062   46.3525   21.1096 H   0  0  0  0  0  0  0  0  0  0  0  0
   10.2395   46.3574   21.6960 H   0  0  0  0  0  0  0  0  0  0  0  0
    9.7621   48.3937   20.3244 H   0  0  0  0  0  0  0  0  0  0  0  0
   11.4281   48.3884   19.7358 H   0  0  0  0  0  0  0  0  0  0  0  0
   12.2590   48.6067   22.0853 H   0  0  0  0  0  0  0  0  0  0  0  0
   10.5931   48.6120   22.6740 H   0  0  0  0  0  0  0  0  0  0  0  0
   10.1146   50.6481   21.3015 H   0  0  0  0  0  0  0  0  0  0  0  0
   11.7805   50.6428   20.7129 H   0  0  0  0  0  0  0  0  0  0  0  0
   12.6114   50.8610   23.0623 H   0  0  0  0  0  0  0  0  0  0  0  0
   10.9456   50.8664   23.6511 H   0  0  0  0  0  0  0  0  0  0  0  0
   10.4668   52.9026   22.2800 H   0  0  0  0  0  0  0  0  0  0  0  0
   12.1319   52.8969   21.6890 H   0  0  0  0  0  0  0  0  0  0  0  0
   12.9661   53.1152   24.0374 H   0  0  0  0  0  0  0  0  0  0  0  0
   11.3010   53.1209   24.6283 H   0  0  0  0  0  0  0  0  0  0  0  0
   10.8214   55.1568   23.2550 H   0  0  0  0  0  0  0  0  0  0  0  0
   12.4873   55.1515   22.6663 H   0  0  0  0  0  0  0  0  0  0  0  0
   13.3183   55.3697   25.0158 H   0  0  0  0  0  0  0  0  0  0  0  0
   11.6524   55.3751   25.6045 H   0  0  0  0  0  0  0  0  0  0  0  0
   11.1736   57.4114   24.2334 H   0  0  0  0  0  0  0  0  0  0  0  0
   12.8387   57.4057   23.6425 H   0  0  0  0  0  0  0  0  0  0  0  0
   13.6729   57.6239   25.9908 H   0  0  0  0  0  0  0  0  0  0  0  0
   12.0078   57.6296   26.5818 H   0  0  0  0  0  0  0  0  0  0  0  0
   11.5282   59.6656   25.2085 H   0  0  0  0  0  0  0  0  0  0  0  0
   13.1941   59.6602   24.6197 H   0  0  0  0  0  0  0  0  0  0  0  0
   14.0246   59.8774   26.9701 H   0  0  0  0  0  0  0  0  0  0  0  0
   12.3583   59.8849   27.5576 H   0  0  0  0  0  0  0  0  0  0  0  0
   11.8828   61.9211   26.1854 H   0  0  0  0  0  0  0  0  0  0  0  0
   13.5483   61.9134   25.5956 H   0  0  0  0  0  0  0  0  0  0  0  0
   14.3816   62.1326   27.9436 H   0  0  0  0  0  0  0  0  0  0  0  0
   12.7165   62.1384   28.5346 H   0  0  0  0  0  0  0  0  0  0  0  0
   12.2370   64.1743   27.1612 H   0  0  0  0  0  0  0  0  0  0  0  0
   13.9028   64.1689   26.5725 H   0  0  0  0  0  0  0  0  0  0  0  0
   14.7333   64.3862   28.9229 H   0  0  0  0  0  0  0  0  0  0  0  0
   13.0670   64.3936   29.5103 H   0  0  0  0  0  0  0  0  0  0  0  0
   12.5921   66.4294   28.1354 H   0  0  0  0  0  0  0  0  0  0  0  0
   14.2592   66.4225   27.5502 H   0  0  0  0  0  0  0  0  0  0  0  0
   15.0859   66.6418   29.9005 H   0  0  0  0  0  0  0  0  0  0  0  0
   13.4192   66.6467   30.4869 H   0  0  0  0  0  0  0  0  0  0  0  0
   12.9425   68.6826   29.1126 H   0  0  0  0  0  0  0  0  0  0  0  0
   14.6100   68.6781   28.5285 H   0  0  0  0  0  0  0  0  0  0  0  0
   15.4343   68.8964   30.8803 H   0  0  0  0  0  0  0  0  0  0  0  0
   13.7668   68.9009   31.4644 H   0  0  0  0  0  0  0  0  0  0  0  0
   13.2908   70.9372   30.0923 H   0  0  0  0  0  0  0  0  0  0  0  0
   14.9576   70.9323   29.5060 H   0  0  0  0  0  0  0  0  0  0  0  0
   15.7846   71.1495   31.8575 H   0  0  0  0  0  0  0  0  0  0  0  0
   14.1175   71.1564   32.4426 H   0  0  0  0  0  0  0  0  0  0  0  0
   13.6441   73.1924   31.0672 H   0  0  0  0  0  0  0  0  0  0  0  0
   15.3120   73.1857   30.4843 H   0  0  0  0  0  0  0  0  0  0  0  0
   16.1344   73.4030   32.8374 H   0  0  0  0  0  0  0  0  0  0  0  0
   14.4661   73.4118   33.4191 H   0  0  0  0  0  0  0  0  0  0  0  0
   13.9967   75.4480   32.0447 H   0  0  0  0  0  0  0  0  0  0  0  0
   15.6643   75.4389   31.4608 H   0  0  0  0  0  0  0  0  0  0  0  0
   16.4890   75.6572   33.8125 H   0  0  0  0  0  0  0  0  0  0  0  0
   14.8215   75.6663   34.3964 H   0  0  0  0  0  0  0  0  0  0  0  0
   14.3514   77.7023   33.0198 H   0  0  0  0  0  0  0  0  0  0  0  0
   16.0197   77.6936   32.4381 H   0  0  0  0  0  0  0  0  0  0  0  0
   16.8417   77.9130   34.7902 H   0  0  0  0  0  0  0  0  0  0  0  0
   15.1738   77.9196   35.3730 H   0  0  0  0  0  0  0  0  0  0  0  0
   14.7018   79.9563   33.9990 H   0  0  0  0  0  0  0  0  0  0  0  0
   16.3695   79.9497   33.4162 H   0  0  0  0  0  0  0  0  0  0  0  0
   17.1927   80.1683   35.7690 H   0  0  0  0  0  0  0  0  0  0  0  0
   15.5247   80.1749   36.3520 H   0  0  0  0  0  0  0  0  0  0  0  0
   15.0534   82.2127   34.9806 H   0  0  0  0  0  0  0  0  0  0  0  0
   16.7195   82.2058   34.3958 H   0  0  0  0  0  0  0  0  0  0  0  0
   17.5470   82.4404   36.7492 H   0  0  0  0  0  0  0  0  0  0  0  0
   15.8800   82.4474   37.3343 H   0  0  0  0  0  0  0  0  0  0  0  0
   17.0825   84.4857   35.3896 H   0  0  0  0  0  0  0  0  0  0  0  0
   16.7479   84.7583   37.1118 H   0  0  0  0  0  0  0  0  0  0  0  0
   15.4082   84.4928   35.9773 H   0  0  0  0  0  0  0  0  0  0  0  0
  1  2  2  0  0  0  0
  2  3  1  0  0  0  0
  2  4  1  0  0  0  0
  3  4  1  0  0  0  0
  3 79  1  0  0  0  0
  3 80  1  0  0  0  0
  4  5  1  0  0  0  0
  5  6  1  0  0  0  0
  5 81  1  0  0  0  0
  5 82  1  0  0  0  0
  6  7  1  0  0  0  0
  6 83  1  0  0  0  0
  6 84  1  0  0  0  0
  7  8  1  0  0  0  0
  7 85  1  0  0  0  0
  7 86  1  0  0  0  0
  8  9  1  0  0  0  0
  8 87  1  0  0  0  0
  8 88  1  0  0  0  0
  9 10  1  0  0  0  0
  9 89  1  0  0  0  0
  9 90  1  0  0  0  0
 10 11  1  0  0  0  0
 10 91  1  0  0  0  0
 10 92  1  0  0  0  0
 11 12  1  0  0  0  0
 11 93  1  0  0  0  0
 11 94  1  0  0  0  0
 12 13  1  0  0  0  0
 12 95  1  0  0  0  0
 12 96  1  0  0  0  0
 13 14  1  0  0  0  0
 13 97  1  0  0  0  0
 13 98  1  0  0  0  0
 14 15  1  0  0  0  0
 14 99  1  0  0  0  0
 14100  1  0  0  0  0
 15 16  1  0  0  0  0
 15101  1  0  0  0  0
 15102  1  0  0  0  0
 16 17  1  0  0  0  0
 16103  1  0  0  0  0
 16104  1  0  0  0  0
 17 18  1  0  0  0  0
 17105  1  0  0  0  0
 17106  1  0  0  0  0
 18 19  1  0  0  0  0
 18107  1  0  0  0  0
 18108  1  0  0  0  0
 19 20  1  0  0  0  0
 19109  1  0  0  0  0
 19110  1  0  0  0  0
 20 21  1  0  0  0  0
 20111  1  0  0  0  0
 20112  1  0  0  0  0
 21 22  1  0  0  0  0
 21113  1  0  0  0  0
 21114  1  0  0  0  0
 22 23  1  0  0  0  0
 22115  1  0  0  0  0
 22116  1  0  0  0  0
 23 24  1  0  0  0  0
 23117  1  0  0  0  0
 23118  1  0  0  0  0
 24 25  1  0  0  0  0
 24119  1  0  0  0  0
 24120  1  0  0  0  0
 25 26  1  0  0  0  0
 25121  1  0  0  0  0
 25122  1  0  0  0  0
 26 27  1  0  0  0  0
 26123  1  0  0  0  0
 26124  1  0  0  0  0
 27 28  1  0  0  0  0
 27125  1  0  0  0  0
 27126  1  0  0  0  0
 28 29  1  0  0  0  0
 28127  1  0  0  0  0
 28128  1  0  0  0  0
 29 30  1  0  0  0  0
 29129  1  0  0  0  0
 29130  1  0  0  0  0
 30 31  1  0  0  0  0
 30131  1  0  0  0  0
 30132  1  0  0  0  0
 31 32  1  0  0  0  0
 31133  1  0  0  0  0
 31134  1  0  0  0  0
 32 33  1  0  0  0  0
 32135  1  0  0  0  0
 32136  1  0  0  0  0
 33 34  1  0  0  0  0
 33137  1  0  0  0  0
 33138  1  0  0  0  0
 34 35  1  0  0  0  0
 34139  1  0  0  0  0
 34140  1  0  0  0  0
 35 36  1  0  0  0  0
 35141  1  0  0  0  0
 35142  1  0  0  0  0
 36 37  1  0  0  0  0
 36143  1  0  0  0  0
 36144  1  0  0  0  0
 37 38  1  0  0  0  0
 37145  1  0  0  0  0
 37146  1  0  0  0  0
 38 39  1  0  0  0  0
 38147  1  0  0  0  0
 38148  1  0  0  0  0
 39 40  1  0  0  0  0
 39149  1  0  0  0  0
 39150  1  0  0  0  0
 40 41  1  0  0  0  0
 40151  1  0  0  0  0
 40152  1  0  0  0  0
 41 42  1  0  0  0  0
 41153  1  0  0  0  0
 41154  1  0  0  0  0
 42 43  1  0  0  0  0
 42155  1  0  0  0  0
 42156  1  0  0  0  0
 43 44  1  0  0  0  0
 43157  1  0  0  0  0
 43158  1  0  0  0  0
 44 45  1  0  0  0  0
 44159  1  0  0  0  0
 44160  1  0  0  0  0
 45 46  1  0  0  0  0
 45161  1  0  0  0  0
 45162  1  0  0  0  0
 46 47  1  0  0  0  0
 46163  1  0  0  0  0
 46164  1  0  0  0  0
 47 48  1  0  0  0  0
 47165  1  0  0  0  0
 47166  1  0  0  0  0
 48 49  1  0  0  0  0
 48167  1  0  0  0  0
 48168  1  0  0  0  0
 49 50  1  0  0  0  0
 49169  1  0  0  0  0
 49170  1  0  0  0  0
 50 51  1  0  0  0  0
 50171  1  0  0  0  0
 50172  1  0  0  0  0
 51 52  1  0  0  0  0
 51173  1  0  0  0  0
 51174  1  0  0  0  0
 52 53  1  0  0  0  0
 52175  1  0  0  0  0
 52176  1  0  0  0  0
 53 54  1  0  0  0  0
 53177  1  0  0  0  0
 53178  1  0  0  0  0
 54 55  1  0  0  0  0
 54179  1  0  0  0  0
 54180  1  0  0  0  0
 55 56  1  0  0  0  0
 55181  1  0  0  0  0
 55182  1  0  0  0  0
 56 57  1  0  0  0  0
 56183  1  0  0  0  0
 56184  1  0  0  0  0
 57 58  1  0  0  0  0
 57185  1  0  0  0  0
 57186  1  0  0  0  0
 58 59  1  0  0  0  0
 58187  1  0  0  0  0
 58188  1  0  0  0  0
 59 60  1  0  0  0  0
 59189  1  0  0  0  0
 59190  1  0  0  0  0
 60 61  1  0  0  0  0
 60191  1  0  0  0  0
 60192  1  0  0  0  0
 61 62  1  0  0  0  0
 61193  1  0  0  0  0
 61194  1  0  0  0  0
 62 63  1  0  0  0  0
 62195  1  0  0  0  0
 62196  1  0  0  0  0
 63 64  1  0  0  0  0
 63197  1  0  0  0  0
 63198  1  0  0  0  0
 64 65  1  0  0  0  0
 64199  1  0  0  0  0
 64200  1  0  0  0  0
 65 66  1  0  0  0  0
 65201  1  0  0  0  0
 65202  1  0  0  0  0
 66 67  1  0  0  0  0
 66203  1  0  0  0  0
 66204  1  0  0  0  0
 67 68  1  0  0  0  0
 67205  1  0  0  0  0
 67206  1  0  0  0  0
 68 69  1  0  0  0  0
 68207  1  0  0  0  0
 68208  1  0  0  0  0
 69 70  1  0  0  0  0
 69209  1  0  0  0  0
 69210  1  0  0  0  0
 70 71  1  0  0  0  0
 70211  1  0  0  0  0
 70212  1  0  0  0  0
 71 72  1  0  0  0  0
 71213  1  0  0  0  0
 71214  1  0  0  0  0
 72 73  1  0  0  0  0
 72215  1  0  0  0  0
 72216  1  0  0  0  0
 73 74  1  0  0  0  0
 73217  1  0  0  0  0
 73218  1  0  0  0  0
 74 75  1  0  0  0  0
 74219  1  0  0  0  0
 74220  1  0  0  0  0
 75 76  1  0  0  0  0
 75221  1  0  0  0  0
 75222  1  0  0  0  0
 76 77  1  0  0  0  0
 76223  1  0  0  0  0
 76224  1  0  0  0  0
 77 78  1  0  0  0  0
 77225  1  0  0  0  0
 77226  1  0  0  0  0
 78227  1  0  0  0  0
 78228  1  0  0  0  0
 78229  1  0  0  0  0
M  END
$$$$
