
 OpenBabel04232216493D

 63 64  0  0  1  0  0  0  0  0999 V2000
    6.4715   -4.2955    0.2663 C   0  0  0  0  0  0  0  0  0  0  0  0
    7.0782   -4.5789   -1.3327 C   0  0  3  0  0  0  0  0  0  0  0  0
    5.4740   -3.8174   -1.8997 C   0  0  0  0  0  0  0  0  0  0  0  0
    5.1254   -2.1632   -1.6814 C   0  0  0  0  0  0  0  0  0  0  0  0
    5.6288   -1.3502   -2.8531 C   0  0  0  0  0  0  0  0  0  0  0  0
    7.1072   -1.3376   -2.6563 C   0  0  0  0  0  0  0  0  0  0  0  0
    7.5008   -2.4899   -3.5378 C   0  0  0  0  0  0  0  0  0  0  0  0
    8.9312   -2.6933   -3.3262 C   0  0  0  0  0  0  0  0  0  0  0  0
    9.2001   -3.5905   -4.5158 C   0  0  0  0  0  0  0  0  0  0  0  0
   10.6001   -3.1893   -4.7083 C   0  0  0  0  0  0  0  0  0  0  0  0
   11.2272   -4.3531   -5.3001 C   0  0  0  0  0  0  0  0  0  0  0  0
   12.6898   -4.1372   -5.0037 C   0  0  0  0  0  0  0  0  0  0  0  0
   13.2406   -5.2572   -5.7323 C   0  0  0  0  0  0  0  0  0  0  0  0
   13.4434   -5.1821   -6.9502 O   0  0  0  0  0  0  0  0  0  0  0  0
   12.9887   -6.3885   -4.9319 N   0  0  0  0  0  0  0  0  0  0  0  0
   11.7566   -7.1168   -5.0820 C   0  0  0  0  0  0  0  0  0  0  0  0
   10.9747   -7.4760   -3.8847 C   0  0  0  0  0  0  0  0  0  0  0  0
   12.1285   -8.5954   -3.2973 C   0  0  0  0  0  0  0  0  0  0  0  0
   13.0887   -9.8489   -3.9801 C   0  0  0  0  0  0  0  0  0  0  0  0
   14.1089  -10.2384   -3.3481 O   0  0  0  0  0  0  0  0  0  0  0  0
   12.7900  -10.5385   -5.4183 C   0  0  0  0  0  0  0  0  0  0  0  0
   13.6699  -10.2319   -6.6417 C   0  0  0  0  0  0  0  0  0  0  0  0
   13.7337   -8.7264   -6.8461 C   0  0  0  0  0  0  0  0  0  0  0  0
   12.3436   -7.9606   -6.4659 C   0  0  0  0  0  0  0  0  0  0  0  0
    9.8594   -6.4176   -2.6682 C   0  0  0  0  0  0  0  0  0  0  0  0
    8.3860   -5.7484   -2.2141 C   0  0  0  0  0  0  0  0  0  0  0  0
    5.7069   -3.4738    0.2817 H   0  0  0  0  0  0  0  0  0  0  0  0
    7.1496   -3.8040    0.9932 H   0  0  0  0  0  0  0  0  0  0  0  0
    5.8191   -5.0744    0.7260 H   0  0  0  0  0  0  0  0  0  0  0  0
    7.6847   -3.6720   -1.2816 H   0  0  0  0  0  0  0  0  0  0  0  0
    5.2062   -4.0961   -2.9187 H   0  0  0  0  0  0  0  0  0  0  0  0
    4.6481   -4.2432   -1.2915 H   0  0  0  0  0  0  0  0  0  0  0  0
    5.5388   -1.7298   -0.7558 H   0  0  0  0  0  0  0  0  0  0  0  0
    4.0454   -1.9478   -1.6221 H   0  0  0  0  0  0  0  0  0  0  0  0
    5.2866   -0.3216   -2.9738 H   0  0  0  0  0  0  0  0  0  0  0  0
    5.2919   -1.8728   -3.7671 H   0  0  0  0  0  0  0  0  0  0  0  0
    7.4295   -1.5302   -1.6185 H   0  0  0  0  0  0  0  0  0  0  0  0
    7.5956   -0.4392   -2.9864 H   0  0  0  0  0  0  0  0  0  0  0  0
    7.2194   -2.2046   -4.5571 H   0  0  0  0  0  0  0  0  0  0  0  0
    7.0097   -3.4675   -3.4065 H   0  0  0  0  0  0  0  0  0  0  0  0
    9.2221   -3.0877   -2.4301 H   0  0  0  0  0  0  0  0  0  0  0  0
    9.4268   -1.6612   -3.4169 H   0  0  0  0  0  0  0  0  0  0  0  0
    8.6247   -3.4218   -5.4207 H   0  0  0  0  0  0  0  0  0  0  0  0
    9.0016   -4.6276   -4.2423 H   0  0  0  0  0  0  0  0  0  0  0  0
   10.6799   -2.2978   -5.3356 H   0  0  0  0  0  0  0  0  0  0  0  0
   11.0919   -3.0034   -3.7403 H   0  0  0  0  0  0  0  0  0  0  0  0
   10.9388   -4.5105   -6.3581 H   0  0  0  0  0  0  0  0  0  0  0  0
   10.8246   -5.2026   -4.7589 H   0  0  0  0  0  0  0  0  0  0  0  0
   12.8792   -4.2539   -3.9289 H   0  0  0  0  0  0  0  0  0  0  0  0
   13.0775   -3.1776   -5.3335 H   0  0  0  0  0  0  0  0  0  0  0  0
   13.4483   -6.3345   -4.0377 H   0  0  0  0  0  0  0  0  0  0  0  0
   12.0488   -8.7718   -2.2226 H   0  0  0  0  0  0  0  0  0  0  0  0
   13.0114   -7.9308   -3.2469 H   0  0  0  0  0  0  0  0  0  0  0  0
   11.7489  -10.3619   -5.7163 H   0  0  0  0  0  0  0  0  0  0  0  0
   12.8810  -11.6381   -5.2919 H   0  0  0  0  0  0  0  0  0  0  0  0
   13.2150  -10.6863   -7.5611 H   0  0  0  0  0  0  0  0  0  0  0  0
   14.6900  -10.6856   -6.6267 H   0  0  0  0  0  0  0  0  0  0  0  0
   13.9184   -8.5856   -7.9304 H   0  0  0  0  0  0  0  0  0  0  0  0
   14.6541   -8.3310   -6.3859 H   0  0  0  0  0  0  0  0  0  0  0  0
   11.5319   -8.3232   -7.0978 H   0  0  0  0  0  0  0  0  0  0  0  0
   12.6465   -7.1170   -7.0800 H   0  0  0  0  0  0  0  0  0  0  0  0
   10.6426   -6.0863   -1.9842 H   0  0  0  0  0  0  0  0  0  0  0  0
    8.9226   -5.3608   -1.2711 H   0  0  0  0  0  0  0  0  0  0  0  0
  1  2  1  0  0  0  0
  1 27  1  0  0  0  0
  1 28  1  0  0  0  0
  1 29  1  0  0  0  0
  2  3  1  0  0  0  0
  2 26  1  0  0  0  0
  2 30  1  0  0  0  0
  3  4  1  0  0  0  0
  3 31  1  0  0  0  0
  3 32  1  0  0  0  0
  4  5  1  0  0  0  0
  4 33  1  0  0  0  0
  4 34  1  0  0  0  0
  5  6  1  0  0  0  0
  5 35  1  0  0  0  0
  5 36  1  0  0  0  0
  6  7  1  0  0  0  0
  6 37  1  0  0  0  0
  6 38  1  0  0  0  0
  7  8  1  0  0  0  0
  7 39  1  0  0  0  0
  7 40  1  0  0  0  0
  8  9  1  0  0  0  0
  8 41  1  0  0  0  0
  8 42  1  0  0  0  0
  9 10  1  0  0  0  0
  9 43  1  0  0  0  0
  9 44  1  0  0  0  0
 10 11  1  0  0  0  0
 10 45  1  0  0  0  0
 10 46  1  0  0  0  0
 11 12  1  0  0  0  0
 11 47  1  0  0  0  0
 11 48  1  0  0  0  0
 12 13  1  0  0  0  0
 12 49  1  0  0  0  0
 12 50  1  0  0  0  0
 13 14  2  0  0  0  0
 13 15  1  0  0  0  0
 15 16  1  0  0  0  0
 15 51  1  0  0  0  0
 16 17  2  0  0  0  0
 16 24  1  0  0  0  0
 17 18  1  0  0  0  0
 17 25  1  0  0  0  0
 18 19  1  0  0  0  0
 18 52  1  0  0  0  0
 18 53  1  0  0  0  0
 19 20  2  0  0  0  0
 19 21  1  0  0  0  0
 21 22  1  0  0  0  0
 21 54  1  0  0  0  0
 21 55  1  0  0  0  0
 22 23  1  0  0  0  0
 22 56  1  0  0  0  0
 22 57  1  0  0  0  0
 23 24  1  0  0  0  0
 23 58  1  0  0  0  0
 23 59  1  0  0  0  0
 24 60  1  0  0  0  0
 24 61  1  0  0  0  0
 25 26  2  3  0  0  0
 25 62  1  0  0  0  0
 26 63  1  0  0  0  0
M  END
$$$$
