
 OpenBabel04232216423D

174173  0  0  0  0  0  0  0  0999 V2000
   23.3702  -21.5438  -11.6978 C   0  0  0  0  0  0  0  0  0  0  0  0
   24.1880  -21.0412  -10.7659 C   0  0  0  0  0  0  0  0  0  0  0  0
   25.0928  -21.9109   -9.9651 C   0  0  0  0  0  0  0  0  0  0  0  0
   24.7854  -21.7786   -8.5413 N   0  0  0  0  0  0  0  0  0  0  0  0
   25.6634  -22.6205   -7.8015 N   0  0  0  0  0  0  0  0  0  0  0  0
   25.3751  -22.5127   -6.4070 N   0  0  0  0  0  0  0  0  0  0  0  0
   26.2506  -23.3578   -5.6623 N   0  0  0  0  0  0  0  0  0  0  0  0
   27.6150  -22.9498   -5.8511 N   0  0  0  0  0  0  0  0  0  0  0  0
   27.7944  -21.5918   -5.4871 N   0  0  0  0  0  0  0  0  0  0  0  0
   27.5120  -21.4460   -4.0835 N   0  0  0  0  0  0  0  0  0  0  0  0
   28.3632  -22.3060   -3.3260 N   0  0  0  0  0  0  0  0  0  0  0  0
   29.7350  -21.9463   -3.5443 N   0  0  0  0  0  0  0  0  0  0  0  0
   29.9328  -20.5773   -3.1804 N   0  0  0  0  0  0  0  0  0  0  0  0
   29.6250  -20.3974   -1.7935 N   0  0  0  0  0  0  0  0  0  0  0  0
   30.4702  -21.2615   -1.0143 N   0  0  0  0  0  0  0  0  0  0  0  0
   31.8537  -20.9282   -1.2444 N   0  0  0  0  0  0  0  0  0  0  0  0
   32.0622  -19.5591   -0.9024 N   0  0  0  0  0  0  0  0  0  0  0  0
   31.7484  -19.3766    0.4806 N   0  0  0  0  0  0  0  0  0  0  0  0
   32.5679  -20.2537    1.2761 N   0  0  0  0  0  0  0  0  0  0  0  0
   33.9427  -19.9301    1.0590 N   0  0  0  0  0  0  0  0  0  0  0  0
   34.2010  -18.5607    1.3983 N   0  0  0  0  0  0  0  0  0  0  0  0
   33.8941  -18.3526    2.7861 N   0  0  0  0  0  0  0  0  0  0  0  0
   34.6824  -19.2305    3.6004 N   0  0  0  0  0  0  0  0  0  0  0  0
   36.0612  -18.9345    3.3571 N   0  0  0  0  0  0  0  0  0  0  0  0
   36.3448  -17.5595    3.6935 N   0  0  0  0  0  0  0  0  0  0  0  0
   36.0072  -17.3344    5.0653 N   0  0  0  0  0  0  0  0  0  0  0  0
   36.7990  -18.1855    5.9057 N   0  0  0  0  0  0  0  0  0  0  0  0
   38.1826  -17.9277    5.6649 N   0  0  0  0  0  0  0  0  0  0  0  0
   38.4762  -16.5496    5.9736 N   0  0  0  0  0  0  0  0  0  0  0  0
   38.1555  -16.2952    7.3533 N   0  0  0  0  0  0  0  0  0  0  0  0
   38.9112  -17.1693    8.1960 N   0  0  0  0  0  0  0  0  0  0  0  0
   40.3001  -16.9148    7.9795 N   0  0  0  0  0  0  0  0  0  0  0  0
   40.6077  -15.5362    8.2535 N   0  0  0  0  0  0  0  0  0  0  0  0
   40.2616  -15.2635    9.6145 N   0  0  0  0  0  0  0  0  0  0  0  0
   41.0450  -16.1138   10.4890 N   0  0  0  0  0  0  0  0  0  0  0  0
   42.4628  -15.9103   10.2712 N   0  0  0  0  0  0  0  0  0  0  0  0
   42.7453  -14.5470   10.5400 N   0  0  0  0  0  0  0  0  0  0  0  0
   42.4137  -14.2467   11.9071 N   0  0  0  0  0  0  0  0  0  0  0  0
   43.1447  -15.1154   12.7736 N   0  0  0  0  0  0  0  0  0  0  0  0
   44.5548  -14.9166   12.5723 N   0  0  0  0  0  0  0  0  0  0  0  0
   44.8865  -13.5524   12.8404 N   0  0  0  0  0  0  0  0  0  0  0  0
   44.5515  -13.2177   14.1938 N   0  0  0  0  0  0  0  0  0  0  0  0
   45.2549  -14.0749   15.1014 N   0  0  0  0  0  0  0  0  0  0  0  0
   46.6550  -13.8977   14.9038 N   0  0  0  0  0  0  0  0  0  0  0  0
   47.0145  -12.5271   15.1547 N   0  0  0  0  0  0  0  0  0  0  0  0
   46.6699  -12.1557   16.5052 N   0  0  0  0  0  0  0  0  0  0  0  0
   47.3549  -13.0127   17.3886 N   0  0  0  0  0  0  0  0  0  0  0  0
   48.7559  -12.8677   17.1767 N   0  0  0  0  0  0  0  0  0  0  0  0
   49.1637  -11.4966   17.4245 N   0  0  0  0  0  0  0  0  0  0  0  0
   48.8090  -11.1249   18.7375 N   0  0  0  0  0  0  0  0  0  0  0  0
   49.4824  -11.9752   19.6531 N   0  0  0  0  0  0  0  0  0  0  0  0
   50.9197  -11.8598   19.4873 N   0  0  0  0  0  0  0  0  0  0  0  0
   51.2890  -10.4993   19.6858 N   0  0  0  0  0  0  0  0  0  0  0  0
   50.9575  -10.1057   21.0270 N   0  0  0  0  0  0  0  0  0  0  0  0
   51.6087  -10.9507   21.9773 N   0  0  0  0  0  0  0  0  0  0  0  0
   53.0156  -10.8574   21.8164 N   0  0  0  0  0  0  0  0  0  0  0  0
   53.4179   -9.5084   21.9927 N   0  0  0  0  0  0  0  0  0  0  0  0
   53.0395   -9.0797   23.3030 N   0  0  0  0  0  0  0  0  0  0  0  0
   53.6721   -9.9335   24.2881 N   0  0  0  0  0  0  0  0  0  0  0  0
   55.1043   -9.8619   24.1247 N   0  0  0  0  0  0  0  0  0  0  0  0
   55.5355   -8.5137   24.3122 N   0  0  0  0  0  0  0  0  0  0  0  0
   55.1839   -8.0644   25.6268 N   0  0  0  0  0  0  0  0  0  0  0  0
   55.7862   -8.8984   26.6211 N   0  0  0  0  0  0  0  0  0  0  0  0
   57.2029   -8.8572   26.4804 N   0  0  0  0  0  0  0  0  0  0  0  0
   57.6418   -7.5144   26.6496 N   0  0  0  0  0  0  0  0  0  0  0  0
   57.2447   -7.0542   27.9481 N   0  0  0  0  0  0  0  0  0  0  0  0
   57.8577   -7.9001   28.9888 C   0  0  0  0  0  0  0  0  0  0  0  0
   59.3323   -7.8750   28.9068 N   0  0  0  0  0  0  0  0  0  0  0  0
   59.7904   -6.5005   29.0482 C   0  0  0  0  0  0  0  0  0  0  0  0
   61.2562   -6.4598   28.9436 N   0  0  0  0  0  0  0  0  0  0  0  0
   61.7191   -5.0935   29.1240 C   0  0  0  0  0  0  0  0  0  0  0  0
   63.1706   -5.0579   29.0146 N   0  0  0  0  0  0  0  0  0  0  0  0
   63.6464   -3.6866   29.1944 C   0  0  0  0  0  0  0  0  0  0  0  0
   65.1623   -3.6378   29.0865 C   0  0  0  0  0  0  0  0  0  0  0  0
   65.6645   -2.2145   29.2711 C   0  0  0  0  0  0  0  0  0  0  0  0
   67.1763   -2.1710   29.1608 C   0  0  0  0  0  0  0  0  0  0  0  0
   67.6735   -0.7518   29.3449 C   0  0  0  0  0  0  0  0  0  0  0  0
   69.1832   -0.7099   29.2326 C   0  0  0  0  0  0  0  0  0  0  0  0
   69.6818    0.7095   29.4186 C   0  0  0  0  0  0  0  0  0  0  0  0
   71.1878    0.7469   29.3058 C   0  0  0  0  0  0  0  0  0  0  0  0
   22.7137  -20.9019  -12.2651 H   0  0  0  0  0  0  0  0  0  0  0  0
   23.3421  -22.6126  -11.8866 H   0  0  0  0  0  0  0  0  0  0  0  0
   24.2002  -19.9698  -10.5821 H   0  0  0  0  0  0  0  0  0  0  0  0
   26.1365  -21.6129  -10.1382 H   0  0  0  0  0  0  0  0  0  0  0  0
   24.9891  -22.9597  -10.2612 H   0  0  0  0  0  0  0  0  0  0  0  0
   23.8386  -22.0891   -8.3439 H   0  0  0  0  0  0  0  0  0  0  0  0
   26.6282  -22.3340   -7.9846 H   0  0  0  0  0  0  0  0  0  0  0  0
   24.4013  -22.7751   -6.2186 H   0  0  0  0  0  0  0  0  0  0  0  0
   26.1123  -24.3470   -5.9230 H   0  0  0  0  0  0  0  0  0  0  0  0
   27.8827  -23.0480   -6.8263 H   0  0  0  0  0  0  0  0  0  0  0  0
   27.1714  -20.9856   -6.0272 H   0  0  0  0  0  0  0  0  0  0  0  0
   26.5492  -21.7279   -3.8963 H   0  0  0  0  0  0  0  0  0  0  0  0
   28.2047  -23.2805   -3.6058 H   0  0  0  0  0  0  0  0  0  0  0  0
   29.9605  -22.0392   -4.5366 H   0  0  0  0  0  0  0  0  0  0  0  0
   29.3237  -19.9865   -3.7591 H   0  0  0  0  0  0  0  0  0  0  0  0
   28.6524  -20.6732   -1.6219 H   0  0  0  0  0  0  0  0  0  0  0  0
   30.2809  -22.2327   -1.3022 H   0  0  0  0  0  0  0  0  0  0  0  0
   32.0574  -21.0366   -2.2389 H   0  0  0  0  0  0  0  0  0  0  0  0
   31.4562  -18.9693   -1.4872 H   0  0  0  0  0  0  0  0  0  0  0  0
   30.7749  -19.6339    0.6609 H   0  0  0  0  0  0  0  0  0  0  0  0
   32.3756  -21.2312    1.0076 H   0  0  0  0  0  0  0  0  0  0  0  0
   34.2012  -20.0508    0.0810 H   0  0  0  0  0  0  0  0  0  0  0  0
   33.6189  -17.9522    0.8090 H   0  0  0  0  0  0  0  0  0  0  0  0
   32.9097  -18.5581    2.9607 H   0  0  0  0  0  0  0  0  0  0  0  0
   34.4931  -20.2090    3.3371 H   0  0  0  0  0  0  0  0  0  0  0  0
   36.2796  -19.1047    2.3670 H   0  0  0  0  0  0  0  0  0  0  0  0
   35.7501  -16.9516    3.1252 H   0  0  0  0  0  0  0  0  0  0  0  0
   35.0058  -17.5272    5.1966 H   0  0  0  0  0  0  0  0  0  0  0  0
   36.6259  -19.1619    5.6615 H   0  0  0  0  0  0  0  0  0  0  0  0
   38.3916  -18.1172    4.6777 H   0  0  0  0  0  0  0  0  0  0  0  0
   37.8977  -15.9530    5.3646 H   0  0  0  0  0  0  0  0  0  0  0  0
   37.1684  -16.4939    7.5137 H   0  0  0  0  0  0  0  0  0  0  0  0
   38.6742  -18.1440    7.9558 H   0  0  0  0  0  0  0  0  0  0  0  0
   40.5377  -17.0908    7.0048 H   0  0  0  0  0  0  0  0  0  0  0  0
   40.0355  -14.9479    7.6356 H   0  0  0  0  0  0  0  0  0  0  0  0
   39.2550  -15.4435    9.7477 H   0  0  0  0  0  0  0  0  0  0  0  0
   40.8460  -17.0898   10.2657 H   0  0  0  0  0  0  0  0  0  0  0  0
   42.6521  -16.1396    9.2821 H   0  0  0  0  0  0  0  0  0  0  0  0
   42.2049  -13.9395    9.9127 H   0  0  0  0  0  0  0  0  0  0  0  0
   41.4192  -14.4212   12.0771 H   0  0  0  0  0  0  0  0  0  0  0  0
   42.8964  -16.0889   12.5619 H   0  0  0  0  0  0  0  0  0  0  0  0
   44.7722  -15.1417   11.5942 H   0  0  0  0  0  0  0  0  0  0  0  0
   44.3533  -12.9290   12.2284 H   0  0  0  0  0  0  0  0  0  0  0  0
   43.5547  -13.3641   14.3392 H   0  0  0  0  0  0  0  0  0  0  0  0
   44.9796  -15.0460   14.9041 H   0  0  0  0  0  0  0  0  0  0  0  0
   46.8969  -14.1347   13.9345 H   0  0  0  0  0  0  0  0  0  0  0  0
   46.4890  -11.9149   14.5281 H   0  0  0  0  0  0  0  0  0  0  0  0
   45.6638  -12.2946   16.6081 H   0  0  0  0  0  0  0  0  0  0  0  0
   47.0748  -13.9780   17.1953 H   0  0  0  0  0  0  0  0  0  0  0  0
   48.9936  -13.1203   16.2088 H   0  0  0  0  0  0  0  0  0  0  0  0
   48.6423  -10.9004   16.7780 H   0  0  0  0  0  0  0  0  0  0  0  0
   47.8042  -11.2369   18.8708 H   0  0  0  0  0  0  0  0  0  0  0  0
   49.1913  -12.9413   19.4823 H   0  0  0  0  0  0  0  0  0  0  0  0
   51.1101  -12.1293   18.5120 H   0  0  0  0  0  0  0  0  0  0  0  0
   50.7851   -9.9071   19.0074 H   0  0  0  0  0  0  0  0  0  0  0  0
   49.9499  -10.1938   21.1700 H   0  0  0  0  0  0  0  0  0  0  0  0
   51.3282  -11.9108   21.8010 H   0  0  0  0  0  0  0  0  0  0  0  0
   53.2464  -11.1353   20.8652 H   0  0  0  0  0  0  0  0  0  0  0  0
   52.9446   -8.9268   21.2942 H   0  0  0  0  0  0  0  0  0  0  0  0
   52.0214   -9.1591   23.3905 H   0  0  0  0  0  0  0  0  0  0  0  0
   53.3559  -10.8965   24.1016 H   0  0  0  0  0  0  0  0  0  0  0  0
   55.3423  -10.1779   23.1692 H   0  0  0  0  0  0  0  0  0  0  0  0
   55.0883   -7.8916   23.6292 H   0  0  0  0  0  0  0  0  0  0  0  0
   54.1720   -8.1213   25.7297 H   0  0  0  0  0  0  0  0  0  0  0  0
   55.4773   -9.8518   26.4549 H   0  0  0  0  0  0  0  0  0  0  0  0
   57.4367   -9.1600   25.5329 H   0  0  0  0  0  0  0  0  0  0  0  0
   57.1854   -6.9385   25.9344 H   0  0  0  0  0  0  0  0  0  0  0  0
   56.2263   -7.1061   28.0225 H   0  0  0  0  0  0  0  0  0  0  0  0
   57.5064   -8.9339   28.8725 H   0  0  0  0  0  0  0  0  0  0  0  0
   57.5327   -7.5627   29.9723 H   0  0  0  0  0  0  0  0  0  0  0  0
   59.5677   -8.1711   27.9585 H   0  0  0  0  0  0  0  0  0  0  0  0
   59.4850   -6.1337   30.0347 H   0  0  0  0  0  0  0  0  0  0  0  0
   59.3506   -5.8417   28.2875 H   0  0  0  0  0  0  0  0  0  0  0  0
   61.5512   -6.7675   28.0202 H   0  0  0  0  0  0  0  0  0  0  0  0
   61.4184   -4.7209   30.1105 H   0  0  0  0  0  0  0  0  0  0  0  0
   61.2816   -4.4378   28.3581 H   0  0  0  0  0  0  0  0  0  0  0  0
   63.4403   -5.4059   28.0979 H   0  0  0  0  0  0  0  0  0  0  0  0
   63.3538   -3.3050   30.1802 H   0  0  0  0  0  0  0  0  0  0  0  0
   63.2178   -3.0297   28.4308 H   0  0  0  0  0  0  0  0  0  0  0  0
   65.4782   -4.0043   28.1035 H   0  0  0  0  0  0  0  0  0  0  0  0
   65.6129   -4.2791   29.8523 H   0  0  0  0  0  0  0  0  0  0  0  0
   65.3595   -1.8387   30.2538 H   0  0  0  0  0  0  0  0  0  0  0  0
   65.2242   -1.5648   28.5068 H   0  0  0  0  0  0  0  0  0  0  0  0
   67.4846   -2.5436   28.1782 H   0  0  0  0  0  0  0  0  0  0  0  0
   67.6199   -2.8176   29.9253 H   0  0  0  0  0  0  0  0  0  0  0  0
   67.3676   -0.3790   30.3281 H   0  0  0  0  0  0  0  0  0  0  0  0
   67.2300   -0.1041   28.5813 H   0  0  0  0  0  0  0  0  0  0  0  0
   69.4895   -1.0818   28.2488 H   0  0  0  0  0  0  0  0  0  0  0  0
   69.6272   -1.3591   29.9950 H   0  0  0  0  0  0  0  0  0  0  0  0
   69.3792    1.0814   30.4023 H   0  0  0  0  0  0  0  0  0  0  0  0
   69.2414    1.3588   28.6556 H   0  0  0  0  0  0  0  0  0  0  0  0
   71.6402    0.1099   30.0715 H   0  0  0  0  0  0  0  0  0  0  0  0
   71.5500    1.7683   29.4394 H   0  0  0  0  0  0  0  0  0  0  0  0
   71.5022    0.3878   28.3216 H   0  0  0  0  0  0  0  0  0  0  0  0
  1  2  2  0  0  0  0
  1 81  1  0  0  0  0
  1 82  1  0  0  0  0
  2  3  1  0  0  0  0
  2 83  1  0  0  0  0
  3  4  1  0  0  0  0
  3 84  1  0  0  0  0
  3 85  1  0  0  0  0
  4  5  1  0  0  0  0
  4 86  1  0  0  0  0
  5  6  1  0  0  0  0
  5 87  1  0  0  0  0
  6  7  1  0  0  0  0
  6 88  1  0  0  0  0
  7  8  1  0  0  0  0
  7 89  1  0  0  0  0
  8  9  1  0  0  0  0
  8 90  1  0  0  0  0
  9 10  1  0  0  0  0
  9 91  1  0  0  0  0
 10 11  1  0  0  0  0
 10 92  1  0  0  0  0
 11 12  1  0  0  0  0
 11 93  1  0  0  0  0
 12 13  1  0  0  0  0
 12 94  1  0  0  0  0
 13 14  1  0  0  0  0
 13 95  1  0  0  0  0
 14 15  1  0  0  0  0
 14 96  1  0  0  0  0
 15 16  1  0  0  0  0
 15 97  1  0  0  0  0
 16 17  1  0  0  0  0
 16 98  1  0  0  0  0
 17 18  1  0  0  0  0
 17 99  1  0  0  0  0
 18 19  1  0  0  0  0
 18100  1  0  0  0  0
 19 20  1  0  0  0  0
 19101  1  0  0  0  0
 20 21  1  0  0  0  0
 20102  1  0  0  0  0
 21 22  1  0  0  0  0
 21103  1  0  0  0  0
 22 23  1  0  0  0  0
 22104  1  0  0  0  0
 23 24  1  0  0  0  0
 23105  1  0  0  0  0
 24 25  1  0  0  0  0
 24106  1  0  0  0  0
 25 26  1  0  0  0  0
 25107  1  0  0  0  0
 26 27  1  0  0  0  0
 26108  1  0  0  0  0
 27 28  1  0  0  0  0
 27109  1  0  0  0  0
 28 29  1  0  0  0  0
 28110  1  0  0  0  0
 29 30  1  0  0  0  0
 29111  1  0  0  0  0
 30 31  1  0  0  0  0
 30112  1  0  0  0  0
 31 32  1  0  0  0  0
 31113  1  0  0  0  0
 32 33  1  0  0  0  0
 32114  1  0  0  0  0
 33 34  1  0  0  0  0
 33115  1  0  0  0  0
 34 35  1  0  0  0  0
 34116  1  0  0  0  0
 35 36  1  0  0  0  0
 35117  1  0  0  0  0
 36 37  1  0  0  0  0
 36118  1  0  0  0  0
 37 38  1  0  0  0  0
 37119  1  0  0  0  0
 38 39  1  0  0  0  0
 38120  1  0  0  0  0
 39 40  1  0  0  0  0
 39121  1  0  0  0  0
 40 41  1  0  0  0  0
 40122  1  0  0  0  0
 41 42  1  0  0  0  0
 41123  1  0  0  0  0
 42 43  1  0  0  0  0
 42124  1  0  0  0  0
 43 44  1  0  0  0  0
 43125  1  0  0  0  0
 44 45  1  0  0  0  0
 44126  1  0  0  0  0
 45 46  1  0  0  0  0
 45127  1  0  0  0  0
 46 47  1  0  0  0  0
 46128  1  0  0  0  0
 47 48  1  0  0  0  0
 47129  1  0  0  0  0
 48 49  1  0  0  0  0
 48130  1  0  0  0  0
 49 50  1  0  0  0  0
 49131  1  0  0  0  0
 50 51  1  0  0  0  0
 50132  1  0  0  0  0
 51 52  1  0  0  0  0
 51133  1  0  0  0  0
 52 53  1  0  0  0  0
 52134  1  0  0  0  0
 53 54  1  0  0  0  0
 53135  1  0  0  0  0
 54 55  1  0  0  0  0
 54136  1  0  0  0  0
 55 56  1  0  0  0  0
 55137  1  0  0  0  0
 56 57  1  0  0  0  0
 56138  1  0  0  0  0
 57 58  1  0  0  0  0
 57139  1  0  0  0  0
 58 59  1  0  0  0  0
 58140  1  0  0  0  0
 59 60  1  0  0  0  0
 59141  1  0  0  0  0
 60 61  1  0  0  0  0
 60142  1  0  0  0  0
 61 62  1  0  0  0  0
 61143  1  0  0  0  0
 62 63  1  0  0  0  0
 62144  1  0  0  0  0
 63 64  1  0  0  0  0
 63145  1  0  0  0  0
 64 65  1  0  0  0  0
 64146  1  0  0  0  0
 65 66  1  0  0  0  0
 65147  1  0  0  0  0
 66 67  1  0  0  0  0
 66148  1  0  0  0  0
 67 68  1  0  0  0  0
 67149  1  0  0  0  0
 67150  1  0  0  0  0
 68 69  1  0  0  0  0
 68151  1  0  0  0  0
 69 70  1  0  0  0  0
 69152  1  0  0  0  0
 69153  1  0  0  0  0
 70 71  1  0  0  0  0
 70154  1  0  0  0  0
 71 72  1  0  0  0  0
 71155  1  0  0  0  0
 71156  1  0  0  0  0
 72 73  1  0  0  0  0
 72157  1  0  0  0  0
 73 74  1  0  0  0  0
 73158  1  0  0  0  0
 73159  1  0  0  0  0
 74 75  1  0  0  0  0
 74160  1  0  0  0  0
 74161  1  0  0  0  0
 75 76  1  0  0  0  0
 75162  1  0  0  0  0
 75163  1  0  0  0  0
 76 77  1  0  0  0  0
 76164  1  0  0  0  0
 76165  1  0  0  0  0
 77 78  1  0  0  0  0
 77166  1  0  0  0  0
 77167  1  0  0  0  0
 78 79  1  0  0  0  0
 78168  1  0  0  0  0
 78169  1  0  0  0  0
 79 80  1  0  0  0  0
 79170  1  0  0  0  0
 79171  1  0  0  0  0
 80172  1  0  0  0  0
 80173  1  0  0  0  0
 80174  1  0  0  0  0
M  END
$$$$
