
 OpenBabel04232216553D

244243  0  0  0  0  0  0  0  0999 V2000
    1.0088    0.0091    0.0674 C   0  0  0  0  0  0  0  0  0  0  0  0
    2.5279    0.0219    0.0798 C   0  0  0  0  0  0  0  0  0  0  0  0
    3.0320   -0.6307   -1.1245 N   0  0  0  0  0  0  0  0  0  0  0  0
    4.4906   -0.6289   -1.1334 C   0  0  0  0  0  0  0  0  0  0  0  0
    4.9928   -1.3108   -2.4002 C   0  0  0  0  0  0  0  0  0  0  0  0
    6.5153   -1.3179   -2.4193 C   0  0  0  0  0  0  0  0  0  0  0  0
    7.0325   -1.9949   -3.6782 C   0  0  0  0  0  0  0  0  0  0  0  0
    8.5529   -1.9961   -3.6862 C   0  0  0  0  0  0  0  0  0  0  0  0
    9.0696   -2.6724   -4.9444 C   0  0  0  0  0  0  0  0  0  0  0  0
   10.5882   -2.6720   -4.9517 C   0  0  0  0  0  0  0  0  0  0  0  0
   11.1013   -3.3470   -6.2110 C   0  0  0  0  0  0  0  0  0  0  0  0
   12.6189   -3.3480   -6.2174 C   0  0  0  0  0  0  0  0  0  0  0  0
   13.1301   -4.0241   -7.4760 C   0  0  0  0  0  0  0  0  0  0  0  0
   14.6472   -4.0236   -7.4828 C   0  0  0  0  0  0  0  0  0  0  0  0
   15.1577   -4.7002   -8.7410 C   0  0  0  0  0  0  0  0  0  0  0  0
   16.6747   -4.7004   -8.7465 C   0  0  0  0  0  0  0  0  0  0  0  0
   17.1852   -5.3777  -10.0041 C   0  0  0  0  0  0  0  0  0  0  0  0
   18.7020   -5.3768  -10.0104 C   0  0  0  0  0  0  0  0  0  0  0  0
   19.2121   -6.0535  -11.2684 C   0  0  0  0  0  0  0  0  0  0  0  0
   20.7288   -6.0543  -11.2739 C   0  0  0  0  0  0  0  0  0  0  0  0
   21.2390   -6.7324  -12.5311 C   0  0  0  0  0  0  0  0  0  0  0  0
   22.7557   -6.7312  -12.5372 C   0  0  0  0  0  0  0  0  0  0  0  0
   23.2659   -7.4075  -13.7953 C   0  0  0  0  0  0  0  0  0  0  0  0
   24.7825   -7.4047  -13.8023 C   0  0  0  0  0  0  0  0  0  0  0  0
   25.2926   -8.0809  -15.0604 C   0  0  0  0  0  0  0  0  0  0  0  0
   26.8093   -8.0795  -15.0666 C   0  0  0  0  0  0  0  0  0  0  0  0
   27.3193   -8.7557  -16.3246 C   0  0  0  0  0  0  0  0  0  0  0  0
   28.8360   -8.7543  -16.3306 C   0  0  0  0  0  0  0  0  0  0  0  0
   29.3459   -9.4307  -17.5887 C   0  0  0  0  0  0  0  0  0  0  0  0
   30.8625   -9.4295  -17.5951 C   0  0  0  0  0  0  0  0  0  0  0  0
   31.3718  -10.1058  -18.8534 C   0  0  0  0  0  0  0  0  0  0  0  0
   32.8883  -10.1038  -18.8608 C   0  0  0  0  0  0  0  0  0  0  0  0
   33.3982  -10.7812  -20.1187 C   0  0  0  0  0  0  0  0  0  0  0  0
   34.9145  -10.7814  -20.1235 C   0  0  0  0  0  0  0  0  0  0  0  0
   35.4252  -11.4575  -21.3817 C   0  0  0  0  0  0  0  0  0  0  0  0
   36.9419  -11.4567  -21.3870 C   0  0  0  0  0  0  0  0  0  0  0  0
   37.4526  -12.1343  -22.6440 C   0  0  0  0  0  0  0  0  0  0  0  0
   38.9692  -12.1346  -22.6488 C   0  0  0  0  0  0  0  0  0  0  0  0
   39.4796  -12.8113  -23.9066 C   0  0  0  0  0  0  0  0  0  0  0  0
   40.9962  -12.8133  -23.9109 C   0  0  0  0  0  0  0  0  0  0  0  0
   41.5061  -13.4913  -25.1681 C   0  0  0  0  0  0  0  0  0  0  0  0
   43.0227  -13.4936  -25.1724 C   0  0  0  0  0  0  0  0  0  0  0  0
   43.5327  -14.1717  -26.4294 C   0  0  0  0  0  0  0  0  0  0  0  0
   45.0493  -14.1740  -26.4336 C   0  0  0  0  0  0  0  0  0  0  0  0
   45.5593  -14.8521  -27.6907 C   0  0  0  0  0  0  0  0  0  0  0  0
   47.0760  -14.8544  -27.6948 C   0  0  0  0  0  0  0  0  0  0  0  0
   47.5860  -15.5324  -28.9519 C   0  0  0  0  0  0  0  0  0  0  0  0
   49.1026  -15.5346  -28.9562 C   0  0  0  0  0  0  0  0  0  0  0  0
   49.6127  -16.2126  -30.2133 C   0  0  0  0  0  0  0  0  0  0  0  0
   51.1293  -16.2132  -30.2184 C   0  0  0  0  0  0  0  0  0  0  0  0
   51.6393  -16.8914  -31.4754 C   0  0  0  0  0  0  0  0  0  0  0  0
   53.1560  -16.8936  -31.4796 C   0  0  0  0  0  0  0  0  0  0  0  0
   53.6662  -17.5730  -32.7358 C   0  0  0  0  0  0  0  0  0  0  0  0
   55.1817  -17.5784  -32.7411 C   0  0  0  0  0  0  0  0  0  0  0  0
   55.6932  -18.2561  -33.9959 C   0  0  0  0  0  0  0  0  0  0  0  0
   57.2091  -18.2615  -33.9976 C   0  0  0  0  0  0  0  0  0  0  0  0
   57.7193  -18.9421  -35.2546 C   0  0  0  0  0  0  0  0  0  0  0  0
   59.2364  -18.9478  -35.2563 C   0  0  0  0  0  0  0  0  0  0  0  0
   59.7468  -19.6287  -36.5119 C   0  0  0  0  0  0  0  0  0  0  0  0
   61.2636  -19.6349  -36.5142 C   0  0  0  0  0  0  0  0  0  0  0  0
   61.7719  -20.3139  -37.7697 C   0  0  0  0  0  0  0  0  0  0  0  0
   63.2903  -20.3200  -37.7731 C   0  0  0  0  0  0  0  0  0  0  0  0
   63.8004  -21.0005  -39.0295 C   0  0  0  0  0  0  0  0  0  0  0  0
   65.3161  -21.0055  -39.0312 C   0  0  0  0  0  0  0  0  0  0  0  0
   65.8260  -21.6853  -40.2875 C   0  0  0  0  0  0  0  0  0  0  0  0
   67.3426  -21.6909  -40.2901 C   0  0  0  0  0  0  0  0  0  0  0  0
   67.8526  -22.3707  -41.5463 C   0  0  0  0  0  0  0  0  0  0  0  0
   69.3695  -22.3771  -41.5486 C   0  0  0  0  0  0  0  0  0  0  0  0
   69.8799  -23.0572  -42.8047 C   0  0  0  0  0  0  0  0  0  0  0  0
   71.3970  -23.0660  -42.8059 C   0  0  0  0  0  0  0  0  0  0  0  0
   71.9082  -23.7461  -44.0622 C   0  0  0  0  0  0  0  0  0  0  0  0
   73.4255  -23.7528  -44.0650 C   0  0  0  0  0  0  0  0  0  0  0  0
   73.9379  -24.4330  -45.3217 C   0  0  0  0  0  0  0  0  0  0  0  0
   75.4563  -24.4419  -45.3247 C   0  0  0  0  0  0  0  0  0  0  0  0
   75.9713  -25.1222  -46.5811 C   0  0  0  0  0  0  0  0  0  0  0  0
   77.4910  -25.1328  -46.5845 C   0  0  0  0  0  0  0  0  0  0  0  0
   78.0087  -25.8133  -47.8417 C   0  0  0  0  0  0  0  0  0  0  0  0
   79.5306  -25.8265  -47.8496 C   0  0  0  0  0  0  0  0  0  0  0  0
   80.0491  -26.5099  -49.1082 C   0  0  0  0  0  0  0  0  0  0  0  0
   81.5728  -26.5275  -49.1277 C   0  0  0  0  0  0  0  0  0  0  0  0
   82.0888  -27.2087  -50.3820 C   0  0  0  0  0  0  0  0  0  0  0  0
    0.6225    0.4882    0.9725 H   0  0  0  0  0  0  0  0  0  0  0  0
    0.6230   -1.0154    0.0353 H   0  0  0  0  0  0  0  0  0  0  0  0
    0.6148    0.5524   -0.7981 H   0  0  0  0  0  0  0  0  0  0  0  0
    2.8817   -0.5055    0.9727 H   0  0  0  0  0  0  0  0  0  0  0  0
    2.8802    1.0583    0.1323 H   0  0  0  0  0  0  0  0  0  0  0  0
    2.6828   -0.1481   -1.9519 H   0  0  0  0  0  0  0  0  0  0  0  0
    4.8738   -1.1654   -0.2567 H   0  0  0  0  0  0  0  0  0  0  0  0
    4.8717    0.4004   -1.0954 H   0  0  0  0  0  0  0  0  0  0  0  0
    4.6155   -0.7873   -3.2878 H   0  0  0  0  0  0  0  0  0  0  0  0
    4.6177   -2.3413   -2.4473 H   0  0  0  0  0  0  0  0  0  0  0  0
    6.8962   -1.8428   -1.5344 H   0  0  0  0  0  0  0  0  0  0  0  0
    6.8925   -0.2888   -2.3719 H   0  0  0  0  0  0  0  0  0  0  0  0
    6.6573   -1.4705   -4.5655 H   0  0  0  0  0  0  0  0  0  0  0  0
    6.6603   -3.0255   -3.7283 H   0  0  0  0  0  0  0  0  0  0  0  0
    8.9311   -2.5211   -2.8003 H   0  0  0  0  0  0  0  0  0  0  0  0
    8.9279   -0.9664   -3.6371 H   0  0  0  0  0  0  0  0  0  0  0  0
    8.6933   -2.1484   -5.8316 H   0  0  0  0  0  0  0  0  0  0  0  0
    8.6977   -3.7031   -4.9942 H   0  0  0  0  0  0  0  0  0  0  0  0
   10.9667   -3.1976   -4.0664 H   0  0  0  0  0  0  0  0  0  0  0  0
   10.9625   -1.6420   -4.9022 H   0  0  0  0  0  0  0  0  0  0  0  0
   10.7250   -2.8210   -7.0970 H   0  0  0  0  0  0  0  0  0  0  0  0
   10.7274   -4.3770   -6.2620 H   0  0  0  0  0  0  0  0  0  0  0  0
   12.9965   -3.8737   -5.3317 H   0  0  0  0  0  0  0  0  0  0  0  0
   12.9939   -2.3182   -6.1680 H   0  0  0  0  0  0  0  0  0  0  0  0
   12.7524   -3.4994   -8.3624 H   0  0  0  0  0  0  0  0  0  0  0  0
   12.7566   -5.0544   -7.5251 H   0  0  0  0  0  0  0  0  0  0  0  0
   15.0254   -4.5481   -6.5967 H   0  0  0  0  0  0  0  0  0  0  0  0
   15.0212   -2.9934   -7.4345 H   0  0  0  0  0  0  0  0  0  0  0  0
   14.7806   -4.1754   -9.6274 H   0  0  0  0  0  0  0  0  0  0  0  0
   14.7835   -5.7303   -8.7900 H   0  0  0  0  0  0  0  0  0  0  0  0
   17.0519   -5.2248   -7.8600 H   0  0  0  0  0  0  0  0  0  0  0  0
   17.0489   -3.6703   -8.6981 H   0  0  0  0  0  0  0  0  0  0  0  0
   16.8072   -4.8541  -10.8908 H   0  0  0  0  0  0  0  0  0  0  0  0
   16.8118   -6.4080  -10.0518 H   0  0  0  0  0  0  0  0  0  0  0  0
   19.0800   -5.9012   -9.1241 H   0  0  0  0  0  0  0  0  0  0  0  0
   19.0759   -4.3466   -9.9620 H   0  0  0  0  0  0  0  0  0  0  0  0
   18.8352   -5.5284  -12.1548 H   0  0  0  0  0  0  0  0  0  0  0  0
   18.8374   -7.0833  -11.3174 H   0  0  0  0  0  0  0  0  0  0  0  0
   21.1059   -6.5785  -10.3871 H   0  0  0  0  0  0  0  0  0  0  0  0
   21.1035   -5.0244  -11.2260 H   0  0  0  0  0  0  0  0  0  0  0  0
   20.8609   -6.2092  -13.4180 H   0  0  0  0  0  0  0  0  0  0  0  0
   20.8655   -7.7628  -12.5783 H   0  0  0  0  0  0  0  0  0  0  0  0
   23.1339   -7.2555  -11.6510 H   0  0  0  0  0  0  0  0  0  0  0  0
   23.1291   -5.7008  -12.4889 H   0  0  0  0  0  0  0  0  0  0  0  0
   22.8868   -6.8840  -14.6816 H   0  0  0  0  0  0  0  0  0  0  0  0
   22.8934   -8.4383  -13.8431 H   0  0  0  0  0  0  0  0  0  0  0  0
   25.1617   -7.9283  -12.9160 H   0  0  0  0  0  0  0  0  0  0  0  0
   25.1549   -6.3739  -13.7544 H   0  0  0  0  0  0  0  0  0  0  0  0
   24.9144   -7.5565  -15.9466 H   0  0  0  0  0  0  0  0  0  0  0  0
   24.9193   -9.1113  -15.1090 H   0  0  0  0  0  0  0  0  0  0  0  0
   27.1875   -8.6039  -14.1804 H   0  0  0  0  0  0  0  0  0  0  0  0
   27.1827   -7.0491  -15.0180 H   0  0  0  0  0  0  0  0  0  0  0  0
   26.9412   -8.2313  -17.2109 H   0  0  0  0  0  0  0  0  0  0  0  0
   26.9459   -9.7861  -16.3732 H   0  0  0  0  0  0  0  0  0  0  0  0
   29.2141   -9.2789  -15.4445 H   0  0  0  0  0  0  0  0  0  0  0  0
   29.2094   -7.7241  -16.2821 H   0  0  0  0  0  0  0  0  0  0  0  0
   28.9677   -8.9062  -18.4749 H   0  0  0  0  0  0  0  0  0  0  0  0
   28.9723  -10.4609  -17.6372 H   0  0  0  0  0  0  0  0  0  0  0  0
   31.2409   -9.9540  -16.7090 H   0  0  0  0  0  0  0  0  0  0  0  0
   31.2361   -8.3992  -17.5466 H   0  0  0  0  0  0  0  0  0  0  0  0
   30.9931   -9.5814  -19.7395 H   0  0  0  0  0  0  0  0  0  0  0  0
   30.9985  -11.1362  -18.9017 H   0  0  0  0  0  0  0  0  0  0  0  0
   33.2676  -10.6266  -17.9740 H   0  0  0  0  0  0  0  0  0  0  0  0
   33.2609   -9.0731  -18.8142 H   0  0  0  0  0  0  0  0  0  0  0  0
   33.0211  -10.2562  -21.0047 H   0  0  0  0  0  0  0  0  0  0  0  0
   33.0235  -11.8111  -20.1671 H   0  0  0  0  0  0  0  0  0  0  0  0
   35.2914  -11.3074  -19.2373 H   0  0  0  0  0  0  0  0  0  0  0  0
   35.2895   -9.7519  -20.0738 H   0  0  0  0  0  0  0  0  0  0  0  0
   35.0476  -10.9327  -22.2681 H   0  0  0  0  0  0  0  0  0  0  0  0
   35.0516  -12.4876  -21.4307 H   0  0  0  0  0  0  0  0  0  0  0  0
   37.3192  -11.9807  -20.5001 H   0  0  0  0  0  0  0  0  0  0  0  0
   37.3159  -10.4266  -21.3390 H   0  0  0  0  0  0  0  0  0  0  0  0
   37.0757  -11.6101  -23.5310 H   0  0  0  0  0  0  0  0  0  0  0  0
   37.0782  -13.1644  -22.6922 H   0  0  0  0  0  0  0  0  0  0  0  0
   39.3461  -12.6596  -21.7623 H   0  0  0  0  0  0  0  0  0  0  0  0
   39.3438  -11.1047  -22.5998 H   0  0  0  0  0  0  0  0  0  0  0  0
   39.1037  -12.2855  -24.7930 H   0  0  0  0  0  0  0  0  0  0  0  0
   39.1040  -13.8408  -23.9563 H   0  0  0  0  0  0  0  0  0  0  0  0
   41.3721  -13.3384  -23.0241 H   0  0  0  0  0  0  0  0  0  0  0  0
   41.3719  -11.7838  -23.8622 H   0  0  0  0  0  0  0  0  0  0  0  0
   41.1302  -12.9663  -26.0550 H   0  0  0  0  0  0  0  0  0  0  0  0
   41.1303  -14.5208  -25.2167 H   0  0  0  0  0  0  0  0  0  0  0  0
   43.3985  -14.0185  -24.2854 H   0  0  0  0  0  0  0  0  0  0  0  0
   43.3985  -12.4641  -25.1238 H   0  0  0  0  0  0  0  0  0  0  0  0
   43.1569  -13.6468  -27.3164 H   0  0  0  0  0  0  0  0  0  0  0  0
   43.1568  -15.2012  -26.4780 H   0  0  0  0  0  0  0  0  0  0  0  0
   45.4250  -14.6990  -25.5466 H   0  0  0  0  0  0  0  0  0  0  0  0
   45.4252  -13.1446  -26.3849 H   0  0  0  0  0  0  0  0  0  0  0  0
   45.1836  -14.3272  -28.5776 H   0  0  0  0  0  0  0  0  0  0  0  0
   45.1835  -15.8816  -27.7392 H   0  0  0  0  0  0  0  0  0  0  0  0
   47.4518  -15.3793  -26.8079 H   0  0  0  0  0  0  0  0  0  0  0  0
   47.4518  -13.8249  -27.6463 H   0  0  0  0  0  0  0  0  0  0  0  0
   47.2101  -15.0075  -29.8389 H   0  0  0  0  0  0  0  0  0  0  0  0
   47.2103  -16.5619  -29.0005 H   0  0  0  0  0  0  0  0  0  0  0  0
   49.4785  -16.0595  -28.0693 H   0  0  0  0  0  0  0  0  0  0  0  0
   49.4783  -14.5050  -28.9076 H   0  0  0  0  0  0  0  0  0  0  0  0
   49.2358  -15.6884  -31.1003 H   0  0  0  0  0  0  0  0  0  0  0  0
   49.2379  -17.2424  -30.2612 H   0  0  0  0  0  0  0  0  0  0  0  0
   51.5061  -16.7373  -29.3314 H   0  0  0  0  0  0  0  0  0  0  0  0
   51.5041  -15.1834  -30.1706 H   0  0  0  0  0  0  0  0  0  0  0  0
   51.2634  -16.3667  -32.3625 H   0  0  0  0  0  0  0  0  0  0  0  0
   51.2635  -17.9209  -31.5238 H   0  0  0  0  0  0  0  0  0  0  0  0
   53.5317  -17.4174  -30.5920 H   0  0  0  0  0  0  0  0  0  0  0  0
   53.5317  -15.8640  -31.4322 H   0  0  0  0  0  0  0  0  0  0  0  0
   53.2915  -17.0484  -33.6234 H   0  0  0  0  0  0  0  0  0  0  0  0
   53.2893  -18.6021  -32.7840 H   0  0  0  0  0  0  0  0  0  0  0  0
   55.5573  -18.1027  -31.8515 H   0  0  0  0  0  0  0  0  0  0  0  0
   55.5600  -16.5479  -32.6897 H   0  0  0  0  0  0  0  0  0  0  0  0
   55.3195  -17.7291  -34.8831 H   0  0  0  0  0  0  0  0  0  0  0  0
   55.3143  -19.2834  -34.0452 H   0  0  0  0  0  0  0  0  0  0  0  0
   57.5822  -18.7875  -33.1097 H   0  0  0  0  0  0  0  0  0  0  0  0
   57.5875  -17.2334  -33.9487 H   0  0  0  0  0  0  0  0  0  0  0  0
   57.3479  -18.4160  -36.1403 H   0  0  0  0  0  0  0  0  0  0  0  0
   57.3405  -19.9692  -35.3037 H   0  0  0  0  0  0  0  0  0  0  0  0
   59.6099  -19.4740  -34.3672 H   0  0  0  0  0  0  0  0  0  0  0  0
   59.6142  -17.9211  -35.2085 H   0  0  0  0  0  0  0  0  0  0  0  0
   59.3740  -19.1022  -37.3993 H   0  0  0  0  0  0  0  0  0  0  0  0
   59.3686  -20.6560  -36.5612 H   0  0  0  0  0  0  0  0  0  0  0  0
   61.6370  -20.1600  -35.6264 H   0  0  0  0  0  0  0  0  0  0  0  0
   61.6428  -18.6061  -36.4653 H   0  0  0  0  0  0  0  0  0  0  0  0
   61.3992  -19.7897  -38.6583 H   0  0  0  0  0  0  0  0  0  0  0  0
   61.3949  -21.3438  -37.8181 H   0  0  0  0  0  0  0  0  0  0  0  0
   63.6631  -20.8452  -36.8851 H   0  0  0  0  0  0  0  0  0  0  0  0
   63.6669  -19.2918  -37.7244 H   0  0  0  0  0  0  0  0  0  0  0  0
   63.4259  -20.4744  -39.9165 H   0  0  0  0  0  0  0  0  0  0  0  0
   63.4213  -22.0285  -39.0774 H   0  0  0  0  0  0  0  0  0  0  0  0
   65.6897  -21.5308  -38.1436 H   0  0  0  0  0  0  0  0  0  0  0  0
   65.6941  -19.9768  -38.9827 H   0  0  0  0  0  0  0  0  0  0  0  0
   65.4521  -21.1600  -41.1751 H   0  0  0  0  0  0  0  0  0  0  0  0
   65.4479  -22.7140  -40.3359 H   0  0  0  0  0  0  0  0  0  0  0  0
   67.7162  -22.2162  -39.4025 H   0  0  0  0  0  0  0  0  0  0  0  0
   67.7206  -20.6622  -40.2416 H   0  0  0  0  0  0  0  0  0  0  0  0
   67.4794  -21.8452  -42.4340 H   0  0  0  0  0  0  0  0  0  0  0  0
   67.4741  -23.3992  -41.5950 H   0  0  0  0  0  0  0  0  0  0  0  0
   69.7424  -22.9025  -40.6607 H   0  0  0  0  0  0  0  0  0  0  0  0
   69.7478  -21.3486  -41.4998 H   0  0  0  0  0  0  0  0  0  0  0  0
   69.5082  -22.5304  -43.6922 H   0  0  0  0  0  0  0  0  0  0  0  0
   69.4998  -24.0850  -42.8543 H   0  0  0  0  0  0  0  0  0  0  0  0
   71.7684  -23.5926  -41.9181 H   0  0  0  0  0  0  0  0  0  0  0  0
   71.7767  -22.0380  -42.7559 H   0  0  0  0  0  0  0  0  0  0  0  0
   71.5347  -23.2205  -44.9497 H   0  0  0  0  0  0  0  0  0  0  0  0
   71.5293  -24.7744  -44.1106 H   0  0  0  0  0  0  0  0  0  0  0  0
   73.7980  -24.2783  -43.1771 H   0  0  0  0  0  0  0  0  0  0  0  0
   73.8036  -22.7243  -44.0159 H   0  0  0  0  0  0  0  0  0  0  0  0
   73.5652  -23.9065  -46.2090 H   0  0  0  0  0  0  0  0  0  0  0  0
   73.5578  -25.4608  -45.3708 H   0  0  0  0  0  0  0  0  0  0  0  0
   75.8271  -24.9675  -44.4362 H   0  0  0  0  0  0  0  0  0  0  0  0
   75.8346  -23.4135  -45.2747 H   0  0  0  0  0  0  0  0  0  0  0  0
   75.5989  -24.5955  -47.4684 H   0  0  0  0  0  0  0  0  0  0  0  0
   75.5901  -26.1498  -46.6305 H   0  0  0  0  0  0  0  0  0  0  0  0
   77.8603  -25.6590  -45.6957 H   0  0  0  0  0  0  0  0  0  0  0  0
   77.8692  -24.1045  -46.5334 H   0  0  0  0  0  0  0  0  0  0  0  0
   77.6353  -25.2860  -48.7282 H   0  0  0  0  0  0  0  0  0  0  0  0
   77.6261  -26.8403  -47.8908 H   0  0  0  0  0  0  0  0  0  0  0  0
   79.9003  -26.3516  -46.9603 H   0  0  0  0  0  0  0  0  0  0  0  0
   79.9092  -24.7982  -47.7999 H   0  0  0  0  0  0  0  0  0  0  0  0
   79.6718  -25.9839  -49.9939 H   0  0  0  0  0  0  0  0  0  0  0  0
   79.6646  -27.5362  -49.1539 H   0  0  0  0  0  0  0  0  0  0  0  0
   81.9508  -27.0547  -48.2440 H   0  0  0  0  0  0  0  0  0  0  0  0
   81.9579  -25.5020  -49.0844 H   0  0  0  0  0  0  0  0  0  0  0  0
   81.7382  -28.2444  -50.4347 H   0  0  0  0  0  0  0  0  0  0  0  0
   83.1824  -27.2159  -50.3863 H   0  0  0  0  0  0  0  0  0  0  0  0
   81.7453  -26.6839  -51.2792 H   0  0  0  0  0  0  0  0  0  0  0  0
  1  2  1  0  0  0  0
  1 82  1  0  0  0  0
  1 83  1  0  0  0  0
  1 84  1  0  0  0  0
  2  3  1  0  0  0  0
  2 85  1  0  0  0  0
  2 86  1  0  0  0  0
  3  4  1  0  0  0  0
  3 87  1  0  0  0  0
  4  5  1  0  0  0  0
  4 88  1  0  0  0  0
  4 89  1  0  0  0  0
  5  6  1  0  0  0  0
  5 90  1  0  0  0  0
  5 91  1  0  0  0  0
  6  7  1  0  0  0  0
  6 92  1  0  0  0  0
  6 93  1  0  0  0  0
  7  8  1  0  0  0  0
  7 94  1  0  0  0  0
  7 95  1  0  0  0  0
  8  9  1  0  0  0  0
  8 96  1  0  0  0  0
  8 97  1  0  0  0  0
  9 10  1  0  0  0  0
  9 98  1  0  0  0  0
  9 99  1  0  0  0  0
 10 11  1  0  0  0  0
 10100  1  0  0  0  0
 10101  1  0  0  0  0
 11 12  1  0  0  0  0
 11102  1  0  0  0  0
 11103  1  0  0  0  0
 12 13  1  0  0  0  0
 12104  1  0  0  0  0
 12105  1  0  0  0  0
 13 14  1  0  0  0  0
 13106  1  0  0  0  0
 13107  1  0  0  0  0
 14 15  1  0  0  0  0
 14108  1  0  0  0  0
 14109  1  0  0  0  0
 15 16  1  0  0  0  0
 15110  1  0  0  0  0
 15111  1  0  0  0  0
 16 17  1  0  0  0  0
 16112  1  0  0  0  0
 16113  1  0  0  0  0
 17 18  1  0  0  0  0
 17114  1  0  0  0  0
 17115  1  0  0  0  0
 18 19  1  0  0  0  0
 18116  1  0  0  0  0
 18117  1  0  0  0  0
 19 20  1  0  0  0  0
 19118  1  0  0  0  0
 19119  1  0  0  0  0
 20 21  1  0  0  0  0
 20120  1  0  0  0  0
 20121  1  0  0  0  0
 21 22  1  0  0  0  0
 21122  1  0  0  0  0
 21123  1  0  0  0  0
 22 23  1  0  0  0  0
 22124  1  0  0  0  0
 22125  1  0  0  0  0
 23 24  1  0  0  0  0
 23126  1  0  0  0  0
 23127  1  0  0  0  0
 24 25  1  0  0  0  0
 24128  1  0  0  0  0
 24129  1  0  0  0  0
 25 26  1  0  0  0  0
 25130  1  0  0  0  0
 25131  1  0  0  0  0
 26 27  1  0  0  0  0
 26132  1  0  0  0  0
 26133  1  0  0  0  0
 27 28  1  0  0  0  0
 27134  1  0  0  0  0
 27135  1  0  0  0  0
 28 29  1  0  0  0  0
 28136  1  0  0  0  0
 28137  1  0  0  0  0
 29 30  1  0  0  0  0
 29138  1  0  0  0  0
 29139  1  0  0  0  0
 30 31  1  0  0  0  0
 30140  1  0  0  0  0
 30141  1  0  0  0  0
 31 32  1  0  0  0  0
 31142  1  0  0  0  0
 31143  1  0  0  0  0
 32 33  1  0  0  0  0
 32144  1  0  0  0  0
 32145  1  0  0  0  0
 33 34  1  0  0  0  0
 33146  1  0  0  0  0
 33147  1  0  0  0  0
 34 35  1  0  0  0  0
 34148  1  0  0  0  0
 34149  1  0  0  0  0
 35 36  1  0  0  0  0
 35150  1  0  0  0  0
 35151  1  0  0  0  0
 36 37  1  0  0  0  0
 36152  1  0  0  0  0
 36153  1  0  0  0  0
 37 38  1  0  0  0  0
 37154  1  0  0  0  0
 37155  1  0  0  0  0
 38 39  1  0  0  0  0
 38156  1  0  0  0  0
 38157  1  0  0  0  0
 39 40  1  0  0  0  0
 39158  1  0  0  0  0
 39159  1  0  0  0  0
 40 41  1  0  0  0  0
 40160  1  0  0  0  0
 40161  1  0  0  0  0
 41 42  1  0  0  0  0
 41162  1  0  0  0  0
 41163  1  0  0  0  0
 42 43  1  0  0  0  0
 42164  1  0  0  0  0
 42165  1  0  0  0  0
 43 44  1  0  0  0  0
 43166  1  0  0  0  0
 43167  1  0  0  0  0
 44 45  1  0  0  0  0
 44168  1  0  0  0  0
 44169  1  0  0  0  0
 45 46  1  0  0  0  0
 45170  1  0  0  0  0
 45171  1  0  0  0  0
 46 47  1  0  0  0  0
 46172  1  0  0  0  0
 46173  1  0  0  0  0
 47 48  1  0  0  0  0
 47174  1  0  0  0  0
 47175  1  0  0  0  0
 48 49  1  0  0  0  0
 48176  1  0  0  0  0
 48177  1  0  0  0  0
 49 50  1  0  0  0  0
 49178  1  0  0  0  0
 49179  1  0  0  0  0
 50 51  1  0  0  0  0
 50180  1  0  0  0  0
 50181  1  0  0  0  0
 51 52  1  0  0  0  0
 51182  1  0  0  0  0
 51183  1  0  0  0  0
 52 53  1  0  0  0  0
 52184  1  0  0  0  0
 52185  1  0  0  0  0
 53 54  1  0  0  0  0
 53186  1  0  0  0  0
 53187  1  0  0  0  0
 54 55  1  0  0  0  0
 54188  1  0  0  0  0
 54189  1  0  0  0  0
 55 56  1  0  0  0  0
 55190  1  0  0  0  0
 55191  1  0  0  0  0
 56 57  1  0  0  0  0
 56192  1  0  0  0  0
 56193  1  0  0  0  0
 57 58  1  0  0  0  0
 57194  1  0  0  0  0
 57195  1  0  0  0  0
 58 59  1  0  0  0  0
 58196  1  0  0  0  0
 58197  1  0  0  0  0
 59 60  1  0  0  0  0
 59198  1  0  0  0  0
 59199  1  0  0  0  0
 60 61  1  0  0  0  0
 60200  1  0  0  0  0
 60201  1  0  0  0  0
 61 62  1  0  0  0  0
 61202  1  0  0  0  0
 61203  1  0  0  0  0
 62 63  1  0  0  0  0
 62204  1  0  0  0  0
 62205  1  0  0  0  0
 63 64  1  0  0  0  0
 63206  1  0  0  0  0
 63207  1  0  0  0  0
 64 65  1  0  0  0  0
 64208  1  0  0  0  0
 64209  1  0  0  0  0
 65 66  1  0  0  0  0
 65210  1  0  0  0  0
 65211  1  0  0  0  0
 66 67  1  0  0  0  0
 66212  1  0  0  0  0
 66213  1  0  0  0  0
 67 68  1  0  0  0  0
 67214  1  0  0  0  0
 67215  1  0  0  0  0
 68 69  1  0  0  0  0
 68216  1  0  0  0  0
 68217  1  0  0  0  0
 69 70  1  0  0  0  0
 69218  1  0  0  0  0
 69219  1  0  0  0  0
 70 71  1  0  0  0  0
 70220  1  0  0  0  0
 70221  1  0  0  0  0
 71 72  1  0  0  0  0
 71222  1  0  0  0  0
 71223  1  0  0  0  0
 72 73  1  0  0  0  0
 72224  1  0  0  0  0
 72225  1  0  0  0  0
 73 74  1  0  0  0  0
 73226  1  0  0  0  0
 73227  1  0  0  0  0
 74 75  1  0  0  0  0
 74228  1  0  0  0  0
 74229  1  0  0  0  0
 75 76  1  0  0  0  0
 75230  1  0  0  0  0
 75231  1  0  0  0  0
 76 77  1  0  0  0  0
 76232  1  0  0  0  0
 76233  1  0  0  0  0
 77 78  1  0  0  0  0
 77234  1  0  0  0  0
 77235  1  0  0  0  0
 78 79  1  0  0  0  0
 78236  1  0  0  0  0
 78237  1  0  0  0  0
 79 80  1  0  0  0  0
 79238  1  0  0  0  0
 79239  1  0  0  0  0
 80 81  1  0  0  0  0
 80240  1  0  0  0  0
 80241  1  0  0  0  0
 81242  1  0  0  0  0
 81243  1  0  0  0  0
 81244  1  0  0  0  0
M  END
$$$$
