
 OpenBabel04232216593D

 88 88  0  0  1  0  0  0  0  0999 V2000
    2.4977    0.6078   -0.1063 O   0  0  0  0  0  0  0  0  0  0  0  0
    1.8936   -0.3374    0.3531 C   0  0  0  0  0  0  0  0  0  0  0  0
    2.1350   -1.3054    1.5220 C   0  0  0  0  0  0  0  0  0  0  0  0
    0.7410   -1.9057    1.2305 C   0  0  0  0  0  0  0  0  0  0  0  0
    0.6093   -1.0367   -0.0523 C   0  0  3  0  0  0  0  0  0  0  0  0
    0.7025   -1.8006   -1.3283 C   0  0  0  0  0  0  0  0  0  0  0  0
   -0.3725   -2.6860   -1.2430 O   0  0  0  0  0  0  0  0  0  0  0  0
   -0.2717   -3.4024   -2.4445 O   0  0  0  0  0  0  0  0  0  0  0  0
   -1.2996   -4.3438   -2.4473 O   0  0  0  0  0  0  0  0  0  0  0  0
   -1.2131   -5.0361   -3.6497 O   0  0  0  0  0  0  0  0  0  0  0  0
   -2.2397   -5.9696   -3.6442 O   0  0  0  0  0  0  0  0  0  0  0  0
   -2.1486   -6.6589   -4.8422 O   0  0  0  0  0  0  0  0  0  0  0  0
   -3.1725   -7.5879   -4.8350 O   0  0  0  0  0  0  0  0  0  0  0  0
   -3.0812   -8.2756   -6.0315 O   0  0  0  0  0  0  0  0  0  0  0  0
   -4.1070   -9.1979   -6.0094 O   0  0  0  0  0  0  0  0  0  0  0  0
   -4.0383   -9.8992   -7.1977 O   0  0  0  0  0  0  0  0  0  0  0  0
   -5.0805  -10.8099   -7.1402 O   0  0  0  0  0  0  0  0  0  0  0  0
   -4.9369  -11.4618   -8.3341 C   0  0  0  0  0  0  0  0  0  0  0  0
   -5.9724  -12.3512   -8.2627 O   0  0  0  0  0  0  0  0  0  0  0  0
   -5.8407  -13.0136   -9.4694 O   0  0  0  0  0  0  0  0  0  0  0  0
   -6.8545  -13.9449   -9.4782 O   0  0  0  0  0  0  0  0  0  0  0  0
   -6.7486  -14.6193  -10.6705 O   0  0  0  0  0  0  0  0  0  0  0  0
   -7.7691  -15.5391  -10.6526 O   0  0  0  0  0  0  0  0  0  0  0  0
   -7.6720  -16.2189  -11.8401 O   0  0  0  0  0  0  0  0  0  0  0  0
   -8.6924  -17.1339  -11.8151 O   0  0  0  0  0  0  0  0  0  0  0  0
   -8.5920  -17.8096  -13.0011 O   0  0  0  0  0  0  0  0  0  0  0  0
   -9.6102  -18.7223  -12.9755 O   0  0  0  0  0  0  0  0  0  0  0  0
   -9.5067  -19.3947  -14.1608 O   0  0  0  0  0  0  0  0  0  0  0  0
  -10.5237  -20.3055  -14.1339 O   0  0  0  0  0  0  0  0  0  0  0  0
  -10.4189  -20.9761  -15.3181 O   0  0  0  0  0  0  0  0  0  0  0  0
  -11.4353  -21.8849  -15.2891 O   0  0  0  0  0  0  0  0  0  0  0  0
  -11.3302  -22.5553  -16.4735 O   0  0  0  0  0  0  0  0  0  0  0  0
  -12.3465  -23.4641  -16.4446 O   0  0  0  0  0  0  0  0  0  0  0  0
  -12.2407  -24.1331  -17.6278 O   0  0  0  0  0  0  0  0  0  0  0  0
  -13.2568  -25.0418  -17.5990 O   0  0  0  0  0  0  0  0  0  0  0  0
  -13.1505  -25.7103  -18.7821 O   0  0  0  0  0  0  0  0  0  0  0  0
  -14.1663  -26.6186  -18.7533 O   0  0  0  0  0  0  0  0  0  0  0  0
  -14.0593  -27.2844  -19.9332 O   0  0  0  0  0  0  0  0  0  0  0  0
  -15.0770  -28.1944  -19.9040 O   0  0  0  0  0  0  0  0  0  0  0  0
  -14.9721  -28.8655  -21.0893 O   0  0  0  0  0  0  0  0  0  0  0  0
  -15.9854  -29.7731  -21.0627 O   0  0  0  0  0  0  0  0  0  0  0  0
  -15.8792  -30.4418  -22.2461 O   0  0  0  0  0  0  0  0  0  0  0  0
  -16.8951  -31.3499  -22.2166 O   0  0  0  0  0  0  0  0  0  0  0  0
  -16.7890  -32.0201  -23.4021 O   0  0  0  0  0  0  0  0  0  0  0  0
  -17.8040  -32.9264  -23.3711 O   0  0  0  0  0  0  0  0  0  0  0  0
  -17.6985  -33.5958  -24.5546 O   0  0  0  0  0  0  0  0  0  0  0  0
  -18.7149  -34.5021  -24.5217 O   0  0  0  0  0  0  0  0  0  0  0  0
  -18.6092  -35.1695  -25.7023 O   0  0  0  0  0  0  0  0  0  0  0  0
  -19.6182  -36.0917  -25.7043 O   0  0  0  0  0  0  0  0  0  0  0  0
  -19.5132  -36.7445  -26.8613 O   0  0  0  0  0  0  0  0  0  0  0  0
  -20.5291  -37.6580  -26.8402 O   0  0  0  0  0  0  0  0  0  0  0  0
  -20.4286  -38.3261  -28.0146 O   0  0  0  0  0  0  0  0  0  0  0  0
  -21.4456  -39.2359  -27.9863 O   0  0  0  0  0  0  0  0  0  0  0  0
  -21.3432  -39.9072  -29.1681 O   0  0  0  0  0  0  0  0  0  0  0  0
  -22.3632  -40.8182  -29.1375 O   0  0  0  0  0  0  0  0  0  0  0  0
  -22.2615  -41.4884  -30.3168 O   0  0  0  0  0  0  0  0  0  0  0  0
  -23.2838  -42.3985  -30.2814 O   0  0  0  0  0  0  0  0  0  0  0  0
  -23.1690  -43.0597  -31.4653 O   0  0  0  0  0  0  0  0  0  0  0  0
  -24.1801  -43.9690  -31.4445 O   0  0  0  0  0  0  0  0  0  0  0  0
  -24.0702  -44.6345  -32.6281 O   0  0  0  0  0  0  0  0  0  0  0  0
  -25.0863  -45.5429  -32.5988 O   0  0  0  0  0  0  0  0  0  0  0  0
  -24.9817  -46.2119  -33.7803 O   0  0  0  0  0  0  0  0  0  0  0  0
  -25.9977  -47.1200  -33.7507 O   0  0  0  0  0  0  0  0  0  0  0  0
  -25.8901  -47.7880  -34.9348 O   0  0  0  0  0  0  0  0  0  0  0  0
  -26.9047  -48.6964  -34.9077 O   0  0  0  0  0  0  0  0  0  0  0  0
  -26.8005  -49.3668  -36.0909 O   0  0  0  0  0  0  0  0  0  0  0  0
  -27.8207  -50.2776  -36.0595 O   0  0  0  0  0  0  0  0  0  0  0  0
  -27.7194  -50.9508  -37.2429 O   0  0  0  0  0  0  0  0  0  0  0  0
  -28.7376  -51.8643  -37.2185 O   0  0  0  0  0  0  0  0  0  0  0  0
  -28.6356  -52.5397  -38.4062 O   0  0  0  0  0  0  0  0  0  0  0  0
  -29.6561  -53.4586  -38.3872 O   0  0  0  0  0  0  0  0  0  0  0  0
  -29.5584  -54.1398  -39.5789 O   0  0  0  0  0  0  0  0  0  0  0  0
  -30.5791  -55.0701  -39.5717 O   0  0  0  0  0  0  0  0  0  0  0  0
  -30.4759  -55.7586  -40.7731 O   0  0  0  0  0  0  0  0  0  0  0  0
  -31.5280  -56.6739  -40.8088 O   0  0  0  0  0  0  0  0  0  0  0  0
  -31.4563  -57.3775  -42.0310 O   0  0  0  0  0  0  0  0  0  0  0  0
  -32.4558  -58.3902  -42.0016 O   0  0  0  0  0  0  0  0  0  0  0  0
  -32.2414  -59.2337  -40.8472 O   0  0  0  0  0  0  0  0  0  0  0  0
    2.2188   -0.8024    2.4847 H   0  0  0  0  0  0  0  0  0  0  0  0
    2.9864   -1.9730    1.3625 H   0  0  0  0  0  0  0  0  0  0  0  0
   -0.0132   -1.6680    1.9880 H   0  0  0  0  0  0  0  0  0  0  0  0
    0.7149   -2.9938    1.0779 H   0  0  0  0  0  0  0  0  0  0  0  0
   -0.2792   -0.3963   -0.0599 H   0  0  0  0  0  0  0  0  0  0  0  0
    1.6326   -2.3747   -1.4257 H   0  0  0  0  0  0  0  0  0  0  0  0
    0.5687   -1.1702   -2.2142 H   0  0  0  0  0  0  0  0  0  0  0  0
   -3.9694  -11.9781   -8.3976 H   0  0  0  0  0  0  0  0  0  0  0  0
   -5.0548  -10.7768   -9.1844 H   0  0  0  0  0  0  0  0  0  0  0  0
  -33.0353  -59.7649  -41.0002 H   0  0  0  0  0  0  0  0  0  0  0  0
  1  2  2  0  0  0  0
  2  3  1  0  0  0  0
  2  5  1  0  0  0  0
  3  4  1  0  0  0  0
  3 79  1  0  0  0  0
  3 80  1  0  0  0  0
  4  5  1  0  0  0  0
  4 81  1  0  0  0  0
  4 82  1  0  0  0  0
  5  6  1  0  0  0  0
  5 83  1  0  0  0  0
  6  7  1  0  0  0  0
  6 84  1  0  0  0  0
  6 85  1  0  0  0  0
  7  8  1  0  0  0  0
  8  9  1  0  0  0  0
  9 10  1  0  0  0  0
 10 11  1  0  0  0  0
 11 12  1  0  0  0  0
 12 13  1  0  0  0  0
 13 14  1  0  0  0  0
 14 15  1  0  0  0  0
 15 16  1  0  0  0  0
 16 17  1  0  0  0  0
 17 18  1  0  0  0  0
 18 19  1  0  0  0  0
 18 86  1  0  0  0  0
 18 87  1  0  0  0  0
 19 20  1  0  0  0  0
 20 21  1  0  0  0  0
 21 22  1  0  0  0  0
 22 23  1  0  0  0  0
 23 24  1  0  0  0  0
 24 25  1  0  0  0  0
 25 26  1  0  0  0  0
 26 27  1  0  0  0  0
 27 28  1  0  0  0  0
 28 29  1  0  0  0  0
 29 30  1  0  0  0  0
 30 31  1  0  0  0  0
 31 32  1  0  0  0  0
 32 33  1  0  0  0  0
 33 34  1  0  0  0  0
 34 35  1  0  0  0  0
 35 36  1  0  0  0  0
 36 37  1  0  0  0  0
 37 38  1  0  0  0  0
 38 39  1  0  0  0  0
 39 40  1  0  0  0  0
 40 41  1  0  0  0  0
 41 42  1  0  0  0  0
 42 43  1  0  0  0  0
 43 44  1  0  0  0  0
 44 45  1  0  0  0  0
 45 46  1  0  0  0  0
 46 47  1  0  0  0  0
 47 48  1  0  0  0  0
 48 49  1  0  0  0  0
 49 50  1  0  0  0  0
 50 51  1  0  0  0  0
 51 52  1  0  0  0  0
 52 53  1  0  0  0  0
 53 54  1  0  0  0  0
 54 55  1  0  0  0  0
 55 56  1  0  0  0  0
 56 57  1  0  0  0  0
 57 58  1  0  0  0  0
 58 59  1  0  0  0  0
 59 60  1  0  0  0  0
 60 61  1  0  0  0  0
 61 62  1  0  0  0  0
 62 63  1  0  0  0  0
 63 64  1  0  0  0  0
 64 65  1  0  0  0  0
 65 66  1  0  0  0  0
 66 67  1  0  0  0  0
 67 68  1  0  0  0  0
 68 69  1  0  0  0  0
 69 70  1  0  0  0  0
 70 71  1  0  0  0  0
 71 72  1  0  0  0  0
 72 73  1  0  0  0  0
 73 74  1  0  0  0  0
 74 75  1  0  0  0  0
 75 76  1  0  0  0  0
 76 77  1  0  0  0  0
 77 78  1  0  0  0  0
 78 88  1  0  0  0  0
M  END
$$$$
