
 OpenBabel04232216583D

 92 91  0  0  0  0  0  0  0  0999 V2000
   12.4148  -12.4525  -10.4364 N   0  0  0  0  0  0  0  0  0  0  0  0
   13.8490  -12.4225  -10.5413 N   0  0  0  0  0  0  0  0  0  0  0  0
   14.2468  -12.0934  -11.9153 C   0  0  0  0  0  0  0  0  0  0  0  0
   13.8015  -10.7615  -12.3142 N   0  0  0  0  0  0  0  0  0  0  0  0
   14.3527   -9.7898  -11.4137 C   0  0  0  0  0  0  0  0  0  0  0  0
   13.8688   -8.4948  -11.8334 N   0  0  0  0  0  0  0  0  0  0  0  0
   14.3911   -7.5831  -10.9297 N   0  0  0  0  0  0  0  0  0  0  0  0
   13.9463   -6.2882  -11.2857 N   0  0  0  0  0  0  0  0  0  0  0  0
   14.5009   -5.3030  -10.4268 N   0  0  0  0  0  0  0  0  0  0  0  0
   15.9270   -5.2700  -10.5380 N   0  0  0  0  0  0  0  0  0  0  0  0
   16.3301   -4.9889  -11.8833 N   0  0  0  0  0  0  0  0  0  0  0  0
   15.8502   -3.6957  -12.2745 N   0  0  0  0  0  0  0  0  0  0  0  0
   16.3655   -2.6923  -11.3967 N   0  0  0  0  0  0  0  0  0  0  0  0
   17.7852   -2.7106  -11.4588 N   0  0  0  0  0  0  0  0  0  0  0  0
   18.2327   -2.4498  -12.7978 N   0  0  0  0  0  0  0  0  0  0  0  0
   17.7545   -1.1808  -13.2395 N   0  0  0  0  0  0  0  0  0  0  0  0
   18.2580   -0.1616  -12.3792 N   0  0  0  0  0  0  0  0  0  0  0  0
   19.7052   -0.1415  -12.4132 N   0  0  0  0  0  0  0  0  0  0  0  0
   20.1652    0.0647  -13.7512 N   0  0  0  0  0  0  0  0  0  0  0  0
   19.6691    1.3170  -14.2025 N   0  0  0  0  0  0  0  0  0  0  0  0
   20.1331    2.3309  -13.3129 N   0  0  0  0  0  0  0  0  0  0  0  0
   21.5600    2.3315  -13.2990 N   0  0  0  0  0  0  0  0  0  0  0  0
   22.0576    2.5788  -14.6306 N   0  0  0  0  0  0  0  0  0  0  0  0
   21.5767    3.8465  -15.1166 N   0  0  0  0  0  0  0  0  0  0  0  0
   22.0259    4.8937  -14.2444 N   0  0  0  0  0  0  0  0  0  0  0  0
   23.4576    4.9331  -14.2236 N   0  0  0  0  0  0  0  0  0  0  0  0
   23.9575    5.1424  -15.5472 N   0  0  0  0  0  0  0  0  0  0  0  0
   23.4520    6.3765  -16.0492 N   0  0  0  0  0  0  0  0  0  0  0  0
   23.8688    7.4349  -15.1827 N   0  0  0  0  0  0  0  0  0  0  0  0
   25.3072    7.4485  -15.1335 N   0  0  0  0  0  0  0  0  0  0  0  0
   25.8278    7.6452  -16.4628 N   0  0  0  0  0  0  0  0  0  0  0  0
   25.3342    8.8856  -16.9891 N   0  0  0  0  0  0  0  0  0  0  0  0
   25.7473    9.9611  -16.1301 N   0  0  0  0  0  0  0  0  0  0  0  0
   27.1842   10.0173  -16.0707 N   0  0  0  0  0  0  0  0  0  0  0  0
   27.7198   10.2007  -17.4011 N   0  0  0  0  0  0  0  0  0  0  0  0
   27.1916   11.4627  -17.9246 C   0  0  0  0  0  0  0  0  0  0  0  0
   27.7220   11.6731  -19.3260 C   0  0  0  0  0  0  0  0  0  0  0  0
   27.1969   12.9820  -19.8842 C   0  0  0  0  0  0  0  0  0  0  0  0
   27.7400   13.2018  -21.2821 C   0  0  0  0  0  0  0  0  0  0  0  0
   27.2173   14.5115  -21.8466 C   0  0  0  0  0  0  0  0  0  0  0  0
   27.7616   14.7272  -23.2420 C   0  0  0  0  0  0  0  0  0  0  0  0
   12.1147  -12.6366   -9.4871 H   0  0  0  0  0  0  0  0  0  0  0  0
   12.0109  -13.1296  -11.0767 H   0  0  0  0  0  0  0  0  0  0  0  0
   14.2374  -13.3435  -10.3086 H   0  0  0  0  0  0  0  0  0  0  0  0
   13.8573  -12.8668  -12.5973 H   0  0  0  0  0  0  0  0  0  0  0  0
   15.3403  -12.1762  -12.0017 H   0  0  0  0  0  0  0  0  0  0  0  0
   12.7871  -10.7674  -12.2736 H   0  0  0  0  0  0  0  0  0  0  0  0
   15.4474   -9.8285  -11.4811 H   0  0  0  0  0  0  0  0  0  0  0  0
   14.0626   -9.9911  -10.3757 H   0  0  0  0  0  0  0  0  0  0  0  0
   12.8539   -8.5376  -11.7717 H   0  0  0  0  0  0  0  0  0  0  0  0
   15.4133   -7.6312  -11.0232 H   0  0  0  0  0  0  0  0  0  0  0  0
   12.9239   -6.2427  -11.2698 H   0  0  0  0  0  0  0  0  0  0  0  0
   14.2049   -5.4107   -9.4527 H   0  0  0  0  0  0  0  0  0  0  0  0
   16.3414   -6.1483  -10.2216 H   0  0  0  0  0  0  0  0  0  0  0  0
   15.9564   -5.6984  -12.5290 H   0  0  0  0  0  0  0  0  0  0  0  0
   14.8270   -3.6772  -12.2481 H   0  0  0  0  0  0  0  0  0  0  0  0
   16.0705   -2.8893  -10.4331 H   0  0  0  0  0  0  0  0  0  0  0  0
   18.1121   -3.6401  -11.1706 H   0  0  0  0  0  0  0  0  0  0  0  0
   17.8344   -3.1441  -13.4252 H   0  0  0  0  0  0  0  0  0  0  0  0
   16.7293   -1.1977  -13.1918 H   0  0  0  0  0  0  0  0  0  0  0  0
   17.9433   -0.3758  -11.4253 H   0  0  0  0  0  0  0  0  0  0  0  0
   20.0222   -1.0696  -12.1475 H   0  0  0  0  0  0  0  0  0  0  0  0
   19.7745   -0.7003  -14.3134 H   0  0  0  0  0  0  0  0  0  0  0  0
   18.6447    1.2894  -14.1615 H   0  0  0  0  0  0  0  0  0  0  0  0
   19.8041    2.1307  -12.3657 H   0  0  0  0  0  0  0  0  0  0  0  0
   21.8841    1.4007  -13.0178 H   0  0  0  0  0  0  0  0  0  0  0  0
   21.6923    1.8206  -15.2185 H   0  0  0  0  0  0  0  0  0  0  0  0
   20.5486    3.8315  -15.1312 H   0  0  0  0  0  0  0  0  0  0  0  0
   21.6801    4.7161  -13.2946 H   0  0  0  0  0  0  0  0  0  0  0  0
   23.8387    4.0473  -13.9019 H   0  0  0  0  0  0  0  0  0  0  0  0
   23.5947    4.4035  -16.1476 H   0  0  0  0  0  0  0  0  0  0  0  0
   22.4307    6.2969  -16.0279 H   0  0  0  0  0  0  0  0  0  0  0  0
   23.5130    7.2128  -14.2448 H   0  0  0  0  0  0  0  0  0  0  0  0
   25.6084    6.5244  -14.7927 H   0  0  0  0  0  0  0  0  0  0  0  0
   25.4948    6.8778  -17.0590 H   0  0  0  0  0  0  0  0  0  0  0  0
   24.3072    8.8432  -16.9968 H   0  0  0  0  0  0  0  0  0  0  0  0
   25.3707    9.7862  -15.1910 H   0  0  0  0  0  0  0  0  0  0  0  0
   27.4997    9.1065  -15.7047 H   0  0  0  0  0  0  0  0  0  0  0  0
   27.3553    9.4350  -17.9802 H   0  0  0  0  0  0  0  0  0  0  0  0
   27.4925   12.2916  -17.2748 H   0  0  0  0  0  0  0  0  0  0  0  0
   26.0944   11.4580  -17.9792 H   0  0  0  0  0  0  0  0  0  0  0  0
   27.4162   10.8419  -19.9745 H   0  0  0  0  0  0  0  0  0  0  0  0
   28.8202   11.6871  -19.3036 H   0  0  0  0  0  0  0  0  0  0  0  0
   27.5004   13.8101  -19.2322 H   0  0  0  0  0  0  0  0  0  0  0  0
   26.1014   12.9619  -19.9086 H   0  0  0  0  0  0  0  0  0  0  0  0
   27.4380   12.3703  -21.9304 H   0  0  0  0  0  0  0  0  0  0  0  0
   28.8362   13.2196  -21.2539 H   0  0  0  0  0  0  0  0  0  0  0  0
   27.5208   15.3426  -21.1996 H   0  0  0  0  0  0  0  0  0  0  0  0
   26.1218   14.4927  -21.8766 H   0  0  0  0  0  0  0  0  0  0  0  0
   28.8555   14.7631  -23.2237 H   0  0  0  0  0  0  0  0  0  0  0  0
   27.3875   15.6685  -23.6507 H   0  0  0  0  0  0  0  0  0  0  0  0
   27.4526   13.9108  -23.9026 H   0  0  0  0  0  0  0  0  0  0  0  0
  1  2  1  0  0  0  0
  1 42  1  0  0  0  0
  1 43  1  0  0  0  0
  2  3  1  0  0  0  0
  2 44  1  0  0  0  0
  3  4  1  0  0  0  0
  3 45  1  0  0  0  0
  3 46  1  0  0  0  0
  4  5  1  0  0  0  0
  4 47  1  0  0  0  0
  5  6  1  0  0  0  0
  5 48  1  0  0  0  0
  5 49  1  0  0  0  0
  6  7  1  0  0  0  0
  6 50  1  0  0  0  0
  7  8  1  0  0  0  0
  7 51  1  0  0  0  0
  8  9  1  0  0  0  0
  8 52  1  0  0  0  0
  9 10  1  0  0  0  0
  9 53  1  0  0  0  0
 10 11  1  0  0  0  0
 10 54  1  0  0  0  0
 11 12  1  0  0  0  0
 11 55  1  0  0  0  0
 12 13  1  0  0  0  0
 12 56  1  0  0  0  0
 13 14  1  0  0  0  0
 13 57  1  0  0  0  0
 14 15  1  0  0  0  0
 14 58  1  0  0  0  0
 15 16  1  0  0  0  0
 15 59  1  0  0  0  0
 16 17  1  0  0  0  0
 16 60  1  0  0  0  0
 17 18  1  0  0  0  0
 17 61  1  0  0  0  0
 18 19  1  0  0  0  0
 18 62  1  0  0  0  0
 19 20  1  0  0  0  0
 19 63  1  0  0  0  0
 20 21  1  0  0  0  0
 20 64  1  0  0  0  0
 21 22  1  0  0  0  0
 21 65  1  0  0  0  0
 22 23  1  0  0  0  0
 22 66  1  0  0  0  0
 23 24  1  0  0  0  0
 23 67  1  0  0  0  0
 24 25  1  0  0  0  0
 24 68  1  0  0  0  0
 25 26  1  0  0  0  0
 25 69  1  0  0  0  0
 26 27  1  0  0  0  0
 26 70  1  0  0  0  0
 27 28  1  0  0  0  0
 27 71  1  0  0  0  0
 28 29  1  0  0  0  0
 28 72  1  0  0  0  0
 29 30  1  0  0  0  0
 29 73  1  0  0  0  0
 30 31  1  0  0  0  0
 30 74  1  0  0  0  0
 31 32  1  0  0  0  0
 31 75  1  0  0  0  0
 32 33  1  0  0  0  0
 32 76  1  0  0  0  0
 33 34  1  0  0  0  0
 33 77  1  0  0  0  0
 34 35  1  0  0  0  0
 34 78  1  0  0  0  0
 35 36  1  0  0  0  0
 35 79  1  0  0  0  0
 36 37  1  0  0  0  0
 36 80  1  0  0  0  0
 36 81  1  0  0  0  0
 37 38  1  0  0  0  0
 37 82  1  0  0  0  0
 37 83  1  0  0  0  0
 38 39  1  0  0  0  0
 38 84  1  0  0  0  0
 38 85  1  0  0  0  0
 39 40  1  0  0  0  0
 39 86  1  0  0  0  0
 39 87  1  0  0  0  0
 40 41  1  0  0  0  0
 40 88  1  0  0  0  0
 40 89  1  0  0  0  0
 41 90  1  0  0  0  0
 41 91  1  0  0  0  0
 41 92  1  0  0  0  0
M  END
$$$$
