
 OpenBabel04232216523D

 55 56  0  0  1  0  0  0  0  0999 V2000
    1.1947    0.3855   -1.4284 C   0  0  0  0  0  0  0  0  0  0  0  0
    2.4852   -0.0503   -0.7674 C   0  0  0  0  0  0  0  0  0  0  0  0
    2.7517   -1.5580   -0.9204 C   0  0  0  0  0  0  0  0  0  0  0  0
    4.0482   -1.8658   -0.1957 C   0  0  0  0  0  0  0  0  0  0  0  0
    4.6550   -3.2690   -0.2627 C   0  0  3  0  0  0  0  0  0  0  0  0
    4.9284   -3.9287   -1.6266 C   0  0  0  0  0  0  0  0  0  0  0  0
    4.0204   -5.0282   -2.2340 C   0  0  0  0  0  0  0  0  0  0  0  0
    3.9387   -6.4181   -1.6956 N   0  0  0  0  0  0  0  0  0  0  0  0
    2.7701   -6.6868   -0.8386 C   0  0  0  0  0  0  0  0  0  0  0  0
    1.3860   -6.5626   -1.4920 C   0  0  0  0  0  0  0  0  0  0  0  0
    1.1331   -7.5881   -2.5892 C   0  0  0  0  0  0  0  0  0  0  0  0
   -0.2375   -7.4196   -3.2116 C   0  0  0  0  0  0  0  0  0  0  0  0
   -1.0747   -6.6051   -2.8497 O   0  0  0  0  0  0  0  0  0  0  0  0
    6.2691   -4.0887   -1.7977 C   0  0  0  0  0  0  0  0  0  0  0  0
    6.8449   -5.1041   -0.8331 C   0  0  0  0  0  0  0  0  0  0  0  0
    5.9544   -5.9377   -0.2314 C   0  0  0  0  0  0  0  0  0  0  0  0
    5.2302   -6.9596   -1.1370 C   0  0  3  0  0  0  0  0  0  0  0  0
    6.1020   -7.5275   -2.3060 C   0  0  0  0  0  0  0  0  0  0  0  0
    7.4596   -8.1512   -1.9103 C   0  0  0  0  0  0  0  0  0  0  0  0
    7.3597   -9.4122   -1.0636 C   0  0  0  0  0  0  0  0  0  0  0  0
    8.7283   -9.9499   -0.6923 C   0  0  0  0  0  0  0  0  0  0  0  0
    9.7977   -9.4394   -1.0132 O   0  0  0  0  0  0  0  0  0  0  0  0
    5.0707   -5.4524    0.8629 C   0  0  0  0  0  0  0  0  0  0  0  0
    4.3916   -4.2823    0.8254 C   0  0  0  0  0  0  0  0  0  0  0  0
    1.0628    1.4667   -1.3139 H   0  0  0  0  0  0  0  0  0  0  0  0
    0.3369   -0.1130   -0.9689 H   0  0  0  0  0  0  0  0  0  0  0  0
    1.2068    0.1552   -2.4974 H   0  0  0  0  0  0  0  0  0  0  0  0
    2.4508    0.2169    0.2967 H   0  0  0  0  0  0  0  0  0  0  0  0
    3.3164    0.5190   -1.2049 H   0  0  0  0  0  0  0  0  0  0  0  0
    2.8353   -1.8094   -1.9832 H   0  0  0  0  0  0  0  0  0  0  0  0
    1.9283   -2.1392   -0.4943 H   0  0  0  0  0  0  0  0  0  0  0  0
    3.9395   -1.5869    0.8616 H   0  0  0  0  0  0  0  0  0  0  0  0
    4.8102   -1.1800   -0.5996 H   0  0  0  0  0  0  0  0  0  0  0  0
    5.6524   -2.9537    0.1046 H   0  0  0  0  0  0  0  0  0  0  0  0
    4.3744   -5.1665   -3.2681 H   0  0  0  0  0  0  0  0  0  0  0  0
    3.0237   -4.5993   -2.3832 H   0  0  0  0  0  0  0  0  0  0  0  0
    2.7465   -6.0382    0.0364 H   0  0  0  0  0  0  0  0  0  0  0  0
    2.8364   -7.7126   -0.4502 H   0  0  0  0  0  0  0  0  0  0  0  0
    1.2173   -5.5494   -1.8704 H   0  0  0  0  0  0  0  0  0  0  0  0
    0.6309   -6.7045   -0.7058 H   0  0  0  0  0  0  0  0  0  0  0  0
    1.1836   -8.6048   -2.1847 H   0  0  0  0  0  0  0  0  0  0  0  0
    1.8731   -7.4970   -3.3890 H   0  0  0  0  0  0  0  0  0  0  0  0
   -0.4539   -8.1040   -4.0473 H   0  0  0  0  0  0  0  0  0  0  0  0
    6.9099   -3.2066   -1.6822 H   0  0  0  0  0  0  0  0  0  0  0  0
    7.6814   -5.5049   -1.4067 H   0  0  0  0  0  0  0  0  0  0  0  0
    5.0016   -7.8349   -0.5134 H   0  0  0  0  0  0  0  0  0  0  0  0
    6.3056   -6.7357   -3.0394 H   0  0  0  0  0  0  0  0  0  0  0  0
    5.5236   -8.2865   -2.8470 H   0  0  0  0  0  0  0  0  0  0  0  0
    8.0934   -7.4388   -1.3766 H   0  0  0  0  0  0  0  0  0  0  0  0
    8.0108   -8.3782   -2.8320 H   0  0  0  0  0  0  0  0  0  0  0  0
    6.8301  -10.1972   -1.6115 H   0  0  0  0  0  0  0  0  0  0  0  0
    6.8278   -9.2161   -0.1278 H   0  0  0  0  0  0  0  0  0  0  0  0
    8.7121  -10.8695   -0.0809 H   0  0  0  0  0  0  0  0  0  0  0  0
    4.8743   -6.1641    1.6609 H   0  0  0  0  0  0  0  0  0  0  0  0
    3.6911   -4.0283    1.6143 H   0  0  0  0  0  0  0  0  0  0  0  0
  1  2  1  0  0  0  0
  1 25  1  0  0  0  0
  1 26  1  0  0  0  0
  1 27  1  0  0  0  0
  2  3  1  0  0  0  0
  2 28  1  0  0  0  0
  2 29  1  0  0  0  0
  3  4  1  0  0  0  0
  3 30  1  0  0  0  0
  3 31  1  0  0  0  0
  4  5  1  0  0  0  0
  4 32  1  0  0  0  0
  4 33  1  0  0  0  0
  5  6  1  0  0  0  0
  5 24  1  0  0  0  0
  5 34  1  0  0  0  0
  6  7  1  0  0  0  0
  6 14  2  0  0  0  0
  7  8  1  0  0  0  0
  7 35  1  0  0  0  0
  7 36  1  0  0  0  0
  8  9  1  0  0  0  0
  8 17  1  0  0  0  0
  9 10  1  0  0  0  0
  9 37  1  0  0  0  0
  9 38  1  0  0  0  0
 10 11  1  0  0  0  0
 10 39  1  0  0  0  0
 10 40  1  0  0  0  0
 11 12  1  0  0  0  0
 11 41  1  0  0  0  0
 11 42  1  0  0  0  0
 12 13  2  0  0  0  0
 12 43  1  0  0  0  0
 14 15  1  0  0  0  0
 14 44  1  0  0  0  0
 15 16  2  0  0  0  0
 15 45  1  0  0  0  0
 16 17  1  0  0  0  0
 16 23  1  0  0  0  0
 17 18  1  0  0  0  0
 17 46  1  0  0  0  0
 18 19  1  0  0  0  0
 18 47  1  0  0  0  0
 18 48  1  0  0  0  0
 19 20  1  0  0  0  0
 19 49  1  0  0  0  0
 19 50  1  0  0  0  0
 20 21  1  0  0  0  0
 20 51  1  0  0  0  0
 20 52  1  0  0  0  0
 21 22  2  0  0  0  0
 21 53  1  0  0  0  0
 23 24  2  0  0  0  0
 23 54  1  0  0  0  0
 24 55  1  0  0  0  0
M  END
$$$$
