
 OpenBabel04232216483D

 65 68  0  0  1  0  0  0  0  0999 V2000
    1.8115   -2.1661   -0.0186 C   0  0  0  0  0  0  0  0  0  0  0  0
    1.3169   -0.7392   -0.0324 C   0  0  0  0  0  0  0  0  0  0  0  0
    2.2592    0.3045   -0.0122 C   0  0  0  0  0  0  0  0  0  0  0  0
    1.8507    1.6438   -0.0142 C   0  0  0  0  0  0  0  0  0  0  0  0
    0.4872    1.9786   -0.0247 C   0  0  0  0  0  0  0  0  0  0  0  0
    0.0456    3.4495    0.0987 C   0  0  3  0  0  0  0  0  0  0  0  0
   -0.0224    3.8150    1.6040 C   0  0  0  0  0  0  0  0  0  0  0  0
    1.0097    4.8134    2.1236 C   0  0  0  0  0  0  0  0  0  0  0  0
    0.5677    6.2612    1.9324 C   0  0  0  0  0  0  0  0  0  0  0  0
    0.6594    6.7607    0.4991 C   0  0  0  0  0  0  0  0  0  0  0  0
   -0.0607    5.8997   -0.5306 C   0  0  0  0  0  0  0  0  0  0  0  0
    0.6443    4.5434   -0.8456 C   0  0  3  0  0  0  0  0  0  0  0  0
    0.3966    4.1618   -2.3380 C   0  0  0  0  0  0  0  0  0  0  0  0
    0.9577    5.1865   -3.3329 C   0  0  0  0  0  0  0  0  0  0  0  0
    0.6167    4.8640   -4.7884 C   0  0  0  0  0  0  0  0  0  0  0  0
    1.1133    6.0087   -5.6736 C   0  0  0  0  0  0  0  0  0  0  0  0
    0.8363    5.7738   -7.1557 C   0  0  0  0  0  0  0  0  0  0  0  0
    1.3786    6.9285   -7.9619 C   0  0  0  0  0  0  0  0  0  0  0  0
    2.6971    6.9027   -8.4352 C   0  0  0  0  0  0  0  0  0  0  0  0
    3.2251    8.0014   -9.1132 C   0  0  0  0  0  0  0  0  0  0  0  0
    2.4424    9.1359   -9.3205 C   0  0  0  0  0  0  0  0  0  0  0  0
    1.1307    9.1728   -8.8505 C   0  0  0  0  0  0  0  0  0  0  0  0
    0.6004    8.0746   -8.1729 C   0  0  0  0  0  0  0  0  0  0  0  0
   -0.4910    0.9255   -0.0203 C   0  0  0  0  0  0  0  0  0  0  0  0
   -1.8908    1.1580    0.0342 C   0  0  0  0  0  0  0  0  0  0  0  0
   -2.8337    0.1363    0.0023 C   0  0  0  0  0  0  0  0  0  0  0  0
   -2.4129   -1.1748   -0.0475 C   0  0  0  0  0  0  0  0  0  0  0  0
   -1.0470   -1.4581   -0.0576 C   0  0  0  0  0  0  0  0  0  0  0  0
   -0.0656   -0.4375   -0.0411 C   0  0  0  0  0  0  0  0  0  0  0  0
    2.9045   -2.2256   -0.0112 H   0  0  0  0  0  0  0  0  0  0  0  0
    1.4631   -2.6984   -0.9105 H   0  0  0  0  0  0  0  0  0  0  0  0
    1.4524   -2.6876    0.8766 H   0  0  0  0  0  0  0  0  0  0  0  0
    3.3191    0.0749    0.0167 H   0  0  0  0  0  0  0  0  0  0  0  0
    2.6142    2.4172    0.0307 H   0  0  0  0  0  0  0  0  0  0  0  0
   -0.9922    3.4645   -0.2362 H   0  0  0  0  0  0  0  0  0  0  0  0
    0.0490    2.9084    2.2194 H   0  0  0  0  0  0  0  0  0  0  0  0
   -1.0284    4.2070    1.8105 H   0  0  0  0  0  0  0  0  0  0  0  0
    2.0004    4.6366    1.6919 H   0  0  0  0  0  0  0  0  0  0  0  0
    1.1099    4.6527    3.2047 H   0  0  0  0  0  0  0  0  0  0  0  0
    1.1913    6.9100    2.5573 H   0  0  0  0  0  0  0  0  0  0  0  0
   -0.4598    6.3869    2.2944 H   0  0  0  0  0  0  0  0  0  0  0  0
    1.7089    6.8851    0.2096 H   0  0  0  0  0  0  0  0  0  0  0  0
    0.2143    7.7646    0.4694 H   0  0  0  0  0  0  0  0  0  0  0  0
   -0.1503    6.5258   -1.4175 H   0  0  0  0  0  0  0  0  0  0  0  0
   -1.0997    5.7290   -0.2208 H   0  0  0  0  0  0  0  0  0  0  0  0
    1.7277    4.6327   -0.6988 H   0  0  0  0  0  0  0  0  0  0  0  0
   -0.6812    4.0468   -2.5082 H   0  0  0  0  0  0  0  0  0  0  0  0
    0.8572    3.1902   -2.5527 H   0  0  0  0  0  0  0  0  0  0  0  0
    2.0442    5.2591   -3.2099 H   0  0  0  0  0  0  0  0  0  0  0  0
    0.5573    6.1842   -3.1408 H   0  0  0  0  0  0  0  0  0  0  0  0
   -0.4686    4.7546   -4.9056 H   0  0  0  0  0  0  0  0  0  0  0  0
    1.0814    3.9183   -5.0856 H   0  0  0  0  0  0  0  0  0  0  0  0
    2.1904    6.1454   -5.5140 H   0  0  0  0  0  0  0  0  0  0  0  0
    0.6329    6.9450   -5.3581 H   0  0  0  0  0  0  0  0  0  0  0  0
   -0.2406    5.6687   -7.3351 H   0  0  0  0  0  0  0  0  0  0  0  0
    1.2996    4.8369   -7.4878 H   0  0  0  0  0  0  0  0  0  0  0  0
    3.3247    6.0316   -8.2615 H   0  0  0  0  0  0  0  0  0  0  0  0
    4.2510    7.9756   -9.4706 H   0  0  0  0  0  0  0  0  0  0  0  0
    2.8572    9.9941   -9.8416 H   0  0  0  0  0  0  0  0  0  0  0  0
    0.5235   10.0611   -9.0026 H   0  0  0  0  0  0  0  0  0  0  0  0
   -0.4179    8.1236   -7.7937 H   0  0  0  0  0  0  0  0  0  0  0  0
   -2.2976    2.1598    0.1051 H   0  0  0  0  0  0  0  0  0  0  0  0
   -3.8910    0.3809    0.0272 H   0  0  0  0  0  0  0  0  0  0  0  0
   -3.1387   -1.9821   -0.0678 H   0  0  0  0  0  0  0  0  0  0  0  0
   -0.7625   -2.5038   -0.0709 H   0  0  0  0  0  0  0  0  0  0  0  0
  1  2  1  0  0  0  0
  1 30  1  0  0  0  0
  1 31  1  0  0  0  0
  1 32  1  0  0  0  0
  2  3  1  0  0  0  0
  2 29  2  0  0  0  0
  3  4  2  0  0  0  0
  3 33  1  0  0  0  0
  4  5  1  0  0  0  0
  4 34  1  0  0  0  0
  5  6  1  0  0  0  0
  5 24  2  0  0  0  0
  6  7  1  0  0  0  0
  6 12  1  0  0  0  0
  6 35  1  0  0  0  0
  7  8  1  0  0  0  0
  7 36  1  0  0  0  0
  7 37  1  0  0  0  0
  8  9  1  0  0  0  0
  8 38  1  0  0  0  0
  8 39  1  0  0  0  0
  9 10  1  0  0  0  0
  9 40  1  0  0  0  0
  9 41  1  0  0  0  0
 10 11  1  0  0  0  0
 10 42  1  0  0  0  0
 10 43  1  0  0  0  0
 11 12  1  0  0  0  0
 11 44  1  0  0  0  0
 11 45  1  0  0  0  0
 12 13  1  0  0  0  0
 12 46  1  0  0  0  0
 13 14  1  0  0  0  0
 13 47  1  0  0  0  0
 13 48  1  0  0  0  0
 14 15  1  0  0  0  0
 14 49  1  0  0  0  0
 14 50  1  0  0  0  0
 15 16  1  0  0  0  0
 15 51  1  0  0  0  0
 15 52  1  0  0  0  0
 16 17  1  0  0  0  0
 16 53  1  0  0  0  0
 16 54  1  0  0  0  0
 17 18  1  0  0  0  0
 17 55  1  0  0  0  0
 17 56  1  0  0  0  0
 18 19  1  0  0  0  0
 18 23  2  0  0  0  0
 19 20  2  0  0  0  0
 19 57  1  0  0  0  0
 20 21  1  0  0  0  0
 20 58  1  0  0  0  0
 21 22  2  0  0  0  0
 21 59  1  0  0  0  0
 22 23  1  0  0  0  0
 22 60  1  0  0  0  0
 23 61  1  0  0  0  0
 24 25  1  0  0  0  0
 24 29  1  0  0  0  0
 25 26  2  0  0  0  0
 25 62  1  0  0  0  0
 26 27  1  0  0  0  0
 26 63  1  0  0  0  0
 27 28  2  0  0  0  0
 27 64  1  0  0  0  0
 28 29  1  0  0  0  0
 28 65  1  0  0  0  0
M  END
$$$$
