
 OpenBabel04232216553D

236236  0  0  1  0  0  0  0  0999 V2000
    0.9851    0.0349   -0.0951 C   0  0  0  0  0  0  0  0  0  0  0  0
    2.4377   -0.0355   -0.0012 N   0  0  0  0  0  0  0  0  0  0  0  0
    3.0762   -0.8025   -1.0652 C   0  0  0  0  0  0  0  0  0  0  0  0
    3.1148    0.7073   -1.0665 C   0  0  3  0  0  0  0  0  0  0  0  0
    4.3710    1.4412   -0.7170 C   0  0  0  0  0  0  0  0  0  0  0  0
    4.1400    2.9497   -0.7872 C   0  0  0  0  0  0  0  0  0  0  0  0
    5.3981    3.7260   -0.4313 C   0  0  0  0  0  0  0  0  0  0  0  0
    5.1349    5.2247   -0.5128 C   0  0  0  0  0  0  0  0  0  0  0  0
    6.3926    5.9995   -0.1570 C   0  0  0  0  0  0  0  0  0  0  0  0
    6.1326    7.4952   -0.2374 C   0  0  0  0  0  0  0  0  0  0  0  0
    7.3932    8.2606    0.1209 C   0  0  0  0  0  0  0  0  0  0  0  0
    7.1356    9.7549    0.0410 C   0  0  0  0  0  0  0  0  0  0  0  0
    8.3971   10.5177    0.3996 C   0  0  0  0  0  0  0  0  0  0  0  0
    8.1374   12.0112    0.3199 C   0  0  0  0  0  0  0  0  0  0  0  0
    9.3984   12.7740    0.6787 C   0  0  0  0  0  0  0  0  0  0  0  0
    9.1383   14.2663    0.5983 C   0  0  0  0  0  0  0  0  0  0  0  0
   10.3989   15.0290    0.9589 C   0  0  0  0  0  0  0  0  0  0  0  0
   10.1386   16.5210    0.8785 C   0  0  0  0  0  0  0  0  0  0  0  0
   11.3991   17.2835    1.2392 C   0  0  0  0  0  0  0  0  0  0  0  0
   11.1388   18.7755    1.1588 C   0  0  0  0  0  0  0  0  0  0  0  0
   12.3991   19.5378    1.5194 C   0  0  0  0  0  0  0  0  0  0  0  0
   12.1390   21.0299    1.4390 C   0  0  0  0  0  0  0  0  0  0  0  0
   13.3995   21.7923    1.7996 C   0  0  0  0  0  0  0  0  0  0  0  0
   13.1391   23.2842    1.7191 C   0  0  0  0  0  0  0  0  0  0  0  0
   14.3996   24.0464    2.0796 C   0  0  0  0  0  0  0  0  0  0  0  0
   14.1394   25.5387    1.9994 C   0  0  0  0  0  0  0  0  0  0  0  0
   15.3992   26.3011    2.3619 C   0  0  0  0  0  0  0  0  0  0  0  0
   15.1390   27.7930    2.2815 C   0  0  0  0  0  0  0  0  0  0  0  0
   16.3994   28.5554    2.6422 C   0  0  0  0  0  0  0  0  0  0  0  0
   16.1385   30.0474    2.5637 C   0  0  0  0  0  0  0  0  0  0  0  0
   17.3991   30.8098    2.9243 C   0  0  0  0  0  0  0  0  0  0  0  0
   17.1375   32.3018    2.8478 C   0  0  0  0  0  0  0  0  0  0  0  0
   18.3987   33.0642    3.2065 C   0  0  0  0  0  0  0  0  0  0  0  0
   18.1372   34.5562    3.1299 C   0  0  0  0  0  0  0  0  0  0  0  0
   19.3983   35.3186    3.4887 C   0  0  0  0  0  0  0  0  0  0  0  0
   19.1368   36.8105    3.4121 C   0  0  0  0  0  0  0  0  0  0  0  0
   20.3979   37.5729    3.7708 C   0  0  0  0  0  0  0  0  0  0  0  0
   20.1364   39.0649    3.6941 C   0  0  0  0  0  0  0  0  0  0  0  0
   21.3975   39.8273    4.0530 C   0  0  0  0  0  0  0  0  0  0  0  0
   21.1354   41.3193    3.9784 C   0  0  0  0  0  0  0  0  0  0  0  0
   22.3972   42.0817    4.3350 C   0  0  0  0  0  0  0  0  0  0  0  0
   22.1351   43.5737    4.2604 C   0  0  0  0  0  0  0  0  0  0  0  0
   23.3967   44.3361    4.6173 C   0  0  0  0  0  0  0  0  0  0  0  0
   23.1347   45.8281    4.5427 C   0  0  0  0  0  0  0  0  0  0  0  0
   24.3970   46.5903    4.8981 C   0  0  0  0  0  0  0  0  0  0  0  0
   24.1343   48.0824    4.8248 C   0  0  0  0  0  0  0  0  0  0  0  0
   25.3970   48.8448    5.1777 C   0  0  0  0  0  0  0  0  0  0  0  0
   25.1350   50.3368    5.1031 C   0  0  0  0  0  0  0  0  0  0  0  0
   26.3984   51.0992    5.4539 C   0  0  0  0  0  0  0  0  0  0  0  0
   26.1357   52.5912    5.3814 C   0  0  0  0  0  0  0  0  0  0  0  0
   27.3990   53.3536    5.7323 C   0  0  0  0  0  0  0  0  0  0  0  0
   27.1364   54.8456    5.6596 C   0  0  0  0  0  0  0  0  0  0  0  0
   28.3991   55.6080    6.0125 C   0  0  0  0  0  0  0  0  0  0  0  0
   28.1366   57.0999    5.9398 C   0  0  0  0  0  0  0  0  0  0  0  0
   29.3993   57.8623    6.2927 C   0  0  0  0  0  0  0  0  0  0  0  0
   29.1373   59.3543    6.2181 C   0  0  0  0  0  0  0  0  0  0  0  0
   30.4000   60.1167    6.5709 C   0  0  0  0  0  0  0  0  0  0  0  0
   30.1384   61.6086    6.4943 C   0  0  0  0  0  0  0  0  0  0  0  0
   31.4017   62.3712    6.8453 C   0  0  0  0  0  0  0  0  0  0  0  0
   31.1398   63.8631    6.7707 C   0  0  0  0  0  0  0  0  0  0  0  0
   32.4025   64.6256    7.1236 C   0  0  0  0  0  0  0  0  0  0  0  0
   32.1402   66.1178    7.0510 C   0  0  0  0  0  0  0  0  0  0  0  0
   33.4032   66.8801    7.4019 C   0  0  0  0  0  0  0  0  0  0  0  0
   33.1415   68.3724    7.3273 C   0  0  0  0  0  0  0  0  0  0  0  0
   34.4059   69.1338    7.6765 C   0  0  0  0  0  0  0  0  0  0  0  0
   34.1432   70.6267    7.6038 C   0  0  0  0  0  0  0  0  0  0  0  0
   35.4071   71.3899    7.9529 C   0  0  0  0  0  0  0  0  0  0  0  0
   35.1415   72.8810    7.8816 C   0  0  0  0  0  0  0  0  0  0  0  0
   36.4065   73.6434    8.2288 C   0  0  0  0  0  0  0  0  0  0  0  0
   36.1453   75.1358    8.1598 C   0  0  0  0  0  0  0  0  0  0  0  0
   37.4099   75.8985    8.5049 C   0  0  0  0  0  0  0  0  0  0  0  0
   37.1470   77.3921    8.4382 C   0  0  0  0  0  0  0  0  0  0  0  0
   38.4106   78.1571    8.7834 C   0  0  0  0  0  0  0  0  0  0  0  0
   38.1484   79.6524    8.7190 C   0  0  0  0  0  0  0  0  0  0  0  0
   39.4136   80.4188    9.0659 C   0  0  0  0  0  0  0  0  0  0  0  0
   39.1538   81.9162    9.0035 C   0  0  0  0  0  0  0  0  0  0  0  0
   40.4187   82.6854    9.3498 C   0  0  0  0  0  0  0  0  0  0  0  0
   40.1660   84.1885    9.2892 C   0  0  0  0  0  0  0  0  0  0  0  0
   41.4293   84.9536    9.6372 C   0  0  0  0  0  0  0  0  0  0  0  0
    0.5547   -0.5287    0.7392 H   0  0  0  0  0  0  0  0  0  0  0  0
    0.5704   -0.3802   -1.0210 H   0  0  0  0  0  0  0  0  0  0  0  0
    0.6410    1.0709    0.0005 H   0  0  0  0  0  0  0  0  0  0  0  0
    2.4579   -1.2884   -1.8111 H   0  0  0  0  0  0  0  0  0  0  0  0
    3.9678   -1.3464   -0.7858 H   0  0  0  0  0  0  0  0  0  0  0  0
    2.5262    1.2024   -1.8309 H   0  0  0  0  0  0  0  0  0  0  0  0
    5.1686    1.1585   -1.4128 H   0  0  0  0  0  0  0  0  0  0  0  0
    4.7170    1.1725    0.2921 H   0  0  0  0  0  0  0  0  0  0  0  0
    3.3239    3.2316   -0.1102 H   0  0  0  0  0  0  0  0  0  0  0  0
    3.8173    3.2228   -1.8002 H   0  0  0  0  0  0  0  0  0  0  0  0
    6.2101    3.4575   -1.1180 H   0  0  0  0  0  0  0  0  0  0  0  0
    5.7277    3.4634    0.5812 H   0  0  0  0  0  0  0  0  0  0  0  0
    4.3233    5.4999    0.1721 H   0  0  0  0  0  0  0  0  0  0  0  0
    4.8082    5.4927   -1.5251 H   0  0  0  0  0  0  0  0  0  0  0  0
    7.2048    5.7280   -0.8422 H   0  0  0  0  0  0  0  0  0  0  0  0
    6.7199    5.7351    0.8558 H   0  0  0  0  0  0  0  0  0  0  0  0
    5.3217    7.7715    0.4477 H   0  0  0  0  0  0  0  0  0  0  0  0
    5.8081    7.7650   -1.2499 H   0  0  0  0  0  0  0  0  0  0  0  0
    8.2059    7.9865   -0.5632 H   0  0  0  0  0  0  0  0  0  0  0  0
    7.7189    7.9933    1.1341 H   0  0  0  0  0  0  0  0  0  0  0  0
    6.3243   10.0313    0.7260 H   0  0  0  0  0  0  0  0  0  0  0  0
    6.8115   10.0245   -0.9715 H   0  0  0  0  0  0  0  0  0  0  0  0
    9.2086   10.2431   -0.2846 H   0  0  0  0  0  0  0  0  0  0  0  0
    8.7217   10.2497    1.4130 H   0  0  0  0  0  0  0  0  0  0  0  0
    7.3261   12.2870    1.0048 H   0  0  0  0  0  0  0  0  0  0  0  0
    7.8129   12.2805   -0.6928 H   0  0  0  0  0  0  0  0  0  0  0  0
   10.2100   12.4987   -0.0061 H   0  0  0  0  0  0  0  0  0  0  0  0
    9.7231   12.5052    1.6915 H   0  0  0  0  0  0  0  0  0  0  0  0
    8.3260   14.5419    1.2821 H   0  0  0  0  0  0  0  0  0  0  0  0
    8.8152   14.5357   -0.4148 H   0  0  0  0  0  0  0  0  0  0  0  0
   11.2113   14.7536    0.2752 H   0  0  0  0  0  0  0  0  0  0  0  0
   10.7221   14.7598    1.9721 H   0  0  0  0  0  0  0  0  0  0  0  0
    9.3262   16.7965    1.5623 H   0  0  0  0  0  0  0  0  0  0  0  0
    9.8155   16.7904   -0.1346 H   0  0  0  0  0  0  0  0  0  0  0  0
   12.2115   17.0081    0.5554 H   0  0  0  0  0  0  0  0  0  0  0  0
   11.7223   17.0142    2.2523 H   0  0  0  0  0  0  0  0  0  0  0  0
   10.3264   19.0509    1.8426 H   0  0  0  0  0  0  0  0  0  0  0  0
   10.8156   19.0448    0.1456 H   0  0  0  0  0  0  0  0  0  0  0  0
   13.2117   19.2625    0.8356 H   0  0  0  0  0  0  0  0  0  0  0  0
   12.7225   19.2686    2.5326 H   0  0  0  0  0  0  0  0  0  0  0  0
   11.3266   21.3053    2.1228 H   0  0  0  0  0  0  0  0  0  0  0  0
   11.8158   21.2992    0.4258 H   0  0  0  0  0  0  0  0  0  0  0  0
   14.2118   21.5169    1.1158 H   0  0  0  0  0  0  0  0  0  0  0  0
   13.7226   21.5230    2.8127 H   0  0  0  0  0  0  0  0  0  0  0  0
   12.3267   23.5597    2.4029 H   0  0  0  0  0  0  0  0  0  0  0  0
   12.8160   23.5536    0.7060 H   0  0  0  0  0  0  0  0  0  0  0  0
   15.2121   23.7712    1.3961 H   0  0  0  0  0  0  0  0  0  0  0  0
   14.7227   23.7773    3.0930 H   0  0  0  0  0  0  0  0  0  0  0  0
   13.3259   25.8138    2.6821 H   0  0  0  0  0  0  0  0  0  0  0  0
   13.8175   25.8080    0.9858 H   0  0  0  0  0  0  0  0  0  0  0  0
   16.2126   26.0258    1.6792 H   0  0  0  0  0  0  0  0  0  0  0  0
   15.7210   26.0315    3.3755 H   0  0  0  0  0  0  0  0  0  0  0  0
   14.3265   28.0684    2.9653 H   0  0  0  0  0  0  0  0  0  0  0  0
   14.8158   28.0624    1.2684 H   0  0  0  0  0  0  0  0  0  0  0  0
   17.2114   28.2811    1.9575 H   0  0  0  0  0  0  0  0  0  0  0  0
   16.7234   28.2851    3.6548 H   0  0  0  0  0  0  0  0  0  0  0  0
   15.3266   30.3217    3.2484 H   0  0  0  0  0  0  0  0  0  0  0  0
   15.8146   30.3178    1.5511 H   0  0  0  0  0  0  0  0  0  0  0  0
   18.2106   30.5365    2.2387 H   0  0  0  0  0  0  0  0  0  0  0  0
   17.7239   30.5384    3.9364 H   0  0  0  0  0  0  0  0  0  0  0  0
   16.3270   32.5753    3.5344 H   0  0  0  0  0  0  0  0  0  0  0  0
   16.8115   32.5731    1.8361 H   0  0  0  0  0  0  0  0  0  0  0  0
   19.2093   32.7907    2.5198 H   0  0  0  0  0  0  0  0  0  0  0  0
   18.7248   32.7929    4.2182 H   0  0  0  0  0  0  0  0  0  0  0  0
   17.3266   34.8297    3.8166 H   0  0  0  0  0  0  0  0  0  0  0  0
   17.8111   34.8274    2.1183 H   0  0  0  0  0  0  0  0  0  0  0  0
   20.2089   35.0451    2.8020 H   0  0  0  0  0  0  0  0  0  0  0  0
   19.7244   35.0473    4.5003 H   0  0  0  0  0  0  0  0  0  0  0  0
   18.3262   37.0840    4.0987 H   0  0  0  0  0  0  0  0  0  0  0  0
   18.8107   37.0818    2.4004 H   0  0  0  0  0  0  0  0  0  0  0  0
   21.2085   37.2995    3.0841 H   0  0  0  0  0  0  0  0  0  0  0  0
   20.7240   37.3017    4.7825 H   0  0  0  0  0  0  0  0  0  0  0  0
   19.3258   39.3384    4.3809 H   0  0  0  0  0  0  0  0  0  0  0  0
   19.8103   39.3362    2.6826 H   0  0  0  0  0  0  0  0  0  0  0  0
   22.2077   39.5548    3.3654 H   0  0  0  0  0  0  0  0  0  0  0  0
   21.7245   39.5551    5.0641 H   0  0  0  0  0  0  0  0  0  0  0  0
   20.3262   41.5919    4.6669 H   0  0  0  0  0  0  0  0  0  0  0  0
   20.8072   41.5914    2.9676 H   0  0  0  0  0  0  0  0  0  0  0  0
   23.2064   41.8091    3.6465 H   0  0  0  0  0  0  0  0  0  0  0  0
   22.7255   41.8096    5.3458 H   0  0  0  0  0  0  0  0  0  0  0  0
   21.3259   43.8463    4.9491 H   0  0  0  0  0  0  0  0  0  0  0  0
   21.8067   43.8458    3.2498 H   0  0  0  0  0  0  0  0  0  0  0  0
   24.2059   44.0634    3.9286 H   0  0  0  0  0  0  0  0  0  0  0  0
   23.7251   44.0640    5.6280 H   0  0  0  0  0  0  0  0  0  0  0  0
   22.3264   46.1009    5.2323 H   0  0  0  0  0  0  0  0  0  0  0  0
   22.8050   46.1000    3.5323 H   0  0  0  0  0  0  0  0  0  0  0  0
   25.2047   46.3186    4.2069 H   0  0  0  0  0  0  0  0  0  0  0  0
   24.7275   46.3176    5.9073 H   0  0  0  0  0  0  0  0  0  0  0  0
   23.3274   48.3545    5.5164 H   0  0  0  0  0  0  0  0  0  0  0  0
   23.8024   48.3551    3.8154 H   0  0  0  0  0  0  0  0  0  0  0  0
   26.2043   48.5718    4.4869 H   0  0  0  0  0  0  0  0  0  0  0  0
   25.7282   48.5732    6.1876 H   0  0  0  0  0  0  0  0  0  0  0  0
   24.3287   50.6101    5.7948 H   0  0  0  0  0  0  0  0  0  0  0  0
   24.8025   50.6083    4.0935 H   0  0  0  0  0  0  0  0  0  0  0  0
   27.2042   50.8269    4.7613 H   0  0  0  0  0  0  0  0  0  0  0  0
   26.7316   50.8267    6.4630 H   0  0  0  0  0  0  0  0  0  0  0  0
   25.3298   52.8634    6.0740 H   0  0  0  0  0  0  0  0  0  0  0  0
   25.8024   52.8637    4.3723 H   0  0  0  0  0  0  0  0  0  0  0  0
   28.2049   53.0814    5.0396 H   0  0  0  0  0  0  0  0  0  0  0  0
   27.7323   53.0811    6.7412 H   0  0  0  0  0  0  0  0  0  0  0  0
   26.3296   55.1176    6.3512 H   0  0  0  0  0  0  0  0  0  0  0  0
   26.8045   55.1183    4.6502 H   0  0  0  0  0  0  0  0  0  0  0  0
   29.2060   55.3359    5.3208 H   0  0  0  0  0  0  0  0  0  0  0  0
   28.7311   55.3353    7.0219 H   0  0  0  0  0  0  0  0  0  0  0  0
   27.3297   57.3720    6.6314 H   0  0  0  0  0  0  0  0  0  0  0  0
   27.8047   57.3726    4.9304 H   0  0  0  0  0  0  0  0  0  0  0  0
   30.2066   57.5893    5.6019 H   0  0  0  0  0  0  0  0  0  0  0  0
   29.7304   57.5907    7.3026 H   0  0  0  0  0  0  0  0  0  0  0  0
   28.3300   59.6274    6.9088 H   0  0  0  0  0  0  0  0  0  0  0  0
   28.8062   59.6259    5.2081 H   0  0  0  0  0  0  0  0  0  0  0  0
   31.2077   59.8426    5.8811 H   0  0  0  0  0  0  0  0  0  0  0  0
   30.7303   59.8461    7.5814 H   0  0  0  0  0  0  0  0  0  0  0  0
   29.3317   61.8830    7.1853 H   0  0  0  0  0  0  0  0  0  0  0  0
   29.8068   61.8791    5.4843 H   0  0  0  0  0  0  0  0  0  0  0  0
   32.2081   62.0978    6.1536 H   0  0  0  0  0  0  0  0  0  0  0  0
   31.7342   62.0997    7.8549 H   0  0  0  0  0  0  0  0  0  0  0  0
   30.3326   64.1362    7.4615 H   0  0  0  0  0  0  0  0  0  0  0  0
   30.8085   64.1348    5.7608 H   0  0  0  0  0  0  0  0  0  0  0  0
   33.2093   64.3534    6.4319 H   0  0  0  0  0  0  0  0  0  0  0  0
   32.7345   64.3528    8.1330 H   0  0  0  0  0  0  0  0  0  0  0  0
   31.3342   66.3899    7.7437 H   0  0  0  0  0  0  0  0  0  0  0  0
   31.8068   66.3902    6.0419 H   0  0  0  0  0  0  0  0  0  0  0  0
   34.2099   66.6070    6.7101 H   0  0  0  0  0  0  0  0  0  0  0  0
   33.7361   66.6088    8.4115 H   0  0  0  0  0  0  0  0  0  0  0  0
   32.3365   68.6456    8.0201 H   0  0  0  0  0  0  0  0  0  0  0  0
   32.8079   68.6434    6.3185 H   0  0  0  0  0  0  0  0  0  0  0  0
   35.2105   68.8631    6.9826 H   0  0  0  0  0  0  0  0  0  0  0  0
   34.7402   68.8634    8.6851 H   0  0  0  0  0  0  0  0  0  0  0  0
   33.3377   70.8998    8.2974 H   0  0  0  0  0  0  0  0  0  0  0  0
   33.8079   70.8997    6.5950 H   0  0  0  0  0  0  0  0  0  0  0  0
   36.2110   71.1178    7.2579 H   0  0  0  0  0  0  0  0  0  0  0  0
   35.7420   71.1160    8.9608 H   0  0  0  0  0  0  0  0  0  0  0  0
   34.3379   73.1522    8.5773 H   0  0  0  0  0  0  0  0  0  0  0  0
   34.8045   73.1538    6.8739 H   0  0  0  0  0  0  0  0  0  0  0  0
   37.2084   73.3711    7.5316 H   0  0  0  0  0  0  0  0  0  0  0  0
   36.7433   73.3674    9.2355 H   0  0  0  0  0  0  0  0  0  0  0  0
   35.3422   75.4052    8.8576 H   0  0  0  0  0  0  0  0  0  0  0  0
   35.8051   75.4083    7.1534 H   0  0  0  0  0  0  0  0  0  0  0  0
   38.2112   75.6284    7.8062 H   0  0  0  0  0  0  0  0  0  0  0  0
   37.7496   75.6227    9.5111 H   0  0  0  0  0  0  0  0  0  0  0  0
   36.3442   77.6602    9.1376 H   0  0  0  0  0  0  0  0  0  0  0  0
   36.8052   77.6659    7.4329 H   0  0  0  0  0  0  0  0  0  0  0  0
   39.2115   77.8886    8.0833 H   0  0  0  0  0  0  0  0  0  0  0  0
   38.7524   77.8801    9.7885 H   0  0  0  0  0  0  0  0  0  0  0  0
   37.3458   79.9191    9.4177 H   0  0  0  0  0  0  0  0  0  0  0  0
   37.8085   79.9267    7.7135 H   0  0  0  0  0  0  0  0  0  0  0  0
   40.2147   80.1495    8.3673 H   0  0  0  0  0  0  0  0  0  0  0  0
   39.7530   80.1398   10.0717 H   0  0  0  0  0  0  0  0  0  0  0  0
   38.3502   82.1808    9.7018 H   0  0  0  0  0  0  0  0  0  0  0  0
   38.8115   82.1897    7.9976 H   0  0  0  0  0  0  0  0  0  0  0  0
   41.2178   82.4140    8.6509 H   0  0  0  0  0  0  0  0  0  0  0  0
   40.7572   82.4034   10.3550 H   0  0  0  0  0  0  0  0  0  0  0  0
   39.3702   84.4592    9.9932 H   0  0  0  0  0  0  0  0  0  0  0  0
   39.8296   84.4706    8.2879 H   0  0  0  0  0  0  0  0  0  0  0  0
   41.7728   84.7031   10.6480 H   0  0  0  0  0  0  0  0  0  0  0  0
   41.2455   86.0296    9.5952 H   0  0  0  0  0  0  0  0  0  0  0  0
   42.2350   84.7141    8.9348 H   0  0  0  0  0  0  0  0  0  0  0  0
  1  2  1  0  0  0  0
  1 80  1  0  0  0  0
  1 81  1  0  0  0  0
  1 82  1  0  0  0  0
  2  3  1  0  0  0  0
  2  4  1  0  0  0  0
  3  4  1  0  0  0  0
  3 83  1  0  0  0  0
  3 84  1  0  0  0  0
  4  5  1  0  0  0  0
  4 85  1  0  0  0  0
  5  6  1  0  0  0  0
  5 86  1  0  0  0  0
  5 87  1  0  0  0  0
  6  7  1  0  0  0  0
  6 88  1  0  0  0  0
  6 89  1  0  0  0  0
  7  8  1  0  0  0  0
  7 90  1  0  0  0  0
  7 91  1  0  0  0  0
  8  9  1  0  0  0  0
  8 92  1  0  0  0  0
  8 93  1  0  0  0  0
  9 10  1  0  0  0  0
  9 94  1  0  0  0  0
  9 95  1  0  0  0  0
 10 11  1  0  0  0  0
 10 96  1  0  0  0  0
 10 97  1  0  0  0  0
 11 12  1  0  0  0  0
 11 98  1  0  0  0  0
 11 99  1  0  0  0  0
 12 13  1  0  0  0  0
 12100  1  0  0  0  0
 12101  1  0  0  0  0
 13 14  1  0  0  0  0
 13102  1  0  0  0  0
 13103  1  0  0  0  0
 14 15  1  0  0  0  0
 14104  1  0  0  0  0
 14105  1  0  0  0  0
 15 16  1  0  0  0  0
 15106  1  0  0  0  0
 15107  1  0  0  0  0
 16 17  1  0  0  0  0
 16108  1  0  0  0  0
 16109  1  0  0  0  0
 17 18  1  0  0  0  0
 17110  1  0  0  0  0
 17111  1  0  0  0  0
 18 19  1  0  0  0  0
 18112  1  0  0  0  0
 18113  1  0  0  0  0
 19 20  1  0  0  0  0
 19114  1  0  0  0  0
 19115  1  0  0  0  0
 20 21  1  0  0  0  0
 20116  1  0  0  0  0
 20117  1  0  0  0  0
 21 22  1  0  0  0  0
 21118  1  0  0  0  0
 21119  1  0  0  0  0
 22 23  1  0  0  0  0
 22120  1  0  0  0  0
 22121  1  0  0  0  0
 23 24  1  0  0  0  0
 23122  1  0  0  0  0
 23123  1  0  0  0  0
 24 25  1  0  0  0  0
 24124  1  0  0  0  0
 24125  1  0  0  0  0
 25 26  1  0  0  0  0
 25126  1  0  0  0  0
 25127  1  0  0  0  0
 26 27  1  0  0  0  0
 26128  1  0  0  0  0
 26129  1  0  0  0  0
 27 28  1  0  0  0  0
 27130  1  0  0  0  0
 27131  1  0  0  0  0
 28 29  1  0  0  0  0
 28132  1  0  0  0  0
 28133  1  0  0  0  0
 29 30  1  0  0  0  0
 29134  1  0  0  0  0
 29135  1  0  0  0  0
 30 31  1  0  0  0  0
 30136  1  0  0  0  0
 30137  1  0  0  0  0
 31 32  1  0  0  0  0
 31138  1  0  0  0  0
 31139  1  0  0  0  0
 32 33  1  0  0  0  0
 32140  1  0  0  0  0
 32141  1  0  0  0  0
 33 34  1  0  0  0  0
 33142  1  0  0  0  0
 33143  1  0  0  0  0
 34 35  1  0  0  0  0
 34144  1  0  0  0  0
 34145  1  0  0  0  0
 35 36  1  0  0  0  0
 35146  1  0  0  0  0
 35147  1  0  0  0  0
 36 37  1  0  0  0  0
 36148  1  0  0  0  0
 36149  1  0  0  0  0
 37 38  1  0  0  0  0
 37150  1  0  0  0  0
 37151  1  0  0  0  0
 38 39  1  0  0  0  0
 38152  1  0  0  0  0
 38153  1  0  0  0  0
 39 40  1  0  0  0  0
 39154  1  0  0  0  0
 39155  1  0  0  0  0
 40 41  1  0  0  0  0
 40156  1  0  0  0  0
 40157  1  0  0  0  0
 41 42  1  0  0  0  0
 41158  1  0  0  0  0
 41159  1  0  0  0  0
 42 43  1  0  0  0  0
 42160  1  0  0  0  0
 42161  1  0  0  0  0
 43 44  1  0  0  0  0
 43162  1  0  0  0  0
 43163  1  0  0  0  0
 44 45  1  0  0  0  0
 44164  1  0  0  0  0
 44165  1  0  0  0  0
 45 46  1  0  0  0  0
 45166  1  0  0  0  0
 45167  1  0  0  0  0
 46 47  1  0  0  0  0
 46168  1  0  0  0  0
 46169  1  0  0  0  0
 47 48  1  0  0  0  0
 47170  1  0  0  0  0
 47171  1  0  0  0  0
 48 49  1  0  0  0  0
 48172  1  0  0  0  0
 48173  1  0  0  0  0
 49 50  1  0  0  0  0
 49174  1  0  0  0  0
 49175  1  0  0  0  0
 50 51  1  0  0  0  0
 50176  1  0  0  0  0
 50177  1  0  0  0  0
 51 52  1  0  0  0  0
 51178  1  0  0  0  0
 51179  1  0  0  0  0
 52 53  1  0  0  0  0
 52180  1  0  0  0  0
 52181  1  0  0  0  0
 53 54  1  0  0  0  0
 53182  1  0  0  0  0
 53183  1  0  0  0  0
 54 55  1  0  0  0  0
 54184  1  0  0  0  0
 54185  1  0  0  0  0
 55 56  1  0  0  0  0
 55186  1  0  0  0  0
 55187  1  0  0  0  0
 56 57  1  0  0  0  0
 56188  1  0  0  0  0
 56189  1  0  0  0  0
 57 58  1  0  0  0  0
 57190  1  0  0  0  0
 57191  1  0  0  0  0
 58 59  1  0  0  0  0
 58192  1  0  0  0  0
 58193  1  0  0  0  0
 59 60  1  0  0  0  0
 59194  1  0  0  0  0
 59195  1  0  0  0  0
 60 61  1  0  0  0  0
 60196  1  0  0  0  0
 60197  1  0  0  0  0
 61 62  1  0  0  0  0
 61198  1  0  0  0  0
 61199  1  0  0  0  0
 62 63  1  0  0  0  0
 62200  1  0  0  0  0
 62201  1  0  0  0  0
 63 64  1  0  0  0  0
 63202  1  0  0  0  0
 63203  1  0  0  0  0
 64 65  1  0  0  0  0
 64204  1  0  0  0  0
 64205  1  0  0  0  0
 65 66  1  0  0  0  0
 65206  1  0  0  0  0
 65207  1  0  0  0  0
 66 67  1  0  0  0  0
 66208  1  0  0  0  0
 66209  1  0  0  0  0
 67 68  1  0  0  0  0
 67210  1  0  0  0  0
 67211  1  0  0  0  0
 68 69  1  0  0  0  0
 68212  1  0  0  0  0
 68213  1  0  0  0  0
 69 70  1  0  0  0  0
 69214  1  0  0  0  0
 69215  1  0  0  0  0
 70 71  1  0  0  0  0
 70216  1  0  0  0  0
 70217  1  0  0  0  0
 71 72  1  0  0  0  0
 71218  1  0  0  0  0
 71219  1  0  0  0  0
 72 73  1  0  0  0  0
 72220  1  0  0  0  0
 72221  1  0  0  0  0
 73 74  1  0  0  0  0
 73222  1  0  0  0  0
 73223  1  0  0  0  0
 74 75  1  0  0  0  0
 74224  1  0  0  0  0
 74225  1  0  0  0  0
 75 76  1  0  0  0  0
 75226  1  0  0  0  0
 75227  1  0  0  0  0
 76 77  1  0  0  0  0
 76228  1  0  0  0  0
 76229  1  0  0  0  0
 77 78  1  0  0  0  0
 77230  1  0  0  0  0
 77231  1  0  0  0  0
 78 79  1  0  0  0  0
 78232  1  0  0  0  0
 78233  1  0  0  0  0
 79234  1  0  0  0  0
 79235  1  0  0  0  0
 79236  1  0  0  0  0
M  END
$$$$
