
 OpenBabel04232216553D

 72 73  0  0  0  0  0  0  0  0999 V2000
    3.8849   -4.2111    0.2055 C   0  0  0  0  0  0  0  0  0  0  0  0
    5.1917   -4.0991   -0.5443 N   0  0  0  0  0  0  0  0  0  0  0  0
    4.9126   -2.8092   -1.4057 C   0  0  0  0  0  0  0  0  0  0  0  0
    4.8985   -1.3780   -1.2340 C   0  0  0  0  0  0  0  0  0  0  0  0
    5.0302   -0.4512   -2.5356 C   0  0  0  0  0  0  0  0  0  0  0  0
    4.6517    0.9243   -3.1704 C   0  0  0  0  0  0  0  0  0  0  0  0
    5.9349    1.6575   -3.7625 C   0  0  0  0  0  0  0  0  0  0  0  0
    5.8831    3.1924   -3.7141 C   0  0  0  0  0  0  0  0  0  0  0  0
    6.9949    3.8117   -2.8439 C   0  0  0  0  0  0  0  0  0  0  0  0
    6.4353    4.5222   -1.6042 C   0  0  0  0  0  0  0  0  0  0  0  0
    6.9892    3.9585   -0.2882 C   0  0  0  0  0  0  0  0  0  0  0  0
    5.9003    3.3179    0.6112 C   0  0  0  0  0  0  0  0  0  0  0  0
    6.1808    1.8271    0.9678 C   0  0  0  0  0  0  0  0  0  0  0  0
    5.0890    0.7291    0.5644 C   0  0  0  0  0  0  0  0  0  0  0  0
    5.5903   -0.6277   -0.1036 C   0  0  0  0  0  0  0  0  0  0  0  0
    6.8836   -0.9733    0.0599 C   0  0  0  0  0  0  0  0  0  0  0  0
    7.6141   -1.9351   -0.7581 C   0  0  0  0  0  0  0  0  0  0  0  0
    7.4555   -2.1880   -2.2861 C   0  0  0  0  0  0  0  0  0  0  0  0
    8.3916   -2.7967   -0.0865 C   0  0  0  0  0  0  0  0  0  0  0  0
    8.9237   -3.8611   -0.8493 C   0  0  0  0  0  0  0  0  0  0  0  0
    9.8161   -4.7727   -0.5382 C   0  0  0  0  0  0  0  0  0  0  0  0
   10.1631   -5.5880   -1.6582 C   0  0  0  0  0  0  0  0  0  0  0  0
   11.2507   -6.3389   -1.6249 C   0  0  0  0  0  0  0  0  0  0  0  0
   11.4617   -7.2615   -2.6961 C   0  0  0  0  0  0  0  0  0  0  0  0
   12.1278   -8.3773   -2.3663 C   0  0  0  0  0  0  0  0  0  0  0  0
   11.2526   -9.5670   -2.4889 C   0  0  0  0  0  0  0  0  0  0  0  0
   10.2364   -9.5528   -1.5614 C   0  0  0  0  0  0  0  0  0  0  0  0
    8.7806   -8.9013   -1.6123 C   0  0  0  0  0  0  0  0  0  0  0  0
    8.2074   -7.8681   -0.8247 C   0  0  0  0  0  0  0  0  0  0  0  0
    7.0231   -6.5957   -0.8705 C   0  0  0  0  0  0  0  0  0  0  0  0
    6.0064   -5.5528   -0.9575 C   0  0  0  0  0  0  0  0  0  0  0  0
    3.0524   -4.2505   -0.5174 H   0  0  0  0  0  0  0  0  0  0  0  0
    3.7309   -3.2682    0.7574 H   0  0  0  0  0  0  0  0  0  0  0  0
    3.7892   -5.0281    0.9171 H   0  0  0  0  0  0  0  0  0  0  0  0
    4.6409   -3.2035   -2.3827 H   0  0  0  0  0  0  0  0  0  0  0  0
    4.9591   -1.1419   -3.3794 H   0  0  0  0  0  0  0  0  0  0  0  0
    6.0667   -0.1569   -2.3625 H   0  0  0  0  0  0  0  0  0  0  0  0
    4.0679    1.5765   -2.5227 H   0  0  0  0  0  0  0  0  0  0  0  0
    4.0386    0.7002   -4.0557 H   0  0  0  0  0  0  0  0  0  0  0  0
    6.0529    1.3629   -4.8170 H   0  0  0  0  0  0  0  0  0  0  0  0
    6.8662    1.3169   -3.2916 H   0  0  0  0  0  0  0  0  0  0  0  0
    4.8922    3.5275   -3.3998 H   0  0  0  0  0  0  0  0  0  0  0  0
    6.0181    3.5800   -4.7333 H   0  0  0  0  0  0  0  0  0  0  0  0
    7.5319    4.5592   -3.4462 H   0  0  0  0  0  0  0  0  0  0  0  0
    7.7608    3.0750   -2.5759 H   0  0  0  0  0  0  0  0  0  0  0  0
    5.3418    4.5138   -1.6008 H   0  0  0  0  0  0  0  0  0  0  0  0
    6.7118    5.5838   -1.6740 H   0  0  0  0  0  0  0  0  0  0  0  0
    7.4489    4.7983    0.2551 H   0  0  0  0  0  0  0  0  0  0  0  0
    7.8153    3.2640   -0.4701 H   0  0  0  0  0  0  0  0  0  0  0  0
    4.8969    3.4518    0.1987 H   0  0  0  0  0  0  0  0  0  0  0  0
    5.9081    3.9060    1.5439 H   0  0  0  0  0  0  0  0  0  0  0  0
    6.2944    1.8001    2.0636 H   0  0  0  0  0  0  0  0  0  0  0  0
    7.1621    1.5614    0.5720 H   0  0  0  0  0  0  0  0  0  0  0  0
    4.3507    1.2160   -0.0814 H   0  0  0  0  0  0  0  0  0  0  0  0
    4.5555    0.4807    1.4956 H   0  0  0  0  0  0  0  0  0  0  0  0
    7.4420   -0.5427    0.8911 H   0  0  0  0  0  0  0  0  0  0  0  0
    6.8387   -1.5938   -2.9222 H   0  0  0  0  0  0  0  0  0  0  0  0
    7.0179   -3.1829   -2.4736 H   0  0  0  0  0  0  0  0  0  0  0  0
    8.4118   -2.1156   -2.8026 H   0  0  0  0  0  0  0  0  0  0  0  0
    8.5369   -2.7647    0.9851 H   0  0  0  0  0  0  0  0  0  0  0  0
    8.5485   -3.9938   -1.8524 H   0  0  0  0  0  0  0  0  0  0  0  0
   10.2598   -4.8492    0.4374 H   0  0  0  0  0  0  0  0  0  0  0  0
    9.5089   -5.6103   -2.5403 H   0  0  0  0  0  0  0  0  0  0  0  0
   11.7991   -6.4129   -0.6942 H   0  0  0  0  0  0  0  0  0  0  0  0
   10.6379   -7.3360   -3.4170 H   0  0  0  0  0  0  0  0  0  0  0  0
   12.8674   -8.3521   -1.5646 H   0  0  0  0  0  0  0  0  0  0  0  0
   11.0877   -9.5871   -3.5763 H   0  0  0  0  0  0  0  0  0  0  0  0
   10.4769  -10.2313   -0.7343 H   0  0  0  0  0  0  0  0  0  0  0  0
    8.1593   -9.7890   -1.7896 H   0  0  0  0  0  0  0  0  0  0  0  0
    8.8764   -7.6334    0.0094 H   0  0  0  0  0  0  0  0  0  0  0  0
    6.7774   -7.0605   -1.8389 H   0  0  0  0  0  0  0  0  0  0  0  0
    6.2307   -5.3436    0.1114 H   0  0  0  0  0  0  0  0  0  0  0  0
  1  2  1  0  0  0  0
  1 32  1  0  0  0  0
  1 33  1  0  0  0  0
  1 34  1  0  0  0  0
  2  3  1  0  0  0  0
  2 31  1  0  0  0  0
  3  4  2  3  0  0  0
  3 35  1  0  0  0  0
  4  5  1  0  0  0  0
  4 15  1  0  0  0  0
  5  6  1  0  0  0  0
  5 36  1  0  0  0  0
  5 37  1  0  0  0  0
  6  7  1  0  0  0  0
  6 38  1  0  0  0  0
  6 39  1  0  0  0  0
  7  8  1  0  0  0  0
  7 40  1  0  0  0  0
  7 41  1  0  0  0  0
  8  9  1  0  0  0  0
  8 42  1  0  0  0  0
  8 43  1  0  0  0  0
  9 10  1  0  0  0  0
  9 44  1  0  0  0  0
  9 45  1  0  0  0  0
 10 11  1  0  0  0  0
 10 46  1  0  0  0  0
 10 47  1  0  0  0  0
 11 12  1  0  0  0  0
 11 48  1  0  0  0  0
 11 49  1  0  0  0  0
 12 13  1  0  0  0  0
 12 50  1  0  0  0  0
 12 51  1  0  0  0  0
 13 14  1  0  0  0  0
 13 52  1  0  0  0  0
 13 53  1  0  0  0  0
 14 15  1  0  0  0  0
 14 54  1  0  0  0  0
 14 55  1  0  0  0  0
 15 16  2  3  0  0  0
 16 17  1  0  0  0  0
 16 56  1  0  0  0  0
 17 18  1  0  0  0  0
 17 19  2  3  0  0  0
 18 57  1  0  0  0  0
 18 58  1  0  0  0  0
 18 59  1  0  0  0  0
 19 20  1  0  0  0  0
 19 60  1  0  0  0  0
 20 21  2  3  0  0  0
 20 61  1  0  0  0  0
 21 22  1  0  0  0  0
 21 62  1  0  0  0  0
 22 23  2  3  0  0  0
 22 63  1  0  0  0  0
 23 24  1  0  0  0  0
 23 64  1  0  0  0  0
 24 25  2  3  0  0  0
 24 65  1  0  0  0  0
 25 26  1  0  0  0  0
 25 66  1  0  0  0  0
 26 27  2  3  0  0  0
 26 67  1  0  0  0  0
 27 28  1  0  0  0  0
 27 68  1  0  0  0  0
 28 29  2  3  0  0  0
 28 69  1  0  0  0  0
 29 30  1  0  0  0  0
 29 70  1  0  0  0  0
 30 31  2  3  0  0  0
 30 71  1  0  0  0  0
 31 72  1  0  0  0  0
M  END
$$$$
