
 OpenBabel04232216403D

185184  0  0  0  0  0  0  0  0999 V2000
   18.7601  -25.2941    2.2694 C   0  0  0  0  0  0  0  0  0  0  0  0
   19.6333  -24.8662    1.3539 C   0  0  0  0  0  0  0  0  0  0  0  0
   20.2192  -23.4876    1.3991 C   0  0  0  0  0  0  0  0  0  0  0  0
   21.7317  -23.5338    1.5221 C   0  0  0  0  0  0  0  0  0  0  0  0
   22.2712  -22.1730    1.5623 N   0  0  0  0  0  0  0  0  0  0  0  0
   23.6650  -22.2570    1.6850 N   0  0  0  0  0  0  0  0  0  0  0  0
   24.1968  -20.9484    1.7492 N   0  0  0  0  0  0  0  0  0  0  0  0
   25.6272  -20.9933    1.8492 N   0  0  0  0  0  0  0  0  0  0  0  0
   26.2018  -21.6698    0.7207 N   0  0  0  0  0  0  0  0  0  0  0  0
   25.8615  -20.9930   -0.4880 N   0  0  0  0  0  0  0  0  0  0  0  0
   26.3455  -19.6588   -0.4372 N   0  0  0  0  0  0  0  0  0  0  0  0
   27.7650  -19.6947   -0.2973 N   0  0  0  0  0  0  0  0  0  0  0  0
   28.3499  -20.3926   -1.4061 N   0  0  0  0  0  0  0  0  0  0  0  0
   27.9877  -19.7340   -2.6160 N   0  0  0  0  0  0  0  0  0  0  0  0
   28.4859  -18.3830   -2.6002 N   0  0  0  0  0  0  0  0  0  0  0  0
   29.9137  -18.3861   -2.4435 N   0  0  0  0  0  0  0  0  0  0  0  0
   30.5064  -19.0770   -3.5393 N   0  0  0  0  0  0  0  0  0  0  0  0
   30.1510  -18.4476   -4.7639 N   0  0  0  0  0  0  0  0  0  0  0  0
   30.6062  -17.1071   -4.7376 N   0  0  0  0  0  0  0  0  0  0  0  0
   32.0261  -17.0844   -4.5760 N   0  0  0  0  0  0  0  0  0  0  0  0
   32.6357  -17.7941   -5.6446 N   0  0  0  0  0  0  0  0  0  0  0  0
   32.2880  -17.1750   -6.8851 N   0  0  0  0  0  0  0  0  0  0  0  0
   32.7294  -15.8089   -6.8946 N   0  0  0  0  0  0  0  0  0  0  0  0
   34.1432  -15.7695   -6.7162 N   0  0  0  0  0  0  0  0  0  0  0  0
   34.7838  -16.4746   -7.7954 N   0  0  0  0  0  0  0  0  0  0  0  0
   34.4228  -15.8916   -9.0466 N   0  0  0  0  0  0  0  0  0  0  0  0
   34.8420  -14.5298   -9.0546 N   0  0  0  0  0  0  0  0  0  0  0  0
   36.2741  -14.4758   -8.8879 N   0  0  0  0  0  0  0  0  0  0  0  0
   36.9218  -15.2113   -9.9262 N   0  0  0  0  0  0  0  0  0  0  0  0
   36.5690  -14.6392  -11.1805 N   0  0  0  0  0  0  0  0  0  0  0  0
   37.0003  -13.2704  -11.2113 N   0  0  0  0  0  0  0  0  0  0  0  0
   38.4132  -13.1818  -11.0170 N   0  0  0  0  0  0  0  0  0  0  0  0
   39.0734  -13.9105  -12.0380 N   0  0  0  0  0  0  0  0  0  0  0  0
   38.7305  -13.3482  -13.3055 N   0  0  0  0  0  0  0  0  0  0  0  0
   39.1211  -11.9661  -13.3496 N   0  0  0  0  0  0  0  0  0  0  0  0
   40.5336  -11.8571  -13.1516 N   0  0  0  0  0  0  0  0  0  0  0  0
   41.2274  -12.5631  -14.1736 N   0  0  0  0  0  0  0  0  0  0  0  0
   40.8704  -12.0303  -15.4452 N   0  0  0  0  0  0  0  0  0  0  0  0
   41.2591  -10.6230  -15.4881 C   0  0  0  0  0  0  0  0  0  0  0  0
   42.7079  -10.4581  -15.2898 N   0  0  0  0  0  0  0  0  0  0  0  0
   43.4376  -11.1911  -16.3150 C   0  0  0  0  0  0  0  0  0  0  0  0
   44.8780  -11.0455  -16.0994 N   0  0  0  0  0  0  0  0  0  0  0  0
   45.6031  -11.7540  -17.1425 C   0  0  0  0  0  0  0  0  0  0  0  0
   47.0440  -11.5973  -16.9445 N   0  0  0  0  0  0  0  0  0  0  0  0
   47.7826  -12.3156  -17.9788 C   0  0  0  0  0  0  0  0  0  0  0  0
   49.2344  -12.1704  -17.7699 N   0  0  0  0  0  0  0  0  0  0  0  0
   49.9666  -12.8813  -18.8123 C   0  0  0  0  0  0  0  0  0  0  0  0
   51.4097  -12.7275  -18.6035 N   0  0  0  0  0  0  0  0  0  0  0  0
   52.1491  -13.4446  -19.6340 C   0  0  0  0  0  0  0  0  0  0  0  0
   53.6046  -13.3057  -19.4250 N   0  0  0  0  0  0  0  0  0  0  0  0
   54.3367  -14.0166  -20.4657 C   0  0  0  0  0  0  0  0  0  0  0  0
   55.7856  -13.8733  -20.2585 N   0  0  0  0  0  0  0  0  0  0  0  0
   56.5116  -14.5846  -21.2965 C   0  0  0  0  0  0  0  0  0  0  0  0
   57.9271  -14.4284  -21.0771 N   0  0  0  0  0  0  0  0  0  0  0  0
   58.6758  -15.1405  -22.1218 C   0  0  0  0  0  0  0  0  0  0  0  0
   60.1081  -14.9891  -21.9151 N   0  0  0  0  0  0  0  0  0  0  0  0
   60.8627  -15.7061  -22.9594 C   0  0  0  0  0  0  0  0  0  0  0  0
   62.3007  -15.5558  -22.7567 N   0  0  0  0  0  0  0  0  0  0  0  0
   63.0561  -16.2703  -23.7994 C   0  0  0  0  0  0  0  0  0  0  0  0
   64.4840  -16.1164  -23.5752 N   0  0  0  0  0  0  0  0  0  0  0  0
   65.2192  -16.8265  -24.6252 C   0  0  0  0  0  0  0  0  0  0  0  0
   66.6632  -16.6781  -24.4235 N   0  0  0  0  0  0  0  0  0  0  0  0
   67.4034  -17.3881  -25.4598 C   0  0  0  0  0  0  0  0  0  0  0  0
   68.8599  -17.2419  -25.2582 N   0  0  0  0  0  0  0  0  0  0  0  0
   69.5863  -17.9497  -26.2944 C   0  0  0  0  0  0  0  0  0  0  0  0
   71.0461  -17.8021  -26.0908 N   0  0  0  0  0  0  0  0  0  0  0  0
   71.7666  -18.5105  -27.1289 C   0  0  0  0  0  0  0  0  0  0  0  0
   73.2273  -18.3652  -26.9264 N   0  0  0  0  0  0  0  0  0  0  0  0
   73.9500  -19.0771  -27.9641 C   0  0  0  0  0  0  0  0  0  0  0  0
   75.3976  -18.9260  -27.7561 N   0  0  0  0  0  0  0  0  0  0  0  0
   76.1302  -19.6397  -28.7974 C   0  0  0  0  0  0  0  0  0  0  0  0
   77.5735  -19.4897  -28.5903 N   0  0  0  0  0  0  0  0  0  0  0  0
   78.3089  -20.2026  -29.6301 C   0  0  0  0  0  0  0  0  0  0  0  0
   79.7472  -20.0479  -29.4206 N   0  0  0  0  0  0  0  0  0  0  0  0
   80.4872  -20.7622  -30.4565 C   0  0  0  0  0  0  0  0  0  0  0  0
   81.9404  -20.6148  -30.2443 N   0  0  0  0  0  0  0  0  0  0  0  0
   82.6764  -21.3262  -31.2867 C   0  0  0  0  0  0  0  0  0  0  0  0
   84.1263  -21.1785  -31.0816 N   0  0  0  0  0  0  0  0  0  0  0  0
   84.8457  -21.8869  -32.1154 C   0  0  0  0  0  0  0  0  0  0  0  0
   86.2908  -21.7469  -31.9158 N   0  0  0  0  0  0  0  0  0  0  0  0
   18.3433  -26.2906    2.2290 H   0  0  0  0  0  0  0  0  0  0  0  0
   18.4537  -24.6408    3.0745 H   0  0  0  0  0  0  0  0  0  0  0  0
   19.9219  -25.5416    0.5568 H   0  0  0  0  0  0  0  0  0  0  0  0
   19.8005  -22.9436    2.2537 H   0  0  0  0  0  0  0  0  0  0  0  0
   19.9376  -22.9508    0.4882 H   0  0  0  0  0  0  0  0  0  0  0  0
   22.1383  -24.0771    0.6620 H   0  0  0  0  0  0  0  0  0  0  0  0
   21.9992  -24.0784    2.4335 H   0  0  0  0  0  0  0  0  0  0  0  0
   21.8959  -21.6830    2.3691 H   0  0  0  0  0  0  0  0  0  0  0  0
   24.0224  -22.7653    0.8739 H   0  0  0  0  0  0  0  0  0  0  0  0
   23.7920  -20.4480    2.5394 H   0  0  0  0  0  0  0  0  0  0  0  0
   25.8911  -21.4884    2.6948 H   0  0  0  0  0  0  0  0  0  0  0  0
   25.8481  -22.6179    0.6767 H   0  0  0  0  0  0  0  0  0  0  0  0
   24.8458  -20.9547   -0.5800 H   0  0  0  0  0  0  0  0  0  0  0  0
   25.9161  -19.1759    0.3614 H   0  0  0  0  0  0  0  0  0  0  0  0
   28.0093  -20.1717    0.5797 H   0  0  0  0  0  0  0  0  0  0  0  0
   27.9860  -21.3454   -1.4466 H   0  0  0  0  0  0  0  0  0  0  0  0
   26.9700  -19.7304   -2.7142 H   0  0  0  0  0  0  0  0  0  0  0  0
   28.0878  -17.8853   -1.8090 H   0  0  0  0  0  0  0  0  0  0  0  0
   30.1403  -18.8507   -1.5514 H   0  0  0  0  0  0  0  0  0  0  0  0
   30.1689  -20.0404   -3.5655 H   0  0  0  0  0  0  0  0  0  0  0  0
   29.1419  -18.4393   -4.8806 H   0  0  0  0  0  0  0  0  0  0  0  0
   30.1546  -16.6107   -3.9624 H   0  0  0  0  0  0  0  0  0  0  0  0
   32.2833  -17.5503   -3.7107 H   0  0  0  0  0  0  0  0  0  0  0  0
   32.3067  -18.7512   -5.6653 H   0  0  0  0  0  0  0  0  0  0  0  0
   31.2655  -17.2172   -6.9911 H   0  0  0  0  0  0  0  0  0  0  0  0
   32.2777  -15.3043   -6.1272 H   0  0  0  0  0  0  0  0  0  0  0  0
   34.4053  -16.2189   -5.8445 H   0  0  0  0  0  0  0  0  0  0  0  0
   34.4560  -17.4452   -7.7850 H   0  0  0  0  0  0  0  0  0  0  0  0
   33.4033  -15.9517   -9.1525 H   0  0  0  0  0  0  0  0  0  0  0  0
   34.3848  -14.0233   -8.2916 H   0  0  0  0  0  0  0  0  0  0  0  0
   36.5278  -14.9084   -7.9952 H   0  0  0  0  0  0  0  0  0  0  0  0
   36.6146  -16.1907   -9.8868 H   0  0  0  0  0  0  0  0  0  0  0  0
   35.5570  -14.6865  -11.3167 H   0  0  0  0  0  0  0  0  0  0  0  0
   36.5517  -12.7365  -10.4679 H   0  0  0  0  0  0  0  0  0  0  0  0
   38.6697  -13.5867  -10.1230 H   0  0  0  0  0  0  0  0  0  0  0  0
   38.7845  -14.8870  -12.0030 H   0  0  0  0  0  0  0  0  0  0  0  0
   37.7157  -13.4092  -13.4485 H   0  0  0  0  0  0  0  0  0  0  0  0
   38.6380  -11.4412  -12.6136 H   0  0  0  0  0  0  0  0  0  0  0  0
   40.8004  -12.2533  -12.2582 H   0  0  0  0  0  0  0  0  0  0  0  0
   40.9525  -13.5477  -14.1518 H   0  0  0  0  0  0  0  0  0  0  0  0
   39.8612  -12.1136  -15.5874 H   0  0  0  0  0  0  0  0  0  0  0  0
   40.7203  -10.0552  -14.7133 H   0  0  0  0  0  0  0  0  0  0  0  0
   40.9665  -10.1911  -16.4493 H   0  0  0  0  0  0  0  0  0  0  0  0
   42.9240  -10.8706  -14.3817 H   0  0  0  0  0  0  0  0  0  0  0  0
   43.1602  -10.7857  -17.2961 H   0  0  0  0  0  0  0  0  0  0  0  0
   43.1740  -12.2522  -16.2990 H   0  0  0  0  0  0  0  0  0  0  0  0
   45.1114  -11.4167  -15.1854 H   0  0  0  0  0  0  0  0  0  0  0  0
   45.3408  -11.3491  -18.1286 H   0  0  0  0  0  0  0  0  0  0  0  0
   45.3396  -12.8150  -17.1258 H   0  0  0  0  0  0  0  0  0  0  0  0
   47.3089  -11.9904  -16.0469 H   0  0  0  0  0  0  0  0  0  0  0  0
   47.5163  -11.9152  -18.9618 H   0  0  0  0  0  0  0  0  0  0  0  0
   47.5256  -13.3807  -17.9559 H   0  0  0  0  0  0  0  0  0  0  0  0
   49.4870  -12.5446  -16.8608 H   0  0  0  0  0  0  0  0  0  0  0  0
   49.7015  -12.4795  -19.7947 H   0  0  0  0  0  0  0  0  0  0  0  0
   49.7012  -13.9434  -18.7861 H   0  0  0  0  0  0  0  0  0  0  0  0
   51.6627  -13.1172  -17.7021 H   0  0  0  0  0  0  0  0  0  0  0  0
   51.8847  -13.0408  -20.6188 H   0  0  0  0  0  0  0  0  0  0  0  0
   51.8807  -14.5079  -19.6205 H   0  0  0  0  0  0  0  0  0  0  0  0
   53.8419  -13.6899  -18.5197 H   0  0  0  0  0  0  0  0  0  0  0  0
   54.0608  -13.6152  -21.4484 H   0  0  0  0  0  0  0  0  0  0  0  0
   54.0669  -15.0789  -20.4440 H   0  0  0  0  0  0  0  0  0  0  0  0
   56.0128  -14.2416  -19.3455 H   0  0  0  0  0  0  0  0  0  0  0  0
   56.2424  -14.1806  -22.2791 H   0  0  0  0  0  0  0  0  0  0  0  0
   56.2423  -15.6440  -21.2743 H   0  0  0  0  0  0  0  0  0  0  0  0
   58.1676  -14.8105  -20.1690 H   0  0  0  0  0  0  0  0  0  0  0  0
   58.4189  -14.7383  -23.1095 H   0  0  0  0  0  0  0  0  0  0  0  0
   58.4233  -16.2071  -22.1108 H   0  0  0  0  0  0  0  0  0  0  0  0
   60.3571  -15.3709  -21.0027 H   0  0  0  0  0  0  0  0  0  0  0  0
   60.6005  -15.3019  -23.9431 H   0  0  0  0  0  0  0  0  0  0  0  0
   60.6037  -16.7695  -22.9423 H   0  0  0  0  0  0  0  0  0  0  0  0
   62.5811  -15.9450  -21.8577 H   0  0  0  0  0  0  0  0  0  0  0  0
   62.7775  -15.8685  -24.7784 H   0  0  0  0  0  0  0  0  0  0  0  0
   62.7905  -17.3326  -23.7714 H   0  0  0  0  0  0  0  0  0  0  0  0
   64.7395  -16.4892  -22.6633 H   0  0  0  0  0  0  0  0  0  0  0  0
   64.9579  -16.4296  -25.6120 H   0  0  0  0  0  0  0  0  0  0  0  0
   64.9635  -17.8918  -24.6020 H   0  0  0  0  0  0  0  0  0  0  0  0
   66.8943  -17.0514  -23.5030 H   0  0  0  0  0  0  0  0  0  0  0  0
   67.1391  -16.9871  -26.4440 H   0  0  0  0  0  0  0  0  0  0  0  0
   67.1458  -18.4530  -25.4404 H   0  0  0  0  0  0  0  0  0  0  0  0
   69.0964  -17.6191  -24.3382 H   0  0  0  0  0  0  0  0  0  0  0  0
   69.3199  -17.5481  -27.2778 H   0  0  0  0  0  0  0  0  0  0  0  0
   69.3263  -19.0140  -26.2741 H   0  0  0  0  0  0  0  0  0  0  0  0
   71.2834  -18.1825  -25.1720 H   0  0  0  0  0  0  0  0  0  0  0  0
   71.4998  -18.1092  -28.1115 H   0  0  0  0  0  0  0  0  0  0  0  0
   71.5065  -19.5749  -27.1072 H   0  0  0  0  0  0  0  0  0  0  0  0
   73.4458  -18.7380  -25.9991 H   0  0  0  0  0  0  0  0  0  0  0  0
   73.6805  -18.6728  -28.9453 H   0  0  0  0  0  0  0  0  0  0  0  0
   73.6861  -20.1389  -27.9397 H   0  0  0  0  0  0  0  0  0  0  0  0
   75.6441  -19.3055  -26.8390 H   0  0  0  0  0  0  0  0  0  0  0  0
   75.8602  -19.2353  -29.7780 H   0  0  0  0  0  0  0  0  0  0  0  0
   75.8661  -20.7014  -28.7720 H   0  0  0  0  0  0  0  0  0  0  0  0
   77.8348  -19.8699  -27.6778 H   0  0  0  0  0  0  0  0  0  0  0  0
   78.0405  -19.7973  -30.6106 H   0  0  0  0  0  0  0  0  0  0  0  0
   78.0455  -21.2642  -29.6053 H   0  0  0  0  0  0  0  0  0  0  0  0
   80.0323  -20.4358  -28.5219 H   0  0  0  0  0  0  0  0  0  0  0  0
   80.2188  -20.3649  -31.4411 H   0  0  0  0  0  0  0  0  0  0  0  0
   80.2292  -21.8269  -30.4316 H   0  0  0  0  0  0  0  0  0  0  0  0
   82.2042  -20.9932  -29.3366 H   0  0  0  0  0  0  0  0  0  0  0  0
   82.4043  -20.9274  -32.2716 H   0  0  0  0  0  0  0  0  0  0  0  0
   82.4057  -22.3886  -31.2638 H   0  0  0  0  0  0  0  0  0  0  0  0
   84.3642  -21.5661  -30.1692 H   0  0  0  0  0  0  0  0  0  0  0  0
   84.5862  -21.4940  -33.1033 H   0  0  0  0  0  0  0  0  0  0  0  0
   84.5938  -22.9530  -32.0988 H   0  0  0  0  0  0  0  0  0  0  0  0
   86.5598  -20.7606  -31.9667 H   0  0  0  0  0  0  0  0  0  0  0  0
   86.8118  -22.2329  -32.6510 H   0  0  0  0  0  0  0  0  0  0  0  0
  1  2  2  0  0  0  0
  1 81  1  0  0  0  0
  1 82  1  0  0  0  0
  2  3  1  0  0  0  0
  2 83  1  0  0  0  0
  3  4  1  0  0  0  0
  3 84  1  0  0  0  0
  3 85  1  0  0  0  0
  4  5  1  0  0  0  0
  4 86  1  0  0  0  0
  4 87  1  0  0  0  0
  5  6  1  0  0  0  0
  5 88  1  0  0  0  0
  6  7  1  0  0  0  0
  6 89  1  0  0  0  0
  7  8  1  0  0  0  0
  7 90  1  0  0  0  0
  8  9  1  0  0  0  0
  8 91  1  0  0  0  0
  9 10  1  0  0  0  0
  9 92  1  0  0  0  0
 10 11  1  0  0  0  0
 10 93  1  0  0  0  0
 11 12  1  0  0  0  0
 11 94  1  0  0  0  0
 12 13  1  0  0  0  0
 12 95  1  0  0  0  0
 13 14  1  0  0  0  0
 13 96  1  0  0  0  0
 14 15  1  0  0  0  0
 14 97  1  0  0  0  0
 15 16  1  0  0  0  0
 15 98  1  0  0  0  0
 16 17  1  0  0  0  0
 16 99  1  0  0  0  0
 17 18  1  0  0  0  0
 17100  1  0  0  0  0
 18 19  1  0  0  0  0
 18101  1  0  0  0  0
 19 20  1  0  0  0  0
 19102  1  0  0  0  0
 20 21  1  0  0  0  0
 20103  1  0  0  0  0
 21 22  1  0  0  0  0
 21104  1  0  0  0  0
 22 23  1  0  0  0  0
 22105  1  0  0  0  0
 23 24  1  0  0  0  0
 23106  1  0  0  0  0
 24 25  1  0  0  0  0
 24107  1  0  0  0  0
 25 26  1  0  0  0  0
 25108  1  0  0  0  0
 26 27  1  0  0  0  0
 26109  1  0  0  0  0
 27 28  1  0  0  0  0
 27110  1  0  0  0  0
 28 29  1  0  0  0  0
 28111  1  0  0  0  0
 29 30  1  0  0  0  0
 29112  1  0  0  0  0
 30 31  1  0  0  0  0
 30113  1  0  0  0  0
 31 32  1  0  0  0  0
 31114  1  0  0  0  0
 32 33  1  0  0  0  0
 32115  1  0  0  0  0
 33 34  1  0  0  0  0
 33116  1  0  0  0  0
 34 35  1  0  0  0  0
 34117  1  0  0  0  0
 35 36  1  0  0  0  0
 35118  1  0  0  0  0
 36 37  1  0  0  0  0
 36119  1  0  0  0  0
 37 38  1  0  0  0  0
 37120  1  0  0  0  0
 38 39  1  0  0  0  0
 38121  1  0  0  0  0
 39 40  1  0  0  0  0
 39122  1  0  0  0  0
 39123  1  0  0  0  0
 40 41  1  0  0  0  0
 40124  1  0  0  0  0
 41 42  1  0  0  0  0
 41125  1  0  0  0  0
 41126  1  0  0  0  0
 42 43  1  0  0  0  0
 42127  1  0  0  0  0
 43 44  1  0  0  0  0
 43128  1  0  0  0  0
 43129  1  0  0  0  0
 44 45  1  0  0  0  0
 44130  1  0  0  0  0
 45 46  1  0  0  0  0
 45131  1  0  0  0  0
 45132  1  0  0  0  0
 46 47  1  0  0  0  0
 46133  1  0  0  0  0
 47 48  1  0  0  0  0
 47134  1  0  0  0  0
 47135  1  0  0  0  0
 48 49  1  0  0  0  0
 48136  1  0  0  0  0
 49 50  1  0  0  0  0
 49137  1  0  0  0  0
 49138  1  0  0  0  0
 50 51  1  0  0  0  0
 50139  1  0  0  0  0
 51 52  1  0  0  0  0
 51140  1  0  0  0  0
 51141  1  0  0  0  0
 52 53  1  0  0  0  0
 52142  1  0  0  0  0
 53 54  1  0  0  0  0
 53143  1  0  0  0  0
 53144  1  0  0  0  0
 54 55  1  0  0  0  0
 54145  1  0  0  0  0
 55 56  1  0  0  0  0
 55146  1  0  0  0  0
 55147  1  0  0  0  0
 56 57  1  0  0  0  0
 56148  1  0  0  0  0
 57 58  1  0  0  0  0
 57149  1  0  0  0  0
 57150  1  0  0  0  0
 58 59  1  0  0  0  0
 58151  1  0  0  0  0
 59 60  1  0  0  0  0
 59152  1  0  0  0  0
 59153  1  0  0  0  0
 60 61  1  0  0  0  0
 60154  1  0  0  0  0
 61 62  1  0  0  0  0
 61155  1  0  0  0  0
 61156  1  0  0  0  0
 62 63  1  0  0  0  0
 62157  1  0  0  0  0
 63 64  1  0  0  0  0
 63158  1  0  0  0  0
 63159  1  0  0  0  0
 64 65  1  0  0  0  0
 64160  1  0  0  0  0
 65 66  1  0  0  0  0
 65161  1  0  0  0  0
 65162  1  0  0  0  0
 66 67  1  0  0  0  0
 66163  1  0  0  0  0
 67 68  1  0  0  0  0
 67164  1  0  0  0  0
 67165  1  0  0  0  0
 68 69  1  0  0  0  0
 68166  1  0  0  0  0
 69 70  1  0  0  0  0
 69167  1  0  0  0  0
 69168  1  0  0  0  0
 70 71  1  0  0  0  0
 70169  1  0  0  0  0
 71 72  1  0  0  0  0
 71170  1  0  0  0  0
 71171  1  0  0  0  0
 72 73  1  0  0  0  0
 72172  1  0  0  0  0
 73 74  1  0  0  0  0
 73173  1  0  0  0  0
 73174  1  0  0  0  0
 74 75  1  0  0  0  0
 74175  1  0  0  0  0
 75 76  1  0  0  0  0
 75176  1  0  0  0  0
 75177  1  0  0  0  0
 76 77  1  0  0  0  0
 76178  1  0  0  0  0
 77 78  1  0  0  0  0
 77179  1  0  0  0  0
 77180  1  0  0  0  0
 78 79  1  0  0  0  0
 78181  1  0  0  0  0
 79 80  1  0  0  0  0
 79182  1  0  0  0  0
 79183  1  0  0  0  0
 80184  1  0  0  0  0
 80185  1  0  0  0  0
M  END
$$$$
