
 OpenBabel04232217023D

 56 55  0  0  0  0  0  0  0  0999 V2000
   11.1428    7.6755    4.9316 O   0  0  0  0  0  0  0  0  0  0  0  0
   10.7723    7.4335    3.5475 O   0  0  0  0  0  0  0  0  0  0  0  0
    9.3487    7.3500    3.5266 C   0  0  0  0  0  0  0  0  0  0  0  0
    8.8630    7.0738    2.0993 C   0  0  0  0  0  0  0  0  0  0  0  0
    9.4464    5.7590    1.5697 C   0  0  0  0  0  0  0  0  0  0  0  0
    9.0323    5.3506    0.2217 N   0  0  0  0  0  0  0  0  0  0  0  0
    9.7122    3.9362   -0.3752 S   0  0  0  0  0  0  0  0  0  0  0  0
    8.9691    3.8293   -2.2834 S   0  0  0  0  0  0  0  0  0  0  0  0
    9.6828    5.4614   -3.3335 S   0  0  0  0  0  0  0  0  0  0  0  0
   11.7526    5.4094   -3.3648 S   0  0  0  0  0  0  0  0  0  0  0  0
   12.4031    7.1268   -4.3794 S   0  0  0  0  0  0  0  0  0  0  0  0
   14.5048    7.1258   -4.3795 S   0  0  0  0  0  0  0  0  0  0  0  0
   15.1864    8.8292   -5.4142 S   0  0  0  0  0  0  0  0  0  0  0  0
   17.2952    8.8180   -5.4072 S   0  0  0  0  0  0  0  0  0  0  0  0
   17.9863   10.5211   -6.4407 S   0  0  0  0  0  0  0  0  0  0  0  0
   20.0957   10.5091   -6.4335 S   0  0  0  0  0  0  0  0  0  0  0  0
   20.7866   12.2130   -7.4675 S   0  0  0  0  0  0  0  0  0  0  0  0
   22.8960   12.2018   -7.4607 S   0  0  0  0  0  0  0  0  0  0  0  0
   23.5867   13.9057   -8.4948 S   0  0  0  0  0  0  0  0  0  0  0  0
   25.6961   13.8944   -8.4880 S   0  0  0  0  0  0  0  0  0  0  0  0
   26.3868   15.5984   -9.5221 S   0  0  0  0  0  0  0  0  0  0  0  0
   28.4962   15.5871   -9.5152 S   0  0  0  0  0  0  0  0  0  0  0  0
   29.1868   17.2910  -10.5493 S   0  0  0  0  0  0  0  0  0  0  0  0
   31.2962   17.2797  -10.5424 S   0  0  0  0  0  0  0  0  0  0  0  0
   31.9868   18.9836  -11.5765 S   0  0  0  0  0  0  0  0  0  0  0  0
   34.0961   18.9722  -11.5696 S   0  0  0  0  0  0  0  0  0  0  0  0
   34.7867   20.6761  -12.6037 S   0  0  0  0  0  0  0  0  0  0  0  0
   36.8961   20.6648  -12.5968 S   0  0  0  0  0  0  0  0  0  0  0  0
   37.5867   22.3687  -13.6309 S   0  0  0  0  0  0  0  0  0  0  0  0
   39.6961   22.3574  -13.6240 S   0  0  0  0  0  0  0  0  0  0  0  0
   40.3867   24.0613  -14.6581 S   0  0  0  0  0  0  0  0  0  0  0  0
   42.4960   24.0500  -14.6512 S   0  0  0  0  0  0  0  0  0  0  0  0
   43.1866   25.7539  -15.6853 S   0  0  0  0  0  0  0  0  0  0  0  0
   45.2960   25.7425  -15.6784 S   0  0  0  0  0  0  0  0  0  0  0  0
   45.9865   27.4464  -16.7124 S   0  0  0  0  0  0  0  0  0  0  0  0
   48.0957   27.4349  -16.7055 S   0  0  0  0  0  0  0  0  0  0  0  0
   48.7858   29.1386  -17.7394 S   0  0  0  0  0  0  0  0  0  0  0  0
   50.8943   29.1268  -17.7322 S   0  0  0  0  0  0  0  0  0  0  0  0
   51.5831   30.8297  -18.7657 S   0  0  0  0  0  0  0  0  0  0  0  0
   53.6894   30.8163  -18.7576 S   0  0  0  0  0  0  0  0  0  0  0  0
   54.3752   32.5170  -19.7898 S   0  0  0  0  0  0  0  0  0  0  0  0
   56.4757   32.4987  -19.7781 S   0  0  0  0  0  0  0  0  0  0  0  0
   57.1513   34.1941  -20.8075 S   0  0  0  0  0  0  0  0  0  0  0  0
   59.2367   34.1474  -20.8091 S   0  0  0  0  0  0  0  0  0  0  0  0
   59.9023   35.8666  -21.7664 S   0  0  0  0  0  0  0  0  0  0  0  0
   61.9711   35.7889  -21.7915 S   0  0  0  0  0  0  0  0  0  0  0  0
   62.5619   35.9096  -19.8225 S   0  0  0  0  0  0  0  0  0  0  0  0
   12.0824    7.7759    4.7829 H   0  0  0  0  0  0  0  0  0  0  0  0
    8.9365    8.2912    3.9013 H   0  0  0  0  0  0  0  0  0  0  0  0
    9.0314    6.5398    4.2003 H   0  0  0  0  0  0  0  0  0  0  0  0
    9.1759    7.9072    1.4508 H   0  0  0  0  0  0  0  0  0  0  0  0
    7.7651    7.0475    2.0935 H   0  0  0  0  0  0  0  0  0  0  0  0
    9.1377    4.9538    2.2725 H   0  0  0  0  0  0  0  0  0  0  0  0
   10.5367    5.8155    1.6122 H   0  0  0  0  0  0  0  0  0  0  0  0
    9.2975    6.1410   -0.4259 H   0  0  0  0  0  0  0  0  0  0  0  0
   63.9024   35.8666  -19.9417 H   0  0  0  0  0  0  0  0  0  0  0  0
  1  2  1  0  0  0  0
  1 48  1  0  0  0  0
  2  3  1  0  0  0  0
  3  4  1  0  0  0  0
  3 49  1  0  0  0  0
  3 50  1  0  0  0  0
  4  5  1  0  0  0  0
  4 51  1  0  0  0  0
  4 52  1  0  0  0  0
  5  6  1  0  0  0  0
  5 53  1  0  0  0  0
  5 54  1  0  0  0  0
  6  7  1  0  0  0  0
  6 55  1  0  0  0  0
  7  8  1  0  0  0  0
  8  9  1  0  0  0  0
  9 10  1  0  0  0  0
 10 11  1  0  0  0  0
 11 12  1  0  0  0  0
 12 13  1  0  0  0  0
 13 14  1  0  0  0  0
 14 15  1  0  0  0  0
 15 16  1  0  0  0  0
 16 17  1  0  0  0  0
 17 18  1  0  0  0  0
 18 19  1  0  0  0  0
 19 20  1  0  0  0  0
 20 21  1  0  0  0  0
 21 22  1  0  0  0  0
 22 23  1  0  0  0  0
 23 24  1  0  0  0  0
 24 25  1  0  0  0  0
 25 26  1  0  0  0  0
 26 27  1  0  0  0  0
 27 28  1  0  0  0  0
 28 29  1  0  0  0  0
 29 30  1  0  0  0  0
 30 31  1  0  0  0  0
 31 32  1  0  0  0  0
 32 33  1  0  0  0  0
 33 34  1  0  0  0  0
 34 35  1  0  0  0  0
 35 36  1  0  0  0  0
 36 37  1  0  0  0  0
 37 38  1  0  0  0  0
 38 39  1  0  0  0  0
 39 40  1  0  0  0  0
 40 41  1  0  0  0  0
 41 42  1  0  0  0  0
 42 43  1  0  0  0  0
 43 44  1  0  0  0  0
 44 45  1  0  0  0  0
 45 46  1  0  0  0  0
 46 47  1  0  0  0  0
 47 56  1  0  0  0  0
M  END
$$$$
