
 OpenBabel04232217023D

103102  0  0  0  0  0  0  0  0999 V2000
   30.6031   -4.2652   14.7356 O   0  0  0  0  0  0  0  0  0  0  0  0
   29.9448   -3.2969   15.6282 O   0  0  0  0  0  0  0  0  0  0  0  0
   30.3604   -3.7638   16.8982 C   0  0  0  0  0  0  0  0  0  0  0  0
   29.6980   -3.3796   18.1692 C   0  0  0  0  0  0  0  0  0  0  0  0
   28.2657   -3.5535   18.0303 N   0  0  0  0  0  0  0  0  0  0  0  0
   27.7608   -4.8197   17.7868 N   0  0  0  0  0  0  0  0  0  0  0  0
   26.4303   -4.5836   17.8443 N   0  0  0  0  0  0  0  0  0  0  0  0
   25.9144   -4.1850   16.6553 N   0  0  0  0  0  0  0  0  0  0  0  0
   26.5879   -4.7814   15.5442 N   0  0  0  0  0  0  0  0  0  0  0  0
   26.0304   -5.9878   15.2377 N   0  0  0  0  0  0  0  0  0  0  0  0
   26.6931   -6.9087   14.5359 N   0  0  0  0  0  0  0  0  0  0  0  0
   28.0721   -7.0429   14.7417 N   0  0  0  0  0  0  0  0  0  0  0  0
   28.4695   -7.6240   15.9255 N   0  0  0  0  0  0  0  0  0  0  0  0
   29.8297   -7.8438   15.9378 N   0  0  0  0  0  0  0  0  0  0  0  0
   30.5055   -6.6972   16.2205 N   0  0  0  0  0  0  0  0  0  0  0  0
   29.7421   -6.4658   17.3856 N   0  0  0  0  0  0  0  0  0  0  0  0
   30.3265   -6.4538   18.6069 N   0  0  0  0  0  0  0  0  0  0  0  0
   29.6835   -5.8213   20.0219 S   0  0  0  0  0  0  0  0  0  0  0  0
   28.0087   -5.3419   20.1038 N   0  0  0  0  0  0  0  0  0  0  0  0
   27.1850   -6.8321   19.8132 S   0  0  0  0  0  0  0  0  0  0  0  0
   25.5729   -6.6321   19.7470 N   0  0  0  0  0  0  0  0  0  0  0  0
   24.6208   -6.4186   18.4346 S   0  0  0  0  0  0  0  0  0  0  0  0
   25.3688   -7.2025   17.2219 N   0  0  0  0  0  0  0  0  0  0  0  0
   24.8128   -8.6991   16.9793 S   0  0  0  0  0  0  0  0  0  0  0  0
   25.4676   -9.4393   15.1419 S   0  0  0  0  0  0  0  0  0  0  0  0
   27.5097   -9.9891   14.9392 S   0  0  0  0  0  0  0  0  0  0  0  0
   28.3496  -10.5702   16.7982 S   0  0  0  0  0  0  0  0  0  0  0  0
   30.4970  -10.5138   16.7521 S   0  0  0  0  0  0  0  0  0  0  0  0
   31.2093  -11.4771   18.4586 S   0  0  0  0  0  0  0  0  0  0  0  0
   33.3109  -11.4553   18.4302 S   0  0  0  0  0  0  0  0  0  0  0  0
   34.0041  -12.5131   20.1165 S   0  0  0  0  0  0  0  0  0  0  0  0
   36.1132  -12.5058   20.1063 S   0  0  0  0  0  0  0  0  0  0  0  0
   36.8040  -13.5642   21.7956 S   0  0  0  0  0  0  0  0  0  0  0  0
   38.9135  -13.5572   21.7844 S   0  0  0  0  0  0  0  0  0  0  0  0
   39.6042  -14.6155   23.4734 S   0  0  0  0  0  0  0  0  0  0  0  0
   41.7136  -14.6085   23.4622 S   0  0  0  0  0  0  0  0  0  0  0  0
   42.4042  -15.6668   25.1512 S   0  0  0  0  0  0  0  0  0  0  0  0
   44.5135  -15.6598   25.1400 S   0  0  0  0  0  0  0  0  0  0  0  0
   45.2042  -16.7181   26.8289 S   0  0  0  0  0  0  0  0  0  0  0  0
   47.3135  -16.7110   26.8177 S   0  0  0  0  0  0  0  0  0  0  0  0
   48.0042  -17.7693   28.5067 S   0  0  0  0  0  0  0  0  0  0  0  0
   50.1135  -17.7623   28.4955 S   0  0  0  0  0  0  0  0  0  0  0  0
   50.8042  -18.8206   30.1845 S   0  0  0  0  0  0  0  0  0  0  0  0
   52.9135  -18.8135   30.1732 S   0  0  0  0  0  0  0  0  0  0  0  0
   53.6041  -19.8718   31.8622 S   0  0  0  0  0  0  0  0  0  0  0  0
   55.7135  -19.8648   31.8510 S   0  0  0  0  0  0  0  0  0  0  0  0
   56.4041  -20.9231   33.5400 S   0  0  0  0  0  0  0  0  0  0  0  0
   58.5135  -20.9160   33.5287 S   0  0  0  0  0  0  0  0  0  0  0  0
   59.2041  -21.9743   35.2177 S   0  0  0  0  0  0  0  0  0  0  0  0
   61.3135  -21.9673   35.2065 S   0  0  0  0  0  0  0  0  0  0  0  0
   62.0041  -23.0256   36.8955 S   0  0  0  0  0  0  0  0  0  0  0  0
   64.1135  -23.0185   36.8843 S   0  0  0  0  0  0  0  0  0  0  0  0
   64.8041  -24.0768   38.5733 S   0  0  0  0  0  0  0  0  0  0  0  0
   66.9135  -24.0698   38.5620 S   0  0  0  0  0  0  0  0  0  0  0  0
   67.6041  -25.1281   40.2510 S   0  0  0  0  0  0  0  0  0  0  0  0
   69.7135  -25.1211   40.2398 S   0  0  0  0  0  0  0  0  0  0  0  0
   70.4041  -26.1793   41.9288 S   0  0  0  0  0  0  0  0  0  0  0  0
   72.5135  -26.1723   41.9175 S   0  0  0  0  0  0  0  0  0  0  0  0
   73.2041  -27.2306   43.6065 S   0  0  0  0  0  0  0  0  0  0  0  0
   75.3135  -27.2236   43.5953 S   0  0  0  0  0  0  0  0  0  0  0  0
   76.0041  -28.2818   45.2843 S   0  0  0  0  0  0  0  0  0  0  0  0
   78.1135  -28.2748   45.2731 S   0  0  0  0  0  0  0  0  0  0  0  0
   78.8041  -29.3331   46.9620 S   0  0  0  0  0  0  0  0  0  0  0  0
   80.9134  -29.3261   46.9508 S   0  0  0  0  0  0  0  0  0  0  0  0
   81.6041  -30.3844   48.6398 S   0  0  0  0  0  0  0  0  0  0  0  0
   83.7134  -30.3773   48.6286 S   0  0  0  0  0  0  0  0  0  0  0  0
   84.4041  -31.4356   50.3176 S   0  0  0  0  0  0  0  0  0  0  0  0
   86.5134  -31.4286   50.3063 S   0  0  0  0  0  0  0  0  0  0  0  0
   87.2041  -32.4869   51.9953 S   0  0  0  0  0  0  0  0  0  0  0  0
   89.3134  -32.4798   51.9841 S   0  0  0  0  0  0  0  0  0  0  0  0
   90.0040  -33.5381   53.6731 S   0  0  0  0  0  0  0  0  0  0  0  0
   92.1134  -33.5311   53.6618 S   0  0  0  0  0  0  0  0  0  0  0  0
   92.8038  -34.5893   55.3507 S   0  0  0  0  0  0  0  0  0  0  0  0
   94.9128  -34.5822   55.3393 S   0  0  0  0  0  0  0  0  0  0  0  0
   95.6024  -35.6402   57.0276 S   0  0  0  0  0  0  0  0  0  0  0  0
   97.7089  -35.6316   57.0149 S   0  0  0  0  0  0  0  0  0  0  0  0
   98.3949  -36.6878   58.7000 S   0  0  0  0  0  0  0  0  0  0  0  0
  100.4909  -36.6880   58.6654 S   0  0  0  0  0  0  0  0  0  0  0  0
  101.1711  -37.6853   60.3638 S   0  0  0  0  0  0  0  0  0  0  0  0
  103.2523  -37.7006   60.3058 S   0  0  0  0  0  0  0  0  0  0  0  0
  103.8578  -35.7361   60.4370 S   0  0  0  0  0  0  0  0  0  0  0  0
   30.4344   -3.8958   13.8169 H   0  0  0  0  0  0  0  0  0  0  0  0
   31.3480   -4.2192   16.9283 H   0  0  0  0  0  0  0  0  0  0  0  0
   29.7763   -4.6052   16.7978 H   0  0  0  0  0  0  0  0  0  0  0  0
   29.9829   -2.3321   18.2728 H   0  0  0  0  0  0  0  0  0  0  0  0
   30.0539   -3.7540   19.1106 H   0  0  0  0  0  0  0  0  0  0  0  0
   28.0358   -3.0028   17.2299 H   0  0  0  0  0  0  0  0  0  0  0  0
   28.0038   -5.6728   18.4135 H   0  0  0  0  0  0  0  0  0  0  0  0
   25.9557   -4.4228   18.7448 H   0  0  0  0  0  0  0  0  0  0  0  0
   26.2130   -3.2327   16.6578 H   0  0  0  0  0  0  0  0  0  0  0  0
   27.5626   -4.8725   15.8117 H   0  0  0  0  0  0  0  0  0  0  0  0
   25.0628   -6.2213   15.4965 H   0  0  0  0  0  0  0  0  0  0  0  0
   26.3936   -6.7558   13.5888 H   0  0  0  0  0  0  0  0  0  0  0  0
   28.4894   -6.1018   14.6043 H   0  0  0  0  0  0  0  0  0  0  0  0
   28.1273   -8.5614   16.1983 H   0  0  0  0  0  0  0  0  0  0  0  0
   30.2724   -8.4433   15.3303 H   0  0  0  0  0  0  0  0  0  0  0  0
   30.2309   -6.1297   15.3862 H   0  0  0  0  0  0  0  0  0  0  0  0
   28.8526   -5.9957   17.1683 H   0  0  0  0  0  0  0  0  0  0  0  0
   31.3224   -6.3501   18.4821 H   0  0  0  0  0  0  0  0  0  0  0  0
   27.7884   -4.5498   19.3410 H   0  0  0  0  0  0  0  0  0  0  0  0
   25.2563   -5.8613   20.5444 H   0  0  0  0  0  0  0  0  0  0  0  0
   26.3686   -6.9098   17.0331 H   0  0  0  0  0  0  0  0  0  0  0  0
  105.2032  -35.8308   60.4052 H   0  0  0  0  0  0  0  0  0  0  0  0
  1  2  1  0  0  0  0
  1 82  1  0  0  0  0
  2  3  1  0  0  0  0
  3  4  1  0  0  0  0
  3 83  1  0  0  0  0
  3 84  1  0  0  0  0
  4  5  1  0  0  0  0
  4 85  1  0  0  0  0
  4 86  1  0  0  0  0
  5  6  1  0  0  0  0
  5 87  1  0  0  0  0
  6  7  1  0  0  0  0
  6 88  1  0  0  0  0
  7  8  1  0  0  0  0
  7 89  1  0  0  0  0
  8  9  1  0  0  0  0
  8 90  1  0  0  0  0
  9 10  1  0  0  0  0
  9 91  1  0  0  0  0
 10 11  1  0  0  0  0
 10 92  1  0  0  0  0
 11 12  1  0  0  0  0
 11 93  1  0  0  0  0
 12 13  1  0  0  0  0
 12 94  1  0  0  0  0
 13 14  1  0  0  0  0
 13 95  1  0  0  0  0
 14 15  1  0  0  0  0
 14 96  1  0  0  0  0
 15 16  1  0  0  0  0
 15 97  1  0  0  0  0
 16 17  1  0  0  0  0
 16 98  1  0  0  0  0
 17 18  1  0  0  0  0
 17 99  1  0  0  0  0
 18 19  1  0  0  0  0
 19 20  1  0  0  0  0
 19100  1  0  0  0  0
 20 21  1  0  0  0  0
 21 22  1  0  0  0  0
 21101  1  0  0  0  0
 22 23  1  0  0  0  0
 23 24  1  0  0  0  0
 23102  1  0  0  0  0
 24 25  1  0  0  0  0
 25 26  1  0  0  0  0
 26 27  1  0  0  0  0
 27 28  1  0  0  0  0
 28 29  1  0  0  0  0
 29 30  1  0  0  0  0
 30 31  1  0  0  0  0
 31 32  1  0  0  0  0
 32 33  1  0  0  0  0
 33 34  1  0  0  0  0
 34 35  1  0  0  0  0
 35 36  1  0  0  0  0
 36 37  1  0  0  0  0
 37 38  1  0  0  0  0
 38 39  1  0  0  0  0
 39 40  1  0  0  0  0
 40 41  1  0  0  0  0
 41 42  1  0  0  0  0
 42 43  1  0  0  0  0
 43 44  1  0  0  0  0
 44 45  1  0  0  0  0
 45 46  1  0  0  0  0
 46 47  1  0  0  0  0
 47 48  1  0  0  0  0
 48 49  1  0  0  0  0
 49 50  1  0  0  0  0
 50 51  1  0  0  0  0
 51 52  1  0  0  0  0
 52 53  1  0  0  0  0
 53 54  1  0  0  0  0
 54 55  1  0  0  0  0
 55 56  1  0  0  0  0
 56 57  1  0  0  0  0
 57 58  1  0  0  0  0
 58 59  1  0  0  0  0
 59 60  1  0  0  0  0
 60 61  1  0  0  0  0
 61 62  1  0  0  0  0
 62 63  1  0  0  0  0
 63 64  1  0  0  0  0
 64 65  1  0  0  0  0
 65 66  1  0  0  0  0
 66 67  1  0  0  0  0
 67 68  1  0  0  0  0
 68 69  1  0  0  0  0
 69 70  1  0  0  0  0
 70 71  1  0  0  0  0
 71 72  1  0  0  0  0
 72 73  1  0  0  0  0
 73 74  1  0  0  0  0
 74 75  1  0  0  0  0
 75 76  1  0  0  0  0
 76 77  1  0  0  0  0
 77 78  1  0  0  0  0
 78 79  1  0  0  0  0
 79 80  1  0  0  0  0
 80 81  1  0  0  0  0
 81103  1  0  0  0  0
M  END
$$$$
