
 OpenBabel04232216493D

 57 58  0  0  0  0  0  0  0  0999 V2000
   19.3522  -10.9366   -7.4616 C   0  0  0  0  0  0  0  0  0  0  0  0
   18.5394   -9.7260   -6.8862 C   0  0  0  0  0  0  0  0  0  0  0  0
   19.5237   -8.8467   -6.5604 C   0  0  0  0  0  0  0  0  0  0  0  0
   20.5589   -8.9897   -5.4779 C   0  0  0  0  0  0  0  0  0  0  0  0
   20.7103   -7.8846   -4.7194 C   0  0  0  0  0  0  0  0  0  0  0  0
   19.4451   -7.5591   -4.0487 C   0  0  0  0  0  0  0  0  0  0  0  0
   19.2797   -8.4014   -2.7858 C   0  0  0  0  0  0  0  0  0  0  0  0
   18.4346   -6.8674   -4.6629 C   0  0  0  0  0  0  0  0  0  0  0  0
   18.4333   -6.2948   -6.1182 C   0  0  0  0  0  0  0  0  0  0  0  0
   19.5496   -6.3553   -7.0030 O   0  0  0  0  0  0  0  0  0  0  0  0
   17.2809   -6.7692   -3.9131 N   0  0  0  0  0  0  0  0  0  0  0  0
   16.1549   -6.1972   -4.1925 C   0  0  0  0  0  0  0  0  0  0  0  0
   15.7202   -5.4475   -5.4504 C   0  0  0  0  0  0  0  0  0  0  0  0
   15.3121   -6.1130   -3.0972 N   0  0  0  0  0  0  0  0  0  0  0  0
   14.1401   -5.8656   -3.4070 N   0  0  0  0  0  0  0  0  0  0  0  0
   13.3533   -5.3134   -2.4132 C   0  0  0  0  0  0  0  0  0  0  0  0
   13.8963   -4.7444   -1.3985 N   0  0  0  0  0  0  0  0  0  0  0  0
   13.1758   -4.0817   -0.4647 C   0  0  0  0  0  0  0  0  0  0  0  0
   11.9137   -4.2261   -0.0491 C   0  0  0  0  0  0  0  0  0  0  0  0
   10.8234   -5.1524   -0.5034 C   0  0  0  0  0  0  0  0  0  0  0  0
   11.0545   -6.0863   -1.7140 C   0  0  0  0  0  0  0  0  0  0  0  0
   11.9054   -5.4746   -2.7756 C   0  0  0  0  0  0  0  0  0  0  0  0
   11.7536   -5.2916   -4.0996 C   0  0  0  0  0  0  0  0  0  0  0  0
   11.1469   -6.1460   -5.1048 C   0  0  0  0  0  0  0  0  0  0  0  0
   11.9279   -6.8295   -6.0250 C   0  0  0  0  0  0  0  0  0  0  0  0
   13.1279   -7.8707   -5.7304 C   0  0  0  0  0  0  0  0  0  0  0  0
   14.3936   -8.3143   -6.2119 C   0  0  0  0  0  0  0  0  0  0  0  0
   15.8476   -8.7748   -6.8501 C   0  0  0  0  0  0  0  0  0  0  0  0
   16.9455   -9.4941   -6.3755 C   0  0  0  0  0  0  0  0  0  0  0  0
   19.5666  -10.8037   -8.5341 H   0  0  0  0  0  0  0  0  0  0  0  0
   19.0418  -11.9461   -7.2134 H   0  0  0  0  0  0  0  0  0  0  0  0
   20.4039  -10.9324   -7.0688 H   0  0  0  0  0  0  0  0  0  0  0  0
   20.2731   -8.7079   -7.3649 H   0  0  0  0  0  0  0  0  0  0  0  0
   20.6070   -9.9510   -4.9605 H   0  0  0  0  0  0  0  0  0  0  0  0
   21.0337   -6.9771   -5.2299 H   0  0  0  0  0  0  0  0  0  0  0  0
   20.0875   -9.1446   -2.6845 H   0  0  0  0  0  0  0  0  0  0  0  0
   18.3603   -8.9987   -2.8227 H   0  0  0  0  0  0  0  0  0  0  0  0
   19.3001   -7.7965   -1.8783 H   0  0  0  0  0  0  0  0  0  0  0  0
   18.1644   -5.2432   -6.0970 H   0  0  0  0  0  0  0  0  0  0  0  0
   17.6775   -6.8622   -6.6656 H   0  0  0  0  0  0  0  0  0  0  0  0
   20.2237   -5.7319   -6.7148 H   0  0  0  0  0  0  0  0  0  0  0  0
   16.1733   -5.7661   -6.3801 H   0  0  0  0  0  0  0  0  0  0  0  0
   15.9122   -4.3838   -5.3042 H   0  0  0  0  0  0  0  0  0  0  0  0
   14.6558   -5.5663   -5.6527 H   0  0  0  0  0  0  0  0  0  0  0  0
   13.7734   -3.3127    0.0308 H   0  0  0  0  0  0  0  0  0  0  0  0
   11.6092   -3.5448    0.7456 H   0  0  0  0  0  0  0  0  0  0  0  0
    9.9530   -4.5154   -0.7142 H   0  0  0  0  0  0  0  0  0  0  0  0
   10.5307   -5.7648    0.3614 H   0  0  0  0  0  0  0  0  0  0  0  0
   10.0661   -6.3459   -2.1134 H   0  0  0  0  0  0  0  0  0  0  0  0
   11.5054   -7.0195   -1.3592 H   0  0  0  0  0  0  0  0  0  0  0  0
   12.4360   -4.5955   -4.5982 H   0  0  0  0  0  0  0  0  0  0  0  0
   10.1475   -5.7502   -5.3529 H   0  0  0  0  0  0  0  0  0  0  0  0
   11.4439   -6.9061   -6.9967 H   0  0  0  0  0  0  0  0  0  0  0  0
   12.6858   -8.4310   -4.8924 H   0  0  0  0  0  0  0  0  0  0  0  0
   14.3159   -7.5310   -7.0063 H   0  0  0  0  0  0  0  0  0  0  0  0
   15.9435   -8.2534   -7.7959 H   0  0  0  0  0  0  0  0  0  0  0  0
   16.8721   -9.9382   -5.3833 H   0  0  0  0  0  0  0  0  0  0  0  0
  1  2  1  0  0  0  0
  1 30  1  0  0  0  0
  1 31  1  0  0  0  0
  1 32  1  0  0  0  0
  2  3  2  3  0  0  0
  2 29  1  0  0  0  0
  3  4  1  0  0  0  0
  3 33  1  0  0  0  0
  4  5  2  3  0  0  0
  4 34  1  0  0  0  0
  5  6  1  0  0  0  0
  5 35  1  0  0  0  0
  6  7  1  0  0  0  0
  6  8  2  3  0  0  0
  7 36  1  0  0  0  0
  7 37  1  0  0  0  0
  7 38  1  0  0  0  0
  8  9  1  0  0  0  0
  8 11  1  0  0  0  0
  9 10  1  0  0  0  0
  9 39  1  0  0  0  0
  9 40  1  0  0  0  0
 10 41  1  0  0  0  0
 11 12  2  3  0  0  0
 12 13  1  0  0  0  0
 12 14  1  0  0  0  0
 13 42  1  0  0  0  0
 13 43  1  0  0  0  0
 13 44  1  0  0  0  0
 14 15  2  3  0  0  0
 15 16  1  0  0  0  0
 16 17  2  0  0  0  0
 16 22  1  0  0  0  0
 17 18  1  0  0  0  0
 18 19  2  0  0  0  0
 18 45  1  0  0  0  0
 19 20  1  0  0  0  0
 19 46  1  0  0  0  0
 20 21  1  0  0  0  0
 20 47  1  0  0  0  0
 20 48  1  0  0  0  0
 21 22  1  0  0  0  0
 21 49  1  0  0  0  0
 21 50  1  0  0  0  0
 22 23  2  3  0  0  0
 23 24  1  0  0  0  0
 23 51  1  0  0  0  0
 24 25  2  3  0  0  0
 24 52  1  0  0  0  0
 25 26  1  0  0  0  0
 25 53  1  0  0  0  0
 26 27  2  3  0  0  0
 26 54  1  0  0  0  0
 27 28  1  0  0  0  0
 27 55  1  0  0  0  0
 28 29  2  3  0  0  0
 28 56  1  0  0  0  0
 29 57  1  0  0  0  0
M  END
$$$$
