
 OpenBabel04232217023D

 60 59  0  0  0  0  0  0  0  0999 V2000
    3.1284   -1.2697    0.5462 O   0  0  0  0  0  0  0  0  0  0  0  0
    2.6492    0.0602    0.1964 O   0  0  0  0  0  0  0  0  0  0  0  0
    3.0561    1.1407    1.4056 S   0  0  0  0  0  0  0  0  0  0  0  0
    5.1173    1.0798    1.2632 S   0  0  0  0  0  0  0  0  0  0  0  0
    5.8287    2.3766    2.7150 S   0  0  0  0  0  0  0  0  0  0  0  0
    7.9103    2.3439    2.6624 S   0  0  0  0  0  0  0  0  0  0  0  0
    8.5800    3.6800    4.1303 S   0  0  0  0  0  0  0  0  0  0  0  0
   10.6763    3.6781    4.1158 S   0  0  0  0  0  0  0  0  0  0  0  0
   11.3496    5.0211    5.5872 S   0  0  0  0  0  0  0  0  0  0  0  0
   13.4543    5.0173    5.5748 S   0  0  0  0  0  0  0  0  0  0  0  0
   14.1405    6.3619    7.0439 S   0  0  0  0  0  0  0  0  0  0  0  0
   16.2486    6.3541    7.0311 S   0  0  0  0  0  0  0  0  0  0  0  0
   16.9390    7.7014    8.4987 S   0  0  0  0  0  0  0  0  0  0  0  0
   19.0481    7.6919    8.4887 S   0  0  0  0  0  0  0  0  0  0  0  0
   19.7387    9.0418    9.9550 S   0  0  0  0  0  0  0  0  0  0  0  0
   21.8481    9.0350    9.9433 S   0  0  0  0  0  0  0  0  0  0  0  0
   22.5387   10.3827   11.4118 S   0  0  0  0  0  0  0  0  0  0  0  0
   24.6481   10.3738   11.4020 S   0  0  0  0  0  0  0  0  0  0  0  0
   25.3387   11.7238   12.8683 S   0  0  0  0  0  0  0  0  0  0  0  0
   27.4481   11.7127   12.8605 S   0  0  0  0  0  0  0  0  0  0  0  0
   28.1388   13.0605   14.3289 S   0  0  0  0  0  0  0  0  0  0  0  0
   30.2481   13.0517   14.3190 S   0  0  0  0  0  0  0  0  0  0  0  0
   30.9388   14.4015   15.7855 S   0  0  0  0  0  0  0  0  0  0  0  0
   33.0481   14.3904   15.7777 S   0  0  0  0  0  0  0  0  0  0  0  0
   33.7388   15.7425   17.2421 S   0  0  0  0  0  0  0  0  0  0  0  0
   35.8481   15.7292   17.2363 S   0  0  0  0  0  0  0  0  0  0  0  0
   36.5388   17.0792   18.7027 S   0  0  0  0  0  0  0  0  0  0  0  0
   38.6481   17.0682   18.6947 S   0  0  0  0  0  0  0  0  0  0  0  0
   39.3388   18.4159   20.1632 S   0  0  0  0  0  0  0  0  0  0  0  0
   41.4482   18.4070   20.1534 S   0  0  0  0  0  0  0  0  0  0  0  0
   42.1388   19.7570   21.6198 S   0  0  0  0  0  0  0  0  0  0  0  0
   44.2481   19.7458   21.6120 S   0  0  0  0  0  0  0  0  0  0  0  0
   44.9387   21.0937   23.0803 S   0  0  0  0  0  0  0  0  0  0  0  0
   47.0481   21.0849   23.0705 S   0  0  0  0  0  0  0  0  0  0  0  0
   47.7387   22.4305   24.5409 S   0  0  0  0  0  0  0  0  0  0  0  0
   49.8481   22.4236   24.5291 S   0  0  0  0  0  0  0  0  0  0  0  0
   50.5387   23.7715   25.9974 S   0  0  0  0  0  0  0  0  0  0  0  0
   52.6481   23.7624   25.9878 S   0  0  0  0  0  0  0  0  0  0  0  0
   53.3387   25.1082   27.4580 S   0  0  0  0  0  0  0  0  0  0  0  0
   55.4480   25.1014   27.4462 S   0  0  0  0  0  0  0  0  0  0  0  0
   56.1386   26.4450   28.9185 S   0  0  0  0  0  0  0  0  0  0  0  0
   58.2480   26.4361   28.9087 S   0  0  0  0  0  0  0  0  0  0  0  0
   58.9385   27.7818   30.3789 S   0  0  0  0  0  0  0  0  0  0  0  0
   61.0477   27.7706   30.3710 S   0  0  0  0  0  0  0  0  0  0  0  0
   61.7380   29.1184   31.8391 S   0  0  0  0  0  0  0  0  0  0  0  0
   63.8469   29.1050   31.8329 S   0  0  0  0  0  0  0  0  0  0  0  0
   64.5365   30.4502   33.3027 S   0  0  0  0  0  0  0  0  0  0  0  0
   66.6443   30.4384   33.2939 S   0  0  0  0  0  0  0  0  0  0  0  0
   67.3321   31.7850   34.7608 S   0  0  0  0  0  0  0  0  0  0  0  0
   69.4374   31.7695   34.7525 S   0  0  0  0  0  0  0  0  0  0  0  0
   70.1205   33.1125   36.2196 S   0  0  0  0  0  0  0  0  0  0  0  0
   72.2203   33.0967   36.2066 S   0  0  0  0  0  0  0  0  0  0  0  0
   72.8938   34.4349   37.6723 S   0  0  0  0  0  0  0  0  0  0  0  0
   74.9834   34.4140   37.6496 S   0  0  0  0  0  0  0  0  0  0  0  0
   75.6381   35.7253   39.1255 S   0  0  0  0  0  0  0  0  0  0  0  0
   77.7100   35.7440   39.0571 S   0  0  0  0  0  0  0  0  0  0  0  0
   78.3452   37.0333   40.5448 S   0  0  0  0  0  0  0  0  0  0  0  0
   77.6601   38.8925   40.0005 S   0  0  0  0  0  0  0  0  0  0  0  0
    2.7777   -1.7107   -0.2869 H   0  0  0  0  0  0  0  0  0  0  0  0
   78.1266   39.6473   41.0109 H   0  0  0  0  0  0  0  0  0  0  0  0
  1  2  1  0  0  0  0
  1 59  1  0  0  0  0
  2  3  1  0  0  0  0
  3  4  1  0  0  0  0
  4  5  1  0  0  0  0
  5  6  1  0  0  0  0
  6  7  1  0  0  0  0
  7  8  1  0  0  0  0
  8  9  1  0  0  0  0
  9 10  1  0  0  0  0
 10 11  1  0  0  0  0
 11 12  1  0  0  0  0
 12 13  1  0  0  0  0
 13 14  1  0  0  0  0
 14 15  1  0  0  0  0
 15 16  1  0  0  0  0
 16 17  1  0  0  0  0
 17 18  1  0  0  0  0
 18 19  1  0  0  0  0
 19 20  1  0  0  0  0
 20 21  1  0  0  0  0
 21 22  1  0  0  0  0
 22 23  1  0  0  0  0
 23 24  1  0  0  0  0
 24 25  1  0  0  0  0
 25 26  1  0  0  0  0
 26 27  1  0  0  0  0
 27 28  1  0  0  0  0
 28 29  1  0  0  0  0
 29 30  1  0  0  0  0
 30 31  1  0  0  0  0
 31 32  1  0  0  0  0
 32 33  1  0  0  0  0
 33 34  1  0  0  0  0
 34 35  1  0  0  0  0
 35 36  1  0  0  0  0
 36 37  1  0  0  0  0
 37 38  1  0  0  0  0
 38 39  1  0  0  0  0
 39 40  1  0  0  0  0
 40 41  1  0  0  0  0
 41 42  1  0  0  0  0
 42 43  1  0  0  0  0
 43 44  1  0  0  0  0
 44 45  1  0  0  0  0
 45 46  1  0  0  0  0
 46 47  1  0  0  0  0
 47 48  1  0  0  0  0
 48 49  1  0  0  0  0
 49 50  1  0  0  0  0
 50 51  1  0  0  0  0
 51 52  1  0  0  0  0
 52 53  1  0  0  0  0
 53 54  1  0  0  0  0
 54 55  1  0  0  0  0
 55 56  1  0  0  0  0
 56 57  1  0  0  0  0
 57 58  1  0  0  0  0
 58 60  1  0  0  0  0
M  END
$$$$
