
 OpenBabel04232216493D

 67 67  0  0  0  0  0  0  0  0999 V2000
    5.0878    0.7060    1.5648 C   0  0  0  0  0  0  0  0  0  0  0  0
    6.1102   -0.3486    2.0139 C   0  0  0  0  0  0  0  0  0  0  0  0
    5.3883   -1.5947    1.9021 C   0  0  0  0  0  0  0  0  0  0  0  0
    5.0480   -2.1332    0.7001 C   0  0  0  0  0  0  0  0  0  0  0  0
    5.3794   -3.5349    0.5940 C   0  0  0  0  0  0  0  0  0  0  0  0
    6.7244   -3.7307    0.6753 C   0  0  0  0  0  0  0  0  0  0  0  0
    7.6885   -2.7538   -0.0406 C   0  0  0  0  0  0  0  0  0  0  0  0
    7.1188   -4.4636    1.9635 C   0  0  0  0  0  0  0  0  0  0  0  0
    8.4506   -4.0222    2.4833 C   0  0  0  0  0  0  0  0  0  0  0  0
    9.4031   -4.9004    3.2489 C   0  0  0  0  0  0  0  0  0  0  0  0
   10.6678   -4.0276    3.3415 C   0  0  0  0  0  0  0  0  0  0  0  0
   10.3393   -2.5965    3.8575 C   0  0  0  0  0  0  0  0  0  0  0  0
   10.4228   -2.3359    5.0634 O   0  0  0  0  0  0  0  0  0  0  0  0
   10.0067   -1.4592    2.8331 C   0  0  0  0  0  0  0  0  0  0  0  0
   11.1932   -0.8706    2.2649 N   0  0  0  0  0  0  0  0  0  0  0  0
   12.5874   -1.3795    2.0140 C   0  0  0  0  0  0  0  0  0  0  0  0
   13.0223   -2.3942    0.9064 C   0  0  0  0  0  0  0  0  0  0  0  0
   14.4755   -2.8979    1.2579 C   0  0  0  0  0  0  0  0  0  0  0  0
   15.4292   -3.4536    0.1651 C   0  0  0  0  0  0  0  0  0  0  0  0
   16.8065   -3.7995    0.8066 C   0  0  0  0  0  0  0  0  0  0  0  0
   17.8758   -4.3323   -0.1605 C   0  0  0  0  0  0  0  0  0  0  0  0
   19.1837   -4.6618    0.5805 C   0  0  0  0  0  0  0  0  0  0  0  0
   20.2712   -5.1938   -0.3637 C   0  0  0  0  0  0  0  0  0  0  0  0
   21.5598   -5.5311    0.4203 C   0  0  0  0  0  0  0  0  0  0  0  0
   22.6444   -6.1227   -0.4822 C   0  0  0  0  0  0  0  0  0  0  0  0
   22.5447   -6.2313   -1.7020 O   0  0  0  0  0  0  0  0  0  0  0  0
    8.7168   -0.9508    2.6652 C   0  0  0  0  0  0  0  0  0  0  0  0
    7.4711   -0.1171    2.3082 C   0  0  0  0  0  0  0  0  0  0  0  0
    4.0722    0.4605    1.9217 H   0  0  0  0  0  0  0  0  0  0  0  0
    5.0076    0.7230    0.4681 H   0  0  0  0  0  0  0  0  0  0  0  0
    5.3001    1.7118    1.9249 H   0  0  0  0  0  0  0  0  0  0  0  0
    5.1109   -2.1193    2.8173 H   0  0  0  0  0  0  0  0  0  0  0  0
    5.1637   -1.5744   -0.2212 H   0  0  0  0  0  0  0  0  0  0  0  0
    4.7103   -4.2162    1.1170 H   0  0  0  0  0  0  0  0  0  0  0  0
    7.1868   -2.0336   -0.7008 H   0  0  0  0  0  0  0  0  0  0  0  0
    8.4133   -3.2805   -0.6686 H   0  0  0  0  0  0  0  0  0  0  0  0
    8.2584   -2.1193    0.6310 H   0  0  0  0  0  0  0  0  0  0  0  0
    6.9915   -5.5405    1.9004 H   0  0  0  0  0  0  0  0  0  0  0  0
    6.4164   -4.1187    2.7480 H   0  0  0  0  0  0  0  0  0  0  0  0
    8.1864   -3.2340    3.1903 H   0  0  0  0  0  0  0  0  0  0  0  0
    9.0442   -3.6352    1.6583 H   0  0  0  0  0  0  0  0  0  0  0  0
    9.6030   -5.8368    2.7149 H   0  0  0  0  0  0  0  0  0  0  0  0
    9.0206   -5.1435    4.2458 H   0  0  0  0  0  0  0  0  0  0  0  0
   11.4320   -4.5053    3.9667 H   0  0  0  0  0  0  0  0  0  0  0  0
   11.1156   -3.9473    2.3469 H   0  0  0  0  0  0  0  0  0  0  0  0
   11.4037   -0.2105    3.0338 H   0  0  0  0  0  0  0  0  0  0  0  0
   13.1024   -0.4620    1.6911 H   0  0  0  0  0  0  0  0  0  0  0  0
   13.0503   -1.6496    2.9691 H   0  0  0  0  0  0  0  0  0  0  0  0
   13.0475   -1.8973   -0.0718 H   0  0  0  0  0  0  0  0  0  0  0  0
   12.3509   -3.2507    0.8075 H   0  0  0  0  0  0  0  0  0  0  0  0
   14.3771   -3.6679    2.0341 H   0  0  0  0  0  0  0  0  0  0  0  0
   15.0134   -2.0604    1.7197 H   0  0  0  0  0  0  0  0  0  0  0  0
   15.5824   -2.7051   -0.6215 H   0  0  0  0  0  0  0  0  0  0  0  0
   15.0105   -4.3502   -0.3053 H   0  0  0  0  0  0  0  0  0  0  0  0
   16.6532   -4.5455    1.5962 H   0  0  0  0  0  0  0  0  0  0  0  0
   17.2084   -2.9009    1.2920 H   0  0  0  0  0  0  0  0  0  0  0  0
   18.0767   -3.5857   -0.9380 H   0  0  0  0  0  0  0  0  0  0  0  0
   17.5092   -5.2364   -0.6601 H   0  0  0  0  0  0  0  0  0  0  0  0
   18.9922   -5.4094    1.3625 H   0  0  0  0  0  0  0  0  0  0  0  0
   19.5655   -3.7669    1.0901 H   0  0  0  0  0  0  0  0  0  0  0  0
   20.4910   -4.4539   -1.1316 H   0  0  0  0  0  0  0  0  0  0  0  0
   19.9195   -6.1066   -0.8778 H   0  0  0  0  0  0  0  0  0  0  0  0
   21.3655   -6.2615    1.2114 H   0  0  0  0  0  0  0  0  0  0  0  0
   21.9741   -4.6448    0.9048 H   0  0  0  0  0  0  0  0  0  0  0  0
   23.5591   -6.4432    0.0405 H   0  0  0  0  0  0  0  0  0  0  0  0
    9.1416   -0.2049    1.9490 H   0  0  0  0  0  0  0  0  0  0  0  0
    7.6784    0.9579    2.2457 H   0  0  0  0  0  0  0  0  0  0  0  0
  1  2  1  0  0  0  0
  1 29  1  0  0  0  0
  1 30  1  0  0  0  0
  1 31  1  0  0  0  0
  2  3  1  0  0  0  0
  2 28  2  3  0  0  0
  3  4  2  3  0  0  0
  3 32  1  0  0  0  0
  4  5  1  0  0  0  0
  4 33  1  0  0  0  0
  5  6  2  3  0  0  0
  5 34  1  0  0  0  0
  6  7  1  0  0  0  0
  6  8  1  0  0  0  0
  7 35  1  0  0  0  0
  7 36  1  0  0  0  0
  7 37  1  0  0  0  0
  8  9  1  0  0  0  0
  8 38  1  0  0  0  0
  8 39  1  0  0  0  0
  9 10  1  0  0  0  0
  9 40  1  0  0  0  0
  9 41  1  0  0  0  0
 10 11  1  0  0  0  0
 10 42  1  0  0  0  0
 10 43  1  0  0  0  0
 11 12  1  0  0  0  0
 11 44  1  0  0  0  0
 11 45  1  0  0  0  0
 12 13  2  0  0  0  0
 12 14  1  0  0  0  0
 14 15  1  0  0  0  0
 14 27  2  3  0  0  0
 15 16  1  0  0  0  0
 15 46  1  0  0  0  0
 16 17  1  0  0  0  0
 16 47  1  0  0  0  0
 16 48  1  0  0  0  0
 17 18  1  0  0  0  0
 17 49  1  0  0  0  0
 17 50  1  0  0  0  0
 18 19  1  0  0  0  0
 18 51  1  0  0  0  0
 18 52  1  0  0  0  0
 19 20  1  0  0  0  0
 19 53  1  0  0  0  0
 19 54  1  0  0  0  0
 20 21  1  0  0  0  0
 20 55  1  0  0  0  0
 20 56  1  0  0  0  0
 21 22  1  0  0  0  0
 21 57  1  0  0  0  0
 21 58  1  0  0  0  0
 22 23  1  0  0  0  0
 22 59  1  0  0  0  0
 22 60  1  0  0  0  0
 23 24  1  0  0  0  0
 23 61  1  0  0  0  0
 23 62  1  0  0  0  0
 24 25  1  0  0  0  0
 24 63  1  0  0  0  0
 24 64  1  0  0  0  0
 25 26  2  0  0  0  0
 25 65  1  0  0  0  0
 27 28  1  0  0  0  0
 27 66  1  0  0  0  0
 28 67  1  0  0  0  0
M  END
$$$$
