
 OpenBabel04232216523D

 69 69  0  0  1  0  0  0  0  0999 V2000
    9.1634   -1.9580    5.3840 C   0  0  0  0  0  0  0  0  0  0  0  0
    8.6567   -1.4887    4.0300 C   0  0  0  0  0  0  0  0  0  0  0  0
    9.1601   -0.0798    3.7613 C   0  0  0  0  0  0  0  0  0  0  0  0
    8.6551    0.3888    2.4064 C   0  0  0  0  0  0  0  0  0  0  0  0
    9.1601    1.7969    2.1368 C   0  0  0  0  0  0  0  0  0  0  0  0
    8.6534    2.2663    0.7828 C   0  0  0  0  0  0  0  0  0  0  0  0
    9.1600    3.6736    0.5123 C   0  0  0  0  0  0  0  0  0  0  0  0
    8.6534    4.1430   -0.8417 C   0  0  3  0  0  0  0  0  0  0  0  0
    7.1334    4.1430   -0.8417 C   0  0  0  0  0  0  0  0  0  0  0  0
    6.6267    4.6124   -2.1958 C   0  0  0  0  0  0  0  0  0  0  0  0
    5.1067    4.6143   -2.1951 C   0  0  0  0  0  0  0  0  0  0  0  0
    9.1600    5.5503   -1.1122 C   0  0  0  0  0  0  0  0  0  0  0  0
   10.6800    5.5503   -1.1122 C   0  0  0  0  0  0  0  0  0  0  0  0
   11.3155    5.9108   -2.1522 O   0  0  0  0  0  0  0  0  0  0  0  0
   11.4400    5.1191    0.1315 C   0  0  0  0  0  0  0  0  0  0  0  0
   12.8004    5.1191    0.1315 C   0  0  0  0  0  0  0  0  0  0  0  0
   13.5604    5.5503   -1.1122 C   0  0  0  0  0  0  0  0  0  0  0  0
   15.0548    5.4593   -0.8498 C   0  0  0  0  0  0  0  0  0  0  0  0
   15.8148    5.8924   -2.0929 C   0  0  0  0  0  0  0  0  0  0  0  0
   17.3093    5.8014   -1.8305 C   0  0  0  0  0  0  0  0  0  0  0  0
   18.0693    6.2345   -3.0735 C   0  0  0  0  0  0  0  0  0  0  0  0
   19.5637    6.1435   -2.8111 C   0  0  0  0  0  0  0  0  0  0  0  0
   20.3237    6.5766   -4.0542 C   0  0  0  0  0  0  0  0  0  0  0  0
   21.8181    6.4856   -3.7917 C   0  0  0  0  0  0  0  0  0  0  0  0
   10.6800    5.5503   -1.1122 C   0  0  0  0  0  0  0  0  0  0  0  0
    8.8091   -2.9498    5.5732 H   0  0  0  0  0  0  0  0  0  0  0  0
    8.8044   -1.2994    6.1471 H   0  0  0  0  0  0  0  0  0  0  0  0
   10.2334   -1.9553    5.3850 H   0  0  0  0  0  0  0  0  0  0  0  0
    7.5867   -1.4914    4.0291 H   0  0  0  0  0  0  0  0  0  0  0  0
    9.0157   -2.1473    3.2670 H   0  0  0  0  0  0  0  0  0  0  0  0
   10.2301   -0.0768    3.7636 H   0  0  0  0  0  0  0  0  0  0  0  0
    8.7999    0.5791    4.5236 H   0  0  0  0  0  0  0  0  0  0  0  0
    7.5851    0.3872    2.4045 H   0  0  0  0  0  0  0  0  0  0  0  0
    9.0140   -0.2709    1.6443 H   0  0  0  0  0  0  0  0  0  0  0  0
   10.2301    1.7982    2.1372 H   0  0  0  0  0  0  0  0  0  0  0  0
    8.8022    2.4563    2.8997 H   0  0  0  0  0  0  0  0  0  0  0  0
    7.5834    2.2663    0.7828 H   0  0  0  0  0  0  0  0  0  0  0  0
    9.0101    1.6060    0.0200 H   0  0  0  0  0  0  0  0  0  0  0  0
   10.2300    3.6736    0.5123 H   0  0  0  0  0  0  0  0  0  0  0  0
    8.8034    4.3338    1.2750 H   0  0  0  0  0  0  0  0  0  0  0  0
    9.0100    3.4827   -1.6045 H   0  0  0  0  0  0  0  0  0  0  0  0
    6.7767    4.8032   -0.0790 H   0  0  0  0  0  0  0  0  0  0  0  0
    6.7767    3.1523   -0.6513 H   0  0  0  0  0  0  0  0  0  0  0  0
    6.9822    3.9513   -2.9583 H   0  0  0  0  0  0  0  0  0  0  0  0
    6.9845    5.6025   -2.3868 H   0  0  0  0  0  0  0  0  0  0  0  0
    4.7489    3.6241   -2.0041 H   0  0  0  0  0  0  0  0  0  0  0  0
    4.7500    4.9447   -3.1483 H   0  0  0  0  0  0  0  0  0  0  0  0
    4.7512    5.2753   -1.4325 H   0  0  0  0  0  0  0  0  0  0  0  0
    8.8034    6.2105   -0.3495 H   0  0  0  0  0  0  0  0  0  0  0  0
    8.8034    5.8807   -2.0654 H   0  0  0  0  0  0  0  0  0  0  0  0
   13.3019    6.5595   -1.3562 H   0  0  0  0  0  0  0  0  0  0  0  0
   13.3019    4.9086   -1.9285 H   0  0  0  0  0  0  0  0  0  0  0  0
   15.3136    4.4498   -0.6072 H   0  0  0  0  0  0  0  0  0  0  0  0
   15.3131    6.0999   -0.0326 H   0  0  0  0  0  0  0  0  0  0  0  0
   15.5561    6.9019   -2.3355 H   0  0  0  0  0  0  0  0  0  0  0  0
   15.5566    5.2518   -2.9101 H   0  0  0  0  0  0  0  0  0  0  0  0
   17.5680    4.7919   -1.5879 H   0  0  0  0  0  0  0  0  0  0  0  0
   17.5675    6.4420   -1.0132 H   0  0  0  0  0  0  0  0  0  0  0  0
   17.8105    7.2440   -3.3161 H   0  0  0  0  0  0  0  0  0  0  0  0
   17.8110    5.5939   -3.8907 H   0  0  0  0  0  0  0  0  0  0  0  0
   19.8224    5.1340   -2.5685 H   0  0  0  0  0  0  0  0  0  0  0  0
   19.8219    6.7841   -1.9939 H   0  0  0  0  0  0  0  0  0  0  0  0
   20.0649    7.5861   -4.2968 H   0  0  0  0  0  0  0  0  0  0  0  0
   20.0654    5.9360   -4.8714 H   0  0  0  0  0  0  0  0  0  0  0  0
   22.0763    7.1262   -2.9745 H   0  0  0  0  0  0  0  0  0  0  0  0
   22.3531    6.7905   -4.6668 H   0  0  0  0  0  0  0  0  0  0  0  0
   22.0768    5.4761   -3.5492 H   0  0  0  0  0  0  0  0  0  0  0  0
   10.2503    4.8702   -1.8177 H   0  0  0  0  0  0  0  0  0  0  0  0
   10.0415    6.2859   -1.5550 H   0  0  0  0  0  0  0  0  0  0  0  0
  1  2  1  0  0  0  0
  1 26  1  0  0  0  0
  1 27  1  0  0  0  0
  1 28  1  0  0  0  0
  2  3  1  0  0  0  0
  2 29  1  0  0  0  0
  2 30  1  0  0  0  0
  3  4  1  0  0  0  0
  3 31  1  0  0  0  0
  3 32  1  0  0  0  0
  4  5  1  0  0  0  0
  4 33  1  0  0  0  0
  4 34  1  0  0  0  0
  5  6  1  0  0  0  0
  5 35  1  0  0  0  0
  5 36  1  0  0  0  0
  6  7  1  0  0  0  0
  6 37  1  0  0  0  0
  6 38  1  0  0  0  0
  7  8  1  0  0  0  0
  7 39  1  0  0  0  0
  7 40  1  0  0  0  0
  8  9  1  0  0  0  0
  8 12  1  0  0  0  0
  8 41  1  0  0  0  0
  9 10  1  0  0  0  0
  9 42  1  0  0  0  0
  9 43  1  0  0  0  0
 10 11  1  0  0  0  0
 10 44  1  0  0  0  0
 10 45  1  0  0  0  0
 11 46  1  0  0  0  0
 11 47  1  0  0  0  0
 11 48  1  0  0  0  0
 12 13  1  0  0  0  0
 12 49  1  0  0  0  0
 12 50  1  0  0  0  0
 13 14  2  0  0  0  0
 13 15  1  0  0  0  0
 15 16  2  0  0  0  0
 15 25  1  0  0  0  0
 16 17  1  0  0  0  0
 16 25  1  0  0  0  0
 17 18  1  0  0  0  0
 17 51  1  0  0  0  0
 17 52  1  0  0  0  0
 18 19  1  0  0  0  0
 18 53  1  0  0  0  0
 18 54  1  0  0  0  0
 19 20  1  0  0  0  0
 19 55  1  0  0  0  0
 19 56  1  0  0  0  0
 20 21  1  0  0  0  0
 20 57  1  0  0  0  0
 20 58  1  0  0  0  0
 21 22  1  0  0  0  0
 21 59  1  0  0  0  0
 21 60  1  0  0  0  0
 22 23  1  0  0  0  0
 22 61  1  0  0  0  0
 22 62  1  0  0  0  0
 23 24  1  0  0  0  0
 23 63  1  0  0  0  0
 23 64  1  0  0  0  0
 24 65  1  0  0  0  0
 24 66  1  0  0  0  0
 24 67  1  0  0  0  0
 25 68  1  0  0  0  0
 25 69  1  0  0  0  0
M  END
$$$$
