
 OpenBabel04232216593D

165164  0  0  0  0  0  0  0  0999 V2000
   20.1727   27.3366  -11.4273 N   0  0  0  0  0  0  0  0  0  0  0  0
   21.8209   27.2530  -11.2411 S   0  0  0  0  0  0  0  0  0  0  0  0
   22.1989   25.5244  -10.7828 C   0  0  0  0  0  0  0  0  0  0  0  0
   23.7162   25.3406  -10.6031 C   0  0  0  0  0  0  0  0  0  0  0  0
   24.0702   23.9547  -10.2225 N   0  0  0  0  0  0  0  0  0  0  0  0
   23.6243   23.0787  -11.2384 N   0  0  0  0  0  0  0  0  0  0  0  0
   23.9028   21.7413  -10.8761 N   0  0  0  0  0  0  0  0  0  0  0  0
   23.4673   20.8603  -11.9054 N   0  0  0  0  0  0  0  0  0  0  0  0
   24.1260   21.1637  -13.1442 N   0  0  0  0  0  0  0  0  0  0  0  0
   25.5429   21.0421  -12.9905 N   0  0  0  0  0  0  0  0  0  0  0  0
   25.8715   19.7071  -12.6088 N   0  0  0  0  0  0  0  0  0  0  0  0
   25.4171   18.7978  -13.6114 N   0  0  0  0  0  0  0  0  0  0  0  0
   26.0411   19.1104  -14.8573 N   0  0  0  0  0  0  0  0  0  0  0  0
   27.4613   19.0139  -14.7190 N   0  0  0  0  0  0  0  0  0  0  0  0
   27.8017   17.6847  -14.3123 N   0  0  0  0  0  0  0  0  0  0  0  0
   27.3236   16.7750  -15.2959 N   0  0  0  0  0  0  0  0  0  0  0  0
   27.9315   17.0865  -16.5423 N   0  0  0  0  0  0  0  0  0  0  0  0
   29.3453   16.9838  -16.4328 N   0  0  0  0  0  0  0  0  0  0  0  0
   29.7223   15.6685  -16.0499 N   0  0  0  0  0  0  0  0  0  0  0  0
   29.2810   14.7240  -17.0145 N   0  0  0  0  0  0  0  0  0  0  0  0
   29.8648   14.9977  -18.2836 N   0  0  0  0  0  0  0  0  0  0  0  0
   31.2938   14.9285  -18.1918 N   0  0  0  0  0  0  0  0  0  0  0  0
   31.6899   13.6092  -17.7548 N   0  0  0  0  0  0  0  0  0  0  0  0
   31.1951   12.6436  -18.7040 N   0  0  0  0  0  0  0  0  0  0  0  0
   31.7712   12.9200  -20.0083 N   0  0  0  0  0  0  0  0  0  0  0  0
   33.2120   12.8712  -19.9285 N   0  0  0  0  0  0  0  0  0  0  0  0
   33.6226   11.5681  -19.4892 N   0  0  0  0  0  0  0  0  0  0  0  0
   33.1494   10.5857  -20.4137 N   0  0  0  0  0  0  0  0  0  0  0  0
   33.6762   10.8733  -21.7051 N   0  0  0  0  0  0  0  0  0  0  0  0
   35.0947   10.8488  -21.6217 N   0  0  0  0  0  0  0  0  0  0  0  0
   35.5280    9.5491  -21.2012 N   0  0  0  0  0  0  0  0  0  0  0  0
   35.0709    8.5607  -22.1019 N   0  0  0  0  0  0  0  0  0  0  0  0
   35.5903    8.8002  -23.3887 N   0  0  0  0  0  0  0  0  0  0  0  0
   37.0021    8.7860  -23.3517 N   0  0  0  0  0  0  0  0  0  0  0  0
   37.4523    7.5157  -22.8950 N   0  0  0  0  0  0  0  0  0  0  0  0
   37.0002    6.4830  -23.7882 N   0  0  0  0  0  0  0  0  0  0  0  0
   37.5011    6.7038  -25.1169 N   0  0  0  0  0  0  0  0  0  0  0  0
   38.9347    6.7028  -25.1196 N   0  0  0  0  0  0  0  0  0  0  0  0
   39.4176    5.4384  -24.6332 N   0  0  0  0  0  0  0  0  0  0  0  0
   38.8952    4.4192  -25.4836 N   0  0  0  0  0  0  0  0  0  0  0  0
   39.3722    4.6703  -26.8126 N   0  0  0  0  0  0  0  0  0  0  0  0
   40.8071    4.6845  -26.8050 N   0  0  0  0  0  0  0  0  0  0  0  0
   41.2897    3.4267  -26.3187 N   0  0  0  0  0  0  0  0  0  0  0  0
   40.8004    2.3788  -27.1727 N   0  0  0  0  0  0  0  0  0  0  0  0
   41.2673    2.6016  -28.5121 N   0  0  0  0  0  0  0  0  0  0  0  0
   42.6875    2.6222  -28.5247 N   0  0  0  0  0  0  0  0  0  0  0  0
   43.2034    1.3741  -28.0549 N   0  0  0  0  0  0  0  0  0  0  0  0
   42.7572    0.2905  -28.8942 N   0  0  0  0  0  0  0  0  0  0  0  0
   43.1986    0.4751  -30.2459 N   0  0  0  0  0  0  0  0  0  0  0  0
   44.6280    0.5213  -30.2954 N   0  0  0  0  0  0  0  0  0  0  0  0
   45.1488   -0.7035  -29.7852 N   0  0  0  0  0  0  0  0  0  0  0  0
   44.6593   -1.7656  -30.5799 N   0  0  0  0  0  0  0  0  0  0  0  0
   45.0695   -1.5664  -31.9298 N   0  0  0  0  0  0  0  0  0  0  0  0
   46.4860   -1.5140  -31.9861 N   0  0  0  0  0  0  0  0  0  0  0  0
   47.0367   -2.7255  -31.4954 N   0  0  0  0  0  0  0  0  0  0  0  0
   46.5638   -3.8165  -32.2751 N   0  0  0  0  0  0  0  0  0  0  0  0
   46.9626   -3.6465  -33.6422 N   0  0  0  0  0  0  0  0  0  0  0  0
   48.3849   -3.5574  -33.7327 N   0  0  0  0  0  0  0  0  0  0  0  0
   48.9693   -4.7723  -33.2373 N   0  0  0  0  0  0  0  0  0  0  0  0
   48.4711   -5.8805  -33.9999 N   0  0  0  0  0  0  0  0  0  0  0  0
   48.8377   -5.6892  -35.3740 N   0  0  0  0  0  0  0  0  0  0  0  0
   50.2741   -5.5918  -35.4705 N   0  0  0  0  0  0  0  0  0  0  0  0
   50.8682   -6.8070  -34.9621 N   0  0  0  0  0  0  0  0  0  0  0  0
   50.3881   -7.9418  -35.7208 N   0  0  0  0  0  0  0  0  0  0  0  0
   50.7414   -7.7799  -37.1109 N   0  0  0  0  0  0  0  0  0  0  0  0
   52.1633   -7.6635  -37.2324 N   0  0  0  0  0  0  0  0  0  0  0  0
   52.7677   -8.8513  -36.7280 N   0  0  0  0  0  0  0  0  0  0  0  0
   52.3005   -9.9907  -37.4516 N   0  0  0  0  0  0  0  0  0  0  0  0
   52.6263   -9.8435  -38.8307 N   0  0  0  0  0  0  0  0  0  0  0  0
   54.0381   -9.7372  -38.9838 N   0  0  0  0  0  0  0  0  0  0  0  0
   54.6561  -10.8888  -38.4505 N   0  0  0  0  0  0  0  0  0  0  0  0
   54.1810  -12.0271  -39.1533 N   0  0  0  0  0  0  0  0  0  0  0  0
   54.4906  -11.8957  -40.5442 N   0  0  0  0  0  0  0  0  0  0  0  0
   55.9114  -11.7810  -40.7275 N   0  0  0  0  0  0  0  0  0  0  0  0
   56.5599  -12.9357  -40.1845 N   0  0  0  0  0  0  0  0  0  0  0  0
   56.0749  -14.1089  -40.8735 N   0  0  0  0  0  0  0  0  0  0  0  0
   56.3654  -13.9873  -42.2995 N   0  0  0  0  0  0  0  0  0  0  0  0
   57.8014  -13.8481  -42.4883 N   0  0  0  0  0  0  0  0  0  0  0  0
   58.4796  -15.0182  -41.9609 N   0  0  0  0  0  0  0  0  0  0  0  0
   58.0032  -16.1997  -42.6251 N   0  0  0  0  0  0  0  0  0  0  0  0
   58.2580  -16.1016  -44.0318 N   0  0  0  0  0  0  0  0  0  0  0  0
   19.9038   28.2973  -11.6800 H   0  0  0  0  0  0  0  0  0  0  0  0
   19.6586   27.1442  -10.5671 H   0  0  0  0  0  0  0  0  0  0  0  0
   21.8730   24.8361  -11.5692 H   0  0  0  0  0  0  0  0  0  0  0  0
   21.7148   25.2494   -9.8435 H   0  0  0  0  0  0  0  0  0  0  0  0
   24.0829   26.0102   -9.8121 H   0  0  0  0  0  0  0  0  0  0  0  0
   24.2500   25.6020  -11.5266 H   0  0  0  0  0  0  0  0  0  0  0  0
   23.5749   23.7236   -9.3621 H   0  0  0  0  0  0  0  0  0  0  0  0
   24.0878   23.3122  -12.1169 H   0  0  0  0  0  0  0  0  0  0  0  0
   23.4380   21.5340   -9.9855 H   0  0  0  0  0  0  0  0  0  0  0  0
   22.4628   20.9503  -12.0404 H   0  0  0  0  0  0  0  0  0  0  0  0
   23.9084   22.1182  -13.4220 H   0  0  0  0  0  0  0  0  0  0  0  0
   25.8653   21.6781  -12.2663 H   0  0  0  0  0  0  0  0  0  0  0  0
   25.4090   19.4810  -11.7335 H   0  0  0  0  0  0  0  0  0  0  0  0
   24.4111   18.8878  -13.7251 H   0  0  0  0  0  0  0  0  0  0  0  0
   25.8118   20.0607  -15.1296 H   0  0  0  0  0  0  0  0  0  0  0  0
   27.7847   19.6685  -14.0092 H   0  0  0  0  0  0  0  0  0  0  0  0
   27.3591   17.4730  -13.4141 H   0  0  0  0  0  0  0  0  0  0  0  0
   26.3084   16.8307  -15.3961 H   0  0  0  0  0  0  0  0  0  0  0  0
   27.7183   18.0241  -16.8636 H   0  0  0  0  0  0  0  0  0  0  0  0
   29.7142   17.6240  -15.7385 H   0  0  0  0  0  0  0  0  0  0  0  0
   29.3042   15.4207  -15.1608 H   0  0  0  0  0  0  0  0  0  0  0  0
   28.2731   14.7824  -17.1177 H   0  0  0  0  0  0  0  0  0  0  0  0
   29.6079   15.9444  -18.5625 H   0  0  0  0  0  0  0  0  0  0  0  0
   31.5836   15.6233  -17.4903 H   0  0  0  0  0  0  0  0  0  0  0  0
   31.2323   13.4584  -16.8389 H   0  0  0  0  0  0  0  0  0  0  0  0
   30.1697   12.7461  -18.7512 H   0  0  0  0  0  0  0  0  0  0  0  0
   31.4895   13.8667  -20.2755 H   0  0  0  0  0  0  0  0  0  0  0  0
   33.5166   13.5593  -19.2406 H   0  0  0  0  0  0  0  0  0  0  0  0
   33.2095   11.3852  -18.5800 H   0  0  0  0  0  0  0  0  0  0  0  0
   32.1405   10.6366  -20.4722 H   0  0  0  0  0  0  0  0  0  0  0  0
   33.3692   11.8033  -21.9998 H   0  0  0  0  0  0  0  0  0  0  0  0
   35.4315   11.5566  -20.9602 H   0  0  0  0  0  0  0  0  0  0  0  0
   35.1440    9.3335  -20.2816 H   0  0  0  0  0  0  0  0  0  0  0  0
   34.0597    8.5587  -22.1634 H   0  0  0  0  0  0  0  0  0  0  0  0
   35.3021    9.7082  -23.7253 H   0  0  0  0  0  0  0  0  0  0  0  0
   37.3315    9.5004  -22.7010 H   0  0  0  0  0  0  0  0  0  0  0  0
   37.0570    7.3583  -21.9554 H   0  0  0  0  0  0  0  0  0  0  0  0
   35.9724    6.5309  -23.8094 H   0  0  0  0  0  0  0  0  0  0  0  0
   37.1626    7.6262  -25.4112 H   0  0  0  0  0  0  0  0  0  0  0  0
   39.2200    7.4427  -24.4725 H   0  0  0  0  0  0  0  0  0  0  0  0
   39.0159    5.3460  -23.6817 H   0  0  0  0  0  0  0  0  0  0  0  0
   37.8650    4.4814  -25.4568 H   0  0  0  0  0  0  0  0  0  0  0  0
   39.0522    5.5886  -27.1165 H   0  0  0  0  0  0  0  0  0  0  0  0
   41.1396    5.4107  -26.1796 H   0  0  0  0  0  0  0  0  0  0  0  0
   40.9510    3.2721  -25.3698 H   0  0  0  0  0  0  0  0  0  0  0  0
   39.7789    2.3732  -27.1744 H   0  0  0  0  0  0  0  0  0  0  0  0
   40.9537    3.4962  -28.8730 H   0  0  0  0  0  0  0  0  0  0  0  0
   43.0637    3.3509  -27.9311 H   0  0  0  0  0  0  0  0  0  0  0  0
   42.8869    1.2207  -27.0912 H   0  0  0  0  0  0  0  0  0  0  0  0
   41.7337    0.2743  -28.8905 H   0  0  0  0  0  0  0  0  0  0  0  0
   42.8336    1.3672  -30.5819 H   0  0  0  0  0  0  0  0  0  0  0  0
   44.9134    1.3090  -29.6941 H   0  0  0  0  0  0  0  0  0  0  0  0
   44.7987   -0.8173  -28.8339 H   0  0  0  0  0  0  0  0  0  0  0  0
   43.6454   -1.7625  -30.5570 H   0  0  0  0  0  0  0  0  0  0  0  0
   44.6675   -0.6743  -32.2490 H   0  0  0  0  0  0  0  0  0  0  0  0
   46.8305   -0.7501  -31.4085 H   0  0  0  0  0  0  0  0  0  0  0  0
   46.7533   -2.8777  -30.5279 H   0  0  0  0  0  0  0  0  0  0  0  0
   45.5368   -3.8372  -32.2127 H   0  0  0  0  0  0  0  0  0  0  0  0
   46.5747   -2.7627  -33.9792 H   0  0  0  0  0  0  0  0  0  0  0  0
   48.6859   -2.7494  -33.1640 H   0  0  0  0  0  0  0  0  0  0  0  0
   48.6628   -4.8821  -32.2663 H   0  0  0  0  0  0  0  0  0  0  0  0
   47.4480   -5.8854  -33.9056 H   0  0  0  0  0  0  0  0  0  0  0  0
   48.4414   -4.8059  -35.6940 H   0  0  0  0  0  0  0  0  0  0  0  0
   50.5883   -4.7948  -34.9029 H   0  0  0  0  0  0  0  0  0  0  0  0
   50.5954   -6.9361  -33.9876 H   0  0  0  0  0  0  0  0  0  0  0  0
   49.3678   -7.9933  -35.6268 H   0  0  0  0  0  0  0  0  0  0  0  0
   50.3282   -6.9198  -37.4627 H   0  0  0  0  0  0  0  0  0  0  0  0
   52.4830   -6.8522  -36.6907 H   0  0  0  0  0  0  0  0  0  0  0  0
   52.5264   -8.9896  -35.7480 H   0  0  0  0  0  0  0  0  0  0  0  0
   51.2799  -10.0664  -37.3391 H   0  0  0  0  0  0  0  0  0  0  0  0
   52.1706   -8.9960  -39.1944 H   0  0  0  0  0  0  0  0  0  0  0  0
   54.3748   -8.9346  -38.4544 H   0  0  0  0  0  0  0  0  0  0  0  0
   54.4207  -10.9733  -37.4552 H   0  0  0  0  0  0  0  0  0  0  0  0
   53.1610  -12.0936  -39.0324 H   0  0  0  0  0  0  0  0  0  0  0  0
   54.0410  -11.0525  -40.9159 H   0  0  0  0  0  0  0  0  0  0  0  0
   56.2315  -10.9608  -40.2032 H   0  0  0  0  0  0  0  0  0  0  0  0
   56.3187  -12.9901  -39.1866 H   0  0  0  0  0  0  0  0  0  0  0  0
   55.0543  -14.1528  -40.7330 H   0  0  0  0  0  0  0  0  0  0  0  0
   55.8839  -13.1337  -42.6410 H   0  0  0  0  0  0  0  0  0  0  0  0
   58.1141  -12.9982  -41.9844 H   0  0  0  0  0  0  0  0  0  0  0  0
   58.2536  -15.0906  -40.9585 H   0  0  0  0  0  0  0  0  0  0  0  0
   56.9904  -16.2717  -42.4725 H   0  0  0  0  0  0  0  0  0  0  0  0
   59.2599  -15.9559  -44.1491 H   0  0  0  0  0  0  0  0  0  0  0  0
   57.7949  -15.2567  -44.3843 H   0  0  0  0  0  0  0  0  0  0  0  0
  1  2  1  0  0  0  0
  1 82  1  0  0  0  0
  1 83  1  0  0  0  0
  2  3  1  0  0  0  0
  3  4  1  0  0  0  0
  3 84  1  0  0  0  0
  3 85  1  0  0  0  0
  4  5  1  0  0  0  0
  4 86  1  0  0  0  0
  4 87  1  0  0  0  0
  5  6  1  0  0  0  0
  5 88  1  0  0  0  0
  6  7  1  0  0  0  0
  6 89  1  0  0  0  0
  7  8  1  0  0  0  0
  7 90  1  0  0  0  0
  8  9  1  0  0  0  0
  8 91  1  0  0  0  0
  9 10  1  0  0  0  0
  9 92  1  0  0  0  0
 10 11  1  0  0  0  0
 10 93  1  0  0  0  0
 11 12  1  0  0  0  0
 11 94  1  0  0  0  0
 12 13  1  0  0  0  0
 12 95  1  0  0  0  0
 13 14  1  0  0  0  0
 13 96  1  0  0  0  0
 14 15  1  0  0  0  0
 14 97  1  0  0  0  0
 15 16  1  0  0  0  0
 15 98  1  0  0  0  0
 16 17  1  0  0  0  0
 16 99  1  0  0  0  0
 17 18  1  0  0  0  0
 17100  1  0  0  0  0
 18 19  1  0  0  0  0
 18101  1  0  0  0  0
 19 20  1  0  0  0  0
 19102  1  0  0  0  0
 20 21  1  0  0  0  0
 20103  1  0  0  0  0
 21 22  1  0  0  0  0
 21104  1  0  0  0  0
 22 23  1  0  0  0  0
 22105  1  0  0  0  0
 23 24  1  0  0  0  0
 23106  1  0  0  0  0
 24 25  1  0  0  0  0
 24107  1  0  0  0  0
 25 26  1  0  0  0  0
 25108  1  0  0  0  0
 26 27  1  0  0  0  0
 26109  1  0  0  0  0
 27 28  1  0  0  0  0
 27110  1  0  0  0  0
 28 29  1  0  0  0  0
 28111  1  0  0  0  0
 29 30  1  0  0  0  0
 29112  1  0  0  0  0
 30 31  1  0  0  0  0
 30113  1  0  0  0  0
 31 32  1  0  0  0  0
 31114  1  0  0  0  0
 32 33  1  0  0  0  0
 32115  1  0  0  0  0
 33 34  1  0  0  0  0
 33116  1  0  0  0  0
 34 35  1  0  0  0  0
 34117  1  0  0  0  0
 35 36  1  0  0  0  0
 35118  1  0  0  0  0
 36 37  1  0  0  0  0
 36119  1  0  0  0  0
 37 38  1  0  0  0  0
 37120  1  0  0  0  0
 38 39  1  0  0  0  0
 38121  1  0  0  0  0
 39 40  1  0  0  0  0
 39122  1  0  0  0  0
 40 41  1  0  0  0  0
 40123  1  0  0  0  0
 41 42  1  0  0  0  0
 41124  1  0  0  0  0
 42 43  1  0  0  0  0
 42125  1  0  0  0  0
 43 44  1  0  0  0  0
 43126  1  0  0  0  0
 44 45  1  0  0  0  0
 44127  1  0  0  0  0
 45 46  1  0  0  0  0
 45128  1  0  0  0  0
 46 47  1  0  0  0  0
 46129  1  0  0  0  0
 47 48  1  0  0  0  0
 47130  1  0  0  0  0
 48 49  1  0  0  0  0
 48131  1  0  0  0  0
 49 50  1  0  0  0  0
 49132  1  0  0  0  0
 50 51  1  0  0  0  0
 50133  1  0  0  0  0
 51 52  1  0  0  0  0
 51134  1  0  0  0  0
 52 53  1  0  0  0  0
 52135  1  0  0  0  0
 53 54  1  0  0  0  0
 53136  1  0  0  0  0
 54 55  1  0  0  0  0
 54137  1  0  0  0  0
 55 56  1  0  0  0  0
 55138  1  0  0  0  0
 56 57  1  0  0  0  0
 56139  1  0  0  0  0
 57 58  1  0  0  0  0
 57140  1  0  0  0  0
 58 59  1  0  0  0  0
 58141  1  0  0  0  0
 59 60  1  0  0  0  0
 59142  1  0  0  0  0
 60 61  1  0  0  0  0
 60143  1  0  0  0  0
 61 62  1  0  0  0  0
 61144  1  0  0  0  0
 62 63  1  0  0  0  0
 62145  1  0  0  0  0
 63 64  1  0  0  0  0
 63146  1  0  0  0  0
 64 65  1  0  0  0  0
 64147  1  0  0  0  0
 65 66  1  0  0  0  0
 65148  1  0  0  0  0
 66 67  1  0  0  0  0
 66149  1  0  0  0  0
 67 68  1  0  0  0  0
 67150  1  0  0  0  0
 68 69  1  0  0  0  0
 68151  1  0  0  0  0
 69 70  1  0  0  0  0
 69152  1  0  0  0  0
 70 71  1  0  0  0  0
 70153  1  0  0  0  0
 71 72  1  0  0  0  0
 71154  1  0  0  0  0
 72 73  1  0  0  0  0
 72155  1  0  0  0  0
 73 74  1  0  0  0  0
 73156  1  0  0  0  0
 74 75  1  0  0  0  0
 74157  1  0  0  0  0
 75 76  1  0  0  0  0
 75158  1  0  0  0  0
 76 77  1  0  0  0  0
 76159  1  0  0  0  0
 77 78  1  0  0  0  0
 77160  1  0  0  0  0
 78 79  1  0  0  0  0
 78161  1  0  0  0  0
 79 80  1  0  0  0  0
 79162  1  0  0  0  0
 80 81  1  0  0  0  0
 80163  1  0  0  0  0
 81164  1  0  0  0  0
 81165  1  0  0  0  0
M  END
$$$$
