
 OpenBabel04232217013D

235234  0  0  0  0  0  0  0  0999 V2000
   12.3965    2.7417    7.8058 O   0  0  0  0  0  0  0  0  0  0  0  0
   11.9390    2.2777    6.5394 C   0  0  0  0  0  0  0  0  0  0  0  0
   12.4852    3.1982    5.4713 C   0  0  0  0  0  0  0  0  0  0  0  0
   12.0194    2.7344    4.1075 C   0  0  0  0  0  0  0  0  0  0  0  0
   12.5659    3.6578    3.0192 C   0  0  0  0  0  0  0  0  0  0  0  0
   12.0996    3.1941    1.6460 C   0  0  0  0  0  0  0  0  0  0  0  0
   12.6443    4.1167    0.5725 C   0  0  0  0  0  0  0  0  0  0  0  0
   12.1712    3.6449   -0.7868 C   0  0  0  0  0  0  0  0  0  0  0  0
   12.7133    4.5657   -1.8570 C   0  0  0  0  0  0  0  0  0  0  0  0
   12.2412    4.1044   -3.2094 C   0  0  0  0  0  0  0  0  0  0  0  0
   12.7570    5.0205   -4.1475 O   0  0  0  0  0  0  0  0  0  0  0  0
   12.2759    4.5388   -5.4201 O   0  0  0  0  0  0  0  0  0  0  0  0
   12.8008    5.3665   -6.4709 O   0  0  0  0  0  0  0  0  0  0  0  0
   14.2424    5.3461   -6.4203 O   0  0  0  0  0  0  0  0  0  0  0  0
   14.6392    6.2333   -7.4399 C   0  0  0  0  0  0  0  0  0  0  0  0
   16.1452    6.2383   -7.4351 C   0  0  0  0  0  0  0  0  0  0  0  0
   16.6490    7.1474   -8.5291 C   0  0  0  0  0  0  0  0  0  0  0  0
   18.1624    7.1489   -8.5249 C   0  0  0  0  0  0  0  0  0  0  0  0
   18.6667    8.0589   -9.6238 C   0  0  0  0  0  0  0  0  0  0  0  0
   20.1806    8.0643   -9.6210 C   0  0  0  0  0  0  0  0  0  0  0  0
   20.6880    8.9769  -10.7197 C   0  0  0  0  0  0  0  0  0  0  0  0
   22.2033    8.9818  -10.7194 C   0  0  0  0  0  0  0  0  0  0  0  0
   22.7121    9.8957  -11.8166 C   0  0  0  0  0  0  0  0  0  0  0  0
   24.2282    9.8999  -11.8185 C   0  0  0  0  0  0  0  0  0  0  0  0
   24.7377   10.8140  -12.9159 C   0  0  0  0  0  0  0  0  0  0  0  0
   26.2545   10.8169  -12.9193 C   0  0  0  0  0  0  0  0  0  0  0  0
   26.7641   11.7308  -14.0167 C   0  0  0  0  0  0  0  0  0  0  0  0
   28.2807   11.7337  -14.0202 C   0  0  0  0  0  0  0  0  0  0  0  0
   28.7905   12.6479  -15.1177 C   0  0  0  0  0  0  0  0  0  0  0  0
   30.3072   12.6509  -15.1214 C   0  0  0  0  0  0  0  0  0  0  0  0
   30.8172   13.5651  -16.2189 C   0  0  0  0  0  0  0  0  0  0  0  0
   32.3339   13.5681  -16.2225 C   0  0  0  0  0  0  0  0  0  0  0  0
   32.8438   14.4824  -17.3201 C   0  0  0  0  0  0  0  0  0  0  0  0
   34.3606   14.4866  -17.3223 C   0  0  0  0  0  0  0  0  0  0  0  0
   34.8704   15.4009  -18.4199 C   0  0  0  0  0  0  0  0  0  0  0  0
   36.3872   15.4038  -18.4234 C   0  0  0  0  0  0  0  0  0  0  0  0
   36.8969   16.3169  -19.5223 C   0  0  0  0  0  0  0  0  0  0  0  0
   38.4139   16.3210  -19.5245 C   0  0  0  0  0  0  0  0  0  0  0  0
   38.9237   17.2352  -20.6222 C   0  0  0  0  0  0  0  0  0  0  0  0
   40.4405   17.2381  -20.6257 C   0  0  0  0  0  0  0  0  0  0  0  0
   40.9504   18.1509  -21.7246 C   0  0  0  0  0  0  0  0  0  0  0  0
   42.4672   18.1538  -21.7281 C   0  0  0  0  0  0  0  0  0  0  0  0
   42.9771   19.0665  -22.8270 C   0  0  0  0  0  0  0  0  0  0  0  0
   44.4938   19.0694  -22.8305 C   0  0  0  0  0  0  0  0  0  0  0  0
   45.0037   19.9821  -23.9295 C   0  0  0  0  0  0  0  0  0  0  0  0
   46.5205   19.9850  -23.9330 C   0  0  0  0  0  0  0  0  0  0  0  0
   47.0304   20.8978  -25.0319 C   0  0  0  0  0  0  0  0  0  0  0  0
   48.5472   20.9006  -25.0354 C   0  0  0  0  0  0  0  0  0  0  0  0
   49.0570   21.8133  -26.1344 C   0  0  0  0  0  0  0  0  0  0  0  0
   50.5739   21.8147  -26.1390 C   0  0  0  0  0  0  0  0  0  0  0  0
   51.0837   22.7274  -27.2381 C   0  0  0  0  0  0  0  0  0  0  0  0
   52.6005   22.7302  -27.2416 C   0  0  0  0  0  0  0  0  0  0  0  0
   53.1104   23.6414  -28.3418 C   0  0  0  0  0  0  0  0  0  0  0  0
   54.6272   23.6427  -28.3465 C   0  0  0  0  0  0  0  0  0  0  0  0
   55.1368   24.5528  -29.4480 C   0  0  0  0  0  0  0  0  0  0  0  0
   56.6538   24.5552  -29.4515 C   0  0  0  0  0  0  0  0  0  0  0  0
   57.1636   25.4664  -30.5519 C   0  0  0  0  0  0  0  0  0  0  0  0
   58.6804   25.4678  -30.5565 C   0  0  0  0  0  0  0  0  0  0  0  0
   59.1903   26.3790  -31.6568 C   0  0  0  0  0  0  0  0  0  0  0  0
   60.7071   26.3818  -31.6603 C   0  0  0  0  0  0  0  0  0  0  0  0
   61.2170   27.2930  -32.7605 C   0  0  0  0  0  0  0  0  0  0  0  0
   62.7337   27.2959  -32.7640 C   0  0  0  0  0  0  0  0  0  0  0  0
   63.2436   28.2070  -33.8642 C   0  0  0  0  0  0  0  0  0  0  0  0
   64.7603   28.2099  -33.8677 C   0  0  0  0  0  0  0  0  0  0  0  0
   65.2703   29.1210  -34.9679 C   0  0  0  0  0  0  0  0  0  0  0  0
   66.7870   29.1241  -34.9715 C   0  0  0  0  0  0  0  0  0  0  0  0
   67.2970   30.0352  -36.0716 C   0  0  0  0  0  0  0  0  0  0  0  0
   68.8138   30.0381  -36.0752 C   0  0  0  0  0  0  0  0  0  0  0  0
   69.3238   30.9492  -37.1754 C   0  0  0  0  0  0  0  0  0  0  0  0
   70.8408   30.9507  -37.1803 C   0  0  0  0  0  0  0  0  0  0  0  0
   71.3506   31.8617  -38.2804 C   0  0  0  0  0  0  0  0  0  0  0  0
   72.8674   31.8632  -38.2853 C   0  0  0  0  0  0  0  0  0  0  0  0
   73.3779   32.7744  -39.3856 C   0  0  0  0  0  0  0  0  0  0  0  0
   74.8950   32.7763  -39.3911 C   0  0  0  0  0  0  0  0  0  0  0  0
   75.4062   33.6876  -40.4916 C   0  0  0  0  0  0  0  0  0  0  0  0
   76.9247   33.6888  -40.4993 C   0  0  0  0  0  0  0  0  0  0  0  0
   77.4384   34.6005  -41.6002 C   0  0  0  0  0  0  0  0  0  0  0  0
   78.9589   34.6024  -41.6087 C   0  0  0  0  0  0  0  0  0  0  0  0
   79.4766   35.5163  -42.7092 C   0  0  0  0  0  0  0  0  0  0  0  0
   80.9989   35.5276  -42.7259 C   0  0  0  0  0  0  0  0  0  0  0  0
   81.5122   36.4396  -43.8240 C   0  0  0  0  0  0  0  0  0  0  0  0
   12.0320    2.1338    8.4665 H   0  0  0  0  0  0  0  0  0  0  0  0
   10.8446    2.2811    6.5356 H   0  0  0  0  0  0  0  0  0  0  0  0
   12.2918    1.2527    6.3893 H   0  0  0  0  0  0  0  0  0  0  0  0
   13.5785    3.2160    5.5128 H   0  0  0  0  0  0  0  0  0  0  0  0
   12.1554    4.2253    5.6551 H   0  0  0  0  0  0  0  0  0  0  0  0
   10.9263    2.7305    4.0491 H   0  0  0  0  0  0  0  0  0  0  0  0
   12.3605    1.7131    3.9056 H   0  0  0  0  0  0  0  0  0  0  0  0
   13.6636    3.6706    3.0441 H   0  0  0  0  0  0  0  0  0  0  0  0
   12.2276    4.6888    3.1878 H   0  0  0  0  0  0  0  0  0  0  0  0
   11.0040    3.1850    1.6036 H   0  0  0  0  0  0  0  0  0  0  0  0
   12.4404    2.1689    1.4590 H   0  0  0  0  0  0  0  0  0  0  0  0
   13.7409    4.1271    0.6032 H   0  0  0  0  0  0  0  0  0  0  0  0
   12.3048    5.1450    0.7494 H   0  0  0  0  0  0  0  0  0  0  0  0
   11.0751    3.6369   -0.8242 H   0  0  0  0  0  0  0  0  0  0  0  0
   12.5118    2.6188   -0.9715 H   0  0  0  0  0  0  0  0  0  0  0  0
   13.8102    4.5885   -1.8311 H   0  0  0  0  0  0  0  0  0  0  0  0
   12.3885    5.6000   -1.6818 H   0  0  0  0  0  0  0  0  0  0  0  0
   11.1474    4.1143   -3.2670 H   0  0  0  0  0  0  0  0  0  0  0  0
   12.6068    3.0943   -3.4293 H   0  0  0  0  0  0  0  0  0  0  0  0
   14.2423    7.2366   -7.2436 H   0  0  0  0  0  0  0  0  0  0  0  0
   14.2515    5.8727   -8.3987 H   0  0  0  0  0  0  0  0  0  0  0  0
   16.5198    5.2153   -7.5736 H   0  0  0  0  0  0  0  0  0  0  0  0
   16.5152    6.5643   -6.4536 H   0  0  0  0  0  0  0  0  0  0  0  0
   16.2710    8.1659   -8.3751 H   0  0  0  0  0  0  0  0  0  0  0  0
   16.2758    6.8053   -9.5026 H   0  0  0  0  0  0  0  0  0  0  0  0
   18.5392    6.1289   -8.6761 H   0  0  0  0  0  0  0  0  0  0  0  0
   18.5344    7.4906   -7.5504 H   0  0  0  0  0  0  0  0  0  0  0  0
   18.2857    9.0766   -9.4714 H   0  0  0  0  0  0  0  0  0  0  0  0
   18.2927    7.7145  -10.5963 H   0  0  0  0  0  0  0  0  0  0  0  0
   20.5591    7.0461   -9.7741 H   0  0  0  0  0  0  0  0  0  0  0  0
   20.5523    8.4068   -8.6474 H   0  0  0  0  0  0  0  0  0  0  0  0
   20.3086    9.9947  -10.5654 H   0  0  0  0  0  0  0  0  0  0  0  0
   20.3135    8.6349  -11.6927 H   0  0  0  0  0  0  0  0  0  0  0  0
   22.5806    7.9634  -10.8741 H   0  0  0  0  0  0  0  0  0  0  0  0
   22.5760    9.3216   -9.7452 H   0  0  0  0  0  0  0  0  0  0  0  0
   22.3346   10.9137  -11.6603 H   0  0  0  0  0  0  0  0  0  0  0  0
   22.3371    9.5561  -12.7899 H   0  0  0  0  0  0  0  0  0  0  0  0
   24.6048    8.8814  -11.9744 H   0  0  0  0  0  0  0  0  0  0  0  0
   24.6026   10.2390  -10.8447 H   0  0  0  0  0  0  0  0  0  0  0  0
   24.3617   11.8324  -12.7589 H   0  0  0  0  0  0  0  0  0  0  0  0
   24.3618   10.4755  -13.8892 H   0  0  0  0  0  0  0  0  0  0  0  0
   26.6299    9.7982  -13.0760 H   0  0  0  0  0  0  0  0  0  0  0  0
   26.6299   11.1551  -11.9458 H   0  0  0  0  0  0  0  0  0  0  0  0
   26.3884   12.7495  -13.8599 H   0  0  0  0  0  0  0  0  0  0  0  0
   26.3884   11.3925  -14.9902 H   0  0  0  0  0  0  0  0  0  0  0  0
   28.6565   10.7151  -14.1771 H   0  0  0  0  0  0  0  0  0  0  0  0
   28.6565   12.0721  -13.0468 H   0  0  0  0  0  0  0  0  0  0  0  0
   28.4148   13.6665  -14.9610 H   0  0  0  0  0  0  0  0  0  0  0  0
   28.4148   12.3096  -16.0912 H   0  0  0  0  0  0  0  0  0  0  0  0
   30.6830   11.6323  -15.2782 H   0  0  0  0  0  0  0  0  0  0  0  0
   30.6830   12.9893  -14.1479 H   0  0  0  0  0  0  0  0  0  0  0  0
   30.4414   14.5836  -16.0620 H   0  0  0  0  0  0  0  0  0  0  0  0
   30.4415   13.2266  -17.1923 H   0  0  0  0  0  0  0  0  0  0  0  0
   32.7096   12.5495  -16.3794 H   0  0  0  0  0  0  0  0  0  0  0  0
   32.7095   13.9065  -15.2490 H   0  0  0  0  0  0  0  0  0  0  0  0
   32.4670   15.5005  -17.1640 H   0  0  0  0  0  0  0  0  0  0  0  0
   32.4692   14.1429  -18.2935 H   0  0  0  0  0  0  0  0  0  0  0  0
   34.7373   13.4684  -17.4784 H   0  0  0  0  0  0  0  0  0  0  0  0
   34.7351   14.8260  -16.3488 H   0  0  0  0  0  0  0  0  0  0  0  0
   34.4947   16.4194  -18.2630 H   0  0  0  0  0  0  0  0  0  0  0  0
   34.4948   15.0624  -19.3933 H   0  0  0  0  0  0  0  0  0  0  0  0
   36.7630   14.3852  -18.5790 H   0  0  0  0  0  0  0  0  0  0  0  0
   36.7627   15.7436  -17.4504 H   0  0  0  0  0  0  0  0  0  0  0  0
   36.5202   17.3350  -19.3676 H   0  0  0  0  0  0  0  0  0  0  0  0
   36.5225   15.9760  -20.4953 H   0  0  0  0  0  0  0  0  0  0  0  0
   38.7905   15.3027  -19.6805 H   0  0  0  0  0  0  0  0  0  0  0  0
   38.7885   16.6604  -18.5511 H   0  0  0  0  0  0  0  0  0  0  0  0
   38.5481   18.2538  -20.4653 H   0  0  0  0  0  0  0  0  0  0  0  0
   38.5481   16.8967  -21.5955 H   0  0  0  0  0  0  0  0  0  0  0  0
   40.8163   16.2194  -20.7812 H   0  0  0  0  0  0  0  0  0  0  0  0
   40.8161   17.5780  -19.6528 H   0  0  0  0  0  0  0  0  0  0  0  0
   40.5747   19.1696  -21.5691 H   0  0  0  0  0  0  0  0  0  0  0  0
   40.5747   17.8110  -22.6975 H   0  0  0  0  0  0  0  0  0  0  0  0
   42.8428   17.1350  -21.8836 H   0  0  0  0  0  0  0  0  0  0  0  0
   42.8428   18.4937  -20.7552 H   0  0  0  0  0  0  0  0  0  0  0  0
   42.6014   20.0852  -22.6715 H   0  0  0  0  0  0  0  0  0  0  0  0
   42.6014   18.7266  -23.7999 H   0  0  0  0  0  0  0  0  0  0  0  0
   44.8695   18.0506  -22.9860 H   0  0  0  0  0  0  0  0  0  0  0  0
   44.8695   19.4093  -21.8577 H   0  0  0  0  0  0  0  0  0  0  0  0
   44.6281   21.0008  -23.7740 H   0  0  0  0  0  0  0  0  0  0  0  0
   44.6281   19.6422  -24.9023 H   0  0  0  0  0  0  0  0  0  0  0  0
   46.8962   18.9663  -24.0885 H   0  0  0  0  0  0  0  0  0  0  0  0
   46.8962   20.3249  -22.9601 H   0  0  0  0  0  0  0  0  0  0  0  0
   46.6547   21.9165  -24.8764 H   0  0  0  0  0  0  0  0  0  0  0  0
   46.6547   20.5578  -26.0048 H   0  0  0  0  0  0  0  0  0  0  0  0
   48.9227   19.8818  -25.1909 H   0  0  0  0  0  0  0  0  0  0  0  0
   48.9229   21.2405  -24.0626 H   0  0  0  0  0  0  0  0  0  0  0  0
   48.6824   22.8323  -25.9780 H   0  0  0  0  0  0  0  0  0  0  0  0
   48.6803   21.4743  -27.1071 H   0  0  0  0  0  0  0  0  0  0  0  0
   50.9484   20.7957  -26.2954 H   0  0  0  0  0  0  0  0  0  0  0  0
   50.9506   22.1537  -25.1664 H   0  0  0  0  0  0  0  0  0  0  0  0
   50.7082   23.7462  -27.0826 H   0  0  0  0  0  0  0  0  0  0  0  0
   50.7079   22.3875  -28.2108 H   0  0  0  0  0  0  0  0  0  0  0  0
   52.9761   21.7113  -27.3956 H   0  0  0  0  0  0  0  0  0  0  0  0
   52.9762   23.0715  -26.2692 H   0  0  0  0  0  0  0  0  0  0  0  0
   52.7358   24.6606  -28.1869 H   0  0  0  0  0  0  0  0  0  0  0  0
   52.7336   23.3010  -29.3140 H   0  0  0  0  0  0  0  0  0  0  0  0
   55.0018   22.6234  -28.5000 H   0  0  0  0  0  0  0  0  0  0  0  0
   55.0038   23.9845  -27.3747 H   0  0  0  0  0  0  0  0  0  0  0  0
   54.7613   25.5716  -29.2955 H   0  0  0  0  0  0  0  0  0  0  0  0
   54.7613   24.2099  -30.4200 H   0  0  0  0  0  0  0  0  0  0  0  0
   57.0293   23.5362  -29.6055 H   0  0  0  0  0  0  0  0  0  0  0  0
   57.0296   24.8966  -28.4792 H   0  0  0  0  0  0  0  0  0  0  0  0
   56.7891   26.4856  -30.3970 H   0  0  0  0  0  0  0  0  0  0  0  0
   56.7869   25.1260  -31.5241 H   0  0  0  0  0  0  0  0  0  0  0  0
   59.0551   24.4486  -30.7114 H   0  0  0  0  0  0  0  0  0  0  0  0
   59.0572   25.8082  -29.5843 H   0  0  0  0  0  0  0  0  0  0  0  0
   58.8147   27.3979  -31.5027 H   0  0  0  0  0  0  0  0  0  0  0  0
   58.8146   26.0377  -32.6291 H   0  0  0  0  0  0  0  0  0  0  0  0
   61.0828   25.3629  -31.8143 H   0  0  0  0  0  0  0  0  0  0  0  0
   61.0828   26.7231  -30.6879 H   0  0  0  0  0  0  0  0  0  0  0  0
   60.8413   28.3119  -32.6064 H   0  0  0  0  0  0  0  0  0  0  0  0
   60.8413   26.9517  -33.7329 H   0  0  0  0  0  0  0  0  0  0  0  0
   63.1094   26.2769  -32.9181 H   0  0  0  0  0  0  0  0  0  0  0  0
   63.1094   27.6372  -31.7916 H   0  0  0  0  0  0  0  0  0  0  0  0
   62.8680   29.2260  -33.7102 H   0  0  0  0  0  0  0  0  0  0  0  0
   62.8680   27.8658  -34.8366 H   0  0  0  0  0  0  0  0  0  0  0  0
   65.1360   27.1910  -34.0218 H   0  0  0  0  0  0  0  0  0  0  0  0
   65.1360   28.5512  -32.8953 H   0  0  0  0  0  0  0  0  0  0  0  0
   64.8946   30.1401  -34.8139 H   0  0  0  0  0  0  0  0  0  0  0  0
   64.8946   28.7798  -35.9403 H   0  0  0  0  0  0  0  0  0  0  0  0
   67.1627   28.1050  -35.1255 H   0  0  0  0  0  0  0  0  0  0  0  0
   67.1627   29.4652  -33.9990 H   0  0  0  0  0  0  0  0  0  0  0  0
   66.9212   31.0542  -35.9176 H   0  0  0  0  0  0  0  0  0  0  0  0
   66.9212   29.6939  -37.0440 H   0  0  0  0  0  0  0  0  0  0  0  0
   69.1893   29.0190  -36.2291 H   0  0  0  0  0  0  0  0  0  0  0  0
   69.1894   30.3792  -35.1027 H   0  0  0  0  0  0  0  0  0  0  0  0
   68.9490   31.9684  -37.0205 H   0  0  0  0  0  0  0  0  0  0  0  0
   68.9468   30.6088  -38.1476 H   0  0  0  0  0  0  0  0  0  0  0  0
   71.2147   29.9311  -37.3350 H   0  0  0  0  0  0  0  0  0  0  0  0
   71.2171   31.2909  -36.2077 H   0  0  0  0  0  0  0  0  0  0  0  0
   70.9759   32.8810  -38.1255 H   0  0  0  0  0  0  0  0  0  0  0  0
   70.9735   31.5213  -39.2526 H   0  0  0  0  0  0  0  0  0  0  0  0
   73.2418   30.8438  -38.4401 H   0  0  0  0  0  0  0  0  0  0  0  0
   73.2442   32.2035  -37.3129 H   0  0  0  0  0  0  0  0  0  0  0  0
   73.0029   33.7936  -39.2308 H   0  0  0  0  0  0  0  0  0  0  0  0
   73.0006   32.4340  -40.3578 H   0  0  0  0  0  0  0  0  0  0  0  0
   75.2690   31.7567  -39.5454 H   0  0  0  0  0  0  0  0  0  0  0  0
   75.2715   33.1163  -38.4184 H   0  0  0  0  0  0  0  0  0  0  0  0
   75.0323   34.7070  -40.3356 H   0  0  0  0  0  0  0  0  0  0  0  0
   75.0278   33.3478  -41.4634 H   0  0  0  0  0  0  0  0  0  0  0  0
   77.2969   32.6685  -40.6538 H   0  0  0  0  0  0  0  0  0  0  0  0
   77.3016   34.0273  -39.5262 H   0  0  0  0  0  0  0  0  0  0  0  0
   77.0637   35.6194  -41.4436 H   0  0  0  0  0  0  0  0  0  0  0  0
   77.0591   34.2604  -42.5715 H   0  0  0  0  0  0  0  0  0  0  0  0
   79.3295   33.5822  -41.7641 H   0  0  0  0  0  0  0  0  0  0  0  0
   79.3341   34.9392  -40.6350 H   0  0  0  0  0  0  0  0  0  0  0  0
   79.0977   36.5330  -42.5510 H   0  0  0  0  0  0  0  0  0  0  0  0
   79.0952   35.1759  -43.6792 H   0  0  0  0  0  0  0  0  0  0  0  0
   81.3781   34.5118  -42.8853 H   0  0  0  0  0  0  0  0  0  0  0  0
   81.3805   35.8691  -41.7570 H   0  0  0  0  0  0  0  0  0  0  0  0
   81.1617   36.1015  -44.8042 H   0  0  0  0  0  0  0  0  0  0  0  0
   82.6055   36.4443  -43.8319 H   0  0  0  0  0  0  0  0  0  0  0  0
   81.1641   37.4658  -43.6700 H   0  0  0  0  0  0  0  0  0  0  0  0
  1  2  1  0  0  0  0
  1 82  1  0  0  0  0
  2  3  1  0  0  0  0
  2 83  1  0  0  0  0
  2 84  1  0  0  0  0
  3  4  1  0  0  0  0
  3 85  1  0  0  0  0
  3 86  1  0  0  0  0
  4  5  1  0  0  0  0
  4 87  1  0  0  0  0
  4 88  1  0  0  0  0
  5  6  1  0  0  0  0
  5 89  1  0  0  0  0
  5 90  1  0  0  0  0
  6  7  1  0  0  0  0
  6 91  1  0  0  0  0
  6 92  1  0  0  0  0
  7  8  1  0  0  0  0
  7 93  1  0  0  0  0
  7 94  1  0  0  0  0
  8  9  1  0  0  0  0
  8 95  1  0  0  0  0
  8 96  1  0  0  0  0
  9 10  1  0  0  0  0
  9 97  1  0  0  0  0
  9 98  1  0  0  0  0
 10 11  1  0  0  0  0
 10 99  1  0  0  0  0
 10100  1  0  0  0  0
 11 12  1  0  0  0  0
 12 13  1  0  0  0  0
 13 14  1  0  0  0  0
 14 15  1  0  0  0  0
 15 16  1  0  0  0  0
 15101  1  0  0  0  0
 15102  1  0  0  0  0
 16 17  1  0  0  0  0
 16103  1  0  0  0  0
 16104  1  0  0  0  0
 17 18  1  0  0  0  0
 17105  1  0  0  0  0
 17106  1  0  0  0  0
 18 19  1  0  0  0  0
 18107  1  0  0  0  0
 18108  1  0  0  0  0
 19 20  1  0  0  0  0
 19109  1  0  0  0  0
 19110  1  0  0  0  0
 20 21  1  0  0  0  0
 20111  1  0  0  0  0
 20112  1  0  0  0  0
 21 22  1  0  0  0  0
 21113  1  0  0  0  0
 21114  1  0  0  0  0
 22 23  1  0  0  0  0
 22115  1  0  0  0  0
 22116  1  0  0  0  0
 23 24  1  0  0  0  0
 23117  1  0  0  0  0
 23118  1  0  0  0  0
 24 25  1  0  0  0  0
 24119  1  0  0  0  0
 24120  1  0  0  0  0
 25 26  1  0  0  0  0
 25121  1  0  0  0  0
 25122  1  0  0  0  0
 26 27  1  0  0  0  0
 26123  1  0  0  0  0
 26124  1  0  0  0  0
 27 28  1  0  0  0  0
 27125  1  0  0  0  0
 27126  1  0  0  0  0
 28 29  1  0  0  0  0
 28127  1  0  0  0  0
 28128  1  0  0  0  0
 29 30  1  0  0  0  0
 29129  1  0  0  0  0
 29130  1  0  0  0  0
 30 31  1  0  0  0  0
 30131  1  0  0  0  0
 30132  1  0  0  0  0
 31 32  1  0  0  0  0
 31133  1  0  0  0  0
 31134  1  0  0  0  0
 32 33  1  0  0  0  0
 32135  1  0  0  0  0
 32136  1  0  0  0  0
 33 34  1  0  0  0  0
 33137  1  0  0  0  0
 33138  1  0  0  0  0
 34 35  1  0  0  0  0
 34139  1  0  0  0  0
 34140  1  0  0  0  0
 35 36  1  0  0  0  0
 35141  1  0  0  0  0
 35142  1  0  0  0  0
 36 37  1  0  0  0  0
 36143  1  0  0  0  0
 36144  1  0  0  0  0
 37 38  1  0  0  0  0
 37145  1  0  0  0  0
 37146  1  0  0  0  0
 38 39  1  0  0  0  0
 38147  1  0  0  0  0
 38148  1  0  0  0  0
 39 40  1  0  0  0  0
 39149  1  0  0  0  0
 39150  1  0  0  0  0
 40 41  1  0  0  0  0
 40151  1  0  0  0  0
 40152  1  0  0  0  0
 41 42  1  0  0  0  0
 41153  1  0  0  0  0
 41154  1  0  0  0  0
 42 43  1  0  0  0  0
 42155  1  0  0  0  0
 42156  1  0  0  0  0
 43 44  1  0  0  0  0
 43157  1  0  0  0  0
 43158  1  0  0  0  0
 44 45  1  0  0  0  0
 44159  1  0  0  0  0
 44160  1  0  0  0  0
 45 46  1  0  0  0  0
 45161  1  0  0  0  0
 45162  1  0  0  0  0
 46 47  1  0  0  0  0
 46163  1  0  0  0  0
 46164  1  0  0  0  0
 47 48  1  0  0  0  0
 47165  1  0  0  0  0
 47166  1  0  0  0  0
 48 49  1  0  0  0  0
 48167  1  0  0  0  0
 48168  1  0  0  0  0
 49 50  1  0  0  0  0
 49169  1  0  0  0  0
 49170  1  0  0  0  0
 50 51  1  0  0  0  0
 50171  1  0  0  0  0
 50172  1  0  0  0  0
 51 52  1  0  0  0  0
 51173  1  0  0  0  0
 51174  1  0  0  0  0
 52 53  1  0  0  0  0
 52175  1  0  0  0  0
 52176  1  0  0  0  0
 53 54  1  0  0  0  0
 53177  1  0  0  0  0
 53178  1  0  0  0  0
 54 55  1  0  0  0  0
 54179  1  0  0  0  0
 54180  1  0  0  0  0
 55 56  1  0  0  0  0
 55181  1  0  0  0  0
 55182  1  0  0  0  0
 56 57  1  0  0  0  0
 56183  1  0  0  0  0
 56184  1  0  0  0  0
 57 58  1  0  0  0  0
 57185  1  0  0  0  0
 57186  1  0  0  0  0
 58 59  1  0  0  0  0
 58187  1  0  0  0  0
 58188  1  0  0  0  0
 59 60  1  0  0  0  0
 59189  1  0  0  0  0
 59190  1  0  0  0  0
 60 61  1  0  0  0  0
 60191  1  0  0  0  0
 60192  1  0  0  0  0
 61 62  1  0  0  0  0
 61193  1  0  0  0  0
 61194  1  0  0  0  0
 62 63  1  0  0  0  0
 62195  1  0  0  0  0
 62196  1  0  0  0  0
 63 64  1  0  0  0  0
 63197  1  0  0  0  0
 63198  1  0  0  0  0
 64 65  1  0  0  0  0
 64199  1  0  0  0  0
 64200  1  0  0  0  0
 65 66  1  0  0  0  0
 65201  1  0  0  0  0
 65202  1  0  0  0  0
 66 67  1  0  0  0  0
 66203  1  0  0  0  0
 66204  1  0  0  0  0
 67 68  1  0  0  0  0
 67205  1  0  0  0  0
 67206  1  0  0  0  0
 68 69  1  0  0  0  0
 68207  1  0  0  0  0
 68208  1  0  0  0  0
 69 70  1  0  0  0  0
 69209  1  0  0  0  0
 69210  1  0  0  0  0
 70 71  1  0  0  0  0
 70211  1  0  0  0  0
 70212  1  0  0  0  0
 71 72  1  0  0  0  0
 71213  1  0  0  0  0
 71214  1  0  0  0  0
 72 73  1  0  0  0  0
 72215  1  0  0  0  0
 72216  1  0  0  0  0
 73 74  1  0  0  0  0
 73217  1  0  0  0  0
 73218  1  0  0  0  0
 74 75  1  0  0  0  0
 74219  1  0  0  0  0
 74220  1  0  0  0  0
 75 76  1  0  0  0  0
 75221  1  0  0  0  0
 75222  1  0  0  0  0
 76 77  1  0  0  0  0
 76223  1  0  0  0  0
 76224  1  0  0  0  0
 77 78  1  0  0  0  0
 77225  1  0  0  0  0
 77226  1  0  0  0  0
 78 79  1  0  0  0  0
 78227  1  0  0  0  0
 78228  1  0  0  0  0
 79 80  1  0  0  0  0
 79229  1  0  0  0  0
 79230  1  0  0  0  0
 80 81  1  0  0  0  0
 80231  1  0  0  0  0
 80232  1  0  0  0  0
 81233  1  0  0  0  0
 81234  1  0  0  0  0
 81235  1  0  0  0  0
M  END
$$$$
