
 OpenBabel04232217013D

234234  0  0  1  0  0  0  0  0999 V2000
    1.0150   -0.0347    0.2424 O   0  0  0  0  0  0  0  0  0  0  0  0
    2.4657   -0.0023    0.1313 N   0  0  0  0  0  0  0  0  0  0  0  0
    2.9185    1.0756    1.0085 C   0  0  0  0  0  0  0  0  0  0  0  0
    4.3364    0.6545    1.3268 C   0  0  0  0  0  0  0  0  0  0  0  0
    4.2337   -0.8503    1.5013 C   0  0  0  0  0  0  0  0  0  0  0  0
    2.9740   -1.2564    0.7293 C   0  0  3  0  0  0  0  0  0  0  0  0
    3.3144   -2.2915   -0.3430 C   0  0  0  0  0  0  0  0  0  0  0  0
    2.0838   -2.7169   -1.1266 C   0  0  0  0  0  0  0  0  0  0  0  0
    2.4488   -3.7455   -2.1799 C   0  0  0  0  0  0  0  0  0  0  0  0
    1.2024   -4.1477   -2.9473 C   0  0  0  0  0  0  0  0  0  0  0  0
    1.5575   -5.1753   -4.0035 C   0  0  0  0  0  0  0  0  0  0  0  0
    0.3121   -5.5771   -4.7698 C   0  0  0  0  0  0  0  0  0  0  0  0
    0.6686   -6.6069   -5.8247 C   0  0  0  0  0  0  0  0  0  0  0  0
   -0.5764   -7.0095   -6.5920 C   0  0  0  0  0  0  0  0  0  0  0  0
   -0.2196   -8.0392   -7.6465 C   0  0  0  0  0  0  0  0  0  0  0  0
   -1.4638   -8.4420   -8.4137 C   0  0  0  0  0  0  0  0  0  0  0  0
   -1.1084   -9.4715   -9.4685 C   0  0  0  0  0  0  0  0  0  0  0  0
   -2.3514   -9.8747  -10.2359 C   0  0  0  0  0  0  0  0  0  0  0  0
   -1.9967  -10.9021  -11.2915 C   0  0  0  0  0  0  0  0  0  0  0  0
   -3.2393  -11.3058  -12.0593 C   0  0  0  0  0  0  0  0  0  0  0  0
   -2.8849  -12.3332  -13.1151 C   0  0  0  0  0  0  0  0  0  0  0  0
   -4.1272  -12.7368  -13.8828 C   0  0  0  0  0  0  0  0  0  0  0  0
   -3.7729  -13.7642  -14.9384 C   0  0  0  0  0  0  0  0  0  0  0  0
   -5.0152  -14.1678  -15.7061 C   0  0  0  0  0  0  0  0  0  0  0  0
   -4.6609  -15.1952  -16.7618 C   0  0  0  0  0  0  0  0  0  0  0  0
   -5.9032  -15.5989  -17.5295 C   0  0  0  0  0  0  0  0  0  0  0  0
   -5.5489  -16.6262  -18.5852 C   0  0  0  0  0  0  0  0  0  0  0  0
   -6.7912  -17.0298  -19.3529 C   0  0  0  0  0  0  0  0  0  0  0  0
   -6.4366  -18.0558  -20.4099 C   0  0  0  0  0  0  0  0  0  0  0  0
   -7.6788  -18.4594  -21.1776 C   0  0  0  0  0  0  0  0  0  0  0  0
   -7.3245  -19.4868  -22.2333 C   0  0  0  0  0  0  0  0  0  0  0  0
   -8.5668  -19.8904  -23.0010 C   0  0  0  0  0  0  0  0  0  0  0  0
   -8.2122  -20.9163  -24.0580 C   0  0  0  0  0  0  0  0  0  0  0  0
   -9.4545  -21.3200  -24.8257 C   0  0  0  0  0  0  0  0  0  0  0  0
   -9.1002  -22.3473  -25.8814 C   0  0  0  0  0  0  0  0  0  0  0  0
  -10.3421  -22.7495  -26.6504 C   0  0  0  0  0  0  0  0  0  0  0  0
   -9.9875  -23.7754  -27.7074 C   0  0  0  0  0  0  0  0  0  0  0  0
  -11.2294  -24.1775  -28.4764 C   0  0  0  0  0  0  0  0  0  0  0  0
  -10.8748  -25.2034  -29.5334 C   0  0  0  0  0  0  0  0  0  0  0  0
  -12.1168  -25.6056  -30.3025 C   0  0  0  0  0  0  0  0  0  0  0  0
  -11.7621  -26.6315  -31.3595 C   0  0  0  0  0  0  0  0  0  0  0  0
  -13.0041  -27.0336  -32.1285 C   0  0  0  0  0  0  0  0  0  0  0  0
  -12.6494  -28.0595  -33.1855 C   0  0  0  0  0  0  0  0  0  0  0  0
  -13.8917  -28.4631  -33.9532 C   0  0  0  0  0  0  0  0  0  0  0  0
  -13.5374  -29.4905  -35.0089 C   0  0  0  0  0  0  0  0  0  0  0  0
  -14.7800  -29.8956  -35.7753 C   0  0  0  0  0  0  0  0  0  0  0  0
  -14.4261  -30.9245  -36.8296 C   0  0  0  0  0  0  0  0  0  0  0  0
  -15.6684  -31.3282  -37.5973 C   0  0  0  0  0  0  0  0  0  0  0  0
  -15.3144  -32.3570  -38.6517 C   0  0  0  0  0  0  0  0  0  0  0  0
  -16.5567  -32.7606  -39.4194 C   0  0  0  0  0  0  0  0  0  0  0  0
  -16.2027  -33.7895  -40.4737 C   0  0  0  0  0  0  0  0  0  0  0  0
  -17.4447  -34.1917  -41.2427 C   0  0  0  0  0  0  0  0  0  0  0  0
  -17.0907  -35.2205  -42.2971 C   0  0  0  0  0  0  0  0  0  0  0  0
  -18.3330  -35.6241  -43.0648 C   0  0  0  0  0  0  0  0  0  0  0  0
  -17.9790  -36.6530  -44.1192 C   0  0  0  0  0  0  0  0  0  0  0  0
  -19.2216  -37.0581  -44.8856 C   0  0  0  0  0  0  0  0  0  0  0  0
  -18.8677  -38.0870  -45.9399 C   0  0  0  0  0  0  0  0  0  0  0  0
  -20.1100  -38.4906  -46.7076 C   0  0  0  0  0  0  0  0  0  0  0  0
  -19.7563  -39.5210  -47.7606 C   0  0  0  0  0  0  0  0  0  0  0  0
  -20.9990  -39.9260  -48.5270 C   0  0  0  0  0  0  0  0  0  0  0  0
  -20.6457  -40.9578  -49.5787 C   0  0  0  0  0  0  0  0  0  0  0  0
  -21.8880  -41.3615  -50.3464 C   0  0  0  0  0  0  0  0  0  0  0  0
  -21.5350  -42.3948  -51.3968 C   0  0  0  0  0  0  0  0  0  0  0  0
  -22.7776  -42.7999  -52.1632 C   0  0  0  0  0  0  0  0  0  0  0  0
  -22.4244  -43.8317  -53.2148 C   0  0  0  0  0  0  0  0  0  0  0  0
  -23.6666  -44.2353  -53.9825 C   0  0  0  0  0  0  0  0  0  0  0  0
  -23.3133  -45.2672  -55.0343 C   0  0  0  0  0  0  0  0  0  0  0  0
  -24.5555  -45.6694  -55.8034 C   0  0  0  0  0  0  0  0  0  0  0  0
  -24.2024  -46.7028  -56.8539 C   0  0  0  0  0  0  0  0  0  0  0  0
  -25.4448  -47.1058  -57.6209 C   0  0  0  0  0  0  0  0  0  0  0  0
  -25.0910  -48.1380  -58.6729 C   0  0  0  0  0  0  0  0  0  0  0  0
  -26.3334  -48.5401  -59.4419 C   0  0  0  0  0  0  0  0  0  0  0  0
  -25.9797  -49.5732  -60.4950 C   0  0  0  0  0  0  0  0  0  0  0  0
  -27.2226  -49.9779  -61.2641 C   0  0  0  0  0  0  0  0  0  0  0  0
  -26.8716  -51.0078  -62.3173 C   0  0  0  0  0  0  0  0  0  0  0  0
  -28.1175  -51.4128  -63.0874 C   0  0  0  0  0  0  0  0  0  0  0  0
  -27.7616  -52.4463  -64.1434 C   0  0  0  0  0  0  0  0  0  0  0  0
  -29.0045  -52.8599  -64.9193 C   0  0  0  0  0  0  0  0  0  0  0  0
  -28.6468  -53.8906  -65.9716 C   0  0  0  0  0  0  0  0  0  0  0  0
    0.7484    0.6825   -0.3652 H   0  0  0  0  0  0  0  0  0  0  0  0
    2.3173    1.1384    1.9232 H   0  0  0  0  0  0  0  0  0  0  0  0
    2.8845    2.0397    0.4924 H   0  0  0  0  0  0  0  0  0  0  0  0
    4.7209    1.1440    2.2259 H   0  0  0  0  0  0  0  0  0  0  0  0
    5.0094    0.8873    0.4925 H   0  0  0  0  0  0  0  0  0  0  0  0
    4.1050   -1.0942    2.5617 H   0  0  0  0  0  0  0  0  0  0  0  0
    5.1425   -1.3515    1.1509 H   0  0  0  0  0  0  0  0  0  0  0  0
    2.2509   -1.6897    1.4339 H   0  0  0  0  0  0  0  0  0  0  0  0
    3.7666   -3.1736    0.1314 H   0  0  0  0  0  0  0  0  0  0  0  0
    4.0702   -1.8898   -1.0317 H   0  0  0  0  0  0  0  0  0  0  0  0
    1.6321   -1.8511   -1.6234 H   0  0  0  0  0  0  0  0  0  0  0  0
    1.3342   -3.1313   -0.4419 H   0  0  0  0  0  0  0  0  0  0  0  0
    2.9008   -4.6264   -1.7085 H   0  0  0  0  0  0  0  0  0  0  0  0
    3.1912   -3.3262   -2.8703 H   0  0  0  0  0  0  0  0  0  0  0  0
    0.7524   -3.2659   -3.4210 H   0  0  0  0  0  0  0  0  0  0  0  0
    0.4553   -4.5611   -2.2584 H   0  0  0  0  0  0  0  0  0  0  0  0
    2.0064   -6.0571   -3.5300 H   0  0  0  0  0  0  0  0  0  0  0  0
    2.3033   -4.7604   -4.6927 H   0  0  0  0  0  0  0  0  0  0  0  0
   -0.1361   -4.6956   -5.2445 H   0  0  0  0  0  0  0  0  0  0  0  0
   -0.4343   -5.9906   -4.0808 H   0  0  0  0  0  0  0  0  0  0  0  0
    1.1170   -7.4884   -5.3501 H   0  0  0  0  0  0  0  0  0  0  0  0
    1.4154   -6.1935   -6.5138 H   0  0  0  0  0  0  0  0  0  0  0  0
   -1.0244   -6.1277   -7.0662 H   0  0  0  0  0  0  0  0  0  0  0  0
   -1.3227   -7.4228   -5.9025 H   0  0  0  0  0  0  0  0  0  0  0  0
    0.2289   -8.9206   -7.1719 H   0  0  0  0  0  0  0  0  0  0  0  0
    0.5271   -7.6257   -8.3355 H   0  0  0  0  0  0  0  0  0  0  0  0
   -1.9125   -7.5603   -8.8882 H   0  0  0  0  0  0  0  0  0  0  0  0
   -2.2108   -8.8554   -7.7246 H   0  0  0  0  0  0  0  0  0  0  0  0
   -0.6594  -10.3532   -8.9940 H   0  0  0  0  0  0  0  0  0  0  0  0
   -0.3611   -9.0581  -10.1576 H   0  0  0  0  0  0  0  0  0  0  0  0
   -2.8016   -8.9926  -10.7091 H   0  0  0  0  0  0  0  0  0  0  0  0
   -3.0985  -10.2891   -9.5469 H   0  0  0  0  0  0  0  0  0  0  0  0
   -1.5466  -11.7844  -10.8186 H   0  0  0  0  0  0  0  0  0  0  0  0
   -1.2497  -10.4879  -11.9808 H   0  0  0  0  0  0  0  0  0  0  0  0
   -3.6896  -10.4236  -12.5324 H   0  0  0  0  0  0  0  0  0  0  0  0
   -3.9865  -11.7202  -11.3703 H   0  0  0  0  0  0  0  0  0  0  0  0
   -2.4346  -13.2154  -12.6420 H   0  0  0  0  0  0  0  0  0  0  0  0
   -2.1377  -11.9189  -13.8042 H   0  0  0  0  0  0  0  0  0  0  0  0
   -4.5776  -11.8546  -14.3558 H   0  0  0  0  0  0  0  0  0  0  0  0
   -4.8745  -13.1512  -13.1936 H   0  0  0  0  0  0  0  0  0  0  0  0
   -3.3226  -14.6464  -14.4654 H   0  0  0  0  0  0  0  0  0  0  0  0
   -3.0257  -13.3499  -15.6275 H   0  0  0  0  0  0  0  0  0  0  0  0
   -5.4656  -13.2856  -16.1792 H   0  0  0  0  0  0  0  0  0  0  0  0
   -5.7625  -14.5822  -15.0170 H   0  0  0  0  0  0  0  0  0  0  0  0
   -4.2105  -16.0774  -16.2888 H   0  0  0  0  0  0  0  0  0  0  0  0
   -3.9136  -14.7809  -17.4509 H   0  0  0  0  0  0  0  0  0  0  0  0
   -6.3536  -14.7166  -18.0025 H   0  0  0  0  0  0  0  0  0  0  0  0
   -6.6505  -16.0132  -16.8404 H   0  0  0  0  0  0  0  0  0  0  0  0
   -5.0985  -17.5085  -18.1122 H   0  0  0  0  0  0  0  0  0  0  0  0
   -4.8016  -16.2119  -19.2743 H   0  0  0  0  0  0  0  0  0  0  0  0
   -7.2424  -16.1474  -19.8248 H   0  0  0  0  0  0  0  0  0  0  0  0
   -7.5379  -17.4455  -18.6640 H   0  0  0  0  0  0  0  0  0  0  0  0
   -5.9854  -18.9382  -19.9380 H   0  0  0  0  0  0  0  0  0  0  0  0
   -5.6899  -17.6401  -21.0988 H   0  0  0  0  0  0  0  0  0  0  0  0
   -8.1292  -17.5771  -21.6506 H   0  0  0  0  0  0  0  0  0  0  0  0
   -8.4261  -18.8738  -20.4885 H   0  0  0  0  0  0  0  0  0  0  0  0
   -6.8742  -20.3690  -21.7603 H   0  0  0  0  0  0  0  0  0  0  0  0
   -6.5773  -19.0724  -22.9224 H   0  0  0  0  0  0  0  0  0  0  0  0
   -9.0180  -19.0080  -23.4729 H   0  0  0  0  0  0  0  0  0  0  0  0
   -9.3135  -20.3060  -22.3120 H   0  0  0  0  0  0  0  0  0  0  0  0
   -7.7610  -21.7988  -23.5861 H   0  0  0  0  0  0  0  0  0  0  0  0
   -7.4655  -20.5007  -24.7469 H   0  0  0  0  0  0  0  0  0  0  0  0
   -9.9048  -20.4377  -25.2987 H   0  0  0  0  0  0  0  0  0  0  0  0
  -10.2018  -21.7343  -24.1366 H   0  0  0  0  0  0  0  0  0  0  0  0
   -8.6511  -23.2301  -25.4082 H   0  0  0  0  0  0  0  0  0  0  0  0
   -8.3519  -21.9335  -26.5696 H   0  0  0  0  0  0  0  0  0  0  0  0
  -10.7920  -21.8664  -27.1224 H   0  0  0  0  0  0  0  0  0  0  0  0
  -11.0899  -23.1646  -25.9623 H   0  0  0  0  0  0  0  0  0  0  0  0
   -9.5376  -24.6584  -27.2354 H   0  0  0  0  0  0  0  0  0  0  0  0
   -9.2397  -23.3602  -28.3955 H   0  0  0  0  0  0  0  0  0  0  0  0
  -11.6793  -23.2945  -28.9484 H   0  0  0  0  0  0  0  0  0  0  0  0
  -11.9772  -24.5927  -27.7884 H   0  0  0  0  0  0  0  0  0  0  0  0
  -10.4250  -26.0865  -29.0614 H   0  0  0  0  0  0  0  0  0  0  0  0
  -10.1270  -24.7883  -30.2215 H   0  0  0  0  0  0  0  0  0  0  0  0
  -12.5666  -24.7225  -30.7745 H   0  0  0  0  0  0  0  0  0  0  0  0
  -12.8645  -26.0208  -29.6144 H   0  0  0  0  0  0  0  0  0  0  0  0
  -11.3123  -27.5145  -30.8875 H   0  0  0  0  0  0  0  0  0  0  0  0
  -11.0143  -26.2163  -32.0475 H   0  0  0  0  0  0  0  0  0  0  0  0
  -13.4539  -26.1506  -32.6005 H   0  0  0  0  0  0  0  0  0  0  0  0
  -13.7518  -27.4488  -31.4404 H   0  0  0  0  0  0  0  0  0  0  0  0
  -12.1983  -28.9420  -32.7136 H   0  0  0  0  0  0  0  0  0  0  0  0
  -11.9027  -27.6439  -33.8744 H   0  0  0  0  0  0  0  0  0  0  0  0
  -14.3421  -27.5809  -34.4262 H   0  0  0  0  0  0  0  0  0  0  0  0
  -14.6390  -28.8775  -33.2641 H   0  0  0  0  0  0  0  0  0  0  0  0
  -13.0857  -30.3722  -34.5360 H   0  0  0  0  0  0  0  0  0  0  0  0
  -12.7912  -29.0757  -35.6988 H   0  0  0  0  0  0  0  0  0  0  0  0
  -15.2309  -29.0142  -36.2493 H   0  0  0  0  0  0  0  0  0  0  0  0
  -15.5268  -30.3092  -35.0851 H   0  0  0  0  0  0  0  0  0  0  0  0
  -13.9765  -31.8065  -36.3554 H   0  0  0  0  0  0  0  0  0  0  0  0
  -13.6783  -30.5115  -37.5189 H   0  0  0  0  0  0  0  0  0  0  0  0
  -16.1179  -30.4462  -38.0716 H   0  0  0  0  0  0  0  0  0  0  0  0
  -16.4162  -31.7412  -36.9080 H   0  0  0  0  0  0  0  0  0  0  0  0
  -14.8648  -33.2390  -38.1774 H   0  0  0  0  0  0  0  0  0  0  0  0
  -14.5666  -31.9440  -39.3410 H   0  0  0  0  0  0  0  0  0  0  0  0
  -17.0062  -31.8786  -39.8936 H   0  0  0  0  0  0  0  0  0  0  0  0
  -17.3045  -33.1737  -38.7301 H   0  0  0  0  0  0  0  0  0  0  0  0
  -15.7545  -34.6721  -39.9993 H   0  0  0  0  0  0  0  0  0  0  0  0
  -15.4538  -33.3770  -41.1622 H   0  0  0  0  0  0  0  0  0  0  0  0
  -17.8929  -33.3091  -41.7172 H   0  0  0  0  0  0  0  0  0  0  0  0
  -18.1935  -34.6042  -40.5543 H   0  0  0  0  0  0  0  0  0  0  0  0
  -16.6412  -36.1025  -41.8229 H   0  0  0  0  0  0  0  0  0  0  0  0
  -16.3429  -34.8075  -42.9864 H   0  0  0  0  0  0  0  0  0  0  0  0
  -18.7825  -34.7422  -43.5391 H   0  0  0  0  0  0  0  0  0  0  0  0
  -19.0808  -36.0372  -42.3755 H   0  0  0  0  0  0  0  0  0  0  0  0
  -17.5282  -37.5344  -43.6451 H   0  0  0  0  0  0  0  0  0  0  0  0
  -17.2322  -36.2395  -44.8093 H   0  0  0  0  0  0  0  0  0  0  0  0
  -19.6725  -36.1767  -45.3596 H   0  0  0  0  0  0  0  0  0  0  0  0
  -19.9684  -37.4716  -44.1954 H   0  0  0  0  0  0  0  0  0  0  0  0
  -18.4181  -38.9690  -45.4656 H   0  0  0  0  0  0  0  0  0  0  0  0
  -18.1199  -37.6740  -46.6293 H   0  0  0  0  0  0  0  0  0  0  0  0
  -20.5587  -37.6089  -47.1830 H   0  0  0  0  0  0  0  0  0  0  0  0
  -20.8583  -38.9023  -46.0181 H   0  0  0  0  0  0  0  0  0  0  0  0
  -19.3063  -40.4021  -47.2853 H   0  0  0  0  0  0  0  0  0  0  0  0
  -19.0090  -39.1088  -48.4510 H   0  0  0  0  0  0  0  0  0  0  0  0
  -21.4482  -39.0451  -49.0035 H   0  0  0  0  0  0  0  0  0  0  0  0
  -21.7468  -40.3369  -47.8365 H   0  0  0  0  0  0  0  0  0  0  0  0
  -20.1977  -41.8394  -49.1020 H   0  0  0  0  0  0  0  0  0  0  0  0
  -19.8968  -40.5476  -50.2684 H   0  0  0  0  0  0  0  0  0  0  0  0
  -22.3351  -40.4802  -50.8242 H   0  0  0  0  0  0  0  0  0  0  0  0
  -22.6374  -41.7705  -49.6565 H   0  0  0  0  0  0  0  0  0  0  0  0
  -21.0866  -43.2755  -50.9192 H   0  0  0  0  0  0  0  0  0  0  0  0
  -20.7866  -41.9852  -52.0875 H   0  0  0  0  0  0  0  0  0  0  0  0
  -23.2269  -41.9189  -52.6396 H   0  0  0  0  0  0  0  0  0  0  0  0
  -23.5255  -43.2107  -51.4726 H   0  0  0  0  0  0  0  0  0  0  0  0
  -21.9764  -44.7132  -52.7382 H   0  0  0  0  0  0  0  0  0  0  0  0
  -21.6755  -43.4214  -53.9046 H   0  0  0  0  0  0  0  0  0  0  0  0
  -24.1146  -43.3538  -54.4592 H   0  0  0  0  0  0  0  0  0  0  0  0
  -24.4156  -44.6457  -53.2929 H   0  0  0  0  0  0  0  0  0  0  0  0
  -22.8667  -46.1492  -54.5574 H   0  0  0  0  0  0  0  0  0  0  0  0
  -22.5634  -44.8573  -55.7231 H   0  0  0  0  0  0  0  0  0  0  0  0
  -25.0011  -44.7874  -56.2812 H   0  0  0  0  0  0  0  0  0  0  0  0
  -25.3058  -46.0778  -55.1142 H   0  0  0  0  0  0  0  0  0  0  0  0
  -23.7553  -47.5839  -56.3759 H   0  0  0  0  0  0  0  0  0  0  0  0
  -23.4529  -46.2935  -57.5435 H   0  0  0  0  0  0  0  0  0  0  0  0
  -25.8926  -46.2247  -58.0980 H   0  0  0  0  0  0  0  0  0  0  0  0
  -26.1936  -47.5166  -56.9317 H   0  0  0  0  0  0  0  0  0  0  0  0
  -24.6448  -49.0202  -58.1963 H   0  0  0  0  0  0  0  0  0  0  0  0
  -24.3414  -47.7283  -59.3620 H   0  0  0  0  0  0  0  0  0  0  0  0
  -26.7800  -47.6582  -59.9190 H   0  0  0  0  0  0  0  0  0  0  0  0
  -27.0833  -48.9502  -58.7534 H   0  0  0  0  0  0  0  0  0  0  0  0
  -25.5317  -50.4540  -60.0172 H   0  0  0  0  0  0  0  0  0  0  0  0
  -25.2306  -49.1616  -61.1837 H   0  0  0  0  0  0  0  0  0  0  0  0
  -27.6708  -49.0945  -61.7373 H   0  0  0  0  0  0  0  0  0  0  0  0
  -27.9703  -50.3878  -60.5725 H   0  0  0  0  0  0  0  0  0  0  0  0
  -26.4217  -51.8885  -61.8412 H   0  0  0  0  0  0  0  0  0  0  0  0
  -26.1223  -50.5958  -63.0055 H   0  0  0  0  0  0  0  0  0  0  0  0
  -28.5665  -50.5308  -63.5610 H   0  0  0  0  0  0  0  0  0  0  0  0
  -28.8657  -51.8226  -62.3975 H   0  0  0  0  0  0  0  0  0  0  0  0
  -27.3096  -53.3233  -63.6638 H   0  0  0  0  0  0  0  0  0  0  0  0
  -27.0125  -52.0308  -64.8287 H   0  0  0  0  0  0  0  0  0  0  0  0
  -29.4524  -51.9826  -65.3979 H   0  0  0  0  0  0  0  0  0  0  0  0
  -29.7496  -53.2756  -64.2326 H   0  0  0  0  0  0  0  0  0  0  0  0
  -27.9169  -53.4844  -66.6794 H   0  0  0  0  0  0  0  0  0  0  0  0
  -29.5394  -54.1880  -66.5292 H   0  0  0  0  0  0  0  0  0  0  0  0
  -28.2155  -54.7839  -65.5082 H   0  0  0  0  0  0  0  0  0  0  0  0
  1  2  1  0  0  0  0
  1 80  1  0  0  0  0
  2  3  1  0  0  0  0
  2  6  1  0  0  0  0
  3  4  1  0  0  0  0
  3 81  1  0  0  0  0
  3 82  1  0  0  0  0
  4  5  1  0  0  0  0
  4 83  1  0  0  0  0
  4 84  1  0  0  0  0
  5  6  1  0  0  0  0
  5 85  1  0  0  0  0
  5 86  1  0  0  0  0
  6  7  1  0  0  0  0
  6 87  1  0  0  0  0
  7  8  1  0  0  0  0
  7 88  1  0  0  0  0
  7 89  1  0  0  0  0
  8  9  1  0  0  0  0
  8 90  1  0  0  0  0
  8 91  1  0  0  0  0
  9 10  1  0  0  0  0
  9 92  1  0  0  0  0
  9 93  1  0  0  0  0
 10 11  1  0  0  0  0
 10 94  1  0  0  0  0
 10 95  1  0  0  0  0
 11 12  1  0  0  0  0
 11 96  1  0  0  0  0
 11 97  1  0  0  0  0
 12 13  1  0  0  0  0
 12 98  1  0  0  0  0
 12 99  1  0  0  0  0
 13 14  1  0  0  0  0
 13100  1  0  0  0  0
 13101  1  0  0  0  0
 14 15  1  0  0  0  0
 14102  1  0  0  0  0
 14103  1  0  0  0  0
 15 16  1  0  0  0  0
 15104  1  0  0  0  0
 15105  1  0  0  0  0
 16 17  1  0  0  0  0
 16106  1  0  0  0  0
 16107  1  0  0  0  0
 17 18  1  0  0  0  0
 17108  1  0  0  0  0
 17109  1  0  0  0  0
 18 19  1  0  0  0  0
 18110  1  0  0  0  0
 18111  1  0  0  0  0
 19 20  1  0  0  0  0
 19112  1  0  0  0  0
 19113  1  0  0  0  0
 20 21  1  0  0  0  0
 20114  1  0  0  0  0
 20115  1  0  0  0  0
 21 22  1  0  0  0  0
 21116  1  0  0  0  0
 21117  1  0  0  0  0
 22 23  1  0  0  0  0
 22118  1  0  0  0  0
 22119  1  0  0  0  0
 23 24  1  0  0  0  0
 23120  1  0  0  0  0
 23121  1  0  0  0  0
 24 25  1  0  0  0  0
 24122  1  0  0  0  0
 24123  1  0  0  0  0
 25 26  1  0  0  0  0
 25124  1  0  0  0  0
 25125  1  0  0  0  0
 26 27  1  0  0  0  0
 26126  1  0  0  0  0
 26127  1  0  0  0  0
 27 28  1  0  0  0  0
 27128  1  0  0  0  0
 27129  1  0  0  0  0
 28 29  1  0  0  0  0
 28130  1  0  0  0  0
 28131  1  0  0  0  0
 29 30  1  0  0  0  0
 29132  1  0  0  0  0
 29133  1  0  0  0  0
 30 31  1  0  0  0  0
 30134  1  0  0  0  0
 30135  1  0  0  0  0
 31 32  1  0  0  0  0
 31136  1  0  0  0  0
 31137  1  0  0  0  0
 32 33  1  0  0  0  0
 32138  1  0  0  0  0
 32139  1  0  0  0  0
 33 34  1  0  0  0  0
 33140  1  0  0  0  0
 33141  1  0  0  0  0
 34 35  1  0  0  0  0
 34142  1  0  0  0  0
 34143  1  0  0  0  0
 35 36  1  0  0  0  0
 35144  1  0  0  0  0
 35145  1  0  0  0  0
 36 37  1  0  0  0  0
 36146  1  0  0  0  0
 36147  1  0  0  0  0
 37 38  1  0  0  0  0
 37148  1  0  0  0  0
 37149  1  0  0  0  0
 38 39  1  0  0  0  0
 38150  1  0  0  0  0
 38151  1  0  0  0  0
 39 40  1  0  0  0  0
 39152  1  0  0  0  0
 39153  1  0  0  0  0
 40 41  1  0  0  0  0
 40154  1  0  0  0  0
 40155  1  0  0  0  0
 41 42  1  0  0  0  0
 41156  1  0  0  0  0
 41157  1  0  0  0  0
 42 43  1  0  0  0  0
 42158  1  0  0  0  0
 42159  1  0  0  0  0
 43 44  1  0  0  0  0
 43160  1  0  0  0  0
 43161  1  0  0  0  0
 44 45  1  0  0  0  0
 44162  1  0  0  0  0
 44163  1  0  0  0  0
 45 46  1  0  0  0  0
 45164  1  0  0  0  0
 45165  1  0  0  0  0
 46 47  1  0  0  0  0
 46166  1  0  0  0  0
 46167  1  0  0  0  0
 47 48  1  0  0  0  0
 47168  1  0  0  0  0
 47169  1  0  0  0  0
 48 49  1  0  0  0  0
 48170  1  0  0  0  0
 48171  1  0  0  0  0
 49 50  1  0  0  0  0
 49172  1  0  0  0  0
 49173  1  0  0  0  0
 50 51  1  0  0  0  0
 50174  1  0  0  0  0
 50175  1  0  0  0  0
 51 52  1  0  0  0  0
 51176  1  0  0  0  0
 51177  1  0  0  0  0
 52 53  1  0  0  0  0
 52178  1  0  0  0  0
 52179  1  0  0  0  0
 53 54  1  0  0  0  0
 53180  1  0  0  0  0
 53181  1  0  0  0  0
 54 55  1  0  0  0  0
 54182  1  0  0  0  0
 54183  1  0  0  0  0
 55 56  1  0  0  0  0
 55184  1  0  0  0  0
 55185  1  0  0  0  0
 56 57  1  0  0  0  0
 56186  1  0  0  0  0
 56187  1  0  0  0  0
 57 58  1  0  0  0  0
 57188  1  0  0  0  0
 57189  1  0  0  0  0
 58 59  1  0  0  0  0
 58190  1  0  0  0  0
 58191  1  0  0  0  0
 59 60  1  0  0  0  0
 59192  1  0  0  0  0
 59193  1  0  0  0  0
 60 61  1  0  0  0  0
 60194  1  0  0  0  0
 60195  1  0  0  0  0
 61 62  1  0  0  0  0
 61196  1  0  0  0  0
 61197  1  0  0  0  0
 62 63  1  0  0  0  0
 62198  1  0  0  0  0
 62199  1  0  0  0  0
 63 64  1  0  0  0  0
 63200  1  0  0  0  0
 63201  1  0  0  0  0
 64 65  1  0  0  0  0
 64202  1  0  0  0  0
 64203  1  0  0  0  0
 65 66  1  0  0  0  0
 65204  1  0  0  0  0
 65205  1  0  0  0  0
 66 67  1  0  0  0  0
 66206  1  0  0  0  0
 66207  1  0  0  0  0
 67 68  1  0  0  0  0
 67208  1  0  0  0  0
 67209  1  0  0  0  0
 68 69  1  0  0  0  0
 68210  1  0  0  0  0
 68211  1  0  0  0  0
 69 70  1  0  0  0  0
 69212  1  0  0  0  0
 69213  1  0  0  0  0
 70 71  1  0  0  0  0
 70214  1  0  0  0  0
 70215  1  0  0  0  0
 71 72  1  0  0  0  0
 71216  1  0  0  0  0
 71217  1  0  0  0  0
 72 73  1  0  0  0  0
 72218  1  0  0  0  0
 72219  1  0  0  0  0
 73 74  1  0  0  0  0
 73220  1  0  0  0  0
 73221  1  0  0  0  0
 74 75  1  0  0  0  0
 74222  1  0  0  0  0
 74223  1  0  0  0  0
 75 76  1  0  0  0  0
 75224  1  0  0  0  0
 75225  1  0  0  0  0
 76 77  1  0  0  0  0
 76226  1  0  0  0  0
 76227  1  0  0  0  0
 77 78  1  0  0  0  0
 77228  1  0  0  0  0
 77229  1  0  0  0  0
 78 79  1  0  0  0  0
 78230  1  0  0  0  0
 78231  1  0  0  0  0
 79232  1  0  0  0  0
 79233  1  0  0  0  0
 79234  1  0  0  0  0
M  END
$$$$
