
 OpenBabel04232216453D

 52 53  0  0  0  0  0  0  0  0999 V2000
    1.5995   -0.2510    2.2902 C   0  0  0  0  0  0  0  0  0  0  0  0
    3.0556   -0.1300    1.8743 C   0  0  0  0  0  0  0  0  0  0  0  0
    3.9016   -1.2240    2.2436 C   0  0  0  0  0  0  0  0  0  0  0  0
    5.2124   -1.4173    2.0216 C   0  0  0  0  0  0  0  0  0  0  0  0
    5.7537   -2.7229    2.5772 C   0  0  0  0  0  0  0  0  0  0  0  0
    6.1039   -0.5556    1.3421 N   0  0  0  0  0  0  0  0  0  0  0  0
    7.5186   -0.9749    1.2153 C   0  0  0  0  0  0  0  0  0  0  0  0
    5.7589    0.6905    0.7341 C   0  0  0  0  0  0  0  0  0  0  0  0
    6.9018    1.4890   -0.0709 C   0  0  0  0  0  0  0  0  0  0  0  0
    7.7888    0.8640   -0.6427 O   0  0  0  0  0  0  0  0  0  0  0  0
    6.8302    2.9692   -0.0475 C   0  0  0  0  0  0  0  0  0  0  0  0
    7.4265    3.8340   -0.9002 C   0  0  0  0  0  0  0  0  0  0  0  0
    8.1233    3.8437   -2.0103 N   0  0  0  0  0  0  0  0  0  0  0  0
    7.6708    3.2330   -3.2567 C   0  0  0  0  0  0  0  0  0  0  0  0
    6.9608    4.2776   -4.1287 C   0  0  0  0  0  0  0  0  0  0  0  0
    6.4749    3.6650   -5.4462 C   0  0  0  0  0  0  0  0  0  0  0  0
    5.7562    4.6907   -6.3266 C   0  0  0  0  0  0  0  0  0  0  0  0
    5.2777    4.0646   -7.6386 C   0  0  0  0  0  0  0  0  0  0  0  0
    4.5638    5.0844   -8.5125 C   0  0  0  0  0  0  0  0  0  0  0  0
    6.9700    5.0296   -0.0447 C   0  0  0  0  0  0  0  0  0  0  0  0
    6.3526    4.0031    0.9176 C   0  0  0  0  0  0  0  0  0  0  0  0
    4.6386    1.3420    0.6752 N   0  0  0  0  0  0  0  0  0  0  0  0
    3.4457    0.9594    1.2037 C   0  0  0  0  0  0  0  0  0  0  0  0
    1.3877   -1.1825    2.8324 H   0  0  0  0  0  0  0  0  0  0  0  0
    0.9474   -0.2454    1.4104 H   0  0  0  0  0  0  0  0  0  0  0  0
    1.3120    0.5718    2.9499 H   0  0  0  0  0  0  0  0  0  0  0  0
    3.3711   -2.0182    2.7901 H   0  0  0  0  0  0  0  0  0  0  0  0
    4.9986   -3.3314    3.0858 H   0  0  0  0  0  0  0  0  0  0  0  0
    6.5358   -2.5239    3.3177 H   0  0  0  0  0  0  0  0  0  0  0  0
    6.1534   -3.3438    1.7673 H   0  0  0  0  0  0  0  0  0  0  0  0
    7.7691   -1.9236    1.6924 H   0  0  0  0  0  0  0  0  0  0  0  0
    8.1712   -0.2321    1.6853 H   0  0  0  0  0  0  0  0  0  0  0  0
    7.7791   -1.1434    0.1675 H   0  0  0  0  0  0  0  0  0  0  0  0
    9.0598    4.2417   -2.0545 H   0  0  0  0  0  0  0  0  0  0  0  0
    6.9975    2.3931   -3.0588 H   0  0  0  0  0  0  0  0  0  0  0  0
    8.5379    2.8332   -3.7996 H   0  0  0  0  0  0  0  0  0  0  0  0
    7.6407    5.1142   -4.3381 H   0  0  0  0  0  0  0  0  0  0  0  0
    6.1077    4.6988   -3.5819 H   0  0  0  0  0  0  0  0  0  0  0  0
    5.7953    2.8316   -5.2314 H   0  0  0  0  0  0  0  0  0  0  0  0
    7.3302    3.2518   -5.9941 H   0  0  0  0  0  0  0  0  0  0  0  0
    6.4320    5.5260   -6.5462 H   0  0  0  0  0  0  0  0  0  0  0  0
    4.8966    5.1035   -5.7847 H   0  0  0  0  0  0  0  0  0  0  0  0
    4.5963    3.2316   -7.4292 H   0  0  0  0  0  0  0  0  0  0  0  0
    6.1313    3.6537   -8.1905 H   0  0  0  0  0  0  0  0  0  0  0  0
    3.6854    5.4912   -8.0016 H   0  0  0  0  0  0  0  0  0  0  0  0
    4.2290    4.6197   -9.4453 H   0  0  0  0  0  0  0  0  0  0  0  0
    5.2290    5.9157   -8.7672 H   0  0  0  0  0  0  0  0  0  0  0  0
    6.2411    5.7037   -0.5143 H   0  0  0  0  0  0  0  0  0  0  0  0
    7.7674    5.6448    0.3911 H   0  0  0  0  0  0  0  0  0  0  0  0
    5.2698    4.0990    1.0486 H   0  0  0  0  0  0  0  0  0  0  0  0
    6.8223    3.9819    1.9052 H   0  0  0  0  0  0  0  0  0  0  0  0
    2.6715    1.7057    1.0064 H   0  0  0  0  0  0  0  0  0  0  0  0
  1  2  1  0  0  0  0
  1 24  1  0  0  0  0
  1 25  1  0  0  0  0
  1 26  1  0  0  0  0
  2  3  1  0  0  0  0
  2 23  2  0  0  0  0
  3  4  2  0  0  0  0
  3 27  1  0  0  0  0
  4  5  1  0  0  0  0
  4  6  1  0  0  0  0
  5 28  1  0  0  0  0
  5 29  1  0  0  0  0
  5 30  1  0  0  0  0
  6  7  1  0  0  0  0
  6  8  1  0  0  0  0
  7 31  1  0  0  0  0
  7 32  1  0  0  0  0
  7 33  1  0  0  0  0
  8  9  1  0  0  0  0
  8 22  2  0  0  0  0
  9 10  2  0  0  0  0
  9 11  1  0  0  0  0
 11 12  2  0  0  0  0
 11 21  1  0  0  0  0
 12 13  1  0  0  0  0
 12 20  1  0  0  0  0
 13 14  1  0  0  0  0
 13 34  1  0  0  0  0
 14 15  1  0  0  0  0
 14 35  1  0  0  0  0
 14 36  1  0  0  0  0
 15 16  1  0  0  0  0
 15 37  1  0  0  0  0
 15 38  1  0  0  0  0
 16 17  1  0  0  0  0
 16 39  1  0  0  0  0
 16 40  1  0  0  0  0
 17 18  1  0  0  0  0
 17 41  1  0  0  0  0
 17 42  1  0  0  0  0
 18 19  1  0  0  0  0
 18 43  1  0  0  0  0
 18 44  1  0  0  0  0
 19 45  1  0  0  0  0
 19 46  1  0  0  0  0
 19 47  1  0  0  0  0
 20 21  1  0  0  0  0
 20 48  1  0  0  0  0
 20 49  1  0  0  0  0
 21 50  1  0  0  0  0
 21 51  1  0  0  0  0
 22 23  1  0  0  0  0
 23 52  1  0  0  0  0
M  END
$$$$
