
 OpenBabel04232217023D

 93 92  0  0  0  0  0  0  0  0999 V2000
   11.4002  -11.8425   -5.1283 O   0  0  0  0  0  0  0  0  0  0  0  0
   10.8626  -11.5592   -3.8184 N   0  0  0  0  0  0  0  0  0  0  0  0
   11.3934  -10.2284   -3.4738 C   0  0  0  0  0  0  0  0  0  0  0  0
   10.9000   -9.8394   -2.0725 C   0  0  0  0  0  0  0  0  0  0  0  0
   11.4281   -8.4528   -1.6632 C   0  0  0  0  0  0  0  0  0  0  0  0
   10.9458   -8.1241   -0.2816 N   0  0  0  0  0  0  0  0  0  0  0  0
   11.4433   -6.8050    0.0680 N   0  0  0  0  0  0  0  0  0  0  0  0
   10.9832   -6.4149    1.3927 N   0  0  0  0  0  0  0  0  0  0  0  0
   11.6562   -4.9372    1.7694 S   0  0  0  0  0  0  0  0  0  0  0  0
   10.9321   -4.5681    3.6647 S   0  0  0  0  0  0  0  0  0  0  0  0
   11.6417   -6.0264    4.9433 S   0  0  0  0  0  0  0  0  0  0  0  0
   13.7167   -5.9893    4.9912 S   0  0  0  0  0  0  0  0  0  0  0  0
   14.3906   -7.5258    6.2671 S   0  0  0  0  0  0  0  0  0  0  0  0
   16.5020   -7.5190    6.2617 S   0  0  0  0  0  0  0  0  0  0  0  0
   17.1943   -9.0384    7.5518 S   0  0  0  0  0  0  0  0  0  0  0  0
   19.3042   -9.0287    7.5435 S   0  0  0  0  0  0  0  0  0  0  0  0
   19.9951  -10.5482    8.8333 S   0  0  0  0  0  0  0  0  0  0  0  0
   22.1043  -10.5382    8.8248 S   0  0  0  0  0  0  0  0  0  0  0  0
   22.7951  -12.0576   10.1145 S   0  0  0  0  0  0  0  0  0  0  0  0
   24.9043  -12.0476   10.1060 S   0  0  0  0  0  0  0  0  0  0  0  0
   25.5951  -13.5671   11.3958 S   0  0  0  0  0  0  0  0  0  0  0  0
   27.7043  -13.5571   11.3873 S   0  0  0  0  0  0  0  0  0  0  0  0
   28.3951  -15.0765   12.6770 S   0  0  0  0  0  0  0  0  0  0  0  0
   30.5043  -15.0665   12.6686 S   0  0  0  0  0  0  0  0  0  0  0  0
   31.1951  -16.5859   13.9583 S   0  0  0  0  0  0  0  0  0  0  0  0
   33.3043  -16.5760   13.9498 S   0  0  0  0  0  0  0  0  0  0  0  0
   33.9950  -18.0954   15.2395 S   0  0  0  0  0  0  0  0  0  0  0  0
   36.1043  -18.0854   15.2311 S   0  0  0  0  0  0  0  0  0  0  0  0
   36.7950  -19.6048   16.5208 S   0  0  0  0  0  0  0  0  0  0  0  0
   38.9043  -19.5948   16.5123 S   0  0  0  0  0  0  0  0  0  0  0  0
   39.5950  -21.1142   17.8021 S   0  0  0  0  0  0  0  0  0  0  0  0
   41.7043  -21.1043   17.7936 S   0  0  0  0  0  0  0  0  0  0  0  0
   42.3950  -22.6237   19.0833 S   0  0  0  0  0  0  0  0  0  0  0  0
   44.5043  -22.6137   19.0748 S   0  0  0  0  0  0  0  0  0  0  0  0
   45.1950  -24.1331   20.3646 S   0  0  0  0  0  0  0  0  0  0  0  0
   47.3043  -24.1231   20.3561 S   0  0  0  0  0  0  0  0  0  0  0  0
   47.9950  -25.6426   21.6458 S   0  0  0  0  0  0  0  0  0  0  0  0
   50.1043  -25.6326   21.6374 S   0  0  0  0  0  0  0  0  0  0  0  0
   50.7950  -27.1520   22.9271 S   0  0  0  0  0  0  0  0  0  0  0  0
   52.9043  -27.1420   22.9186 S   0  0  0  0  0  0  0  0  0  0  0  0
   53.5950  -28.6614   24.2083 S   0  0  0  0  0  0  0  0  0  0  0  0
   55.7043  -28.6514   24.1999 S   0  0  0  0  0  0  0  0  0  0  0  0
   56.3950  -30.1709   25.4896 S   0  0  0  0  0  0  0  0  0  0  0  0
   58.5042  -30.1609   25.4811 S   0  0  0  0  0  0  0  0  0  0  0  0
   59.1950  -31.6803   26.7709 S   0  0  0  0  0  0  0  0  0  0  0  0
   61.3042  -31.6703   26.7624 S   0  0  0  0  0  0  0  0  0  0  0  0
   61.9950  -33.1897   28.0521 S   0  0  0  0  0  0  0  0  0  0  0  0
   64.1042  -33.1797   28.0436 S   0  0  0  0  0  0  0  0  0  0  0  0
   64.7950  -34.6992   29.3334 S   0  0  0  0  0  0  0  0  0  0  0  0
   66.9042  -34.6892   29.3249 S   0  0  0  0  0  0  0  0  0  0  0  0
   67.5950  -36.2086   30.6146 S   0  0  0  0  0  0  0  0  0  0  0  0
   69.7042  -36.1986   30.6061 S   0  0  0  0  0  0  0  0  0  0  0  0
   70.3949  -37.7180   31.8959 S   0  0  0  0  0  0  0  0  0  0  0  0
   72.5042  -37.7080   31.8874 S   0  0  0  0  0  0  0  0  0  0  0  0
   73.1949  -39.2275   33.1771 S   0  0  0  0  0  0  0  0  0  0  0  0
   75.3042  -39.2175   33.1687 S   0  0  0  0  0  0  0  0  0  0  0  0
   75.9949  -40.7369   34.4584 S   0  0  0  0  0  0  0  0  0  0  0  0
   78.1042  -40.7269   34.4499 S   0  0  0  0  0  0  0  0  0  0  0  0
   78.7949  -42.2463   35.7396 S   0  0  0  0  0  0  0  0  0  0  0  0
   80.9042  -42.2363   35.7312 S   0  0  0  0  0  0  0  0  0  0  0  0
   81.5949  -43.7558   37.0209 S   0  0  0  0  0  0  0  0  0  0  0  0
   83.7042  -43.7458   37.0124 S   0  0  0  0  0  0  0  0  0  0  0  0
   84.3949  -45.2652   38.3022 S   0  0  0  0  0  0  0  0  0  0  0  0
   86.5042  -45.2552   38.2937 S   0  0  0  0  0  0  0  0  0  0  0  0
   87.1949  -46.7746   39.5834 S   0  0  0  0  0  0  0  0  0  0  0  0
   89.3042  -46.7647   39.5749 S   0  0  0  0  0  0  0  0  0  0  0  0
   89.9949  -48.2841   40.8647 S   0  0  0  0  0  0  0  0  0  0  0  0
   92.1042  -48.2741   40.8562 S   0  0  0  0  0  0  0  0  0  0  0  0
   92.7949  -49.7935   42.1459 S   0  0  0  0  0  0  0  0  0  0  0  0
   94.9041  -49.7835   42.1374 S   0  0  0  0  0  0  0  0  0  0  0  0
   95.5949  -51.3029   43.4272 S   0  0  0  0  0  0  0  0  0  0  0  0
   97.7041  -51.2930   43.4187 S   0  0  0  0  0  0  0  0  0  0  0  0
   98.3949  -52.8124   44.7084 S   0  0  0  0  0  0  0  0  0  0  0  0
  100.5041  -52.8024   44.7000 S   0  0  0  0  0  0  0  0  0  0  0  0
  101.1947  -54.3217   45.9895 S   0  0  0  0  0  0  0  0  0  0  0  0
  103.3022  -54.3112   45.9810 S   0  0  0  0  0  0  0  0  0  0  0  0
  103.9905  -55.8279   47.2682 S   0  0  0  0  0  0  0  0  0  0  0  0
  106.0869  -55.8206   47.2352 S   0  0  0  0  0  0  0  0  0  0  0  0
  106.7741  -57.2763   48.5562 S   0  0  0  0  0  0  0  0  0  0  0  0
  108.8561  -57.2746   48.4921 S   0  0  0  0  0  0  0  0  0  0  0  0
  109.4664  -55.4513   49.2179 S   0  0  0  0  0  0  0  0  0  0  0  0
   10.9281  -12.6771   -5.3039 H   0  0  0  0  0  0  0  0  0  0  0  0
   11.3480  -12.2468   -3.2453 H   0  0  0  0  0  0  0  0  0  0  0  0
   11.0516   -9.4915   -4.2010 H   0  0  0  0  0  0  0  0  0  0  0  0
   12.4886  -10.2413   -3.4886 H   0  0  0  0  0  0  0  0  0  0  0  0
   11.2230  -10.5944   -1.3469 H   0  0  0  0  0  0  0  0  0  0  0  0
    9.8032   -9.8290   -2.0675 H   0  0  0  0  0  0  0  0  0  0  0  0
   11.0843   -7.7191   -2.3839 H   0  0  0  0  0  0  0  0  0  0  0  0
   12.5245   -8.4733   -1.6797 H   0  0  0  0  0  0  0  0  0  0  0  0
   11.2903   -8.8123    0.3432 H   0  0  0  0  0  0  0  0  0  0  0  0
   11.1059   -6.1384   -0.6102 H   0  0  0  0  0  0  0  0  0  0  0  0
   11.3205   -7.1061    2.0474 H   0  0  0  0  0  0  0  0  0  0  0  0
  110.8125  -55.5262   49.1592 H   0  0  0  0  0  0  0  0  0  0  0  0
  1  2  1  0  0  0  0
  1 82  1  0  0  0  0
  2  3  1  0  0  0  0
  2 83  1  0  0  0  0
  3  4  1  0  0  0  0
  3 84  1  0  0  0  0
  3 85  1  0  0  0  0
  4  5  1  0  0  0  0
  4 86  1  0  0  0  0
  4 87  1  0  0  0  0
  5  6  1  0  0  0  0
  5 88  1  0  0  0  0
  5 89  1  0  0  0  0
  6  7  1  0  0  0  0
  6 90  1  0  0  0  0
  7  8  1  0  0  0  0
  7 91  1  0  0  0  0
  8  9  1  0  0  0  0
  8 92  1  0  0  0  0
  9 10  1  0  0  0  0
 10 11  1  0  0  0  0
 11 12  1  0  0  0  0
 12 13  1  0  0  0  0
 13 14  1  0  0  0  0
 14 15  1  0  0  0  0
 15 16  1  0  0  0  0
 16 17  1  0  0  0  0
 17 18  1  0  0  0  0
 18 19  1  0  0  0  0
 19 20  1  0  0  0  0
 20 21  1  0  0  0  0
 21 22  1  0  0  0  0
 22 23  1  0  0  0  0
 23 24  1  0  0  0  0
 24 25  1  0  0  0  0
 25 26  1  0  0  0  0
 26 27  1  0  0  0  0
 27 28  1  0  0  0  0
 28 29  1  0  0  0  0
 29 30  1  0  0  0  0
 30 31  1  0  0  0  0
 31 32  1  0  0  0  0
 32 33  1  0  0  0  0
 33 34  1  0  0  0  0
 34 35  1  0  0  0  0
 35 36  1  0  0  0  0
 36 37  1  0  0  0  0
 37 38  1  0  0  0  0
 38 39  1  0  0  0  0
 39 40  1  0  0  0  0
 40 41  1  0  0  0  0
 41 42  1  0  0  0  0
 42 43  1  0  0  0  0
 43 44  1  0  0  0  0
 44 45  1  0  0  0  0
 45 46  1  0  0  0  0
 46 47  1  0  0  0  0
 47 48  1  0  0  0  0
 48 49  1  0  0  0  0
 49 50  1  0  0  0  0
 50 51  1  0  0  0  0
 51 52  1  0  0  0  0
 52 53  1  0  0  0  0
 53 54  1  0  0  0  0
 54 55  1  0  0  0  0
 55 56  1  0  0  0  0
 56 57  1  0  0  0  0
 57 58  1  0  0  0  0
 58 59  1  0  0  0  0
 59 60  1  0  0  0  0
 60 61  1  0  0  0  0
 61 62  1  0  0  0  0
 62 63  1  0  0  0  0
 63 64  1  0  0  0  0
 64 65  1  0  0  0  0
 65 66  1  0  0  0  0
 66 67  1  0  0  0  0
 67 68  1  0  0  0  0
 68 69  1  0  0  0  0
 69 70  1  0  0  0  0
 70 71  1  0  0  0  0
 71 72  1  0  0  0  0
 72 73  1  0  0  0  0
 73 74  1  0  0  0  0
 74 75  1  0  0  0  0
 75 76  1  0  0  0  0
 76 77  1  0  0  0  0
 77 78  1  0  0  0  0
 78 79  1  0  0  0  0
 79 80  1  0  0  0  0
 80 81  1  0  0  0  0
 81 93  1  0  0  0  0
M  END
$$$$
