
 OpenBabel04232216473D

 55 57  0  0  0  0  0  0  0  0999 V2000
    6.3299    2.8099   -1.9848 C   0  0  0  0  0  0  0  0  0  0  0  0
    6.9767    2.8953   -0.6140 C   0  0  0  0  0  0  0  0  0  0  0  0
    6.0786    2.6417    0.3646 C   0  0  0  0  0  0  0  0  0  0  0  0
    5.7725    1.2946    1.0072 C   0  0  0  0  0  0  0  0  0  0  0  0
    5.7650   -0.0049    0.4105 N   0  0  0  0  0  0  0  0  0  0  0  0
    5.0907   -1.1446    1.0904 C   0  0  0  0  0  0  0  0  0  0  0  0
    6.0208   -1.9204    2.0317 C   0  0  0  0  0  0  0  0  0  0  0  0
    7.1351   -2.7573    1.3988 C   0  0  0  0  0  0  0  0  0  0  0  0
    7.9107   -2.1244    0.2479 C   0  0  0  0  0  0  0  0  0  0  0  0
    7.0152   -1.7601   -0.9336 C   0  0  0  0  0  0  0  0  0  0  0  0
    6.3897   -0.3540   -0.8694 C   0  0  0  0  0  0  0  0  0  0  0  0
    5.8169    1.3850    2.3638 C   0  0  0  0  0  0  0  0  0  0  0  0
    7.1414    1.9065    2.7883 C   0  0  0  0  0  0  0  0  0  0  0  0
    8.3139    1.0907    2.2860 C   0  0  0  0  0  0  0  0  0  0  0  0
    7.2086    3.2090    3.1193 C   0  0  0  0  0  0  0  0  0  0  0  0
    8.4243    3.9210    2.7171 C   0  0  0  0  0  0  0  0  0  0  0  0
    9.5125    3.7271    3.2323 O   0  0  0  0  0  0  0  0  0  0  0  0
    8.2123    5.0128    1.7158 C   0  0  0  0  0  0  0  0  0  0  0  0
    8.1968    6.3476    2.4219 C   0  0  0  0  0  0  0  0  0  0  0  0
    8.6639    4.7484    0.4537 C   0  0  0  0  0  0  0  0  0  0  0  0
    9.7889    5.6549    0.1012 C   0  0  0  0  0  0  0  0  0  0  0  0
   11.0745    5.2635    0.1207 C   0  0  0  0  0  0  0  0  0  0  0  0
   11.5309    3.8974    0.1584 C   0  0  0  0  0  0  0  0  0  0  0  0
   10.8388    2.8167   -0.2299 C   0  0  0  0  0  0  0  0  0  0  0  0
    9.4487    2.6877   -0.6631 C   0  0  0  0  0  0  0  0  0  0  0  0
    8.3813    3.4436   -0.3020 C   0  0  0  0  0  0  0  0  0  0  0  0
    6.7699    2.0259   -2.6070 H   0  0  0  0  0  0  0  0  0  0  0  0
    6.2802    3.7583   -2.5146 H   0  0  0  0  0  0  0  0  0  0  0  0
    5.2710    2.4855   -1.8822 H   0  0  0  0  0  0  0  0  0  0  0  0
    5.0781    3.0345    0.1848 H   0  0  0  0  0  0  0  0  0  0  0  0
    4.6432   -1.8248    0.3529 H   0  0  0  0  0  0  0  0  0  0  0  0
    4.2368   -0.7727    1.6715 H   0  0  0  0  0  0  0  0  0  0  0  0
    5.3999   -2.6143    2.6154 H   0  0  0  0  0  0  0  0  0  0  0  0
    6.4671   -1.2415    2.7641 H   0  0  0  0  0  0  0  0  0  0  0  0
    6.7101   -3.7062    1.0466 H   0  0  0  0  0  0  0  0  0  0  0  0
    7.8463   -3.0326    2.1894 H   0  0  0  0  0  0  0  0  0  0  0  0
    8.6528   -2.8598   -0.0901 H   0  0  0  0  0  0  0  0  0  0  0  0
    8.4974   -1.2690    0.5841 H   0  0  0  0  0  0  0  0  0  0  0  0
    6.2419   -2.5280   -1.0584 H   0  0  0  0  0  0  0  0  0  0  0  0
    7.6201   -1.8082   -1.8478 H   0  0  0  0  0  0  0  0  0  0  0  0
    5.6394   -0.2733   -1.6651 H   0  0  0  0  0  0  0  0  0  0  0  0
    7.1972    0.3407   -1.0929 H   0  0  0  0  0  0  0  0  0  0  0  0
    5.0643    2.0596    2.7932 H   0  0  0  0  0  0  0  0  0  0  0  0
    8.0468    0.4491    1.4487 H   0  0  0  0  0  0  0  0  0  0  0  0
    8.7193    0.4520    3.0722 H   0  0  0  0  0  0  0  0  0  0  0  0
    9.1294    1.6948    1.8742 H   0  0  0  0  0  0  0  0  0  0  0  0
    6.3393    3.8352    3.2690 H   0  0  0  0  0  0  0  0  0  0  0  0
    7.2034    6.4888    2.8589 H   0  0  0  0  0  0  0  0  0  0  0  0
    8.3522    7.1915    1.7466 H   0  0  0  0  0  0  0  0  0  0  0  0
    8.9447    6.3990    3.2198 H   0  0  0  0  0  0  0  0  0  0  0  0
    9.6019    6.7270    0.0820 H   0  0  0  0  0  0  0  0  0  0  0  0
   11.8630    6.0168    0.1659 H   0  0  0  0  0  0  0  0  0  0  0  0
   12.5616    3.7625    0.4903 H   0  0  0  0  0  0  0  0  0  0  0  0
   11.3690    1.8694   -0.1875 H   0  0  0  0  0  0  0  0  0  0  0  0
    9.2678    1.7588   -1.1978 H   0  0  0  0  0  0  0  0  0  0  0  0
  1  2  1  0  0  0  0
  1 27  1  0  0  0  0
  1 28  1  0  0  0  0
  1 29  1  0  0  0  0
  2  3  2  3  0  0  0
  2 26  1  0  0  0  0
  3  4  1  0  0  0  0
  3 30  1  0  0  0  0
  4  5  1  0  0  0  0
  4 12  2  3  0  0  0
  5  6  1  0  0  0  0
  5 11  1  0  0  0  0
  6  7  1  0  0  0  0
  6 31  1  0  0  0  0
  6 32  1  0  0  0  0
  7  8  1  0  0  0  0
  7 33  1  0  0  0  0
  7 34  1  0  0  0  0
  8  9  1  0  0  0  0
  8 35  1  0  0  0  0
  8 36  1  0  0  0  0
  9 10  1  0  0  0  0
  9 37  1  0  0  0  0
  9 38  1  0  0  0  0
 10 11  1  0  0  0  0
 10 39  1  0  0  0  0
 10 40  1  0  0  0  0
 11 41  1  0  0  0  0
 11 42  1  0  0  0  0
 12 13  1  0  0  0  0
 12 43  1  0  0  0  0
 13 14  1  0  0  0  0
 13 15  2  3  0  0  0
 14 44  1  0  0  0  0
 14 45  1  0  0  0  0
 14 46  1  0  0  0  0
 15 16  1  0  0  0  0
 15 47  1  0  0  0  0
 16 17  2  0  0  0  0
 16 18  1  0  0  0  0
 18 19  1  0  0  0  0
 18 20  2  3  0  0  0
 19 48  1  0  0  0  0
 19 49  1  0  0  0  0
 19 50  1  0  0  0  0
 20 21  1  0  0  0  0
 20 26  1  0  0  0  0
 21 22  2  0  0  0  0
 21 51  1  0  0  0  0
 22 23  1  0  0  0  0
 22 52  1  0  0  0  0
 23 24  2  0  0  0  0
 23 53  1  0  0  0  0
 24 25  1  0  0  0  0
 24 54  1  0  0  0  0
 25 26  2  0  0  0  0
 25 55  1  0  0  0  0
M  END
$$$$
