
 OpenBabel04232216433D

 24 24  0  0  0  0  0  0  0  0999 V2000
    5.2455    0.4646    0.1508 C   0  0  0  0  0  0  0  0  0  0  0  0
    4.1316    1.4030    0.2733 C   0  0  0  0  0  0  0  0  0  0  0  0
    3.8390    2.1538    1.3601 C   0  0  0  0  0  0  0  0  0  0  0  0
    4.7151    2.2238    2.5115 C   0  0  0  0  0  0  0  0  0  0  0  0
    4.7152    1.2183    3.4273 C   0  0  0  0  0  0  0  0  0  0  0  0
    5.9448    0.4522    3.5708 C   0  0  0  0  0  0  0  0  0  0  0  0
    7.1071    0.8426    4.1296 C   0  0  0  0  0  0  0  0  0  0  0  0
    8.2544    0.6679    3.2203 C   0  0  0  0  0  0  0  0  0  0  0  0
    8.5754    1.8239    2.6183 C   0  0  0  0  0  0  0  0  0  0  0  0
    8.3280    2.1957    1.2277 C   0  0  0  0  0  0  0  0  0  0  0  0
    7.4049    1.7943    0.3293 C   0  0  0  0  0  0  0  0  0  0  0  0
    6.5864    0.6061    0.2642 C   0  0  0  0  0  0  0  0  0  0  0  0
    4.8871   -0.5511   -0.0334 H   0  0  0  0  0  0  0  0  0  0  0  0
    3.3948    1.3439   -0.5260 H   0  0  0  0  0  0  0  0  0  0  0  0
    2.9150    2.7268    1.3950 H   0  0  0  0  0  0  0  0  0  0  0  0
    5.6373    2.7491    2.2826 H   0  0  0  0  0  0  0  0  0  0  0  0
    3.8239    0.6094    3.5446 H   0  0  0  0  0  0  0  0  0  0  0  0
    5.9895   -0.3113    2.7896 H   0  0  0  0  0  0  0  0  0  0  0  0
    7.1425    1.6575    4.8487 H   0  0  0  0  0  0  0  0  0  0  0  0
    8.2521   -0.2607    2.6544 H   0  0  0  0  0  0  0  0  0  0  0  0
    8.5768    2.7248    3.2383 H   0  0  0  0  0  0  0  0  0  0  0  0
    8.8402    3.1290    0.9861 H   0  0  0  0  0  0  0  0  0  0  0  0
    7.2893    2.4238   -0.5514 H   0  0  0  0  0  0  0  0  0  0  0  0
    7.1721   -0.3068    0.1958 H   0  0  0  0  0  0  0  0  0  0  0  0
  1  2  1  0  0  0  0
  1 12  2  3  0  0  0
  1 13  1  0  0  0  0
  2  3  2  3  0  0  0
  2 14  1  0  0  0  0
  3  4  1  0  0  0  0
  3 15  1  0  0  0  0
  4  5  2  3  0  0  0
  4 16  1  0  0  0  0
  5  6  1  0  0  0  0
  5 17  1  0  0  0  0
  6  7  2  3  0  0  0
  6 18  1  0  0  0  0
  7  8  1  0  0  0  0
  7 19  1  0  0  0  0
  8  9  2  3  0  0  0
  8 20  1  0  0  0  0
  9 10  1  0  0  0  0
  9 21  1  0  0  0  0
 10 11  2  3  0  0  0
 10 22  1  0  0  0  0
 11 12  1  0  0  0  0
 11 23  1  0  0  0  0
 12 24  1  0  0  0  0
M  END
$$$$
