
 OpenBabel04232216583D

 43 42  0  0  0  0  0  0  0  0999 V2000
    2.8129   -5.9599    5.8352 N   0  0  0  0  0  0  0  0  0  0  0  0
    2.3640   -4.6574    5.3542 N   0  0  0  0  0  0  0  0  0  0  0  0
    2.8219   -4.4167    3.9840 C   0  0  0  0  0  0  0  0  0  0  0  0
    4.2850   -4.3608    4.0159 N   0  0  0  0  0  0  0  0  0  0  0  0
    4.8006   -4.0672    2.6879 N   0  0  0  0  0  0  0  0  0  0  0  0
    6.2734   -4.1145    2.7533 C   0  0  0  0  0  0  0  0  0  0  0  0
    6.8879   -3.8930    1.3586 C   0  0  0  0  0  0  0  0  0  0  0  0
    8.3604   -3.8887    1.3627 N   0  0  0  0  0  0  0  0  0  0  0  0
    8.8318   -5.1780    1.7352 N   0  0  0  0  0  0  0  0  0  0  0  0
   10.2453   -5.1388    1.8179 N   0  0  0  0  0  0  0  0  0  0  0  0
   10.7196   -6.4329    2.3205 C   0  0  0  0  0  0  0  0  0  0  0  0
   12.2463   -6.4356    2.3609 C   0  0  0  0  0  0  0  0  0  0  0  0
   12.7760   -7.7836    2.8495 C   0  0  0  0  0  0  0  0  0  0  0  0
   14.3030   -7.7944    2.8812 C   0  0  0  0  0  0  0  0  0  0  0  0
   14.8364   -9.1401    3.3681 C   0  0  0  0  0  0  0  0  0  0  0  0
   16.3561   -9.1517    3.4015 C   0  0  0  0  0  0  0  0  0  0  0  0
    2.2666   -6.2400    6.6550 H   0  0  0  0  0  0  0  0  0  0  0  0
    3.7841   -5.9226    6.1573 H   0  0  0  0  0  0  0  0  0  0  0  0
    2.7321   -3.8882    5.9218 H   0  0  0  0  0  0  0  0  0  0  0  0
    2.4094   -3.4591    3.6455 H   0  0  0  0  0  0  0  0  0  0  0  0
    2.4569   -5.1992    3.3071 H   0  0  0  0  0  0  0  0  0  0  0  0
    4.5526   -5.3086    4.2954 H   0  0  0  0  0  0  0  0  0  0  0  0
    4.5219   -3.1285    2.3874 H   0  0  0  0  0  0  0  0  0  0  0  0
    6.5847   -5.0930    3.1395 H   0  0  0  0  0  0  0  0  0  0  0  0
    6.6404   -3.3465    3.4440 H   0  0  0  0  0  0  0  0  0  0  0  0
    6.5587   -2.9210    0.9708 H   0  0  0  0  0  0  0  0  0  0  0  0
    6.5173   -4.6467    0.6514 H   0  0  0  0  0  0  0  0  0  0  0  0
    8.6871   -3.1798    2.0188 H   0  0  0  0  0  0  0  0  0  0  0  0
    8.5316   -5.8819    1.0452 H   0  0  0  0  0  0  0  0  0  0  0  0
   10.5577   -4.4042    2.4508 H   0  0  0  0  0  0  0  0  0  0  0  0
   10.3761   -7.2433    1.6650 H   0  0  0  0  0  0  0  0  0  0  0  0
   10.3223   -6.6210    3.3265 H   0  0  0  0  0  0  0  0  0  0  0  0
   12.6040   -5.6375    3.0238 H   0  0  0  0  0  0  0  0  0  0  0  0
   12.6443   -6.2278    1.3595 H   0  0  0  0  0  0  0  0  0  0  0  0
   12.4165   -8.5825    2.1894 H   0  0  0  0  0  0  0  0  0  0  0  0
   12.3838   -7.9914    3.8524 H   0  0  0  0  0  0  0  0  0  0  0  0
   14.6625   -6.9947    3.5404 H   0  0  0  0  0  0  0  0  0  0  0  0
   14.6926   -7.5854    1.8773 H   0  0  0  0  0  0  0  0  0  0  0  0
   14.4838   -9.9419    2.7092 H   0  0  0  0  0  0  0  0  0  0  0  0
   14.4519   -9.3521    4.3724 H   0  0  0  0  0  0  0  0  0  0  0  0
   16.7705   -8.9719    2.4044 H   0  0  0  0  0  0  0  0  0  0  0  0
   16.7203  -10.1217    3.7524 H   0  0  0  0  0  0  0  0  0  0  0  0
   16.7380   -8.3793    4.0767 H   0  0  0  0  0  0  0  0  0  0  0  0
  1  2  1  0  0  0  0
  1 17  1  0  0  0  0
  1 18  1  0  0  0  0
  2  3  1  0  0  0  0
  2 19  1  0  0  0  0
  3  4  1  0  0  0  0
  3 20  1  0  0  0  0
  3 21  1  0  0  0  0
  4  5  1  0  0  0  0
  4 22  1  0  0  0  0
  5  6  1  0  0  0  0
  5 23  1  0  0  0  0
  6  7  1  0  0  0  0
  6 24  1  0  0  0  0
  6 25  1  0  0  0  0
  7  8  1  0  0  0  0
  7 26  1  0  0  0  0
  7 27  1  0  0  0  0
  8  9  1  0  0  0  0
  8 28  1  0  0  0  0
  9 10  1  0  0  0  0
  9 29  1  0  0  0  0
 10 11  1  0  0  0  0
 10 30  1  0  0  0  0
 11 12  1  0  0  0  0
 11 31  1  0  0  0  0
 11 32  1  0  0  0  0
 12 13  1  0  0  0  0
 12 33  1  0  0  0  0
 12 34  1  0  0  0  0
 13 14  1  0  0  0  0
 13 35  1  0  0  0  0
 13 36  1  0  0  0  0
 14 15  1  0  0  0  0
 14 37  1  0  0  0  0
 14 38  1  0  0  0  0
 15 16  1  0  0  0  0
 15 39  1  0  0  0  0
 15 40  1  0  0  0  0
 16 41  1  0  0  0  0
 16 42  1  0  0  0  0
 16 43  1  0  0  0  0
M  END
$$$$
