
 OpenBabel04232217013D

160159  0  0  0  0  0  0  0  0999 V2000
   24.3744   17.5538  -23.4576 O   0  0  0  0  0  0  0  0  0  0  0  0
   23.8831   16.2726  -23.8416 N   0  0  0  0  0  0  0  0  0  0  0  0
   24.0945   15.4181  -22.9402 N   0  0  0  0  0  0  0  0  0  0  0  0
   23.6254   14.0400  -23.2159 C   0  0  0  0  0  0  0  0  0  0  0  0
   23.9427   13.1317  -22.0859 N   0  0  0  0  0  0  0  0  0  0  0  0
   23.4740   11.8329  -22.3653 N   0  0  0  0  0  0  0  0  0  0  0  0
   23.7718   10.9737  -21.2642 N   0  0  0  0  0  0  0  0  0  0  0  0
   23.3218    9.6539  -21.5340 N   0  0  0  0  0  0  0  0  0  0  0  0
   23.9685    9.1379  -22.6993 N   0  0  0  0  0  0  0  0  0  0  0  0
   25.3845    9.1258  -22.5097 N   0  0  0  0  0  0  0  0  0  0  0  0
   25.7075    8.2954  -21.3951 N   0  0  0  0  0  0  0  0  0  0  0  0
   25.2419    6.9648  -21.6359 N   0  0  0  0  0  0  0  0  0  0  0  0
   25.8578    6.4466  -22.8177 N   0  0  0  0  0  0  0  0  0  0  0  0
   27.2772    6.4376  -22.6524 N   0  0  0  0  0  0  0  0  0  0  0  0
   27.6223    5.6229  -21.5308 N   0  0  0  0  0  0  0  0  0  0  0  0
   27.1519    4.2906  -21.7447 N   0  0  0  0  0  0  0  0  0  0  0  0
   27.7456    3.7586  -22.9301 N   0  0  0  0  0  0  0  0  0  0  0  0
   29.1687    3.7578  -22.7908 N   0  0  0  0  0  0  0  0  0  0  0  0
   29.5303    2.9582  -21.6585 N   0  0  0  0  0  0  0  0  0  0  0  0
   29.0477    1.6208  -21.8539 N   0  0  0  0  0  0  0  0  0  0  0  0
   29.6276    1.0809  -23.0532 N   0  0  0  0  0  0  0  0  0  0  0  0
   31.0586    1.0834  -22.9267 N   0  0  0  0  0  0  0  0  0  0  0  0
   31.4315    0.2944  -21.7956 N   0  0  0  0  0  0  0  0  0  0  0  0
   30.9582   -1.0386  -21.9695 N   0  0  0  0  0  0  0  0  0  0  0  0
   31.5178   -1.5914  -23.1539 N   0  0  0  0  0  0  0  0  0  0  0  0
   32.9373   -1.5960  -23.0553 N   0  0  0  0  0  0  0  0  0  0  0  0
   33.3361   -2.3712  -21.9278 N   0  0  0  0  0  0  0  0  0  0  0  0
   32.8663   -3.7063  -22.0767 N   0  0  0  0  0  0  0  0  0  0  0  0
   33.4066   -4.2705  -23.2617 N   0  0  0  0  0  0  0  0  0  0  0  0
   34.8249   -4.2705  -23.1809 N   0  0  0  0  0  0  0  0  0  0  0  0
   35.2470   -5.0409  -22.0561 N   0  0  0  0  0  0  0  0  0  0  0  0
   34.7776   -6.3830  -22.1865 N   0  0  0  0  0  0  0  0  0  0  0  0
   35.3143   -6.9649  -23.3742 N   0  0  0  0  0  0  0  0  0  0  0  0
   36.7399   -6.9757  -23.3106 N   0  0  0  0  0  0  0  0  0  0  0  0
   37.1844   -7.7332  -22.1907 N   0  0  0  0  0  0  0  0  0  0  0  0
   36.7274   -9.0745  -22.2880 N   0  0  0  0  0  0  0  0  0  0  0  0
   37.2235   -9.6815  -23.4742 N   0  0  0  0  0  0  0  0  0  0  0  0
   38.6545   -9.6837  -23.4669 N   0  0  0  0  0  0  0  0  0  0  0  0
   39.1336  -10.4121  -22.3278 N   0  0  0  0  0  0  0  0  0  0  0  0
   38.6549  -11.7687  -22.3871 N   0  0  0  0  0  0  0  0  0  0  0  0
   39.1240  -12.3875  -23.6017 N   0  0  0  0  0  0  0  0  0  0  0  0
   40.5546  -12.3664  -23.6061 N   0  0  0  0  0  0  0  0  0  0  0  0
   41.0397  -13.0745  -22.4678 N   0  0  0  0  0  0  0  0  0  0  0  0
   40.5579  -14.4170  -22.5084 N   0  0  0  0  0  0  0  0  0  0  0  0
   41.0065  -15.0345  -23.7117 N   0  0  0  0  0  0  0  0  0  0  0  0
   42.4298  -15.0096  -23.7373 N   0  0  0  0  0  0  0  0  0  0  0  0
   42.9331  -15.7179  -22.6088 N   0  0  0  0  0  0  0  0  0  0  0  0
   42.4758  -17.0628  -22.6323 N   0  0  0  0  0  0  0  0  0  0  0  0
   42.9151  -17.7038  -23.8094 N   0  0  0  0  0  0  0  0  0  0  0  0
   44.3273  -17.6921  -23.8657 N   0  0  0  0  0  0  0  0  0  0  0  0
   44.8540  -18.3799  -22.7410 N   0  0  0  0  0  0  0  0  0  0  0  0
   44.3927  -19.7287  -22.7382 N   0  0  0  0  0  0  0  0  0  0  0  0
   44.8114  -20.3920  -23.9231 N   0  0  0  0  0  0  0  0  0  0  0  0
   46.2284  -20.3871  -24.0109 N   0  0  0  0  0  0  0  0  0  0  0  0
   46.7829  -21.0579  -22.8808 N   0  0  0  0  0  0  0  0  0  0  0  0
   46.3189  -22.4135  -22.8391 N   0  0  0  0  0  0  0  0  0  0  0  0
   46.7009  -23.0966  -24.0289 N   0  0  0  0  0  0  0  0  0  0  0  0
   48.1193  -23.0822  -24.1464 N   0  0  0  0  0  0  0  0  0  0  0  0
   48.6992  -23.7315  -23.0087 N   0  0  0  0  0  0  0  0  0  0  0  0
   48.2259  -25.0827  -22.9332 N   0  0  0  0  0  0  0  0  0  0  0  0
   48.5964  -25.7815  -24.1321 N   0  0  0  0  0  0  0  0  0  0  0  0
   50.0315  -25.7622  -24.2656 N   0  0  0  0  0  0  0  0  0  0  0  0
   50.6122  -26.3964  -23.1140 N   0  0  0  0  0  0  0  0  0  0  0  0
   50.1214  -27.7487  -23.0357 N   0  0  0  0  0  0  0  0  0  0  0  0
   50.4850  -28.4488  -24.2460 N   0  0  0  0  0  0  0  0  0  0  0  0
   51.9207  -28.4260  -24.3907 N   0  0  0  0  0  0  0  0  0  0  0  0
   52.5266  -29.0635  -23.2444 N   0  0  0  0  0  0  0  0  0  0  0  0
   52.0554  -30.4291  -23.1444 N   0  0  0  0  0  0  0  0  0  0  0  0
   52.4022  -31.1459  -24.3492 N   0  0  0  0  0  0  0  0  0  0  0  0
   53.8335  -31.1262  -24.5156 N   0  0  0  0  0  0  0  0  0  0  0  0
   54.4444  -31.7432  -23.3692 N   0  0  0  0  0  0  0  0  0  0  0  0
   53.9734  -33.0948  -23.2568 N   0  0  0  0  0  0  0  0  0  0  0  0
   54.3024  -33.8091  -24.4542 N   0  0  0  0  0  0  0  0  0  0  0  0
   55.7232  -33.7901  -24.6323 N   0  0  0  0  0  0  0  0  0  0  0  0
   56.3515  -34.4020  -23.4977 N   0  0  0  0  0  0  0  0  0  0  0  0
   55.8860  -35.7468  -23.3695 N   0  0  0  0  0  0  0  0  0  0  0  0
   56.2064  -36.4723  -24.5564 N   0  0  0  0  0  0  0  0  0  0  0  0
   57.6224  -36.4675  -24.7524 N   0  0  0  0  0  0  0  0  0  0  0  0
   58.2625  -37.0642  -23.6333 N   0  0  0  0  0  0  0  0  0  0  0  0
   57.8111  -38.3918  -23.4874 N   0  0  0  0  0  0  0  0  0  0  0  0
   24.1857   18.1757  -24.1926 H   0  0  0  0  0  0  0  0  0  0  0  0
   24.1126   13.6450  -24.1204 H   0  0  0  0  0  0  0  0  0  0  0  0
   22.5407   14.0266  -23.3904 H   0  0  0  0  0  0  0  0  0  0  0  0
   23.4678   13.4798  -21.2544 H   0  0  0  0  0  0  0  0  0  0  0  0
   23.9410   11.5281  -23.2189 H   0  0  0  0  0  0  0  0  0  0  0  0
   23.3135   11.3308  -20.4231 H   0  0  0  0  0  0  0  0  0  0  0  0
   22.3151    9.6612  -21.6788 H   0  0  0  0  0  0  0  0  0  0  0  0
   23.7425    9.7201  -23.4977 H   0  0  0  0  0  0  0  0  0  0  0  0
   25.7085   10.0732  -22.3154 H   0  0  0  0  0  0  0  0  0  0  0  0
   25.2484    8.6638  -20.5633 H   0  0  0  0  0  0  0  0  0  0  0  0
   24.2331    6.9874  -21.7716 H   0  0  0  0  0  0  0  0  0  0  0  0
   25.6215    7.0475  -23.6055 H   0  0  0  0  0  0  0  0  0  0  0  0
   27.5993    7.3889  -22.4810 H   0  0  0  0  0  0  0  0  0  0  0  0
   27.1776    6.0014  -20.6962 H   0  0  0  0  0  0  0  0  0  0  0  0
   26.1409    4.3097  -21.8619 H   0  0  0  0  0  0  0  0  0  0  0  0
   27.4951    4.3459  -23.7224 H   0  0  0  0  0  0  0  0  0  0  0  0
   29.4928    4.7194  -22.6455 H   0  0  0  0  0  0  0  0  0  0  0  0
   29.1035    3.3607  -20.8129 H   0  0  0  0  0  0  0  0  0  0  0  0
   28.0210    1.6380  -21.9384 H   0  0  0  0  0  0  0  0  0  0  0  0
   29.3481    1.6543  -23.8625 H   0  0  0  0  0  0  0  0  0  0  0  0
   31.3998    2.0456  -22.8054 H   0  0  0  0  0  0  0  0  0  0  0  0
   31.0338    0.6625  -20.9370 H   0  0  0  0  0  0  0  0  0  0  0  0
   29.9521   -1.0686  -22.0555 H   0  0  0  0  0  0  0  0  0  0  0  0
   31.2658   -1.0563  -23.9688 H   0  0  0  0  0  0  0  0  0  0  0  0
   33.3004   -0.6673  -22.9264 H   0  0  0  0  0  0  0  0  0  0  0  0
   32.9469   -2.0050  -21.0750 H   0  0  0  0  0  0  0  0  0  0  0  0
   31.8655   -3.7357  -22.1587 H   0  0  0  0  0  0  0  0  0  0  0  0
   33.1434   -3.7479  -24.0796 H   0  0  0  0  0  0  0  0  0  0  0  0
   35.1950   -3.3294  -23.0752 H   0  0  0  0  0  0  0  0  0  0  0  0
   34.8652   -4.6429  -21.1955 H   0  0  0  0  0  0  0  0  0  0  0  0
   33.7540   -6.3918  -22.2437 H   0  0  0  0  0  0  0  0  0  0  0  0
   35.0284   -6.4186  -24.1931 H   0  0  0  0  0  0  0  0  0  0  0  0
   37.0857   -6.0258  -23.2064 H   0  0  0  0  0  0  0  0  0  0  0  0
   36.8064   -7.3341  -21.3366 H   0  0  0  0  0  0  0  0  0  0  0  0
   35.7119   -9.0727  -22.3301 H   0  0  0  0  0  0  0  0  0  0  0  0
   36.9033   -9.1301  -24.2688 H   0  0  0  0  0  0  0  0  0  0  0  0
   38.9503   -8.6961  -23.3976 H   0  0  0  0  0  0  0  0  0  0  0  0
   38.7460   -9.9242  -21.4933 H   0  0  0  0  0  0  0  0  0  0  0  0
   37.6117  -11.6994  -22.3904 H   0  0  0  0  0  0  0  0  0  0  0  0
   38.7628  -11.8093  -24.3833 H   0  0  0  0  0  0  0  0  0  0  0  0
   40.8529  -11.3929  -23.5474 H   0  0  0  0  0  0  0  0  0  0  0  0
   40.6808  -12.6237  -21.6318 H   0  0  0  0  0  0  0  0  0  0  0  0
   39.5403  -14.4028  -22.5013 H   0  0  0  0  0  0  0  0  0  0  0  0
   40.6447  -14.5150  -24.5154 H   0  0  0  0  0  0  0  0  0  0  0  0
   42.7686  -14.0442  -23.7146 H   0  0  0  0  0  0  0  0  0  0  0  0
   42.6046  -15.2807  -21.7437 H   0  0  0  0  0  0  0  0  0  0  0  0
   41.4628  -17.0957  -22.6123 H   0  0  0  0  0  0  0  0  0  0  0  0
   42.5619  -17.2261  -24.6267 H   0  0  0  0  0  0  0  0  0  0  0  0
   44.6730  -16.7305  -23.8551 H   0  0  0  0  0  0  0  0  0  0  0  0
   44.5396  -17.9174  -21.8827 H   0  0  0  0  0  0  0  0  0  0  0  0
   43.3722  -19.7390  -22.7134 H   0  0  0  0  0  0  0  0  0  0  0  0
   44.4437  -19.8974  -24.7302 H   0  0  0  0  0  0  0  0  0  0  0  0
   46.5422  -19.4118  -24.0195 H   0  0  0  0  0  0  0  0  0  0  0  0
   46.4685  -20.5590  -22.0358 H   0  0  0  0  0  0  0  0  0  0  0  0
   45.2954  -22.3941  -22.7885 H   0  0  0  0  0  0  0  0  0  0  0  0
   46.2882  -22.6007  -24.8283 H   0  0  0  0  0  0  0  0  0  0  0  0
   48.4175  -22.0951  -24.1864 H   0  0  0  0  0  0  0  0  0  0  0  0
   48.3880  -23.2171  -22.1718 H   0  0  0  0  0  0  0  0  0  0  0  0
   47.1969  -25.0496  -22.8582 H   0  0  0  0  0  0  0  0  0  0  0  0
   48.1552  -25.2683  -24.9197 H   0  0  0  0  0  0  0  0  0  0  0  0
   50.3310  -24.7816  -24.2958 H   0  0  0  0  0  0  0  0  0  0  0  0
   50.3168  -25.8736  -22.2788 H   0  0  0  0  0  0  0  0  0  0  0  0
   49.0946  -27.7163  -22.9424 H   0  0  0  0  0  0  0  0  0  0  0  0
   50.0631  -27.9760  -25.0569 H   0  0  0  0  0  0  0  0  0  0  0  0
   52.2343  -27.4451  -24.4563 H   0  0  0  0  0  0  0  0  0  0  0  0
   52.2723  -28.5579  -22.3882 H   0  0  0  0  0  0  0  0  0  0  0  0
   51.0300  -30.4206  -23.0245 H   0  0  0  0  0  0  0  0  0  0  0  0
   51.9570  -30.6903  -25.1603 H   0  0  0  0  0  0  0  0  0  0  0  0
   54.1518  -30.1470  -24.5966 H   0  0  0  0  0  0  0  0  0  0  0  0
   54.2009  -31.2142  -22.5189 H   0  0  0  0  0  0  0  0  0  0  0  0
   52.9582  -33.1099  -23.1299 H   0  0  0  0  0  0  0  0  0  0  0  0
   53.8485  -33.3723  -25.2662 H   0  0  0  0  0  0  0  0  0  0  0  0
   56.0585  -32.8263  -24.7278 H   0  0  0  0  0  0  0  0  0  0  0  0
   56.1262  -33.8983  -22.6350 H   0  0  0  0  0  0  0  0  0  0  0  0
   54.8731  -35.7689  -23.2240 H   0  0  0  0  0  0  0  0  0  0  0  0
   55.7533  -36.0638  -25.3757 H   0  0  0  0  0  0  0  0  0  0  0  0
   57.9776  -35.5138  -24.8587 H   0  0  0  0  0  0  0  0  0  0  0  0
   58.0697  -36.5507  -22.7655 H   0  0  0  0  0  0  0  0  0  0  0  0
   58.0292  -38.9591  -24.3155 H   0  0  0  0  0  0  0  0  0  0  0  0
   56.8055  -38.4510  -23.3319 H   0  0  0  0  0  0  0  0  0  0  0  0
  1  2  1  0  0  0  0
  1 81  1  0  0  0  0
  2  3  2  3  0  0  0
  3  4  1  0  0  0  0
  4  5  1  0  0  0  0
  4 82  1  0  0  0  0
  4 83  1  0  0  0  0
  5  6  1  0  0  0  0
  5 84  1  0  0  0  0
  6  7  1  0  0  0  0
  6 85  1  0  0  0  0
  7  8  1  0  0  0  0
  7 86  1  0  0  0  0
  8  9  1  0  0  0  0
  8 87  1  0  0  0  0
  9 10  1  0  0  0  0
  9 88  1  0  0  0  0
 10 11  1  0  0  0  0
 10 89  1  0  0  0  0
 11 12  1  0  0  0  0
 11 90  1  0  0  0  0
 12 13  1  0  0  0  0
 12 91  1  0  0  0  0
 13 14  1  0  0  0  0
 13 92  1  0  0  0  0
 14 15  1  0  0  0  0
 14 93  1  0  0  0  0
 15 16  1  0  0  0  0
 15 94  1  0  0  0  0
 16 17  1  0  0  0  0
 16 95  1  0  0  0  0
 17 18  1  0  0  0  0
 17 96  1  0  0  0  0
 18 19  1  0  0  0  0
 18 97  1  0  0  0  0
 19 20  1  0  0  0  0
 19 98  1  0  0  0  0
 20 21  1  0  0  0  0
 20 99  1  0  0  0  0
 21 22  1  0  0  0  0
 21100  1  0  0  0  0
 22 23  1  0  0  0  0
 22101  1  0  0  0  0
 23 24  1  0  0  0  0
 23102  1  0  0  0  0
 24 25  1  0  0  0  0
 24103  1  0  0  0  0
 25 26  1  0  0  0  0
 25104  1  0  0  0  0
 26 27  1  0  0  0  0
 26105  1  0  0  0  0
 27 28  1  0  0  0  0
 27106  1  0  0  0  0
 28 29  1  0  0  0  0
 28107  1  0  0  0  0
 29 30  1  0  0  0  0
 29108  1  0  0  0  0
 30 31  1  0  0  0  0
 30109  1  0  0  0  0
 31 32  1  0  0  0  0
 31110  1  0  0  0  0
 32 33  1  0  0  0  0
 32111  1  0  0  0  0
 33 34  1  0  0  0  0
 33112  1  0  0  0  0
 34 35  1  0  0  0  0
 34113  1  0  0  0  0
 35 36  1  0  0  0  0
 35114  1  0  0  0  0
 36 37  1  0  0  0  0
 36115  1  0  0  0  0
 37 38  1  0  0  0  0
 37116  1  0  0  0  0
 38 39  1  0  0  0  0
 38117  1  0  0  0  0
 39 40  1  0  0  0  0
 39118  1  0  0  0  0
 40 41  1  0  0  0  0
 40119  1  0  0  0  0
 41 42  1  0  0  0  0
 41120  1  0  0  0  0
 42 43  1  0  0  0  0
 42121  1  0  0  0  0
 43 44  1  0  0  0  0
 43122  1  0  0  0  0
 44 45  1  0  0  0  0
 44123  1  0  0  0  0
 45 46  1  0  0  0  0
 45124  1  0  0  0  0
 46 47  1  0  0  0  0
 46125  1  0  0  0  0
 47 48  1  0  0  0  0
 47126  1  0  0  0  0
 48 49  1  0  0  0  0
 48127  1  0  0  0  0
 49 50  1  0  0  0  0
 49128  1  0  0  0  0
 50 51  1  0  0  0  0
 50129  1  0  0  0  0
 51 52  1  0  0  0  0
 51130  1  0  0  0  0
 52 53  1  0  0  0  0
 52131  1  0  0  0  0
 53 54  1  0  0  0  0
 53132  1  0  0  0  0
 54 55  1  0  0  0  0
 54133  1  0  0  0  0
 55 56  1  0  0  0  0
 55134  1  0  0  0  0
 56 57  1  0  0  0  0
 56135  1  0  0  0  0
 57 58  1  0  0  0  0
 57136  1  0  0  0  0
 58 59  1  0  0  0  0
 58137  1  0  0  0  0
 59 60  1  0  0  0  0
 59138  1  0  0  0  0
 60 61  1  0  0  0  0
 60139  1  0  0  0  0
 61 62  1  0  0  0  0
 61140  1  0  0  0  0
 62 63  1  0  0  0  0
 62141  1  0  0  0  0
 63 64  1  0  0  0  0
 63142  1  0  0  0  0
 64 65  1  0  0  0  0
 64143  1  0  0  0  0
 65 66  1  0  0  0  0
 65144  1  0  0  0  0
 66 67  1  0  0  0  0
 66145  1  0  0  0  0
 67 68  1  0  0  0  0
 67146  1  0  0  0  0
 68 69  1  0  0  0  0
 68147  1  0  0  0  0
 69 70  1  0  0  0  0
 69148  1  0  0  0  0
 70 71  1  0  0  0  0
 70149  1  0  0  0  0
 71 72  1  0  0  0  0
 71150  1  0  0  0  0
 72 73  1  0  0  0  0
 72151  1  0  0  0  0
 73 74  1  0  0  0  0
 73152  1  0  0  0  0
 74 75  1  0  0  0  0
 74153  1  0  0  0  0
 75 76  1  0  0  0  0
 75154  1  0  0  0  0
 76 77  1  0  0  0  0
 76155  1  0  0  0  0
 77 78  1  0  0  0  0
 77156  1  0  0  0  0
 78 79  1  0  0  0  0
 78157  1  0  0  0  0
 79 80  1  0  0  0  0
 79158  1  0  0  0  0
 80159  1  0  0  0  0
 80160  1  0  0  0  0
M  END
$$$$
