
 OpenBabel04232216473D

 60 62  0  0  1  0  0  0  0  0999 V2000
    9.2420   -0.2190    2.6427 C   0  0  0  0  0  0  0  0  0  0  0  0
    9.9873    0.9155    1.9170 C   0  0  0  0  0  0  0  0  0  0  0  0
    8.7517    1.7182    1.4313 C   0  0  0  0  0  0  0  0  0  0  0  0
    7.5882    1.4994    0.7135 C   0  0  0  0  0  0  0  0  0  0  0  0
    7.4308    0.2814   -0.5782 S   0  0  0  0  0  0  0  0  0  0  0  0
    6.2233    2.1562    1.0081 C   0  0  0  0  0  0  0  0  0  0  0  0
    5.9549    3.2097    2.1439 C   0  0  0  0  0  0  0  0  0  0  0  0
    6.6412    4.0688    3.2454 C   0  0  0  0  0  0  0  0  0  0  0  0
    7.9968    4.4222    2.9837 N   0  0  0  0  0  0  0  0  0  0  0  0
    8.9129    4.5062    4.0930 C   0  0  3  0  0  0  0  0  0  0  0  0
    8.8814    3.3327    5.1571 C   0  0  0  0  0  0  0  0  0  0  0  0
    9.5377    3.7873    6.4610 C   0  0  0  0  0  0  0  0  0  0  0  0
    9.5261    2.8515    7.6433 C   0  0  0  0  0  0  0  0  0  0  0  0
    8.4499    3.0435    8.4999 N   0  0  0  0  0  0  0  0  0  0  0  0
    8.5777    2.4643    9.7073 C   0  0  0  0  0  0  0  0  0  0  0  0
    9.6819    1.7362   10.1208 C   0  0  0  0  0  0  0  0  0  0  0  0
   10.7166    1.5315    9.2300 C   0  0  0  0  0  0  0  0  0  0  0  0
   10.6334    2.0991    7.9544 C   0  0  0  0  0  0  0  0  0  0  0  0
   10.2562    4.5742    3.3787 C   0  0  0  0  0  0  0  0  0  0  0  0
   11.3531    5.1417    4.2318 C   0  0  0  0  0  0  0  0  0  0  0  0
   12.4020    4.0763    4.5289 C   0  0  0  0  0  0  0  0  0  0  0  0
   11.9226    2.5529    4.6015 C   0  0  0  0  0  0  0  0  0  0  0  0
   12.0967    1.6071    3.6089 C   0  0  0  0  0  0  0  0  0  0  0  0
   13.6180    1.6116    3.4753 C   0  0  0  0  0  0  0  0  0  0  0  0
   14.1319    2.3059    2.4444 C   0  0  0  0  0  0  0  0  0  0  0  0
   13.4083    2.3289    1.1980 C   0  0  0  0  0  0  0  0  0  0  0  0
   12.1570    1.7948    1.0814 C   0  0  0  0  0  0  0  0  0  0  0  0
   11.2496    1.5053    2.2413 C   0  0  0  0  0  0  0  0  0  0  0  0
    9.6662   -1.1987    2.4118 H   0  0  0  0  0  0  0  0  0  0  0  0
    8.2001   -0.3412    2.2910 H   0  0  0  0  0  0  0  0  0  0  0  0
    9.1253   -0.0454    3.7134 H   0  0  0  0  0  0  0  0  0  0  0  0
    8.5521    2.3742    2.2777 H   0  0  0  0  0  0  0  0  0  0  0  0
    6.0768    0.2977   -0.6659 H   0  0  0  0  0  0  0  0  0  0  0  0
    5.5046    1.3479    1.2310 H   0  0  0  0  0  0  0  0  0  0  0  0
    5.7785    2.5846    0.0910 H   0  0  0  0  0  0  0  0  0  0  0  0
    6.2978    3.9522    1.4261 H   0  0  0  0  0  0  0  0  0  0  0  0
    6.1255    2.3624    2.8130 H   0  0  0  0  0  0  0  0  0  0  0  0
    6.5037    3.5862    4.2152 H   0  0  0  0  0  0  0  0  0  0  0  0
    6.0847    5.0057    3.3465 H   0  0  0  0  0  0  0  0  0  0  0  0
    8.3894    4.1360    2.0841 H   0  0  0  0  0  0  0  0  0  0  0  0
    8.7091    5.4557    4.5968 H   0  0  0  0  0  0  0  0  0  0  0  0
    9.3430    2.4164    4.7641 H   0  0  0  0  0  0  0  0  0  0  0  0
    7.8674    3.0268    5.4135 H   0  0  0  0  0  0  0  0  0  0  0  0
    9.0606    4.7297    6.7630 H   0  0  0  0  0  0  0  0  0  0  0  0
   10.5839    4.0401    6.3195 H   0  0  0  0  0  0  0  0  0  0  0  0
    7.7503    2.6692   10.3995 H   0  0  0  0  0  0  0  0  0  0  0  0
    9.7463    1.3823   11.1289 H   0  0  0  0  0  0  0  0  0  0  0  0
   11.6071    0.9935    9.5175 H   0  0  0  0  0  0  0  0  0  0  0  0
   11.4706    2.0086    7.2803 H   0  0  0  0  0  0  0  0  0  0  0  0
   10.2541    5.1056    2.4171 H   0  0  0  0  0  0  0  0  0  0  0  0
   10.4910    3.5632    3.0621 H   0  0  0  0  0  0  0  0  0  0  0  0
   10.9574    5.5973    5.1455 H   0  0  0  0  0  0  0  0  0  0  0  0
   11.8128    5.9915    3.7129 H   0  0  0  0  0  0  0  0  0  0  0  0
   13.2014    4.2204    3.7971 H   0  0  0  0  0  0  0  0  0  0  0  0
   12.8736    4.3511    5.4880 H   0  0  0  0  0  0  0  0  0  0  0  0
   12.4711    2.2620    5.5115 H   0  0  0  0  0  0  0  0  0  0  0  0
   14.2238    1.4749    4.3728 H   0  0  0  0  0  0  0  0  0  0  0  0
   15.1343    2.7337    2.4909 H   0  0  0  0  0  0  0  0  0  0  0  0
   14.0389    2.4949    0.3335 H   0  0  0  0  0  0  0  0  0  0  0  0
   11.9674    1.2798    0.1457 H   0  0  0  0  0  0  0  0  0  0  0  0
  1  2  1  0  0  0  0
  1 29  1  0  0  0  0
  1 30  1  0  0  0  0
  1 31  1  0  0  0  0
  2  3  1  0  0  0  0
  2 28  2  3  0  0  0
  3  4  2  3  0  0  0
  3 32  1  0  0  0  0
  4  5  1  0  0  0  0
  4  6  1  0  0  0  0
  5 33  1  0  0  0  0
  6  7  1  0  0  0  0
  6 34  1  0  0  0  0
  6 35  1  0  0  0  0
  7  8  1  0  0  0  0
  7 36  1  0  0  0  0
  7 37  1  0  0  0  0
  8  9  1  0  0  0  0
  8 38  1  0  0  0  0
  8 39  1  0  0  0  0
  9 10  1  0  0  0  0
  9 40  1  0  0  0  0
 10 11  1  0  0  0  0
 10 19  1  0  0  0  0
 10 41  1  0  0  0  0
 11 12  1  0  0  0  0
 11 42  1  0  0  0  0
 11 43  1  0  0  0  0
 12 13  1  0  0  0  0
 12 44  1  0  0  0  0
 12 45  1  0  0  0  0
 13 14  1  0  0  0  0
 13 18  2  0  0  0  0
 14 15  2  0  0  0  0
 15 16  1  0  0  0  0
 15 46  1  0  0  0  0
 16 17  2  0  0  0  0
 16 47  1  0  0  0  0
 17 18  1  0  0  0  0
 17 48  1  0  0  0  0
 18 49  1  0  0  0  0
 19 20  1  0  0  0  0
 19 50  1  0  0  0  0
 19 51  1  0  0  0  0
 20 21  1  0  0  0  0
 20 52  1  0  0  0  0
 20 53  1  0  0  0  0
 21 22  1  0  0  0  0
 21 54  1  0  0  0  0
 21 55  1  0  0  0  0
 22 23  2  3  0  0  0
 22 56  1  0  0  0  0
 23 24  1  0  0  0  0
 23 28  1  0  0  0  0
 24 25  2  0  0  0  0
 24 57  1  0  0  0  0
 25 26  1  0  0  0  0
 25 58  1  0  0  0  0
 26 27  2  0  0  0  0
 26 59  1  0  0  0  0
 27 28  1  0  0  0  0
 27 60  1  0  0  0  0
M  END
$$$$
