
 OpenBabel04232217033D

 91 90  0  0  0  0  0  0  0  0999 V2000
   16.3027  -14.0269  -16.8237 S   0  0  0  0  0  0  0  0  0  0  0  0
   15.7127  -12.4926  -17.0879 O   0  0  0  0  0  0  0  0  0  0  0  0
   16.2294  -11.5959  -16.0683 O   0  0  0  0  0  0  0  0  0  0  0  0
   15.7407  -10.2488  -16.2828 N   0  0  0  0  0  0  0  0  0  0  0  0
   16.3347   -9.4732  -15.2112 C   0  0  0  0  0  0  0  0  0  0  0  0
   15.8640   -8.0995  -15.3700 N   0  0  0  0  0  0  0  0  0  0  0  0
   16.4318   -7.2811  -14.3240 N   0  0  0  0  0  0  0  0  0  0  0  0
   15.9418   -5.9143  -14.5134 C   0  0  0  0  0  0  0  0  0  0  0  0
   16.5239   -5.0210  -13.4222 C   0  0  0  0  0  0  0  0  0  0  0  0
   16.0333   -3.5882  -13.5867 C   0  0  0  0  0  0  0  0  0  0  0  0
   16.5998   -2.7490  -12.5266 N   0  0  0  0  0  0  0  0  0  0  0  0
   16.1220   -1.4213  -12.7002 N   0  0  0  0  0  0  0  0  0  0  0  0
   16.6775   -0.5963  -11.6865 N   0  0  0  0  0  0  0  0  0  0  0  0
   18.1064   -0.5979  -11.7431 N   0  0  0  0  0  0  0  0  0  0  0  0
   18.5463   -0.0992  -13.0032 N   0  0  0  0  0  0  0  0  0  0  0  0
   18.0620    1.2236  -13.1971 N   0  0  0  0  0  0  0  0  0  0  0  0
   18.5624    2.0547  -12.1644 N   0  0  0  0  0  0  0  0  0  0  0  0
   20.0034    2.0751  -12.1962 N   0  0  0  0  0  0  0  0  0  0  0  0
   20.4689    2.5213  -13.4640 N   0  0  0  0  0  0  0  0  0  0  0  0
   19.9994    3.8553  -13.6968 N   0  0  0  0  0  0  0  0  0  0  0  0
   20.4673    4.7129  -12.6528 N   0  0  0  0  0  0  0  0  0  0  0  0
   21.8949    4.7141  -12.6425 N   0  0  0  0  0  0  0  0  0  0  0  0
   22.3869    5.1600  -13.9084 N   0  0  0  0  0  0  0  0  0  0  0  0
   21.9093    6.4781  -14.1701 N   0  0  0  0  0  0  0  0  0  0  0  0
   22.3637    7.3769  -13.1529 N   0  0  0  0  0  0  0  0  0  0  0  0
   23.7890    7.3649  -13.0953 N   0  0  0  0  0  0  0  0  0  0  0  0
   24.3112    7.7953  -14.3517 N   0  0  0  0  0  0  0  0  0  0  0  0
   23.8302    9.1099  -14.6441 N   0  0  0  0  0  0  0  0  0  0  0  0
   24.2526   10.0167  -13.6145 N   0  0  0  0  0  0  0  0  0  0  0  0
   25.6853   10.0355  -13.5333 N   0  0  0  0  0  0  0  0  0  0  0  0
   26.2329   10.4325  -14.7921 N   0  0  0  0  0  0  0  0  0  0  0  0
   25.7657   11.7522  -15.1282 N   0  0  0  0  0  0  0  0  0  0  0  0
   26.1390   12.6716  -14.0892 N   0  0  0  0  0  0  0  0  0  0  0  0
   27.5649   12.6947  -13.9592 N   0  0  0  0  0  0  0  0  0  0  0  0
   28.1544   13.0876  -15.2071 N   0  0  0  0  0  0  0  0  0  0  0  0
   27.6828   14.3963  -15.5726 N   0  0  0  0  0  0  0  0  0  0  0  0
   28.0117   15.3199  -14.5412 N   0  0  0  0  0  0  0  0  0  0  0  0
   29.4394   15.3675  -14.3765 N   0  0  0  0  0  0  0  0  0  0  0  0
   30.0572   15.7371  -15.6241 N   0  0  0  0  0  0  0  0  0  0  0  0
   29.5804   17.0434  -16.0321 N   0  0  0  0  0  0  0  0  0  0  0  0
   29.8990   18.0013  -15.0087 N   0  0  0  0  0  0  0  0  0  0  0  0
   31.3244   18.0695  -14.8050 N   0  0  0  0  0  0  0  0  0  0  0  0
   31.9902   18.4217  -16.0345 N   0  0  0  0  0  0  0  0  0  0  0  0
   31.5253   19.7169  -16.4879 N   0  0  0  0  0  0  0  0  0  0  0  0
   15.7069  -14.7010  -17.8193 H   0  0  0  0  0  0  0  0  0  0  0  0
   14.7437  -10.3943  -16.1317 H   0  0  0  0  0  0  0  0  0  0  0  0
   17.4296   -9.4973  -15.2970 H   0  0  0  0  0  0  0  0  0  0  0  0
   16.0609   -9.8623  -14.2206 H   0  0  0  0  0  0  0  0  0  0  0  0
   14.8448   -8.1221  -15.3048 H   0  0  0  0  0  0  0  0  0  0  0  0
   17.4537   -7.2792  -14.4101 H   0  0  0  0  0  0  0  0  0  0  0  0
   14.8459   -5.8888  -14.4496 H   0  0  0  0  0  0  0  0  0  0  0  0
   16.2376   -5.5263  -15.4962 H   0  0  0  0  0  0  0  0  0  0  0  0
   17.6188   -5.0424  -13.4753 H   0  0  0  0  0  0  0  0  0  0  0  0
   16.2249   -5.4016  -12.4373 H   0  0  0  0  0  0  0  0  0  0  0  0
   14.9369   -3.5755  -13.5264 H   0  0  0  0  0  0  0  0  0  0  0  0
   16.3271   -3.2127  -14.5747 H   0  0  0  0  0  0  0  0  0  0  0  0
   17.6178   -2.6906  -12.5965 H   0  0  0  0  0  0  0  0  0  0  0  0
   15.1020   -1.3739  -12.6522 H   0  0  0  0  0  0  0  0  0  0  0  0
   16.3714   -0.9341  -10.7694 H   0  0  0  0  0  0  0  0  0  0  0  0
   18.4465   -1.5455  -11.6496 H   0  0  0  0  0  0  0  0  0  0  0  0
   18.1390   -0.6785  -13.7259 H   0  0  0  0  0  0  0  0  0  0  0  0
   17.0384    1.1891  -13.1579 H   0  0  0  0  0  0  0  0  0  0  0  0
   18.2902    1.6853  -11.2609 H   0  0  0  0  0  0  0  0  0  0  0  0
   20.3296    1.1206  -12.0882 H   0  0  0  0  0  0  0  0  0  0  0  0
   20.0935    1.8723  -14.1686 H   0  0  0  0  0  0  0  0  0  0  0  0
   18.9720    3.8316  -13.6754 H   0  0  0  0  0  0  0  0  0  0  0  0
   20.1627    4.3580  -11.7496 H   0  0  0  0  0  0  0  0  0  0  0  0
   22.1879    3.7439  -12.4784 H   0  0  0  0  0  0  0  0  0  0  0  0
   22.0108    4.5610  -14.6348 H   0  0  0  0  0  0  0  0  0  0  0  0
   20.8853    6.4563  -14.1868 H   0  0  0  0  0  0  0  0  0  0  0  0
   22.0357    7.0546  -12.2472 H   0  0  0  0  0  0  0  0  0  0  0  0
   24.0729    6.3952  -12.9079 H   0  0  0  0  0  0  0  0  0  0  0  0
   23.9466    7.1775  -15.0691 H   0  0  0  0  0  0  0  0  0  0  0  0
   22.8032    9.0389  -14.6514 H   0  0  0  0  0  0  0  0  0  0  0  0
   23.8832    9.6767  -12.7198 H   0  0  0  0  0  0  0  0  0  0  0  0
   26.0063    9.0834  -13.3382 H   0  0  0  0  0  0  0  0  0  0  0  0
   25.9009    9.7443  -15.4831 H   0  0  0  0  0  0  0  0  0  0  0  0
   24.7450   11.7143  -15.1503 H   0  0  0  0  0  0  0  0  0  0  0  0
   25.7485   12.3056  -13.2141 H   0  0  0  0  0  0  0  0  0  0  0  0
   27.8410   11.7304  -13.7157 H   0  0  0  0  0  0  0  0  0  0  0  0
   27.8421   12.4178  -15.9198 H   0  0  0  0  0  0  0  0  0  0  0  0
   26.6635   14.3494  -15.6072 H   0  0  0  0  0  0  0  0  0  0  0  0
   27.5572   14.9833  -13.6820 H   0  0  0  0  0  0  0  0  0  0  0  0
   29.7346   14.4120  -14.1261 H   0  0  0  0  0  0  0  0  0  0  0  0
   29.7764   15.0387  -16.3309 H   0  0  0  0  0  0  0  0  0  0  0  0
   28.5509   16.9651  -16.1099 H   0  0  0  0  0  0  0  0  0  0  0  0
   29.4624   17.6799  -14.1382 H   0  0  0  0  0  0  0  0  0  0  0  0
   31.6160   17.1173  -14.5339 H   0  0  0  0  0  0  0  0  0  0  0  0
   31.6976   17.7072  -16.7093 H   0  0  0  0  0  0  0  0  0  0  0  0
   31.6701   20.3246  -15.6874 H   0  0  0  0  0  0  0  0  0  0  0  0
   30.4998   19.6051  -16.5246 H   0  0  0  0  0  0  0  0  0  0  0  0
  1  2  1  0  0  0  0
  1 45  1  0  0  0  0
  2  3  1  0  0  0  0
  3  4  1  0  0  0  0
  4  5  1  0  0  0  0
  4 46  1  0  0  0  0
  5  6  1  0  0  0  0
  5 47  1  0  0  0  0
  5 48  1  0  0  0  0
  6  7  1  0  0  0  0
  6 49  1  0  0  0  0
  7  8  1  0  0  0  0
  7 50  1  0  0  0  0
  8  9  1  0  0  0  0
  8 51  1  0  0  0  0
  8 52  1  0  0  0  0
  9 10  1  0  0  0  0
  9 53  1  0  0  0  0
  9 54  1  0  0  0  0
 10 11  1  0  0  0  0
 10 55  1  0  0  0  0
 10 56  1  0  0  0  0
 11 12  1  0  0  0  0
 11 57  1  0  0  0  0
 12 13  1  0  0  0  0
 12 58  1  0  0  0  0
 13 14  1  0  0  0  0
 13 59  1  0  0  0  0
 14 15  1  0  0  0  0
 14 60  1  0  0  0  0
 15 16  1  0  0  0  0
 15 61  1  0  0  0  0
 16 17  1  0  0  0  0
 16 62  1  0  0  0  0
 17 18  1  0  0  0  0
 17 63  1  0  0  0  0
 18 19  1  0  0  0  0
 18 64  1  0  0  0  0
 19 20  1  0  0  0  0
 19 65  1  0  0  0  0
 20 21  1  0  0  0  0
 20 66  1  0  0  0  0
 21 22  1  0  0  0  0
 21 67  1  0  0  0  0
 22 23  1  0  0  0  0
 22 68  1  0  0  0  0
 23 24  1  0  0  0  0
 23 69  1  0  0  0  0
 24 25  1  0  0  0  0
 24 70  1  0  0  0  0
 25 26  1  0  0  0  0
 25 71  1  0  0  0  0
 26 27  1  0  0  0  0
 26 72  1  0  0  0  0
 27 28  1  0  0  0  0
 27 73  1  0  0  0  0
 28 29  1  0  0  0  0
 28 74  1  0  0  0  0
 29 30  1  0  0  0  0
 29 75  1  0  0  0  0
 30 31  1  0  0  0  0
 30 76  1  0  0  0  0
 31 32  1  0  0  0  0
 31 77  1  0  0  0  0
 32 33  1  0  0  0  0
 32 78  1  0  0  0  0
 33 34  1  0  0  0  0
 33 79  1  0  0  0  0
 34 35  1  0  0  0  0
 34 80  1  0  0  0  0
 35 36  1  0  0  0  0
 35 81  1  0  0  0  0
 36 37  1  0  0  0  0
 36 82  1  0  0  0  0
 37 38  1  0  0  0  0
 37 83  1  0  0  0  0
 38 39  1  0  0  0  0
 38 84  1  0  0  0  0
 39 40  1  0  0  0  0
 39 85  1  0  0  0  0
 40 41  1  0  0  0  0
 40 86  1  0  0  0  0
 41 42  1  0  0  0  0
 41 87  1  0  0  0  0
 42 43  1  0  0  0  0
 42 88  1  0  0  0  0
 43 44  1  0  0  0  0
 43 89  1  0  0  0  0
 44 90  1  0  0  0  0
 44 91  1  0  0  0  0
M  END
$$$$
