
 OpenBabel04232216443D

 44 44  0  0  0  0  0  0  0  0999 V2000
    7.6056    3.8642    1.4024 C   0  0  0  0  0  0  0  0  0  0  0  0
    8.6442    4.0044    0.2289 C   0  0  0  0  0  0  0  0  0  0  0  0
    8.0563    3.2733   -0.7685 C   0  0  0  0  0  0  0  0  0  0  0  0
    6.9402    2.1060   -0.9434 C   0  0  0  0  0  0  0  0  0  0  0  0
    6.8498    1.1033   -0.1866 O   0  0  0  0  0  0  0  0  0  0  0  0
    6.0585    2.2700   -2.1862 C   0  0  0  0  0  0  0  0  0  0  0  0
    4.9125    3.2669   -2.1960 C   0  0  0  0  0  0  0  0  0  0  0  0
    6.8810    2.1522   -3.2602 C   0  0  0  0  0  0  0  0  0  0  0  0
    7.4726    3.4222   -3.6503 C   0  0  0  0  0  0  0  0  0  0  0  0
    8.7432    3.6272   -3.3086 C   0  0  0  0  0  0  0  0  0  0  0  0
    9.2571    4.9403   -3.1748 C   0  0  0  0  0  0  0  0  0  0  0  0
   10.5756    5.0076   -3.1386 C   0  0  0  0  0  0  0  0  0  0  0  0
   11.1977    6.1716   -3.6321 C   0  0  0  0  0  0  0  0  0  0  0  0
   12.4130    5.9670   -4.1242 C   0  0  0  0  0  0  0  0  0  0  0  0
   13.1621    7.0346   -4.6827 C   0  0  0  0  0  0  0  0  0  0  0  0
   14.4700    6.8237   -4.8790 C   0  0  0  0  0  0  0  0  0  0  0  0
   15.2652    7.8468   -4.1919 C   0  0  0  0  0  0  0  0  0  0  0  0
   15.3948    7.5378   -2.8993 C   0  0  0  0  0  0  0  0  0  0  0  0
   14.2631    7.9047   -1.8262 C   0  0  0  0  0  0  0  0  0  0  0  0
   14.2869    9.0664   -1.3963 O   0  0  0  0  0  0  0  0  0  0  0  0
   13.0703    6.7701   -1.2105 C   0  0  0  0  0  0  0  0  0  0  0  0
   12.2495    5.7304   -0.6796 C   0  0  0  0  0  0  0  0  0  0  0  0
   10.6968    5.5776   -0.3458 N   0  0  0  0  0  0  0  0  0  0  0  0
   10.1393    4.4502    0.2345 N   0  0  0  0  0  0  0  0  0  0  0  0
    7.0660    4.7834    1.6573 H   0  0  0  0  0  0  0  0  0  0  0  0
    7.9089    3.2557    2.2529 H   0  0  0  0  0  0  0  0  0  0  0  0
    6.7131    3.2759    1.0708 H   0  0  0  0  0  0  0  0  0  0  0  0
    7.3116    4.0128   -1.1194 H   0  0  0  0  0  0  0  0  0  0  0  0
    3.9635    2.8086   -1.8993 H   0  0  0  0  0  0  0  0  0  0  0  0
    4.7252    3.6476   -3.2198 H   0  0  0  0  0  0  0  0  0  0  0  0
    5.1063    4.1286   -1.5579 H   0  0  0  0  0  0  0  0  0  0  0  0
    7.6496    1.3721   -3.1945 H   0  0  0  0  0  0  0  0  0  0  0  0
    6.8430    4.3059   -3.8145 H   0  0  0  0  0  0  0  0  0  0  0  0
    9.3807    2.8136   -2.9501 H   0  0  0  0  0  0  0  0  0  0  0  0
    8.6330    5.8262   -3.2605 H   0  0  0  0  0  0  0  0  0  0  0  0
   11.1782    4.1116   -2.9686 H   0  0  0  0  0  0  0  0  0  0  0  0
   10.6575    7.1093   -3.7026 H   0  0  0  0  0  0  0  0  0  0  0  0
   12.9128    5.0152   -3.9542 H   0  0  0  0  0  0  0  0  0  0  0  0
   12.7653    8.0370   -4.4946 H   0  0  0  0  0  0  0  0  0  0  0  0
   14.8621    5.7998   -4.9203 H   0  0  0  0  0  0  0  0  0  0  0  0
   14.9051    8.8078   -4.5895 H   0  0  0  0  0  0  0  0  0  0  0  0
   16.0047    6.6543   -2.7024 H   0  0  0  0  0  0  0  0  0  0  0  0
   14.0293    6.1809   -1.1162 H   0  0  0  0  0  0  0  0  0  0  0  0
   12.7515    4.7946   -0.4961 H   0  0  0  0  0  0  0  0  0  0  0  0
  1  2  1  0  0  0  0
  1 25  1  0  0  0  0
  1 26  1  0  0  0  0
  1 27  1  0  0  0  0
  2  3  2  3  0  0  0
  2 24  1  0  0  0  0
  3  4  1  0  0  0  0
  3 28  1  0  0  0  0
  4  5  2  0  0  0  0
  4  6  1  0  0  0  0
  6  7  1  0  0  0  0
  6  8  2  3  0  0  0
  7 29  1  0  0  0  0
  7 30  1  0  0  0  0
  7 31  1  0  0  0  0
  8  9  1  0  0  0  0
  8 32  1  0  0  0  0
  9 10  2  3  0  0  0
  9 33  1  0  0  0  0
 10 11  1  0  0  0  0
 10 34  1  0  0  0  0
 11 12  2  3  0  0  0
 11 35  1  0  0  0  0
 12 13  1  0  0  0  0
 12 36  1  0  0  0  0
 13 14  2  3  0  0  0
 13 37  1  0  0  0  0
 14 15  1  0  0  0  0
 14 38  1  0  0  0  0
 15 16  2  3  0  0  0
 15 39  1  0  0  0  0
 16 17  1  0  0  0  0
 16 40  1  0  0  0  0
 17 18  2  3  0  0  0
 17 41  1  0  0  0  0
 18 19  1  0  0  0  0
 18 42  1  0  0  0  0
 19 20  2  0  0  0  0
 19 21  1  0  0  0  0
 21 22  2  3  0  0  0
 21 43  1  0  0  0  0
 22 23  1  0  0  0  0
 22 44  1  0  0  0  0
 23 24  2  3  0  0  0
M  END
$$$$
