
 OpenBabel04232216513D

146146  0  0  1  0  0  0  0  0999 V2000
 -118.7832 -165.6780 -394.5994 C   0  0  0  0  0  0  0  0  0  0  0  0
 -122.9008 -165.1884 -394.2444 C   0  0  0  0  0  0  0  0  0  0  0  0
 -127.4300 -164.5774 -393.9720 C   0  0  3  0  0  0  0  0  0  0  0  0
 -122.6895 -165.2991 -393.6199 C   0  0  0  0  0  0  0  0  0  0  0  0
 -118.8377 -165.8918 -393.3406 C   0  0  0  0  0  0  0  0  0  0  0  0
 -114.7768 -166.2500 -393.3599 C   0  0  0  0  0  0  0  0  0  0  0  0
 -111.3902 -167.1165 -393.3486 C   0  0  0  0  0  0  0  0  0  0  0  0
 -108.2185 -167.7816 -393.6566 C   0  0  0  0  0  0  0  0  0  0  0  0
 -106.6136 -167.8647 -394.6540 C   0  0  0  0  0  0  0  0  0  0  0  0
 -107.9102 -168.3724 -394.5774 C   0  0  0  0  0  0  0  0  0  0  0  0
 -109.2448 -168.1703 -394.6582 C   0  0  0  0  0  0  0  0  0  0  0  0
 -110.8975 -168.6684 -393.8365 C   0  0  0  0  0  0  0  0  0  0  0  0
 -112.2221 -168.1999 -392.5951 C   0  0  0  0  0  0  0  0  0  0  0  0
 -113.9650 -168.1970 -393.6621 C   0  0  0  0  0  0  0  0  0  0  0  0
 -115.3698 -167.9228 -392.9033 C   0  0  0  0  0  0  0  0  0  0  0  0
 -115.8058 -167.7390 -394.3712 C   0  0  0  0  0  0  0  0  0  0  0  0
 -116.4081 -167.5569 -392.8221 C   0  0  0  0  0  0  0  0  0  0  0  0
 -117.9425 -167.5487 -394.0811 C   0  0  0  0  0  0  0  0  0  0  0  0
 -118.8996 -167.5885 -393.1060 C   0  0  0  0  0  0  0  0  0  0  0  0
 -120.7085 -168.2581 -393.5049 C   0  0  0  0  0  0  0  0  0  0  0  0
 -122.2992 -167.7147 -392.7559 C   0  0  0  0  0  0  0  0  0  0  0  0
 -122.4890 -166.9440 -393.6982 C   0  0  0  0  0  0  0  0  0  0  0  0
 -123.6776 -166.5064 -392.9952 C   0  0  0  0  0  0  0  0  0  0  0  0
 -124.7432 -165.9431 -394.5445 C   0  0  0  0  0  0  0  0  0  0  0  0
 -125.8097 -166.1555 -393.0412 C   0  0  0  0  0  0  0  0  0  0  0  0
 -127.4198 -166.0434 -393.6508 C   0  0  0  0  0  0  0  0  0  0  0  0
 -128.3768 -165.4656 -393.1058 C   0  0  0  0  0  0  0  0  0  0  0  0
 -129.6065 -165.4781 -393.8637 C   0  0  0  0  0  0  0  0  0  0  0  0
 -130.9254 -165.5767 -393.1255 C   0  0  0  0  0  0  0  0  0  0  0  0
 -132.7953 -165.9447 -393.8034 C   0  0  0  0  0  0  0  0  0  0  0  0
 -134.5054 -166.0752 -393.4927 C   0  0  0  0  0  0  0  0  0  0  0  0
 -136.0855 -165.3055 -393.7274 C   0  0  0  0  0  0  0  0  0  0  0  0
 -135.6295 -164.3767 -393.1097 C   0  0  0  0  0  0  0  0  0  0  0  0
 -137.0053 -164.6054 -393.8955 C   0  0  0  0  0  0  0  0  0  0  0  0
 -138.0872 -164.6657 -393.0399 C   0  0  0  0  0  0  0  0  0  0  0  0
 -139.3743 -165.0658 -393.9741 C   0  0  0  0  0  0  0  0  0  0  0  0
 -140.6477 -164.4407 -393.1413 C   0  0  0  0  0  0  0  0  0  0  0  0
 -142.0484 -164.4099 -393.9579 C   0  0  0  0  0  0  0  0  0  0  0  0
 -143.0223 -164.1138 -393.1774 C   0  0  0  0  0  0  0  0  0  0  0  0
 -144.3420 -164.4364 -394.1414 C   0  0  0  0  0  0  0  0  0  0  0  0
 -145.3942 -164.2598 -393.2239 C   0  0  0  0  0  0  0  0  0  0  0  0
 -146.7300 -164.9059 -393.9138 C   0  0  0  0  0  0  0  0  0  0  0  0
 -147.7813 -164.2545 -392.8124 C   0  0  0  0  0  0  0  0  0  0  0  0
 -149.0659 -163.8753 -394.1943 C   0  0  0  0  0  0  0  0  0  0  0  0
 -149.6449 -163.9257 -393.1151 C   0  0  0  0  0  0  0  0  0  0  0  0
 -151.4280 -163.5720 -393.8800 C   0  0  0  0  0  0  0  0  0  0  0  0
 -152.9898 -163.2593 -393.2198 C   0  0  0  0  0  0  0  0  0  0  0  0
 -154.3662 -163.4200 -394.2743 C   0  0  0  0  0  0  0  0  0  0  0  0
 -155.5249 -162.9615 -394.4664 C   0  0  0  0  0  0  0  0  0  0  0  0
 -156.7276 -162.7964 -394.6254 C   0  0  0  0  0  0  0  0  0  0  0  0
 -157.7578 -162.7766 -393.0947 C   0  0  0  0  0  0  0  0  0  0  0  0
 -159.1681 -162.8913 -393.2774 C   0  0  0  0  0  0  0  0  0  0  0  0
 -160.3348 -162.2188 -392.9524 C   0  0  0  0  0  0  0  0  0  0  0  0
 -161.8904 -162.6388 -394.2276 C   0  0  0  0  0  0  0  0  0  0  0  0
 -163.5623 -162.7302 -393.6553 C   0  0  0  0  0  0  0  0  0  0  0  0
 -165.4291 -162.5381 -394.3094 C   0  0  0  0  0  0  0  0  0  0  0  0
 -165.7903 -162.0590 -393.0304 C   0  0  0  0  0  0  0  0  0  0  0  0
 -166.9386 -162.3515 -394.1145 C   0  0  0  0  0  0  0  0  0  0  0  0
 -168.1826 -162.1337 -392.9642 C   0  0  0  0  0  0  0  0  0  0  0  0
 -169.4974 -161.8838 -392.8626 C   0  0  0  0  0  0  0  0  0  0  0  0
 -171.0353 -162.0154 -392.8162 C   0  0  0  0  0  0  0  0  0  0  0  0
 -170.9212 -160.7416 -392.5513 C   0  0  0  0  0  0  0  0  0  0  0  0
 -168.6253 -160.7326 -393.6350 C   0  0  0  0  0  0  0  0  0  0  0  0
 -165.0351 -160.9226 -393.7925 C   0  0  0  0  0  0  0  0  0  0  0  0
 -161.5342 -161.1063 -393.8976 C   0  0  0  0  0  0  0  0  0  0  0  0
 -156.8959 -161.4124 -393.9844 C   0  0  0  0  0  0  0  0  0  0  0  0
 -152.8035 -161.6617 -394.2204 C   0  0  0  0  0  0  0  0  0  0  0  0
 -147.8734 -162.2238 -394.0636 C   0  0  0  0  0  0  0  0  0  0  0  0
 -143.5402 -162.7024 -393.9726 C   0  0  0  0  0  0  0  0  0  0  0  0
 -138.1486 -163.2591 -393.9853 C   0  0  0  0  0  0  0  0  0  0  0  0
 -132.7696 -163.9681 -394.0989 C   0  0  0  0  0  3  0  0  0  0  0  0
 -116.0587 -166.0701 -394.5526 H   0  0  0  0  0  0  0  0  0  0  0  0
 -116.0546 -166.0386 -394.5295 H   0  0  0  0  0  0  0  0  0  0  0  0
 -116.0534 -166.0332 -394.5694 H   0  0  0  0  0  0  0  0  0  0  0  0
 -120.2405 -165.6620 -394.4746 H   0  0  0  0  0  0  0  0  0  0  0  0
 -120.2335 -165.6236 -394.4686 H   0  0  0  0  0  0  0  0  0  0  0  0
 -124.8655 -164.9508 -393.7111 H   0  0  0  0  0  0  0  0  0  0  0  0
 -120.0558 -165.8108 -393.4125 H   0  0  0  0  0  0  0  0  0  0  0  0
 -116.2437 -166.2401 -393.3490 H   0  0  0  0  0  0  0  0  0  0  0  0
 -112.0222 -166.9555 -393.4272 H   0  0  0  0  0  0  0  0  0  0  0  0
 -108.8040 -167.7141 -392.8642 H   0  0  0  0  0  0  0  0  0  0  0  0
 -105.7394 -167.9658 -394.3721 H   0  0  0  0  0  0  0  0  0  0  0  0
 -107.3082 -167.3019 -393.2840 H   0  0  0  0  0  0  0  0  0  0  0  0
 -107.2160 -168.3006 -395.1918 H   0  0  0  0  0  0  0  0  0  0  0  0
 -109.3529 -168.4101 -392.9199 H   0  0  0  0  0  0  0  0  0  0  0  0
 -109.7965 -167.7982 -394.6254 H   0  0  0  0  0  0  0  0  0  0  0  0
 -111.0364 -167.2858 -391.9095 H   0  0  0  0  0  0  0  0  0  0  0  0
 -114.2911 -168.8060 -392.4994 H   0  0  0  0  0  0  0  0  0  0  0  0
 -114.1569 -167.1815 -392.1396 H   0  0  0  0  0  0  0  0  0  0  0  0
 -115.2876 -167.0564 -395.2471 H   0  0  0  0  0  0  0  0  0  0  0  0
 -115.8674 -166.6398 -391.9042 H   0  0  0  0  0  0  0  0  0  0  0  0
 -117.8771 -168.2949 -393.5957 H   0  0  0  0  0  0  0  0  0  0  0  0
 -118.3746 -166.5138 -392.0253 H   0  0  0  0  0  0  0  0  0  0  0  0
 -119.3720 -169.0434 -394.1333 H   0  0  0  0  0  0  0  0  0  0  0  0
 -121.4610 -166.5447 -392.1402 H   0  0  0  0  0  0  0  0  0  0  0  0
 -122.1714 -166.5896 -394.8583 H   0  0  0  0  0  0  0  0  0  0  0  0
 -123.3041 -165.8604 -392.0406 H   0  0  0  0  0  0  0  0  0  0  0  0
 -125.4343 -166.3801 -394.5193 H   0  0  0  0  0  0  0  0  0  0  0  0
 -125.7502 -165.6009 -392.0622 H   0  0  0  0  0  0  0  0  0  0  0  0
 -127.7883 -166.6461 -393.8101 H   0  0  0  0  0  0  0  0  0  0  0  0
 -128.2466 -165.3290 -392.0940 H   0  0  0  0  0  0  0  0  0  0  0  0
 -130.3845 -166.0906 -393.6015 H   0  0  0  0  0  0  0  0  0  0  0  0
 -130.7410 -165.0750 -392.1194 H   0  0  0  0  0  0  0  0  0  0  0  0
 -132.4137 -166.8063 -393.6024 H   0  0  0  0  0  0  0  0  0  0  0  0
 -134.2744 -165.7545 -392.6261 H   0  0  0  0  0  0  0  0  0  0  0  0
 -136.0771 -165.7620 -392.2243 H   0  0  0  0  0  0  0  0  0  0  0  0
 -135.6730 -164.4704 -392.1311 H   0  0  0  0  0  0  0  0  0  0  0  0
 -137.5829 -165.5367 -394.2512 H   0  0  0  0  0  0  0  0  0  0  0  0
 -138.1681 -164.2439 -392.1828 H   0  0  0  0  0  0  0  0  0  0  0  0
 -140.4019 -164.8222 -393.5784 H   0  0  0  0  0  0  0  0  0  0  0  0
 -140.6457 -163.9692 -392.2126 H   0  0  0  0  0  0  0  0  0  0  0  0
 -142.0400 -164.4878 -395.0322 H   0  0  0  0  0  0  0  0  0  0  0  0
 -143.1249 -163.7145 -392.2417 H   0  0  0  0  0  0  0  0  0  0  0  0
 -144.5358 -163.8050 -395.1195 H   0  0  0  0  0  0  0  0  0  0  0  0
 -144.5426 -164.6473 -393.5204 H   0  0  0  0  0  0  0  0  0  0  0  0
 -148.2094 -165.3175 -393.5571 H   0  0  0  0  0  0  0  0  0  0  0  0
 -148.0337 -163.1761 -392.3035 H   0  0  0  0  0  0  0  0  0  0  0  0
 -149.4633 -163.4119 -395.1491 H   0  0  0  0  0  0  0  0  0  0  0  0
 -150.3997 -163.0348 -392.4359 H   0  0  0  0  0  0  0  0  0  0  0  0
 -151.8238 -162.6968 -395.0435 H   0  0  0  0  0  0  0  0  0  0  0  0
 -153.0553 -162.6383 -392.3562 H   0  0  0  0  0  0  0  0  0  0  0  0
 -155.3192 -163.6822 -393.8030 H   0  0  0  0  0  0  0  0  0  0  0  0
 -155.5610 -162.4640 -392.8812 H   0  0  0  0  0  0  0  0  0  0  0  0
 -156.7842 -161.9035 -395.2008 H   0  0  0  0  0  0  0  0  0  0  0  0
 -157.9741 -162.0289 -392.3451 H   0  0  0  0  0  0  0  0  0  0  0  0
 -158.1626 -163.1074 -394.4642 H   0  0  0  0  0  0  0  0  0  0  0  0
 -159.4574 -162.4121 -391.7090 H   0  0  0  0  0  0  0  0  0  0  0  0
 -162.0092 -162.4072 -395.3905 H   0  0  0  0  0  0  0  0  0  0  0  0
 -163.0408 -161.6984 -392.5709 H   0  0  0  0  0  0  0  0  0  0  0  0
 -164.8572 -162.8494 -395.3988 H   0  0  0  0  0  0  0  0  0  0  0  0
 -165.4308 -161.2733 -392.4770 H   0  0  0  0  0  0  0  0  0  0  0  0
 -167.7410 -162.0080 -394.5972 H   0  0  0  0  0  0  0  0  0  0  0  0
 -167.9159 -161.0507 -392.5265 H   0  0  0  0  0  0  0  0  0  0  0  0
 -170.1322 -160.5136 -391.6170 H   0  0  0  0  0  0  0  0  0  0  0  0
 -170.3322 -160.7782 -392.6693 H   0  0  0  0  0  0  0  0  0  0  0  0
 -169.5096 -161.2129 -391.8444 H   0  0  0  0  0  0  0  0  0  0  0  0
 -171.2971 -160.5855 -393.0584 H   0  0  0  0  0  0  0  0  0  0  0  0
 -167.8025 -161.0726 -394.2040 H   0  0  0  0  0  0  0  0  0  0  0  0
 -164.1333 -161.0043 -394.1140 H   0  0  0  0  0  0  0  0  0  0  0  0
 -159.6401 -161.3005 -394.1377 H   0  0  0  0  0  0  0  0  0  0  0  0
 -155.4467 -161.6158 -394.0088 H   0  0  0  0  0  0  0  0  0  0  0  0
 -150.3950 -162.1679 -393.9854 H   0  0  0  0  0  0  0  0  0  0  0  0
 -145.9039 -162.6751 -393.9337 H   0  0  0  0  0  0  0  0  0  0  0  0
 -140.2980 -163.1818 -393.9238 H   0  0  0  0  0  0  0  0  0  0  0  0
 -140.2879 -163.1061 -393.9330 H   0  0  0  0  0  0  0  0  0  0  0  0
 -130.8093 -164.1391 -393.5264 H   0  0  0  0  0  0  0  0  0  0  0  0
  1  2  1  0  0  0  0
  1 72  1  0  0  0  0
  1 73  1  0  0  0  0
  1 74  1  0  0  0  0
  2  3  1  0  0  0  0
  2 75  1  0  0  0  0
  2 76  1  0  0  0  0
  3  4  1  0  0  0  0
  3 71  1  0  0  0  0
  3 77  1  0  0  0  0
  4  5  2  3  0  0  0
  4 78  1  0  0  0  0
  5  6  1  0  0  0  0
  5 79  1  0  0  0  0
  6  7  2  3  0  0  0
  6 80  1  0  0  0  0
  7  8  1  0  0  0  0
  7 81  1  0  0  0  0
  8  9  2  3  0  0  0
  8 82  1  0  0  0  0
  9 10  1  0  0  0  0
  9 83  1  0  0  0  0
 10 11  2  3  0  0  0
 10 84  1  0  0  0  0
 11 12  1  0  0  0  0
 11 85  1  0  0  0  0
 12 13  2  3  0  0  0
 12 86  1  0  0  0  0
 13 14  1  0  0  0  0
 13 87  1  0  0  0  0
 14 15  2  3  0  0  0
 14 88  1  0  0  0  0
 15 16  1  0  0  0  0
 15 89  1  0  0  0  0
 16 17  2  3  0  0  0
 16 90  1  0  0  0  0
 17 18  1  0  0  0  0
 17 91  1  0  0  0  0
 18 19  2  3  0  0  0
 18 92  1  0  0  0  0
 19 20  1  0  0  0  0
 19 93  1  0  0  0  0
 20 21  2  3  0  0  0
 20 94  1  0  0  0  0
 21 22  1  0  0  0  0
 21 95  1  0  0  0  0
 22 23  2  3  0  0  0
 22 96  1  0  0  0  0
 23 24  1  0  0  0  0
 23 97  1  0  0  0  0
 24 25  2  3  0  0  0
 24 98  1  0  0  0  0
 25 26  1  0  0  0  0
 25 99  1  0  0  0  0
 26 27  2  3  0  0  0
 26100  1  0  0  0  0
 27 28  1  0  0  0  0
 27101  1  0  0  0  0
 28 29  2  3  0  0  0
 28102  1  0  0  0  0
 29 30  1  0  0  0  0
 29103  1  0  0  0  0
 30 31  2  3  0  0  0
 30104  1  0  0  0  0
 31 32  1  0  0  0  0
 31105  1  0  0  0  0
 32 33  2  3  0  0  0
 32106  1  0  0  0  0
 33 34  1  0  0  0  0
 33107  1  0  0  0  0
 34 35  2  3  0  0  0
 34108  1  0  0  0  0
 35 36  1  0  0  0  0
 35109  1  0  0  0  0
 36 37  2  3  0  0  0
 36110  1  0  0  0  0
 37 38  1  0  0  0  0
 37111  1  0  0  0  0
 38 39  2  3  0  0  0
 38112  1  0  0  0  0
 39 40  1  0  0  0  0
 39113  1  0  0  0  0
 40 41  2  3  0  0  0
 40114  1  0  0  0  0
 41 42  1  0  0  0  0
 41115  1  0  0  0  0
 42 43  2  3  0  0  0
 42116  1  0  0  0  0
 43 44  1  0  0  0  0
 43117  1  0  0  0  0
 44 45  2  3  0  0  0
 44118  1  0  0  0  0
 45 46  1  0  0  0  0
 45119  1  0  0  0  0
 46 47  2  3  0  0  0
 46120  1  0  0  0  0
 47 48  1  0  0  0  0
 47121  1  0  0  0  0
 48 49  2  3  0  0  0
 48122  1  0  0  0  0
 49 50  1  0  0  0  0
 49123  1  0  0  0  0
 50 51  2  3  0  0  0
 50124  1  0  0  0  0
 51 52  1  0  0  0  0
 51125  1  0  0  0  0
 52 53  2  3  0  0  0
 52126  1  0  0  0  0
 53 54  1  0  0  0  0
 53127  1  0  0  0  0
 54 55  2  3  0  0  0
 54128  1  0  0  0  0
 55 56  1  0  0  0  0
 55129  1  0  0  0  0
 56 57  2  3  0  0  0
 56130  1  0  0  0  0
 57 58  1  0  0  0  0
 57131  1  0  0  0  0
 58 59  2  3  0  0  0
 58132  1  0  0  0  0
 59 60  1  0  0  0  0
 59133  1  0  0  0  0
 60 61  2  3  0  0  0
 60134  1  0  0  0  0
 61 62  1  0  0  0  0
 61135  1  0  0  0  0
 62 63  2  3  0  0  0
 62136  1  0  0  0  0
 63 64  1  0  0  0  0
 63137  1  0  0  0  0
 64 65  2  3  0  0  0
 64138  1  0  0  0  0
 65 66  1  0  0  0  0
 65139  1  0  0  0  0
 66 67  2  3  0  0  0
 66140  1  0  0  0  0
 67 68  1  0  0  0  0
 67141  1  0  0  0  0
 68 69  2  3  0  0  0
 68142  1  0  0  0  0
 69 70  1  0  0  0  0
 69143  1  0  0  0  0
 70 71  1  0  0  0  0
 70144  1  0  0  0  0
 70145  1  0  0  0  0
 71146  1  0  0  0  0
M  END
$$$$
