
 OpenBabel04232216393D

 50 50  0  0  0  0  0  0  0  0999 V2000
   -1.9840   -1.6895    1.9750 C   0  0  0  0  0  0  0  0  0  0  0  0
   -1.2713   -2.5766    2.6904 C   0  0  0  0  0  0  0  0  0  0  0  0
   -2.1262   -3.7173    3.5638 C   0  0  0  0  0  0  0  0  0  0  0  0
   -3.3792   -3.6827    4.1793 C   0  0  0  0  0  0  0  0  0  0  0  0
   -4.3866   -4.5867    5.0077 C   0  0  0  0  0  0  0  0  0  0  0  0
   -4.4971   -5.4742    6.0633 C   0  0  0  0  0  0  0  0  0  0  0  0
   -3.5375   -6.2069    7.0012 C   0  0  0  0  0  0  0  0  0  0  0  0
   -2.2365   -5.7460    6.4477 C   0  0  0  0  0  0  0  0  0  0  0  0
   -0.9364   -6.1632    7.0065 C   0  0  0  0  0  0  0  0  0  0  0  0
   -0.0941   -5.3765    6.0508 C   0  0  0  0  0  0  0  0  0  0  0  0
    1.3748   -5.3858    6.2913 C   0  0  0  0  0  0  0  0  0  0  0  0
    1.7341   -4.3393    5.3195 C   0  0  0  0  0  0  0  0  0  0  0  0
    3.1683   -4.1903    4.9127 C   0  0  0  0  0  0  0  0  0  0  0  0
    2.8262   -3.3284    3.7430 C   0  0  0  0  0  0  0  0  0  0  0  0
    3.6424   -2.5977    2.8580 C   0  0  0  0  0  0  0  0  0  0  0  0
    3.0330   -1.8295    1.9350 C   0  0  0  0  0  0  0  0  0  0  0  0
    4.3053   -1.2767    1.1930 C   0  0  0  0  0  0  0  0  0  0  0  0
    4.7858   -0.2852    0.1476 C   0  0  0  0  0  0  0  0  0  0  0  0
    0.3347   -2.2879    2.6671 C   0  0  0  0  0  0  0  0  0  0  0  0
    1.3711   -1.8987    1.7587 C   0  0  0  0  0  0  0  0  0  0  0  0
   -3.0249   -1.8371    1.7123 H   0  0  0  0  0  0  0  0  0  0  0  0
   -1.5213   -0.7566    1.6547 H   0  0  0  0  0  0  0  0  0  0  0  0
   -1.5622   -4.6443    3.6233 H   0  0  0  0  0  0  0  0  0  0  0  0
   -3.9419   -2.7562    4.0249 H   0  0  0  0  0  0  0  0  0  0  0  0
   -5.4058   -4.3260    4.6895 H   0  0  0  0  0  0  0  0  0  0  0  0
   -5.5067   -5.7588    6.3901 H   0  0  0  0  0  0  0  0  0  0  0  0
   -3.6061   -7.2993    6.9280 H   0  0  0  0  0  0  0  0  0  0  0  0
   -3.6237   -5.9332    8.0570 H   0  0  0  0  0  0  0  0  0  0  0  0
   -2.2789   -4.6481    6.5270 H   0  0  0  0  0  0  0  0  0  0  0  0
   -2.2629   -6.0380    5.3982 H   0  0  0  0  0  0  0  0  0  0  0  0
   -0.7268   -7.2261    6.8959 H   0  0  0  0  0  0  0  0  0  0  0  0
   -0.7624   -5.8260    8.0304 H   0  0  0  0  0  0  0  0  0  0  0  0
   -0.4461   -4.3264    6.0458 H   0  0  0  0  0  0  0  0  0  0  0  0
   -0.2900   -5.7503    5.0303 H   0  0  0  0  0  0  0  0  0  0  0  0
    1.8030   -6.3523    6.0287 H   0  0  0  0  0  0  0  0  0  0  0  0
    1.6379   -5.0740    7.2998 H   0  0  0  0  0  0  0  0  0  0  0  0
    1.3322   -3.3635    5.6658 H   0  0  0  0  0  0  0  0  0  0  0  0
    1.1479   -4.5680    4.4078 H   0  0  0  0  0  0  0  0  0  0  0  0
    3.6238   -5.1360    4.6012 H   0  0  0  0  0  0  0  0  0  0  0  0
    3.7662   -3.6910    5.6662 H   0  0  0  0  0  0  0  0  0  0  0  0
    2.3398   -2.4711    4.2214 H   0  0  0  0  0  0  0  0  0  0  0  0
    2.2180   -3.9361    3.0633 H   0  0  0  0  0  0  0  0  0  0  0  0
    4.7226   -2.6916    3.0165 H   0  0  0  0  0  0  0  0  0  0  0  0
    4.8533   -2.1899    0.8825 H   0  0  0  0  0  0  0  0  0  0  0  0
    4.9010   -0.8742    2.0456 H   0  0  0  0  0  0  0  0  0  0  0  0
    4.6435   -0.6418   -0.8743 H   0  0  0  0  0  0  0  0  0  0  0  0
    5.8913   -0.2301    0.2633 H   0  0  0  0  0  0  0  0  0  0  0  0
    4.4333    0.7306    0.2996 H   0  0  0  0  0  0  0  0  0  0  0  0
    0.5730   -2.4381    3.7070 H   0  0  0  0  0  0  0  0  0  0  0  0
    1.1055   -1.7070    0.7180 H   0  0  0  0  0  0  0  0  0  0  0  0
  1  2  2  0  0  0  0
  1 21  1  0  0  0  0
  1 22  1  0  0  0  0
  2  3  1  0  0  0  0
  2 19  1  0  0  0  0
  3  4  2  3  0  0  0
  3 23  1  0  0  0  0
  4  5  1  0  0  0  0
  4 24  1  0  0  0  0
  5  6  2  3  0  0  0
  5 25  1  0  0  0  0
  6  7  1  0  0  0  0
  6 26  1  0  0  0  0
  7  8  1  0  0  0  0
  7 27  1  0  0  0  0
  7 28  1  0  0  0  0
  8  9  1  0  0  0  0
  8 29  1  0  0  0  0
  8 30  1  0  0  0  0
  9 10  1  0  0  0  0
  9 31  1  0  0  0  0
  9 32  1  0  0  0  0
 10 11  1  0  0  0  0
 10 33  1  0  0  0  0
 10 34  1  0  0  0  0
 11 12  1  0  0  0  0
 11 35  1  0  0  0  0
 11 36  1  0  0  0  0
 12 13  1  0  0  0  0
 12 37  1  0  0  0  0
 12 38  1  0  0  0  0
 13 14  1  0  0  0  0
 13 39  1  0  0  0  0
 13 40  1  0  0  0  0
 14 15  1  0  0  0  0
 14 41  1  0  0  0  0
 14 42  1  0  0  0  0
 15 16  2  3  0  0  0
 15 43  1  0  0  0  0
 16 17  1  0  0  0  0
 16 20  1  0  0  0  0
 17 18  1  0  0  0  0
 17 44  1  0  0  0  0
 17 45  1  0  0  0  0
 18 46  1  0  0  0  0
 18 47  1  0  0  0  0
 18 48  1  0  0  0  0
 19 20  2  3  0  0  0
 19 49  1  0  0  0  0
 20 50  1  0  0  0  0
M  END
$$$$
