
 OpenBabel04232216593D

185184  0  0  0  0  0  0  0  0999 V2000
    1.8872   -2.3919   -2.8528 O   0  0  0  0  0  0  0  0  0  0  0  0
    2.7257   -2.7315   -2.0284 C   0  0  0  0  0  0  0  0  0  0  0  0
    3.1267   -1.8639   -0.8668 C   0  0  0  0  0  0  0  0  0  0  0  0
    4.5961   -1.6073   -0.9133 C   0  0  0  0  0  0  0  0  0  0  0  0
    5.4110   -1.9623    0.0955 C   0  0  0  0  0  0  0  0  0  0  0  0
    6.8791   -1.7098    0.0645 C   0  0  0  0  0  0  0  0  0  0  0  0
    7.6552   -3.0179    0.1594 C   0  0  0  0  0  0  0  0  0  0  0  0
    9.1527   -2.7479    0.1313 C   0  0  0  0  0  0  0  0  0  0  0  0
    9.9205   -4.0555    0.2241 C   0  0  0  0  0  0  0  0  0  0  0  0
   11.4144   -3.7867    0.1961 C   0  0  0  0  0  0  0  0  0  0  0  0
   12.1779   -5.0950    0.2890 C   0  0  0  0  0  0  0  0  0  0  0  0
   13.6705   -4.8245    0.2629 C   0  0  0  0  0  0  0  0  0  0  0  0
   14.4335   -6.1322    0.3558 C   0  0  0  0  0  0  0  0  0  0  0  0
   15.9256   -5.8610    0.3297 C   0  0  0  0  0  0  0  0  0  0  0  0
   16.6881   -7.1687    0.4226 C   0  0  0  0  0  0  0  0  0  0  0  0
   18.1801   -6.8975    0.3964 C   0  0  0  0  0  0  0  0  0  0  0  0
   18.9426   -8.2052    0.4893 C   0  0  0  0  0  0  0  0  0  0  0  0
   20.4346   -7.9339    0.4632 C   0  0  0  0  0  0  0  0  0  0  0  0
   21.1971   -9.2416    0.5560 C   0  0  0  0  0  0  0  0  0  0  0  0
   22.6890   -8.9702    0.5319 C   0  0  0  0  0  0  0  0  0  0  0  0
   23.4514  -10.2779    0.6248 C   0  0  0  0  0  0  0  0  0  0  0  0
   24.9434  -10.0065    0.6007 C   0  0  0  0  0  0  0  0  0  0  0  0
   25.7058  -11.3142    0.6935 C   0  0  0  0  0  0  0  0  0  0  0  0
   27.1978  -11.0429    0.6694 C   0  0  0  0  0  0  0  0  0  0  0  0
   27.9602  -12.3506    0.7623 C   0  0  0  0  0  0  0  0  0  0  0  0
   29.4522  -12.0792    0.7382 C   0  0  0  0  0  0  0  0  0  0  0  0
   30.2147  -13.3869    0.8310 C   0  0  0  0  0  0  0  0  0  0  0  0
   31.7066  -13.1154    0.8089 C   0  0  0  0  0  0  0  0  0  0  0  0
   32.4691  -14.4232    0.8998 C   0  0  0  0  0  0  0  0  0  0  0  0
   33.9610  -14.1516    0.8797 C   0  0  0  0  0  0  0  0  0  0  0  0
   34.7235  -15.4596    0.9685 C   0  0  0  0  0  0  0  0  0  0  0  0
   36.2154  -15.1878    0.9504 C   0  0  0  0  0  0  0  0  0  0  0  0
   36.9779  -16.4959    1.0373 C   0  0  0  0  0  0  0  0  0  0  0  0
   38.4698  -16.2241    1.0192 C   0  0  0  0  0  0  0  0  0  0  0  0
   39.2323  -17.5322    1.1060 C   0  0  0  0  0  0  0  0  0  0  0  0
   40.7242  -17.2603    1.0899 C   0  0  0  0  0  0  0  0  0  0  0  0
   41.4867  -18.5685    1.1748 C   0  0  0  0  0  0  0  0  0  0  0  0
   42.9786  -18.2967    1.1567 C   0  0  0  0  0  0  0  0  0  0  0  0
   43.7411  -19.6049    1.2435 C   0  0  0  0  0  0  0  0  0  0  0  0
   45.2330  -19.3329    1.2274 C   0  0  0  0  0  0  0  0  0  0  0  0
   45.9954  -20.6412    1.3123 C   0  0  0  0  0  0  0  0  0  0  0  0
   47.4873  -20.3693    1.2942 C   0  0  0  0  0  0  0  0  0  0  0  0
   48.2497  -21.6776    1.3790 C   0  0  0  0  0  0  0  0  0  0  0  0
   49.7416  -21.4057    1.3610 C   0  0  0  0  0  0  0  0  0  0  0  0
   50.5041  -22.7139    1.4457 C   0  0  0  0  0  0  0  0  0  0  0  0
   51.9958  -22.4420    1.4277 C   0  0  0  0  0  0  0  0  0  0  0  0
   52.7579  -23.7501    1.5125 C   0  0  0  0  0  0  0  0  0  0  0  0
   54.2490  -23.4778    1.4924 C   0  0  0  0  0  0  0  0  0  0  0  0
   55.0098  -24.7853    1.5791 C   0  0  0  0  0  0  0  0  0  0  0  0
   56.4989  -24.5108    1.5589 C   0  0  0  0  0  0  0  0  0  0  0  0
   57.2540  -25.8178    1.6456 C   0  0  0  0  0  0  0  0  0  0  0  0
   58.7374  -25.5406    1.6252 C   0  0  0  0  0  0  0  0  0  0  0  0
   59.4729  -26.8504    1.7122 C   0  0  0  0  0  0  0  0  0  0  0  0
   60.9407  -26.5650    1.6912 C   0  0  0  0  0  0  0  0  0  0  0  0
   61.6531  -27.8633    1.7774 C   0  0  0  0  0  0  0  0  0  0  0  0
   62.9858  -27.4679    1.7474 O   0  0  0  0  0  0  0  0  0  0  0  0
   63.6437  -28.7001    1.8311 O   0  0  0  0  0  0  0  0  0  0  0  0
   65.0028  -28.4301    1.8078 O   0  0  0  0  0  0  0  0  0  0  0  0
   65.6554  -29.6530    1.8929 O   0  0  0  0  0  0  0  0  0  0  0  0
   67.0050  -29.3662    1.8660 O   0  0  0  0  0  0  0  0  0  0  0  0
   67.6569  -30.5792    1.9527 O   0  0  0  0  0  0  0  0  0  0  0  0
   69.0051  -30.2852    1.9277 O   0  0  0  0  0  0  0  0  0  0  0  0
   69.6431  -31.4945    2.0111 O   0  0  0  0  0  0  0  0  0  0  0  0
   70.9868  -31.2010    1.9886 O   0  0  0  0  0  0  0  0  0  0  0  0
   71.6292  -32.4118    2.0751 O   0  0  0  0  0  0  0  0  0  0  0  0
   72.9661  -32.1092    2.0490 O   0  0  0  0  0  0  0  0  0  0  0  0
   73.6077  -33.3126    2.1327 O   0  0  0  0  0  0  0  0  0  0  0  0
   74.9464  -33.0081    2.1093 O   0  0  0  0  0  0  0  0  0  0  0  0
   75.5769  -34.2105    2.1906 O   0  0  0  0  0  0  0  0  0  0  0  0
   76.9228  -33.9171    2.1651 O   0  0  0  0  0  0  0  0  0  0  0  0
   77.5562  -35.1254    2.2497 O   0  0  0  0  0  0  0  0  0  0  0  0
   78.8957  -34.8865    2.2310 O   0  0  0  0  0  0  0  0  0  0  0  0
   79.5638  -36.0526    2.3091 O   0  0  0  0  0  0  0  0  0  0  0  0
   80.9158  -35.7609    2.2886 O   0  0  0  0  0  0  0  0  0  0  0  0
   81.5866  -36.9867    2.3746 O   0  0  0  0  0  0  0  0  0  0  0  0
   82.9492  -36.7235    2.3357 O   0  0  0  0  0  0  0  0  0  0  0  0
   83.6310  -37.9685    2.4121 O   0  0  0  0  0  0  0  0  0  0  0  0
   85.0251  -37.6905    2.4203 O   0  0  0  0  0  0  0  0  0  0  0  0
   85.3458  -36.8407    3.5515 O   0  0  0  0  0  0  0  0  0  0  0  0
    3.1640   -3.7343   -2.0660 H   0  0  0  0  0  0  0  0  0  0  0  0
    2.8421   -2.3734    0.0627 H   0  0  0  0  0  0  0  0  0  0  0  0
    2.5789   -0.9180   -0.9265 H   0  0  0  0  0  0  0  0  0  0  0  0
    5.0092   -1.1049   -1.7808 H   0  0  0  0  0  0  0  0  0  0  0  0
    4.9906   -2.4556    0.9654 H   0  0  0  0  0  0  0  0  0  0  0  0
    7.1546   -1.0578    0.9031 H   0  0  0  0  0  0  0  0  0  0  0  0
    7.1617   -1.1885   -0.8565 H   0  0  0  0  0  0  0  0  0  0  0  0
    7.3853   -3.6765   -0.6759 H   0  0  0  0  0  0  0  0  0  0  0  0
    7.3952   -3.5461    1.0853 H   0  0  0  0  0  0  0  0  0  0  0  0
    9.4320   -2.0938    0.9668 H   0  0  0  0  0  0  0  0  0  0  0  0
    9.4226   -2.2244   -0.7945 H   0  0  0  0  0  0  0  0  0  0  0  0
    9.6452   -4.7110   -0.6113 H   0  0  0  0  0  0  0  0  0  0  0  0
    9.6547   -4.5805    1.1499 H   0  0  0  0  0  0  0  0  0  0  0  0
   11.6927   -3.1328    1.0318 H   0  0  0  0  0  0  0  0  0  0  0  0
   11.6833   -3.2633   -0.7297 H   0  0  0  0  0  0  0  0  0  0  0  0
   11.9024   -5.7493   -0.5473 H   0  0  0  0  0  0  0  0  0  0  0  0
   11.9098   -5.6200    1.2142 H   0  0  0  0  0  0  0  0  0  0  0  0
   13.9468   -4.1706    1.0993 H   0  0  0  0  0  0  0  0  0  0  0  0
   13.9394   -4.3000   -0.6622 H   0  0  0  0  0  0  0  0  0  0  0  0
   14.1578   -6.7862   -0.4806 H   0  0  0  0  0  0  0  0  0  0  0  0
   14.1651   -6.6569    1.2810 H   0  0  0  0  0  0  0  0  0  0  0  0
   16.2015   -5.2071    1.1662 H   0  0  0  0  0  0  0  0  0  0  0  0
   16.1943   -5.3362   -0.5954 H   0  0  0  0  0  0  0  0  0  0  0  0
   16.4122   -7.8228   -0.4137 H   0  0  0  0  0  0  0  0  0  0  0  0
   16.4196   -7.6932    1.3478 H   0  0  0  0  0  0  0  0  0  0  0  0
   18.4560   -6.2435    1.2328 H   0  0  0  0  0  0  0  0  0  0  0  0
   18.4487   -6.3728   -0.5288 H   0  0  0  0  0  0  0  0  0  0  0  0
   18.6667   -8.8592   -0.3471 H   0  0  0  0  0  0  0  0  0  0  0  0
   18.6741   -8.7298    1.4145 H   0  0  0  0  0  0  0  0  0  0  0  0
   20.7104   -7.2799    1.2995 H   0  0  0  0  0  0  0  0  0  0  0  0
   20.7032   -7.4093   -0.4620 H   0  0  0  0  0  0  0  0  0  0  0  0
   20.9222   -9.8950   -0.2811 H   0  0  0  0  0  0  0  0  0  0  0  0
   20.9274   -9.7669    1.4805 H   0  0  0  0  0  0  0  0  0  0  0  0
   22.9638   -8.3168    1.3691 H   0  0  0  0  0  0  0  0  0  0  0  0
   22.9586   -8.4449   -0.3926 H   0  0  0  0  0  0  0  0  0  0  0  0
   23.1766  -10.9313   -0.2124 H   0  0  0  0  0  0  0  0  0  0  0  0
   23.1818  -10.8032    1.5493 H   0  0  0  0  0  0  0  0  0  0  0  0
   25.2182   -9.3531    1.4379 H   0  0  0  0  0  0  0  0  0  0  0  0
   25.2131   -9.4812   -0.3238 H   0  0  0  0  0  0  0  0  0  0  0  0
   25.4310  -11.9677   -0.1437 H   0  0  0  0  0  0  0  0  0  0  0  0
   25.4362  -11.8396    1.6180 H   0  0  0  0  0  0  0  0  0  0  0  0
   27.4726  -10.3895    1.5066 H   0  0  0  0  0  0  0  0  0  0  0  0
   27.4675  -10.5176   -0.2551 H   0  0  0  0  0  0  0  0  0  0  0  0
   27.6854  -13.0040   -0.0749 H   0  0  0  0  0  0  0  0  0  0  0  0
   27.6906  -12.8759    1.6868 H   0  0  0  0  0  0  0  0  0  0  0  0
   29.7270  -11.4258    1.5754 H   0  0  0  0  0  0  0  0  0  0  0  0
   29.7219  -11.5539   -0.1863 H   0  0  0  0  0  0  0  0  0  0  0  0
   29.9408  -14.0397   -0.0070 H   0  0  0  0  0  0  0  0  0  0  0  0
   29.9439  -13.9129    1.7548 H   0  0  0  0  0  0  0  0  0  0  0  0
   31.9805  -12.4637    1.6478 H   0  0  0  0  0  0  0  0  0  0  0  0
   31.9772  -12.5881   -0.1142 H   0  0  0  0  0  0  0  0  0  0  0  0
   32.1961  -15.0743    0.0602 H   0  0  0  0  0  0  0  0  0  0  0  0
   32.1975  -14.9512    1.8222 H   0  0  0  0  0  0  0  0  0  0  0  0
   34.2341  -13.5016    1.7201 H   0  0  0  0  0  0  0  0  0  0  0  0
   34.2324  -13.6224   -0.0421 H   0  0  0  0  0  0  0  0  0  0  0  0
   34.4514  -16.1089    0.1273 H   0  0  0  0  0  0  0  0  0  0  0  0
   34.4510  -15.9895    1.8896 H   0  0  0  0  0  0  0  0  0  0  0  0
   36.4877  -14.5396    1.7925 H   0  0  0  0  0  0  0  0  0  0  0  0
   36.4877  -14.6566    0.0301 H   0  0  0  0  0  0  0  0  0  0  0  0
   36.7056  -17.1441    0.1952 H   0  0  0  0  0  0  0  0  0  0  0  0
   36.7056  -17.0271    1.9577 H   0  0  0  0  0  0  0  0  0  0  0  0
   38.7421  -15.5759    1.8613 H   0  0  0  0  0  0  0  0  0  0  0  0
   38.7421  -15.6929    0.0988 H   0  0  0  0  0  0  0  0  0  0  0  0
   38.9610  -18.1798    0.2631 H   0  0  0  0  0  0  0  0  0  0  0  0
   38.9590  -18.0641    2.0257 H   0  0  0  0  0  0  0  0  0  0  0  0
   40.9956  -16.6139    1.9336 H   0  0  0  0  0  0  0  0  0  0  0  0
   40.9973  -16.7272    0.1709 H   0  0  0  0  0  0  0  0  0  0  0  0
   41.2142  -19.2156    0.3319 H   0  0  0  0  0  0  0  0  0  0  0  0
   41.2146  -19.1010    2.0945 H   0  0  0  0  0  0  0  0  0  0  0  0
   43.2509  -17.6486    1.9988 H   0  0  0  0  0  0  0  0  0  0  0  0
   43.2509  -17.7655    0.2364 H   0  0  0  0  0  0  0  0  0  0  0  0
   43.4698  -20.2524    0.4006 H   0  0  0  0  0  0  0  0  0  0  0  0
   43.4678  -20.1368    2.1632 H   0  0  0  0  0  0  0  0  0  0  0  0
   45.5044  -18.6865    2.0711 H   0  0  0  0  0  0  0  0  0  0  0  0
   45.5061  -18.7998    0.3084 H   0  0  0  0  0  0  0  0  0  0  0  0
   45.7230  -21.2882    0.4693 H   0  0  0  0  0  0  0  0  0  0  0  0
   45.7233  -21.1736    2.2320 H   0  0  0  0  0  0  0  0  0  0  0  0
   47.7598  -19.7223    2.1371 H   0  0  0  0  0  0  0  0  0  0  0  0
   47.7594  -19.8369    0.3745 H   0  0  0  0  0  0  0  0  0  0  0  0
   47.9772  -22.3246    0.5361 H   0  0  0  0  0  0  0  0  0  0  0  0
   47.9777  -22.2101    2.2987 H   0  0  0  0  0  0  0  0  0  0  0  0
   50.0141  -20.7587    2.2039 H   0  0  0  0  0  0  0  0  0  0  0  0
   50.0136  -20.8732    0.4413 H   0  0  0  0  0  0  0  0  0  0  0  0
   50.2317  -23.3609    0.6028 H   0  0  0  0  0  0  0  0  0  0  0  0
   50.2321  -23.2465    2.3654 H   0  0  0  0  0  0  0  0  0  0  0  0
   52.2685  -21.7951    2.2706 H   0  0  0  0  0  0  0  0  0  0  0  0
   52.2680  -21.9096    0.5080 H   0  0  0  0  0  0  0  0  0  0  0  0
   52.4848  -24.3979    0.6703 H   0  0  0  0  0  0  0  0  0  0  0  0
   52.4873  -24.2821    2.4329 H   0  0  0  0  0  0  0  0  0  0  0  0
   54.5233  -22.8295    2.3338 H   0  0  0  0  0  0  0  0  0  0  0  0
   54.5211  -22.9477    0.5713 H   0  0  0  0  0  0  0  0  0  0  0  0
   54.7383  -25.4350    0.7379 H   0  0  0  0  0  0  0  0  0  0  0  0
   54.7404  -25.3167    2.5003 H   0  0  0  0  0  0  0  0  0  0  0  0
   56.7752  -23.8637    2.4005 H   0  0  0  0  0  0  0  0  0  0  0  0
   56.7730  -23.9819    0.6378 H   0  0  0  0  0  0  0  0  0  0  0  0
   56.9857  -26.4687    0.8043 H   0  0  0  0  0  0  0  0  0  0  0  0
   56.9879  -26.3504    2.5671 H   0  0  0  0  0  0  0  0  0  0  0  0
   59.0206  -24.8966    2.4672 H   0  0  0  0  0  0  0  0  0  0  0  0
   59.0184  -25.0149    0.7041 H   0  0  0  0  0  0  0  0  0  0  0  0
   59.2113  -27.5029    0.8700 H   0  0  0  0  0  0  0  0  0  0  0  0
   59.2135  -27.3845    2.6346 H   0  0  0  0  0  0  0  0  0  0  0  0
   61.2476  -25.9217    2.5267 H   0  0  0  0  0  0  0  0  0  0  0  0
   61.2454  -26.0391    0.7766 H   0  0  0  0  0  0  0  0  0  0  0  0
   61.4463  -28.5222    0.9249 H   0  0  0  0  0  0  0  0  0  0  0  0
   61.4505  -28.4011    2.7121 H   0  0  0  0  0  0  0  0  0  0  0  0
   86.2784  -36.7882    3.3381 H   0  0  0  0  0  0  0  0  0  0  0  0
  1  2  2  0  0  0  0
  2  3  1  0  0  0  0
  2 80  1  0  0  0  0
  3  4  1  0  0  0  0
  3 81  1  0  0  0  0
  3 82  1  0  0  0  0
  4  5  2  3  0  0  0
  4 83  1  0  0  0  0
  5  6  1  0  0  0  0
  5 84  1  0  0  0  0
  6  7  1  0  0  0  0
  6 85  1  0  0  0  0
  6 86  1  0  0  0  0
  7  8  1  0  0  0  0
  7 87  1  0  0  0  0
  7 88  1  0  0  0  0
  8  9  1  0  0  0  0
  8 89  1  0  0  0  0
  8 90  1  0  0  0  0
  9 10  1  0  0  0  0
  9 91  1  0  0  0  0
  9 92  1  0  0  0  0
 10 11  1  0  0  0  0
 10 93  1  0  0  0  0
 10 94  1  0  0  0  0
 11 12  1  0  0  0  0
 11 95  1  0  0  0  0
 11 96  1  0  0  0  0
 12 13  1  0  0  0  0
 12 97  1  0  0  0  0
 12 98  1  0  0  0  0
 13 14  1  0  0  0  0
 13 99  1  0  0  0  0
 13100  1  0  0  0  0
 14 15  1  0  0  0  0
 14101  1  0  0  0  0
 14102  1  0  0  0  0
 15 16  1  0  0  0  0
 15103  1  0  0  0  0
 15104  1  0  0  0  0
 16 17  1  0  0  0  0
 16105  1  0  0  0  0
 16106  1  0  0  0  0
 17 18  1  0  0  0  0
 17107  1  0  0  0  0
 17108  1  0  0  0  0
 18 19  1  0  0  0  0
 18109  1  0  0  0  0
 18110  1  0  0  0  0
 19 20  1  0  0  0  0
 19111  1  0  0  0  0
 19112  1  0  0  0  0
 20 21  1  0  0  0  0
 20113  1  0  0  0  0
 20114  1  0  0  0  0
 21 22  1  0  0  0  0
 21115  1  0  0  0  0
 21116  1  0  0  0  0
 22 23  1  0  0  0  0
 22117  1  0  0  0  0
 22118  1  0  0  0  0
 23 24  1  0  0  0  0
 23119  1  0  0  0  0
 23120  1  0  0  0  0
 24 25  1  0  0  0  0
 24121  1  0  0  0  0
 24122  1  0  0  0  0
 25 26  1  0  0  0  0
 25123  1  0  0  0  0
 25124  1  0  0  0  0
 26 27  1  0  0  0  0
 26125  1  0  0  0  0
 26126  1  0  0  0  0
 27 28  1  0  0  0  0
 27127  1  0  0  0  0
 27128  1  0  0  0  0
 28 29  1  0  0  0  0
 28129  1  0  0  0  0
 28130  1  0  0  0  0
 29 30  1  0  0  0  0
 29131  1  0  0  0  0
 29132  1  0  0  0  0
 30 31  1  0  0  0  0
 30133  1  0  0  0  0
 30134  1  0  0  0  0
 31 32  1  0  0  0  0
 31135  1  0  0  0  0
 31136  1  0  0  0  0
 32 33  1  0  0  0  0
 32137  1  0  0  0  0
 32138  1  0  0  0  0
 33 34  1  0  0  0  0
 33139  1  0  0  0  0
 33140  1  0  0  0  0
 34 35  1  0  0  0  0
 34141  1  0  0  0  0
 34142  1  0  0  0  0
 35 36  1  0  0  0  0
 35143  1  0  0  0  0
 35144  1  0  0  0  0
 36 37  1  0  0  0  0
 36145  1  0  0  0  0
 36146  1  0  0  0  0
 37 38  1  0  0  0  0
 37147  1  0  0  0  0
 37148  1  0  0  0  0
 38 39  1  0  0  0  0
 38149  1  0  0  0  0
 38150  1  0  0  0  0
 39 40  1  0  0  0  0
 39151  1  0  0  0  0
 39152  1  0  0  0  0
 40 41  1  0  0  0  0
 40153  1  0  0  0  0
 40154  1  0  0  0  0
 41 42  1  0  0  0  0
 41155  1  0  0  0  0
 41156  1  0  0  0  0
 42 43  1  0  0  0  0
 42157  1  0  0  0  0
 42158  1  0  0  0  0
 43 44  1  0  0  0  0
 43159  1  0  0  0  0
 43160  1  0  0  0  0
 44 45  1  0  0  0  0
 44161  1  0  0  0  0
 44162  1  0  0  0  0
 45 46  1  0  0  0  0
 45163  1  0  0  0  0
 45164  1  0  0  0  0
 46 47  1  0  0  0  0
 46165  1  0  0  0  0
 46166  1  0  0  0  0
 47 48  1  0  0  0  0
 47167  1  0  0  0  0
 47168  1  0  0  0  0
 48 49  1  0  0  0  0
 48169  1  0  0  0  0
 48170  1  0  0  0  0
 49 50  1  0  0  0  0
 49171  1  0  0  0  0
 49172  1  0  0  0  0
 50 51  1  0  0  0  0
 50173  1  0  0  0  0
 50174  1  0  0  0  0
 51 52  1  0  0  0  0
 51175  1  0  0  0  0
 51176  1  0  0  0  0
 52 53  1  0  0  0  0
 52177  1  0  0  0  0
 52178  1  0  0  0  0
 53 54  1  0  0  0  0
 53179  1  0  0  0  0
 53180  1  0  0  0  0
 54 55  1  0  0  0  0
 54181  1  0  0  0  0
 54182  1  0  0  0  0
 55 56  1  0  0  0  0
 55183  1  0  0  0  0
 55184  1  0  0  0  0
 56 57  1  0  0  0  0
 57 58  1  0  0  0  0
 58 59  1  0  0  0  0
 59 60  1  0  0  0  0
 60 61  1  0  0  0  0
 61 62  1  0  0  0  0
 62 63  1  0  0  0  0
 63 64  1  0  0  0  0
 64 65  1  0  0  0  0
 65 66  1  0  0  0  0
 66 67  1  0  0  0  0
 67 68  1  0  0  0  0
 68 69  1  0  0  0  0
 69 70  1  0  0  0  0
 70 71  1  0  0  0  0
 71 72  1  0  0  0  0
 72 73  1  0  0  0  0
 73 74  1  0  0  0  0
 74 75  1  0  0  0  0
 75 76  1  0  0  0  0
 76 77  1  0  0  0  0
 77 78  1  0  0  0  0
 78 79  1  0  0  0  0
 79185  1  0  0  0  0
M  END
$$$$
