
 OpenBabel04232216573D

 11 10  0  0  0  0  0  0  0  0999 V2000
    3.7469    1.7777   -0.5129 C   0  0  0  0  0  0  0  0  0  0  0  0
    3.3102    0.1559    0.1646 S   0  0  0  0  0  0  0  0  0  0  0  0
    3.7679   -1.0919   -1.4000 S   0  0  0  0  0  0  0  0  0  0  0  0
    5.8257   -1.1323   -1.4856 S   0  0  0  0  0  0  0  0  0  0  0  0
    6.4174   -2.1253    0.2039 S   0  0  0  0  0  0  0  0  0  0  0  0
    8.4653   -2.1361    0.1668 S   0  0  0  0  0  0  0  0  0  0  0  0
    9.0604   -0.2786    0.7956 S   0  0  0  0  0  0  0  0  0  0  0  0
    3.4592    2.5476    0.2228 H   0  0  0  0  0  0  0  0  0  0  0  0
    3.2098    1.9751   -1.4379 H   0  0  0  0  0  0  0  0  0  0  0  0
    4.8191    1.8518   -0.6769 H   0  0  0  0  0  0  0  0  0  0  0  0
    9.2762    0.3011   -0.3964 H   0  0  0  0  0  0  0  0  0  0  0  0
  1  2  1  0  0  0  0
  1  8  1  0  0  0  0
  1  9  1  0  0  0  0
  1 10  1  0  0  0  0
  2  3  1  0  0  0  0
  3  4  1  0  0  0  0
  4  5  1  0  0  0  0
  5  6  1  0  0  0  0
  6  7  1  0  0  0  0
  7 11  1  0  0  0  0
M  END
$$$$
