
 OpenBabel04232216393D

 48 50  0  0  0  0  0  0  0  0999 V2000
    1.7235   -1.1591   -0.2086 C   0  0  0  0  0  0  0  0  0  0  0  0
    3.0329   -1.5028   -0.2419 C   0  0  0  0  0  0  0  0  0  0  0  0
    3.7073   -1.3637    1.0529 C   0  0  0  0  0  0  0  0  0  0  0  0
    4.8101   -0.6176    1.2209 C   0  0  0  0  0  0  0  0  0  0  0  0
    5.5174   -0.3088    2.4650 C   0  0  0  0  0  0  0  0  0  0  0  0
    4.6257   -0.2721    3.7031 C   0  0  0  0  0  0  0  0  0  0  0  0
    6.8552   -0.0102    2.5208 C   0  0  0  0  0  0  0  0  0  0  0  0
    7.8431    0.1754    1.3489 C   0  0  0  0  0  0  0  0  0  0  0  0
    7.2588    1.2726    0.0429 S   0  0  0  0  0  0  0  0  0  0  0  0
    7.9216    0.6771   -1.4773 C   0  0  0  0  0  0  0  0  0  0  0  0
    8.3753    1.6350   -2.1940 N   0  0  0  0  0  0  0  0  0  0  0  0
    8.7216    1.3885   -3.4825 C   0  0  0  0  0  0  0  0  0  0  0  0
    8.7266    0.2374   -4.0454 N   0  0  0  0  0  0  0  0  0  0  0  0
    8.3597   -0.9650   -3.3012 C   0  0  0  0  0  0  0  0  0  0  0  0
    7.8008   -0.7390   -1.9405 C   0  0  0  0  0  0  0  0  0  0  0  0
    7.1839   -1.6880   -1.2203 C   0  0  0  0  0  0  0  0  0  0  0  0
    6.9030   -3.0841   -1.4584 C   0  0  0  0  0  0  0  0  0  0  0  0
    5.6319   -3.5383   -1.3694 C   0  0  0  0  0  0  0  0  0  0  0  0
    4.5977   -2.7012   -1.9351 C   0  0  0  0  0  0  0  0  0  0  0  0
    3.6242   -1.8473   -1.5583 C   0  0  0  0  0  0  0  0  0  0  0  0
    3.0790   -1.0432   -2.7365 C   0  0  0  0  0  0  0  0  0  0  0  0
    7.4434   -0.0287    3.8396 C   0  0  0  0  0  0  0  0  0  0  0  0
    7.9554   -1.1246    4.5299 C   0  0  0  0  0  0  0  0  0  0  0  0
    8.4971   -0.6547    5.7466 C   0  0  0  0  0  0  0  0  0  0  0  0
    8.2852    0.7005    5.7499 C   0  0  0  0  0  0  0  0  0  0  0  0
    7.6620    1.0890    4.6098 O   0  0  0  0  0  0  0  0  0  0  0  0
    1.2395   -0.8081    0.6984 H   0  0  0  0  0  0  0  0  0  0  0  0
    1.0877   -1.1786   -1.0894 H   0  0  0  0  0  0  0  0  0  0  0  0
    3.1910   -1.7909    1.9101 H   0  0  0  0  0  0  0  0  0  0  0  0
    5.2023   -0.1978    0.3054 H   0  0  0  0  0  0  0  0  0  0  0  0
    3.6149    0.0779    3.4560 H   0  0  0  0  0  0  0  0  0  0  0  0
    4.9850    0.4429    4.4539 H   0  0  0  0  0  0  0  0  0  0  0  0
    4.5482   -1.2589    4.1688 H   0  0  0  0  0  0  0  0  0  0  0  0
    8.2033   -0.8009    1.0173 H   0  0  0  0  0  0  0  0  0  0  0  0
    8.7345    0.6801    1.7382 H   0  0  0  0  0  0  0  0  0  0  0  0
    8.9964    2.2699   -4.0928 H   0  0  0  0  0  0  0  0  0  0  0  0
    9.2501   -1.5978   -3.2457 H   0  0  0  0  0  0  0  0  0  0  0  0
    7.6223   -1.5076   -3.9148 H   0  0  0  0  0  0  0  0  0  0  0  0
    6.7507   -1.4373   -0.2694 H   0  0  0  0  0  0  0  0  0  0  0  0
    7.7431   -3.7761   -1.5021 H   0  0  0  0  0  0  0  0  0  0  0  0
    5.4467   -4.6111   -1.3915 H   0  0  0  0  0  0  0  0  0  0  0  0
    4.7348   -2.7837   -3.0197 H   0  0  0  0  0  0  0  0  0  0  0  0
    3.7743   -1.0370   -3.5867 H   0  0  0  0  0  0  0  0  0  0  0  0
    2.9482    0.0080   -2.4703 H   0  0  0  0  0  0  0  0  0  0  0  0
    2.1374   -1.4639   -3.0957 H   0  0  0  0  0  0  0  0  0  0  0  0
    7.9429   -2.1453    4.1729 H   0  0  0  0  0  0  0  0  0  0  0  0
    8.9852   -1.2316    6.5204 H   0  0  0  0  0  0  0  0  0  0  0  0
    8.5152    1.4926    6.4493 H   0  0  0  0  0  0  0  0  0  0  0  0
  1  2  2  0  0  0  0
  1 27  1  0  0  0  0
  1 28  1  0  0  0  0
  2  3  1  0  0  0  0
  2 20  1  0  0  0  0
  3  4  2  3  0  0  0
  3 29  1  0  0  0  0
  4  5  1  0  0  0  0
  4 30  1  0  0  0  0
  5  6  1  0  0  0  0
  5  7  2  3  0  0  0
  6 31  1  0  0  0  0
  6 32  1  0  0  0  0
  6 33  1  0  0  0  0
  7  8  1  0  0  0  0
  7 22  1  0  0  0  0
  8  9  1  0  0  0  0
  8 34  1  0  0  0  0
  8 35  1  0  0  0  0
  9 10  1  0  0  0  0
 10 11  2  0  0  0  0
 10 15  1  0  0  0  0
 11 12  1  0  0  0  0
 12 13  2  0  0  0  0
 12 36  1  0  0  0  0
 13 14  1  0  0  0  0
 14 15  1  0  0  0  0
 14 37  1  0  0  0  0
 14 38  1  0  0  0  0
 15 16  2  3  0  0  0
 16 17  1  0  0  0  0
 16 39  1  0  0  0  0
 17 18  2  3  0  0  0
 17 40  1  0  0  0  0
 18 19  1  0  0  0  0
 18 41  1  0  0  0  0
 19 20  2  3  0  0  0
 19 42  1  0  0  0  0
 20 21  1  0  0  0  0
 21 43  1  0  0  0  0
 21 44  1  0  0  0  0
 21 45  1  0  0  0  0
 22 23  2  0  0  0  0
 22 26  1  0  0  0  0
 23 24  1  0  0  0  0
 23 46  1  0  0  0  0
 24 25  2  0  0  0  0
 24 47  1  0  0  0  0
 25 26  1  0  0  0  0
 25 48  1  0  0  0  0
M  END
$$$$
