
 OpenBabel04232216453D

 50 50  0  0  0  0  0  0  0  0999 V2000
    5.9781    1.7246   -2.9904 C   0  0  0  0  0  0  0  0  0  0  0  0
    6.6175    2.7621   -2.0663 C   0  0  0  0  0  0  0  0  0  0  0  0
    5.6987    3.0336   -0.9205 C   0  0  0  0  0  0  0  0  0  0  0  0
    5.0302    2.2754   -0.0012 C   0  0  0  0  0  0  0  0  0  0  0  0
    4.6794    0.7964    0.1669 C   0  0  0  0  0  0  0  0  0  0  0  0
    5.3184    2.9279    1.3063 C   0  0  0  0  0  0  0  0  0  0  0  0
    4.5673    4.2392    1.4664 C   0  0  0  0  0  0  0  0  0  0  0  0
    6.5375    2.5748    1.8467 C   0  0  0  0  0  0  0  0  0  0  0  0
    7.2172    1.2509    1.5388 C   0  0  0  0  0  0  0  0  0  0  0  0
    7.4464    3.6525    2.2766 C   0  0  0  0  0  0  0  0  0  0  0  0
    8.6803    3.8173    1.7230 C   0  0  0  0  0  0  0  0  0  0  0  0
    9.6489    2.6935    1.3138 C   0  0  0  0  0  0  0  0  0  0  0  0
    8.9627    5.1093    1.0296 C   0  0  0  0  0  0  0  0  0  0  0  0
    8.0361    6.3199    1.1316 C   0  0  0  0  0  0  0  0  0  0  0  0
    9.6878    4.9651   -0.0922 C   0  0  0  0  0  0  0  0  0  0  0  0
   11.2054    4.6533   -0.0574 C   0  0  0  0  0  0  0  0  0  0  0  0
    9.0684    5.3024   -1.3879 C   0  0  0  0  0  0  0  0  0  0  0  0
    9.7932    6.6125   -1.7833 C   0  0  0  0  0  0  0  0  0  0  0  0
    8.7007    4.3184   -2.2769 C   0  0  0  0  0  0  0  0  0  0  0  0
    9.7912    4.0776   -3.3156 C   0  0  0  0  0  0  0  0  0  0  0  0
    7.7180    3.3141   -2.4597 N   0  0  0  0  0  0  0  0  0  0  0  0
    5.0824    2.1882   -3.4305 H   0  0  0  0  0  0  0  0  0  0  0  0
    5.6358    0.8521   -2.4213 H   0  0  0  0  0  0  0  0  0  0  0  0
    6.6504    1.3964   -3.7780 H   0  0  0  0  0  0  0  0  0  0  0  0
    5.3768    4.0722   -0.9946 H   0  0  0  0  0  0  0  0  0  0  0  0
    3.6428    0.5869   -0.1149 H   0  0  0  0  0  0  0  0  0  0  0  0
    4.6983    0.4731    1.2213 H   0  0  0  0  0  0  0  0  0  0  0  0
    5.3374    0.1261   -0.3903 H   0  0  0  0  0  0  0  0  0  0  0  0
    3.4966    4.0942    1.2737 H   0  0  0  0  0  0  0  0  0  0  0  0
    4.9162    4.9924    0.7489 H   0  0  0  0  0  0  0  0  0  0  0  0
    4.6690    4.6723    2.4612 H   0  0  0  0  0  0  0  0  0  0  0  0
    6.5924    0.3668    1.5180 H   0  0  0  0  0  0  0  0  0  0  0  0
    7.9049    0.9962    2.3459 H   0  0  0  0  0  0  0  0  0  0  0  0
    7.7134    1.2942    0.5588 H   0  0  0  0  0  0  0  0  0  0  0  0
    6.9016    4.5462    2.5701 H   0  0  0  0  0  0  0  0  0  0  0  0
    9.4961    1.7078    1.7205 H   0  0  0  0  0  0  0  0  0  0  0  0
   10.6538    2.9240    1.6842 H   0  0  0  0  0  0  0  0  0  0  0  0
    9.6639    2.5424    0.2227 H   0  0  0  0  0  0  0  0  0  0  0  0
    6.9988    6.0820    1.3289 H   0  0  0  0  0  0  0  0  0  0  0  0
    8.0180    6.9161    0.2126 H   0  0  0  0  0  0  0  0  0  0  0  0
    8.4091    7.0045    1.9034 H   0  0  0  0  0  0  0  0  0  0  0  0
   11.4423    3.6131   -0.2896 H   0  0  0  0  0  0  0  0  0  0  0  0
   11.6259    4.8817    0.9333 H   0  0  0  0  0  0  0  0  0  0  0  0
   11.7935    5.2493   -0.7609 H   0  0  0  0  0  0  0  0  0  0  0  0
    9.0624    7.4191   -1.9045 H   0  0  0  0  0  0  0  0  0  0  0  0
   10.3861    6.5479   -2.6937 H   0  0  0  0  0  0  0  0  0  0  0  0
   10.4806    6.9847   -1.0000 H   0  0  0  0  0  0  0  0  0  0  0  0
    9.9467    3.0002   -3.4466 H   0  0  0  0  0  0  0  0  0  0  0  0
   10.7705    4.4611   -3.0013 H   0  0  0  0  0  0  0  0  0  0  0  0
    9.5128    4.5336   -4.2662 H   0  0  0  0  0  0  0  0  0  0  0  0
  1  2  1  0  0  0  0
  1 22  1  0  0  0  0
  1 23  1  0  0  0  0
  1 24  1  0  0  0  0
  2  3  1  0  0  0  0
  2 21  2  3  0  0  0
  3  4  2  3  0  0  0
  3 25  1  0  0  0  0
  4  5  1  0  0  0  0
  4  6  1  0  0  0  0
  5 26  1  0  0  0  0
  5 27  1  0  0  0  0
  5 28  1  0  0  0  0
  6  7  1  0  0  0  0
  6  8  2  3  0  0  0
  7 29  1  0  0  0  0
  7 30  1  0  0  0  0
  7 31  1  0  0  0  0
  8  9  1  0  0  0  0
  8 10  1  0  0  0  0
  9 32  1  0  0  0  0
  9 33  1  0  0  0  0
  9 34  1  0  0  0  0
 10 11  2  3  0  0  0
 10 35  1  0  0  0  0
 11 12  1  0  0  0  0
 11 13  1  0  0  0  0
 12 36  1  0  0  0  0
 12 37  1  0  0  0  0
 12 38  1  0  0  0  0
 13 14  1  0  0  0  0
 13 15  2  3  0  0  0
 14 39  1  0  0  0  0
 14 40  1  0  0  0  0
 14 41  1  0  0  0  0
 15 16  1  0  0  0  0
 15 17  1  0  0  0  0
 16 42  1  0  0  0  0
 16 43  1  0  0  0  0
 16 44  1  0  0  0  0
 17 18  1  0  0  0  0
 17 19  2  3  0  0  0
 18 45  1  0  0  0  0
 18 46  1  0  0  0  0
 18 47  1  0  0  0  0
 19 20  1  0  0  0  0
 19 21  1  0  0  0  0
 20 48  1  0  0  0  0
 20 49  1  0  0  0  0
 20 50  1  0  0  0  0
M  END
$$$$
