
 OpenBabel04232216473D

 44 47  0  0  0  0  0  0  0  0999 V2000
    4.8909    0.8084    1.7689 C   0  0  0  0  0  0  0  0  0  0  0  0
    6.3304    0.9486    0.9995 C   0  0  0  0  0  0  0  0  0  0  0  0
    5.6898    0.8104   -0.7149 C   0  0  0  0  0  0  0  0  0  0  0  0
    6.6520    0.0270   -1.8984 C   0  0  0  0  0  0  0  0  0  0  0  0
    6.4442   -0.6535   -0.6666 C   0  0  0  0  0  0  0  0  0  0  0  0
    6.7729   -0.8624    1.1077 C   0  0  0  0  0  0  0  0  0  0  0  0
    5.9719   -2.0696    1.5373 C   0  0  0  0  0  0  0  0  0  0  0  0
    7.6642    0.1091    1.6813 C   0  0  0  0  0  0  0  0  0  0  0  0
    9.6685    0.0072    1.3492 C   0  0  0  0  0  0  0  0  0  0  0  0
   10.6657    0.5392    2.4041 C   0  0  0  0  0  0  0  0  0  0  0  0
   10.8090   -0.0927    0.0080 C   0  0  0  0  0  0  0  0  0  0  0  0
   10.2398    0.0338   -1.8075 N   0  0  0  0  0  0  0  0  0  0  0  0
    8.6603   -0.2353   -2.4236 C   0  0  0  0  0  0  0  0  0  0  0  0
    8.9799   -2.0204   -2.5140 C   0  0  0  0  0  0  0  0  0  0  0  0
    9.1776   -3.1560   -1.7570 C   0  0  0  0  0  0  0  0  0  0  0  0
    8.4123   -4.0407   -0.7523 C   0  0  0  0  0  0  0  0  0  0  0  0
    7.5698    0.2003   -0.7209 C   0  0  0  0  0  0  0  0  0  0  0  0
    7.4319    2.1373   -0.9546 C   0  0  0  0  0  0  0  0  0  0  0  0
    8.0251    2.7888   -2.0895 O   0  0  0  0  0  0  0  0  0  0  0  0
    7.9441   -1.1028   -0.5386 C   0  0  0  0  0  0  0  0  0  0  0  0
    9.1915   -0.9534   -0.4428 C   0  0  0  0  0  0  0  0  0  0  0  0
    9.3760    1.1370   -0.4008 C   0  0  0  0  0  0  0  0  0  0  0  0
    9.7450   -2.0039   -1.1945 C   0  0  0  0  0  0  0  0  0  0  0  0
    4.3461    1.7489    1.7416 H   0  0  0  0  0  0  0  0  0  0  0  0
    4.9926    0.3984    2.7756 H   0  0  0  0  0  0  0  0  0  0  0  0
    4.2792    0.0774    1.2023 H   0  0  0  0  0  0  0  0  0  0  0  0
    4.6761    1.1552   -0.9458 H   0  0  0  0  0  0  0  0  0  0  0  0
    6.5078   -3.0064    1.3654 H   0  0  0  0  0  0  0  0  0  0  0  0
    5.1006   -2.1243    0.8581 H   0  0  0  0  0  0  0  0  0  0  0  0
    5.5638   -2.0162    2.5417 H   0  0  0  0  0  0  0  0  0  0  0  0
   11.4447   -0.2178    2.5920 H   0  0  0  0  0  0  0  0  0  0  0  0
   10.3032    0.9696    3.3291 H   0  0  0  0  0  0  0  0  0  0  0  0
   11.2470    1.3586    1.9267 H   0  0  0  0  0  0  0  0  0  0  0  0
   11.8829    0.0491    0.0796 H   0  0  0  0  0  0  0  0  0  0  0  0
    8.7732   -5.0715   -0.7160 H   0  0  0  0  0  0  0  0  0  0  0  0
    7.3408   -4.0893   -0.9932 H   0  0  0  0  0  0  0  0  0  0  0  0
    8.4864   -3.7039    0.3020 H   0  0  0  0  0  0  0  0  0  0  0  0
    7.6703    2.7046   -0.0288 H   0  0  0  0  0  0  0  0  0  0  0  0
    6.4237    2.5753   -1.0674 H   0  0  0  0  0  0  0  0  0  0  0  0
    8.6076    3.4750   -1.7022 H   0  0  0  0  0  0  0  0  0  0  0  0
    7.5210   -2.1238   -0.5030 H   0  0  0  0  0  0  0  0  0  0  0  0
   10.3332    1.7185   -0.1612 H   0  0  0  0  0  0  0  0  0  0  0  0
    9.3635    1.6318   -1.3747 H   0  0  0  0  0  0  0  0  0  0  0  0
    8.8757    1.6225    0.4547 H   0  0  0  0  0  0  0  0  0  0  0  0
  1  2  1  0  0  0  0
  1 24  1  0  0  0  0
  1 25  1  0  0  0  0
  1 26  1  0  0  0  0
  2  3  1  0  0  0  0
  2  8  2  0  0  0  0
  3  4  2  0  0  0  0
  3 27  1  0  0  0  0
  4  5  1  0  0  0  0
  4 13  1  0  0  0  0
  5  6  2  0  0  0  0
  5 17  1  0  0  0  0
  6  7  1  0  0  0  0
  6  8  1  0  0  0  0
  7 28  1  0  0  0  0
  7 29  1  0  0  0  0
  7 30  1  0  0  0  0
  8  9  1  0  0  0  0
  9 10  1  0  0  0  0
  9 11  2  0  0  0  0
 10 31  1  0  0  0  0
 10 32  1  0  0  0  0
 10 33  1  0  0  0  0
 11 12  1  0  0  0  0
 11 34  1  0  0  0  0
 12 13  2  0  0  0  0
 13 14  1  0  0  0  0
 14 15  2  0  0  0  0
 14 23  1  0  0  0  0
 15 16  1  0  0  0  0
 15 23  1  0  0  0  0
 16 35  1  0  0  0  0
 16 36  1  0  0  0  0
 16 37  1  0  0  0  0
 17 18  1  0  0  0  0
 17 20  2  0  0  0  0
 18 19  1  0  0  0  0
 18 38  1  0  0  0  0
 18 39  1  0  0  0  0
 19 40  1  0  0  0  0
 20 21  1  0  0  0  0
 20 41  1  0  0  0  0
 21 22  1  0  0  0  0
 21 23  2  0  0  0  0
 22 42  1  0  0  0  0
 22 43  1  0  0  0  0
 22 44  1  0  0  0  0
M  END
$$$$
