
 OpenBabel04232216483D

 44 45  0  0  0  0  0  0  0  0999 V2000
   -5.9504   -3.0636    5.7897 C   0  0  0  0  0  0  0  0  0  0  0  0
   -5.4717   -2.2862    4.6062 C   0  0  0  0  0  0  0  0  0  0  0  0
   -6.3507   -1.8009    3.6339 C   0  0  0  0  0  0  0  0  0  0  0  0
   -5.8664   -1.1002    2.5260 C   0  0  0  0  0  0  0  0  0  0  0  0
   -4.4944   -0.8628    2.3731 C   0  0  0  0  0  0  0  0  0  0  0  0
   -3.9894   -0.1423    1.1387 C   0  0  0  0  0  0  0  0  0  0  0  0
   -4.5274    1.2530    0.9706 C   0  0  0  0  0  0  0  0  0  0  0  0
   -5.2470    1.7111   -0.0678 C   0  0  0  0  0  0  0  0  0  0  0  0
   -5.7094    3.1424   -0.0897 C   0  0  0  0  0  0  0  0  0  0  0  0
   -7.1667    3.1825   -0.1464 N   0  0  0  0  0  0  0  0  0  0  0  0
   -7.7035    4.5574   -0.1561 C   0  0  0  0  0  0  0  0  0  0  0  0
   -9.2785    4.5075   -0.1878 C   0  0  0  0  0  0  0  0  0  0  0  0
   -9.8719    4.4472    0.8932 O   0  0  0  0  0  0  0  0  0  0  0  0
   -9.9515    4.5009   -1.5236 C   0  0  0  0  0  0  0  0  0  0  0  0
   -9.3719    4.4833   -2.7730 C   0  0  0  0  0  0  0  0  0  0  0  0
  -10.5490    4.4547   -3.5093 C   0  0  0  0  0  0  0  0  0  0  0  0
   -9.8940    4.4193   -4.9128 C   0  0  0  0  0  0  0  0  0  0  0  0
   -8.6843    4.4293   -5.1544 O   0  0  0  0  0  0  0  0  0  0  0  0
  -10.7525    4.3848   -6.0107 O   0  0  0  0  0  0  0  0  0  0  0  0
  -10.0937    4.3597   -7.3406 C   0  0  0  0  0  0  0  0  0  0  0  0
  -11.1322    4.4845   -2.1405 C   0  0  0  0  0  0  0  0  0  0  0  0
   -3.6220   -1.3504    3.3625 C   0  0  0  0  0  0  0  0  0  0  0  0
   -4.1057   -2.0526    4.4658 C   0  0  0  0  0  0  0  0  0  0  0  0
   -7.0380   -3.1692    5.7853 H   0  0  0  0  0  0  0  0  0  0  0  0
   -5.6543   -2.5515    6.7107 H   0  0  0  0  0  0  0  0  0  0  0  0
   -5.5054   -4.0642    5.7754 H   0  0  0  0  0  0  0  0  0  0  0  0
   -7.4198   -1.9719    3.7261 H   0  0  0  0  0  0  0  0  0  0  0  0
   -6.5675   -0.7407    1.7756 H   0  0  0  0  0  0  0  0  0  0  0  0
   -4.2481   -0.7428    0.2572 H   0  0  0  0  0  0  0  0  0  0  0  0
   -2.8951   -0.0849    1.1813 H   0  0  0  0  0  0  0  0  0  0  0  0
   -4.3089    1.9747    1.7526 H   0  0  0  0  0  0  0  0  0  0  0  0
   -5.4960    1.0582   -0.9034 H   0  0  0  0  0  0  0  0  0  0  0  0
   -5.2747    3.6351   -0.9652 H   0  0  0  0  0  0  0  0  0  0  0  0
   -5.3332    3.6580    0.8064 H   0  0  0  0  0  0  0  0  0  0  0  0
   -7.5419    2.6912    0.6670 H   0  0  0  0  0  0  0  0  0  0  0  0
   -7.3170    5.1100   -1.0201 H   0  0  0  0  0  0  0  0  0  0  0  0
   -7.3917    5.0991    0.7536 H   0  0  0  0  0  0  0  0  0  0  0  0
   -8.3161    4.4780   -2.9833 H   0  0  0  0  0  0  0  0  0  0  0  0
  -10.8556    4.3333   -8.1337 H   0  0  0  0  0  0  0  0  0  0  0  0
   -9.4644    3.4676   -7.4858 H   0  0  0  0  0  0  0  0  0  0  0  0
   -9.4842    5.2577   -7.5259 H   0  0  0  0  0  0  0  0  0  0  0  0
  -12.1418    4.4506   -1.6854 H   0  0  0  0  0  0  0  0  0  0  0  0
   -2.5464   -1.2121    3.3161 H   0  0  0  0  0  0  0  0  0  0  0  0
   -3.4035   -2.4213    5.2113 H   0  0  0  0  0  0  0  0  0  0  0  0
  1  2  1  0  0  0  0
  1 24  1  0  0  0  0
  1 25  1  0  0  0  0
  1 26  1  0  0  0  0
  2  3  1  0  0  0  0
  2 23  2  0  0  0  0
  3  4  2  0  0  0  0
  3 27  1  0  0  0  0
  4  5  1  0  0  0  0
  4 28  1  0  0  0  0
  5  6  1  0  0  0  0
  5 22  2  0  0  0  0
  6  7  1  0  0  0  0
  6 29  1  0  0  0  0
  6 30  1  0  0  0  0
  7  8  2  3  0  0  0
  7 31  1  0  0  0  0
  8  9  1  0  0  0  0
  8 32  1  0  0  0  0
  9 10  1  0  0  0  0
  9 33  1  0  0  0  0
  9 34  1  0  0  0  0
 10 11  1  0  0  0  0
 10 35  1  0  0  0  0
 11 12  1  0  0  0  0
 11 36  1  0  0  0  0
 11 37  1  0  0  0  0
 12 13  2  0  0  0  0
 12 14  1  0  0  0  0
 14 15  1  0  0  0  0
 14 21  2  0  0  0  0
 15 16  2  0  0  0  0
 15 38  1  0  0  0  0
 16 17  1  0  0  0  0
 16 21  1  0  0  0  0
 17 18  2  0  0  0  0
 17 19  1  0  0  0  0
 19 20  1  0  0  0  0
 20 39  1  0  0  0  0
 20 40  1  0  0  0  0
 20 41  1  0  0  0  0
 21 42  1  0  0  0  0
 22 23  1  0  0  0  0
 22 43  1  0  0  0  0
 23 44  1  0  0  0  0
M  END
$$$$
