
 OpenBabel04232217033D

 90 89  0  0  0  0  0  0  0  0999 V2000
   20.9141   10.5741  -14.1102 S   0  0  0  0  0  0  0  0  0  0  0  0
   22.5738   10.6858  -13.8561 O   0  0  0  0  0  0  0  0  0  0  0  0
   23.2188    9.2189  -13.3693 S   0  0  0  0  0  0  0  0  0  0  0  0
   22.5305    9.0129  -11.8399 N   0  0  0  0  0  0  0  0  0  0  0  0
   23.0557    7.5572  -11.1833 S   0  0  0  0  0  0  0  0  0  0  0  0
   22.3909    7.3072   -9.6711 N   0  0  0  0  0  0  0  0  0  0  0  0
   20.9606    7.1254   -9.6993 N   0  0  0  0  0  0  0  0  0  0  0  0
   20.4481    6.8854   -8.3425 N   0  0  0  0  0  0  0  0  0  0  0  0
   18.9884    6.7534   -8.4160 N   0  0  0  0  0  0  0  0  0  0  0  0
   18.4401    6.5064   -7.0986 N   0  0  0  0  0  0  0  0  0  0  0  0
   16.7619    6.3640   -7.1565 S   0  0  0  0  0  0  0  0  0  0  0  0
   16.2486    5.1227   -8.1570 N   0  0  0  0  0  0  0  0  0  0  0  0
   16.8623    3.6544   -7.6580 S   0  0  0  0  0  0  0  0  0  0  0  0
   16.1401    2.2938   -9.0239 S   0  0  0  0  0  0  0  0  0  0  0  0
   16.8615    2.7167  -10.9138 S   0  0  0  0  0  0  0  0  0  0  0  0
   18.9372    2.6499  -10.9381 S   0  0  0  0  0  0  0  0  0  0  0  0
   19.6121    3.1499  -12.8745 S   0  0  0  0  0  0  0  0  0  0  0  0
   21.7248    3.1485  -12.8659 S   0  0  0  0  0  0  0  0  0  0  0  0
   22.4151    3.6273  -14.8017 S   0  0  0  0  0  0  0  0  0  0  0  0
   24.5246    3.6240  -14.7895 S   0  0  0  0  0  0  0  0  0  0  0  0
   25.2152    4.1030  -16.7242 S   0  0  0  0  0  0  0  0  0  0  0  0
   27.3246    4.0996  -16.7115 S   0  0  0  0  0  0  0  0  0  0  0  0
   28.0153    4.5792  -18.6462 S   0  0  0  0  0  0  0  0  0  0  0  0
   30.1247    4.5760  -18.6333 S   0  0  0  0  0  0  0  0  0  0  0  0
   30.8153    5.0556  -20.5679 S   0  0  0  0  0  0  0  0  0  0  0  0
   32.9247    5.0524  -20.5550 S   0  0  0  0  0  0  0  0  0  0  0  0
   33.6153    5.5321  -22.4896 S   0  0  0  0  0  0  0  0  0  0  0  0
   35.7247    5.5289  -22.4768 S   0  0  0  0  0  0  0  0  0  0  0  0
   36.4153    6.0086  -24.4113 S   0  0  0  0  0  0  0  0  0  0  0  0
   38.5247    6.0054  -24.3985 S   0  0  0  0  0  0  0  0  0  0  0  0
   39.2153    6.4850  -26.3331 S   0  0  0  0  0  0  0  0  0  0  0  0
   41.3247    6.4818  -26.3202 S   0  0  0  0  0  0  0  0  0  0  0  0
   42.0153    6.9615  -28.2548 S   0  0  0  0  0  0  0  0  0  0  0  0
   44.1247    6.9583  -28.2419 S   0  0  0  0  0  0  0  0  0  0  0  0
   44.8153    7.4380  -30.1765 S   0  0  0  0  0  0  0  0  0  0  0  0
   46.9247    7.4348  -30.1636 S   0  0  0  0  0  0  0  0  0  0  0  0
   47.6153    7.9144  -32.0982 S   0  0  0  0  0  0  0  0  0  0  0  0
   49.7247    7.9113  -32.0853 S   0  0  0  0  0  0  0  0  0  0  0  0
   50.4153    8.3909  -34.0199 S   0  0  0  0  0  0  0  0  0  0  0  0
   52.5247    8.3877  -34.0071 S   0  0  0  0  0  0  0  0  0  0  0  0
   53.2153    8.8674  -35.9416 S   0  0  0  0  0  0  0  0  0  0  0  0
   55.3247    8.8642  -35.9288 S   0  0  0  0  0  0  0  0  0  0  0  0
   56.0153    9.3438  -37.8633 S   0  0  0  0  0  0  0  0  0  0  0  0
   58.1246    9.3407  -37.8505 S   0  0  0  0  0  0  0  0  0  0  0  0
   58.8153    9.8203  -39.7851 S   0  0  0  0  0  0  0  0  0  0  0  0
   60.9246    9.8171  -39.7722 S   0  0  0  0  0  0  0  0  0  0  0  0
   61.6153   10.2968  -41.7068 S   0  0  0  0  0  0  0  0  0  0  0  0
   63.7246   10.2936  -41.6939 S   0  0  0  0  0  0  0  0  0  0  0  0
   64.4152   10.7732  -43.6285 S   0  0  0  0  0  0  0  0  0  0  0  0
   66.5246   10.7701  -43.6156 S   0  0  0  0  0  0  0  0  0  0  0  0
   67.2152   11.2497  -45.5502 S   0  0  0  0  0  0  0  0  0  0  0  0
   69.3246   11.2465  -45.5373 S   0  0  0  0  0  0  0  0  0  0  0  0
   70.0152   11.7262  -47.4719 S   0  0  0  0  0  0  0  0  0  0  0  0
   72.1246   11.7230  -47.4591 S   0  0  0  0  0  0  0  0  0  0  0  0
   72.8152   12.2026  -49.3936 S   0  0  0  0  0  0  0  0  0  0  0  0
   74.9246   12.1995  -49.3808 S   0  0  0  0  0  0  0  0  0  0  0  0
   75.6152   12.6791  -51.3154 S   0  0  0  0  0  0  0  0  0  0  0  0
   77.7246   12.6759  -51.3025 S   0  0  0  0  0  0  0  0  0  0  0  0
   78.4152   13.1556  -53.2371 S   0  0  0  0  0  0  0  0  0  0  0  0
   80.5246   13.1524  -53.2242 S   0  0  0  0  0  0  0  0  0  0  0  0
   81.2152   13.6320  -55.1588 S   0  0  0  0  0  0  0  0  0  0  0  0
   83.3246   13.6289  -55.1459 S   0  0  0  0  0  0  0  0  0  0  0  0
   84.0152   14.1085  -57.0805 S   0  0  0  0  0  0  0  0  0  0  0  0
   86.1246   14.1053  -57.0676 S   0  0  0  0  0  0  0  0  0  0  0  0
   86.8152   14.5850  -59.0022 S   0  0  0  0  0  0  0  0  0  0  0  0
   88.9246   14.5818  -58.9894 S   0  0  0  0  0  0  0  0  0  0  0  0
   89.6152   15.0615  -60.9239 S   0  0  0  0  0  0  0  0  0  0  0  0
   91.7246   15.0583  -60.9111 S   0  0  0  0  0  0  0  0  0  0  0  0
   92.4152   15.5379  -62.8456 S   0  0  0  0  0  0  0  0  0  0  0  0
   94.5245   15.5347  -62.8328 S   0  0  0  0  0  0  0  0  0  0  0  0
   95.2152   16.0144  -64.7674 S   0  0  0  0  0  0  0  0  0  0  0  0
   97.3245   16.0112  -64.7545 S   0  0  0  0  0  0  0  0  0  0  0  0
   98.0152   16.4909  -66.6891 S   0  0  0  0  0  0  0  0  0  0  0  0
  100.1245   16.4877  -66.6762 S   0  0  0  0  0  0  0  0  0  0  0  0
  100.8151   16.9674  -68.6108 S   0  0  0  0  0  0  0  0  0  0  0  0
  102.9234   16.9636  -68.5976 S   0  0  0  0  0  0  0  0  0  0  0  0
  103.6125   17.4431  -70.5300 S   0  0  0  0  0  0  0  0  0  0  0  0
  105.7115   17.4558  -70.4988 S   0  0  0  0  0  0  0  0  0  0  0  0
  106.4020   17.8635  -72.4226 S   0  0  0  0  0  0  0  0  0  0  0  0
  108.4867   17.9051  -72.3715 S   0  0  0  0  0  0  0  0  0  0  0  0
  109.1058   15.9988  -71.8979 S   0  0  0  0  0  0  0  0  0  0  0  0
   20.5872   11.8059  -14.5629 H   0  0  0  0  0  0  0  0  0  0  0  0
   21.5213    8.9710  -11.9756 H   0  0  0  0  0  0  0  0  0  0  0  0
   22.7052    8.0013   -9.0128 H   0  0  0  0  0  0  0  0  0  0  0  0
   20.7470    6.3459  -10.3035 H   0  0  0  0  0  0  0  0  0  0  0  0
   20.6805    7.6321   -7.7433 H   0  0  0  0  0  0  0  0  0  0  0  0
   18.7541    5.9920   -9.0002 H   0  0  0  0  0  0  0  0  0  0  0  0
   18.7105    7.2604   -6.4889 H   0  0  0  0  0  0  0  0  0  0  0  0
   16.5543    5.3375   -9.1021 H   0  0  0  0  0  0  0  0  0  0  0  0
  110.4553   16.0877  -71.8949 H   0  0  0  0  0  0  0  0  0  0  0  0
  1  2  1  0  0  0  0
  1 82  1  0  0  0  0
  2  3  1  0  0  0  0
  3  4  1  0  0  0  0
  4  5  1  0  0  0  0
  4 83  1  0  0  0  0
  5  6  1  0  0  0  0
  6  7  1  0  0  0  0
  6 84  1  0  0  0  0
  7  8  1  0  0  0  0
  7 85  1  0  0  0  0
  8  9  1  0  0  0  0
  8 86  1  0  0  0  0
  9 10  1  0  0  0  0
  9 87  1  0  0  0  0
 10 11  1  0  0  0  0
 10 88  1  0  0  0  0
 11 12  1  0  0  0  0
 12 13  1  0  0  0  0
 12 89  1  0  0  0  0
 13 14  1  0  0  0  0
 14 15  1  0  0  0  0
 15 16  1  0  0  0  0
 16 17  1  0  0  0  0
 17 18  1  0  0  0  0
 18 19  1  0  0  0  0
 19 20  1  0  0  0  0
 20 21  1  0  0  0  0
 21 22  1  0  0  0  0
 22 23  1  0  0  0  0
 23 24  1  0  0  0  0
 24 25  1  0  0  0  0
 25 26  1  0  0  0  0
 26 27  1  0  0  0  0
 27 28  1  0  0  0  0
 28 29  1  0  0  0  0
 29 30  1  0  0  0  0
 30 31  1  0  0  0  0
 31 32  1  0  0  0  0
 32 33  1  0  0  0  0
 33 34  1  0  0  0  0
 34 35  1  0  0  0  0
 35 36  1  0  0  0  0
 36 37  1  0  0  0  0
 37 38  1  0  0  0  0
 38 39  1  0  0  0  0
 39 40  1  0  0  0  0
 40 41  1  0  0  0  0
 41 42  1  0  0  0  0
 42 43  1  0  0  0  0
 43 44  1  0  0  0  0
 44 45  1  0  0  0  0
 45 46  1  0  0  0  0
 46 47  1  0  0  0  0
 47 48  1  0  0  0  0
 48 49  1  0  0  0  0
 49 50  1  0  0  0  0
 50 51  1  0  0  0  0
 51 52  1  0  0  0  0
 52 53  1  0  0  0  0
 53 54  1  0  0  0  0
 54 55  1  0  0  0  0
 55 56  1  0  0  0  0
 56 57  1  0  0  0  0
 57 58  1  0  0  0  0
 58 59  1  0  0  0  0
 59 60  1  0  0  0  0
 60 61  1  0  0  0  0
 61 62  1  0  0  0  0
 62 63  1  0  0  0  0
 63 64  1  0  0  0  0
 64 65  1  0  0  0  0
 65 66  1  0  0  0  0
 66 67  1  0  0  0  0
 67 68  1  0  0  0  0
 68 69  1  0  0  0  0
 69 70  1  0  0  0  0
 70 71  1  0  0  0  0
 71 72  1  0  0  0  0
 72 73  1  0  0  0  0
 73 74  1  0  0  0  0
 74 75  1  0  0  0  0
 75 76  1  0  0  0  0
 76 77  1  0  0  0  0
 77 78  1  0  0  0  0
 78 79  1  0  0  0  0
 79 80  1  0  0  0  0
 80 81  1  0  0  0  0
 81 90  1  0  0  0  0
M  END
$$$$
