
 OpenBabel04232217013D

190190  0  0  0  0  0  0  0  0999 V2000
  -12.9258  -15.4582  -19.9717 O   0  0  0  0  0  0  0  0  0  0  0  0
  -12.9178  -15.4610  -21.2758 N   0  0  0  0  0  0  0  0  0  0  0  0
  -13.4230  -15.8643  -22.3825 C   0  0  0  0  0  0  0  0  0  0  0  0
  -12.3081  -14.9677  -22.3907 C   0  0  0  0  0  0  0  0  0  0  0  0
  -11.1911  -14.0750  -21.7535 C   0  0  0  0  0  0  0  0  0  0  0  0
  -10.3246  -13.3724  -22.6820 O   0  0  0  0  0  0  0  0  0  0  0  0
   -9.3054  -12.5957  -21.9997 C   0  0  0  0  0  0  0  0  0  0  0  0
   -8.4372  -13.3699  -21.1632 O   0  0  0  0  0  0  0  0  0  0  0  0
   -7.7342  -14.3672  -21.9052 C   0  0  0  0  0  0  0  0  0  0  0  0
   -6.8996  -13.7869  -22.9015 O   0  0  0  0  0  0  0  0  0  0  0  0
   -6.2180  -14.7894  -23.6364 C   0  0  0  0  0  0  0  0  0  0  0  0
   -7.1058  -15.6761  -24.3001 O   0  0  0  0  0  0  0  0  0  0  0  0
   -7.9330  -14.9208  -25.1687 C   0  0  0  0  0  0  0  0  0  0  0  0
   -8.8250  -15.7812  -25.8311 O   0  0  0  0  0  0  0  0  0  0  0  0
   -9.6808  -15.0710  -26.6980 C   0  0  0  0  0  0  0  0  0  0  0  0
  -10.5942  -15.9488  -27.3493 O   0  0  0  0  0  0  0  0  0  0  0  0
  -11.3980  -16.5809  -26.3592 C   0  0  0  0  0  0  0  0  0  0  0  0
  -10.6236  -17.3605  -25.4820 O   0  0  0  0  0  0  0  0  0  0  0  0
  -11.3994  -17.9483  -24.4822 C   0  0  0  0  0  0  0  0  0  0  0  0
  -10.6042  -18.6822  -23.5765 O   0  0  0  0  0  0  0  0  0  0  0  0
   -9.6751  -17.8030  -22.9439 C   0  0  0  0  0  0  0  0  0  0  0  0
   -8.8585  -18.5263  -22.0388 O   0  0  0  0  0  0  0  0  0  0  0  0
   -8.1469  -19.5036  -22.7730 C   0  0  0  0  0  0  0  0  0  0  0  0
   -7.3531  -20.2205  -21.8727 O   0  0  0  0  0  0  0  0  0  0  0  0
   -6.6394  -21.1971  -22.5696 C   0  0  0  0  0  0  0  0  0  0  0  0
   -5.8869  -21.8471  -21.6050 O   0  0  0  0  0  0  0  0  0  0  0  0
   -5.1978  -22.8030  -22.3679 O   0  0  0  0  0  0  0  0  0  0  0  0
   -4.4013  -23.5202  -21.4805 O   0  0  0  0  0  0  0  0  0  0  0  0
   -3.7112  -24.4745  -22.2166 O   0  0  0  0  0  0  0  0  0  0  0  0
   -2.9270  -25.1727  -21.3073 O   0  0  0  0  0  0  0  0  0  0  0  0
   -2.2331  -26.1296  -22.0341 O   0  0  0  0  0  0  0  0  0  0  0  0
   -1.4518  -26.8249  -21.1246 O   0  0  0  0  0  0  0  0  0  0  0  0
   -0.7416  -27.7780  -21.8405 O   0  0  0  0  0  0  0  0  0  0  0  0
    0.0638  -28.4691  -20.9114 O   0  0  0  0  0  0  0  0  0  0  0  0
    0.7596  -29.4510  -21.6311 O   0  0  0  0  0  0  0  0  0  0  0  0
   -0.2158  -30.2841  -22.2604 O   0  0  0  0  0  0  0  0  0  0  0  0
    0.5816  -31.1935  -22.9435 C   0  0  0  0  0  0  0  0  0  0  0  0
   -0.4076  -32.0900  -23.6011 C   0  0  0  0  0  0  0  0  0  0  0  0
    0.3467  -33.1327  -24.3684 C   0  0  0  0  0  0  0  0  0  0  0  0
   -0.6407  -34.0532  -25.0406 C   0  0  0  0  0  0  0  0  0  0  0  0
    0.1141  -35.1072  -25.8186 C   0  0  0  0  0  0  0  0  0  0  0  0
   -0.8682  -36.0378  -26.4982 C   0  0  0  0  0  0  0  0  0  0  0  0
   -0.1133  -37.0951  -27.2787 C   0  0  0  0  0  0  0  0  0  0  0  0
   -1.0948  -38.0281  -27.9601 C   0  0  0  0  0  0  0  0  0  0  0  0
   -0.3408  -39.0878  -28.7398 C   0  0  0  0  0  0  0  0  0  0  0  0
   -1.3225  -40.0200  -29.4232 C   0  0  0  0  0  0  0  0  0  0  0  0
   -0.5686  -41.0787  -30.2045 C   0  0  0  0  0  0  0  0  0  0  0  0
   -1.5503  -42.0097  -30.8896 C   0  0  0  0  0  0  0  0  0  0  0  0
   -0.7963  -43.0696  -31.6694 C   0  0  0  0  0  0  0  0  0  0  0  0
   -1.7780  -43.9995  -32.3560 C   0  0  0  0  0  0  0  0  0  0  0  0
   -1.0241  -45.0593  -33.1358 C   0  0  0  0  0  0  0  0  0  0  0  0
   -2.0057  -45.9892  -33.8224 C   0  0  0  0  0  0  0  0  0  0  0  0
   -1.2518  -47.0502  -34.6005 C   0  0  0  0  0  0  0  0  0  0  0  0
   -2.2335  -47.9800  -35.2872 C   0  0  0  0  0  0  0  0  0  0  0  0
   -1.4796  -49.0411  -36.0653 C   0  0  0  0  0  0  0  0  0  0  0  0
   -2.4612  -49.9697  -36.7535 C   0  0  0  0  0  0  0  0  0  0  0  0
   -1.7073  -51.0308  -37.5317 C   0  0  0  0  0  0  0  0  0  0  0  0
   -2.6890  -51.9582  -38.2215 C   0  0  0  0  0  0  0  0  0  0  0  0
   -1.9351  -53.0205  -38.9981 C   0  0  0  0  0  0  0  0  0  0  0  0
   -2.9167  -53.9491  -39.6863 C   0  0  0  0  0  0  0  0  0  0  0  0
   -2.1628  -55.0102  -40.4645 C   0  0  0  0  0  0  0  0  0  0  0  0
   -3.1445  -55.9376  -41.1543 C   0  0  0  0  0  0  0  0  0  0  0  0
   -2.3906  -56.9999  -41.9309 C   0  0  0  0  0  0  0  0  0  0  0  0
   -3.3722  -57.9261  -42.6223 C   0  0  0  0  0  0  0  0  0  0  0  0
   -2.6183  -58.9895  -43.3973 C   0  0  0  0  0  0  0  0  0  0  0  0
   -3.6000  -59.9170  -44.0871 C   0  0  0  0  0  0  0  0  0  0  0  0
   -2.8461  -60.9805  -44.8621 C   0  0  0  0  0  0  0  0  0  0  0  0
   -3.8278  -61.9092  -45.5504 C   0  0  0  0  0  0  0  0  0  0  0  0
   -3.0739  -62.9739  -46.3238 C   0  0  0  0  0  0  0  0  0  0  0  0
   -4.0555  -63.9040  -47.0106 C   0  0  0  0  0  0  0  0  0  0  0  0
   -3.3019  -64.9679  -47.7858 C   0  0  0  0  0  0  0  0  0  0  0  0
   -4.2836  -65.8997  -48.4714 C   0  0  0  0  0  0  0  0  0  0  0  0
   -3.5300  -66.9639  -49.2469 C   0  0  0  0  0  0  0  0  0  0  0  0
   -4.5092  -67.8988  -49.9322 C   0  0  0  0  0  0  0  0  0  0  0  0
   -3.7537  -68.9623  -50.7097 C   0  0  0  0  0  0  0  0  0  0  0  0
   -4.7342  -69.8974  -51.3951 C   0  0  0  0  0  0  0  0  0  0  0  0
   -3.9861  -70.9639  -52.1748 C   0  0  0  0  0  0  0  0  0  0  0  0
   -4.9690  -71.8996  -52.8633 C   0  0  0  0  0  0  0  0  0  0  0  0
   -4.2120  -72.9590  -53.6374 C   0  0  0  0  0  0  0  0  0  0  0  0
  -13.6718  -16.0550  -19.7422 H   0  0  0  0  0  0  0  0  0  0  0  0
  -14.2173  -16.5022  -22.5991 H   0  0  0  0  0  0  0  0  0  0  0  0
  -10.5442  -14.6898  -21.1052 H   0  0  0  0  0  0  0  0  0  0  0  0
  -11.6453  -13.3040  -21.1131 H   0  0  0  0  0  0  0  0  0  0  0  0
   -9.7665  -11.8109  -21.3783 H   0  0  0  0  0  0  0  0  0  0  0  0
   -8.6766  -12.0659  -22.7415 H   0  0  0  0  0  0  0  0  0  0  0  0
   -8.4676  -15.0431  -22.3686 H   0  0  0  0  0  0  0  0  0  0  0  0
   -7.1196  -14.9514  -21.2118 H   0  0  0  0  0  0  0  0  0  0  0  0
   -5.5790  -15.3637  -22.9611 H   0  0  0  0  0  0  0  0  0  0  0  0
   -5.5852  -14.3029  -24.3878 H   0  0  0  0  0  0  0  0  0  0  0  0
   -7.3146  -14.4400  -25.9268 H   0  0  0  0  0  0  0  0  0  0  0  0
   -8.5073  -14.1704  -24.6181 H   0  0  0  0  0  0  0  0  0  0  0  0
   -9.0660  -14.5869  -27.4634 H   0  0  0  0  0  0  0  0  0  0  0  0
  -10.2408  -14.3052  -26.1471 H   0  0  0  0  0  0  0  0  0  0  0  0
  -12.0934  -17.2560  -26.8570 H   0  0  0  0  0  0  0  0  0  0  0  0
  -11.9594  -15.8213  -25.8050 H   0  0  0  0  0  0  0  0  0  0  0  0
  -12.0907  -18.6342  -24.9612 H   0  0  0  0  0  0  0  0  0  0  0  0
  -11.9501  -17.1969  -23.9301 H   0  0  0  0  0  0  0  0  0  0  0  0
  -10.2165  -17.0448  -22.3765 H   0  0  0  0  0  0  0  0  0  0  0  0
   -9.0281  -17.3183  -23.6817 H   0  0  0  0  0  0  0  0  0  0  0  0
   -7.5021  -19.0297  -23.5218 H   0  0  0  0  0  0  0  0  0  0  0  0
   -8.8386  -20.2062  -23.2595 H   0  0  0  0  0  0  0  0  0  0  0  0
   -5.9670  -20.7522  -23.3163 H   0  0  0  0  0  0  0  0  0  0  0  0
   -7.3071  -21.9204  -23.0581 H   0  0  0  0  0  0  0  0  0  0  0  0
    1.2144  -31.7177  -22.2194 H   0  0  0  0  0  0  0  0  0  0  0  0
    1.2118  -30.6566  -23.6617 H   0  0  0  0  0  0  0  0  0  0  0  0
   -1.0629  -31.4959  -24.2520 H   0  0  0  0  0  0  0  0  0  0  0  0
   -1.0607  -32.5346  -22.8383 H   0  0  0  0  0  0  0  0  0  0  0  0
    0.9961  -33.6939  -23.6854 H   0  0  0  0  0  0  0  0  0  0  0  0
    0.9917  -32.6478  -25.1113 H   0  0  0  0  0  0  0  0  0  0  0  0
   -1.2908  -33.4772  -25.7110 H   0  0  0  0  0  0  0  0  0  0  0  0
   -1.2845  -34.5238  -24.2870 H   0  0  0  0  0  0  0  0  0  0  0  0
    0.7644  -35.6750  -25.1423 H   0  0  0  0  0  0  0  0  0  0  0  0
    0.7581  -34.6285  -26.5661 H   0  0  0  0  0  0  0  0  0  0  0  0
   -1.5182  -35.4659  -27.1721 H   0  0  0  0  0  0  0  0  0  0  0  0
   -1.5119  -36.5129  -25.7475 H   0  0  0  0  0  0  0  0  0  0  0  0
    0.5371  -37.6643  -26.6033 H   0  0  0  0  0  0  0  0  0  0  0  0
    0.5309  -36.6177  -28.0273 H   0  0  0  0  0  0  0  0  0  0  0  0
   -1.7440  -37.4580  -28.6359 H   0  0  0  0  0  0  0  0  0  0  0  0
   -1.7396  -38.5035  -27.2109 H   0  0  0  0  0  0  0  0  0  0  0  0
    0.3073  -39.6585  -28.0635 H   0  0  0  0  0  0  0  0  0  0  0  0
    0.3051  -38.6121  -29.4879 H   0  0  0  0  0  0  0  0  0  0  0  0
   -1.9716  -39.4490  -30.0983 H   0  0  0  0  0  0  0  0  0  0  0  0
   -1.9675  -40.4967  -28.6749 H   0  0  0  0  0  0  0  0  0  0  0  0
    0.0794  -41.6506  -29.5292 H   0  0  0  0  0  0  0  0  0  0  0  0
    0.0775  -40.6019  -30.9519 H   0  0  0  0  0  0  0  0  0  0  0  0
   -2.1973  -41.4380  -31.5661 H   0  0  0  0  0  0  0  0  0  0  0  0
   -2.1973  -42.4855  -30.1424 H   0  0  0  0  0  0  0  0  0  0  0  0
   -0.1504  -43.6423  -30.9926 H   0  0  0  0  0  0  0  0  0  0  0  0
   -0.1482  -42.5939  -32.4156 H   0  0  0  0  0  0  0  0  0  0  0  0
   -2.4239  -43.4268  -33.0327 H   0  0  0  0  0  0  0  0  0  0  0  0
   -2.4261  -44.4752  -31.6098 H   0  0  0  0  0  0  0  0  0  0  0  0
   -0.3781  -45.6320  -32.4590 H   0  0  0  0  0  0  0  0  0  0  0  0
   -0.3760  -44.5836  -33.8819 H   0  0  0  0  0  0  0  0  0  0  0  0
   -2.6507  -45.4167  -34.5002 H   0  0  0  0  0  0  0  0  0  0  0  0
   -2.6548  -46.4638  -33.0763 H   0  0  0  0  0  0  0  0  0  0  0  0
   -0.6068  -47.6227  -33.9227 H   0  0  0  0  0  0  0  0  0  0  0  0
   -0.6027  -46.5755  -35.3466 H   0  0  0  0  0  0  0  0  0  0  0  0
   -2.8785  -47.4075  -35.9650 H   0  0  0  0  0  0  0  0  0  0  0  0
   -2.8826  -48.4547  -34.5411 H   0  0  0  0  0  0  0  0  0  0  0  0
   -0.8357  -49.6145  -35.3872 H   0  0  0  0  0  0  0  0  0  0  0  0
   -0.8294  -48.5664  -36.8104 H   0  0  0  0  0  0  0  0  0  0  0  0
   -3.1051  -49.3963  -37.4316 H   0  0  0  0  0  0  0  0  0  0  0  0
   -3.1114  -50.4444  -36.0085 H   0  0  0  0  0  0  0  0  0  0  0  0
   -1.0645  -51.6051  -36.8534 H   0  0  0  0  0  0  0  0  0  0  0  0
   -1.0561  -50.5561  -38.2758 H   0  0  0  0  0  0  0  0  0  0  0  0
   -3.3308  -51.3841  -38.9009 H   0  0  0  0  0  0  0  0  0  0  0  0
   -3.3412  -52.4319  -37.4776 H   0  0  0  0  0  0  0  0  0  0  0  0
   -1.2921  -53.5937  -38.3190 H   0  0  0  0  0  0  0  0  0  0  0  0
   -1.2839  -52.5468  -39.7430 H   0  0  0  0  0  0  0  0  0  0  0  0
   -3.5606  -53.3757  -40.3644 H   0  0  0  0  0  0  0  0  0  0  0  0
   -3.5669  -54.4238  -38.9413 H   0  0  0  0  0  0  0  0  0  0  0  0
   -1.5200  -55.5845  -39.7861 H   0  0  0  0  0  0  0  0  0  0  0  0
   -1.5116  -54.5355  -41.2086 H   0  0  0  0  0  0  0  0  0  0  0  0
   -3.7863  -55.3634  -41.8337 H   0  0  0  0  0  0  0  0  0  0  0  0
   -3.7967  -56.4113  -40.4104 H   0  0  0  0  0  0  0  0  0  0  0  0
   -1.7498  -57.5749  -41.2512 H   0  0  0  0  0  0  0  0  0  0  0  0
   -1.7373  -56.5262  -42.6739 H   0  0  0  0  0  0  0  0  0  0  0  0
   -4.0120  -57.3512  -43.3030 H   0  0  0  0  0  0  0  0  0  0  0  0
   -4.0264  -58.3987  -41.8795 H   0  0  0  0  0  0  0  0  0  0  0  0
   -1.9774  -59.5635  -42.7168 H   0  0  0  0  0  0  0  0  0  0  0  0
   -1.9651  -58.5170  -44.1411 H   0  0  0  0  0  0  0  0  0  0  0  0
   -4.2409  -59.3431  -44.7676 H   0  0  0  0  0  0  0  0  0  0  0  0
   -4.2531  -60.3895  -43.3433 H   0  0  0  0  0  0  0  0  0  0  0  0
   -2.2041  -61.5535  -44.1818 H   0  0  0  0  0  0  0  0  0  0  0  0
   -2.1940  -60.5080  -45.6068 H   0  0  0  0  0  0  0  0  0  0  0  0
   -4.4688  -61.3363  -46.2316 H   0  0  0  0  0  0  0  0  0  0  0  0
   -4.4808  -62.3805  -44.8056 H   0  0  0  0  0  0  0  0  0  0  0  0
   -2.4318  -63.5456  -45.6426 H   0  0  0  0  0  0  0  0  0  0  0  0
   -2.4220  -62.5024  -47.0692 H   0  0  0  0  0  0  0  0  0  0  0  0
   -4.6985  -63.3317  -47.6903 H   0  0  0  0  0  0  0  0  0  0  0  0
   -4.7064  -64.3761  -46.2646 H   0  0  0  0  0  0  0  0  0  0  0  0
   -2.6576  -65.5387  -47.1059 H   0  0  0  0  0  0  0  0  0  0  0  0
   -2.6519  -64.4952  -48.5323 H   0  0  0  0  0  0  0  0  0  0  0  0
   -4.9279  -65.3280  -49.1507 H   0  0  0  0  0  0  0  0  0  0  0  0
   -4.9336  -66.3715  -47.7241 H   0  0  0  0  0  0  0  0  0  0  0  0
   -2.8843  -67.5330  -48.5670 H   0  0  0  0  0  0  0  0  0  0  0  0
   -2.8807  -66.4907  -49.9937 H   0  0  0  0  0  0  0  0  0  0  0  0
   -5.1565  -67.3285  -50.6096 H   0  0  0  0  0  0  0  0  0  0  0  0
   -5.1581  -68.3714  -49.1847 H   0  0  0  0  0  0  0  0  0  0  0  0
   -3.1062  -69.5315  -50.0309 H   0  0  0  0  0  0  0  0  0  0  0  0
   -3.1046  -68.4881  -51.4566 H   0  0  0  0  0  0  0  0  0  0  0  0
   -5.3799  -69.3262  -52.0730 H   0  0  0  0  0  0  0  0  0  0  0  0
   -5.3817  -70.3701  -50.6468 H   0  0  0  0  0  0  0  0  0  0  0  0
   -3.3384  -71.5339  -51.4971 H   0  0  0  0  0  0  0  0  0  0  0  0
   -3.3349  -70.4908  -52.9203 H   0  0  0  0  0  0  0  0  0  0  0  0
   -5.6147  -71.3316  -53.5438 H   0  0  0  0  0  0  0  0  0  0  0  0
   -5.6191  -72.3756  -52.1193 H   0  0  0  0  0  0  0  0  0  0  0  0
   -3.5734  -72.4946  -54.3950 H   0  0  0  0  0  0  0  0  0  0  0  0
   -4.9058  -73.6388  -54.1375 H   0  0  0  0  0  0  0  0  0  0  0  0
   -3.5776  -73.5432  -52.9640 H   0  0  0  0  0  0  0  0  0  0  0  0
  1  2  1  0  0  0  0
  1 80  1  0  0  0  0
  2  3  1  0  0  0  0
  2  4  1  0  0  0  0
  3  4  2  0  0  0  0
  3 81  1  0  0  0  0
  4  5  1  0  0  0  0
  5  6  1  0  0  0  0
  5 82  1  0  0  0  0
  5 83  1  0  0  0  0
  6  7  1  0  0  0  0
  7  8  1  0  0  0  0
  7 84  1  0  0  0  0
  7 85  1  0  0  0  0
  8  9  1  0  0  0  0
  9 10  1  0  0  0  0
  9 86  1  0  0  0  0
  9 87  1  0  0  0  0
 10 11  1  0  0  0  0
 11 12  1  0  0  0  0
 11 88  1  0  0  0  0
 11 89  1  0  0  0  0
 12 13  1  0  0  0  0
 13 14  1  0  0  0  0
 13 90  1  0  0  0  0
 13 91  1  0  0  0  0
 14 15  1  0  0  0  0
 15 16  1  0  0  0  0
 15 92  1  0  0  0  0
 15 93  1  0  0  0  0
 16 17  1  0  0  0  0
 17 18  1  0  0  0  0
 17 94  1  0  0  0  0
 17 95  1  0  0  0  0
 18 19  1  0  0  0  0
 19 20  1  0  0  0  0
 19 96  1  0  0  0  0
 19 97  1  0  0  0  0
 20 21  1  0  0  0  0
 21 22  1  0  0  0  0
 21 98  1  0  0  0  0
 21 99  1  0  0  0  0
 22 23  1  0  0  0  0
 23 24  1  0  0  0  0
 23100  1  0  0  0  0
 23101  1  0  0  0  0
 24 25  1  0  0  0  0
 25 26  1  0  0  0  0
 25102  1  0  0  0  0
 25103  1  0  0  0  0
 26 27  1  0  0  0  0
 27 28  1  0  0  0  0
 28 29  1  0  0  0  0
 29 30  1  0  0  0  0
 30 31  1  0  0  0  0
 31 32  1  0  0  0  0
 32 33  1  0  0  0  0
 33 34  1  0  0  0  0
 34 35  1  0  0  0  0
 35 36  1  0  0  0  0
 36 37  1  0  0  0  0
 37 38  1  0  0  0  0
 37104  1  0  0  0  0
 37105  1  0  0  0  0
 38 39  1  0  0  0  0
 38106  1  0  0  0  0
 38107  1  0  0  0  0
 39 40  1  0  0  0  0
 39108  1  0  0  0  0
 39109  1  0  0  0  0
 40 41  1  0  0  0  0
 40110  1  0  0  0  0
 40111  1  0  0  0  0
 41 42  1  0  0  0  0
 41112  1  0  0  0  0
 41113  1  0  0  0  0
 42 43  1  0  0  0  0
 42114  1  0  0  0  0
 42115  1  0  0  0  0
 43 44  1  0  0  0  0
 43116  1  0  0  0  0
 43117  1  0  0  0  0
 44 45  1  0  0  0  0
 44118  1  0  0  0  0
 44119  1  0  0  0  0
 45 46  1  0  0  0  0
 45120  1  0  0  0  0
 45121  1  0  0  0  0
 46 47  1  0  0  0  0
 46122  1  0  0  0  0
 46123  1  0  0  0  0
 47 48  1  0  0  0  0
 47124  1  0  0  0  0
 47125  1  0  0  0  0
 48 49  1  0  0  0  0
 48126  1  0  0  0  0
 48127  1  0  0  0  0
 49 50  1  0  0  0  0
 49128  1  0  0  0  0
 49129  1  0  0  0  0
 50 51  1  0  0  0  0
 50130  1  0  0  0  0
 50131  1  0  0  0  0
 51 52  1  0  0  0  0
 51132  1  0  0  0  0
 51133  1  0  0  0  0
 52 53  1  0  0  0  0
 52134  1  0  0  0  0
 52135  1  0  0  0  0
 53 54  1  0  0  0  0
 53136  1  0  0  0  0
 53137  1  0  0  0  0
 54 55  1  0  0  0  0
 54138  1  0  0  0  0
 54139  1  0  0  0  0
 55 56  1  0  0  0  0
 55140  1  0  0  0  0
 55141  1  0  0  0  0
 56 57  1  0  0  0  0
 56142  1  0  0  0  0
 56143  1  0  0  0  0
 57 58  1  0  0  0  0
 57144  1  0  0  0  0
 57145  1  0  0  0  0
 58 59  1  0  0  0  0
 58146  1  0  0  0  0
 58147  1  0  0  0  0
 59 60  1  0  0  0  0
 59148  1  0  0  0  0
 59149  1  0  0  0  0
 60 61  1  0  0  0  0
 60150  1  0  0  0  0
 60151  1  0  0  0  0
 61 62  1  0  0  0  0
 61152  1  0  0  0  0
 61153  1  0  0  0  0
 62 63  1  0  0  0  0
 62154  1  0  0  0  0
 62155  1  0  0  0  0
 63 64  1  0  0  0  0
 63156  1  0  0  0  0
 63157  1  0  0  0  0
 64 65  1  0  0  0  0
 64158  1  0  0  0  0
 64159  1  0  0  0  0
 65 66  1  0  0  0  0
 65160  1  0  0  0  0
 65161  1  0  0  0  0
 66 67  1  0  0  0  0
 66162  1  0  0  0  0
 66163  1  0  0  0  0
 67 68  1  0  0  0  0
 67164  1  0  0  0  0
 67165  1  0  0  0  0
 68 69  1  0  0  0  0
 68166  1  0  0  0  0
 68167  1  0  0  0  0
 69 70  1  0  0  0  0
 69168  1  0  0  0  0
 69169  1  0  0  0  0
 70 71  1  0  0  0  0
 70170  1  0  0  0  0
 70171  1  0  0  0  0
 71 72  1  0  0  0  0
 71172  1  0  0  0  0
 71173  1  0  0  0  0
 72 73  1  0  0  0  0
 72174  1  0  0  0  0
 72175  1  0  0  0  0
 73 74  1  0  0  0  0
 73176  1  0  0  0  0
 73177  1  0  0  0  0
 74 75  1  0  0  0  0
 74178  1  0  0  0  0
 74179  1  0  0  0  0
 75 76  1  0  0  0  0
 75180  1  0  0  0  0
 75181  1  0  0  0  0
 76 77  1  0  0  0  0
 76182  1  0  0  0  0
 76183  1  0  0  0  0
 77 78  1  0  0  0  0
 77184  1  0  0  0  0
 77185  1  0  0  0  0
 78 79  1  0  0  0  0
 78186  1  0  0  0  0
 78187  1  0  0  0  0
 79188  1  0  0  0  0
 79189  1  0  0  0  0
 79190  1  0  0  0  0
M  END
$$$$
