
 OpenBabel04232216573D

140139  0  0  0  0  0  0  0  0999 V2000
   18.1083    6.5873   21.4621 N   0  0  0  0  0  0  0  0  0  0  0  0
   17.9115    7.6623   20.4699 C   0  0  0  0  0  0  0  0  0  0  0  0
   18.4681    7.3389   19.0704 C   0  0  0  0  0  0  0  0  0  0  0  0
   18.1466    8.4546   18.0548 C   0  0  0  0  0  0  0  0  0  0  0  0
   18.6476    8.1253   16.6391 C   0  0  0  0  0  0  0  0  0  0  0  0
   18.0744    9.0703   15.6750 N   0  0  0  0  0  0  0  0  0  0  0  0
   18.6041    8.7980   14.3853 N   0  0  0  0  0  0  0  0  0  0  0  0
   18.3675    9.8931   13.5001 N   0  0  0  0  0  0  0  0  0  0  0  0
   19.1292   11.0417   13.8480 N   0  0  0  0  0  0  0  0  0  0  0  0
   20.5330   10.7332   13.8872 N   0  0  0  0  0  0  0  0  0  0  0  0
   21.1286   10.6721   12.5490 N   0  0  0  0  0  0  0  0  0  0  0  0
   20.8564   11.8412   11.7515 N   0  0  0  0  0  0  0  0  0  0  0  0
   21.5110   13.0408   12.2041 N   0  0  0  0  0  0  0  0  0  0  0  0
   22.9282   12.8703   12.2508 N   0  0  0  0  0  0  0  0  0  0  0  0
   23.3608   12.3564   10.9913 N   0  0  0  0  0  0  0  0  0  0  0  0
   23.1300   13.3245    9.9449 N   0  0  0  0  0  0  0  0  0  0  0  0
   23.7449   14.5811   10.2833 N   0  0  0  0  0  0  0  0  0  0  0  0
   25.1513   14.4992   10.2226 N   0  0  0  0  0  0  0  0  0  0  0  0
   25.4906   14.0274    8.9293 N   0  0  0  0  0  0  0  0  0  0  0  0
   25.2050   15.0959    7.9586 N   0  0  0  0  0  0  0  0  0  0  0  0
   25.7702   16.3499    8.4129 N   0  0  0  0  0  0  0  0  0  0  0  0
   27.1731   16.2626    8.5447 N   0  0  0  0  0  0  0  0  0  0  0  0
   27.7953   15.9564    7.3119 N   0  0  0  0  0  0  0  0  0  0  0  0
   27.3262   16.8524    6.2826 N   0  0  0  0  0  0  0  0  0  0  0  0
   27.8250   18.1602    6.5409 N   0  0  0  0  0  0  0  0  0  0  0  0
   29.2407   18.1472    6.4937 N   0  0  0  0  0  0  0  0  0  0  0  0
   29.6548   17.4693    5.3127 N   0  0  0  0  0  0  0  0  0  0  0  0
   29.2245   18.2501    4.2009 N   0  0  0  0  0  0  0  0  0  0  0  0
   29.6321   19.6251    4.4419 N   0  0  0  0  0  0  0  0  0  0  0  0
   31.0435   19.7641    4.4363 N   0  0  0  0  0  0  0  0  0  0  0  0
   31.5597   19.3253    3.1805 N   0  0  0  0  0  0  0  0  0  0  0  0
   31.1828   20.2415    2.1268 N   0  0  0  0  0  0  0  0  0  0  0  0
   31.6822   21.5604    2.3925 N   0  0  0  0  0  0  0  0  0  0  0  0
   33.1112   21.4927    2.3584 N   0  0  0  0  0  0  0  0  0  0  0  0
   33.5573   20.8791    1.1074 N   0  0  0  0  0  0  0  0  0  0  0  0
   33.2360   21.6621   -0.0450 N   0  0  0  0  0  0  0  0  0  0  0  0
   33.5968   23.0220    0.1116 N   0  0  0  0  0  0  0  0  0  0  0  0
   35.0239   23.1247    0.1269 N   0  0  0  0  0  0  0  0  0  0  0  0
   35.5859   22.3253   -0.9523 N   0  0  0  0  0  0  0  0  0  0  0  0
   35.2905   22.8756   -2.2521 N   0  0  0  0  0  0  0  0  0  0  0  0
   35.5737   24.2837   -2.2856 N   0  0  0  0  0  0  0  0  0  0  0  0
   36.9723   24.5038   -2.1984 N   0  0  0  0  0  0  0  0  0  0  0  0
   37.5225   24.0803   -3.4029 N   0  0  0  0  0  0  0  0  0  0  0  0
   39.1393   23.9248   -3.4105 S   0  0  0  0  0  0  0  0  0  0  0  0
   39.4325   23.1578   -4.8473 N   0  0  0  0  0  0  0  0  0  0  0  0
   39.0089   21.5494   -4.8209 S   0  0  0  0  0  0  0  0  0  0  0  0
   37.3460   21.4260   -4.7296 N   0  0  0  0  0  0  0  0  0  0  0  0
   36.5080   21.8361   -6.0947 S   0  0  0  0  0  0  0  0  0  0  0  0
   37.3218   21.3200   -7.4367 N   0  0  0  0  0  0  0  0  0  0  0  0
   37.2143   19.7038   -7.7693 S   0  0  0  0  0  0  0  0  0  0  0  0
   35.6444   19.2636   -7.8677 N   0  0  0  0  0  0  0  0  0  0  0  0
   34.9501   19.3646   -9.3506 S   0  0  0  0  0  0  0  0  0  0  0  0
   33.3462   19.1782   -9.0294 N   0  0  0  0  0  0  0  0  0  0  0  0
   32.8308   17.6282   -8.7861 S   0  0  0  0  0  0  0  0  0  0  0  0
   33.4878   17.0370   -7.3831 N   0  0  0  0  0  0  0  0  0  0  0  0
   33.0622   17.7455   -5.9594 S   0  0  0  0  0  0  0  0  0  0  0  0
   31.4593   17.4771   -5.6887 N   0  0  0  0  0  0  0  0  0  0  0  0
   31.0659   17.7415   -4.1078 S   0  0  0  0  0  0  0  0  0  0  0  0
   30.7797   19.3598   -4.0548 N   0  0  0  0  0  0  0  0  0  0  0  0
   30.4519   19.9038   -2.5402 S   0  0  0  0  0  0  0  0  0  0  0  0
   30.3023   21.5532   -2.6418 N   0  0  0  0  0  0  0  0  0  0  0  0
   31.7495   22.3351   -2.8739 S   0  0  0  0  0  0  0  0  0  0  0  0
   32.2606   22.1197   -4.4280 N   0  0  0  0  0  0  0  0  0  0  0  0
   31.4902   23.1258   -5.4792 S   0  0  0  0  0  0  0  0  0  0  0  0
   31.9861   22.1902   -7.2382 S   0  0  0  0  0  0  0  0  0  0  0  0
   31.1121   20.3591   -7.0610 S   0  0  0  0  0  0  0  0  0  0  0  0
   29.2765   20.1965   -7.9211 S   0  0  0  0  0  0  0  0  0  0  0  0
   29.1418   18.2592   -8.6967 S   0  0  0  0  0  0  0  0  0  0  0  0
   28.1191   17.0633   -7.3305 S   0  0  0  0  0  0  0  0  0  0  0  0
   28.1894   15.0977   -8.0306 S   0  0  0  0  0  0  0  0  0  0  0  0
   26.2926   14.4981   -8.6624 S   0  0  0  0  0  0  0  0  0  0  0  0
   26.0754   12.4776   -8.1499 S   0  0  0  0  0  0  0  0  0  0  0  0
   24.0759   11.9593   -8.4295 S   0  0  0  0  0  0  0  0  0  0  0  0
   23.9699    9.9197   -8.8537 S   0  0  0  0  0  0  0  0  0  0  0  0
   21.9530    9.4067   -8.7713 S   0  0  0  0  0  0  0  0  0  0  0  0
   21.7966    7.3872   -9.2243 S   0  0  0  0  0  0  0  0  0  0  0  0
   19.7755    6.9328   -9.1682 S   0  0  0  0  0  0  0  0  0  0  0  0
   19.6301    4.8722   -9.2031 S   0  0  0  0  0  0  0  0  0  0  0  0
   17.7121    4.4509   -9.8311 S   0  0  0  0  0  0  0  0  0  0  0  0
   17.5237    2.4031   -9.7423 S   0  0  0  0  0  0  0  0  0  0  0  0
   18.1529    1.7261  -11.5755 S   0  0  0  0  0  0  0  0  0  0  0  0
   17.7494    6.9111   22.3576 H   0  0  0  0  0  0  0  0  0  0  0  0
   19.1049    6.4277   21.6085 H   0  0  0  0  0  0  0  0  0  0  0  0
   18.3789    8.5825   20.8397 H   0  0  0  0  0  0  0  0  0  0  0  0
   16.8361    7.8564   20.3890 H   0  0  0  0  0  0  0  0  0  0  0  0
   18.0320    6.3992   18.7124 H   0  0  0  0  0  0  0  0  0  0  0  0
   19.5550    7.1971   19.1217 H   0  0  0  0  0  0  0  0  0  0  0  0
   18.5952    9.4003   18.3850 H   0  0  0  0  0  0  0  0  0  0  0  0
   17.0600    8.6093   18.0272 H   0  0  0  0  0  0  0  0  0  0  0  0
   18.3281    7.1110   16.3683 H   0  0  0  0  0  0  0  0  0  0  0  0
   19.7453    8.1509   16.6227 H   0  0  0  0  0  0  0  0  0  0  0  0
   18.2636   10.0290   15.9604 H   0  0  0  0  0  0  0  0  0  0  0  0
   18.1854    7.9314   14.0107 H   0  0  0  0  0  0  0  0  0  0  0  0
   17.3593   10.1053   13.4245 H   0  0  0  0  0  0  0  0  0  0  0  0
   18.8203   11.4690   14.7284 H   0  0  0  0  0  0  0  0  0  0  0  0
   20.6937    9.8464   14.3819 H   0  0  0  0  0  0  0  0  0  0  0  0
   20.8353    9.8131   12.0550 H   0  0  0  0  0  0  0  0  0  0  0  0
   19.8538   11.9749   11.5475 H   0  0  0  0  0  0  0  0  0  0  0  0
   21.1407   13.4265   13.0819 H   0  0  0  0  0  0  0  0  0  0  0  0
   23.2063   12.2051   12.9719 H   0  0  0  0  0  0  0  0  0  0  0  0
   22.8206   11.5029   10.8071 H   0  0  0  0  0  0  0  0  0  0  0  0
   22.1427   13.5074    9.8419 H   0  0  0  0  0  0  0  0  0  0  0  0
   23.4010   14.8661   11.2071 H   0  0  0  0  0  0  0  0  0  0  0  0
   25.5719   13.8792   10.9002 H   0  0  0  0  0  0  0  0  0  0  0  0
   24.9394   13.1857    8.7387 H   0  0  0  0  0  0  0  0  0  0  0  0
   24.1875   15.2204    7.9179 H   0  0  0  0  0  0  0  0  0  0  0  0
   25.3692   16.6107    9.3273 H   0  0  0  0  0  0  0  0  0  0  0  0
   27.4762   15.6584    9.3153 H   0  0  0  0  0  0  0  0  0  0  0  0
   27.6764   15.0249    6.9450 H   0  0  0  0  0  0  0  0  0  0  0  0
   26.3013   16.8371    6.3354 H   0  0  0  0  0  0  0  0  0  0  0  0
   27.4960   18.4671    7.4624 H   0  0  0  0  0  0  0  0  0  0  0  0
   29.6824   17.6714    7.2664 H   0  0  0  0  0  0  0  0  0  0  0  0
   29.2007   16.5512    5.2984 H   0  0  0  0  0  0  0  0  0  0  0  0
   28.2000   18.2452    4.1873 H   0  0  0  0  0  0  0  0  0  0  0  0
   29.3723   19.8124    5.4100 H   0  0  0  0  0  0  0  0  0  0  0  0
   31.4520   19.2403    5.2239 H   0  0  0  0  0  0  0  0  0  0  0  0
   31.1449   18.4067    2.9830 H   0  0  0  0  0  0  0  0  0  0  0  0
   30.1788   20.3373    2.1110 H   0  0  0  0  0  0  0  0  0  0  0  0
   31.3445   21.7668    3.3433 H   0  0  0  0  0  0  0  0  0  0  0  0
   33.3540   20.8404    3.1162 H   0  0  0  0  0  0  0  0  0  0  0  0
   33.0596   19.9791    1.0091 H   0  0  0  0  0  0  0  0  0  0  0  0
   32.2421   21.6437   -0.2349 H   0  0  0  0  0  0  0  0  0  0  0  0
   33.1903   23.2903    1.0203 H   0  0  0  0  0  0  0  0  0  0  0  0
   35.2937   22.6534    1.0007 H   0  0  0  0  0  0  0  0  0  0  0  0
   35.0887   21.4181   -0.8597 H   0  0  0  0  0  0  0  0  0  0  0  0
   34.2923   22.7309   -2.4488 H   0  0  0  0  0  0  0  0  0  0  0  0
   35.1674   24.6421   -1.4188 H   0  0  0  0  0  0  0  0  0  0  0  0
   37.2994   23.9242   -1.4205 H   0  0  0  0  0  0  0  0  0  0  0  0
   37.0973   24.5695   -4.1842 H   0  0  0  0  0  0  0  0  0  0  0  0
   40.4317   23.2354   -5.0347 H   0  0  0  0  0  0  0  0  0  0  0  0
   37.0142   21.9973   -3.9309 H   0  0  0  0  0  0  0  0  0  0  0  0
   38.3017   21.5744   -7.2958 H   0  0  0  0  0  0  0  0  0  0  0  0
   35.0447   19.6457   -7.1320 H   0  0  0  0  0  0  0  0  0  0  0  0
   32.7546   19.6230   -9.7225 H   0  0  0  0  0  0  0  0  0  0  0  0
   34.4906   17.1562   -7.4669 H   0  0  0  0  0  0  0  0  0  0  0  0
   31.1885   16.5562   -6.0108 H   0  0  0  0  0  0  0  0  0  0  0  0
   30.0635   19.5802   -4.7486 H   0  0  0  0  0  0  0  0  0  0  0  0
   29.8969   21.8899   -1.7669 H   0  0  0  0  0  0  0  0  0  0  0  0
   32.2827   21.1310   -4.7038 H   0  0  0  0  0  0  0  0  0  0  0  0
   17.9499    0.4083  -11.4190 H   0  0  0  0  0  0  0  0  0  0  0  0
  1  2  1  0  0  0  0
  1 82  1  0  0  0  0
  1 83  1  0  0  0  0
  2  3  1  0  0  0  0
  2 84  1  0  0  0  0
  2 85  1  0  0  0  0
  3  4  1  0  0  0  0
  3 86  1  0  0  0  0
  3 87  1  0  0  0  0
  4  5  1  0  0  0  0
  4 88  1  0  0  0  0
  4 89  1  0  0  0  0
  5  6  1  0  0  0  0
  5 90  1  0  0  0  0
  5 91  1  0  0  0  0
  6  7  1  0  0  0  0
  6 92  1  0  0  0  0
  7  8  1  0  0  0  0
  7 93  1  0  0  0  0
  8  9  1  0  0  0  0
  8 94  1  0  0  0  0
  9 10  1  0  0  0  0
  9 95  1  0  0  0  0
 10 11  1  0  0  0  0
 10 96  1  0  0  0  0
 11 12  1  0  0  0  0
 11 97  1  0  0  0  0
 12 13  1  0  0  0  0
 12 98  1  0  0  0  0
 13 14  1  0  0  0  0
 13 99  1  0  0  0  0
 14 15  1  0  0  0  0
 14100  1  0  0  0  0
 15 16  1  0  0  0  0
 15101  1  0  0  0  0
 16 17  1  0  0  0  0
 16102  1  0  0  0  0
 17 18  1  0  0  0  0
 17103  1  0  0  0  0
 18 19  1  0  0  0  0
 18104  1  0  0  0  0
 19 20  1  0  0  0  0
 19105  1  0  0  0  0
 20 21  1  0  0  0  0
 20106  1  0  0  0  0
 21 22  1  0  0  0  0
 21107  1  0  0  0  0
 22 23  1  0  0  0  0
 22108  1  0  0  0  0
 23 24  1  0  0  0  0
 23109  1  0  0  0  0
 24 25  1  0  0  0  0
 24110  1  0  0  0  0
 25 26  1  0  0  0  0
 25111  1  0  0  0  0
 26 27  1  0  0  0  0
 26112  1  0  0  0  0
 27 28  1  0  0  0  0
 27113  1  0  0  0  0
 28 29  1  0  0  0  0
 28114  1  0  0  0  0
 29 30  1  0  0  0  0
 29115  1  0  0  0  0
 30 31  1  0  0  0  0
 30116  1  0  0  0  0
 31 32  1  0  0  0  0
 31117  1  0  0  0  0
 32 33  1  0  0  0  0
 32118  1  0  0  0  0
 33 34  1  0  0  0  0
 33119  1  0  0  0  0
 34 35  1  0  0  0  0
 34120  1  0  0  0  0
 35 36  1  0  0  0  0
 35121  1  0  0  0  0
 36 37  1  0  0  0  0
 36122  1  0  0  0  0
 37 38  1  0  0  0  0
 37123  1  0  0  0  0
 38 39  1  0  0  0  0
 38124  1  0  0  0  0
 39 40  1  0  0  0  0
 39125  1  0  0  0  0
 40 41  1  0  0  0  0
 40126  1  0  0  0  0
 41 42  1  0  0  0  0
 41127  1  0  0  0  0
 42 43  1  0  0  0  0
 42128  1  0  0  0  0
 43 44  1  0  0  0  0
 43129  1  0  0  0  0
 44 45  1  0  0  0  0
 45 46  1  0  0  0  0
 45130  1  0  0  0  0
 46 47  1  0  0  0  0
 47 48  1  0  0  0  0
 47131  1  0  0  0  0
 48 49  1  0  0  0  0
 49 50  1  0  0  0  0
 49132  1  0  0  0  0
 50 51  1  0  0  0  0
 51 52  1  0  0  0  0
 51133  1  0  0  0  0
 52 53  1  0  0  0  0
 53 54  1  0  0  0  0
 53134  1  0  0  0  0
 54 55  1  0  0  0  0
 55 56  1  0  0  0  0
 55135  1  0  0  0  0
 56 57  1  0  0  0  0
 57 58  1  0  0  0  0
 57136  1  0  0  0  0
 58 59  1  0  0  0  0
 59 60  1  0  0  0  0
 59137  1  0  0  0  0
 60 61  1  0  0  0  0
 61 62  1  0  0  0  0
 61138  1  0  0  0  0
 62 63  1  0  0  0  0
 63 64  1  0  0  0  0
 63139  1  0  0  0  0
 64 65  1  0  0  0  0
 65 66  1  0  0  0  0
 66 67  1  0  0  0  0
 67 68  1  0  0  0  0
 68 69  1  0  0  0  0
 69 70  1  0  0  0  0
 70 71  1  0  0  0  0
 71 72  1  0  0  0  0
 72 73  1  0  0  0  0
 73 74  1  0  0  0  0
 74 75  1  0  0  0  0
 75 76  1  0  0  0  0
 76 77  1  0  0  0  0
 77 78  1  0  0  0  0
 78 79  1  0  0  0  0
 79 80  1  0  0  0  0
 80 81  1  0  0  0  0
 81140  1  0  0  0  0
M  END
$$$$
