
 OpenBabel04232216533D

106105  0  0  0  0  0  0  0  0999 V2000
   30.9058  -11.8120   -7.8214 C   0  0  0  0  0  0  0  0  0  0  0  0
   30.3737  -10.5232   -8.3940 C   0  0  0  0  0  0  0  0  0  0  0  0
   28.8578  -10.5418   -8.4848 C   0  0  0  0  0  0  0  0  0  0  0  0
   28.3192   -9.2581   -9.0708 C   0  0  0  0  0  0  0  0  0  0  0  0
   26.8054   -9.2730   -9.1487 C   0  0  0  0  0  0  0  0  0  0  0  0
   26.2761   -7.9828   -9.7443 C   0  0  0  0  0  0  0  0  0  0  0  0
   24.8238   -8.0678   -9.7959 N   0  0  0  0  0  0  0  0  0  0  0  0
   24.3148   -6.8302  -10.3521 N   0  0  0  0  0  0  0  0  0  0  0  0
   22.8943   -6.8444  -10.4350 N   0  0  0  0  0  0  0  0  0  0  0  0
   22.4223   -5.6318  -10.9904 N   0  0  0  0  0  0  0  0  0  0  0  0
   21.0247   -5.6791  -11.0520 N   0  0  0  0  0  0  0  0  0  0  0  0
   20.5518   -4.4791  -11.5926 N   0  0  0  0  0  0  0  0  0  0  0  0
   19.1449   -4.5208  -11.6965 N   0  0  0  0  0  0  0  0  0  0  0  0
   18.6026   -3.3075  -12.2389 N   0  0  0  0  0  0  0  0  0  0  0  0
   19.0661   -3.0417  -13.5606 N   0  0  0  0  0  0  0  0  0  0  0  0
   18.5475   -1.8288  -14.0956 N   0  0  0  0  0  0  0  0  0  0  0  0
   18.9004   -0.6862  -13.2877 N   0  0  0  0  0  0  0  0  0  0  0  0
   18.2978    0.6922  -14.0080 S   0  0  0  0  0  0  0  0  0  0  0  0
   18.9417    2.1697  -12.7384 S   0  0  0  0  0  0  0  0  0  0  0  0
   21.0075    2.2011  -12.7584 S   0  0  0  0  0  0  0  0  0  0  0  0
   21.6891    2.6014  -14.6750 S   0  0  0  0  0  0  0  0  0  0  0  0
   23.7912    2.5686  -14.6398 S   0  0  0  0  0  0  0  0  0  0  0  0
   24.4909    2.9104  -16.5997 S   0  0  0  0  0  0  0  0  0  0  0  0
   26.6010    2.9084  -16.5860 S   0  0  0  0  0  0  0  0  0  0  0  0
   27.2930    3.2502  -18.5509 S   0  0  0  0  0  0  0  0  0  0  0  0
   29.4032    3.2481  -18.5389 S   0  0  0  0  0  0  0  0  0  0  0  0
   30.0942    3.5900  -20.5030 S   0  0  0  0  0  0  0  0  0  0  0  0
   32.2038    3.5877  -20.4902 S   0  0  0  0  0  0  0  0  0  0  0  0
   32.8946    3.9295  -22.4539 S   0  0  0  0  0  0  0  0  0  0  0  0
   35.0041    3.9272  -22.4409 S   0  0  0  0  0  0  0  0  0  0  0  0
   35.6947    4.2690  -24.4046 S   0  0  0  0  0  0  0  0  0  0  0  0
   37.8041    4.2667  -24.3915 S   0  0  0  0  0  0  0  0  0  0  0  0
   38.4947    4.6085  -26.3551 S   0  0  0  0  0  0  0  0  0  0  0  0
   40.6041    4.6062  -26.3421 S   0  0  0  0  0  0  0  0  0  0  0  0
   41.2947    4.9480  -28.3057 S   0  0  0  0  0  0  0  0  0  0  0  0
   43.4041    4.9457  -28.2927 S   0  0  0  0  0  0  0  0  0  0  0  0
   44.0947    5.2874  -30.2563 S   0  0  0  0  0  0  0  0  0  0  0  0
   46.2041    5.2852  -30.2433 S   0  0  0  0  0  0  0  0  0  0  0  0
   46.8947    5.6269  -32.2069 S   0  0  0  0  0  0  0  0  0  0  0  0
   49.0041    5.6247  -32.1938 S   0  0  0  0  0  0  0  0  0  0  0  0
   49.6947    5.9664  -34.1575 S   0  0  0  0  0  0  0  0  0  0  0  0
   51.8041    5.9641  -34.1444 S   0  0  0  0  0  0  0  0  0  0  0  0
   52.4947    6.3059  -36.1080 S   0  0  0  0  0  0  0  0  0  0  0  0
   54.6040    6.3036  -36.0950 S   0  0  0  0  0  0  0  0  0  0  0  0
   55.2947    6.6454  -38.0586 S   0  0  0  0  0  0  0  0  0  0  0  0
   57.4040    6.6431  -38.0456 S   0  0  0  0  0  0  0  0  0  0  0  0
   58.0947    6.9848  -40.0092 S   0  0  0  0  0  0  0  0  0  0  0  0
   60.2040    6.9826  -39.9962 S   0  0  0  0  0  0  0  0  0  0  0  0
   60.8947    7.3243  -41.9598 S   0  0  0  0  0  0  0  0  0  0  0  0
   63.0040    7.3221  -41.9467 S   0  0  0  0  0  0  0  0  0  0  0  0
   63.6946    7.6638  -43.9104 S   0  0  0  0  0  0  0  0  0  0  0  0
   65.8040    7.6615  -43.8973 S   0  0  0  0  0  0  0  0  0  0  0  0
   66.4946    8.0033  -45.8610 S   0  0  0  0  0  0  0  0  0  0  0  0
   68.6040    8.0010  -45.8479 S   0  0  0  0  0  0  0  0  0  0  0  0
   69.2946    8.3428  -47.8115 S   0  0  0  0  0  0  0  0  0  0  0  0
   71.4040    8.3405  -47.7985 S   0  0  0  0  0  0  0  0  0  0  0  0
   72.0946    8.6822  -49.7621 S   0  0  0  0  0  0  0  0  0  0  0  0
   74.2040    8.6800  -49.7491 S   0  0  0  0  0  0  0  0  0  0  0  0
   74.8946    9.0217  -51.7127 S   0  0  0  0  0  0  0  0  0  0  0  0
   77.0040    9.0195  -51.6996 S   0  0  0  0  0  0  0  0  0  0  0  0
   77.6946    9.3612  -53.6633 S   0  0  0  0  0  0  0  0  0  0  0  0
   79.8040    9.3589  -53.6502 S   0  0  0  0  0  0  0  0  0  0  0  0
   80.4946    9.7007  -55.6139 S   0  0  0  0  0  0  0  0  0  0  0  0
   82.6040    9.6984  -55.6008 S   0  0  0  0  0  0  0  0  0  0  0  0
   83.2946   10.0402  -57.5644 S   0  0  0  0  0  0  0  0  0  0  0  0
   85.4040   10.0379  -57.5514 S   0  0  0  0  0  0  0  0  0  0  0  0
   86.0946   10.3796  -59.5150 S   0  0  0  0  0  0  0  0  0  0  0  0
   88.2039   10.3774  -59.5020 S   0  0  0  0  0  0  0  0  0  0  0  0
   88.8946   10.7191  -61.4656 S   0  0  0  0  0  0  0  0  0  0  0  0
   91.0039   10.7168  -61.4525 S   0  0  0  0  0  0  0  0  0  0  0  0
   91.6944   11.0586  -63.4160 S   0  0  0  0  0  0  0  0  0  0  0  0
   93.8034   11.0563  -63.4028 S   0  0  0  0  0  0  0  0  0  0  0  0
   94.4933   11.3979  -65.3659 S   0  0  0  0  0  0  0  0  0  0  0  0
   96.6012   11.3955  -65.3519 S   0  0  0  0  0  0  0  0  0  0  0  0
   97.2891   11.7368  -67.3135 S   0  0  0  0  0  0  0  0  0  0  0  0
   99.3927   11.7341  -67.2954 S   0  0  0  0  0  0  0  0  0  0  0  0
  100.0731   12.0743  -69.2519 S   0  0  0  0  0  0  0  0  0  0  0  0
  102.1622   12.0442  -69.2211 S   0  0  0  0  0  0  0  0  0  0  0  0
  102.8352   12.4531  -71.1448 S   0  0  0  0  0  0  0  0  0  0  0  0
  104.9080   12.3861  -71.1055 S   0  0  0  0  0  0  0  0  0  0  0  0
  105.5065   13.9453  -69.9053 S   0  0  0  0  0  0  0  0  0  0  0  0
   31.9939  -11.7938   -7.7592 H   0  0  0  0  0  0  0  0  0  0  0  0
   30.6092  -12.6685   -8.4420 H   0  0  0  0  0  0  0  0  0  0  0  0
   30.5065  -11.9785   -6.8085 H   0  0  0  0  0  0  0  0  0  0  0  0
   30.8041  -10.3647   -9.4017 H   0  0  0  0  0  0  0  0  0  0  0  0
   30.7032   -9.6795   -7.7750 H   0  0  0  0  0  0  0  0  0  0  0  0
   28.4315  -10.7046   -7.4797 H   0  0  0  0  0  0  0  0  0  0  0  0
   28.5324  -11.3984   -9.1011 H   0  0  0  0  0  0  0  0  0  0  0  0
   28.7418   -9.0952  -10.0736 H   0  0  0  0  0  0  0  0  0  0  0  0
   28.6433   -8.3989   -8.4499 H   0  0  0  0  0  0  0  0  0  0  0  0
   26.3838   -9.4362   -8.1481 H   0  0  0  0  0  0  0  0  0  0  0  0
   26.4797  -10.1289   -9.7720 H   0  0  0  0  0  0  0  0  0  0  0  0
   26.6890   -7.8326  -10.7474 H   0  0  0  0  0  0  0  0  0  0  0  0
   26.5905   -7.1277   -9.1151 H   0  0  0  0  0  0  0  0  0  0  0  0
   24.4865   -8.1959   -8.8358 H   0  0  0  0  0  0  0  0  0  0  0  0
   24.6716   -6.7006  -11.3057 H   0  0  0  0  0  0  0  0  0  0  0  0
   22.4359   -6.9201   -9.5251 H   0  0  0  0  0  0  0  0  0  0  0  0
   22.7619   -5.4638  -11.9325 H   0  0  0  0  0  0  0  0  0  0  0  0
   20.6149   -5.8048  -10.1206 H   0  0  0  0  0  0  0  0  0  0  0  0
   20.9493   -4.3729  -12.5369 H   0  0  0  0  0  0  0  0  0  0  0  0
   18.7864   -4.6326  -10.7368 H   0  0  0  0  0  0  0  0  0  0  0  0
   18.9345   -2.5309  -11.6552 H   0  0  0  0  0  0  0  0  0  0  0  0
   18.8106   -3.8374  -14.1464 H   0  0  0  0  0  0  0  0  0  0  0  0
   17.5343   -1.9272  -14.1183 H   0  0  0  0  0  0  0  0  0  0  0  0
   19.9290   -0.6403  -13.2692 H   0  0  0  0  0  0  0  0  0  0  0  0
  106.8481   13.8346  -69.9496 H   0  0  0  0  0  0  0  0  0  0  0  0
  1  2  1  0  0  0  0
  1 82  1  0  0  0  0
  1 83  1  0  0  0  0
  1 84  1  0  0  0  0
  2  3  1  0  0  0  0
  2 85  1  0  0  0  0
  2 86  1  0  0  0  0
  3  4  1  0  0  0  0
  3 87  1  0  0  0  0
  3 88  1  0  0  0  0
  4  5  1  0  0  0  0
  4 89  1  0  0  0  0
  4 90  1  0  0  0  0
  5  6  1  0  0  0  0
  5 91  1  0  0  0  0
  5 92  1  0  0  0  0
  6  7  1  0  0  0  0
  6 93  1  0  0  0  0
  6 94  1  0  0  0  0
  7  8  1  0  0  0  0
  7 95  1  0  0  0  0
  8  9  1  0  0  0  0
  8 96  1  0  0  0  0
  9 10  1  0  0  0  0
  9 97  1  0  0  0  0
 10 11  1  0  0  0  0
 10 98  1  0  0  0  0
 11 12  1  0  0  0  0
 11 99  1  0  0  0  0
 12 13  1  0  0  0  0
 12100  1  0  0  0  0
 13 14  1  0  0  0  0
 13101  1  0  0  0  0
 14 15  1  0  0  0  0
 14102  1  0  0  0  0
 15 16  1  0  0  0  0
 15103  1  0  0  0  0
 16 17  1  0  0  0  0
 16104  1  0  0  0  0
 17 18  1  0  0  0  0
 17105  1  0  0  0  0
 18 19  1  0  0  0  0
 19 20  1  0  0  0  0
 20 21  1  0  0  0  0
 21 22  1  0  0  0  0
 22 23  1  0  0  0  0
 23 24  1  0  0  0  0
 24 25  1  0  0  0  0
 25 26  1  0  0  0  0
 26 27  1  0  0  0  0
 27 28  1  0  0  0  0
 28 29  1  0  0  0  0
 29 30  1  0  0  0  0
 30 31  1  0  0  0  0
 31 32  1  0  0  0  0
 32 33  1  0  0  0  0
 33 34  1  0  0  0  0
 34 35  1  0  0  0  0
 35 36  1  0  0  0  0
 36 37  1  0  0  0  0
 37 38  1  0  0  0  0
 38 39  1  0  0  0  0
 39 40  1  0  0  0  0
 40 41  1  0  0  0  0
 41 42  1  0  0  0  0
 42 43  1  0  0  0  0
 43 44  1  0  0  0  0
 44 45  1  0  0  0  0
 45 46  1  0  0  0  0
 46 47  1  0  0  0  0
 47 48  1  0  0  0  0
 48 49  1  0  0  0  0
 49 50  1  0  0  0  0
 50 51  1  0  0  0  0
 51 52  1  0  0  0  0
 52 53  1  0  0  0  0
 53 54  1  0  0  0  0
 54 55  1  0  0  0  0
 55 56  1  0  0  0  0
 56 57  1  0  0  0  0
 57 58  1  0  0  0  0
 58 59  1  0  0  0  0
 59 60  1  0  0  0  0
 60 61  1  0  0  0  0
 61 62  1  0  0  0  0
 62 63  1  0  0  0  0
 63 64  1  0  0  0  0
 64 65  1  0  0  0  0
 65 66  1  0  0  0  0
 66 67  1  0  0  0  0
 67 68  1  0  0  0  0
 68 69  1  0  0  0  0
 69 70  1  0  0  0  0
 70 71  1  0  0  0  0
 71 72  1  0  0  0  0
 72 73  1  0  0  0  0
 73 74  1  0  0  0  0
 74 75  1  0  0  0  0
 75 76  1  0  0  0  0
 76 77  1  0  0  0  0
 77 78  1  0  0  0  0
 78 79  1  0  0  0  0
 79 80  1  0  0  0  0
 80 81  1  0  0  0  0
 81106  1  0  0  0  0
M  END
$$$$
