
 OpenBabel04232216443D

 61 64  0  0  1  0  0  0  0  0999 V2000
    3.3078   -3.6612   -1.6564 C   0  0  0  0  0  0  0  0  0  0  0  0
    4.4607   -4.0096   -0.6600 C   0  0  0  0  0  0  0  0  0  0  0  0
    4.1653   -3.2720    0.6770 C   0  0  0  0  0  0  0  0  0  0  0  0
    4.8735   -2.1410    1.5968 N   0  0  0  0  0  0  0  0  0  0  0  0
    5.5460   -0.9667    0.9103 C   0  0  0  0  0  0  0  0  0  0  0  0
    6.6576   -0.3125    1.7875 C   0  0  0  0  0  0  0  0  0  0  0  0
    6.1163    0.3779    3.0311 C   0  0  0  0  0  0  0  0  0  0  0  0
    5.4497   -0.6863    3.8331 C   0  0  0  0  0  0  0  0  0  0  0  0
    4.2906   -1.3654    3.0098 C   0  0  3  0  0  0  0  0  0  0  0  0
    3.3849   -1.8936    4.1572 C   0  0  0  0  0  0  0  0  0  0  0  0
    1.9254   -1.4769    4.0104 C   0  0  0  0  0  0  0  0  0  0  0  0
    1.2445   -2.4503    3.0925 C   0  0  0  0  0  0  0  0  0  0  0  0
    1.7985   -2.4359    1.6297 C   0  0  0  0  0  0  0  0  0  0  0  0
    2.8312   -3.5481    1.3453 C   0  0  0  0  0  0  0  0  0  0  0  0
    2.7318   -4.7153    2.0234 C   0  0  0  0  0  0  0  0  0  0  0  0
    3.9469   -5.4363    2.2825 C   0  0  0  0  0  0  0  0  0  0  0  0
    4.2820   -6.4062    1.4424 C   0  0  0  0  0  0  0  0  0  0  0  0
    5.6523   -6.4921    1.0071 C   0  0  0  0  0  0  0  0  0  0  0  0
    5.9607   -6.3769   -0.2886 C   0  0  0  0  0  0  0  0  0  0  0  0
    7.2745   -6.9332   -0.8415 C   0  0  0  0  0  0  0  0  0  0  0  0
    7.4051   -8.4348   -0.5986 C   0  0  0  0  0  0  0  0  0  0  0  0
    8.2734   -9.2090   -1.2775 C   0  0  0  0  0  0  0  0  0  0  0  0
    7.7338  -10.4418   -1.8700 C   0  0  0  0  0  0  0  0  0  0  0  0
    6.9819  -10.0954   -2.9469 C   0  0  0  0  0  0  0  0  0  0  0  0
    5.6195   -9.4371   -2.8930 C   0  0  0  0  0  0  0  0  0  0  0  0
    5.1212   -8.1632   -2.7215 C   0  0  0  0  0  0  0  0  0  0  0  0
    4.8305   -6.5207   -2.3735 C   0  0  0  0  0  0  0  0  0  0  0  0
    5.0389   -5.6552   -1.2226 C   0  0  0  0  0  0  0  0  0  0  0  0
    2.3367   -4.0442   -1.3151 H   0  0  0  0  0  0  0  0  0  0  0  0
    3.4575   -4.0130   -2.6842 H   0  0  0  0  0  0  0  0  0  0  0  0
    3.2152   -2.5676   -1.7298 H   0  0  0  0  0  0  0  0  0  0  0  0
    4.7782   -0.1969    0.7217 H   0  0  0  0  0  0  0  0  0  0  0  0
    5.9636   -1.2477   -0.0543 H   0  0  0  0  0  0  0  0  0  0  0  0
    7.2125    0.4358    1.2281 H   0  0  0  0  0  0  0  0  0  0  0  0
    7.3719   -1.0894    2.1002 H   0  0  0  0  0  0  0  0  0  0  0  0
    5.3847    1.1684    2.7977 H   0  0  0  0  0  0  0  0  0  0  0  0
    6.8969    0.8589    3.6301 H   0  0  0  0  0  0  0  0  0  0  0  0
    5.0772   -0.1774    4.7350 H   0  0  0  0  0  0  0  0  0  0  0  0
    6.1673   -1.4492    4.1955 H   0  0  0  0  0  0  0  0  0  0  0  0
    3.7384   -0.5114    2.5920 H   0  0  0  0  0  0  0  0  0  0  0  0
    3.6291   -1.3606    5.0985 H   0  0  0  0  0  0  0  0  0  0  0  0
    3.5381   -2.9393    4.4253 H   0  0  0  0  0  0  0  0  0  0  0  0
    1.8140   -0.4230    3.6706 H   0  0  0  0  0  0  0  0  0  0  0  0
    1.4327   -1.4888    5.0010 H   0  0  0  0  0  0  0  0  0  0  0  0
    0.1646   -2.2856    3.1097 H   0  0  0  0  0  0  0  0  0  0  0  0
    1.3923   -3.4110    3.5914 H   0  0  0  0  0  0  0  0  0  0  0  0
    2.2135   -1.4387    1.4186 H   0  0  0  0  0  0  0  0  0  0  0  0
    0.9454   -2.5164    0.9495 H   0  0  0  0  0  0  0  0  0  0  0  0
    1.8468   -5.0171    2.5597 H   0  0  0  0  0  0  0  0  0  0  0  0
    4.7507   -4.8386    2.7248 H   0  0  0  0  0  0  0  0  0  0  0  0
    3.5186   -6.8893    0.8153 H   0  0  0  0  0  0  0  0  0  0  0  0
    6.4839   -6.2377    1.6563 H   0  0  0  0  0  0  0  0  0  0  0  0
    8.1089   -6.4046   -0.3998 H   0  0  0  0  0  0  0  0  0  0  0  0
    7.3511   -6.7766   -1.9326 H   0  0  0  0  0  0  0  0  0  0  0  0
    6.5119   -8.9211   -0.1927 H   0  0  0  0  0  0  0  0  0  0  0  0
    9.0773   -8.7668   -1.8711 H   0  0  0  0  0  0  0  0  0  0  0  0
    7.2516  -10.9588   -1.0275 H   0  0  0  0  0  0  0  0  0  0  0  0
    7.2988  -10.5784   -3.8786 H   0  0  0  0  0  0  0  0  0  0  0  0
    4.8995  -10.2648   -3.0514 H   0  0  0  0  0  0  0  0  0  0  0  0
    5.8927   -7.7696   -3.4014 H   0  0  0  0  0  0  0  0  0  0  0  0
    4.3386   -6.1354   -3.2703 H   0  0  0  0  0  0  0  0  0  0  0  0
  1  2  1  0  0  0  0
  1 29  1  0  0  0  0
  1 30  1  0  0  0  0
  1 31  1  0  0  0  0
  2  3  2  3  0  0  0
  2 28  1  0  0  0  0
  3  4  1  0  0  0  0
  3 14  1  0  0  0  0
  4  5  1  0  0  0  0
  4  9  1  0  0  0  0
  5  6  1  0  0  0  0
  5 32  1  0  0  0  0
  5 33  1  0  0  0  0
  6  7  1  0  0  0  0
  6 34  1  0  0  0  0
  6 35  1  0  0  0  0
  7  8  1  0  0  0  0
  7 36  1  0  0  0  0
  7 37  1  0  0  0  0
  8  9  1  0  0  0  0
  8 38  1  0  0  0  0
  8 39  1  0  0  0  0
  9 10  1  0  0  0  0
  9 40  1  0  0  0  0
 10 11  1  0  0  0  0
 10 41  1  0  0  0  0
 10 42  1  0  0  0  0
 11 12  1  0  0  0  0
 11 43  1  0  0  0  0
 11 44  1  0  0  0  0
 12 13  1  0  0  0  0
 12 45  1  0  0  0  0
 12 46  1  0  0  0  0
 13 14  1  0  0  0  0
 13 47  1  0  0  0  0
 13 48  1  0  0  0  0
 14 15  2  3  0  0  0
 15 16  1  0  0  0  0
 15 49  1  0  0  0  0
 16 17  2  3  0  0  0
 16 50  1  0  0  0  0
 17 18  1  0  0  0  0
 17 51  1  0  0  0  0
 18 19  2  3  0  0  0
 18 52  1  0  0  0  0
 19 20  1  0  0  0  0
 19 28  1  0  0  0  0
 20 21  1  0  0  0  0
 20 53  1  0  0  0  0
 20 54  1  0  0  0  0
 21 22  2  3  0  0  0
 21 55  1  0  0  0  0
 22 23  1  0  0  0  0
 22 56  1  0  0  0  0
 23 24  2  3  0  0  0
 23 57  1  0  0  0  0
 24 25  1  0  0  0  0
 24 58  1  0  0  0  0
 25 26  2  3  0  0  0
 25 59  1  0  0  0  0
 26 27  1  0  0  0  0
 26 60  1  0  0  0  0
 27 28  2  3  0  0  0
 27 61  1  0  0  0  0
M  END
$$$$
