
 OpenBabel04232216423D

 22 22  0  0  0  0  0  0  0  0999 V2000
    1.6971    0.5826   -0.9285 C   0  0  0  0  0  0  0  0  0  0  0  0
    2.3116   -0.5502   -1.3498 C   0  0  0  0  0  0  0  0  0  0  0  0
    3.4282   -0.3056   -2.2830 C   0  0  0  0  0  0  0  0  0  0  0  0
    4.6774   -0.1781   -1.7506 C   0  0  0  0  0  0  0  0  0  0  0  0
    5.2387   -1.0426   -0.6425 C   0  0  0  0  0  0  0  0  0  0  0  0
    5.2925    1.1903   -1.8383 C   0  0  0  0  0  0  0  0  0  0  0  0
    5.0330    1.9956   -0.7681 C   0  0  0  0  0  0  0  0  0  0  0  0
    3.7130    2.2720   -0.4325 N   0  0  0  0  0  0  0  0  0  0  0  0
    3.2869    1.6310    0.5658 N   0  0  0  0  0  0  0  0  0  0  0  0
    1.9798    1.1814    0.3270 N   0  0  0  0  0  0  0  0  0  0  0  0
    1.3659    0.6254    1.5308 C   0  0  0  0  0  0  0  0  0  0  0  0
    1.6303    1.4195   -1.6289 H   0  0  0  0  0  0  0  0  0  0  0  0
    2.4833   -1.3410   -0.6222 H   0  0  0  0  0  0  0  0  0  0  0  0
    3.1298    0.3719   -3.0877 H   0  0  0  0  0  0  0  0  0  0  0  0
    4.4718   -1.4475    0.0219 H   0  0  0  0  0  0  0  0  0  0  0  0
    5.9453   -0.5040   -0.0018 H   0  0  0  0  0  0  0  0  0  0  0  0
    5.7806   -1.8848   -1.0834 H   0  0  0  0  0  0  0  0  0  0  0  0
    4.9580    1.6237   -2.7889 H   0  0  0  0  0  0  0  0  0  0  0  0
    5.6576    1.8472    0.1139 H   0  0  0  0  0  0  0  0  0  0  0  0
    2.1072    0.4149    2.3097 H   0  0  0  0  0  0  0  0  0  0  0  0
    0.8275   -0.3082    1.3246 H   0  0  0  0  0  0  0  0  0  0  0  0
    0.6446    1.3470    1.9325 H   0  0  0  0  0  0  0  0  0  0  0  0
  1  2  2  0  0  0  0
  1 10  1  0  0  0  0
  1 12  1  0  0  0  0
  2  3  1  0  0  0  0
  2 13  1  0  0  0  0
  3  4  2  0  0  0  0
  3 14  1  0  0  0  0
  4  5  1  0  0  0  0
  4  6  1  0  0  0  0
  5 15  1  0  0  0  0
  5 16  1  0  0  0  0
  5 17  1  0  0  0  0
  6  7  2  0  0  0  0
  6 18  1  0  0  0  0
  7  8  1  0  0  0  0
  7 19  1  0  0  0  0
  8  9  2  0  0  0  0
  9 10  1  0  0  0  0
 10 11  1  0  0  0  0
 11 20  1  0  0  0  0
 11 21  1  0  0  0  0
 11 22  1  0  0  0  0
M  END
$$$$
