
 OpenBabel04232217023D

 90 89  0  0  0  0  0  0  0  0999 V2000
   14.3838   -3.7287    7.7263 S   0  0  0  0  0  0  0  0  0  0  0  0
   14.2227   -1.9366    7.5084 C   0  0  0  0  0  0  0  0  0  0  0  0
   12.4723   -1.4461    7.4639 S   0  0  0  0  0  0  0  0  0  0  0  0
   11.8555   -2.3761    5.9978 C   0  0  0  0  0  0  0  0  0  0  0  0
   10.3586   -2.1017    5.7975 C   0  0  0  0  0  0  0  0  0  0  0  0
    9.9863   -0.7000    5.5899 N   0  0  0  0  0  0  0  0  0  0  0  0
   10.6164    0.0861    4.2608 S   0  0  0  0  0  0  0  0  0  0  0  0
    9.8939    1.9932    4.4498 S   0  0  0  0  0  0  0  0  0  0  0  0
   10.6258    2.7999    6.2024 S   0  0  0  0  0  0  0  0  0  0  0  0
   12.6917    2.8496    6.1446 S   0  0  0  0  0  0  0  0  0  0  0  0
   13.3398    3.6306    7.9797 S   0  0  0  0  0  0  0  0  0  0  0  0
   15.4402    3.6327    7.9824 S   0  0  0  0  0  0  0  0  0  0  0  0
   16.1181    4.4460    9.8038 S   0  0  0  0  0  0  0  0  0  0  0  0
   18.2267    4.4414    9.7943 S   0  0  0  0  0  0  0  0  0  0  0  0
   18.9166    5.2517   11.6143 S   0  0  0  0  0  0  0  0  0  0  0  0
   21.0258    5.2460   11.6012 S   0  0  0  0  0  0  0  0  0  0  0  0
   21.7169    6.0566   13.4218 S   0  0  0  0  0  0  0  0  0  0  0  0
   23.8263    6.0511   13.4095 S   0  0  0  0  0  0  0  0  0  0  0  0
   24.5170    6.8619   15.2304 S   0  0  0  0  0  0  0  0  0  0  0  0
   26.6264    6.8565   15.2184 S   0  0  0  0  0  0  0  0  0  0  0  0
   27.3171    7.6672   17.0392 S   0  0  0  0  0  0  0  0  0  0  0  0
   29.4265    7.6619   17.0272 S   0  0  0  0  0  0  0  0  0  0  0  0
   30.1171    8.4726   18.8480 S   0  0  0  0  0  0  0  0  0  0  0  0
   32.2265    8.4672   18.8359 S   0  0  0  0  0  0  0  0  0  0  0  0
   32.9171    9.2780   20.6568 S   0  0  0  0  0  0  0  0  0  0  0  0
   35.0266    9.2726   20.6448 S   0  0  0  0  0  0  0  0  0  0  0  0
   35.7174   10.0834   22.4657 S   0  0  0  0  0  0  0  0  0  0  0  0
   37.8269   10.0779   22.4535 S   0  0  0  0  0  0  0  0  0  0  0  0
   38.5184   10.8886   24.2740 S   0  0  0  0  0  0  0  0  0  0  0  0
   40.6280   10.8828   24.2611 S   0  0  0  0  0  0  0  0  0  0  0  0
   41.3187   11.6935   26.0819 S   0  0  0  0  0  0  0  0  0  0  0  0
   43.4280   11.6884   26.0703 S   0  0  0  0  0  0  0  0  0  0  0  0
   44.1170   12.4994   27.8918 S   0  0  0  0  0  0  0  0  0  0  0  0
   46.2261   12.4944   27.8807 S   0  0  0  0  0  0  0  0  0  0  0  0
   46.9166   13.3050   29.7013 S   0  0  0  0  0  0  0  0  0  0  0  0
   49.0259   13.2993   29.6885 S   0  0  0  0  0  0  0  0  0  0  0  0
   49.7172   14.1100   31.5092 S   0  0  0  0  0  0  0  0  0  0  0  0
   51.8261   14.1045   31.4969 S   0  0  0  0  0  0  0  0  0  0  0  0
   52.5182   14.9148   33.3166 S   0  0  0  0  0  0  0  0  0  0  0  0
   54.6279   14.9082   33.3018 S   0  0  0  0  0  0  0  0  0  0  0  0
   55.3193   15.7192   35.1232 S   0  0  0  0  0  0  0  0  0  0  0  0
   57.4294   15.7141   35.1118 S   0  0  0  0  0  0  0  0  0  0  0  0
   58.1173   16.5253   36.9338 S   0  0  0  0  0  0  0  0  0  0  0  0
   60.2263   16.5207   36.9234 S   0  0  0  0  0  0  0  0  0  0  0  0
   60.9168   17.3313   38.7440 S   0  0  0  0  0  0  0  0  0  0  0  0
   63.0273   17.3258   38.7316 S   0  0  0  0  0  0  0  0  0  0  0  0
   63.7170   18.1366   40.5526 S   0  0  0  0  0  0  0  0  0  0  0  0
   65.8264   18.1312   40.5405 S   0  0  0  0  0  0  0  0  0  0  0  0
   66.5170   18.9419   42.3613 S   0  0  0  0  0  0  0  0  0  0  0  0
   68.6264   18.9365   42.3492 S   0  0  0  0  0  0  0  0  0  0  0  0
   69.3170   19.7473   44.1700 S   0  0  0  0  0  0  0  0  0  0  0  0
   71.4264   19.7419   44.1579 S   0  0  0  0  0  0  0  0  0  0  0  0
   72.1170   20.5526   45.9787 S   0  0  0  0  0  0  0  0  0  0  0  0
   74.2264   20.5472   45.9666 S   0  0  0  0  0  0  0  0  0  0  0  0
   74.9170   21.3579   47.7874 S   0  0  0  0  0  0  0  0  0  0  0  0
   77.0264   21.3525   47.7753 S   0  0  0  0  0  0  0  0  0  0  0  0
   77.7170   22.1633   49.5962 S   0  0  0  0  0  0  0  0  0  0  0  0
   79.8264   22.1579   49.5840 S   0  0  0  0  0  0  0  0  0  0  0  0
   80.5170   22.9686   51.4049 S   0  0  0  0  0  0  0  0  0  0  0  0
   82.6264   22.9632   51.3928 S   0  0  0  0  0  0  0  0  0  0  0  0
   83.3170   23.7739   53.2136 S   0  0  0  0  0  0  0  0  0  0  0  0
   85.4263   23.7685   53.2015 S   0  0  0  0  0  0  0  0  0  0  0  0
   86.1170   24.5793   55.0223 S   0  0  0  0  0  0  0  0  0  0  0  0
   88.2263   24.5739   55.0102 S   0  0  0  0  0  0  0  0  0  0  0  0
   88.9169   25.3846   56.8310 S   0  0  0  0  0  0  0  0  0  0  0  0
   91.0263   25.3792   56.8189 S   0  0  0  0  0  0  0  0  0  0  0  0
   91.7168   26.1899   58.6396 S   0  0  0  0  0  0  0  0  0  0  0  0
   93.8260   26.1844   58.6274 S   0  0  0  0  0  0  0  0  0  0  0  0
   94.5162   26.9951   60.4480 S   0  0  0  0  0  0  0  0  0  0  0  0
   96.6249   26.9895   60.4355 S   0  0  0  0  0  0  0  0  0  0  0  0
   97.3141   27.7999   62.2556 S   0  0  0  0  0  0  0  0  0  0  0  0
   99.4214   27.7939   62.2421 S   0  0  0  0  0  0  0  0  0  0  0  0
  100.1086   28.6036   64.0607 S   0  0  0  0  0  0  0  0  0  0  0  0
  102.2124   28.5959   64.0434 S   0  0  0  0  0  0  0  0  0  0  0  0
  102.8954   29.4041   65.8582 S   0  0  0  0  0  0  0  0  0  0  0  0
  104.9917   29.3926   65.8340 S   0  0  0  0  0  0  0  0  0  0  0  0
  105.6605   30.1988   67.6433 S   0  0  0  0  0  0  0  0  0  0  0  0
  107.7408   30.2089   67.5925 S   0  0  0  0  0  0  0  0  0  0  0  0
  108.3977   30.9341   69.4211 S   0  0  0  0  0  0  0  0  0  0  0  0
  110.4634   30.9722   69.3401 S   0  0  0  0  0  0  0  0  0  0  0  0
  111.0478   29.0039   69.2184 S   0  0  0  0  0  0  0  0  0  0  0  0
   15.7151   -3.7780    7.7358 H   0  0  0  0  0  0  0  0  0  0  0  0
   14.7259   -1.5952    6.6035 H   0  0  0  0  0  0  0  0  0  0  0  0
   14.6917   -1.4262    8.3624 H   0  0  0  0  0  0  0  0  0  0  0  0
   12.0187   -3.4520    6.1132 H   0  0  0  0  0  0  0  0  0  0  0  0
   12.4313   -2.0744    5.0810 H   0  0  0  0  0  0  0  0  0  0  0  0
    9.8203   -2.4884    6.7003 H   0  0  0  0  0  0  0  0  0  0  0  0
    9.9686   -2.6952    4.9659 H   0  0  0  0  0  0  0  0  0  0  0  0
   10.2691   -0.1769    6.4638 H   0  0  0  0  0  0  0  0  0  0  0  0
  112.3856   29.1342   69.1865 H   0  0  0  0  0  0  0  0  0  0  0  0
  1  2  1  0  0  0  0
  1 82  1  0  0  0  0
  2  3  1  0  0  0  0
  2 83  1  0  0  0  0
  2 84  1  0  0  0  0
  3  4  1  0  0  0  0
  4  5  1  0  0  0  0
  4 85  1  0  0  0  0
  4 86  1  0  0  0  0
  5  6  1  0  0  0  0
  5 87  1  0  0  0  0
  5 88  1  0  0  0  0
  6  7  1  0  0  0  0
  6 89  1  0  0  0  0
  7  8  1  0  0  0  0
  8  9  1  0  0  0  0
  9 10  1  0  0  0  0
 10 11  1  0  0  0  0
 11 12  1  0  0  0  0
 12 13  1  0  0  0  0
 13 14  1  0  0  0  0
 14 15  1  0  0  0  0
 15 16  1  0  0  0  0
 16 17  1  0  0  0  0
 17 18  1  0  0  0  0
 18 19  1  0  0  0  0
 19 20  1  0  0  0  0
 20 21  1  0  0  0  0
 21 22  1  0  0  0  0
 22 23  1  0  0  0  0
 23 24  1  0  0  0  0
 24 25  1  0  0  0  0
 25 26  1  0  0  0  0
 26 27  1  0  0  0  0
 27 28  1  0  0  0  0
 28 29  1  0  0  0  0
 29 30  1  0  0  0  0
 30 31  1  0  0  0  0
 31 32  1  0  0  0  0
 32 33  1  0  0  0  0
 33 34  1  0  0  0  0
 34 35  1  0  0  0  0
 35 36  1  0  0  0  0
 36 37  1  0  0  0  0
 37 38  1  0  0  0  0
 38 39  1  0  0  0  0
 39 40  1  0  0  0  0
 40 41  1  0  0  0  0
 41 42  1  0  0  0  0
 42 43  1  0  0  0  0
 43 44  1  0  0  0  0
 44 45  1  0  0  0  0
 45 46  1  0  0  0  0
 46 47  1  0  0  0  0
 47 48  1  0  0  0  0
 48 49  1  0  0  0  0
 49 50  1  0  0  0  0
 50 51  1  0  0  0  0
 51 52  1  0  0  0  0
 52 53  1  0  0  0  0
 53 54  1  0  0  0  0
 54 55  1  0  0  0  0
 55 56  1  0  0  0  0
 56 57  1  0  0  0  0
 57 58  1  0  0  0  0
 58 59  1  0  0  0  0
 59 60  1  0  0  0  0
 60 61  1  0  0  0  0
 61 62  1  0  0  0  0
 62 63  1  0  0  0  0
 63 64  1  0  0  0  0
 64 65  1  0  0  0  0
 65 66  1  0  0  0  0
 66 67  1  0  0  0  0
 67 68  1  0  0  0  0
 68 69  1  0  0  0  0
 69 70  1  0  0  0  0
 70 71  1  0  0  0  0
 71 72  1  0  0  0  0
 72 73  1  0  0  0  0
 73 74  1  0  0  0  0
 74 75  1  0  0  0  0
 75 76  1  0  0  0  0
 76 77  1  0  0  0  0
 77 78  1  0  0  0  0
 78 79  1  0  0  0  0
 79 80  1  0  0  0  0
 80 81  1  0  0  0  0
 81 90  1  0  0  0  0
M  END
$$$$
