
 OpenBabel04232216453D

 31 32  0  0  1  0  0  0  0  0999 V2000
    4.4928    2.7508    3.0134 C   0  0  0  0  0  0  0  0  0  0  0  0
    4.2771    1.8590    1.8334 C   0  0  0  0  0  0  0  0  0  0  0  0
    2.9283    1.5624    1.3646 C   0  0  0  0  0  0  0  0  0  0  0  0
    3.1544    0.7912    0.2973 C   0  0  0  0  0  0  0  0  0  0  0  0
    2.0832    0.0863   -0.4630 C   0  0  0  0  0  0  0  0  0  0  0  0
    4.6245    0.5826    0.0520 C   0  0  3  0  0  0  0  0  0  0  0  0
    5.2278    1.1571   -1.2486 C   0  0  3  0  0  0  0  0  0  0  0  0
    6.7354    0.8535   -1.3003 C   0  0  0  0  0  0  0  0  0  0  0  0
    7.4709    1.2666   -2.4976 N   0  0  0  0  0  0  0  0  0  0  0  0
    7.3684    0.5904   -3.6834 C   0  0  0  0  0  0  0  0  0  0  0  0
    8.3446    0.0797   -4.2161 O   0  0  0  0  0  0  0  0  0  0  0  0
    6.0631    0.5707   -4.3419 C   0  0  0  0  0  3  0  0  0  0  0  0
    4.8955    1.2820   -3.7777 C   0  0  0  0  0  0  0  0  0  0  0  0
    4.6056    0.5568   -2.4861 C   0  0  0  0  0  0  0  0  0  0  0  0
    4.0285   -0.5322   -2.4901 O   0  0  0  0  0  0  0  0  0  0  0  0
    5.2663    1.3199    1.1821 N   0  0  0  0  0  0  0  0  0  0  0  0
    3.5410    3.1268    3.3984 H   0  0  0  0  0  0  0  0  0  0  0  0
    5.1109    3.6007    2.7097 H   0  0  0  0  0  0  0  0  0  0  0  0
    5.0063    2.1967    3.8030 H   0  0  0  0  0  0  0  0  0  0  0  0
    2.0049    1.8403    1.8362 H   0  0  0  0  0  0  0  0  0  0  0  0
    1.1205    0.1359    0.0574 H   0  0  0  0  0  0  0  0  0  0  0  0
    2.3278   -0.9746   -0.5806 H   0  0  0  0  0  0  0  0  0  0  0  0
    1.9449    0.5385   -1.4487 H   0  0  0  0  0  0  0  0  0  0  0  0
    4.8611   -0.4841    0.1539 H   0  0  0  0  0  0  0  0  0  0  0  0
    5.0633    2.2421   -1.2797 H   0  0  0  0  0  0  0  0  0  0  0  0
    6.9138   -0.2219   -1.1767 H   0  0  0  0  0  0  0  0  0  0  0  0
    7.2376    1.3679   -0.4724 H   0  0  0  0  0  0  0  0  0  0  0  0
    8.4612    1.3349   -2.2931 H   0  0  0  0  0  0  0  0  0  0  0  0
    5.9678   -0.0361   -5.2334 H   0  0  0  0  0  0  0  0  0  0  0  0
    4.0242    1.2218   -4.4358 H   0  0  0  0  0  0  0  0  0  0  0  0
    5.1009    2.3446   -3.6045 H   0  0  0  0  0  0  0  0  0  0  0  0
  1  2  1  0  0  0  0
  1 17  1  0  0  0  0
  1 18  1  0  0  0  0
  1 19  1  0  0  0  0
  2  3  1  0  0  0  0
  2 16  2  0  0  0  0
  3  4  2  0  0  0  0
  3 20  1  0  0  0  0
  4  5  1  0  0  0  0
  4  6  1  0  0  0  0
  5 21  1  0  0  0  0
  5 22  1  0  0  0  0
  5 23  1  0  0  0  0
  6  7  1  0  0  0  0
  6 16  1  0  0  0  0
  6 24  1  0  0  0  0
  7  8  1  0  0  0  0
  7 14  1  0  0  0  0
  7 25  1  0  0  0  0
  8  9  1  0  0  0  0
  8 26  1  0  0  0  0
  8 27  1  0  0  0  0
  9 10  1  0  0  0  0
  9 28  1  0  0  0  0
 10 11  2  0  0  0  0
 10 12  1  0  0  0  0
 12 13  1  0  0  0  0
 12 29  1  0  0  0  0
 13 14  1  0  0  0  0
 13 30  1  0  0  0  0
 13 31  1  0  0  0  0
 14 15  2  0  0  0  0
M  END
$$$$
