
 OpenBabel04232216423D

 49 50  0  0  0  0  0  0  0  0999 V2000
    5.9842   -3.6609    1.3573 C   0  0  0  0  0  0  0  0  0  0  0  0
    4.7400   -2.9399    1.7280 C   0  0  0  0  0  0  0  0  0  0  0  0
    4.4508   -1.6314    1.7744 C   0  0  0  0  0  0  0  0  0  0  0  0
    5.3790   -0.5295    1.3142 C   0  0  0  0  0  0  0  0  0  0  0  0
    5.2037    0.0432    0.0347 N   0  0  0  0  0  0  0  0  0  0  0  0
    5.3122    1.4840   -0.2443 C   0  0  0  0  0  0  0  0  0  0  0  0
    4.0641    2.0413   -0.9459 C   0  0  0  0  0  0  0  0  0  0  0  0
    3.4760    1.1418   -2.0301 C   0  0  0  0  0  0  0  0  0  0  0  0
    3.5251   -0.3398   -1.6620 C   0  0  0  0  0  0  0  0  0  0  0  0
    4.9083   -0.7263   -1.1577 C   0  0  0  0  0  0  0  0  0  0  0  0
    6.2479   -0.2007    2.2198 N   0  0  0  0  0  0  0  0  0  0  0  0
    7.5630   -0.3172    1.8267 C   0  0  0  0  0  0  0  0  0  0  0  0
    8.1157    0.5618    0.7683 C   0  0  0  0  0  0  0  0  0  0  0  0
    8.2654   -1.3487    2.3310 C   0  0  0  0  0  0  0  0  0  0  0  0
    9.5006   -1.9245    1.8722 C   0  0  0  0  0  0  0  0  0  0  0  0
   10.6796   -1.0728    1.5209 C   0  0  0  0  0  0  0  0  0  0  0  0
    9.5536   -3.2061    1.4352 C   0  0  0  0  0  0  0  0  0  0  0  0
    9.8365   -4.1164    2.5864 C   0  0  0  0  0  0  0  0  0  0  0  0
   11.0027   -4.4499    2.7969 O   0  0  0  0  0  0  0  0  0  0  0  0
    8.7040   -4.5005    3.5370 C   0  0  0  0  0  0  0  0  0  0  0  0
    9.3526   -4.8879    4.8579 C   0  0  0  0  0  0  0  0  0  0  0  0
    8.3999   -5.2358    5.8496 O   0  0  0  0  0  0  0  0  0  0  0  0
    7.3606   -4.4150    3.2504 C   0  0  0  0  0  0  0  0  0  0  0  0
    6.9732   -4.2887    1.9352 N   0  0  0  0  0  0  0  0  0  0  0  0
    6.0550   -3.7735    0.2623 H   0  0  0  0  0  0  0  0  0  0  0  0
    3.8613   -3.5599    1.5662 H   0  0  0  0  0  0  0  0  0  0  0  0
    3.4578   -1.2789    2.0289 H   0  0  0  0  0  0  0  0  0  0  0  0
    6.1564    1.6494   -0.9194 H   0  0  0  0  0  0  0  0  0  0  0  0
    5.4844    2.0690    0.6660 H   0  0  0  0  0  0  0  0  0  0  0  0
    4.3134    3.0155   -1.3952 H   0  0  0  0  0  0  0  0  0  0  0  0
    3.2951    2.2471   -0.1902 H   0  0  0  0  0  0  0  0  0  0  0  0
    4.0205    1.3001   -2.9697 H   0  0  0  0  0  0  0  0  0  0  0  0
    2.4380    1.4390   -2.2231 H   0  0  0  0  0  0  0  0  0  0  0  0
    3.2575   -0.9412   -2.5383 H   0  0  0  0  0  0  0  0  0  0  0  0
    2.7846   -0.5448   -0.8812 H   0  0  0  0  0  0  0  0  0  0  0  0
    5.6575   -0.4992   -1.9379 H   0  0  0  0  0  0  0  0  0  0  0  0
    4.9806   -1.8065   -0.9919 H   0  0  0  0  0  0  0  0  0  0  0  0
    7.5338    1.4688    0.6746 H   0  0  0  0  0  0  0  0  0  0  0  0
    8.1512    0.0196   -0.1806 H   0  0  0  0  0  0  0  0  0  0  0  0
    9.1020    0.9283    1.0531 H   0  0  0  0  0  0  0  0  0  0  0  0
    7.7526   -1.8912    3.1370 H   0  0  0  0  0  0  0  0  0  0  0  0
   10.4754   -0.5332    0.5942 H   0  0  0  0  0  0  0  0  0  0  0  0
   11.5658   -1.6829    1.3215 H   0  0  0  0  0  0  0  0  0  0  0  0
   10.9165   -0.3678    2.3210 H   0  0  0  0  0  0  0  0  0  0  0  0
    8.6991   -3.6199    0.9258 H   0  0  0  0  0  0  0  0  0  0  0  0
    9.9705   -4.0613    5.2430 H   0  0  0  0  0  0  0  0  0  0  0  0
   10.0241   -5.7465    4.7171 H   0  0  0  0  0  0  0  0  0  0  0  0
    8.6521   -4.7404    6.6484 H   0  0  0  0  0  0  0  0  0  0  0  0
    6.6317   -4.6515    3.9985 H   0  0  0  0  0  0  0  0  0  0  0  0
  1  2  1  0  0  0  0
  1 24  2  3  0  0  0
  1 25  1  0  0  0  0
  2  3  2  3  0  0  0
  2 26  1  0  0  0  0
  3  4  1  0  0  0  0
  3 27  1  0  0  0  0
  4  5  1  0  0  0  0
  4 11  2  3  0  0  0
  5  6  1  0  0  0  0
  5 10  1  0  0  0  0
  6  7  1  0  0  0  0
  6 28  1  0  0  0  0
  6 29  1  0  0  0  0
  7  8  1  0  0  0  0
  7 30  1  0  0  0  0
  7 31  1  0  0  0  0
  8  9  1  0  0  0  0
  8 32  1  0  0  0  0
  8 33  1  0  0  0  0
  9 10  1  0  0  0  0
  9 34  1  0  0  0  0
  9 35  1  0  0  0  0
 10 36  1  0  0  0  0
 10 37  1  0  0  0  0
 11 12  1  0  0  0  0
 12 13  1  0  0  0  0
 12 14  2  3  0  0  0
 13 38  1  0  0  0  0
 13 39  1  0  0  0  0
 13 40  1  0  0  0  0
 14 15  1  0  0  0  0
 14 41  1  0  0  0  0
 15 16  1  0  0  0  0
 15 17  2  3  0  0  0
 16 42  1  0  0  0  0
 16 43  1  0  0  0  0
 16 44  1  0  0  0  0
 17 18  1  0  0  0  0
 17 45  1  0  0  0  0
 18 19  2  0  0  0  0
 18 20  1  0  0  0  0
 20 21  1  0  0  0  0
 20 23  2  3  0  0  0
 21 22  1  0  0  0  0
 21 46  1  0  0  0  0
 21 47  1  0  0  0  0
 22 48  1  0  0  0  0
 23 24  1  0  0  0  0
 23 49  1  0  0  0  0
M  END
$$$$
