
 OpenBabel04232216503D

 61 62  0  0  1  0  0  0  0  0999 V2000
    1.1694   -0.1362    0.2054 C   0  0  0  0  0  0  0  0  0  0  0  0
    2.5936   -0.3276   -0.1932 C   0  0  0  0  0  0  0  0  0  0  0  0
    3.4649    0.6298    0.1144 N   0  0  0  0  0  0  0  0  0  0  0  0
    4.7006    0.4128   -0.3501 C   0  0  0  0  0  0  0  0  0  0  0  0
    5.6879    0.1696    0.6465 N   0  0  0  0  0  0  0  0  0  0  0  0
    5.8170   -1.3399    0.9989 C   0  0  3  0  0  0  0  0  0  0  0  0
    7.3169   -1.3357    1.4698 C   0  0  0  0  0  0  0  0  0  0  0  0
    8.0058   -2.3764    2.3406 C   0  0  0  0  0  0  0  0  0  0  0  0
    8.4943   -3.6102    1.5932 C   0  0  0  0  0  0  0  0  0  0  0  0
    9.6243   -4.3452    2.3361 C   0  0  0  0  0  0  0  0  0  0  0  0
    9.2688   -4.7462    3.7672 C   0  0  0  0  0  0  0  0  0  0  0  0
   10.3413   -5.6334    4.3814 C   0  0  0  0  0  0  0  0  0  0  0  0
    4.8943   -0.3381   -1.4657 C   0  0  0  0  0  0  0  0  0  0  0  0
    4.3107   -1.5013   -1.1042 C   0  0  0  0  0  0  0  0  0  0  0  0
    5.3101   -2.3384   -0.2146 C   0  0  3  0  0  0  0  0  0  0  0  0
    4.5841   -3.6779    0.1595 C   0  0  0  0  0  0  0  0  0  0  0  0
    4.1142   -4.4774   -1.1053 C   0  0  0  0  0  0  0  0  0  0  0  0
    3.1949   -5.6803   -0.8207 C   0  0  0  0  0  0  0  0  0  0  0  0
    2.7600   -6.3876   -2.1200 C   0  0  0  0  0  0  0  0  0  0  0  0
    1.8760   -7.6117   -1.8494 C   0  0  0  0  0  0  0  0  0  0  0  0
    1.4720   -8.3466   -3.1345 C   0  0  0  0  0  0  0  0  0  0  0  0
    0.6128   -9.5825   -2.8331 C   0  0  0  0  0  0  0  0  0  0  0  0
    0.2100  -10.3324   -4.0958 C   0  0  0  0  0  0  0  0  0  0  0  0
    3.0057   -1.4952   -0.7067 N   0  0  0  0  0  0  0  0  0  0  0  0
    0.9517    0.9306    0.3258 H   0  0  0  0  0  0  0  0  0  0  0  0
    0.9720   -0.6392    1.1558 H   0  0  0  0  0  0  0  0  0  0  0  0
    0.5010   -0.5342   -0.5622 H   0  0  0  0  0  0  0  0  0  0  0  0
    6.5633    0.4905    0.2335 H   0  0  0  0  0  0  0  0  0  0  0  0
    5.1689   -1.5175    1.8662 H   0  0  0  0  0  0  0  0  0  0  0  0
    7.3955   -0.4347    2.1070 H   0  0  0  0  0  0  0  0  0  0  0  0
    7.9625   -1.1120    0.6102 H   0  0  0  0  0  0  0  0  0  0  0  0
    7.3990   -2.6336    3.2140 H   0  0  0  0  0  0  0  0  0  0  0  0
    8.9026   -1.8751    2.7434 H   0  0  0  0  0  0  0  0  0  0  0  0
    8.8797   -3.3159    0.6098 H   0  0  0  0  0  0  0  0  0  0  0  0
    7.6581   -4.2872    1.4219 H   0  0  0  0  0  0  0  0  0  0  0  0
   10.5224   -3.7130    2.3538 H   0  0  0  0  0  0  0  0  0  0  0  0
    9.8861   -5.2378    1.7557 H   0  0  0  0  0  0  0  0  0  0  0  0
    8.3117   -5.2793    3.7784 H   0  0  0  0  0  0  0  0  0  0  0  0
    9.1548   -3.8536    4.3944 H   0  0  0  0  0  0  0  0  0  0  0  0
   10.4823   -6.5440    3.7936 H   0  0  0  0  0  0  0  0  0  0  0  0
   10.0541   -5.9258    5.3979 H   0  0  0  0  0  0  0  0  0  0  0  0
   11.3006   -5.1075    4.4400 H   0  0  0  0  0  0  0  0  0  0  0  0
    5.9088   -0.4006   -1.8671 H   0  0  0  0  0  0  0  0  0  0  0  0
    6.1823   -2.5902   -0.8346 H   0  0  0  0  0  0  0  0  0  0  0  0
    3.7087   -3.4690    0.7878 H   0  0  0  0  0  0  0  0  0  0  0  0
    5.2518   -4.3116    0.7526 H   0  0  0  0  0  0  0  0  0  0  0  0
    5.0004   -4.8216   -1.6539 H   0  0  0  0  0  0  0  0  0  0  0  0
    3.5646   -3.8255   -1.7923 H   0  0  0  0  0  0  0  0  0  0  0  0
    2.2985   -5.3395   -0.2883 H   0  0  0  0  0  0  0  0  0  0  0  0
    3.7118   -6.3958   -0.1720 H   0  0  0  0  0  0  0  0  0  0  0  0
    3.6441   -6.7001   -2.6876 H   0  0  0  0  0  0  0  0  0  0  0  0
    2.2056   -5.6846   -2.7598 H   0  0  0  0  0  0  0  0  0  0  0  0
    0.9673   -7.3019   -1.3160 H   0  0  0  0  0  0  0  0  0  0  0  0
    2.4135   -8.3116   -1.1959 H   0  0  0  0  0  0  0  0  0  0  0  0
    2.3685   -8.6595   -3.6871 H   0  0  0  0  0  0  0  0  0  0  0  0
    0.9101   -7.6703   -3.7949 H   0  0  0  0  0  0  0  0  0  0  0  0
   -0.2936   -9.2819   -2.2946 H   0  0  0  0  0  0  0  0  0  0  0  0
    1.1665  -10.2667   -2.1796 H   0  0  0  0  0  0  0  0  0  0  0  0
   -0.3819   -9.6951   -4.7599 H   0  0  0  0  0  0  0  0  0  0  0  0
   -0.3949  -11.2100   -3.8376 H   0  0  0  0  0  0  0  0  0  0  0  0
    1.0907  -10.6794   -4.6452 H   0  0  0  0  0  0  0  0  0  0  0  0
  1  2  1  0  0  0  0
  1 25  1  0  0  0  0
  1 26  1  0  0  0  0
  1 27  1  0  0  0  0
  2  3  1  0  0  0  0
  2 24  2  0  0  0  0
  3  4  2  0  0  0  0
  4  5  1  0  0  0  0
  4 13  1  0  0  0  0
  5  6  1  0  0  0  0
  5 28  1  0  0  0  0
  6  7  1  0  0  0  0
  6 15  1  0  0  0  0
  6 29  1  0  0  0  0
  7  8  1  0  0  0  0
  7 30  1  0  0  0  0
  7 31  1  0  0  0  0
  8  9  1  0  0  0  0
  8 32  1  0  0  0  0
  8 33  1  0  0  0  0
  9 10  1  0  0  0  0
  9 34  1  0  0  0  0
  9 35  1  0  0  0  0
 10 11  1  0  0  0  0
 10 36  1  0  0  0  0
 10 37  1  0  0  0  0
 11 12  1  0  0  0  0
 11 38  1  0  0  0  0
 11 39  1  0  0  0  0
 12 40  1  0  0  0  0
 12 41  1  0  0  0  0
 12 42  1  0  0  0  0
 13 14  2  0  0  0  0
 13 43  1  0  0  0  0
 14 15  1  0  0  0  0
 14 24  1  0  0  0  0
 15 16  1  0  0  0  0
 15 44  1  0  0  0  0
 16 17  1  0  0  0  0
 16 45  1  0  0  0  0
 16 46  1  0  0  0  0
 17 18  1  0  0  0  0
 17 47  1  0  0  0  0
 17 48  1  0  0  0  0
 18 19  1  0  0  0  0
 18 49  1  0  0  0  0
 18 50  1  0  0  0  0
 19 20  1  0  0  0  0
 19 51  1  0  0  0  0
 19 52  1  0  0  0  0
 20 21  1  0  0  0  0
 20 53  1  0  0  0  0
 20 54  1  0  0  0  0
 21 22  1  0  0  0  0
 21 55  1  0  0  0  0
 21 56  1  0  0  0  0
 22 23  1  0  0  0  0
 22 57  1  0  0  0  0
 22 58  1  0  0  0  0
 23 59  1  0  0  0  0
 23 60  1  0  0  0  0
 23 61  1  0  0  0  0
M  END
$$$$
