
 OpenBabel04232216463D

 46 48  0  0  0  0  0  0  0  0999 V2000
    1.4200    0.9940    0.6347 C   0  0  0  0  0  0  0  0  0  0  0  0
    2.8934    1.2415    1.2586 C   0  0  0  0  0  0  0  0  0  0  0  0
    3.5856   -0.3100    1.0092 C   0  0  0  0  0  0  0  0  0  0  0  0
    4.6485   -0.8429    0.3124 C   0  0  0  0  0  0  0  0  0  0  0  0
    5.6241    0.0744   -0.4270 C   0  0  0  0  0  0  0  0  0  0  0  0
    5.1370    0.2926   -1.8380 C   0  0  0  0  0  0  0  0  0  0  0  0
    5.1859   -2.2527    0.5164 C   0  0  0  0  0  0  0  0  0  0  0  0
    4.9791   -3.4988    0.0291 C   0  0  0  0  0  0  0  0  0  0  0  0
    5.9572   -4.4685    0.5305 C   0  0  0  0  0  0  0  0  0  0  0  0
    6.8381   -3.8960    1.3402 C   0  0  0  0  0  0  0  0  0  0  0  0
    8.0117   -4.3597    2.1449 C   0  0  0  0  0  0  0  0  0  0  0  0
    6.3128   -2.5361    1.4841 C   0  0  0  0  0  0  0  0  0  0  0  0
    6.8473   -1.8587    2.4293 N   0  0  0  0  0  0  0  0  0  0  0  0
    6.3824   -0.6326    2.6213 C   0  0  0  0  0  0  0  0  0  0  0  0
    7.0499    0.4094    3.0772 C   0  0  0  0  0  0  0  0  0  0  0  0
    8.3728    0.4648    3.7349 C   0  0  0  0  0  0  0  0  0  0  0  0
    9.4607    0.6372    2.7015 C   0  0  0  0  0  0  0  0  0  0  0  0
    6.2857    1.4737    2.9412 N   0  0  0  0  0  0  0  0  0  0  0  0
    6.6858    2.5819    3.1604 N   0  0  0  0  0  0  0  0  0  0  0  0
    5.6132    3.3354    2.8120 C   0  0  0  0  0  0  0  0  0  0  0  0
    5.6591    4.6920    3.0710 C   0  0  0  0  0  0  0  0  0  0  0  0
    4.4108    4.8168    2.5348 C   0  0  0  0  0  0  0  0  0  0  0  0
    4.3586    3.3488    2.3079 C   0  0  0  0  0  0  0  0  0  0  0  0
    3.2060    2.4837    1.6982 N   0  0  0  0  0  0  0  0  0  0  0  0
    1.1655   -0.0817    0.6820 H   0  0  0  0  0  0  0  0  0  0  0  0
    1.4003    1.2002   -0.4461 H   0  0  0  0  0  0  0  0  0  0  0  0
    0.5864    1.4937    1.1307 H   0  0  0  0  0  0  0  0  0  0  0  0
    2.8865   -1.0673    1.3887 H   0  0  0  0  0  0  0  0  0  0  0  0
    6.6489   -0.3062   -0.4283 H   0  0  0  0  0  0  0  0  0  0  0  0
    5.6518    1.0528    0.0628 H   0  0  0  0  0  0  0  0  0  0  0  0
    4.9852   -0.6631   -2.3562 H   0  0  0  0  0  0  0  0  0  0  0  0
    5.6919    0.9784   -2.4675 H   0  0  0  0  0  0  0  0  0  0  0  0
    4.2040    0.8162   -1.7055 H   0  0  0  0  0  0  0  0  0  0  0  0
    4.2537   -3.8273   -0.7008 H   0  0  0  0  0  0  0  0  0  0  0  0
    6.0128   -5.5192    0.2642 H   0  0  0  0  0  0  0  0  0  0  0  0
    8.2196   -5.4242    2.0131 H   0  0  0  0  0  0  0  0  0  0  0  0
    7.8710   -4.1864    3.2240 H   0  0  0  0  0  0  0  0  0  0  0  0
    8.9091   -3.8034    1.8533 H   0  0  0  0  0  0  0  0  0  0  0  0
    5.3554   -0.4193    2.3950 H   0  0  0  0  0  0  0  0  0  0  0  0
    8.5006   -0.4977    4.2447 H   0  0  0  0  0  0  0  0  0  0  0  0
    8.4175    1.2558    4.4920 H   0  0  0  0  0  0  0  0  0  0  0  0
    9.3625   -0.1327    1.9247 H   0  0  0  0  0  0  0  0  0  0  0  0
   10.4523    0.5290    3.1255 H   0  0  0  0  0  0  0  0  0  0  0  0
    9.3711    1.6289    2.2398 H   0  0  0  0  0  0  0  0  0  0  0  0
    6.4054    5.3050    3.6179 H   0  0  0  0  0  0  0  0  0  0  0  0
    4.4739    5.9429    2.7214 H   0  0  0  0  0  0  0  0  0  0  0  0
  1  2  1  0  0  0  0
  1 25  1  0  0  0  0
  1 26  1  0  0  0  0
  1 27  1  0  0  0  0
  2  3  1  0  0  0  0
  2 24  2  3  0  0  0
  3  4  2  3  0  0  0
  3 28  1  0  0  0  0
  4  5  1  0  0  0  0
  4  7  1  0  0  0  0
  5  6  1  0  0  0  0
  5 29  1  0  0  0  0
  5 30  1  0  0  0  0
  6 31  1  0  0  0  0
  6 32  1  0  0  0  0
  6 33  1  0  0  0  0
  7  8  2  0  0  0  0
  7 12  1  0  0  0  0
  8  9  1  0  0  0  0
  8 34  1  0  0  0  0
  9 10  2  0  0  0  0
  9 35  1  0  0  0  0
 10 11  1  0  0  0  0
 10 12  1  0  0  0  0
 11 36  1  0  0  0  0
 11 37  1  0  0  0  0
 11 38  1  0  0  0  0
 12 13  2  3  0  0  0
 13 14  1  0  0  0  0
 14 15  2  3  0  0  0
 14 39  1  0  0  0  0
 15 16  1  0  0  0  0
 15 18  1  0  0  0  0
 16 17  1  0  0  0  0
 16 40  1  0  0  0  0
 16 41  1  0  0  0  0
 17 42  1  0  0  0  0
 17 43  1  0  0  0  0
 17 44  1  0  0  0  0
 18 19  2  3  0  0  0
 19 20  1  0  0  0  0
 20 21  1  0  0  0  0
 20 23  2  0  0  0  0
 21 22  2  0  0  0  0
 21 45  1  0  0  0  0
 22 23  1  0  0  0  0
 22 46  1  0  0  0  0
 23 24  1  0  0  0  0
M  END
$$$$
