
 OpenBabel04232216433D

 42 44  0  0  0  0  0  0  0  0999 V2000
    5.9733    1.4805   -1.0590 C   0  0  0  0  0  0  0  0  0  0  0  0
    5.1215    1.8236   -0.0489 C   0  0  0  0  0  0  0  0  0  0  0  0
    3.8019    1.1189    0.2397 C   0  0  0  0  0  0  0  0  0  0  0  0
    3.6862   -0.2420    0.3212 C   0  0  0  0  0  0  0  0  0  0  0  0
    4.9156   -0.9709   -0.0373 C   0  0  0  0  0  0  0  0  0  0  0  0
    4.9464   -1.4338   -1.3550 C   0  0  0  0  0  0  0  0  0  0  0  0
    4.0532   -0.8016   -2.3512 C   0  0  0  0  0  0  0  0  0  0  0  0
    3.0395   -1.4049   -2.9937 C   0  0  0  0  0  0  0  0  0  0  0  0
    1.7174   -0.9349   -2.5047 C   0  0  0  0  0  0  0  0  0  0  0  0
    1.2434   -1.7917   -1.5795 C   0  0  0  0  0  0  0  0  0  0  0  0
    0.8885   -3.1943   -2.0405 C   0  0  0  0  0  0  0  0  0  0  0  0
    1.4530   -1.5987   -0.1329 C   0  0  0  0  0  0  0  0  0  0  0  0
    2.4353   -1.0152    0.6058 C   0  0  0  0  0  0  0  0  0  0  0  0
    6.1169   -0.7688    0.7605 N   0  0  0  0  0  0  0  0  0  0  0  0
    6.1592   -0.1101    2.1001 C   0  0  0  0  0  0  0  0  0  0  0  0
    7.2643   -0.3836    0.0159 C   0  0  0  0  0  0  0  0  0  0  0  0
    8.4608   -1.2509    0.3095 C   0  0  0  0  0  0  0  0  0  0  0  0
    9.0369   -1.2728    1.3923 O   0  0  0  0  0  0  0  0  0  0  0  0
    8.8403   -2.1251   -0.8376 C   0  0  0  0  0  0  0  0  0  0  0  0
    9.6891   -1.3608   -1.5299 C   0  0  0  0  0  0  0  0  0  0  0  0
    9.2324   -0.2344   -2.3267 C   0  0  0  0  0  0  0  0  0  0  0  0
    8.2403    0.6325   -2.0264 C   0  0  0  0  0  0  0  0  0  0  0  0
    7.2481    0.6157   -0.9225 C   0  0  0  0  0  0  0  0  0  0  0  0
    5.5547    1.2772   -2.0424 H   0  0  0  0  0  0  0  0  0  0  0  0
    5.5338    2.2061    0.8827 H   0  0  0  0  0  0  0  0  0  0  0  0
    2.9555    1.7548    0.4880 H   0  0  0  0  0  0  0  0  0  0  0  0
    5.8000   -1.9337   -1.7832 H   0  0  0  0  0  0  0  0  0  0  0  0
    3.8207    0.2356   -2.1119 H   0  0  0  0  0  0  0  0  0  0  0  0
    3.1295   -2.4663   -3.2246 H   0  0  0  0  0  0  0  0  0  0  0  0
    1.7264    0.1249   -2.2363 H   0  0  0  0  0  0  0  0  0  0  0  0
    1.7838   -3.8164   -2.1489 H   0  0  0  0  0  0  0  0  0  0  0  0
    0.3913   -3.1621   -3.0180 H   0  0  0  0  0  0  0  0  0  0  0  0
    0.2040   -3.7070   -1.3599 H   0  0  0  0  0  0  0  0  0  0  0  0
    0.7344   -2.2001    0.4325 H   0  0  0  0  0  0  0  0  0  0  0  0
    2.4467   -1.3724    1.6424 H   0  0  0  0  0  0  0  0  0  0  0  0
    5.1823    0.0893    2.5473 H   0  0  0  0  0  0  0  0  0  0  0  0
    6.6759    0.8637    2.0370 H   0  0  0  0  0  0  0  0  0  0  0  0
    6.7693   -0.6872    2.8005 H   0  0  0  0  0  0  0  0  0  0  0  0
    7.9150   -2.4804   -1.2924 H   0  0  0  0  0  0  0  0  0  0  0  0
   10.6819   -1.1856   -1.1069 H   0  0  0  0  0  0  0  0  0  0  0  0
    9.8194   -0.0766   -3.2315 H   0  0  0  0  0  0  0  0  0  0  0  0
    8.0635    1.4286   -2.7583 H   0  0  0  0  0  0  0  0  0  0  0  0
  1  2  2  0  0  0  0
  1 23  1  0  0  0  0
  1 24  1  0  0  0  0
  2  3  1  0  0  0  0
  2 25  1  0  0  0  0
  3  4  2  0  0  0  0
  3 26  1  0  0  0  0
  4  5  1  0  0  0  0
  4 13  1  0  0  0  0
  5  6  2  3  0  0  0
  5 14  1  0  0  0  0
  6  7  1  0  0  0  0
  6 27  1  0  0  0  0
  7  8  2  3  0  0  0
  7 28  1  0  0  0  0
  8  9  1  0  0  0  0
  8 29  1  0  0  0  0
  9 10  2  3  0  0  0
  9 30  1  0  0  0  0
 10 11  1  0  0  0  0
 10 12  1  0  0  0  0
 11 31  1  0  0  0  0
 11 32  1  0  0  0  0
 11 33  1  0  0  0  0
 12 13  2  3  0  0  0
 12 34  1  0  0  0  0
 13 35  1  0  0  0  0
 14 15  1  0  0  0  0
 14 16  1  0  0  0  0
 15 36  1  0  0  0  0
 15 37  1  0  0  0  0
 15 38  1  0  0  0  0
 16 17  1  0  0  0  0
 16 23  2  0  0  0  0
 17 18  2  0  0  0  0
 17 19  1  0  0  0  0
 19 20  2  0  0  0  0
 19 39  1  0  0  0  0
 20 21  1  0  0  0  0
 20 40  1  0  0  0  0
 21 22  2  0  0  0  0
 21 41  1  0  0  0  0
 22 23  1  0  0  0  0
 22 42  1  0  0  0  0
M  END
$$$$
