
 OpenBabel04232216533D

167166  0  0  0  0  0  0  0  0999 V2000
    0.8086    8.8247    3.3428 C   0  0  0  0  0  0  0  0  0  0  0  0
    2.3241    8.8545    3.3544 C   0  0  0  0  0  0  0  0  0  0  0  0
    2.8790    7.4562    3.5979 C   0  0  0  0  0  0  0  0  0  0  0  0
    4.4024    7.4767    3.6090 C   0  0  0  0  0  0  0  0  0  0  0  0
    4.9527    6.0779    3.8558 C   0  0  0  0  0  0  0  0  0  0  0  0
    6.4034    6.1282    3.8530 N   0  0  0  0  0  0  0  0  0  0  0  0
    6.8892    4.8188    4.0788 N   0  0  0  0  0  0  0  0  0  0  0  0
    8.2963    4.8598    4.0895 N   0  0  0  0  0  0  0  0  0  0  0  0
    8.7976    3.5483    4.3042 N   0  0  0  0  0  0  0  0  0  0  0  0
   10.2313    3.5559    4.3389 N   0  0  0  0  0  0  0  0  0  0  0  0
   10.7282    4.3924    5.3719 N   0  0  0  0  0  0  0  0  0  0  0  0
   12.1322    4.4167    5.3665 N   0  0  0  0  0  0  0  0  0  0  0  0
   12.5977    5.2606    6.3811 N   0  0  0  0  0  0  0  0  0  0  0  0
   14.0045    5.2536    6.4135 N   0  0  0  0  0  0  0  0  0  0  0  0
   14.5096    6.1030    7.4114 N   0  0  0  0  0  0  0  0  0  0  0  0
   15.9237    6.1034    7.4159 N   0  0  0  0  0  0  0  0  0  0  0  0
   16.3807    6.9508    8.4585 N   0  0  0  0  0  0  0  0  0  0  0  0
   17.8503    6.9498    8.4553 C   0  0  0  0  0  0  0  0  0  0  0  0
   18.3576    7.8603    9.5621 C   0  0  0  0  0  0  0  0  0  0  0  0
   19.8804    7.8636    9.5676 C   0  0  0  0  0  0  0  0  0  0  0  0
   20.3945    8.7730   10.6700 C   0  0  0  0  0  0  0  0  0  0  0  0
   21.9128    8.7733   10.6765 C   0  0  0  0  0  0  0  0  0  0  0  0
   22.4234    9.6843   11.7778 C   0  0  0  0  0  0  0  0  0  0  0  0
   23.9408    9.6856   11.7826 C   0  0  0  0  0  0  0  0  0  0  0  0
   24.4506   10.5965   12.8837 C   0  0  0  0  0  0  0  0  0  0  0  0
   25.9677   10.5992   12.8869 C   0  0  0  0  0  0  0  0  0  0  0  0
   26.4773   11.5100   13.9879 C   0  0  0  0  0  0  0  0  0  0  0  0
   27.9944   11.5127   13.9912 C   0  0  0  0  0  0  0  0  0  0  0  0
   28.5040   12.4235   15.0922 C   0  0  0  0  0  0  0  0  0  0  0  0
   30.0211   12.4261   15.0954 C   0  0  0  0  0  0  0  0  0  0  0  0
   30.5307   13.3369   16.1964 C   0  0  0  0  0  0  0  0  0  0  0  0
   32.0478   13.3396   16.1996 C   0  0  0  0  0  0  0  0  0  0  0  0
   32.5574   14.2504   17.3006 C   0  0  0  0  0  0  0  0  0  0  0  0
   34.0744   14.2546   17.3025 C   0  0  0  0  0  0  0  0  0  0  0  0
   34.5840   15.1654   18.4035 C   0  0  0  0  0  0  0  0  0  0  0  0
   36.1011   15.1712   18.4042 C   0  0  0  0  0  0  0  0  0  0  0  0
   36.6107   16.0835   19.5039 C   0  0  0  0  0  0  0  0  0  0  0  0
   38.1277   16.0877   19.5058 C   0  0  0  0  0  0  0  0  0  0  0  0
   38.6374   17.0017   20.6043 C   0  0  0  0  0  0  0  0  0  0  0  0
   40.1545   17.0044   20.6075 C   0  0  0  0  0  0  0  0  0  0  0  0
   40.6644   17.9199   21.7048 C   0  0  0  0  0  0  0  0  0  0  0  0
   42.1818   17.9229   21.7084 C   0  0  0  0  0  0  0  0  0  0  0  0
   42.6930   18.8386   22.8059 C   0  0  0  0  0  0  0  0  0  0  0  0
   44.2118   18.8432   22.8114 C   0  0  0  0  0  0  0  0  0  0  0  0
   44.7274   19.7590   23.9089 C   0  0  0  0  0  0  0  0  0  0  0  0
   46.2485   19.7669   23.9181 C   0  0  0  0  0  0  0  0  0  0  0  0
   46.7696   20.6849   25.0170 C   0  0  0  0  0  0  0  0  0  0  0  0
   48.2893   20.6962   25.0432 C   0  0  0  0  0  0  0  0  0  0  0  0
   48.9355   21.7867   26.3720 S   0  0  0  0  0  0  0  0  0  0  0  0
   48.2106   21.0231   28.1477 S   0  0  0  0  0  0  0  0  0  0  0  0
   48.9660   19.1056   28.3450 S   0  0  0  0  0  0  0  0  0  0  0  0
   51.0369   19.2052   28.4311 S   0  0  0  0  0  0  0  0  0  0  0  0
   51.7782   17.2504   28.6138 S   0  0  0  0  0  0  0  0  0  0  0  0
   53.8807   17.3455   28.6552 S   0  0  0  0  0  0  0  0  0  0  0  0
   54.6426   15.3911   28.8581 S   0  0  0  0  0  0  0  0  0  0  0  0
   56.7491   15.4874   28.8992 S   0  0  0  0  0  0  0  0  0  0  0  0
   57.5130   13.5318   29.1020 S   0  0  0  0  0  0  0  0  0  0  0  0
   59.6198   13.6277   29.1432 S   0  0  0  0  0  0  0  0  0  0  0  0
   60.3837   11.6720   29.3460 S   0  0  0  0  0  0  0  0  0  0  0  0
   62.4905   11.7679   29.3872 S   0  0  0  0  0  0  0  0  0  0  0  0
   63.2545    9.8121   29.5900 S   0  0  0  0  0  0  0  0  0  0  0  0
   65.3613    9.9080   29.6312 S   0  0  0  0  0  0  0  0  0  0  0  0
   66.1252    7.9523   29.8340 S   0  0  0  0  0  0  0  0  0  0  0  0
   68.2321    8.0481   29.8753 S   0  0  0  0  0  0  0  0  0  0  0  0
   68.9960    6.0924   30.0780 S   0  0  0  0  0  0  0  0  0  0  0  0
   71.1028    6.1883   30.1193 S   0  0  0  0  0  0  0  0  0  0  0  0
   71.8668    4.2325   30.3220 S   0  0  0  0  0  0  0  0  0  0  0  0
   73.9736    4.3284   30.3633 S   0  0  0  0  0  0  0  0  0  0  0  0
   74.7375    2.3726   30.5661 S   0  0  0  0  0  0  0  0  0  0  0  0
   76.8444    2.4685   30.6073 S   0  0  0  0  0  0  0  0  0  0  0  0
   77.6083    0.5128   30.8101 S   0  0  0  0  0  0  0  0  0  0  0  0
   79.7151    0.6087   30.8513 S   0  0  0  0  0  0  0  0  0  0  0  0
   80.4790   -1.3471   31.0541 S   0  0  0  0  0  0  0  0  0  0  0  0
   82.5857   -1.2511   31.0953 S   0  0  0  0  0  0  0  0  0  0  0  0
   83.3492   -3.2066   31.2980 S   0  0  0  0  0  0  0  0  0  0  0  0
   85.4540   -3.1096   31.3394 S   0  0  0  0  0  0  0  0  0  0  0  0
   86.2143   -5.0622   31.5416 S   0  0  0  0  0  0  0  0  0  0  0  0
   88.3089   -4.9534   31.5626 S   0  0  0  0  0  0  0  0  0  0  0  0
   89.0633   -6.8778   31.8221 S   0  0  0  0  0  0  0  0  0  0  0  0
   91.1435   -6.7606   31.8138 S   0  0  0  0  0  0  0  0  0  0  0  0
   91.6775   -5.6525   33.4639 S   0  0  0  0  0  0  0  0  0  0  0  0
    0.4091    9.8284    3.1682 H   0  0  0  0  0  0  0  0  0  0  0  0
    0.4221    8.4611    4.3005 H   0  0  0  0  0  0  0  0  0  0  0  0
    0.4412    8.1642    2.5507 H   0  0  0  0  0  0  0  0  0  0  0  0
    2.6729    9.5361    4.1385 H   0  0  0  0  0  0  0  0  0  0  0  0
    2.6918    9.2405    2.3967 H   0  0  0  0  0  0  0  0  0  0  0  0
    2.5224    6.7753    2.8149 H   0  0  0  0  0  0  0  0  0  0  0  0
    2.5062    7.0718    4.5554 H   0  0  0  0  0  0  0  0  0  0  0  0
    4.7534    8.1614    4.3923 H   0  0  0  0  0  0  0  0  0  0  0  0
    4.7700    7.8619    2.6495 H   0  0  0  0  0  0  0  0  0  0  0  0
    4.5955    5.4098    3.0591 H   0  0  0  0  0  0  0  0  0  0  0  0
    4.5731    5.6954    4.8113 H   0  0  0  0  0  0  0  0  0  0  0  0
    6.7449    6.7190    4.6114 H   0  0  0  0  0  0  0  0  0  0  0  0
    6.5882    4.1867    3.3361 H   0  0  0  0  0  0  0  0  0  0  0  0
    8.5814    5.5146    4.8175 H   0  0  0  0  0  0  0  0  0  0  0  0
    8.4584    2.9186    3.5660 H   0  0  0  0  0  0  0  0  0  0  0  0
   10.6075    3.9113    3.4545 H   0  0  0  0  0  0  0  0  0  0  0  0
   10.4020    4.0563    6.2838 H   0  0  0  0  0  0  0  0  0  0  0  0
   12.4802    4.7527    4.4615 H   0  0  0  0  0  0  0  0  0  0  0  0
   12.2578    4.9104    7.2902 H   0  0  0  0  0  0  0  0  0  0  0  0
   14.3292    5.6131    5.4930 H   0  0  0  0  0  0  0  0  0  0  0  0
   14.1943    5.7664    8.3293 H   0  0  0  0  0  0  0  0  0  0  0  0
   16.2251    6.4477    6.5049 H   0  0  0  0  0  0  0  0  0  0  0  0
   16.0427    6.6024    9.3485 H   0  0  0  0  0  0  0  0  0  0  0  0
   18.2237    7.3114    7.4900 H   0  0  0  0  0  0  0  0  0  0  0  0
   18.2290    5.9322    8.6095 H   0  0  0  0  0  0  0  0  0  0  0  0
   17.9875    7.5176   10.5351 H   0  0  0  0  0  0  0  0  0  0  0  0
   17.9884    8.8822    9.4107 H   0  0  0  0  0  0  0  0  0  0  0  0
   20.2586    8.2070    8.5973 H   0  0  0  0  0  0  0  0  0  0  0  0
   20.2561    6.8451    9.7221 H   0  0  0  0  0  0  0  0  0  0  0  0
   20.0187    8.4312   11.6418 H   0  0  0  0  0  0  0  0  0  0  0  0
   20.0233    9.7933   10.5160 H   0  0  0  0  0  0  0  0  0  0  0  0
   22.2908    9.1146    9.7054 H   0  0  0  0  0  0  0  0  0  0  0  0
   22.2861    7.7542   10.8330 H   0  0  0  0  0  0  0  0  0  0  0  0
   22.0476    9.3425   12.7496 H   0  0  0  0  0  0  0  0  0  0  0  0
   22.0501   10.7036   11.6226 H   0  0  0  0  0  0  0  0  0  0  0  0
   24.3171   10.0277   10.8111 H   0  0  0  0  0  0  0  0  0  0  0  0
   24.3148    8.6666   11.9381 H   0  0  0  0  0  0  0  0  0  0  0  0
   24.0757   10.2537   13.8554 H   0  0  0  0  0  0  0  0  0  0  0  0
   24.0758   11.6153   12.7291 H   0  0  0  0  0  0  0  0  0  0  0  0
   26.3427   10.9420   11.9152 H   0  0  0  0  0  0  0  0  0  0  0  0
   26.3427    9.5805   13.0416 H   0  0  0  0  0  0  0  0  0  0  0  0
   26.1024   11.1672   14.9597 H   0  0  0  0  0  0  0  0  0  0  0  0
   26.1024   12.5288   13.8333 H   0  0  0  0  0  0  0  0  0  0  0  0
   28.3693   11.8555   13.0194 H   0  0  0  0  0  0  0  0  0  0  0  0
   28.3694   10.4939   14.1458 H   0  0  0  0  0  0  0  0  0  0  0  0
   28.1291   12.0807   16.0639 H   0  0  0  0  0  0  0  0  0  0  0  0
   28.1291   13.4422   14.9375 H   0  0  0  0  0  0  0  0  0  0  0  0
   30.3960   12.7690   14.1236 H   0  0  0  0  0  0  0  0  0  0  0  0
   30.3960   11.4074   15.2500 H   0  0  0  0  0  0  0  0  0  0  0  0
   30.1558   12.9941   17.1681 H   0  0  0  0  0  0  0  0  0  0  0  0
   30.1558   14.3557   16.0418 H   0  0  0  0  0  0  0  0  0  0  0  0
   32.4226   13.6824   15.2279 H   0  0  0  0  0  0  0  0  0  0  0  0
   32.4227   12.3209   16.3542 H   0  0  0  0  0  0  0  0  0  0  0  0
   32.1836   13.9067   18.2725 H   0  0  0  0  0  0  0  0  0  0  0  0
   32.1813   15.2689   17.1468 H   0  0  0  0  0  0  0  0  0  0  0  0
   34.4481   14.5983   16.3306 H   0  0  0  0  0  0  0  0  0  0  0  0
   34.4505   13.2362   17.4564 H   0  0  0  0  0  0  0  0  0  0  0  0
   34.2114   14.8209   19.3756 H   0  0  0  0  0  0  0  0  0  0  0  0
   34.2068   16.1836   18.2505 H   0  0  0  0  0  0  0  0  0  0  0  0
   36.4737   15.5143   17.4317 H   0  0  0  0  0  0  0  0  0  0  0  0
   36.4783   14.1532   18.5586 H   0  0  0  0  0  0  0  0  0  0  0  0
   36.2369   15.7413   20.4763 H   0  0  0  0  0  0  0  0  0  0  0  0
   36.2345   17.1017   19.3486 H   0  0  0  0  0  0  0  0  0  0  0  0
   38.5015   16.4287   18.5330 H   0  0  0  0  0  0  0  0  0  0  0  0
   38.5038   15.0697   19.6625 H   0  0  0  0  0  0  0  0  0  0  0  0
   38.2624   16.6616   21.5770 H   0  0  0  0  0  0  0  0  0  0  0  0
   38.2624   18.0199   20.4467 H   0  0  0  0  0  0  0  0  0  0  0  0
   40.5294   17.3430   19.6343 H   0  0  0  0  0  0  0  0  0  0  0  0
   40.5293   15.9862   20.7664 H   0  0  0  0  0  0  0  0  0  0  0  0
   40.2891   17.5811   22.6778 H   0  0  0  0  0  0  0  0  0  0  0  0
   40.2892   18.9379   21.5457 H   0  0  0  0  0  0  0  0  0  0  0  0
   42.5563   18.2613   20.7348 H   0  0  0  0  0  0  0  0  0  0  0  0
   42.5562   16.9045   21.8670 H   0  0  0  0  0  0  0  0  0  0  0  0
   42.3165   18.4996   23.7786 H   0  0  0  0  0  0  0  0  0  0  0  0
   42.3166   19.8563   22.6465 H   0  0  0  0  0  0  0  0  0  0  0  0
   44.5848   19.1802   21.8364 H   0  0  0  0  0  0  0  0  0  0  0  0
   44.5848   17.8236   22.9684 H   0  0  0  0  0  0  0  0  0  0  0  0
   44.3477   19.4197   24.8810 H   0  0  0  0  0  0  0  0  0  0  0  0
   44.3478   20.7761   23.7492 H   0  0  0  0  0  0  0  0  0  0  0  0
   46.6203   20.1026   22.9419 H   0  0  0  0  0  0  0  0  0  0  0  0
   46.6201   18.7461   24.0740 H   0  0  0  0  0  0  0  0  0  0  0  0
   46.3746   20.3356   25.9771 H   0  0  0  0  0  0  0  0  0  0  0  0
   46.3873   21.6995   24.8521 H   0  0  0  0  0  0  0  0  0  0  0  0
   48.6750   21.0470   24.0872 H   0  0  0  0  0  0  0  0  0  0  0  0
   48.6809   19.6906   25.2027 H   0  0  0  0  0  0  0  0  0  0  0  0
   93.0254   -5.6306   33.3997 H   0  0  0  0  0  0  0  0  0  0  0  0
  1  2  1  0  0  0  0
  1 82  1  0  0  0  0
  1 83  1  0  0  0  0
  1 84  1  0  0  0  0
  2  3  1  0  0  0  0
  2 85  1  0  0  0  0
  2 86  1  0  0  0  0
  3  4  1  0  0  0  0
  3 87  1  0  0  0  0
  3 88  1  0  0  0  0
  4  5  1  0  0  0  0
  4 89  1  0  0  0  0
  4 90  1  0  0  0  0
  5  6  1  0  0  0  0
  5 91  1  0  0  0  0
  5 92  1  0  0  0  0
  6  7  1  0  0  0  0
  6 93  1  0  0  0  0
  7  8  1  0  0  0  0
  7 94  1  0  0  0  0
  8  9  1  0  0  0  0
  8 95  1  0  0  0  0
  9 10  1  0  0  0  0
  9 96  1  0  0  0  0
 10 11  1  0  0  0  0
 10 97  1  0  0  0  0
 11 12  1  0  0  0  0
 11 98  1  0  0  0  0
 12 13  1  0  0  0  0
 12 99  1  0  0  0  0
 13 14  1  0  0  0  0
 13100  1  0  0  0  0
 14 15  1  0  0  0  0
 14101  1  0  0  0  0
 15 16  1  0  0  0  0
 15102  1  0  0  0  0
 16 17  1  0  0  0  0
 16103  1  0  0  0  0
 17 18  1  0  0  0  0
 17104  1  0  0  0  0
 18 19  1  0  0  0  0
 18105  1  0  0  0  0
 18106  1  0  0  0  0
 19 20  1  0  0  0  0
 19107  1  0  0  0  0
 19108  1  0  0  0  0
 20 21  1  0  0  0  0
 20109  1  0  0  0  0
 20110  1  0  0  0  0
 21 22  1  0  0  0  0
 21111  1  0  0  0  0
 21112  1  0  0  0  0
 22 23  1  0  0  0  0
 22113  1  0  0  0  0
 22114  1  0  0  0  0
 23 24  1  0  0  0  0
 23115  1  0  0  0  0
 23116  1  0  0  0  0
 24 25  1  0  0  0  0
 24117  1  0  0  0  0
 24118  1  0  0  0  0
 25 26  1  0  0  0  0
 25119  1  0  0  0  0
 25120  1  0  0  0  0
 26 27  1  0  0  0  0
 26121  1  0  0  0  0
 26122  1  0  0  0  0
 27 28  1  0  0  0  0
 27123  1  0  0  0  0
 27124  1  0  0  0  0
 28 29  1  0  0  0  0
 28125  1  0  0  0  0
 28126  1  0  0  0  0
 29 30  1  0  0  0  0
 29127  1  0  0  0  0
 29128  1  0  0  0  0
 30 31  1  0  0  0  0
 30129  1  0  0  0  0
 30130  1  0  0  0  0
 31 32  1  0  0  0  0
 31131  1  0  0  0  0
 31132  1  0  0  0  0
 32 33  1  0  0  0  0
 32133  1  0  0  0  0
 32134  1  0  0  0  0
 33 34  1  0  0  0  0
 33135  1  0  0  0  0
 33136  1  0  0  0  0
 34 35  1  0  0  0  0
 34137  1  0  0  0  0
 34138  1  0  0  0  0
 35 36  1  0  0  0  0
 35139  1  0  0  0  0
 35140  1  0  0  0  0
 36 37  1  0  0  0  0
 36141  1  0  0  0  0
 36142  1  0  0  0  0
 37 38  1  0  0  0  0
 37143  1  0  0  0  0
 37144  1  0  0  0  0
 38 39  1  0  0  0  0
 38145  1  0  0  0  0
 38146  1  0  0  0  0
 39 40  1  0  0  0  0
 39147  1  0  0  0  0
 39148  1  0  0  0  0
 40 41  1  0  0  0  0
 40149  1  0  0  0  0
 40150  1  0  0  0  0
 41 42  1  0  0  0  0
 41151  1  0  0  0  0
 41152  1  0  0  0  0
 42 43  1  0  0  0  0
 42153  1  0  0  0  0
 42154  1  0  0  0  0
 43 44  1  0  0  0  0
 43155  1  0  0  0  0
 43156  1  0  0  0  0
 44 45  1  0  0  0  0
 44157  1  0  0  0  0
 44158  1  0  0  0  0
 45 46  1  0  0  0  0
 45159  1  0  0  0  0
 45160  1  0  0  0  0
 46 47  1  0  0  0  0
 46161  1  0  0  0  0
 46162  1  0  0  0  0
 47 48  1  0  0  0  0
 47163  1  0  0  0  0
 47164  1  0  0  0  0
 48 49  1  0  0  0  0
 48165  1  0  0  0  0
 48166  1  0  0  0  0
 49 50  1  0  0  0  0
 50 51  1  0  0  0  0
 51 52  1  0  0  0  0
 52 53  1  0  0  0  0
 53 54  1  0  0  0  0
 54 55  1  0  0  0  0
 55 56  1  0  0  0  0
 56 57  1  0  0  0  0
 57 58  1  0  0  0  0
 58 59  1  0  0  0  0
 59 60  1  0  0  0  0
 60 61  1  0  0  0  0
 61 62  1  0  0  0  0
 62 63  1  0  0  0  0
 63 64  1  0  0  0  0
 64 65  1  0  0  0  0
 65 66  1  0  0  0  0
 66 67  1  0  0  0  0
 67 68  1  0  0  0  0
 68 69  1  0  0  0  0
 69 70  1  0  0  0  0
 70 71  1  0  0  0  0
 71 72  1  0  0  0  0
 72 73  1  0  0  0  0
 73 74  1  0  0  0  0
 74 75  1  0  0  0  0
 75 76  1  0  0  0  0
 76 77  1  0  0  0  0
 77 78  1  0  0  0  0
 78 79  1  0  0  0  0
 79 80  1  0  0  0  0
 80 81  1  0  0  0  0
 81167  1  0  0  0  0
M  END
$$$$
