
 OpenBabel04232216453D

 49 50  0  0  1  0  0  0  0  0999 V2000
    1.9351   -0.1186    2.9022 C   0  0  0  0  0  0  0  0  0  0  0  0
    3.3177   -0.0281    2.2947 C   0  0  0  0  0  0  0  0  0  0  0  0
    4.1769   -1.1603    2.5209 C   0  0  0  0  0  0  0  0  0  0  0  0
    5.4451   -1.3680    2.1193 C   0  0  0  0  0  0  0  0  0  0  0  0
    6.0217   -2.7081    2.5547 C   0  0  0  0  0  0  0  0  0  0  0  0
    6.2724   -0.5102    1.3590 N   0  0  0  0  0  0  0  0  0  0  0  0
    7.6438   -0.9492    1.0262 C   0  0  0  0  0  0  0  0  0  0  0  0
    5.8747    0.7535    0.8380 C   0  0  0  0  0  0  0  0  0  0  0  0
    6.9206    1.5816   -0.0396 C   0  0  0  0  0  0  0  0  0  0  0  0
    7.7734    1.0366   -0.7388 O   0  0  0  0  0  0  0  0  0  0  0  0
    6.8503    3.0635   -0.0051 C   0  0  0  0  0  0  0  0  0  0  0  0
    7.4014    3.7347   -1.0419 C   0  0  0  0  0  0  0  0  0  0  0  0
    7.3841    5.1702   -1.0730 C   0  0  0  0  0  0  0  0  0  0  0  0
    7.0909    5.8972    0.0228 C   0  0  0  0  0  0  0  0  0  0  0  0
    7.0871    7.4077   -0.0349 C   0  0  0  0  0  0  0  0  0  0  0  0
    8.0765    8.0910    0.9226 C   0  0  3  0  0  0  0  0  0  0  0  0
    9.4139    7.6749    0.6343 O   0  0  0  0  0  0  0  0  0  0  0  0
    8.0126    9.6182    0.8281 C   0  0  0  0  0  0  0  0  0  0  0  0
    9.0039   10.2576    1.7956 C   0  0  0  0  0  0  0  0  0  0  0  0
    6.7697    5.2039    1.3332 C   0  0  0  0  0  0  0  0  0  0  0  0
    6.2837    3.7552    1.1902 C   0  0  0  0  0  0  0  0  0  0  0  0
    4.7648    1.4102    0.9224 N   0  0  0  0  0  0  0  0  0  0  0  0
    3.6386    1.0592    1.5943 C   0  0  0  0  0  0  0  0  0  0  0  0
    1.7619   -1.0606    3.4333 H   0  0  0  0  0  0  0  0  0  0  0  0
    1.1670   -0.0469    2.1228 H   0  0  0  0  0  0  0  0  0  0  0  0
    1.7785    0.6905    3.6243 H   0  0  0  0  0  0  0  0  0  0  0  0
    3.7026   -1.9484    3.1044 H   0  0  0  0  0  0  0  0  0  0  0  0
    5.3208   -3.3148    3.1390 H   0  0  0  0  0  0  0  0  0  0  0  0
    6.9004   -2.5560    3.1902 H   0  0  0  0  0  0  0  0  0  0  0  0
    6.2920   -3.3075    1.6789 H   0  0  0  0  0  0  0  0  0  0  0  0
    7.9315   -1.9220    1.4239 H   0  0  0  0  0  0  0  0  0  0  0  0
    8.3739   -0.2422    1.4356 H   0  0  0  0  0  0  0  0  0  0  0  0
    7.7548   -1.0614   -0.0574 H   0  0  0  0  0  0  0  0  0  0  0  0
    7.8567    3.2154   -1.8751 H   0  0  0  0  0  0  0  0  0  0  0  0
    7.6446    5.6422   -2.0177 H   0  0  0  0  0  0  0  0  0  0  0  0
    6.0707    7.7618    0.1794 H   0  0  0  0  0  0  0  0  0  0  0  0
    7.3215    7.7163   -1.0609 H   0  0  0  0  0  0  0  0  0  0  0  0
    7.8513    7.8023    1.9565 H   0  0  0  0  0  0  0  0  0  0  0  0
    9.5658    7.8026   -0.3175 H   0  0  0  0  0  0  0  0  0  0  0  0
    7.0000    9.9710    1.0588 H   0  0  0  0  0  0  0  0  0  0  0  0
    8.2568    9.9482   -0.1896 H   0  0  0  0  0  0  0  0  0  0  0  0
    8.7871    9.9548    2.8254 H   0  0  0  0  0  0  0  0  0  0  0  0
    8.9508   11.3485    1.7389 H   0  0  0  0  0  0  0  0  0  0  0  0
   10.0311    9.9582    1.5648 H   0  0  0  0  0  0  0  0  0  0  0  0
    5.9915    5.7419    1.8874 H   0  0  0  0  0  0  0  0  0  0  0  0
    7.6736    5.2092    1.9533 H   0  0  0  0  0  0  0  0  0  0  0  0
    5.1900    3.7669    1.1271 H   0  0  0  0  0  0  0  0  0  0  0  0
    6.5493    3.2029    2.0999 H   0  0  0  0  0  0  0  0  0  0  0  0
    2.8717    1.8338    1.5160 H   0  0  0  0  0  0  0  0  0  0  0  0
  1  2  1  0  0  0  0
  1 24  1  0  0  0  0
  1 25  1  0  0  0  0
  1 26  1  0  0  0  0
  2  3  1  0  0  0  0
  2 23  2  0  0  0  0
  3  4  2  0  0  0  0
  3 27  1  0  0  0  0
  4  5  1  0  0  0  0
  4  6  1  0  0  0  0
  5 28  1  0  0  0  0
  5 29  1  0  0  0  0
  5 30  1  0  0  0  0
  6  7  1  0  0  0  0
  6  8  1  0  0  0  0
  7 31  1  0  0  0  0
  7 32  1  0  0  0  0
  7 33  1  0  0  0  0
  8  9  1  0  0  0  0
  8 22  2  0  0  0  0
  9 10  2  0  0  0  0
  9 11  1  0  0  0  0
 11 12  2  0  0  0  0
 11 21  1  0  0  0  0
 12 13  1  0  0  0  0
 12 34  1  0  0  0  0
 13 14  2  0  0  0  0
 13 35  1  0  0  0  0
 14 15  1  0  0  0  0
 14 20  1  0  0  0  0
 15 16  1  0  0  0  0
 15 36  1  0  0  0  0
 15 37  1  0  0  0  0
 16 17  1  0  0  0  0
 16 18  1  0  0  0  0
 16 38  1  0  0  0  0
 17 39  1  0  0  0  0
 18 19  1  0  0  0  0
 18 40  1  0  0  0  0
 18 41  1  0  0  0  0
 19 42  1  0  0  0  0
 19 43  1  0  0  0  0
 19 44  1  0  0  0  0
 20 21  1  0  0  0  0
 20 45  1  0  0  0  0
 20 46  1  0  0  0  0
 21 47  1  0  0  0  0
 21 48  1  0  0  0  0
 22 23  1  0  0  0  0
 23 49  1  0  0  0  0
M  END
$$$$
