
 OpenBabel04232216443D

 49 50  0  0  0  0  0  0  0  0999 V2000
    1.0163   -0.7853    0.2828 C   0  0  0  0  0  0  0  0  0  0  0  0
    2.5516   -0.6844    0.3294 C   0  0  0  0  0  0  0  0  0  0  0  0
    3.0115    0.7297    0.3610 C   0  0  0  0  0  0  0  0  0  0  0  0
    3.0965    1.2590   -1.0878 C   0  0  0  0  0  0  0  0  0  0  0  0
    3.5995    2.6524   -1.5372 C   0  0  0  0  0  0  0  0  0  0  0  0
    5.0380    3.1219   -1.2541 C   0  0  0  0  0  0  0  0  0  0  0  0
    6.1431    2.3260   -1.9666 C   0  0  0  0  0  0  0  0  0  0  0  0
    7.5692    2.8445   -1.7191 C   0  0  0  0  0  0  0  0  0  0  0  0
    3.0590    1.0846    1.6902 C   0  0  0  0  0  0  0  0  0  0  0  0
    3.7398    0.1123    2.6885 C   0  0  0  0  0  0  0  0  0  0  0  0
    3.5979   -0.3470    4.1874 C   0  0  0  0  0  0  0  0  0  0  0  0
    4.9297   -0.7976    5.0290 C   0  0  0  0  0  0  0  0  0  0  0  0
    6.0035    0.2771    5.2933 C   0  0  0  0  0  0  0  0  0  0  0  0
    6.7684    0.6167    4.0158 C   0  0  0  0  0  0  0  0  0  0  0  0
    5.8192    1.1967    3.0044 C   0  0  0  0  0  0  0  0  0  0  0  0
    5.0058    0.0979    2.3453 C   0  0  0  0  0  0  0  0  0  0  0  0
    5.4533   -0.7137    1.2274 C   0  0  0  0  0  0  0  0  0  0  0  0
    4.7225   -1.5307    0.4279 C   0  0  0  0  0  0  0  0  0  0  0  0
    5.4432   -2.4179   -0.5257 C   0  0  0  0  0  0  0  0  0  0  0  0
    3.3175   -1.7240    0.4012 N   0  0  0  0  0  0  0  0  0  0  0  0
    0.6012    0.0860   -0.2463 H   0  0  0  0  0  0  0  0  0  0  0  0
    0.6051   -0.7468    1.2869 H   0  0  0  0  0  0  0  0  0  0  0  0
    0.6691   -1.6767   -0.2511 H   0  0  0  0  0  0  0  0  0  0  0  0
    2.0915    1.1691   -1.5327 H   0  0  0  0  0  0  0  0  0  0  0  0
    3.6781    0.5282   -1.6827 H   0  0  0  0  0  0  0  0  0  0  0  0
    2.9006    3.3909   -1.1200 H   0  0  0  0  0  0  0  0  0  0  0  0
    3.4630    2.7093   -2.6274 H   0  0  0  0  0  0  0  0  0  0  0  0
    5.2133    3.1508   -0.1755 H   0  0  0  0  0  0  0  0  0  0  0  0
    5.1064    4.1611   -1.6129 H   0  0  0  0  0  0  0  0  0  0  0  0
    5.9703    2.3535   -3.0500 H   0  0  0  0  0  0  0  0  0  0  0  0
    6.1003    1.2851   -1.6496 H   0  0  0  0  0  0  0  0  0  0  0  0
    7.7135    3.8632   -2.0833 H   0  0  0  0  0  0  0  0  0  0  0  0
    8.2837    2.2062   -2.2503 H   0  0  0  0  0  0  0  0  0  0  0  0
    7.8340    2.8158   -0.6556 H   0  0  0  0  0  0  0  0  0  0  0  0
    3.1461    2.1221    1.9580 H   0  0  0  0  0  0  0  0  0  0  0  0
    3.0208   -1.2916    4.1715 H   0  0  0  0  0  0  0  0  0  0  0  0
    3.0451    0.3591    4.7997 H   0  0  0  0  0  0  0  0  0  0  0  0
    4.6247   -1.1888    6.0123 H   0  0  0  0  0  0  0  0  0  0  0  0
    5.4313   -1.6495    4.5405 H   0  0  0  0  0  0  0  0  0  0  0  0
    6.7347   -0.0613    6.0416 H   0  0  0  0  0  0  0  0  0  0  0  0
    5.5303    1.1714    5.7260 H   0  0  0  0  0  0  0  0  0  0  0  0
    7.2448   -0.2892    3.6165 H   0  0  0  0  0  0  0  0  0  0  0  0
    7.5676    1.3371    4.2200 H   0  0  0  0  0  0  0  0  0  0  0  0
    6.2755    1.8496    2.2778 H   0  0  0  0  0  0  0  0  0  0  0  0
    5.1215    1.8640    3.5685 H   0  0  0  0  0  0  0  0  0  0  0  0
    6.5354   -0.6967    1.0887 H   0  0  0  0  0  0  0  0  0  0  0  0
    6.5250   -2.2440   -0.5014 H   0  0  0  0  0  0  0  0  0  0  0  0
    5.0964   -2.2377   -1.5485 H   0  0  0  0  0  0  0  0  0  0  0  0
    5.2711   -3.4704   -0.2716 H   0  0  0  0  0  0  0  0  0  0  0  0
  1  2  1  0  0  0  0
  1 21  1  0  0  0  0
  1 22  1  0  0  0  0
  1 23  1  0  0  0  0
  2  3  1  0  0  0  0
  2 20  2  0  0  0  0
  3  4  1  0  0  0  0
  3  9  2  0  0  0  0
  4  5  1  0  0  0  0
  4 24  1  0  0  0  0
  4 25  1  0  0  0  0
  5  6  1  0  0  0  0
  5 26  1  0  0  0  0
  5 27  1  0  0  0  0
  6  7  1  0  0  0  0
  6 28  1  0  0  0  0
  6 29  1  0  0  0  0
  7  8  1  0  0  0  0
  7 30  1  0  0  0  0
  7 31  1  0  0  0  0
  8 32  1  0  0  0  0
  8 33  1  0  0  0  0
  8 34  1  0  0  0  0
  9 10  1  0  0  0  0
  9 35  1  0  0  0  0
 10 11  1  0  0  0  0
 10 16  2  0  0  0  0
 11 12  1  0  0  0  0
 11 36  1  0  0  0  0
 11 37  1  0  0  0  0
 12 13  1  0  0  0  0
 12 38  1  0  0  0  0
 12 39  1  0  0  0  0
 13 14  1  0  0  0  0
 13 40  1  0  0  0  0
 13 41  1  0  0  0  0
 14 15  1  0  0  0  0
 14 42  1  0  0  0  0
 14 43  1  0  0  0  0
 15 16  1  0  0  0  0
 15 44  1  0  0  0  0
 15 45  1  0  0  0  0
 16 17  1  0  0  0  0
 17 18  2  0  0  0  0
 17 46  1  0  0  0  0
 18 19  1  0  0  0  0
 18 20  1  0  0  0  0
 19 47  1  0  0  0  0
 19 48  1  0  0  0  0
 19 49  1  0  0  0  0
M  END
$$$$
