
 OpenBabel04232216563D

 63 65  0  0  1  0  0  0  0  0999 V2000
    3.1758   -0.4072    0.6503 C   0  0  0  0  0  0  0  0  0  0  0  0
    4.3933   -0.0803    1.4354 N   0  0  0  0  0  0  0  0  0  0  0  0
    5.5088    0.5147    0.7482 N   0  0  0  0  0  0  0  0  0  0  0  0
    5.8256    0.2909   -0.5262 C   0  0  0  0  0  0  0  0  0  0  0  0
    5.1174   -0.6175   -1.4854 C   0  0  0  0  0  0  0  0  0  0  0  0
    6.1555   -1.2705   -2.0201 C   0  0  0  0  0  0  0  0  0  0  0  0
    6.1941   -0.9232   -3.7589 S   0  0  0  0  0  0  0  0  0  0  0  0
    7.2519   -0.9647   -1.0520 C   0  0  0  0  0  0  0  0  0  0  0  0
    7.3956    0.5260   -1.0297 C   0  0  3  0  0  0  0  0  0  0  0  0
    8.4700    0.5769   -2.2089 C   0  0  0  0  0  0  0  0  0  0  0  0
    9.5656   -0.6067   -2.5157 C   0  0  0  0  0  0  0  0  0  0  0  0
    9.2704   -2.1101   -2.8737 C   0  0  0  0  0  0  0  0  0  0  0  0
    9.2510   -3.1771   -1.7421 C   0  0  0  0  0  0  0  0  0  0  0  0
    7.9753   -4.0521   -1.7653 C   0  0  0  0  0  0  0  0  0  0  0  0
    7.0990   -4.1389   -0.5171 C   0  0  0  0  0  0  0  0  0  0  0  0
    7.0312   -2.9809    0.4562 C   0  0  0  0  0  0  0  0  0  0  0  0
    7.5644   -1.6244    0.0929 C   0  0  0  0  0  0  0  0  0  0  0  0
    8.3121   -0.9557    1.1753 C   0  0  0  0  0  0  0  0  0  0  0  0
    8.0176   -1.1739    2.4481 C   0  0  0  0  0  0  0  0  0  0  0  0
    8.7126   -0.7011    3.6076 C   0  0  0  0  0  0  0  0  0  0  0  0
    8.7124   -1.5314    4.6534 C   0  0  0  0  0  0  0  0  0  0  0  0
    9.1929   -1.2122    5.9661 C   0  0  0  0  0  0  0  0  0  0  0  0
    8.8839   -2.0377    6.9923 C   0  0  0  0  0  0  0  0  0  0  0  0
    8.4745   -1.4360    8.2610 C   0  0  0  0  0  0  0  0  0  0  0  0
    7.1233   -1.2065    8.3371 C   0  0  0  0  0  0  0  0  0  0  0  0
    6.4903   -0.3596    7.2865 C   0  0  0  0  0  0  0  0  0  0  0  0
    5.7922   -0.8561    6.2412 C   0  0  0  0  0  0  0  0  0  0  0  0
    5.4046   -0.2679    5.0224 N   0  0  0  0  0  0  0  0  0  0  0  0
    4.8516   -0.9386    3.9501 C   0  0  0  0  0  0  0  0  0  0  0  0
    4.4933   -0.8414    2.6354 C   0  0  0  0  0  0  0  0  0  0  0  0
    2.2768   -0.2686    1.2589 H   0  0  0  0  0  0  0  0  0  0  0  0
    3.1868   -1.4757    0.3779 H   0  0  0  0  0  0  0  0  0  0  0  0
    3.0521    0.2039   -0.2441 H   0  0  0  0  0  0  0  0  0  0  0  0
    4.2626   -1.2298   -1.2925 H   0  0  0  0  0  0  0  0  0  0  0  0
    6.0337   -2.1323   -4.2982 H   0  0  0  0  0  0  0  0  0  0  0  0
    7.8585    1.0549   -0.1898 H   0  0  0  0  0  0  0  0  0  0  0  0
    9.1358    1.4152   -1.9396 H   0  0  0  0  0  0  0  0  0  0  0  0
    8.0452    0.9346   -3.1529 H   0  0  0  0  0  0  0  0  0  0  0  0
   10.3282   -0.5942   -1.7281 H   0  0  0  0  0  0  0  0  0  0  0  0
   10.0883   -0.2377   -3.4147 H   0  0  0  0  0  0  0  0  0  0  0  0
   10.0833   -2.4392   -3.5393 H   0  0  0  0  0  0  0  0  0  0  0  0
    8.4027   -2.2066   -3.5184 H   0  0  0  0  0  0  0  0  0  0  0  0
    9.4837   -2.7482   -0.7671 H   0  0  0  0  0  0  0  0  0  0  0  0
   10.0942   -3.8613   -1.9116 H   0  0  0  0  0  0  0  0  0  0  0  0
    8.2701   -5.0836   -1.9992 H   0  0  0  0  0  0  0  0  0  0  0  0
    7.3205   -3.7653   -2.5933 H   0  0  0  0  0  0  0  0  0  0  0  0
    7.4121   -5.0154    0.0684 H   0  0  0  0  0  0  0  0  0  0  0  0
    6.0702   -4.3723   -0.8211 H   0  0  0  0  0  0  0  0  0  0  0  0
    7.5797   -3.3472    1.3313 H   0  0  0  0  0  0  0  0  0  0  0  0
    6.0011   -2.8466    0.8012 H   0  0  0  0  0  0  0  0  0  0  0  0
    9.0879   -0.2229    0.9345 H   0  0  0  0  0  0  0  0  0  0  0  0
    7.1656   -1.8097    2.6854 H   0  0  0  0  0  0  0  0  0  0  0  0
    9.1586    0.2890    3.6201 H   0  0  0  0  0  0  0  0  0  0  0  0
    8.1651   -2.4737    4.5659 H   0  0  0  0  0  0  0  0  0  0  0  0
    9.4284   -0.1633    6.1474 H   0  0  0  0  0  0  0  0  0  0  0  0
    8.5354   -3.0576    6.8074 H   0  0  0  0  0  0  0  0  0  0  0  0
    9.1230   -0.5887    8.4571 H   0  0  0  0  0  0  0  0  0  0  0  0
    6.5417   -2.1221    8.4950 H   0  0  0  0  0  0  0  0  0  0  0  0
    6.7923    0.6801    7.3192 H   0  0  0  0  0  0  0  0  0  0  0  0
    5.5520   -1.9215    6.2683 H   0  0  0  0  0  0  0  0  0  0  0  0
    5.7508    0.6671    4.8402 H   0  0  0  0  0  0  0  0  0  0  0  0
    4.5841   -1.9284    4.3320 H   0  0  0  0  0  0  0  0  0  0  0  0
    4.0005   -1.7779    2.3664 H   0  0  0  0  0  0  0  0  0  0  0  0
  1  2  1  0  0  0  0
  1 31  1  0  0  0  0
  1 32  1  0  0  0  0
  1 33  1  0  0  0  0
  2  3  1  0  0  0  0
  2 30  1  0  0  0  0
  3  4  2  3  0  0  0
  4  5  1  0  0  0  0
  4  9  1  0  0  0  0
  5  6  2  0  0  0  0
  5 34  1  0  0  0  0
  6  7  1  0  0  0  0
  6  8  1  0  0  0  0
  7 35  1  0  0  0  0
  8  9  1  0  0  0  0
  8 17  2  3  0  0  0
  9 10  1  0  0  0  0
  9 36  1  0  0  0  0
 10 11  1  0  0  0  0
 10 37  1  0  0  0  0
 10 38  1  0  0  0  0
 11 12  1  0  0  0  0
 11 39  1  0  0  0  0
 11 40  1  0  0  0  0
 12 13  1  0  0  0  0
 12 41  1  0  0  0  0
 12 42  1  0  0  0  0
 13 14  1  0  0  0  0
 13 43  1  0  0  0  0
 13 44  1  0  0  0  0
 14 15  1  0  0  0  0
 14 45  1  0  0  0  0
 14 46  1  0  0  0  0
 15 16  1  0  0  0  0
 15 47  1  0  0  0  0
 15 48  1  0  0  0  0
 16 17  1  0  0  0  0
 16 49  1  0  0  0  0
 16 50  1  0  0  0  0
 17 18  1  0  0  0  0
 18 19  2  3  0  0  0
 18 51  1  0  0  0  0
 19 20  1  0  0  0  0
 19 52  1  0  0  0  0
 20 21  2  3  0  0  0
 20 53  1  0  0  0  0
 21 22  1  0  0  0  0
 21 54  1  0  0  0  0
 22 23  2  3  0  0  0
 22 55  1  0  0  0  0
 23 24  1  0  0  0  0
 23 56  1  0  0  0  0
 24 25  2  3  0  0  0
 24 57  1  0  0  0  0
 25 26  1  0  0  0  0
 25 58  1  0  0  0  0
 26 27  2  3  0  0  0
 26 59  1  0  0  0  0
 27 28  1  0  0  0  0
 27 60  1  0  0  0  0
 28 29  1  0  0  0  0
 28 61  1  0  0  0  0
 29 30  2  3  0  0  0
 29 62  1  0  0  0  0
 30 63  1  0  0  0  0
M  END
$$$$
