
 OpenBabel04232216593D

 88 87  0  0  0  0  0  0  0  0999 V2000
   15.1440   -0.5467  -14.3973 N   0  0  0  0  0  0  0  0  0  0  0  0
   14.6576    0.7631  -13.9654 O   0  0  0  0  0  0  0  0  0  0  0  0
   13.0336    0.9396  -14.2871 S   0  0  0  0  0  0  0  0  0  0  0  0
   12.2341   -0.4496  -12.9987 S   0  0  0  0  0  0  0  0  0  0  0  0
   12.8554    0.0423  -11.0997 S   0  0  0  0  0  0  0  0  0  0  0  0
   12.1436    1.5284  -10.8490 N   0  0  0  0  0  0  0  0  0  0  0  0
   12.5252    2.0339   -9.5223 N   0  0  0  0  0  0  0  0  0  0  0  0
   11.9822    3.3533   -9.2244 N   0  0  0  0  0  0  0  0  0  0  0  0
   12.3394    3.8421   -7.8798 N   0  0  0  0  0  0  0  0  0  0  0  0
   11.7105    5.3689   -7.6512 S   0  0  0  0  0  0  0  0  0  0  0  0
   12.3730    5.8493   -5.7528 S   0  0  0  0  0  0  0  0  0  0  0  0
   14.4454    5.8903   -5.7576 S   0  0  0  0  0  0  0  0  0  0  0  0
   15.1244    7.3315   -7.0910 S   0  0  0  0  0  0  0  0  0  0  0  0
   17.2290    7.2901   -7.0820 S   0  0  0  0  0  0  0  0  0  0  0  0
   17.9304    8.7059   -8.4775 S   0  0  0  0  0  0  0  0  0  0  0  0
   20.0410    8.6942   -8.4648 S   0  0  0  0  0  0  0  0  0  0  0  0
   20.7347   10.1141   -9.8647 S   0  0  0  0  0  0  0  0  0  0  0  0
   22.8449   10.1056   -9.8564 S   0  0  0  0  0  0  0  0  0  0  0  0
   23.5360   11.5257  -11.2562 S   0  0  0  0  0  0  0  0  0  0  0  0
   25.6460   11.5168  -11.2474 S   0  0  0  0  0  0  0  0  0  0  0  0
   26.3370   12.9364  -12.6468 S   0  0  0  0  0  0  0  0  0  0  0  0
   28.4466   12.9271  -12.6376 S   0  0  0  0  0  0  0  0  0  0  0  0
   29.1374   14.3466  -14.0369 S   0  0  0  0  0  0  0  0  0  0  0  0
   31.2469   14.3372  -14.0276 S   0  0  0  0  0  0  0  0  0  0  0  0
   31.9375   15.7567  -15.4269 S   0  0  0  0  0  0  0  0  0  0  0  0
   34.0469   15.7472  -15.4176 S   0  0  0  0  0  0  0  0  0  0  0  0
   34.7375   17.1667  -16.8168 S   0  0  0  0  0  0  0  0  0  0  0  0
   36.8469   17.1573  -16.8075 S   0  0  0  0  0  0  0  0  0  0  0  0
   37.5375   18.5767  -18.2067 S   0  0  0  0  0  0  0  0  0  0  0  0
   39.6469   18.5673  -18.1974 S   0  0  0  0  0  0  0  0  0  0  0  0
   40.3375   19.9867  -19.5966 S   0  0  0  0  0  0  0  0  0  0  0  0
   42.4469   19.9773  -19.5873 S   0  0  0  0  0  0  0  0  0  0  0  0
   43.1375   21.3967  -20.9866 S   0  0  0  0  0  0  0  0  0  0  0  0
   45.2469   21.3873  -20.9772 S   0  0  0  0  0  0  0  0  0  0  0  0
   45.9375   22.8067  -22.3765 S   0  0  0  0  0  0  0  0  0  0  0  0
   48.0469   22.7973  -22.3672 S   0  0  0  0  0  0  0  0  0  0  0  0
   48.7375   24.2168  -23.7664 S   0  0  0  0  0  0  0  0  0  0  0  0
   50.8469   24.2073  -23.7571 S   0  0  0  0  0  0  0  0  0  0  0  0
   51.5375   25.6268  -25.1563 S   0  0  0  0  0  0  0  0  0  0  0  0
   53.6469   25.6173  -25.1470 S   0  0  0  0  0  0  0  0  0  0  0  0
   54.3375   27.0368  -26.5462 S   0  0  0  0  0  0  0  0  0  0  0  0
   56.4469   27.0273  -26.5369 S   0  0  0  0  0  0  0  0  0  0  0  0
   57.1375   28.4468  -27.9361 S   0  0  0  0  0  0  0  0  0  0  0  0
   59.2468   28.4374  -27.9268 S   0  0  0  0  0  0  0  0  0  0  0  0
   59.9375   29.8568  -29.3261 S   0  0  0  0  0  0  0  0  0  0  0  0
   62.0468   29.8474  -29.3168 S   0  0  0  0  0  0  0  0  0  0  0  0
   62.7375   31.2668  -30.7160 S   0  0  0  0  0  0  0  0  0  0  0  0
   64.8468   31.2574  -30.7067 S   0  0  0  0  0  0  0  0  0  0  0  0
   65.5374   32.6768  -32.1059 S   0  0  0  0  0  0  0  0  0  0  0  0
   67.6468   32.6674  -32.0966 S   0  0  0  0  0  0  0  0  0  0  0  0
   68.3374   34.0868  -33.4958 S   0  0  0  0  0  0  0  0  0  0  0  0
   70.4468   34.0774  -33.4865 S   0  0  0  0  0  0  0  0  0  0  0  0
   71.1374   35.4969  -34.8857 S   0  0  0  0  0  0  0  0  0  0  0  0
   73.2468   35.4874  -34.8764 S   0  0  0  0  0  0  0  0  0  0  0  0
   73.9374   36.9069  -36.2757 S   0  0  0  0  0  0  0  0  0  0  0  0
   76.0468   36.8974  -36.2664 S   0  0  0  0  0  0  0  0  0  0  0  0
   76.7374   38.3169  -37.6656 S   0  0  0  0  0  0  0  0  0  0  0  0
   78.8468   38.3074  -37.6563 S   0  0  0  0  0  0  0  0  0  0  0  0
   79.5374   39.7269  -39.0555 S   0  0  0  0  0  0  0  0  0  0  0  0
   81.6468   39.7175  -39.0462 S   0  0  0  0  0  0  0  0  0  0  0  0
   82.3374   41.1369  -40.4454 S   0  0  0  0  0  0  0  0  0  0  0  0
   84.4468   41.1275  -40.4361 S   0  0  0  0  0  0  0  0  0  0  0  0
   85.1374   42.5469  -41.8353 S   0  0  0  0  0  0  0  0  0  0  0  0
   87.2468   42.5375  -41.8260 S   0  0  0  0  0  0  0  0  0  0  0  0
   87.9374   43.9569  -43.2253 S   0  0  0  0  0  0  0  0  0  0  0  0
   90.0467   43.9475  -43.2159 S   0  0  0  0  0  0  0  0  0  0  0  0
   90.7373   45.3669  -44.6151 S   0  0  0  0  0  0  0  0  0  0  0  0
   92.8466   45.3574  -44.6058 S   0  0  0  0  0  0  0  0  0  0  0  0
   93.5371   46.7768  -46.0049 S   0  0  0  0  0  0  0  0  0  0  0  0
   95.6461   46.7672  -45.9954 S   0  0  0  0  0  0  0  0  0  0  0  0
   96.3359   48.1863  -47.3943 S   0  0  0  0  0  0  0  0  0  0  0  0
   98.4439   48.1762  -47.3844 S   0  0  0  0  0  0  0  0  0  0  0  0
   99.1317   49.5945  -48.7824 S   0  0  0  0  0  0  0  0  0  0  0  0
  101.2369   49.5824  -48.7706 S   0  0  0  0  0  0  0  0  0  0  0  0
  101.9207   50.9985  -50.1663 S   0  0  0  0  0  0  0  0  0  0  0  0
  104.0194   50.9812  -50.1498 S   0  0  0  0  0  0  0  0  0  0  0  0
  104.6917   52.3930  -51.5411 S   0  0  0  0  0  0  0  0  0  0  0  0
  106.7749   52.3808  -51.4995 S   0  0  0  0  0  0  0  0  0  0  0  0
  107.4329   53.7414  -52.9222 S   0  0  0  0  0  0  0  0  0  0  0  0
  109.5021   53.7381  -52.8524 S   0  0  0  0  0  0  0  0  0  0  0  0
  110.0812   51.8516  -53.4329 S   0  0  0  0  0  0  0  0  0  0  0  0
   16.1349   -0.4997  -14.0520 H   0  0  0  0  0  0  0  0  0  0  0  0
   15.1925   -0.4485  -15.3782 H   0  0  0  0  0  0  0  0  0  0  0  0
   11.1302    1.4403  -10.9442 H   0  0  0  0  0  0  0  0  0  0  0  0
   13.5588    2.0760   -9.5081 H   0  0  0  0  0  0  0  0  0  0  0  0
   10.9522    3.3075   -9.2495 H   0  0  0  0  0  0  0  0  0  0  0  0
   13.3579    3.9289   -7.8248 H   0  0  0  0  0  0  0  0  0  0  0  0
  111.4216   51.9534  -53.3653 H   0  0  0  0  0  0  0  0  0  0  0  0
  1  2  1  0  0  0  0
  1 82  1  0  0  0  0
  1 83  1  0  0  0  0
  2  3  1  0  0  0  0
  3  4  1  0  0  0  0
  4  5  1  0  0  0  0
  5  6  1  0  0  0  0
  6  7  1  0  0  0  0
  6 84  1  0  0  0  0
  7  8  1  0  0  0  0
  7 85  1  0  0  0  0
  8  9  1  0  0  0  0
  8 86  1  0  0  0  0
  9 10  1  0  0  0  0
  9 87  1  0  0  0  0
 10 11  1  0  0  0  0
 11 12  1  0  0  0  0
 12 13  1  0  0  0  0
 13 14  1  0  0  0  0
 14 15  1  0  0  0  0
 15 16  1  0  0  0  0
 16 17  1  0  0  0  0
 17 18  1  0  0  0  0
 18 19  1  0  0  0  0
 19 20  1  0  0  0  0
 20 21  1  0  0  0  0
 21 22  1  0  0  0  0
 22 23  1  0  0  0  0
 23 24  1  0  0  0  0
 24 25  1  0  0  0  0
 25 26  1  0  0  0  0
 26 27  1  0  0  0  0
 27 28  1  0  0  0  0
 28 29  1  0  0  0  0
 29 30  1  0  0  0  0
 30 31  1  0  0  0  0
 31 32  1  0  0  0  0
 32 33  1  0  0  0  0
 33 34  1  0  0  0  0
 34 35  1  0  0  0  0
 35 36  1  0  0  0  0
 36 37  1  0  0  0  0
 37 38  1  0  0  0  0
 38 39  1  0  0  0  0
 39 40  1  0  0  0  0
 40 41  1  0  0  0  0
 41 42  1  0  0  0  0
 42 43  1  0  0  0  0
 43 44  1  0  0  0  0
 44 45  1  0  0  0  0
 45 46  1  0  0  0  0
 46 47  1  0  0  0  0
 47 48  1  0  0  0  0
 48 49  1  0  0  0  0
 49 50  1  0  0  0  0
 50 51  1  0  0  0  0
 51 52  1  0  0  0  0
 52 53  1  0  0  0  0
 53 54  1  0  0  0  0
 54 55  1  0  0  0  0
 55 56  1  0  0  0  0
 56 57  1  0  0  0  0
 57 58  1  0  0  0  0
 58 59  1  0  0  0  0
 59 60  1  0  0  0  0
 60 61  1  0  0  0  0
 61 62  1  0  0  0  0
 62 63  1  0  0  0  0
 63 64  1  0  0  0  0
 64 65  1  0  0  0  0
 65 66  1  0  0  0  0
 66 67  1  0  0  0  0
 67 68  1  0  0  0  0
 68 69  1  0  0  0  0
 69 70  1  0  0  0  0
 70 71  1  0  0  0  0
 71 72  1  0  0  0  0
 72 73  1  0  0  0  0
 73 74  1  0  0  0  0
 74 75  1  0  0  0  0
 75 76  1  0  0  0  0
 76 77  1  0  0  0  0
 77 78  1  0  0  0  0
 78 79  1  0  0  0  0
 79 80  1  0  0  0  0
 80 81  1  0  0  0  0
 81 88  1  0  0  0  0
M  END
$$$$
