
 OpenBabel04232216433D

 62 64  0  0  0  0  0  0  0  0999 V2000
    1.5328    2.2771   -0.8619 C   0  0  0  0  0  0  0  0  0  0  0  0
    2.3852    1.0823   -0.4383 C   0  0  0  0  0  0  0  0  0  0  0  0
    3.1340    0.5134   -1.3974 C   0  0  0  0  0  0  0  0  0  0  0  0
    4.5872    0.3703   -1.2700 C   0  0  0  0  0  0  0  0  0  0  0  0
    5.4124    0.9111   -2.1976 C   0  0  0  0  0  0  0  0  0  0  0  0
    4.8530    1.6541   -3.4049 C   0  0  0  0  0  0  0  0  0  0  0  0
    4.4180    0.7817   -4.5705 C   0  0  0  0  0  0  0  0  0  0  0  0
    6.9360    0.9995   -2.0608 C   0  0  0  0  0  0  0  0  0  0  0  0
    7.5959    0.4579   -0.7780 C   0  0  0  0  0  0  0  0  0  0  0  0
    8.4768    1.4181   -0.0009 C   0  0  0  0  0  0  0  0  0  0  0  0
    7.7107    2.5796    0.6222 C   0  0  0  0  0  0  0  0  0  0  0  0
    8.8268    3.4429    1.3017 C   0  0  0  0  0  0  0  0  0  0  0  0
    9.5565    4.5680    0.4403 C   0  0  0  0  0  0  0  0  0  0  0  0
   10.6232    5.2800    0.9960 C   0  0  0  0  0  0  0  0  0  0  0  0
   11.2986    6.3582    0.1644 C   0  0  0  0  0  0  0  0  0  0  0  0
   10.5913    7.5849    0.2964 O   0  0  0  0  0  0  0  0  0  0  0  0
    9.3432    3.2367    2.5718 C   0  0  0  0  0  0  0  0  0  0  0  0
    7.5991    1.5361   -3.0621 N   0  0  0  0  0  0  0  0  0  0  0  0
    8.9797    1.7933   -3.0842 C   0  0  0  0  0  0  0  0  0  0  0  0
    9.8180    0.6689   -2.9358 C   0  0  0  0  0  0  0  0  0  0  0  0
   11.1846    0.8232   -2.7139 C   0  0  0  0  0  0  0  0  0  0  0  0
   11.7473    2.0788   -2.7613 C   0  0  0  0  0  0  0  0  0  0  0  0
   10.9536    3.2015   -3.0526 C   0  0  0  0  0  0  0  0  0  0  0  0
    9.5418    3.1080   -3.1679 C   0  0  0  0  0  0  0  0  0  0  0  0
    8.7884    4.4696   -3.3022 C   0  0  0  0  0  0  0  0  0  0  0  0
    7.4714    4.5229   -3.1212 C   0  0  0  0  0  0  0  0  0  0  0  0
    6.3832    5.5220   -3.0604 C   0  0  0  0  0  0  0  0  0  0  0  0
    5.1650    5.0310   -2.7390 C   0  0  0  0  0  0  0  0  0  0  0  0
    3.7537    5.4932   -2.7222 C   0  0  0  0  0  0  0  0  0  0  0  0
    2.6980    4.8406   -2.1814 C   0  0  0  0  0  0  0  0  0  0  0  0
    2.7691    3.7082   -0.8170 S   0  0  0  0  0  0  0  0  0  0  0  0
    1.0375    2.0774   -1.8256 H   0  0  0  0  0  0  0  0  0  0  0  0
    0.7451    2.4037   -0.1047 H   0  0  0  0  0  0  0  0  0  0  0  0
    2.6554    1.0081    0.6170 H   0  0  0  0  0  0  0  0  0  0  0  0
    2.7781    0.6671   -2.4167 H   0  0  0  0  0  0  0  0  0  0  0  0
    4.9196   -0.0901   -0.3490 H   0  0  0  0  0  0  0  0  0  0  0  0
    5.5532    2.3767   -3.8234 H   0  0  0  0  0  0  0  0  0  0  0  0
    3.9952    2.2674   -3.1129 H   0  0  0  0  0  0  0  0  0  0  0  0
    5.2950    0.3225   -5.0425 H   0  0  0  0  0  0  0  0  0  0  0  0
    3.9101    1.4022   -5.3070 H   0  0  0  0  0  0  0  0  0  0  0  0
    3.7312   -0.0124   -4.2610 H   0  0  0  0  0  0  0  0  0  0  0  0
    8.1811   -0.4205   -1.0637 H   0  0  0  0  0  0  0  0  0  0  0  0
    6.8555    0.0753   -0.0770 H   0  0  0  0  0  0  0  0  0  0  0  0
    9.2932    1.8081   -0.6047 H   0  0  0  0  0  0  0  0  0  0  0  0
    8.9742    0.8469    0.7942 H   0  0  0  0  0  0  0  0  0  0  0  0
    7.0089    2.2035    1.3636 H   0  0  0  0  0  0  0  0  0  0  0  0
    7.2263    3.1683   -0.1658 H   0  0  0  0  0  0  0  0  0  0  0  0
    9.1908    4.7389   -0.5826 H   0  0  0  0  0  0  0  0  0  0  0  0
   11.3258    6.0914   -0.8971 H   0  0  0  0  0  0  0  0  0  0  0  0
   12.3268    6.5033    0.5073 H   0  0  0  0  0  0  0  0  0  0  0  0
    9.6597    7.3941    0.0939 H   0  0  0  0  0  0  0  0  0  0  0  0
   10.0636    3.5258    3.3357 H   0  0  0  0  0  0  0  0  0  0  0  0
    9.3896   -0.3234   -2.9303 H   0  0  0  0  0  0  0  0  0  0  0  0
   11.7808   -0.0626   -2.4431 H   0  0  0  0  0  0  0  0  0  0  0  0
   12.8123    2.1925   -2.5717 H   0  0  0  0  0  0  0  0  0  0  0  0
   11.4540    4.1627   -3.1230 H   0  0  0  0  0  0  0  0  0  0  0  0
    9.4132    5.3172   -3.4455 H   0  0  0  0  0  0  0  0  0  0  0  0
    7.0212    3.5557   -3.0082 H   0  0  0  0  0  0  0  0  0  0  0  0
    6.5985    6.5736   -3.2777 H   0  0  0  0  0  0  0  0  0  0  0  0
    5.1363    3.9737   -2.5055 H   0  0  0  0  0  0  0  0  0  0  0  0
    3.5784    6.3577   -3.3719 H   0  0  0  0  0  0  0  0  0  0  0  0
    1.6917    5.2446   -2.4042 H   0  0  0  0  0  0  0  0  0  0  0  0
  1  2  1  0  0  0  0
  1 31  1  0  0  0  0
  1 32  1  0  0  0  0
  1 33  1  0  0  0  0
  2  3  2  3  0  0  0
  2 34  1  0  0  0  0
  3  4  1  0  0  0  0
  3 35  1  0  0  0  0
  4  5  2  3  0  0  0
  4 36  1  0  0  0  0
  5  6  1  0  0  0  0
  5  8  1  0  0  0  0
  6  7  1  0  0  0  0
  6 37  1  0  0  0  0
  6 38  1  0  0  0  0
  7 39  1  0  0  0  0
  7 40  1  0  0  0  0
  7 41  1  0  0  0  0
  8  9  1  0  0  0  0
  8 18  2  3  0  0  0
  9 10  1  0  0  0  0
  9 42  1  0  0  0  0
  9 43  1  0  0  0  0
 10 11  1  0  0  0  0
 10 44  1  0  0  0  0
 10 45  1  0  0  0  0
 11 12  1  0  0  0  0
 11 46  1  0  0  0  0
 11 47  1  0  0  0  0
 12 13  1  0  0  0  0
 12 17  2  0  0  0  0
 13 14  2  0  0  0  0
 13 48  1  0  0  0  0
 14 15  1  0  0  0  0
 14 17  1  0  0  0  0
 15 16  1  0  0  0  0
 15 49  1  0  0  0  0
 15 50  1  0  0  0  0
 16 51  1  0  0  0  0
 17 52  1  0  0  0  0
 18 19  1  0  0  0  0
 19 20  1  0  0  0  0
 19 24  2  0  0  0  0
 20 21  2  0  0  0  0
 20 53  1  0  0  0  0
 21 22  1  0  0  0  0
 21 54  1  0  0  0  0
 22 23  2  0  0  0  0
 22 55  1  0  0  0  0
 23 24  1  0  0  0  0
 23 56  1  0  0  0  0
 24 25  1  0  0  0  0
 25 26  2  3  0  0  0
 25 57  1  0  0  0  0
 26 27  1  0  0  0  0
 26 58  1  0  0  0  0
 27 28  2  3  0  0  0
 27 59  1  0  0  0  0
 28 29  1  0  0  0  0
 28 60  1  0  0  0  0
 29 30  2  3  0  0  0
 29 61  1  0  0  0  0
 30 31  1  0  0  0  0
 30 62  1  0  0  0  0
M  END
$$$$
