
 OpenBabel04232216483D

157157  0  0  0  0  0  0  0  0999 V2000
    2.5491   -0.0337    0.2645 C   0  0  0  0  0  0  0  0  0  0  0  0
    1.0488    0.0043    0.2160 C   0  0  0  0  0  0  0  0  0  0  0  0
    0.2682    0.0097    1.3841 C   0  0  0  0  0  0  0  0  0  0  0  0
   -1.1215    0.0241    1.2996 C   0  0  0  0  0  0  0  0  0  0  0  0
   -1.7619    0.0282    0.0607 C   0  0  0  0  0  0  0  0  0  0  0  0
   -3.2690    0.0201    0.0039 C   0  0  0  0  0  0  0  0  0  0  0  0
   -3.8575    1.4209    0.0011 C   0  0  0  0  0  0  0  0  0  0  0  0
   -5.3806    1.4108   -0.0400 C   0  0  0  0  0  0  0  0  0  0  0  0
   -5.8750    2.8503   -0.0456 C   0  0  0  0  0  0  0  0  0  0  0  0
   -7.3892    2.8825   -0.0893 C   0  0  0  0  0  0  0  0  0  0  0  0
   -7.8753    4.3205   -0.0950 C   0  0  0  0  0  0  0  0  0  0  0  0
   -9.3906    4.3358   -0.1368 C   0  0  0  0  0  0  0  0  0  0  0  0
   -9.8935    5.7653   -0.1430 C   0  0  0  0  0  0  0  0  0  0  0  0
  -11.4092    5.7714   -0.1858 C   0  0  0  0  0  0  0  0  0  0  0  0
  -11.9156    7.2008   -0.1911 C   0  0  0  0  0  0  0  0  0  0  0  0
  -13.4311    7.2085   -0.2328 C   0  0  0  0  0  0  0  0  0  0  0  0
  -13.9374    8.6378   -0.2392 C   0  0  0  0  0  0  0  0  0  0  0  0
  -15.4533    8.6461   -0.2790 C   0  0  0  0  0  0  0  0  0  0  0  0
  -15.9593   10.0757   -0.2874 C   0  0  0  0  0  0  0  0  0  0  0  0
  -17.4753   10.0842   -0.3272 C   0  0  0  0  0  0  0  0  0  0  0  0
  -17.9815   11.5138   -0.3375 C   0  0  0  0  0  0  0  0  0  0  0  0
  -19.4976   11.5225   -0.3753 C   0  0  0  0  0  0  0  0  0  0  0  0
  -20.0040   12.9521   -0.3837 C   0  0  0  0  0  0  0  0  0  0  0  0
  -21.5202   12.9608   -0.4194 C   0  0  0  0  0  0  0  0  0  0  0  0
  -22.0266   14.3904   -0.4297 C   0  0  0  0  0  0  0  0  0  0  0  0
  -23.5429   14.3992   -0.4635 C   0  0  0  0  0  0  0  0  0  0  0  0
  -24.0493   15.8288   -0.4739 C   0  0  0  0  0  0  0  0  0  0  0  0
  -25.5657   15.8379   -0.5056 C   0  0  0  0  0  0  0  0  0  0  0  0
  -26.0718   17.2678   -0.5179 C   0  0  0  0  0  0  0  0  0  0  0  0
  -27.5881   17.2769   -0.5479 C   0  0  0  0  0  0  0  0  0  0  0  0
  -28.0947   18.7065   -0.5602 C   0  0  0  0  0  0  0  0  0  0  0  0
  -29.6111   18.7145   -0.5882 C   0  0  0  0  0  0  0  0  0  0  0  0
  -30.1174   20.1439   -0.6006 C   0  0  0  0  0  0  0  0  0  0  0  0
  -31.6337   20.1524   -0.6285 C   0  0  0  0  0  0  0  0  0  0  0  0
  -32.1393   21.5820   -0.6408 C   0  0  0  0  0  0  0  0  0  0  0  0
  -33.6555   21.5908   -0.6687 C   0  0  0  0  0  0  0  0  0  0  0  0
  -34.1612   23.0205   -0.6811 C   0  0  0  0  0  0  0  0  0  0  0  0
  -35.6774   23.0290   -0.7090 C   0  0  0  0  0  0  0  0  0  0  0  0
  -36.1836   24.4584   -0.7194 C   0  0  0  0  0  0  0  0  0  0  0  0
  -37.6999   24.4665   -0.7473 C   0  0  0  0  0  0  0  0  0  0  0  0
  -38.2061   25.8959   -0.7576 C   0  0  0  0  0  0  0  0  0  0  0  0
  -39.7223   25.9044   -0.7835 C   0  0  0  0  0  0  0  0  0  0  0  0
  -40.2283   27.3340   -0.7919 C   0  0  0  0  0  0  0  0  0  0  0  0
  -41.7447   27.3424   -0.8157 C   0  0  0  0  0  0  0  0  0  0  0  0
  -42.2511   28.7719   -0.8261 C   0  0  0  0  0  0  0  0  0  0  0  0
  -43.7678   28.7807   -0.8480 C   0  0  0  0  0  0  0  0  0  0  0  0
  -44.2743   30.2111   -0.8583 C   0  0  0  0  0  0  0  0  0  0  0  0
  -45.7925   30.2234   -0.8822 C   0  0  0  0  0  0  0  0  0  0  0  0
  -46.3010   31.6544   -0.8906 C   0  0  0  0  0  0  0  0  0  0  0  0
  -47.8170   31.6692   -0.9145 C   0  0  0  0  0  0  0  0  0  0  0  0
  -48.3404   33.0897   -0.9217 C   0  0  0  0  0  0  0  0  0  0  0  0
  -49.7551   33.0260   -0.9342 O   0  0  0  0  0  0  0  0  0  0  0  0
  -50.2008   34.4058   -0.9636 O   0  0  0  0  0  0  0  0  0  0  0  0
  -51.6461   34.4605   -0.9785 O   0  0  0  0  0  0  0  0  0  0  0  0
  -52.1656   33.8281   -2.1769 O   0  0  0  0  0  0  0  0  0  0  0  0
   -0.9817    0.0390   -1.1008 C   0  0  0  0  0  0  0  0  0  0  0  0
    0.4160    0.0232   -1.0230 C   0  0  0  0  0  0  0  0  0  0  0  0
    2.9126   -0.0285    1.3007 H   0  0  0  0  0  0  0  0  0  0  0  0
    2.9598    0.8409   -0.2433 H   0  0  0  0  0  0  0  0  0  0  0  0
    2.9105   -0.9424   -0.2179 H   0  0  0  0  0  0  0  0  0  0  0  0
    0.7470   -0.0035    2.3588 H   0  0  0  0  0  0  0  0  0  0  0  0
   -1.7102    0.0209    2.2153 H   0  0  0  0  0  0  0  0  0  0  0  0
   -3.6567   -0.5353    0.8670 H   0  0  0  0  0  0  0  0  0  0  0  0
   -3.5975   -0.5196   -0.8896 H   0  0  0  0  0  0  0  0  0  0  0  0
   -3.4884    1.9843   -0.8665 H   0  0  0  0  0  0  0  0  0  0  0  0
   -3.5393    1.9703    0.9014 H   0  0  0  0  0  0  0  0  0  0  0  0
   -5.7838    0.8781    0.8303 H   0  0  0  0  0  0  0  0  0  0  0  0
   -5.7332    0.8889   -0.9380 H   0  0  0  0  0  0  0  0  0  0  0  0
   -5.4663    3.3845   -0.9129 H   0  0  0  0  0  0  0  0  0  0  0  0
   -5.5174    3.3743    0.8500 H   0  0  0  0  0  0  0  0  0  0  0  0
   -7.7965    2.3545    0.7800 H   0  0  0  0  0  0  0  0  0  0  0  0
   -7.7454    2.3647   -0.9867 H   0  0  0  0  0  0  0  0  0  0  0  0
   -7.4698    4.8529   -0.9643 H   0  0  0  0  0  0  0  0  0  0  0  0
   -7.5187    4.8434    0.8010 H   0  0  0  0  0  0  0  0  0  0  0  0
   -9.7930    3.8013    0.7326 H   0  0  0  0  0  0  0  0  0  0  0  0
   -9.7443    3.8107   -1.0326 H   0  0  0  0  0  0  0  0  0  0  0  0
   -9.4920    6.2998   -1.0126 H   0  0  0  0  0  0  0  0  0  0  0  0
   -9.5407    6.2904    0.7531 H   0  0  0  0  0  0  0  0  0  0  0  0
  -11.8101    5.2363    0.6846 H   0  0  0  0  0  0  0  0  0  0  0  0
  -11.7614    5.2457   -1.0807 H   0  0  0  0  0  0  0  0  0  0  0  0
  -11.5143    7.7360   -1.0606 H   0  0  0  0  0  0  0  0  0  0  0  0
  -11.5631    7.7265    0.7049 H   0  0  0  0  0  0  0  0  0  0  0  0
  -13.8323    6.6730    0.6365 H   0  0  0  0  0  0  0  0  0  0  0  0
  -13.7836    6.6824   -1.1289 H   0  0  0  0  0  0  0  0  0  0  0  0
  -13.5371    9.1725   -1.1095 H   0  0  0  0  0  0  0  0  0  0  0  0
  -13.5836    9.1639    0.6560 H   0  0  0  0  0  0  0  0  0  0  0  0
  -15.8533    8.1125    0.5919 H   0  0  0  0  0  0  0  0  0  0  0  0
  -15.8069    8.1187   -1.1735 H   0  0  0  0  0  0  0  0  0  0  0  0
  -15.5591   10.6091   -1.1584 H   0  0  0  0  0  0  0  0  0  0  0  0
  -15.6055   10.6030    0.6071 H   0  0  0  0  0  0  0  0  0  0  0  0
  -17.8754    9.5519    0.5446 H   0  0  0  0  0  0  0  0  0  0  0  0
  -17.8292    9.5556   -1.2209 H   0  0  0  0  0  0  0  0  0  0  0  0
  -17.5824   12.0457   -1.2100 H   0  0  0  0  0  0  0  0  0  0  0  0
  -17.6264   12.0428    0.5555 H   0  0  0  0  0  0  0  0  0  0  0  0
  -19.8966   10.9893    0.4965 H   0  0  0  0  0  0  0  0  0  0  0  0
  -19.8526   10.9946   -1.2690 H   0  0  0  0  0  0  0  0  0  0  0  0
  -19.6060   13.4847   -1.2562 H   0  0  0  0  0  0  0  0  0  0  0  0
  -19.6478   13.4803    0.5094 H   0  0  0  0  0  0  0  0  0  0  0  0
  -21.9179   12.4292    0.4539 H   0  0  0  0  0  0  0  0  0  0  0  0
  -21.8764   12.4313   -1.3117 H   0  0  0  0  0  0  0  0  0  0  0  0
  -21.6298   14.9214   -1.3038 H   0  0  0  0  0  0  0  0  0  0  0  0
  -21.6691   14.9203    0.4618 H   0  0  0  0  0  0  0  0  0  0  0  0
  -23.9395   13.8681    0.4106 H   0  0  0  0  0  0  0  0  0  0  0  0
  -23.9003   13.8692   -1.3550 H   0  0  0  0  0  0  0  0  0  0  0  0
  -23.6536   16.3594   -1.3487 H   0  0  0  0  0  0  0  0  0  0  0  0
  -23.6907   16.3591    0.4170 H   0  0  0  0  0  0  0  0  0  0  0  0
  -25.9613   15.3086    0.3700 H   0  0  0  0  0  0  0  0  0  0  0  0
  -25.9245   15.3064   -1.3956 H   0  0  0  0  0  0  0  0  0  0  0  0
  -25.6771   17.7967   -1.3942 H   0  0  0  0  0  0  0  0  0  0  0  0
  -25.7120   17.7996    0.3715 H   0  0  0  0  0  0  0  0  0  0  0  0
  -27.9828   16.7480    0.3284 H   0  0  0  0  0  0  0  0  0  0  0  0
  -27.9480   16.7451   -1.4373 H   0  0  0  0  0  0  0  0  0  0  0  0
  -27.7015   19.2353   -1.4373 H   0  0  0  0  0  0  0  0  0  0  0  0
  -27.7342   19.2390    0.3285 H   0  0  0  0  0  0  0  0  0  0  0  0
  -30.0043   18.1859    0.2890 H   0  0  0  0  0  0  0  0  0  0  0  0
  -29.9719   18.1819   -1.4768 H   0  0  0  0  0  0  0  0  0  0  0  0
  -29.7241   20.6726   -1.4776 H   0  0  0  0  0  0  0  0  0  0  0  0
  -29.7567   20.6763    0.2882 H   0  0  0  0  0  0  0  0  0  0  0  0
  -32.0271   19.6239    0.2486 H   0  0  0  0  0  0  0  0  0  0  0  0
  -31.9946   19.6201   -1.5172 H   0  0  0  0  0  0  0  0  0  0  0  0
  -31.7458   22.1106   -1.5179 H   0  0  0  0  0  0  0  0  0  0  0  0
  -31.7784   22.1143    0.2479 H   0  0  0  0  0  0  0  0  0  0  0  0
  -34.0490   21.0623    0.2084 H   0  0  0  0  0  0  0  0  0  0  0  0
  -34.0165   21.0585   -1.5574 H   0  0  0  0  0  0  0  0  0  0  0  0
  -33.7678   23.5490   -1.5582 H   0  0  0  0  0  0  0  0  0  0  0  0
  -33.8002   23.5528    0.2076 H   0  0  0  0  0  0  0  0  0  0  0  0
  -36.0708   22.4991    0.1673 H   0  0  0  0  0  0  0  0  0  0  0  0
  -36.0381   22.4978   -1.5985 H   0  0  0  0  0  0  0  0  0  0  0  0
  -35.7904   24.9883   -1.5958 H   0  0  0  0  0  0  0  0  0  0  0  0
  -35.8228   24.9896    0.1700 H   0  0  0  0  0  0  0  0  0  0  0  0
  -38.0931   23.9365    0.1290 H   0  0  0  0  0  0  0  0  0  0  0  0
  -38.0606   23.9353   -1.6368 H   0  0  0  0  0  0  0  0  0  0  0  0
  -37.8140   26.4254   -1.6348 H   0  0  0  0  0  0  0  0  0  0  0  0
  -37.8441   26.4275    0.1311 H   0  0  0  0  0  0  0  0  0  0  0  0
  -40.1146   25.3737    0.0928 H   0  0  0  0  0  0  0  0  0  0  0  0
  -40.0843   25.3741   -1.6730 H   0  0  0  0  0  0  0  0  0  0  0  0
  -39.8371   27.8642   -1.6690 H   0  0  0  0  0  0  0  0  0  0  0  0
  -39.8651   27.8647    0.0969 H   0  0  0  0  0  0  0  0  0  0  0  0
  -42.1354   26.8132    0.0622 H   0  0  0  0  0  0  0  0  0  0  0  0
  -42.1077   26.8103   -1.7037 H   0  0  0  0  0  0  0  0  0  0  0  0
  -41.8610   29.3004   -1.7047 H   0  0  0  0  0  0  0  0  0  0  0  0
  -41.8865   29.3042    0.0612 H   0  0  0  0  0  0  0  0  0  0  0  0
  -44.1574   28.2520    0.0306 H   0  0  0  0  0  0  0  0  0  0  0  0
  -44.1319   28.2482   -1.7352 H   0  0  0  0  0  0  0  0  0  0  0  0
  -43.8821   30.7395   -1.7362 H   0  0  0  0  0  0  0  0  0  0  0  0
  -43.9098   30.7423    0.0298 H   0  0  0  0  0  0  0  0  0  0  0  0
  -46.1823   29.6923   -0.0051 H   0  0  0  0  0  0  0  0  0  0  0  0
  -46.1544   29.6919   -1.7709 H   0  0  0  0  0  0  0  0  0  0  0  0
  -45.9072   32.1837   -1.7676 H   0  0  0  0  0  0  0  0  0  0  0  0
  -45.9352   32.1841   -0.0017 H   0  0  0  0  0  0  0  0  0  0  0  0
  -48.2193   31.1326   -0.0449 H   0  0  0  0  0  0  0  0  0  0  0  0
  -48.1917   31.1326   -1.7962 H   0  0  0  0  0  0  0  0  0  0  0  0
  -47.9849   33.6271   -1.8100 H   0  0  0  0  0  0  0  0  0  0  0  0
  -48.0141   33.6271   -0.0244 H   0  0  0  0  0  0  0  0  0  0  0  0
  -53.0950   33.9667   -1.9613 H   0  0  0  0  0  0  0  0  0  0  0  0
   -1.4356    0.0464   -2.0898 H   0  0  0  0  0  0  0  0  0  0  0  0
    0.9927    0.0204   -1.9433 H   0  0  0  0  0  0  0  0  0  0  0  0
  1  2  1  0  0  0  0
  1 58  1  0  0  0  0
  1 59  1  0  0  0  0
  1 60  1  0  0  0  0
  2  3  1  0  0  0  0
  2 57  2  0  0  0  0
  3  4  2  0  0  0  0
  3 61  1  0  0  0  0
  4  5  1  0  0  0  0
  4 62  1  0  0  0  0
  5  6  1  0  0  0  0
  5 56  2  0  0  0  0
  6  7  1  0  0  0  0
  6 63  1  0  0  0  0
  6 64  1  0  0  0  0
  7  8  1  0  0  0  0
  7 65  1  0  0  0  0
  7 66  1  0  0  0  0
  8  9  1  0  0  0  0
  8 67  1  0  0  0  0
  8 68  1  0  0  0  0
  9 10  1  0  0  0  0
  9 69  1  0  0  0  0
  9 70  1  0  0  0  0
 10 11  1  0  0  0  0
 10 71  1  0  0  0  0
 10 72  1  0  0  0  0
 11 12  1  0  0  0  0
 11 73  1  0  0  0  0
 11 74  1  0  0  0  0
 12 13  1  0  0  0  0
 12 75  1  0  0  0  0
 12 76  1  0  0  0  0
 13 14  1  0  0  0  0
 13 77  1  0  0  0  0
 13 78  1  0  0  0  0
 14 15  1  0  0  0  0
 14 79  1  0  0  0  0
 14 80  1  0  0  0  0
 15 16  1  0  0  0  0
 15 81  1  0  0  0  0
 15 82  1  0  0  0  0
 16 17  1  0  0  0  0
 16 83  1  0  0  0  0
 16 84  1  0  0  0  0
 17 18  1  0  0  0  0
 17 85  1  0  0  0  0
 17 86  1  0  0  0  0
 18 19  1  0  0  0  0
 18 87  1  0  0  0  0
 18 88  1  0  0  0  0
 19 20  1  0  0  0  0
 19 89  1  0  0  0  0
 19 90  1  0  0  0  0
 20 21  1  0  0  0  0
 20 91  1  0  0  0  0
 20 92  1  0  0  0  0
 21 22  1  0  0  0  0
 21 93  1  0  0  0  0
 21 94  1  0  0  0  0
 22 23  1  0  0  0  0
 22 95  1  0  0  0  0
 22 96  1  0  0  0  0
 23 24  1  0  0  0  0
 23 97  1  0  0  0  0
 23 98  1  0  0  0  0
 24 25  1  0  0  0  0
 24 99  1  0  0  0  0
 24100  1  0  0  0  0
 25 26  1  0  0  0  0
 25101  1  0  0  0  0
 25102  1  0  0  0  0
 26 27  1  0  0  0  0
 26103  1  0  0  0  0
 26104  1  0  0  0  0
 27 28  1  0  0  0  0
 27105  1  0  0  0  0
 27106  1  0  0  0  0
 28 29  1  0  0  0  0
 28107  1  0  0  0  0
 28108  1  0  0  0  0
 29 30  1  0  0  0  0
 29109  1  0  0  0  0
 29110  1  0  0  0  0
 30 31  1  0  0  0  0
 30111  1  0  0  0  0
 30112  1  0  0  0  0
 31 32  1  0  0  0  0
 31113  1  0  0  0  0
 31114  1  0  0  0  0
 32 33  1  0  0  0  0
 32115  1  0  0  0  0
 32116  1  0  0  0  0
 33 34  1  0  0  0  0
 33117  1  0  0  0  0
 33118  1  0  0  0  0
 34 35  1  0  0  0  0
 34119  1  0  0  0  0
 34120  1  0  0  0  0
 35 36  1  0  0  0  0
 35121  1  0  0  0  0
 35122  1  0  0  0  0
 36 37  1  0  0  0  0
 36123  1  0  0  0  0
 36124  1  0  0  0  0
 37 38  1  0  0  0  0
 37125  1  0  0  0  0
 37126  1  0  0  0  0
 38 39  1  0  0  0  0
 38127  1  0  0  0  0
 38128  1  0  0  0  0
 39 40  1  0  0  0  0
 39129  1  0  0  0  0
 39130  1  0  0  0  0
 40 41  1  0  0  0  0
 40131  1  0  0  0  0
 40132  1  0  0  0  0
 41 42  1  0  0  0  0
 41133  1  0  0  0  0
 41134  1  0  0  0  0
 42 43  1  0  0  0  0
 42135  1  0  0  0  0
 42136  1  0  0  0  0
 43 44  1  0  0  0  0
 43137  1  0  0  0  0
 43138  1  0  0  0  0
 44 45  1  0  0  0  0
 44139  1  0  0  0  0
 44140  1  0  0  0  0
 45 46  1  0  0  0  0
 45141  1  0  0  0  0
 45142  1  0  0  0  0
 46 47  1  0  0  0  0
 46143  1  0  0  0  0
 46144  1  0  0  0  0
 47 48  1  0  0  0  0
 47145  1  0  0  0  0
 47146  1  0  0  0  0
 48 49  1  0  0  0  0
 48147  1  0  0  0  0
 48148  1  0  0  0  0
 49 50  1  0  0  0  0
 49149  1  0  0  0  0
 49150  1  0  0  0  0
 50 51  1  0  0  0  0
 50151  1  0  0  0  0
 50152  1  0  0  0  0
 51 52  1  0  0  0  0
 51153  1  0  0  0  0
 51154  1  0  0  0  0
 52 53  1  0  0  0  0
 53 54  1  0  0  0  0
 54 55  1  0  0  0  0
 55155  1  0  0  0  0
 56 57  1  0  0  0  0
 56156  1  0  0  0  0
 57157  1  0  0  0  0
M  END
$$$$
