
 OpenBabel04232216533D

241240  0  0  0  0  0  0  0  0999 V2000
    0.9953    0.0275    0.1058 C   0  0  0  0  0  0  0  0  0  0  0  0
    2.5118    0.0125    0.1090 C   0  0  0  0  0  0  0  0  0  0  0  0
    3.0372   -0.2554    1.5134 C   0  0  0  0  0  0  0  0  0  0  0  0
    4.5593   -0.2697    1.5237 C   0  0  0  0  0  0  0  0  0  0  0  0
    5.0806   -0.5386    2.9329 C   0  0  0  0  0  0  0  0  0  0  0  0
    6.6061   -0.5527    2.9417 C   0  0  0  0  0  0  0  0  0  0  0  0
    7.1025   -0.8122    4.2935 N   0  0  0  0  0  0  0  0  0  0  0  0
    8.5153   -0.8168    4.2687 N   0  0  0  0  0  0  0  0  0  0  0  0
    8.9641   -1.0675    5.5706 N   0  0  0  0  0  0  0  0  0  0  0  0
   10.3766   -1.0742    5.5681 N   0  0  0  0  0  0  0  0  0  0  0  0
   10.8483   -1.3363    6.9208 C   0  0  0  0  0  0  0  0  0  0  0  0
   12.3760   -1.3450    6.9344 C   0  0  0  0  0  0  0  0  0  0  0  0
   12.8968   -1.6153    8.3411 C   0  0  0  0  0  0  0  0  0  0  0  0
   14.4170   -1.6253    8.3503 C   0  0  0  0  0  0  0  0  0  0  0  0
   14.9310   -1.8951    9.7544 C   0  0  0  0  0  0  0  0  0  0  0  0
   16.4486   -1.9023    9.7597 C   0  0  0  0  0  0  0  0  0  0  0  0
   16.9602   -2.1738   11.1621 C   0  0  0  0  0  0  0  0  0  0  0  0
   18.4770   -2.1827   11.1660 C   0  0  0  0  0  0  0  0  0  0  0  0
   18.9875   -2.4522   12.5685 C   0  0  0  0  0  0  0  0  0  0  0  0
   20.5041   -2.4591   12.5724 C   0  0  0  0  0  0  0  0  0  0  0  0
   21.0143   -2.7305   13.9745 C   0  0  0  0  0  0  0  0  0  0  0  0
   22.5308   -2.7394   13.9778 C   0  0  0  0  0  0  0  0  0  0  0  0
   23.0410   -3.0127   15.3795 C   0  0  0  0  0  0  0  0  0  0  0  0
   24.5574   -3.0197   15.3833 C   0  0  0  0  0  0  0  0  0  0  0  0
   25.0676   -3.2930   16.7849 C   0  0  0  0  0  0  0  0  0  0  0  0
   26.5841   -3.2979   16.7891 C   0  0  0  0  0  0  0  0  0  0  0  0
   27.0943   -3.5713   18.1907 C   0  0  0  0  0  0  0  0  0  0  0  0
   28.6107   -3.5762   18.1949 C   0  0  0  0  0  0  0  0  0  0  0  0
   29.1209   -3.8496   19.5965 C   0  0  0  0  0  0  0  0  0  0  0  0
   30.6374   -3.8545   19.6007 C   0  0  0  0  0  0  0  0  0  0  0  0
   31.1476   -4.1279   21.0023 C   0  0  0  0  0  0  0  0  0  0  0  0
   32.6640   -4.1328   21.0065 C   0  0  0  0  0  0  0  0  0  0  0  0
   33.1742   -4.4062   22.4081 C   0  0  0  0  0  0  0  0  0  0  0  0
   34.6907   -4.4091   22.4127 C   0  0  0  0  0  0  0  0  0  0  0  0
   35.2009   -4.6825   23.8143 C   0  0  0  0  0  0  0  0  0  0  0  0
   36.7173   -4.6874   23.8185 C   0  0  0  0  0  0  0  0  0  0  0  0
   37.2275   -4.9588   25.2205 C   0  0  0  0  0  0  0  0  0  0  0  0
   38.7440   -4.9618   25.2250 C   0  0  0  0  0  0  0  0  0  0  0  0
   39.2542   -5.2351   26.6267 C   0  0  0  0  0  0  0  0  0  0  0  0
   40.7707   -5.2361   26.6316 C   0  0  0  0  0  0  0  0  0  0  0  0
   41.2809   -5.5114   28.0329 C   0  0  0  0  0  0  0  0  0  0  0  0
   42.7973   -5.5124   28.0378 C   0  0  0  0  0  0  0  0  0  0  0  0
   43.3075   -5.7877   29.4391 C   0  0  0  0  0  0  0  0  0  0  0  0
   44.8240   -5.7887   29.4440 C   0  0  0  0  0  0  0  0  0  0  0  0
   45.3342   -6.0641   30.8452 C   0  0  0  0  0  0  0  0  0  0  0  0
   46.8506   -6.0650   30.8502 C   0  0  0  0  0  0  0  0  0  0  0  0
   47.3609   -6.3404   32.2514 C   0  0  0  0  0  0  0  0  0  0  0  0
   48.8773   -6.3413   32.2563 C   0  0  0  0  0  0  0  0  0  0  0  0
   49.3875   -6.6167   33.6576 C   0  0  0  0  0  0  0  0  0  0  0  0
   50.9040   -6.6157   33.6629 C   0  0  0  0  0  0  0  0  0  0  0  0
   51.4142   -6.8910   35.0642 C   0  0  0  0  0  0  0  0  0  0  0  0
   52.9306   -6.8920   35.0691 C   0  0  0  0  0  0  0  0  0  0  0  0
   53.4408   -7.1653   36.4707 C   0  0  0  0  0  0  0  0  0  0  0  0
   54.9573   -7.1643   36.4760 C   0  0  0  0  0  0  0  0  0  0  0  0
   55.4675   -7.4397   37.8773 C   0  0  0  0  0  0  0  0  0  0  0  0
   56.9840   -7.4406   37.8822 C   0  0  0  0  0  0  0  0  0  0  0  0
   57.4942   -7.7180   39.2831 C   0  0  0  0  0  0  0  0  0  0  0  0
   59.0106   -7.7170   39.2884 C   0  0  0  0  0  0  0  0  0  0  0  0
   59.5208   -7.9943   40.6893 C   0  0  0  0  0  0  0  0  0  0  0  0
   61.0373   -7.9913   40.6950 C   0  0  0  0  0  0  0  0  0  0  0  0
   61.5475   -8.2686   42.0959 C   0  0  0  0  0  0  0  0  0  0  0  0
   63.0639   -8.2656   42.1015 C   0  0  0  0  0  0  0  0  0  0  0  0
   63.5741   -8.5429   43.5024 C   0  0  0  0  0  0  0  0  0  0  0  0
   65.0906   -8.5400   43.5081 C   0  0  0  0  0  0  0  0  0  0  0  0
   65.6008   -8.8173   44.9090 C   0  0  0  0  0  0  0  0  0  0  0  0
   67.1173   -8.8143   44.9147 C   0  0  0  0  0  0  0  0  0  0  0  0
   67.6275   -9.0916   46.3156 C   0  0  0  0  0  0  0  0  0  0  0  0
   69.1439   -9.0886   46.3213 C   0  0  0  0  0  0  0  0  0  0  0  0
   69.6541   -9.3659   47.7221 C   0  0  0  0  0  0  0  0  0  0  0  0
   71.1706   -9.3610   47.7282 C   0  0  0  0  0  0  0  0  0  0  0  0
   71.6808   -9.6383   49.1291 C   0  0  0  0  0  0  0  0  0  0  0  0
   73.1972   -9.6333   49.1352 C   0  0  0  0  0  0  0  0  0  0  0  0
   73.7075   -9.9107   50.5361 C   0  0  0  0  0  0  0  0  0  0  0  0
   75.2240   -9.9057   50.5422 C   0  0  0  0  0  0  0  0  0  0  0  0
   75.7344  -10.1830   51.9433 C   0  0  0  0  0  0  0  0  0  0  0  0
   77.2513  -10.1762   51.9502 C   0  0  0  0  0  0  0  0  0  0  0  0
   77.7631  -10.4536   53.3514 C   0  0  0  0  0  0  0  0  0  0  0  0
   79.2812  -10.4468   53.3590 C   0  0  0  0  0  0  0  0  0  0  0  0
   79.7954  -10.7223   54.7612 C   0  0  0  0  0  0  0  0  0  0  0  0
   81.3164  -10.7153   54.7778 C   0  0  0  0  0  0  0  0  0  0  0  0
   81.8265  -10.9904   56.1778 C   0  0  0  0  0  0  0  0  0  0  0  0
    0.6176    0.2195   -0.9014 H   0  0  0  0  0  0  0  0  0  0  0  0
    0.6159    0.8091    0.7725 H   0  0  0  0  0  0  0  0  0  0  0  0
    0.5994   -0.9351    0.4462 H   0  0  0  0  0  0  0  0  0  0  0  0
    2.8895    0.9753   -0.2541 H   0  0  0  0  0  0  0  0  0  0  0  0
    2.8730   -0.7606   -0.5789 H   0  0  0  0  0  0  0  0  0  0  0  0
    2.6559   -1.2185    1.8739 H   0  0  0  0  0  0  0  0  0  0  0  0
    2.6696    0.5171    2.1999 H   0  0  0  0  0  0  0  0  0  0  0  0
    4.9398    0.6936    1.1614 H   0  0  0  0  0  0  0  0  0  0  0  0
    4.9258   -1.0426    0.8370 H   0  0  0  0  0  0  0  0  0  0  0  0
    4.6918   -1.5007    3.2886 H   0  0  0  0  0  0  0  0  0  0  0  0
    4.7061    0.2376    3.6126 H   0  0  0  0  0  0  0  0  0  0  0  0
    6.9669    0.4244    2.5944 H   0  0  0  0  0  0  0  0  0  0  0  0
    6.9674   -1.3143    2.2392 H   0  0  0  0  0  0  0  0  0  0  0  0
    6.8058   -1.7277    4.6204 H   0  0  0  0  0  0  0  0  0  0  0  0
    8.8776    0.0822    3.9564 H   0  0  0  0  0  0  0  0  0  0  0  0
    8.5909   -1.9625    5.8733 H   0  0  0  0  0  0  0  0  0  0  0  0
   10.6667   -0.1452    5.2663 H   0  0  0  0  0  0  0  0  0  0  0  0
   10.4886   -2.3145    7.2637 H   0  0  0  0  0  0  0  0  0  0  0  0
   10.4870   -0.5757    7.6248 H   0  0  0  0  0  0  0  0  0  0  0  0
   12.7653   -0.3810    6.5824 H   0  0  0  0  0  0  0  0  0  0  0  0
   12.7560   -2.1174    6.2532 H   0  0  0  0  0  0  0  0  0  0  0  0
   12.5206   -2.5809    8.7010 H   0  0  0  0  0  0  0  0  0  0  0  0
   12.5296   -0.8455    9.0309 H   0  0  0  0  0  0  0  0  0  0  0  0
   14.8000   -0.6607    7.9955 H   0  0  0  0  0  0  0  0  0  0  0  0
   14.7908   -2.3964    7.6655 H   0  0  0  0  0  0  0  0  0  0  0  0
   14.5536   -2.8611   10.1119 H   0  0  0  0  0  0  0  0  0  0  0  0
   14.5607   -1.1253   10.4426 H   0  0  0  0  0  0  0  0  0  0  0  0
   16.8287   -0.9361    9.4055 H   0  0  0  0  0  0  0  0  0  0  0  0
   16.8216   -2.6714    9.0721 H   0  0  0  0  0  0  0  0  0  0  0  0
   16.5807   -3.1395   11.5179 H   0  0  0  0  0  0  0  0  0  0  0  0
   16.5901   -1.4040   11.8505 H   0  0  0  0  0  0  0  0  0  0  0  0
   18.8573   -1.2176   10.8094 H   0  0  0  0  0  0  0  0  0  0  0  0
   18.8479   -2.9536   10.4794 H   0  0  0  0  0  0  0  0  0  0  0  0
   18.6088   -3.4180   12.9249 H   0  0  0  0  0  0  0  0  0  0  0  0
   18.6159   -1.6822   13.2557 H   0  0  0  0  0  0  0  0  0  0  0  0
   20.8829   -1.4928   12.2176 H   0  0  0  0  0  0  0  0  0  0  0  0
   20.8759   -3.2281   11.8843 H   0  0  0  0  0  0  0  0  0  0  0  0
   20.6343   -3.6961   14.3299 H   0  0  0  0  0  0  0  0  0  0  0  0
   20.6438   -1.9607   14.6624 H   0  0  0  0  0  0  0  0  0  0  0  0
   22.9108   -1.7732   13.6238 H   0  0  0  0  0  0  0  0  0  0  0  0
   22.9013   -3.5082   13.2889 H   0  0  0  0  0  0  0  0  0  0  0  0
   22.6621   -3.9795   15.7330 H   0  0  0  0  0  0  0  0  0  0  0  0
   22.6692   -2.2447   16.0688 H   0  0  0  0  0  0  0  0  0  0  0  0
   24.9362   -2.0529   15.0298 H   0  0  0  0  0  0  0  0  0  0  0  0
   24.9292   -3.7877   14.6940 H   0  0  0  0  0  0  0  0  0  0  0  0
   24.6900   -4.2605   17.1378 H   0  0  0  0  0  0  0  0  0  0  0  0
   24.6947   -2.5258   17.4745 H   0  0  0  0  0  0  0  0  0  0  0  0
   26.9617   -2.3305   16.4362 H   0  0  0  0  0  0  0  0  0  0  0  0
   26.9570   -4.0652   16.0996 H   0  0  0  0  0  0  0  0  0  0  0  0
   26.7166   -4.5388   18.5437 H   0  0  0  0  0  0  0  0  0  0  0  0
   26.7213   -2.8041   18.8803 H   0  0  0  0  0  0  0  0  0  0  0  0
   28.9884   -2.6088   17.8420 H   0  0  0  0  0  0  0  0  0  0  0  0
   28.9837   -4.3435   17.5054 H   0  0  0  0  0  0  0  0  0  0  0  0
   28.7433   -4.8171   19.9495 H   0  0  0  0  0  0  0  0  0  0  0  0
   28.7480   -3.0824   20.2861 H   0  0  0  0  0  0  0  0  0  0  0  0
   31.0150   -2.8871   19.2478 H   0  0  0  0  0  0  0  0  0  0  0  0
   31.0103   -4.6217   18.9112 H   0  0  0  0  0  0  0  0  0  0  0  0
   30.7699   -5.0954   21.3553 H   0  0  0  0  0  0  0  0  0  0  0  0
   30.7746   -3.3607   21.6919 H   0  0  0  0  0  0  0  0  0  0  0  0
   33.0417   -3.1654   20.6536 H   0  0  0  0  0  0  0  0  0  0  0  0
   33.0370   -4.9000   20.3170 H   0  0  0  0  0  0  0  0  0  0  0  0
   32.7978   -5.3743   22.7605 H   0  0  0  0  0  0  0  0  0  0  0  0
   32.8001   -3.6398   23.0979 H   0  0  0  0  0  0  0  0  0  0  0  0
   35.0672   -3.4410   22.0603 H   0  0  0  0  0  0  0  0  0  0  0  0
   35.0648   -5.1755   21.7229 H   0  0  0  0  0  0  0  0  0  0  0  0
   34.8232   -5.6500   24.1672 H   0  0  0  0  0  0  0  0  0  0  0  0
   34.8279   -3.9153   24.5038 H   0  0  0  0  0  0  0  0  0  0  0  0
   37.0950   -3.7205   23.4642 H   0  0  0  0  0  0  0  0  0  0  0  0
   37.0903   -5.4556   23.1300 H   0  0  0  0  0  0  0  0  0  0  0  0
   36.8511   -5.9264   25.5742 H   0  0  0  0  0  0  0  0  0  0  0  0
   36.8534   -4.1914   25.9092 H   0  0  0  0  0  0  0  0  0  0  0  0
   39.1205   -3.9936   24.8727 H   0  0  0  0  0  0  0  0  0  0  0  0
   39.1181   -5.7282   24.5353 H   0  0  0  0  0  0  0  0  0  0  0  0
   38.8789   -6.2039   26.9785 H   0  0  0  0  0  0  0  0  0  0  0  0
   38.8789   -4.4695   27.3168 H   0  0  0  0  0  0  0  0  0  0  0  0
   41.1460   -4.2668   26.2812 H   0  0  0  0  0  0  0  0  0  0  0  0
   41.1460   -6.0007   25.9405 H   0  0  0  0  0  0  0  0  0  0  0  0
   40.9056   -6.4807   28.3833 H   0  0  0  0  0  0  0  0  0  0  0  0
   40.9056   -4.7468   28.7240 H   0  0  0  0  0  0  0  0  0  0  0  0
   43.1726   -4.5431   27.6874 H   0  0  0  0  0  0  0  0  0  0  0  0
   43.1726   -6.2770   27.3467 H   0  0  0  0  0  0  0  0  0  0  0  0
   42.9322   -6.7570   29.7895 H   0  0  0  0  0  0  0  0  0  0  0  0
   42.9322   -5.0231   30.1302 H   0  0  0  0  0  0  0  0  0  0  0  0
   45.1993   -4.8194   29.0935 H   0  0  0  0  0  0  0  0  0  0  0  0
   45.1993   -6.5533   28.7528 H   0  0  0  0  0  0  0  0  0  0  0  0
   44.9589   -7.0333   31.1957 H   0  0  0  0  0  0  0  0  0  0  0  0
   44.9589   -5.2995   31.5364 H   0  0  0  0  0  0  0  0  0  0  0  0
   47.2259   -5.0957   30.4997 H   0  0  0  0  0  0  0  0  0  0  0  0
   47.2259   -6.8296   30.1590 H   0  0  0  0  0  0  0  0  0  0  0  0
   46.9856   -7.3096   32.6019 H   0  0  0  0  0  0  0  0  0  0  0  0
   46.9856   -5.5758   32.9426 H   0  0  0  0  0  0  0  0  0  0  0  0
   49.2526   -5.3721   31.9059 H   0  0  0  0  0  0  0  0  0  0  0  0
   49.2526   -7.1059   31.5652 H   0  0  0  0  0  0  0  0  0  0  0  0
   49.0134   -7.5866   34.0075 H   0  0  0  0  0  0  0  0  0  0  0  0
   49.0110   -5.8529   34.3490 H   0  0  0  0  0  0  0  0  0  0  0  0
   51.2781   -5.6457   33.3130 H   0  0  0  0  0  0  0  0  0  0  0  0
   51.2804   -7.3795   32.9715 H   0  0  0  0  0  0  0  0  0  0  0  0
   51.0389   -7.8603   35.4146 H   0  0  0  0  0  0  0  0  0  0  0  0
   51.0389   -6.1264   35.7553 H   0  0  0  0  0  0  0  0  0  0  0  0
   53.3059   -5.9232   34.7173 H   0  0  0  0  0  0  0  0  0  0  0  0
   53.3059   -7.6576   34.3790 H   0  0  0  0  0  0  0  0  0  0  0  0
   53.0667   -8.1348   36.8220 H   0  0  0  0  0  0  0  0  0  0  0  0
   53.0644   -6.4006   37.1611 H   0  0  0  0  0  0  0  0  0  0  0  0
   55.3314   -6.1944   36.1262 H   0  0  0  0  0  0  0  0  0  0  0  0
   55.3338   -7.9281   35.7846 H   0  0  0  0  0  0  0  0  0  0  0  0
   55.0922   -8.4090   38.2277 H   0  0  0  0  0  0  0  0  0  0  0  0
   55.0922   -6.6751   38.5685 H   0  0  0  0  0  0  0  0  0  0  0  0
   57.3592   -6.4709   37.5332 H   0  0  0  0  0  0  0  0  0  0  0  0
   57.3593   -8.2043   37.1900 H   0  0  0  0  0  0  0  0  0  0  0  0
   57.1200   -8.6884   39.6316 H   0  0  0  0  0  0  0  0  0  0  0  0
   57.1177   -6.9552   39.9756 H   0  0  0  0  0  0  0  0  0  0  0  0
   59.3847   -6.7465   38.9399 H   0  0  0  0  0  0  0  0  0  0  0  0
   59.3871   -8.4798   38.5959 H   0  0  0  0  0  0  0  0  0  0  0  0
   59.1479   -8.9654   41.0372 H   0  0  0  0  0  0  0  0  0  0  0  0
   59.1432   -7.2323   41.3820 H   0  0  0  0  0  0  0  0  0  0  0  0
   61.4102   -7.0202   40.3470 H   0  0  0  0  0  0  0  0  0  0  0  0
   61.4149   -8.7533   40.0022 H   0  0  0  0  0  0  0  0  0  0  0  0
   61.1745   -9.2397   42.4438 H   0  0  0  0  0  0  0  0  0  0  0  0
   61.1698   -7.5066   42.7886 H   0  0  0  0  0  0  0  0  0  0  0  0
   63.4369   -7.2945   41.7536 H   0  0  0  0  0  0  0  0  0  0  0  0
   63.4416   -9.0276   41.4088 H   0  0  0  0  0  0  0  0  0  0  0  0
   63.2012   -9.5140   43.8504 H   0  0  0  0  0  0  0  0  0  0  0  0
   63.1965   -7.7810   44.1952 H   0  0  0  0  0  0  0  0  0  0  0  0
   65.4635   -7.5689   43.1602 H   0  0  0  0  0  0  0  0  0  0  0  0
   65.4682   -9.3019   42.8154 H   0  0  0  0  0  0  0  0  0  0  0  0
   65.2279   -9.7884   45.2569 H   0  0  0  0  0  0  0  0  0  0  0  0
   65.2231   -8.0553   45.6017 H   0  0  0  0  0  0  0  0  0  0  0  0
   67.4902   -7.8432   44.5667 H   0  0  0  0  0  0  0  0  0  0  0  0
   67.4949   -9.5763   44.2219 H   0  0  0  0  0  0  0  0  0  0  0  0
   67.2545  -10.0627   46.6635 H   0  0  0  0  0  0  0  0  0  0  0  0
   67.2498   -8.3296   47.0083 H   0  0  0  0  0  0  0  0  0  0  0  0
   69.5168   -8.1175   45.9733 H   0  0  0  0  0  0  0  0  0  0  0  0
   69.5216   -9.8506   45.6285 H   0  0  0  0  0  0  0  0  0  0  0  0
   69.2824  -10.3377   48.0695 H   0  0  0  0  0  0  0  0  0  0  0  0
   69.2753   -8.6048   48.4152 H   0  0  0  0  0  0  0  0  0  0  0  0
   71.5423   -8.3892   47.3808 H   0  0  0  0  0  0  0  0  0  0  0  0
   71.5494  -10.1221   47.0352 H   0  0  0  0  0  0  0  0  0  0  0  0
   71.3090  -10.6100   49.4765 H   0  0  0  0  0  0  0  0  0  0  0  0
   71.3019   -8.8771   49.8221 H   0  0  0  0  0  0  0  0  0  0  0  0
   73.5690   -8.6616   48.7878 H   0  0  0  0  0  0  0  0  0  0  0  0
   73.5760  -10.3945   48.4422 H   0  0  0  0  0  0  0  0  0  0  0  0
   73.3357  -10.8824   50.8835 H   0  0  0  0  0  0  0  0  0  0  0  0
   73.3286   -9.1495   51.2291 H   0  0  0  0  0  0  0  0  0  0  0  0
   75.5957   -8.9339   50.1947 H   0  0  0  0  0  0  0  0  0  0  0  0
   75.6028  -10.6669   49.8491 H   0  0  0  0  0  0  0  0  0  0  0  0
   75.3636  -11.1555   52.2899 H   0  0  0  0  0  0  0  0  0  0  0  0
   75.3541   -9.4226   52.6364 H   0  0  0  0  0  0  0  0  0  0  0  0
   77.6213   -9.2037   51.6030 H   0  0  0  0  0  0  0  0  0  0  0  0
   77.6307  -10.9365   51.2565 H   0  0  0  0  0  0  0  0  0  0  0  0
   77.3913  -11.4258   53.6977 H   0  0  0  0  0  0  0  0  0  0  0  0
   77.3819   -9.6932   54.0441 H   0  0  0  0  0  0  0  0  0  0  0  0
   79.6498   -9.4746   53.0096 H   0  0  0  0  0  0  0  0  0  0  0  0
   79.6593  -11.2080   52.6655 H   0  0  0  0  0  0  0  0  0  0  0  0
   79.4221  -11.6940   55.1073 H   0  0  0  0  0  0  0  0  0  0  0  0
   79.4103   -9.9621   55.4519 H   0  0  0  0  0  0  0  0  0  0  0  0
   81.6884   -9.7435   54.4327 H   0  0  0  0  0  0  0  0  0  0  0  0
   81.7002  -11.4761   54.0880 H   0  0  0  0  0  0  0  0  0  0  0  0
   81.4673  -10.2270   56.8756 H   0  0  0  0  0  0  0  0  0  0  0  0
   82.9192  -10.9858   56.1918 H   0  0  0  0  0  0  0  0  0  0  0  0
   81.4791  -11.9674   56.5293 H   0  0  0  0  0  0  0  0  0  0  0  0
  1  2  1  0  0  0  0
  1 82  1  0  0  0  0
  1 83  1  0  0  0  0
  1 84  1  0  0  0  0
  2  3  1  0  0  0  0
  2 85  1  0  0  0  0
  2 86  1  0  0  0  0
  3  4  1  0  0  0  0
  3 87  1  0  0  0  0
  3 88  1  0  0  0  0
  4  5  1  0  0  0  0
  4 89  1  0  0  0  0
  4 90  1  0  0  0  0
  5  6  1  0  0  0  0
  5 91  1  0  0  0  0
  5 92  1  0  0  0  0
  6  7  1  0  0  0  0
  6 93  1  0  0  0  0
  6 94  1  0  0  0  0
  7  8  1  0  0  0  0
  7 95  1  0  0  0  0
  8  9  1  0  0  0  0
  8 96  1  0  0  0  0
  9 10  1  0  0  0  0
  9 97  1  0  0  0  0
 10 11  1  0  0  0  0
 10 98  1  0  0  0  0
 11 12  1  0  0  0  0
 11 99  1  0  0  0  0
 11100  1  0  0  0  0
 12 13  1  0  0  0  0
 12101  1  0  0  0  0
 12102  1  0  0  0  0
 13 14  1  0  0  0  0
 13103  1  0  0  0  0
 13104  1  0  0  0  0
 14 15  1  0  0  0  0
 14105  1  0  0  0  0
 14106  1  0  0  0  0
 15 16  1  0  0  0  0
 15107  1  0  0  0  0
 15108  1  0  0  0  0
 16 17  1  0  0  0  0
 16109  1  0  0  0  0
 16110  1  0  0  0  0
 17 18  1  0  0  0  0
 17111  1  0  0  0  0
 17112  1  0  0  0  0
 18 19  1  0  0  0  0
 18113  1  0  0  0  0
 18114  1  0  0  0  0
 19 20  1  0  0  0  0
 19115  1  0  0  0  0
 19116  1  0  0  0  0
 20 21  1  0  0  0  0
 20117  1  0  0  0  0
 20118  1  0  0  0  0
 21 22  1  0  0  0  0
 21119  1  0  0  0  0
 21120  1  0  0  0  0
 22 23  1  0  0  0  0
 22121  1  0  0  0  0
 22122  1  0  0  0  0
 23 24  1  0  0  0  0
 23123  1  0  0  0  0
 23124  1  0  0  0  0
 24 25  1  0  0  0  0
 24125  1  0  0  0  0
 24126  1  0  0  0  0
 25 26  1  0  0  0  0
 25127  1  0  0  0  0
 25128  1  0  0  0  0
 26 27  1  0  0  0  0
 26129  1  0  0  0  0
 26130  1  0  0  0  0
 27 28  1  0  0  0  0
 27131  1  0  0  0  0
 27132  1  0  0  0  0
 28 29  1  0  0  0  0
 28133  1  0  0  0  0
 28134  1  0  0  0  0
 29 30  1  0  0  0  0
 29135  1  0  0  0  0
 29136  1  0  0  0  0
 30 31  1  0  0  0  0
 30137  1  0  0  0  0
 30138  1  0  0  0  0
 31 32  1  0  0  0  0
 31139  1  0  0  0  0
 31140  1  0  0  0  0
 32 33  1  0  0  0  0
 32141  1  0  0  0  0
 32142  1  0  0  0  0
 33 34  1  0  0  0  0
 33143  1  0  0  0  0
 33144  1  0  0  0  0
 34 35  1  0  0  0  0
 34145  1  0  0  0  0
 34146  1  0  0  0  0
 35 36  1  0  0  0  0
 35147  1  0  0  0  0
 35148  1  0  0  0  0
 36 37  1  0  0  0  0
 36149  1  0  0  0  0
 36150  1  0  0  0  0
 37 38  1  0  0  0  0
 37151  1  0  0  0  0
 37152  1  0  0  0  0
 38 39  1  0  0  0  0
 38153  1  0  0  0  0
 38154  1  0  0  0  0
 39 40  1  0  0  0  0
 39155  1  0  0  0  0
 39156  1  0  0  0  0
 40 41  1  0  0  0  0
 40157  1  0  0  0  0
 40158  1  0  0  0  0
 41 42  1  0  0  0  0
 41159  1  0  0  0  0
 41160  1  0  0  0  0
 42 43  1  0  0  0  0
 42161  1  0  0  0  0
 42162  1  0  0  0  0
 43 44  1  0  0  0  0
 43163  1  0  0  0  0
 43164  1  0  0  0  0
 44 45  1  0  0  0  0
 44165  1  0  0  0  0
 44166  1  0  0  0  0
 45 46  1  0  0  0  0
 45167  1  0  0  0  0
 45168  1  0  0  0  0
 46 47  1  0  0  0  0
 46169  1  0  0  0  0
 46170  1  0  0  0  0
 47 48  1  0  0  0  0
 47171  1  0  0  0  0
 47172  1  0  0  0  0
 48 49  1  0  0  0  0
 48173  1  0  0  0  0
 48174  1  0  0  0  0
 49 50  1  0  0  0  0
 49175  1  0  0  0  0
 49176  1  0  0  0  0
 50 51  1  0  0  0  0
 50177  1  0  0  0  0
 50178  1  0  0  0  0
 51 52  1  0  0  0  0
 51179  1  0  0  0  0
 51180  1  0  0  0  0
 52 53  1  0  0  0  0
 52181  1  0  0  0  0
 52182  1  0  0  0  0
 53 54  1  0  0  0  0
 53183  1  0  0  0  0
 53184  1  0  0  0  0
 54 55  1  0  0  0  0
 54185  1  0  0  0  0
 54186  1  0  0  0  0
 55 56  1  0  0  0  0
 55187  1  0  0  0  0
 55188  1  0  0  0  0
 56 57  1  0  0  0  0
 56189  1  0  0  0  0
 56190  1  0  0  0  0
 57 58  1  0  0  0  0
 57191  1  0  0  0  0
 57192  1  0  0  0  0
 58 59  1  0  0  0  0
 58193  1  0  0  0  0
 58194  1  0  0  0  0
 59 60  1  0  0  0  0
 59195  1  0  0  0  0
 59196  1  0  0  0  0
 60 61  1  0  0  0  0
 60197  1  0  0  0  0
 60198  1  0  0  0  0
 61 62  1  0  0  0  0
 61199  1  0  0  0  0
 61200  1  0  0  0  0
 62 63  1  0  0  0  0
 62201  1  0  0  0  0
 62202  1  0  0  0  0
 63 64  1  0  0  0  0
 63203  1  0  0  0  0
 63204  1  0  0  0  0
 64 65  1  0  0  0  0
 64205  1  0  0  0  0
 64206  1  0  0  0  0
 65 66  1  0  0  0  0
 65207  1  0  0  0  0
 65208  1  0  0  0  0
 66 67  1  0  0  0  0
 66209  1  0  0  0  0
 66210  1  0  0  0  0
 67 68  1  0  0  0  0
 67211  1  0  0  0  0
 67212  1  0  0  0  0
 68 69  1  0  0  0  0
 68213  1  0  0  0  0
 68214  1  0  0  0  0
 69 70  1  0  0  0  0
 69215  1  0  0  0  0
 69216  1  0  0  0  0
 70 71  1  0  0  0  0
 70217  1  0  0  0  0
 70218  1  0  0  0  0
 71 72  1  0  0  0  0
 71219  1  0  0  0  0
 71220  1  0  0  0  0
 72 73  1  0  0  0  0
 72221  1  0  0  0  0
 72222  1  0  0  0  0
 73 74  1  0  0  0  0
 73223  1  0  0  0  0
 73224  1  0  0  0  0
 74 75  1  0  0  0  0
 74225  1  0  0  0  0
 74226  1  0  0  0  0
 75 76  1  0  0  0  0
 75227  1  0  0  0  0
 75228  1  0  0  0  0
 76 77  1  0  0  0  0
 76229  1  0  0  0  0
 76230  1  0  0  0  0
 77 78  1  0  0  0  0
 77231  1  0  0  0  0
 77232  1  0  0  0  0
 78 79  1  0  0  0  0
 78233  1  0  0  0  0
 78234  1  0  0  0  0
 79 80  1  0  0  0  0
 79235  1  0  0  0  0
 79236  1  0  0  0  0
 80 81  1  0  0  0  0
 80237  1  0  0  0  0
 80238  1  0  0  0  0
 81239  1  0  0  0  0
 81240  1  0  0  0  0
 81241  1  0  0  0  0
M  END
$$$$
