
 OpenBabel04232216553D

 59 60  0  0  0  0  0  0  0  0999 V2000
    2.1033    0.0320   -0.1408 C   0  0  0  0  0  0  0  0  0  0  0  0
    3.6644    0.0501   -0.2108 N   0  0  0  0  0  0  0  0  0  0  0  0
    4.4753   -0.3914   -1.4911 C   0  0  0  0  0  0  0  0  0  0  0  0
    3.3223   -1.0923   -2.3527 C   0  0  0  0  0  0  0  0  0  0  0  0
    3.1695   -2.0675   -3.5377 C   0  0  0  0  0  0  0  0  0  0  0  0
    3.3893   -3.5855   -3.3440 C   0  0  0  0  0  0  0  0  0  0  0  0
    2.4327   -4.3561   -2.4124 C   0  0  0  0  0  0  0  0  0  0  0  0
    2.7796   -5.8649   -2.3979 C   0  0  0  0  0  0  0  0  0  0  0  0
    1.9281   -6.6813   -1.4138 C   0  0  0  0  0  0  0  0  0  0  0  0
    2.3348   -8.1631   -1.3937 C   0  0  0  0  0  0  0  0  0  0  0  0
    1.5062   -8.9657   -0.3992 C   0  0  0  0  0  0  0  0  0  0  0  0
    5.8122   -0.3732   -2.0579 C   0  0  0  0  0  0  0  0  0  0  0  0
    5.8247   -0.7284   -3.3716 N   0  0  0  0  0  0  0  0  0  0  0  0
    6.1206   -1.9421   -3.5361 N   0  0  0  0  0  0  0  0  0  0  0  0
    6.6351   -2.2509   -4.7757 C   0  0  0  0  0  0  0  0  0  0  0  0
    7.9478   -2.4823   -4.8446 C   0  0  0  0  0  0  0  0  0  0  0  0
    8.8051   -2.8795   -5.8922 C   0  0  0  0  0  0  0  0  0  0  0  0
    9.9855   -3.2692   -5.4454 C   0  0  0  0  0  0  0  0  0  0  0  0
   11.1879   -2.5974   -5.8343 C   0  0  0  0  0  0  0  0  0  0  0  0
   11.6061   -1.6836   -4.9221 C   0  0  0  0  0  0  0  0  0  0  0  0
   10.5788   -0.6787   -4.1771 C   0  0  0  0  0  0  0  0  0  0  0  0
    9.7525   -0.9180   -3.1479 N   0  0  0  0  0  0  0  0  0  0  0  0
    8.6049    0.1625   -2.7293 N   0  0  0  0  0  0  0  0  0  0  0  0
    7.6043   -0.0871   -1.8092 C   0  0  0  0  0  0  0  0  0  0  0  0
    7.8059    0.2832   -0.3310 C   0  0  0  0  0  0  0  0  0  0  0  0
    7.4658    0.5658    0.9430 C   0  0  0  0  0  0  0  0  0  0  0  0
    6.3007    0.1360    1.5092 N   0  0  0  0  0  0  0  0  0  0  0  0
    5.5816    0.9967    2.0563 N   0  0  0  0  0  0  0  0  0  0  0  0
    4.2743    0.5982    1.7818 N   0  0  0  0  0  0  0  0  0  0  0  0
    4.0538    1.0613    0.6371 N   0  0  0  0  0  0  0  0  0  0  0  0
    1.5641   -0.2377   -1.0571 H   0  0  0  0  0  0  0  0  0  0  0  0
    1.6930    1.0293    0.0897 H   0  0  0  0  0  0  0  0  0  0  0  0
    1.7369   -0.6479    0.6444 H   0  0  0  0  0  0  0  0  0  0  0  0
    2.7493   -0.2128   -2.6902 H   0  0  0  0  0  0  0  0  0  0  0  0
    2.7538   -1.6505   -1.6013 H   0  0  0  0  0  0  0  0  0  0  0  0
    3.7379   -1.7080   -4.3968 H   0  0  0  0  0  0  0  0  0  0  0  0
    2.1188   -1.9701   -3.8545 H   0  0  0  0  0  0  0  0  0  0  0  0
    4.4208   -3.7761   -3.0308 H   0  0  0  0  0  0  0  0  0  0  0  0
    3.2811   -4.0323   -4.3432 H   0  0  0  0  0  0  0  0  0  0  0  0
    1.3936   -4.2263   -2.7403 H   0  0  0  0  0  0  0  0  0  0  0  0
    2.5086   -3.9618   -1.3932 H   0  0  0  0  0  0  0  0  0  0  0  0
    3.8376   -5.9901   -2.1383 H   0  0  0  0  0  0  0  0  0  0  0  0
    2.6492   -6.2768   -3.4066 H   0  0  0  0  0  0  0  0  0  0  0  0
    0.8686   -6.6026   -1.6855 H   0  0  0  0  0  0  0  0  0  0  0  0
    2.0373   -6.2682   -0.4042 H   0  0  0  0  0  0  0  0  0  0  0  0
    3.3942   -8.2579   -1.1265 H   0  0  0  0  0  0  0  0  0  0  0  0
    2.2142   -8.6010   -2.3914 H   0  0  0  0  0  0  0  0  0  0  0  0
    1.6294   -8.5807    0.6182 H   0  0  0  0  0  0  0  0  0  0  0  0
    1.8180  -10.0167   -0.3997 H   0  0  0  0  0  0  0  0  0  0  0  0
    0.4422   -8.9314   -0.6538 H   0  0  0  0  0  0  0  0  0  0  0  0
    5.9908   -2.2179   -5.6544 H   0  0  0  0  0  0  0  0  0  0  0  0
    8.3900   -2.5202   -3.8169 H   0  0  0  0  0  0  0  0  0  0  0  0
    8.6544   -2.4464   -6.8799 H   0  0  0  0  0  0  0  0  0  0  0  0
   10.0843   -3.5921   -4.3631 H   0  0  0  0  0  0  0  0  0  0  0  0
   11.7658   -3.0434   -6.6493 H   0  0  0  0  0  0  0  0  0  0  0  0
   12.5883   -1.8634   -4.4668 H   0  0  0  0  0  0  0  0  0  0  0  0
   10.6351    0.3014   -4.7158 H   0  0  0  0  0  0  0  0  0  0  0  0
    7.2070   -0.6614   -0.2626 H   0  0  0  0  0  0  0  0  0  0  0  0
    8.1051    1.1548    1.5909 H   0  0  0  0  0  0  0  0  0  0  0  0
  1  2  1  0  0  0  0
  1 31  1  0  0  0  0
  1 32  1  0  0  0  0
  1 33  1  0  0  0  0
  2  3  1  0  0  0  0
  2 30  1  0  0  0  0
  3  4  1  0  0  0  0
  3 12  2  3  0  0  0
  4  5  1  0  0  0  0
  4 34  1  0  0  0  0
  4 35  1  0  0  0  0
  5  6  1  0  0  0  0
  5 36  1  0  0  0  0
  5 37  1  0  0  0  0
  6  7  1  0  0  0  0
  6 38  1  0  0  0  0
  6 39  1  0  0  0  0
  7  8  1  0  0  0  0
  7 40  1  0  0  0  0
  7 41  1  0  0  0  0
  8  9  1  0  0  0  0
  8 42  1  0  0  0  0
  8 43  1  0  0  0  0
  9 10  1  0  0  0  0
  9 44  1  0  0  0  0
  9 45  1  0  0  0  0
 10 11  1  0  0  0  0
 10 46  1  0  0  0  0
 10 47  1  0  0  0  0
 11 48  1  0  0  0  0
 11 49  1  0  0  0  0
 11 50  1  0  0  0  0
 12 13  1  0  0  0  0
 12 24  1  0  0  0  0
 13 14  2  3  0  0  0
 14 15  1  0  0  0  0
 15 16  2  3  0  0  0
 15 51  1  0  0  0  0
 16 17  1  0  0  0  0
 16 52  1  0  0  0  0
 17 18  2  3  0  0  0
 17 53  1  0  0  0  0
 18 19  1  0  0  0  0
 18 54  1  0  0  0  0
 19 20  2  3  0  0  0
 19 55  1  0  0  0  0
 20 21  1  0  0  0  0
 20 56  1  0  0  0  0
 21 22  2  3  0  0  0
 21 57  1  0  0  0  0
 22 23  1  0  0  0  0
 23 24  2  3  0  0  0
 24 25  1  0  0  0  0
 25 26  2  3  0  0  0
 25 58  1  0  0  0  0
 26 27  1  0  0  0  0
 26 59  1  0  0  0  0
 27 28  2  3  0  0  0
 28 29  1  0  0  0  0
 29 30  2  3  0  0  0
M  END
$$$$
