
 OpenBabel04232216523D

 48 49  0  0  0  0  0  0  0  0999 V2000
    2.7573    2.2522   -3.0685 C   0  0  0  0  0  0  0  0  0  0  0  0
    2.4053    1.7801   -1.6645 C   0  0  0  0  0  0  0  0  0  0  0  0
    3.0484    0.4379   -1.2977 C   0  0  0  0  0  0  0  0  0  0  0  0
    4.5576    0.4503   -1.2967 C   0  0  0  0  0  0  0  0  0  0  0  0
    5.2679    1.3041   -0.4449 C   0  0  0  0  0  0  0  0  0  0  0  0
    6.6630    1.3171   -0.4568 C   0  0  0  0  0  0  0  0  0  0  0  0
    7.3741    0.4721   -1.3181 C   0  0  0  0  0  0  0  0  0  0  0  0
    8.8787    0.4965   -1.3321 C   0  0  0  0  0  0  0  0  0  0  0  0
    9.4836   -0.4746   -0.3133 C   0  0  0  0  0  0  0  0  0  0  0  0
   11.0142   -0.4301   -0.2917 C   0  0  0  0  0  0  0  0  0  0  0  0
   11.5532    0.9396    0.1163 C   0  0  0  0  0  0  0  0  0  0  0  0
   12.9987    0.9631    0.1302 N   0  0  0  0  0  0  0  0  0  0  0  0
   13.7141    1.3280   -0.9854 C   0  0  0  0  0  0  0  0  0  0  0  0
   13.1949    1.6245   -2.0531 O   0  0  0  0  0  0  0  0  0  0  0  0
   15.1458    1.3665   -0.7057 C   0  0  0  0  0  0  0  0  0  0  0  0
   16.1453    2.0053   -1.3512 C   0  0  0  0  0  0  0  0  0  0  0  0
   16.2061    2.9038   -2.5788 C   0  0  0  0  0  0  0  0  0  0  0  0
   15.3923    4.1468   -2.3352 C   0  0  0  0  0  0  0  0  0  0  0  0
   15.8551    5.2836   -2.4020 O   0  0  0  0  0  0  0  0  0  0  0  0
   17.0749    1.5708   -0.5604 O   0  0  0  0  0  0  0  0  0  0  0  0
   16.1333    0.7969    0.2266 C   0  0  0  0  0  0  0  0  0  0  0  0
    6.6679   -0.3938   -2.1582 C   0  0  0  0  0  0  0  0  0  0  0  0
    5.2719   -0.4031   -2.1484 C   0  0  0  0  0  0  0  0  0  0  0  0
    2.2541    3.2005   -3.2824 H   0  0  0  0  0  0  0  0  0  0  0  0
    2.4394    1.5218   -3.8189 H   0  0  0  0  0  0  0  0  0  0  0  0
    3.8335    2.4164   -3.1806 H   0  0  0  0  0  0  0  0  0  0  0  0
    1.3160    1.6733   -1.5949 H   0  0  0  0  0  0  0  0  0  0  0  0
    2.6899    2.5539   -0.9425 H   0  0  0  0  0  0  0  0  0  0  0  0
    2.6791   -0.3343   -1.9844 H   0  0  0  0  0  0  0  0  0  0  0  0
    2.7114    0.1387   -0.2970 H   0  0  0  0  0  0  0  0  0  0  0  0
    4.7399    1.9732    0.2307 H   0  0  0  0  0  0  0  0  0  0  0  0
    7.1920    1.9996    0.2043 H   0  0  0  0  0  0  0  0  0  0  0  0
    9.1942    1.5255   -1.1288 H   0  0  0  0  0  0  0  0  0  0  0  0
    9.2465    0.2630   -2.3390 H   0  0  0  0  0  0  0  0  0  0  0  0
    9.1662   -1.4987   -0.5488 H   0  0  0  0  0  0  0  0  0  0  0  0
    9.1013   -0.2567    0.6921 H   0  0  0  0  0  0  0  0  0  0  0  0
   11.4063   -0.7158   -1.2758 H   0  0  0  0  0  0  0  0  0  0  0  0
   11.3801   -1.1865    0.4150 H   0  0  0  0  0  0  0  0  0  0  0  0
   11.2107    1.2004    1.1222 H   0  0  0  0  0  0  0  0  0  0  0  0
   11.2113    1.7190   -0.5680 H   0  0  0  0  0  0  0  0  0  0  0  0
   13.4672    0.8243    1.0145 H   0  0  0  0  0  0  0  0  0  0  0  0
   15.7095    2.4144   -3.4232 H   0  0  0  0  0  0  0  0  0  0  0  0
   17.2360    3.1724   -2.8252 H   0  0  0  0  0  0  0  0  0  0  0  0
   14.3189    3.9981   -2.1319 H   0  0  0  0  0  0  0  0  0  0  0  0
   16.1028    1.1206    1.2716 H   0  0  0  0  0  0  0  0  0  0  0  0
   16.3279   -0.2782    0.1614 H   0  0  0  0  0  0  0  0  0  0  0  0
    7.2007   -1.0589   -2.8334 H   0  0  0  0  0  0  0  0  0  0  0  0
    4.7460   -1.0783   -2.8190 H   0  0  0  0  0  0  0  0  0  0  0  0
  1  2  1  0  0  0  0
  1 24  1  0  0  0  0
  1 25  1  0  0  0  0
  1 26  1  0  0  0  0
  2  3  1  0  0  0  0
  2 27  1  0  0  0  0
  2 28  1  0  0  0  0
  3  4  1  0  0  0  0
  3 29  1  0  0  0  0
  3 30  1  0  0  0  0
  4  5  1  0  0  0  0
  4 23  2  0  0  0  0
  5  6  2  0  0  0  0
  5 31  1  0  0  0  0
  6  7  1  0  0  0  0
  6 32  1  0  0  0  0
  7  8  1  0  0  0  0
  7 22  2  0  0  0  0
  8  9  1  0  0  0  0
  8 33  1  0  0  0  0
  8 34  1  0  0  0  0
  9 10  1  0  0  0  0
  9 35  1  0  0  0  0
  9 36  1  0  0  0  0
 10 11  1  0  0  0  0
 10 37  1  0  0  0  0
 10 38  1  0  0  0  0
 11 12  1  0  0  0  0
 11 39  1  0  0  0  0
 11 40  1  0  0  0  0
 12 13  1  0  0  0  0
 12 41  1  0  0  0  0
 13 14  2  0  0  0  0
 13 15  1  0  0  0  0
 15 16  2  0  0  0  0
 15 21  1  0  0  0  0
 16 17  1  0  0  0  0
 16 20  1  0  0  0  0
 17 18  1  0  0  0  0
 17 42  1  0  0  0  0
 17 43  1  0  0  0  0
 18 19  2  0  0  0  0
 18 44  1  0  0  0  0
 20 21  1  0  0  0  0
 21 45  1  0  0  0  0
 21 46  1  0  0  0  0
 22 23  1  0  0  0  0
 22 47  1  0  0  0  0
 23 48  1  0  0  0  0
M  END
$$$$
