
 OpenBabel04232216443D

 44 46  0  0  1  0  0  0  0  0999 V2000
   -0.6023   -0.3328    1.0709 C   0  0  0  0  0  0  0  0  0  0  0  0
   -0.4622    0.8120    2.0696 C   0  0  0  0  0  0  0  0  0  0  0  0
    0.6874    1.5391    1.8920 C   0  0  0  0  0  0  0  0  0  0  0  0
    1.9638    0.8980    1.3050 C   0  0  0  0  0  0  0  0  0  0  0  0
    3.1164    1.9096    1.4636 C   0  0  0  0  0  0  0  0  0  0  0  0
    2.4336    3.2991    1.3946 C   0  0  3  0  0  0  0  0  0  0  0  0
    2.3582    3.6030   -0.1141 C   0  0  3  0  0  0  0  0  0  0  0  0
    1.7801    4.9296   -0.5842 C   0  0  0  0  0  0  0  0  0  0  0  0
    1.9798    5.0808   -2.1027 C   0  0  0  0  0  0  0  0  0  0  0  0
    3.6700    3.6172   -0.5536 F   0  0  0  0  0  0  0  0  0  0  0  0
    1.2648    2.8715    2.3368 C   0  0  0  0  0  0  0  0  0  0  0  0
    1.3252    3.2625    3.5823 N   0  0  0  0  0  0  0  0  0  0  0  0
    1.5314    2.1095    4.3726 N   0  0  0  0  0  0  0  0  0  0  0  0
    0.5283    1.6741    5.0624 C   0  0  0  0  0  0  0  0  0  0  0  0
   -0.5693    2.4202    5.2362 F   0  0  0  0  0  0  0  0  0  0  0  0
    0.5656    0.3594    5.4810 N   0  0  0  0  0  0  0  0  0  0  0  0
   -0.5742   -0.1407    5.6015 N   0  0  0  0  0  0  0  0  0  0  0  0
   -0.9597   -1.0670    4.4917 C   0  0  0  0  0  0  0  0  0  0  0  0
   -2.0571   -0.3612    3.6812 C   0  0  0  0  0  0  0  0  0  0  0  0
   -3.3578   -0.6179    4.1749 C   0  0  0  0  0  0  0  0  0  0  0  0
   -4.2483    0.4396    4.2811 C   0  0  0  0  0  0  0  0  0  0  0  0
   -3.8203    1.7107    3.8613 C   0  0  0  0  0  0  0  0  0  0  0  0
   -2.5978    1.8933    3.1636 C   0  0  0  0  0  0  0  0  0  0  0  0
   -1.7030    0.8288    2.9681 C   0  0  0  0  0  0  0  0  0  0  0  0
   -1.6414   -0.6477    0.9327 H   0  0  0  0  0  0  0  0  0  0  0  0
   -0.2857    0.0044    0.0738 H   0  0  0  0  0  0  0  0  0  0  0  0
    0.0034   -1.1967    1.3597 H   0  0  0  0  0  0  0  0  0  0  0  0
    1.8421    0.6250    0.2539 H   0  0  0  0  0  0  0  0  0  0  0  0
    2.2208    0.0008    1.8814 H   0  0  0  0  0  0  0  0  0  0  0  0
    3.8801    1.7437    0.6949 H   0  0  0  0  0  0  0  0  0  0  0  0
    3.6249    1.7835    2.4286 H   0  0  0  0  0  0  0  0  0  0  0  0
    3.0742    4.0439    1.8820 H   0  0  0  0  0  0  0  0  0  0  0  0
    1.8723    2.7910   -0.6642 H   0  0  0  0  0  0  0  0  0  0  0  0
    2.2960    5.7633   -0.0966 H   0  0  0  0  0  0  0  0  0  0  0  0
    0.7161    4.9854   -0.3478 H   0  0  0  0  0  0  0  0  0  0  0  0
    3.0444    5.1255   -2.3643 H   0  0  0  0  0  0  0  0  0  0  0  0
    1.5147    6.0012   -2.4684 H   0  0  0  0  0  0  0  0  0  0  0  0
    1.5428    4.2382   -2.6502 H   0  0  0  0  0  0  0  0  0  0  0  0
   -1.3692   -1.9716    4.9572 H   0  0  0  0  0  0  0  0  0  0  0  0
   -0.1215   -1.3762    3.8671 H   0  0  0  0  0  0  0  0  0  0  0  0
   -3.6141   -1.5655    4.6201 H   0  0  0  0  0  0  0  0  0  0  0  0
   -5.1926    0.3078    4.7814 H   0  0  0  0  0  0  0  0  0  0  0  0
   -4.4545    2.5607    4.1067 H   0  0  0  0  0  0  0  0  0  0  0  0
   -2.3444    2.9094    2.8185 H   0  0  0  0  0  0  0  0  0  0  0  0
  1  2  1  0  0  0  0
  1 25  1  0  0  0  0
  1 26  1  0  0  0  0
  1 27  1  0  0  0  0
  2  3  2  3  0  0  0
  2 24  1  0  0  0  0
  3  4  1  0  0  0  0
  3 11  1  0  0  0  0
  4  5  1  0  0  0  0
  4 28  1  0  0  0  0
  4 29  1  0  0  0  0
  5  6  1  0  0  0  0
  5 30  1  0  0  0  0
  5 31  1  0  0  0  0
  6  7  1  0  0  0  0
  6 11  1  0  0  0  0
  6 32  1  0  0  0  0
  7  8  1  0  0  0  0
  7 10  1  0  0  0  0
  7 33  1  0  0  0  0
  8  9  1  0  0  0  0
  8 34  1  0  0  0  0
  8 35  1  0  0  0  0
  9 36  1  0  0  0  0
  9 37  1  0  0  0  0
  9 38  1  0  0  0  0
 11 12  2  3  0  0  0
 12 13  1  0  0  0  0
 13 14  2  3  0  0  0
 14 15  1  0  0  0  0
 14 16  1  0  0  0  0
 16 17  2  3  0  0  0
 17 18  1  0  0  0  0
 18 19  1  0  0  0  0
 18 39  1  0  0  0  0
 18 40  1  0  0  0  0
 19 20  1  0  0  0  0
 19 24  2  0  0  0  0
 20 21  2  0  0  0  0
 20 41  1  0  0  0  0
 21 22  1  0  0  0  0
 21 42  1  0  0  0  0
 22 23  2  0  0  0  0
 22 43  1  0  0  0  0
 23 24  1  0  0  0  0
 23 44  1  0  0  0  0
M  END
$$$$
