
 OpenBabel04232216553D

 54 54  0  0  0  0  0  0  0  0999 V2000
    4.6606    1.0836    1.0832 C   0  0  0  0  0  0  0  0  0  0  0  0
    6.1249    0.1628    1.3481 C   0  0  0  0  0  0  0  0  0  0  0  0
    7.6299    0.3953    2.4716 C   0  0  0  0  0  0  0  0  0  0  0  0
    8.6944   -0.9783    3.2558 N   0  0  0  0  0  0  0  0  0  0  0  0
    7.5011   -1.9457    3.4439 C   0  0  0  0  0  0  0  0  0  0  0  0
    5.9481   -1.6428    3.9454 C   0  0  0  0  0  0  0  0  0  0  0  0
    7.2934   -2.8687    2.4570 C   0  0  0  0  0  0  0  0  0  0  0  0
    7.0959   -4.1985    3.0437 C   0  0  0  0  0  0  0  0  0  0  0  0
    8.2728   -4.5979    3.5453 C   0  0  0  0  0  0  0  0  0  0  0  0
    8.4309   -4.5168    5.0766 C   0  0  0  0  0  0  0  0  0  0  0  0
    9.7503   -3.9902    5.3539 C   0  0  0  0  0  0  0  0  0  0  0  0
   11.0627   -4.6946    5.5859 C   0  0  0  0  0  0  0  0  0  0  0  0
   11.3694   -5.6931    6.3315 O   0  0  0  0  0  0  0  0  0  0  0  0
   12.0846   -3.8908    4.9169 C   0  0  0  0  0  0  0  0  0  0  0  0
   11.6764   -2.7227    5.2408 N   0  0  0  0  0  0  0  0  0  0  0  0
   11.7888   -1.6160    4.4729 C   0  0  0  0  0  0  0  0  0  0  0  0
   13.5989   -1.8126    5.4209 C   0  0  0  0  0  0  0  0  0  0  0  0
   15.0856   -3.0647    5.8842 C   0  0  0  0  0  0  0  0  0  0  0  0
   16.1674   -3.9466    7.3252 C   0  0  0  0  0  0  0  0  0  0  0  0
   17.9553   -4.6938    7.5106 C   0  0  0  0  0  0  0  0  0  0  0  0
   18.9565   -5.6677    8.7109 C   0  0  0  0  0  0  0  0  0  0  0  0
   19.6775   -5.3033   10.0909 C   0  0  0  0  0  0  0  0  0  0  0  0
   10.3654   -0.8846    4.1448 N   0  0  0  0  0  0  0  0  0  0  0  0
    4.2853    0.8960    0.0391 H   0  0  0  0  0  0  0  0  0  0  0  0
    4.7128    2.1834    1.1132 H   0  0  0  0  0  0  0  0  0  0  0  0
    3.7601    0.7688    1.6546 H   0  0  0  0  0  0  0  0  0  0  0  0
    6.5282    0.2864    0.3332 H   0  0  0  0  0  0  0  0  0  0  0  0
    5.7227   -0.8553    1.3590 H   0  0  0  0  0  0  0  0  0  0  0  0
    7.2200    0.9388    3.3064 H   0  0  0  0  0  0  0  0  0  0  0  0
    8.3068    0.9470    1.8271 H   0  0  0  0  0  0  0  0  0  0  0  0
    5.3021   -1.0719    3.2562 H   0  0  0  0  0  0  0  0  0  0  0  0
    5.8006   -1.2562    4.9511 H   0  0  0  0  0  0  0  0  0  0  0  0
    5.3520   -2.5807    3.9552 H   0  0  0  0  0  0  0  0  0  0  0  0
    7.8986   -2.8370    1.5541 H   0  0  0  0  0  0  0  0  0  0  0  0
    6.2273   -4.3604    3.6826 H   0  0  0  0  0  0  0  0  0  0  0  0
    9.1124   -4.1823    2.9630 H   0  0  0  0  0  0  0  0  0  0  0  0
    8.1899   -5.4098    5.5966 H   0  0  0  0  0  0  0  0  0  0  0  0
    7.7801   -3.6899    5.4484 H   0  0  0  0  0  0  0  0  0  0  0  0
    9.6933   -3.1663    6.0974 H   0  0  0  0  0  0  0  0  0  0  0  0
    9.9907   -3.4747    4.4055 H   0  0  0  0  0  0  0  0  0  0  0  0
   12.6784   -4.2254    4.0499 H   0  0  0  0  0  0  0  0  0  0  0  0
   13.3513   -1.4711    6.4501 H   0  0  0  0  0  0  0  0  0  0  0  0
   14.2019   -1.0610    4.9128 H   0  0  0  0  0  0  0  0  0  0  0  0
   15.9438   -2.4586    5.5560 H   0  0  0  0  0  0  0  0  0  0  0  0
   15.0097   -3.9227    5.1990 H   0  0  0  0  0  0  0  0  0  0  0  0
   15.6243   -4.8920    7.5662 H   0  0  0  0  0  0  0  0  0  0  0  0
   16.1684   -3.3040    8.1932 H   0  0  0  0  0  0  0  0  0  0  0  0
   18.6559   -3.8731    7.3191 H   0  0  0  0  0  0  0  0  0  0  0  0
   18.0468   -5.4125    6.6800 H   0  0  0  0  0  0  0  0  0  0  0  0
   19.8847   -5.9015    8.1293 H   0  0  0  0  0  0  0  0  0  0  0  0
   18.5473   -6.6827    8.8548 H   0  0  0  0  0  0  0  0  0  0  0  0
   20.3894   -4.4685   10.0397 H   0  0  0  0  0  0  0  0  0  0  0  0
   20.3390   -6.1445   10.4323 H   0  0  0  0  0  0  0  0  0  0  0  0
   18.9952   -5.1699   10.9333 H   0  0  0  0  0  0  0  0  0  0  0  0
  1  2  1  0  0  0  0
  1 24  1  0  0  0  0
  1 25  1  0  0  0  0
  1 26  1  0  0  0  0
  2  3  1  0  0  0  0
  2 27  1  0  0  0  0
  2 28  1  0  0  0  0
  3  4  1  0  0  0  0
  3 29  1  0  0  0  0
  3 30  1  0  0  0  0
  4  5  1  0  0  0  0
  4 23  1  0  0  0  0
  5  6  1  0  0  0  0
  5  7  2  3  0  0  0
  6 31  1  0  0  0  0
  6 32  1  0  0  0  0
  6 33  1  0  0  0  0
  7  8  1  0  0  0  0
  7 34  1  0  0  0  0
  8  9  2  3  0  0  0
  8 35  1  0  0  0  0
  9 10  1  0  0  0  0
  9 36  1  0  0  0  0
 10 11  1  0  0  0  0
 10 37  1  0  0  0  0
 10 38  1  0  0  0  0
 11 12  1  0  0  0  0
 11 39  1  0  0  0  0
 11 40  1  0  0  0  0
 12 13  2  0  0  0  0
 12 14  1  0  0  0  0
 14 15  2  3  0  0  0
 14 41  1  0  0  0  0
 15 16  1  0  0  0  0
 16 17  1  0  0  0  0
 16 23  2  3  0  0  0
 17 18  1  0  0  0  0
 17 42  1  0  0  0  0
 17 43  1  0  0  0  0
 18 19  1  0  0  0  0
 18 44  1  0  0  0  0
 18 45  1  0  0  0  0
 19 20  1  0  0  0  0
 19 46  1  0  0  0  0
 19 47  1  0  0  0  0
 20 21  1  0  0  0  0
 20 48  1  0  0  0  0
 20 49  1  0  0  0  0
 21 22  1  0  0  0  0
 21 50  1  0  0  0  0
 21 51  1  0  0  0  0
 22 52  1  0  0  0  0
 22 53  1  0  0  0  0
 22 54  1  0  0  0  0
M  END
$$$$
