
 OpenBabel04232216433D

 60 62  0  0  0  0  0  0  0  0999 V2000
    9.9729   -0.4315    6.7133 C   0  0  0  0  0  0  0  0  0  0  0  0
    8.2897   -0.2704    5.4162 C   0  0  0  0  0  0  0  0  0  0  0  0
    6.8071   -0.3083    4.5944 C   0  0  0  0  0  0  0  0  0  0  0  0
    6.4707   -0.1806    2.7830 C   0  0  0  0  0  0  0  0  0  0  0  0
    6.9831   -1.2675    2.1541 C   0  0  0  0  0  0  0  0  0  0  0  0
    8.3841   -1.4998    2.4989 C   0  0  0  0  0  0  0  0  0  0  0  0
    8.9717   -2.0593    3.6322 C   0  0  0  0  0  0  0  0  0  0  0  0
   10.5679   -1.5384    4.0498 C   0  0  0  0  0  0  0  0  0  0  0  0
   11.6167   -1.0473    4.9734 C   0  0  0  0  0  0  0  0  0  0  0  0
   13.0262   -1.1058    6.1843 C   0  0  0  0  0  0  0  0  0  0  0  0
   14.3554   -1.3780    7.0725 C   0  0  0  0  0  0  0  0  0  0  0  0
   14.4041   -2.4326    6.1485 C   0  0  0  0  0  0  0  0  0  0  0  0
   14.9317   -3.5094    6.6281 C   0  0  0  0  0  0  0  0  0  0  0  0
   16.2687   -3.0378    6.2583 C   0  0  0  0  0  0  0  0  0  0  0  0
   16.8508   -2.7131    7.3785 C   0  0  0  0  0  0  0  0  0  0  0  0
   18.1835   -2.8091    7.5219 C   0  0  0  0  0  0  0  0  0  0  0  0
   18.5376   -3.5399    8.5687 C   0  0  0  0  0  0  0  0  0  0  0  0
   19.8904   -3.3707    8.5983 C   0  0  0  0  0  0  0  0  0  0  0  0
   20.6469   -3.9946    9.4414 C   0  0  0  0  0  0  0  0  0  0  0  0
   21.9732   -3.5408    9.2163 C   0  0  0  0  0  0  0  0  0  0  0  0
   22.8453   -4.2605    9.8664 C   0  0  0  0  0  0  0  0  0  0  0  0
   24.2283   -3.9857   10.0115 C   0  0  0  0  0  0  0  0  0  0  0  0
   24.4333   -4.2544   11.3115 C   0  0  0  0  0  0  0  0  0  0  0  0
   23.9517   -2.8871   11.9764 C   0  0  0  0  0  0  0  0  0  0  0  0
   22.3318   -2.6515   11.9953 C   0  0  0  0  0  0  0  0  0  0  0  0
   20.5200   -2.2325   11.1952 C   0  0  0  0  0  0  0  0  0  0  0  0
   18.7122   -1.8528   10.9354 C   0  0  0  0  0  0  0  0  0  0  0  0
   16.8053   -1.5461    9.9675 C   0  0  0  0  0  0  0  0  0  0  0  0
   15.2065   -1.3260    8.8603 C   0  0  0  0  0  0  0  0  0  0  0  0
   13.1607   -0.9867    8.7963 C   0  0  0  0  0  0  0  0  0  0  0  0
   11.9807   -1.7062    8.6025 C   0  0  0  0  0  0  0  0  0  0  0  0
   11.3628   -0.8397    7.8159 C   0  0  0  0  0  0  0  0  0  0  0  0
    9.2582   -1.4158    6.6341 H   0  0  0  0  0  0  0  0  0  0  0  0
    8.5808    0.1947    4.4721 H   0  0  0  0  0  0  0  0  0  0  0  0
    5.6519   -0.5919    4.6086 H   0  0  0  0  0  0  0  0  0  0  0  0
    5.4755    0.0015    2.0577 H   0  0  0  0  0  0  0  0  0  0  0  0
    6.3829   -2.1289    2.4374 H   0  0  0  0  0  0  0  0  0  0  0  0
    8.8926   -0.8099    1.8305 H   0  0  0  0  0  0  0  0  0  0  0  0
    8.2259   -2.4908    4.3531 H   0  0  0  0  0  0  0  0  0  0  0  0
   10.5155   -0.8230    3.1808 H   0  0  0  0  0  0  0  0  0  0  0  0
   11.3116   -2.0872    5.5771 H   0  0  0  0  0  0  0  0  0  0  0  0
   13.2897   -1.1555    5.0808 H   0  0  0  0  0  0  0  0  0  0  0  0
   14.6744   -2.0532    5.1511 H   0  0  0  0  0  0  0  0  0  0  0  0
   14.5421   -3.6080    7.6853 H   0  0  0  0  0  0  0  0  0  0  0  0
   16.4257   -2.1527    5.5726 H   0  0  0  0  0  0  0  0  0  0  0  0
   16.3625   -3.0531    8.2660 H   0  0  0  0  0  0  0  0  0  0  0  0
   18.8298   -2.2086    6.9081 H   0  0  0  0  0  0  0  0  0  0  0  0
   17.9390   -3.9775    9.3853 H   0  0  0  0  0  0  0  0  0  0  0  0
   20.3270   -2.5859    7.9918 H   0  0  0  0  0  0  0  0  0  0  0  0
   20.1841   -4.5111   10.2940 H   0  0  0  0  0  0  0  0  0  0  0  0
   22.2179   -2.6273    8.6689 H   0  0  0  0  0  0  0  0  0  0  0  0
   22.3594   -4.8013   10.6915 H   0  0  0  0  0  0  0  0  0  0  0  0
   24.6014   -3.0066    9.6439 H   0  0  0  0  0  0  0  0  0  0  0  0
   24.0136   -5.1324   11.8269 H   0  0  0  0  0  0  0  0  0  0  0  0
   25.2040   -2.8971   11.7002 H   0  0  0  0  0  0  0  0  0  0  0  0
   22.6507   -3.1830   13.1120 H   0  0  0  0  0  0  0  0  0  0  0  0
   20.9455   -2.0309   12.3685 H   0  0  0  0  0  0  0  0  0  0  0  0
   18.8610   -1.7347   12.0440 H   0  0  0  0  0  0  0  0  0  0  0  0
   17.7449   -1.5284    9.3562 H   0  0  0  0  0  0  0  0  0  0  0  0
   11.3827   -2.6151    8.6228 H   0  0  0  0  0  0  0  0  0  0  0  0
  1  2  1  0  0  0  0
  1 32  2  0  0  0  0
  1 33  1  0  0  0  0
  2  3  2  0  0  0  0
  2 34  1  0  0  0  0
  3  4  1  0  0  0  0
  3 35  1  0  0  0  0
  4  5  2  0  0  0  0
  4 36  1  0  0  0  0
  5  6  1  0  0  0  0
  5 37  1  0  0  0  0
  6  7  2  0  0  0  0
  6 38  1  0  0  0  0
  7  8  1  0  0  0  0
  7 39  1  0  0  0  0
  8  9  2  0  0  0  0
  8 40  1  0  0  0  0
  9 10  1  0  0  0  0
  9 41  1  0  0  0  0
 10 11  2  0  0  0  0
 10 42  1  0  0  0  0
 11 12  1  0  0  0  0
 11 29  1  0  0  0  0
 12 13  2  3  0  0  0
 12 43  1  0  0  0  0
 13 14  1  0  0  0  0
 13 44  1  0  0  0  0
 14 15  2  3  0  0  0
 14 45  1  0  0  0  0
 15 16  1  0  0  0  0
 15 46  1  0  0  0  0
 16 17  2  3  0  0  0
 16 47  1  0  0  0  0
 17 18  1  0  0  0  0
 17 48  1  0  0  0  0
 18 19  2  3  0  0  0
 18 49  1  0  0  0  0
 19 20  1  0  0  0  0
 19 50  1  0  0  0  0
 20 21  2  3  0  0  0
 20 51  1  0  0  0  0
 21 22  1  0  0  0  0
 21 52  1  0  0  0  0
 22 23  2  3  0  0  0
 22 53  1  0  0  0  0
 23 24  1  0  0  0  0
 23 54  1  0  0  0  0
 24 25  2  3  0  0  0
 24 55  1  0  0  0  0
 25 26  1  0  0  0  0
 25 56  1  0  0  0  0
 26 27  2  3  0  0  0
 26 57  1  0  0  0  0
 27 28  1  0  0  0  0
 27 58  1  0  0  0  0
 28 29  2  3  0  0  0
 28 59  1  0  0  0  0
 29 30  1  0  0  0  0
 30 31  2  0  0  0  0
 30 32  1  0  0  0  0
 31 32  1  0  0  0  0
 31 60  1  0  0  0  0
M  END
$$$$
