
 OpenBabel04232216403D

 58 57  0  0  0  0  0  0  0  0999 V2000
    1.3872   -0.2794    0.8969 C   0  0  0  0  0  0  0  0  0  0  0  0
    2.2582    0.0695   -0.0655 C   0  0  0  0  0  0  0  0  0  0  0  0
    3.0457   -0.9294   -0.8552 C   0  0  0  0  0  0  0  0  0  0  0  0
    4.4806   -0.6973   -0.6769 N   0  0  0  0  0  0  0  0  0  0  0  0
    5.2035   -1.6822   -1.4468 N   0  0  0  0  0  0  0  0  0  0  0  0
    6.6018   -1.4921   -1.2961 N   0  0  0  0  0  0  0  0  0  0  0  0
    7.3055   -2.4721   -2.0713 N   0  0  0  0  0  0  0  0  0  0  0  0
    8.7449   -2.2522   -1.8979 C   0  0  0  0  0  0  0  0  0  0  0  0
    9.5102   -3.2883   -2.7117 C   0  0  0  0  0  0  0  0  0  0  0  0
   11.0111   -3.0839   -2.5472 C   0  0  0  0  0  0  0  0  0  0  0  0
   11.7891   -4.1132   -3.3583 C   0  0  0  0  0  0  0  0  0  0  0  0
   13.2850   -3.8908   -3.1827 C   0  0  0  0  0  0  0  0  0  0  0  0
   14.0194   -4.8800   -3.9615 N   0  0  0  0  0  0  0  0  0  0  0  0
   15.4521   -4.6711   -3.7968 C   0  0  0  0  0  0  0  0  0  0  0  0
   16.2040   -5.7084   -4.6144 C   0  0  0  0  0  0  0  0  0  0  0  0
   17.7026   -5.5000   -4.4498 C   0  0  0  0  0  0  0  0  0  0  0  0
   18.4743   -6.5284   -5.2599 C   0  0  0  0  0  0  0  0  0  0  0  0
   19.9723   -6.3164   -5.0927 C   0  0  0  0  0  0  0  0  0  0  0  0
   20.7455   -7.3464   -5.9041 C   0  0  0  0  0  0  0  0  0  0  0  0
   22.2471   -7.1444   -5.7447 C   0  0  0  0  0  0  0  0  0  0  0  0
   23.0141   -8.1728   -6.5549 C   0  0  0  0  0  0  0  0  0  0  0  0
    0.8315    0.4765    1.4407 H   0  0  0  0  0  0  0  0  0  0  0  0
    1.2120   -1.3180    1.1627 H   0  0  0  0  0  0  0  0  0  0  0  0
    2.3758    1.1260   -0.2944 H   0  0  0  0  0  0  0  0  0  0  0  0
    2.7808   -0.8263   -1.9149 H   0  0  0  0  0  0  0  0  0  0  0  0
    2.7865   -1.9472   -0.5393 H   0  0  0  0  0  0  0  0  0  0  0  0
    4.6895   -0.8314    0.3137 H   0  0  0  0  0  0  0  0  0  0  0  0
    4.9588   -1.6054   -2.4401 H   0  0  0  0  0  0  0  0  0  0  0  0
    6.8812   -1.5757   -0.3096 H   0  0  0  0  0  0  0  0  0  0  0  0
    7.0825   -2.3932   -3.0664 H   0  0  0  0  0  0  0  0  0  0  0  0
    9.0189   -2.3489   -0.8395 H   0  0  0  0  0  0  0  0  0  0  0  0
    9.0197   -1.2426   -2.2289 H   0  0  0  0  0  0  0  0  0  0  0  0
    9.2423   -3.2084   -3.7725 H   0  0  0  0  0  0  0  0  0  0  0  0
    9.2384   -4.2992   -2.3822 H   0  0  0  0  0  0  0  0  0  0  0  0
   11.2827   -3.1656   -1.4873 H   0  0  0  0  0  0  0  0  0  0  0  0
   11.2847   -2.0726   -2.8729 H   0  0  0  0  0  0  0  0  0  0  0  0
   11.5163   -4.0307   -4.4180 H   0  0  0  0  0  0  0  0  0  0  0  0
   11.5180   -5.1246   -3.0300 H   0  0  0  0  0  0  0  0  0  0  0  0
   13.5432   -3.9829   -2.1207 H   0  0  0  0  0  0  0  0  0  0  0  0
   13.5466   -2.8768   -3.5091 H   0  0  0  0  0  0  0  0  0  0  0  0
   13.7713   -4.8021   -4.9476 H   0  0  0  0  0  0  0  0  0  0  0  0
   15.7273   -4.7696   -2.7397 H   0  0  0  0  0  0  0  0  0  0  0  0
   15.7323   -3.6643   -4.1294 H   0  0  0  0  0  0  0  0  0  0  0  0
   15.9327   -5.6254   -5.6745 H   0  0  0  0  0  0  0  0  0  0  0  0
   15.9306   -6.7188   -4.2853 H   0  0  0  0  0  0  0  0  0  0  0  0
   17.9745   -5.5807   -3.3901 H   0  0  0  0  0  0  0  0  0  0  0  0
   17.9749   -4.4888   -4.7771 H   0  0  0  0  0  0  0  0  0  0  0  0
   18.2018   -6.4464   -6.3192 H   0  0  0  0  0  0  0  0  0  0  0  0
   18.2016   -7.5392   -4.9320 H   0  0  0  0  0  0  0  0  0  0  0  0
   20.2419   -6.3971   -4.0326 H   0  0  0  0  0  0  0  0  0  0  0  0
   20.2419   -5.3046   -5.4198 H   0  0  0  0  0  0  0  0  0  0  0  0
   20.4693   -7.2636   -6.9625 H   0  0  0  0  0  0  0  0  0  0  0  0
   20.4690   -8.3559   -5.5761 H   0  0  0  0  0  0  0  0  0  0  0  0
   22.5249   -7.2295   -4.6876 H   0  0  0  0  0  0  0  0  0  0  0  0
   22.5253   -6.1366   -6.0744 H   0  0  0  0  0  0  0  0  0  0  0  0
   22.7694   -9.1876   -6.2253 H   0  0  0  0  0  0  0  0  0  0  0  0
   24.0907   -8.0229   -6.4365 H   0  0  0  0  0  0  0  0  0  0  0  0
   22.7698   -8.0895   -7.6187 H   0  0  0  0  0  0  0  0  0  0  0  0
  1  2  2  0  0  0  0
  1 22  1  0  0  0  0
  1 23  1  0  0  0  0
  2  3  1  0  0  0  0
  2 24  1  0  0  0  0
  3  4  1  0  0  0  0
  3 25  1  0  0  0  0
  3 26  1  0  0  0  0
  4  5  1  0  0  0  0
  4 27  1  0  0  0  0
  5  6  1  0  0  0  0
  5 28  1  0  0  0  0
  6  7  1  0  0  0  0
  6 29  1  0  0  0  0
  7  8  1  0  0  0  0
  7 30  1  0  0  0  0
  8  9  1  0  0  0  0
  8 31  1  0  0  0  0
  8 32  1  0  0  0  0
  9 10  1  0  0  0  0
  9 33  1  0  0  0  0
  9 34  1  0  0  0  0
 10 11  1  0  0  0  0
 10 35  1  0  0  0  0
 10 36  1  0  0  0  0
 11 12  1  0  0  0  0
 11 37  1  0  0  0  0
 11 38  1  0  0  0  0
 12 13  1  0  0  0  0
 12 39  1  0  0  0  0
 12 40  1  0  0  0  0
 13 14  1  0  0  0  0
 13 41  1  0  0  0  0
 14 15  1  0  0  0  0
 14 42  1  0  0  0  0
 14 43  1  0  0  0  0
 15 16  1  0  0  0  0
 15 44  1  0  0  0  0
 15 45  1  0  0  0  0
 16 17  1  0  0  0  0
 16 46  1  0  0  0  0
 16 47  1  0  0  0  0
 17 18  1  0  0  0  0
 17 48  1  0  0  0  0
 17 49  1  0  0  0  0
 18 19  1  0  0  0  0
 18 50  1  0  0  0  0
 18 51  1  0  0  0  0
 19 20  1  0  0  0  0
 19 52  1  0  0  0  0
 19 53  1  0  0  0  0
 20 21  1  0  0  0  0
 20 54  1  0  0  0  0
 20 55  1  0  0  0  0
 21 56  1  0  0  0  0
 21 57  1  0  0  0  0
 21 58  1  0  0  0  0
M  END
$$$$
