
 OpenBabel04232216503D

 75 76  0  0  1  0  0  0  0  0999 V2000
    0.8442    0.0534    0.4250 C   0  0  0  0  0  0  0  0  0  0  0  0
    2.3646   -0.1731    0.5623 C   0  0  3  0  0  0  0  0  0  0  0  0
    2.7376   -1.4834   -0.2027 C   0  0  0  0  0  0  0  0  0  0  0  0
    3.4973   -2.4801    0.6728 C   0  0  0  0  0  0  0  0  0  0  0  0
    4.9194   -2.7521    0.1695 C   0  0  0  0  0  0  0  0  0  0  0  0
    5.6376   -3.7697    1.0672 C   0  0  0  0  0  0  0  0  0  0  0  0
    7.1627   -3.6784    0.9815 C   0  0  0  0  0  0  0  0  0  0  0  0
    7.7252   -2.8272    2.1296 C   0  0  0  0  0  0  0  0  0  0  0  0
    9.2310   -2.5309    1.9927 C   0  0  0  0  0  0  0  0  0  0  0  0
    9.5566   -1.0798    2.4169 C   0  0  0  0  0  0  0  0  0  0  0  0
    9.1666   -0.1674    1.2468 C   0  0  0  0  0  0  0  0  0  0  0  0
    8.8285    1.2939    1.5429 C   0  0  0  0  0  0  0  0  0  0  0  0
    8.2795    2.0290    0.2875 C   0  0  0  0  0  0  0  0  0  0  0  0
    7.0400    1.4061   -0.4498 C   0  0  0  0  0  0  0  0  0  0  0  0
    6.7911    0.2070   -0.4507 O   0  0  0  0  0  0  0  0  0  0  0  0
    6.1669    2.2826   -1.1198 N   0  0  0  0  0  0  0  0  0  0  0  0
    5.6292    3.2911   -0.2131 C   0  0  0  0  0  0  0  0  0  0  0  0
    4.1731    3.3402   -0.0683 N   0  0  3  0  0  0  0  0  0  0  0  0
    3.4696    3.8942   -1.2136 C   0  0  0  0  0  0  0  0  0  0  0  0
    3.3871    2.9643   -2.3828 C   0  0  0  0  0  0  0  0  0  0  0  0
    3.8718    1.8200   -2.3867 O   0  0  0  0  0  0  0  0  0  0  0  0
    2.6935    3.4252   -3.6155 C   0  0  0  0  0  0  0  0  0  0  0  0
    2.5411    2.2286   -4.5488 C   0  0  0  0  0  0  0  0  0  0  0  0
    3.8439    1.9301   -5.3151 C   0  0  0  0  0  0  0  0  0  0  0  0
    4.9988    1.1594   -4.5914 C   0  0  0  0  0  0  0  0  0  0  0  0
    6.2445    1.8210   -3.8788 C   0  0  0  0  0  0  0  0  0  0  0  0
    6.4590    2.6819   -2.5464 C   0  0  0  0  0  0  0  0  0  0  0  0
    3.4983    2.2571    0.6925 C   0  0  0  0  0  0  0  0  0  0  0  0
    3.1333    0.9885   -0.0837 C   0  0  0  0  0  0  0  0  0  0  0  0
    0.2880   -0.7921    0.8499 H   0  0  0  0  0  0  0  0  0  0  0  0
    0.5493    0.1381   -0.6273 H   0  0  0  0  0  0  0  0  0  0  0  0
    0.5214    0.9648    0.9366 H   0  0  0  0  0  0  0  0  0  0  0  0
    2.6117   -0.2355    1.6264 H   0  0  0  0  0  0  0  0  0  0  0  0
    3.2875   -1.2636   -1.1125 H   0  0  0  0  0  0  0  0  0  0  0  0
    1.8215   -1.9757   -0.5584 H   0  0  0  0  0  0  0  0  0  0  0  0
    2.9418   -3.4368    0.6871 H   0  0  0  0  0  0  0  0  0  0  0  0
    3.5464   -2.1408    1.7037 H   0  0  0  0  0  0  0  0  0  0  0  0
    5.4719   -1.8049    0.1496 H   0  0  0  0  0  0  0  0  0  0  0  0
    4.8923   -3.1308   -0.8559 H   0  0  0  0  0  0  0  0  0  0  0  0
    5.3130   -4.7738    0.7629 H   0  0  0  0  0  0  0  0  0  0  0  0
    5.3140   -3.6474    2.1110 H   0  0  0  0  0  0  0  0  0  0  0  0
    7.4642   -3.2664    0.0114 H   0  0  0  0  0  0  0  0  0  0  0  0
    7.5916   -4.6854    1.0505 H   0  0  0  0  0  0  0  0  0  0  0  0
    7.5598   -3.3508    3.0804 H   0  0  0  0  0  0  0  0  0  0  0  0
    7.1471   -1.8977    2.1959 H   0  0  0  0  0  0  0  0  0  0  0  0
    9.5604   -2.6795    0.9565 H   0  0  0  0  0  0  0  0  0  0  0  0
    9.7984   -3.2414    2.6039 H   0  0  0  0  0  0  0  0  0  0  0  0
   10.6282   -0.9846    2.6215 H   0  0  0  0  0  0  0  0  0  0  0  0
    9.0217   -0.8291    3.3398 H   0  0  0  0  0  0  0  0  0  0  0  0
    8.2893   -0.6216    0.8055 H   0  0  0  0  0  0  0  0  0  0  0  0
    9.9524   -0.2079    0.4878 H   0  0  0  0  0  0  0  0  0  0  0  0
    9.7355    1.8037    1.8856 H   0  0  0  0  0  0  0  0  0  0  0  0
    8.1049    1.3596    2.3645 H   0  0  0  0  0  0  0  0  0  0  0  0
    9.0835    2.0880   -0.4571 H   0  0  0  0  0  0  0  0  0  0  0  0
    8.0764    3.0628    0.5877 H   0  0  0  0  0  0  0  0  0  0  0  0
    6.0303    4.2695   -0.5040 H   0  0  0  0  0  0  0  0  0  0  0  0
    6.0070    3.1286    0.8030 H   0  0  0  0  0  0  0  0  0  0  0  0
    3.9784    4.8099   -1.5557 H   0  0  0  0  0  0  0  0  0  0  0  0
    2.4547    4.1795   -0.9226 H   0  0  0  0  0  0  0  0  0  0  0  0
    3.2871    4.2214   -4.0858 H   0  0  0  0  0  0  0  0  0  0  0  0
    1.7152    3.8185   -3.3280 H   0  0  0  0  0  0  0  0  0  0  0  0
    1.7356    2.4516   -5.2594 H   0  0  0  0  0  0  0  0  0  0  0  0
    2.2073    1.3304   -4.0078 H   0  0  0  0  0  0  0  0  0  0  0  0
    4.2142    2.8379   -5.8018 H   0  0  0  0  0  0  0  0  0  0  0  0
    3.5120    1.2758   -6.1383 H   0  0  0  0  0  0  0  0  0  0  0  0
    4.5973    0.3239   -4.0085 H   0  0  0  0  0  0  0  0  0  0  0  0
    5.4732    0.6503   -5.4506 H   0  0  0  0  0  0  0  0  0  0  0  0
    6.6402    2.4896   -4.6613 H   0  0  0  0  0  0  0  0  0  0  0  0
    6.9757    1.0024   -3.8117 H   0  0  0  0  0  0  0  0  0  0  0  0
    6.0227    3.6700   -2.7158 H   0  0  0  0  0  0  0  0  0  0  0  0
    7.5461    2.8444   -2.5354 H   0  0  0  0  0  0  0  0  0  0  0  0
    2.5782    2.6871    1.1118 H   0  0  0  0  0  0  0  0  0  0  0  0
    4.1103    1.9878    1.5613 H   0  0  0  0  0  0  0  0  0  0  0  0
    4.0776    0.5855   -0.4622 H   0  0  0  0  0  0  0  0  0  0  0  0
    2.4796    1.2776   -0.9084 H   0  0  0  0  0  0  0  0  0  0  0  0
  1  2  1  0  0  0  0
  1 30  1  0  0  0  0
  1 31  1  0  0  0  0
  1 32  1  0  0  0  0
  2  3  1  0  0  0  0
  2 29  1  0  0  0  0
  2 33  1  0  0  0  0
  3  4  1  0  0  0  0
  3 34  1  0  0  0  0
  3 35  1  0  0  0  0
  4  5  1  0  0  0  0
  4 36  1  0  0  0  0
  4 37  1  0  0  0  0
  5  6  1  0  0  0  0
  5 38  1  0  0  0  0
  5 39  1  0  0  0  0
  6  7  1  0  0  0  0
  6 40  1  0  0  0  0
  6 41  1  0  0  0  0
  7  8  1  0  0  0  0
  7 42  1  0  0  0  0
  7 43  1  0  0  0  0
  8  9  1  0  0  0  0
  8 44  1  0  0  0  0
  8 45  1  0  0  0  0
  9 10  1  0  0  0  0
  9 46  1  0  0  0  0
  9 47  1  0  0  0  0
 10 11  1  0  0  0  0
 10 48  1  0  0  0  0
 10 49  1  0  0  0  0
 11 12  1  0  0  0  0
 11 50  1  0  0  0  0
 11 51  1  0  0  0  0
 12 13  1  0  0  0  0
 12 52  1  0  0  0  0
 12 53  1  0  0  0  0
 13 14  1  0  0  0  0
 13 54  1  0  0  0  0
 13 55  1  0  0  0  0
 14 15  2  0  0  0  0
 14 16  1  0  0  0  0
 16 17  1  0  0  0  0
 16 27  1  0  0  0  0
 17 18  1  0  0  0  0
 17 56  1  0  0  0  0
 17 57  1  0  0  0  0
 18 19  1  0  0  0  0
 18 28  1  0  0  0  0
 19 20  1  0  0  0  0
 19 58  1  0  0  0  0
 19 59  1  0  0  0  0
 20 21  2  0  0  0  0
 20 22  1  0  0  0  0
 22 23  1  0  0  0  0
 22 60  1  0  0  0  0
 22 61  1  0  0  0  0
 23 24  1  0  0  0  0
 23 62  1  0  0  0  0
 23 63  1  0  0  0  0
 24 25  1  0  0  0  0
 24 64  1  0  0  0  0
 24 65  1  0  0  0  0
 25 26  1  0  0  0  0
 25 66  1  0  0  0  0
 25 67  1  0  0  0  0
 26 27  1  0  0  0  0
 26 68  1  0  0  0  0
 26 69  1  0  0  0  0
 27 70  1  0  0  0  0
 27 71  1  0  0  0  0
 28 29  1  0  0  0  0
 28 72  1  0  0  0  0
 28 73  1  0  0  0  0
 29 74  1  0  0  0  0
 29 75  1  0  0  0  0
M  END
$$$$
