
 OpenBabel04232216593D

220220  0  0  0  0  0  0  0  0999 V2000
    1.2129    3.1539    2.9603 O   0  0  0  0  0  0  0  0  0  0  0  0
    1.9342    2.4652    2.3343 C   0  0  0  0  0  0  0  0  0  0  0  0
    2.0507    1.1242    1.8054 C   0  0  0  0  0  0  0  0  0  0  0  0
    3.0940    2.1374    1.5902 C   0  0  0  0  0  0  0  0  0  0  0  0
    3.8265    2.6605    0.6710 C   0  0  0  0  0  0  0  0  0  0  0  0
    4.8068    3.1047   -0.0890 C   0  0  0  0  0  0  0  0  0  0  0  0
    4.6864    4.1641   -1.1477 C   0  0  0  0  0  0  0  0  0  0  0  0
    5.5662    5.4003   -0.9159 C   0  0  0  0  0  0  0  0  0  0  0  0
    5.3686    6.4198   -2.0402 C   0  0  0  0  0  0  0  0  0  0  0  0
    6.2357    7.6504   -1.8134 C   0  0  0  0  0  0  0  0  0  0  0  0
    6.0306    8.6547   -2.9355 C   0  0  0  0  0  0  0  0  0  0  0  0
    6.8979    9.8793   -2.7034 C   0  0  0  0  0  0  0  0  0  0  0  0
    6.6930   10.8796   -3.8258 C   0  0  0  0  0  0  0  0  0  0  0  0
    7.5601   12.1021   -3.5925 C   0  0  0  0  0  0  0  0  0  0  0  0
    7.3548   13.1015   -4.7146 C   0  0  0  0  0  0  0  0  0  0  0  0
    8.2218   14.3237   -4.4811 C   0  0  0  0  0  0  0  0  0  0  0  0
    8.0165   15.3229   -5.6032 C   0  0  0  0  0  0  0  0  0  0  0  0
    8.8835   16.5450   -5.3697 C   0  0  0  0  0  0  0  0  0  0  0  0
    8.6766   17.5450   -6.4907 C   0  0  0  0  0  0  0  0  0  0  0  0
    9.5451   18.7662   -6.2582 C   0  0  0  0  0  0  0  0  0  0  0  0
    9.3383   19.7663   -7.3792 C   0  0  0  0  0  0  0  0  0  0  0  0
   10.2067   20.9875   -7.1467 C   0  0  0  0  0  0  0  0  0  0  0  0
    9.9999   21.9875   -8.2677 C   0  0  0  0  0  0  0  0  0  0  0  0
   10.8683   23.2087   -8.0352 C   0  0  0  0  0  0  0  0  0  0  0  0
   10.6615   24.2088   -9.1562 C   0  0  0  0  0  0  0  0  0  0  0  0
   11.5299   25.4299   -8.9237 C   0  0  0  0  0  0  0  0  0  0  0  0
   11.3231   26.4300  -10.0447 C   0  0  0  0  0  0  0  0  0  0  0  0
   12.1915   27.6512   -9.8122 C   0  0  0  0  0  0  0  0  0  0  0  0
   11.9847   28.6512  -10.9332 C   0  0  0  0  0  0  0  0  0  0  0  0
   12.8532   29.8724  -10.7007 C   0  0  0  0  0  0  0  0  0  0  0  0
   12.6464   30.8724  -11.8217 C   0  0  0  0  0  0  0  0  0  0  0  0
   13.5148   32.0936  -11.5892 C   0  0  0  0  0  0  0  0  0  0  0  0
   13.3095   33.0928  -12.7112 C   0  0  0  0  0  0  0  0  0  0  0  0
   14.1764   34.3149  -12.4777 C   0  0  0  0  0  0  0  0  0  0  0  0
   13.9696   35.3149  -13.5987 C   0  0  0  0  0  0  0  0  0  0  0  0
   14.8365   36.5370  -13.3652 C   0  0  0  0  0  0  0  0  0  0  0  0
   14.6297   37.5370  -14.4862 C   0  0  0  0  0  0  0  0  0  0  0  0
   15.4966   38.7591  -14.2526 C   0  0  0  0  0  0  0  0  0  0  0  0
   15.2898   39.7591  -15.3736 C   0  0  0  0  0  0  0  0  0  0  0  0
   16.1583   40.9803  -15.1411 C   0  0  0  0  0  0  0  0  0  0  0  0
   15.9500   41.9812  -16.2611 C   0  0  0  0  0  0  0  0  0  0  0  0
   16.8199   43.2015  -16.0296 C   0  0  0  0  0  0  0  0  0  0  0  0
   16.6101   44.2033  -17.1486 C   0  0  0  0  0  0  0  0  0  0  0  0
   17.4785   45.4245  -16.9160 C   0  0  0  0  0  0  0  0  0  0  0  0
   17.2672   46.4271  -18.0339 C   0  0  0  0  0  0  0  0  0  0  0  0
   18.1357   47.6483  -17.8014 C   0  0  0  0  0  0  0  0  0  0  0  0
   17.9244   48.6509  -18.9193 C   0  0  0  0  0  0  0  0  0  0  0  0
   18.7928   49.8721  -18.6867 C   0  0  0  0  0  0  0  0  0  0  0  0
   18.5800   50.8756  -19.8036 C   0  0  0  0  0  0  0  0  0  0  0  0
   19.4470   52.0976  -19.5700 C   0  0  0  0  0  0  0  0  0  0  0  0
   19.2357   53.1003  -20.6879 C   0  0  0  0  0  0  0  0  0  0  0  0
   20.1041   54.3215  -20.4553 C   0  0  0  0  0  0  0  0  0  0  0  0
   19.8913   55.3249  -21.5722 C   0  0  0  0  0  0  0  0  0  0  0  0
   20.7583   56.5470  -21.3386 C   0  0  0  0  0  0  0  0  0  0  0  0
   20.5440   57.5513  -22.4544 C   0  0  0  0  0  0  0  0  0  0  0  0
   21.4124   58.7725  -22.2218 C   0  0  0  0  0  0  0  0  0  0  0  0
   21.1996   59.7760  -23.3386 C   0  0  0  0  0  0  0  0  0  0  0  0
   22.0666   60.9981  -23.1051 C   0  0  0  0  0  0  0  0  0  0  0  0
   21.8523   62.0024  -24.2208 C   0  0  0  0  0  0  0  0  0  0  0  0
   22.7208   63.2236  -23.9883 C   0  0  0  0  0  0  0  0  0  0  0  0
   22.5065   64.2279  -25.1041 C   0  0  0  0  0  0  0  0  0  0  0  0
   23.3749   65.4491  -24.8716 C   0  0  0  0  0  0  0  0  0  0  0  0
   23.1592   66.4543  -25.9863 C   0  0  0  0  0  0  0  0  0  0  0  0
   24.0291   67.6747  -25.7548 C   0  0  0  0  0  0  0  0  0  0  0  0
   23.8148   68.6790  -26.8706 C   0  0  0  0  0  0  0  0  0  0  0  0
   24.6832   69.9002  -26.6381 C   0  0  0  0  0  0  0  0  0  0  0  0
   24.4675   70.9054  -27.7528 C   0  0  0  0  0  0  0  0  0  0  0  0
   25.3359   72.1266  -27.5203 C   0  0  0  0  0  0  0  0  0  0  0  0
   25.1217   73.1310  -28.6361 C   0  0  0  0  0  0  0  0  0  0  0  0
   25.9916   74.3515  -28.4047 C   0  0  0  0  0  0  0  0  0  0  0  0
   25.7774   75.3561  -29.5205 C   0  0  0  0  0  0  0  0  0  0  0  0
   26.6473   76.5771  -29.2897 C   0  0  0  0  0  0  0  0  0  0  0  0
   26.4315   77.5832  -30.4052 C   0  0  0  0  0  0  0  0  0  0  0  0
   27.3014   78.8057  -30.1756 C   0  0  0  0  0  0  0  0  0  0  0  0
   27.0909   79.8164  -31.2910 C   0  0  0  0  0  0  0  0  0  0  0  0
   27.9597   81.0346  -31.0596 C   0  0  0  0  0  0  0  0  0  0  0  0
    1.3025    0.8211    1.0847 H   0  0  0  0  0  0  0  0  0  0  0  0
    2.3495    0.3241    2.4721 H   0  0  0  0  0  0  0  0  0  0  0  0
    5.8153    2.7017    0.0562 H   0  0  0  0  0  0  0  0  0  0  0  0
    3.6432    4.4882   -1.2039 H   0  0  0  0  0  0  0  0  0  0  0  0
    4.9574    3.7255   -2.1156 H   0  0  0  0  0  0  0  0  0  0  0  0
    6.6262    5.1193   -0.8743 H   0  0  0  0  0  0  0  0  0  0  0  0
    5.3189    5.8756    0.0416 H   0  0  0  0  0  0  0  0  0  0  0  0
    4.3151    6.7221   -2.0921 H   0  0  0  0  0  0  0  0  0  0  0  0
    5.6250    5.9676   -3.0065 H   0  0  0  0  0  0  0  0  0  0  0  0
    7.2925    7.3605   -1.7682 H   0  0  0  0  0  0  0  0  0  0  0  0
    5.9819    8.1153   -0.8530 H   0  0  0  0  0  0  0  0  0  0  0  0
    4.9758    8.9521   -2.9840 H   0  0  0  0  0  0  0  0  0  0  0  0
    6.2864    8.1973   -3.8991 H   0  0  0  0  0  0  0  0  0  0  0  0
    7.9538    9.5857   -2.6551 H   0  0  0  0  0  0  0  0  0  0  0  0
    6.6423   10.3416   -1.7420 H   0  0  0  0  0  0  0  0  0  0  0  0
    5.6378   11.1750   -3.8748 H   0  0  0  0  0  0  0  0  0  0  0  0
    6.9493   10.4191   -4.7879 H   0  0  0  0  0  0  0  0  0  0  0  0
    8.6156   11.8075   -3.5439 H   0  0  0  0  0  0  0  0  0  0  0  0
    7.3040   12.5634   -2.6308 H   0  0  0  0  0  0  0  0  0  0  0  0
    6.2994   13.3965   -4.7634 H   0  0  0  0  0  0  0  0  0  0  0  0
    7.6110   12.6406   -5.6766 H   0  0  0  0  0  0  0  0  0  0  0  0
    9.2773   14.0289   -4.4324 H   0  0  0  0  0  0  0  0  0  0  0  0
    7.9657   14.7848   -3.5193 H   0  0  0  0  0  0  0  0  0  0  0  0
    6.9611   15.6178   -5.6520 H   0  0  0  0  0  0  0  0  0  0  0  0
    8.2726   14.8619   -6.5651 H   0  0  0  0  0  0  0  0  0  0  0  0
    9.9390   16.2503   -5.3224 H   0  0  0  0  0  0  0  0  0  0  0  0
    8.6284   17.0052   -4.4072 H   0  0  0  0  0  0  0  0  0  0  0  0
    7.6213   17.8408   -6.5371 H   0  0  0  0  0  0  0  0  0  0  0  0
    8.9304   17.0844   -7.4534 H   0  0  0  0  0  0  0  0  0  0  0  0
   10.6004   18.4705   -6.2118 H   0  0  0  0  0  0  0  0  0  0  0  0
    9.2913   19.2269   -5.2955 H   0  0  0  0  0  0  0  0  0  0  0  0
    8.2830   20.0621   -7.4256 H   0  0  0  0  0  0  0  0  0  0  0  0
    9.5920   19.3056   -8.3419 H   0  0  0  0  0  0  0  0  0  0  0  0
   11.2620   20.6917   -7.1003 H   0  0  0  0  0  0  0  0  0  0  0  0
    9.9530   21.4481   -6.1840 H   0  0  0  0  0  0  0  0  0  0  0  0
    8.9446   22.2833   -8.3141 H   0  0  0  0  0  0  0  0  0  0  0  0
   10.2536   21.5269   -9.2304 H   0  0  0  0  0  0  0  0  0  0  0  0
   11.9236   22.9129   -7.9888 H   0  0  0  0  0  0  0  0  0  0  0  0
   10.6146   23.6694   -7.0725 H   0  0  0  0  0  0  0  0  0  0  0  0
    9.6062   24.5045   -9.2026 H   0  0  0  0  0  0  0  0  0  0  0  0
   10.9152   23.7481  -10.1189 H   0  0  0  0  0  0  0  0  0  0  0  0
   12.5852   25.1342   -8.8773 H   0  0  0  0  0  0  0  0  0  0  0  0
   11.2762   25.8906   -7.9610 H   0  0  0  0  0  0  0  0  0  0  0  0
   10.2678   26.7258  -10.0911 H   0  0  0  0  0  0  0  0  0  0  0  0
   11.5768   25.9693  -11.0074 H   0  0  0  0  0  0  0  0  0  0  0  0
   13.2469   27.3554   -9.7658 H   0  0  0  0  0  0  0  0  0  0  0  0
   11.9378   28.1118   -8.8495 H   0  0  0  0  0  0  0  0  0  0  0  0
   10.9294   28.9470  -10.9796 H   0  0  0  0  0  0  0  0  0  0  0  0
   12.2385   28.1906  -11.8959 H   0  0  0  0  0  0  0  0  0  0  0  0
   13.9085   29.5766  -10.6543 H   0  0  0  0  0  0  0  0  0  0  0  0
   12.5994   30.3331   -9.7380 H   0  0  0  0  0  0  0  0  0  0  0  0
   11.5911   31.1682  -11.8681 H   0  0  0  0  0  0  0  0  0  0  0  0
   12.9001   30.4118  -12.7844 H   0  0  0  0  0  0  0  0  0  0  0  0
   14.5700   31.7977  -11.5414 H   0  0  0  0  0  0  0  0  0  0  0  0
   13.2601   32.5551  -10.6272 H   0  0  0  0  0  0  0  0  0  0  0  0
   12.2540   33.3877  -12.7600 H   0  0  0  0  0  0  0  0  0  0  0  0
   13.5656   32.6318  -13.6731 H   0  0  0  0  0  0  0  0  0  0  0  0
   15.2320   34.0202  -12.4304 H   0  0  0  0  0  0  0  0  0  0  0  0
   13.9213   34.7751  -11.5152 H   0  0  0  0  0  0  0  0  0  0  0  0
   12.9140   35.6096  -13.6460 H   0  0  0  0  0  0  0  0  0  0  0  0
   14.2247   34.8547  -14.5612 H   0  0  0  0  0  0  0  0  0  0  0  0
   15.8921   36.2423  -13.3179 H   0  0  0  0  0  0  0  0  0  0  0  0
   14.5814   36.9972  -12.4026 H   0  0  0  0  0  0  0  0  0  0  0  0
   13.5741   37.8317  -14.5335 H   0  0  0  0  0  0  0  0  0  0  0  0
   14.8848   37.0768  -15.4487 H   0  0  0  0  0  0  0  0  0  0  0  0
   16.5522   38.4644  -14.2053 H   0  0  0  0  0  0  0  0  0  0  0  0
   15.2415   39.2193  -13.2901 H   0  0  0  0  0  0  0  0  0  0  0  0
   14.2345   40.0549  -15.4200 H   0  0  0  0  0  0  0  0  0  0  0  0
   15.5436   39.2985  -16.3363 H   0  0  0  0  0  0  0  0  0  0  0  0
   17.2137   40.6847  -15.0962 H   0  0  0  0  0  0  0  0  0  0  0  0
   15.9055   41.4401  -14.1778 H   0  0  0  0  0  0  0  0  0  0  0  0
   14.8948   42.2779  -16.3051 H   0  0  0  0  0  0  0  0  0  0  0  0
   16.2013   41.5209  -17.2246 H   0  0  0  0  0  0  0  0  0  0  0  0
   17.8751   42.9050  -15.9871 H   0  0  0  0  0  0  0  0  0  0  0  0
   16.5695   43.6609  -15.0655 H   0  0  0  0  0  0  0  0  0  0  0  0
   15.5545   44.4987  -17.1920 H   0  0  0  0  0  0  0  0  0  0  0  0
   16.8618   43.7443  -18.1125 H   0  0  0  0  0  0  0  0  0  0  0  0
   18.5342   45.1293  -16.8740 H   0  0  0  0  0  0  0  0  0  0  0  0
   17.2278   45.8826  -15.9514 H   0  0  0  0  0  0  0  0  0  0  0  0
   16.2116   46.7223  -18.0760 H   0  0  0  0  0  0  0  0  0  0  0  0
   17.5180   45.9690  -18.9986 H   0  0  0  0  0  0  0  0  0  0  0  0
   19.1913   47.3531  -17.7593 H   0  0  0  0  0  0  0  0  0  0  0  0
   17.8849   48.1064  -16.8367 H   0  0  0  0  0  0  0  0  0  0  0  0
   16.8687   48.9461  -18.9613 H   0  0  0  0  0  0  0  0  0  0  0  0
   18.1751   48.1928  -19.8839 H   0  0  0  0  0  0  0  0  0  0  0  0
   19.8486   49.5771  -18.6461 H   0  0  0  0  0  0  0  0  0  0  0  0
   18.5431   50.3294  -17.7214 H   0  0  0  0  0  0  0  0  0  0  0  0
   17.5240   51.1695  -19.8451 H   0  0  0  0  0  0  0  0  0  0  0  0
   18.8311   50.4187  -20.7687 H   0  0  0  0  0  0  0  0  0  0  0  0
   20.5029   51.8035  -19.5270 H   0  0  0  0  0  0  0  0  0  0  0  0
   19.1948   52.5553  -18.6055 H   0  0  0  0  0  0  0  0  0  0  0  0
   18.1800   53.3955  -20.7299 H   0  0  0  0  0  0  0  0  0  0  0  0
   19.4864   52.6421  -21.6525 H   0  0  0  0  0  0  0  0  0  0  0  0
   21.1599   54.0265  -20.4147 H   0  0  0  0  0  0  0  0  0  0  0  0
   19.8544   54.7788  -19.4900 H   0  0  0  0  0  0  0  0  0  0  0  0
   18.8353   55.6189  -21.6137 H   0  0  0  0  0  0  0  0  0  0  0  0
   20.1424   54.8681  -22.5373 H   0  0  0  0  0  0  0  0  0  0  0  0
   21.8144   56.2533  -21.2985 H   0  0  0  0  0  0  0  0  0  0  0  0
   20.5082   57.0030  -20.3728 H   0  0  0  0  0  0  0  0  0  0  0  0
   19.4881   57.8462  -22.4935 H   0  0  0  0  0  0  0  0  0  0  0  0
   20.7927   57.0949  -23.4203 H   0  0  0  0  0  0  0  0  0  0  0  0
   22.4682   58.4775  -22.1812 H   0  0  0  0  0  0  0  0  0  0  0  0
   21.1627   59.2298  -21.2565 H   0  0  0  0  0  0  0  0  0  0  0  0
   20.1436   60.0699  -23.3802 H   0  0  0  0  0  0  0  0  0  0  0  0
   21.4508   59.3192  -24.3038 H   0  0  0  0  0  0  0  0  0  0  0  0
   23.1227   60.7043  -23.0650 H   0  0  0  0  0  0  0  0  0  0  0  0
   21.8165   61.4541  -22.1393 H   0  0  0  0  0  0  0  0  0  0  0  0
   20.7965   62.2972  -24.2600 H   0  0  0  0  0  0  0  0  0  0  0  0
   22.1011   61.5459  -25.1868 H   0  0  0  0  0  0  0  0  0  0  0  0
   23.7766   62.9288  -23.9492 H   0  0  0  0  0  0  0  0  0  0  0  0
   22.4720   63.6801  -23.0224 H   0  0  0  0  0  0  0  0  0  0  0  0
   21.4506   64.5227  -25.1432 H   0  0  0  0  0  0  0  0  0  0  0  0
   22.7552   63.7715  -26.0700 H   0  0  0  0  0  0  0  0  0  0  0  0
   24.4309   65.1545  -24.8338 H   0  0  0  0  0  0  0  0  0  0  0  0
   23.1272   65.9048  -23.9050 H   0  0  0  0  0  0  0  0  0  0  0  0
   22.1035   66.7500  -26.0231 H   0  0  0  0  0  0  0  0  0  0  0  0
   23.4055   65.9982  -26.9530 H   0  0  0  0  0  0  0  0  0  0  0  0
   25.0847   67.3788  -25.7166 H   0  0  0  0  0  0  0  0  0  0  0  0
   23.7817   68.1316  -24.7887 H   0  0  0  0  0  0  0  0  0  0  0  0
   22.7589   68.9738  -26.9097 H   0  0  0  0  0  0  0  0  0  0  0  0
   24.0635   68.2225  -27.8365 H   0  0  0  0  0  0  0  0  0  0  0  0
   25.7392   69.6056  -26.6003 H   0  0  0  0  0  0  0  0  0  0  0  0
   24.4355   70.3558  -25.6715 H   0  0  0  0  0  0  0  0  0  0  0  0
   23.4115   71.2000  -27.7905 H   0  0  0  0  0  0  0  0  0  0  0  0
   24.7152   70.4497  -28.7194 H   0  0  0  0  0  0  0  0  0  0  0  0
   26.3918   71.8318  -27.4811 H   0  0  0  0  0  0  0  0  0  0  0  0
   25.0872   72.5831  -26.5543 H   0  0  0  0  0  0  0  0  0  0  0  0
   24.0660   73.4268  -28.6743 H   0  0  0  0  0  0  0  0  0  0  0  0
   25.3690   72.6740  -29.6021 H   0  0  0  0  0  0  0  0  0  0  0  0
   27.0471   74.0554  -28.3664 H   0  0  0  0  0  0  0  0  0  0  0  0
   25.7442   74.8082  -27.4385 H   0  0  0  0  0  0  0  0  0  0  0  0
   24.7218   75.6516  -29.5586 H   0  0  0  0  0  0  0  0  0  0  0  0
   26.0247   74.8988  -30.4864 H   0  0  0  0  0  0  0  0  0  0  0  0
   27.7029   76.2808  -29.2525 H   0  0  0  0  0  0  0  0  0  0  0  0
   26.4009   77.0326  -28.3226 H   0  0  0  0  0  0  0  0  0  0  0  0
   25.3755   77.8776  -30.4412 H   0  0  0  0  0  0  0  0  0  0  0  0
   26.6776   77.1257  -31.3712 H   0  0  0  0  0  0  0  0  0  0  0  0
   28.3565   78.5073  -30.1354 H   0  0  0  0  0  0  0  0  0  0  0  0
   27.0540   79.2599  -29.2078 H   0  0  0  0  0  0  0  0  0  0  0  0
   26.0370   80.1155  -31.3295 H   0  0  0  0  0  0  0  0  0  0  0  0
   27.3400   79.3627  -32.2574 H   0  0  0  0  0  0  0  0  0  0  0  0
   27.7091   81.5089  -30.1053 H   0  0  0  0  0  0  0  0  0  0  0  0
   27.8102   81.7628  -31.8603 H   0  0  0  0  0  0  0  0  0  0  0  0
   29.0173   80.7531  -31.0370 H   0  0  0  0  0  0  0  0  0  0  0  0
  1  2  2  0  0  0  0
  2  3  1  0  0  0  0
  2  4  1  0  0  0  0
  3  4  1  0  0  0  0
  3 77  1  0  0  0  0
  3 78  1  0  0  0  0
  4  5  2  0  0  0  0
  5  6  2  0  0  0  0
  6  7  1  0  0  0  0
  6 79  1  0  0  0  0
  7  8  1  0  0  0  0
  7 80  1  0  0  0  0
  7 81  1  0  0  0  0
  8  9  1  0  0  0  0
  8 82  1  0  0  0  0
  8 83  1  0  0  0  0
  9 10  1  0  0  0  0
  9 84  1  0  0  0  0
  9 85  1  0  0  0  0
 10 11  1  0  0  0  0
 10 86  1  0  0  0  0
 10 87  1  0  0  0  0
 11 12  1  0  0  0  0
 11 88  1  0  0  0  0
 11 89  1  0  0  0  0
 12 13  1  0  0  0  0
 12 90  1  0  0  0  0
 12 91  1  0  0  0  0
 13 14  1  0  0  0  0
 13 92  1  0  0  0  0
 13 93  1  0  0  0  0
 14 15  1  0  0  0  0
 14 94  1  0  0  0  0
 14 95  1  0  0  0  0
 15 16  1  0  0  0  0
 15 96  1  0  0  0  0
 15 97  1  0  0  0  0
 16 17  1  0  0  0  0
 16 98  1  0  0  0  0
 16 99  1  0  0  0  0
 17 18  1  0  0  0  0
 17100  1  0  0  0  0
 17101  1  0  0  0  0
 18 19  1  0  0  0  0
 18102  1  0  0  0  0
 18103  1  0  0  0  0
 19 20  1  0  0  0  0
 19104  1  0  0  0  0
 19105  1  0  0  0  0
 20 21  1  0  0  0  0
 20106  1  0  0  0  0
 20107  1  0  0  0  0
 21 22  1  0  0  0  0
 21108  1  0  0  0  0
 21109  1  0  0  0  0
 22 23  1  0  0  0  0
 22110  1  0  0  0  0
 22111  1  0  0  0  0
 23 24  1  0  0  0  0
 23112  1  0  0  0  0
 23113  1  0  0  0  0
 24 25  1  0  0  0  0
 24114  1  0  0  0  0
 24115  1  0  0  0  0
 25 26  1  0  0  0  0
 25116  1  0  0  0  0
 25117  1  0  0  0  0
 26 27  1  0  0  0  0
 26118  1  0  0  0  0
 26119  1  0  0  0  0
 27 28  1  0  0  0  0
 27120  1  0  0  0  0
 27121  1  0  0  0  0
 28 29  1  0  0  0  0
 28122  1  0  0  0  0
 28123  1  0  0  0  0
 29 30  1  0  0  0  0
 29124  1  0  0  0  0
 29125  1  0  0  0  0
 30 31  1  0  0  0  0
 30126  1  0  0  0  0
 30127  1  0  0  0  0
 31 32  1  0  0  0  0
 31128  1  0  0  0  0
 31129  1  0  0  0  0
 32 33  1  0  0  0  0
 32130  1  0  0  0  0
 32131  1  0  0  0  0
 33 34  1  0  0  0  0
 33132  1  0  0  0  0
 33133  1  0  0  0  0
 34 35  1  0  0  0  0
 34134  1  0  0  0  0
 34135  1  0  0  0  0
 35 36  1  0  0  0  0
 35136  1  0  0  0  0
 35137  1  0  0  0  0
 36 37  1  0  0  0  0
 36138  1  0  0  0  0
 36139  1  0  0  0  0
 37 38  1  0  0  0  0
 37140  1  0  0  0  0
 37141  1  0  0  0  0
 38 39  1  0  0  0  0
 38142  1  0  0  0  0
 38143  1  0  0  0  0
 39 40  1  0  0  0  0
 39144  1  0  0  0  0
 39145  1  0  0  0  0
 40 41  1  0  0  0  0
 40146  1  0  0  0  0
 40147  1  0  0  0  0
 41 42  1  0  0  0  0
 41148  1  0  0  0  0
 41149  1  0  0  0  0
 42 43  1  0  0  0  0
 42150  1  0  0  0  0
 42151  1  0  0  0  0
 43 44  1  0  0  0  0
 43152  1  0  0  0  0
 43153  1  0  0  0  0
 44 45  1  0  0  0  0
 44154  1  0  0  0  0
 44155  1  0  0  0  0
 45 46  1  0  0  0  0
 45156  1  0  0  0  0
 45157  1  0  0  0  0
 46 47  1  0  0  0  0
 46158  1  0  0  0  0
 46159  1  0  0  0  0
 47 48  1  0  0  0  0
 47160  1  0  0  0  0
 47161  1  0  0  0  0
 48 49  1  0  0  0  0
 48162  1  0  0  0  0
 48163  1  0  0  0  0
 49 50  1  0  0  0  0
 49164  1  0  0  0  0
 49165  1  0  0  0  0
 50 51  1  0  0  0  0
 50166  1  0  0  0  0
 50167  1  0  0  0  0
 51 52  1  0  0  0  0
 51168  1  0  0  0  0
 51169  1  0  0  0  0
 52 53  1  0  0  0  0
 52170  1  0  0  0  0
 52171  1  0  0  0  0
 53 54  1  0  0  0  0
 53172  1  0  0  0  0
 53173  1  0  0  0  0
 54 55  1  0  0  0  0
 54174  1  0  0  0  0
 54175  1  0  0  0  0
 55 56  1  0  0  0  0
 55176  1  0  0  0  0
 55177  1  0  0  0  0
 56 57  1  0  0  0  0
 56178  1  0  0  0  0
 56179  1  0  0  0  0
 57 58  1  0  0  0  0
 57180  1  0  0  0  0
 57181  1  0  0  0  0
 58 59  1  0  0  0  0
 58182  1  0  0  0  0
 58183  1  0  0  0  0
 59 60  1  0  0  0  0
 59184  1  0  0  0  0
 59185  1  0  0  0  0
 60 61  1  0  0  0  0
 60186  1  0  0  0  0
 60187  1  0  0  0  0
 61 62  1  0  0  0  0
 61188  1  0  0  0  0
 61189  1  0  0  0  0
 62 63  1  0  0  0  0
 62190  1  0  0  0  0
 62191  1  0  0  0  0
 63 64  1  0  0  0  0
 63192  1  0  0  0  0
 63193  1  0  0  0  0
 64 65  1  0  0  0  0
 64194  1  0  0  0  0
 64195  1  0  0  0  0
 65 66  1  0  0  0  0
 65196  1  0  0  0  0
 65197  1  0  0  0  0
 66 67  1  0  0  0  0
 66198  1  0  0  0  0
 66199  1  0  0  0  0
 67 68  1  0  0  0  0
 67200  1  0  0  0  0
 67201  1  0  0  0  0
 68 69  1  0  0  0  0
 68202  1  0  0  0  0
 68203  1  0  0  0  0
 69 70  1  0  0  0  0
 69204  1  0  0  0  0
 69205  1  0  0  0  0
 70 71  1  0  0  0  0
 70206  1  0  0  0  0
 70207  1  0  0  0  0
 71 72  1  0  0  0  0
 71208  1  0  0  0  0
 71209  1  0  0  0  0
 72 73  1  0  0  0  0
 72210  1  0  0  0  0
 72211  1  0  0  0  0
 73 74  1  0  0  0  0
 73212  1  0  0  0  0
 73213  1  0  0  0  0
 74 75  1  0  0  0  0
 74214  1  0  0  0  0
 74215  1  0  0  0  0
 75 76  1  0  0  0  0
 75216  1  0  0  0  0
 75217  1  0  0  0  0
 76218  1  0  0  0  0
 76219  1  0  0  0  0
 76220  1  0  0  0  0
M  END
$$$$
