
 OpenBabel04232216493D

 65 66  0  0  1  0  0  0  0  0999 V2000
    7.1320    2.5501    3.6225 C   0  0  0  0  0  0  0  0  0  0  0  0
    8.3203    1.6976    4.9015 C   0  0  3  0  0  0  0  0  0  0  0  0
    6.4282    0.8153    4.4050 C   0  0  0  0  0  0  0  0  0  0  0  0
    5.7802    0.0823    2.7895 C   0  0  0  0  0  0  0  0  0  0  0  0
    5.7611   -1.2635    3.4137 C   0  0  0  0  0  0  0  0  0  0  0  0
    7.2257   -1.3410    3.2686 C   0  0  0  0  0  0  0  0  0  0  0  0
    7.5907   -1.3763    4.6603 C   0  0  0  0  0  0  0  0  0  0  0  0
    8.8014   -0.9144    4.8776 C   0  0  0  0  0  0  0  0  0  0  0  0
    9.1022   -0.7167    6.2733 C   0  0  0  0  0  0  0  0  0  0  0  0
   10.5928   -0.7585    6.1291 C   0  0  0  0  0  0  0  0  0  0  0  0
   11.1066   -0.8794    7.5220 C   0  0  0  0  0  0  0  0  0  0  0  0
   12.6513   -0.9155    7.4749 C   0  0  0  0  0  0  0  0  0  0  0  0
   13.1699   -0.9476    8.9786 C   0  0  0  0  0  0  0  0  0  0  0  0
   12.5591   -1.5738    9.8517 O   0  0  0  0  0  0  0  0  0  0  0  0
   13.9977    0.2539    9.4435 C   0  0  0  0  0  0  0  0  0  0  0  0
   12.4993    0.9509    8.9787 C   0  0  0  0  0  0  0  0  0  0  0  0
   11.6233    1.8539    7.5297 C   0  0  0  0  0  0  0  0  0  0  0  0
   13.1329    2.7654    8.3196 C   0  0  0  0  0  0  0  0  0  0  0  0
   12.8005    3.8159    8.6813 O   0  0  0  0  0  0  0  0  0  0  0  0
   14.9820    2.4235    9.4241 C   0  0  0  0  0  0  0  0  0  0  0  0
   16.0975    2.3782   11.1190 C   0  0  0  0  0  0  0  0  0  0  0  0
   17.8978    2.0179   11.9244 C   0  0  0  0  0  0  0  0  0  0  0  0
   18.2820    1.4289   13.6475 C   0  0  0  0  0  0  0  0  0  0  0  0
   18.8075    0.1688   12.9376 C   0  0  0  0  0  0  0  0  0  0  0  0
   17.0313   -0.2888   12.1238 C   0  0  0  0  0  0  0  0  0  0  0  0
   15.6600   -0.2223   10.5806 C   0  0  0  0  0  0  0  0  0  0  0  0
    9.8953    1.8085    6.4866 C   0  0  0  0  0  0  0  0  0  0  0  0
    6.0794    2.0606    3.0187 H   0  0  0  0  0  0  0  0  0  0  0  0
    7.3628    2.2660    2.5018 H   0  0  0  0  0  0  0  0  0  0  0  0
    6.1517    3.2098    3.8234 H   0  0  0  0  0  0  0  0  0  0  0  0
    8.8898    1.8525    4.1216 H   0  0  0  0  0  0  0  0  0  0  0  0
    5.2564    0.9033    4.3755 H   0  0  0  0  0  0  0  0  0  0  0  0
    5.8165    1.6612    4.9623 H   0  0  0  0  0  0  0  0  0  0  0  0
    6.3275    0.2364    1.7928 H   0  0  0  0  0  0  0  0  0  0  0  0
    4.7961   -0.3081    2.2473 H   0  0  0  0  0  0  0  0  0  0  0  0
    5.1564   -2.1349    3.1387 H   0  0  0  0  0  0  0  0  0  0  0  0
    5.2823   -1.0552    4.3967 H   0  0  0  0  0  0  0  0  0  0  0  0
    7.7097   -0.4100    2.8408 H   0  0  0  0  0  0  0  0  0  0  0  0
    7.5474   -2.0950    2.5716 H   0  0  0  0  0  0  0  0  0  0  0  0
    6.8993   -1.1415    5.4944 H   0  0  0  0  0  0  0  0  0  0  0  0
    9.4405   -0.6100    4.0474 H   0  0  0  0  0  0  0  0  0  0  0  0
    8.6942   -1.5208    6.8928 H   0  0  0  0  0  0  0  0  0  0  0  0
    8.5925    0.1613    6.7015 H   0  0  0  0  0  0  0  0  0  0  0  0
   11.0083    0.0665    5.5355 H   0  0  0  0  0  0  0  0  0  0  0  0
   10.9257   -1.6104    5.5213 H   0  0  0  0  0  0  0  0  0  0  0  0
   10.6716   -1.7474    8.0038 H   0  0  0  0  0  0  0  0  0  0  0  0
   10.6371   -0.0830    8.1309 H   0  0  0  0  0  0  0  0  0  0  0  0
   13.0230   -0.0091    6.9413 H   0  0  0  0  0  0  0  0  0  0  0  0
   13.0208   -1.7125    6.8451 H   0  0  0  0  0  0  0  0  0  0  0  0
   12.0310    1.4341    9.8194 H   0  0  0  0  0  0  0  0  0  0  0  0
   15.5720    3.2216    9.0153 H   0  0  0  0  0  0  0  0  0  0  0  0
   15.5188    1.5986    8.8859 H   0  0  0  0  0  0  0  0  0  0  0  0
   15.6198    1.6464   11.7883 H   0  0  0  0  0  0  0  0  0  0  0  0
   16.0031    3.2996   11.7137 H   0  0  0  0  0  0  0  0  0  0  0  0
   18.7075    2.7874   11.8756 H   0  0  0  0  0  0  0  0  0  0  0  0
   18.4508    1.2944   11.2585 H   0  0  0  0  0  0  0  0  0  0  0  0
   17.9942    0.7302   14.5028 H   0  0  0  0  0  0  0  0  0  0  0  0
   19.0213    2.0665   14.2299 H   0  0  0  0  0  0  0  0  0  0  0  0
   19.7860    0.7403   12.7000 H   0  0  0  0  0  0  0  0  0  0  0  0
   19.2911   -0.5755   13.6569 H   0  0  0  0  0  0  0  0  0  0  0  0
   16.5127    0.2106   12.9696 H   0  0  0  0  0  0  0  0  0  0  0  0
   17.2210   -1.3366   12.4403 H   0  0  0  0  0  0  0  0  0  0  0  0
   16.1310   -1.0788   10.0536 H   0  0  0  0  0  0  0  0  0  0  0  0
   16.3688    0.4835   10.1450 H   0  0  0  0  0  0  0  0  0  0  0  0
   10.3396    2.4903    5.5527 H   0  0  0  0  0  0  0  0  0  0  0  0
  1  2  1  0  0  0  0
  1 28  1  0  0  0  0
  1 29  1  0  0  0  0
  1 30  1  0  0  0  0
  2  3  1  0  0  0  0
  2 27  1  0  0  0  0
  2 31  1  0  0  0  0
  3  4  1  0  0  0  0
  3 32  1  0  0  0  0
  3 33  1  0  0  0  0
  4  5  1  0  0  0  0
  4 34  1  0  0  0  0
  4 35  1  0  0  0  0
  5  6  1  0  0  0  0
  5 36  1  0  0  0  0
  5 37  1  0  0  0  0
  6  7  1  0  0  0  0
  6 38  1  0  0  0  0
  6 39  1  0  0  0  0
  7  8  2  3  0  0  0
  7 40  1  0  0  0  0
  8  9  1  0  0  0  0
  8 41  1  0  0  0  0
  9 10  1  0  0  0  0
  9 42  1  0  0  0  0
  9 43  1  0  0  0  0
 10 11  1  0  0  0  0
 10 44  1  0  0  0  0
 10 45  1  0  0  0  0
 11 12  1  0  0  0  0
 11 46  1  0  0  0  0
 11 47  1  0  0  0  0
 12 13  1  0  0  0  0
 12 48  1  0  0  0  0
 12 49  1  0  0  0  0
 13 14  2  0  0  0  0
 13 15  1  0  0  0  0
 15 16  2  3  0  0  0
 15 26  1  0  0  0  0
 16 17  1  0  0  0  0
 16 50  1  0  0  0  0
 17 18  1  0  0  0  0
 17 27  2  3  0  0  0
 18 19  2  0  0  0  0
 18 20  1  0  0  0  0
 20 21  1  0  0  0  0
 20 51  1  0  0  0  0
 20 52  1  0  0  0  0
 21 22  1  0  0  0  0
 21 53  1  0  0  0  0
 21 54  1  0  0  0  0
 22 23  1  0  0  0  0
 22 55  1  0  0  0  0
 22 56  1  0  0  0  0
 23 24  1  0  0  0  0
 23 57  1  0  0  0  0
 23 58  1  0  0  0  0
 24 25  1  0  0  0  0
 24 59  1  0  0  0  0
 24 60  1  0  0  0  0
 25 26  1  0  0  0  0
 25 61  1  0  0  0  0
 25 62  1  0  0  0  0
 26 63  1  0  0  0  0
 26 64  1  0  0  0  0
 27 65  1  0  0  0  0
M  END
$$$$
