
 OpenBabel04232216513D

 26 26  0  0  1  0  0  0  0  0999 V2000
    7.3750    2.5191   -2.0315 C   0  0  0  0  0  0  0  0  0  0  0  0
    7.8741    3.2546   -0.7983 C   0  0  0  0  0  0  0  0  0  0  0  0
    7.5153    2.5509    0.5085 C   0  0  0  0  0  0  0  0  0  0  0  0
    6.0384    2.4770    0.7639 C   0  0  3  0  0  0  0  0  0  0  0  0
    5.5053    1.7664    1.9104 C   0  0  0  0  0  0  0  0  0  0  0  0
    6.3808    1.2626    3.0119 C   0  0  0  0  0  0  0  0  0  0  0  0
    5.6716    1.2398    4.3640 C   0  0  0  0  0  0  0  0  0  0  0  0
    4.5102    0.2590    4.4204 C   0  0  0  0  0  0  0  0  0  0  0  0
    3.9674    0.2396    5.7363 O   0  0  0  0  0  0  0  0  0  0  0  0
    5.3246    1.2150    0.7072 C   0  0  0  0  0  0  0  0  0  0  0  0
    7.7523    3.0073   -2.9351 H   0  0  0  0  0  0  0  0  0  0  0  0
    6.2823    2.5230   -2.0797 H   0  0  0  0  0  0  0  0  0  0  0  0
    7.7197    1.4802   -2.0363 H   0  0  0  0  0  0  0  0  0  0  0  0
    7.4754    4.2760   -0.7977 H   0  0  0  0  0  0  0  0  0  0  0  0
    8.9654    3.3375   -0.8560 H   0  0  0  0  0  0  0  0  0  0  0  0
    7.9784    3.1225    1.3212 H   0  0  0  0  0  0  0  0  0  0  0  0
    7.9725    1.5528    0.5224 H   0  0  0  0  0  0  0  0  0  0  0  0
    5.4972    3.3737    0.4836 H   0  0  0  0  0  0  0  0  0  0  0  0
    7.2566    1.9136    3.1218 H   0  0  0  0  0  0  0  0  0  0  0  0
    6.7600    0.2596    2.7760 H   0  0  0  0  0  0  0  0  0  0  0  0
    5.3171    2.2452    4.6265 H   0  0  0  0  0  0  0  0  0  0  0  0
    6.4019    0.9772    5.1407 H   0  0  0  0  0  0  0  0  0  0  0  0
    4.8327   -0.7556    4.1655 H   0  0  0  0  0  0  0  0  0  0  0  0
    3.7092    0.5499    3.7348 H   0  0  0  0  0  0  0  0  0  0  0  0
    4.6646   -0.0784    6.3348 H   0  0  0  0  0  0  0  0  0  0  0  0
    4.3880    1.2029    0.1600 H   0  0  0  0  0  0  0  0  0  0  0  0
  1  2  1  0  0  0  0
  1 11  1  0  0  0  0
  1 12  1  0  0  0  0
  1 13  1  0  0  0  0
  2  3  1  0  0  0  0
  2 14  1  0  0  0  0
  2 15  1  0  0  0  0
  3  4  1  0  0  0  0
  3 16  1  0  0  0  0
  3 17  1  0  0  0  0
  4  5  1  0  0  0  0
  4 10  1  0  0  0  0
  4 18  1  0  0  0  0
  5  6  1  0  0  0  0
  5 10  2  0  0  0  0
  6  7  1  0  0  0  0
  6 19  1  0  0  0  0
  6 20  1  0  0  0  0
  7  8  1  0  0  0  0
  7 21  1  0  0  0  0
  7 22  1  0  0  0  0
  8  9  1  0  0  0  0
  8 23  1  0  0  0  0
  8 24  1  0  0  0  0
  9 25  1  0  0  0  0
 10 26  1  0  0  0  0
M  END
$$$$
