
 OpenBabel04232216573D

 58 58  0  0  0  0  0  0  0  0999 V2000
    1.1137   -0.0918   -0.5982 C   0  0  0  0  0  0  0  0  0  0  0  0
    2.3905    0.2360   -1.1277 O   0  0  0  0  0  0  0  0  0  0  0  0
    2.9418    1.2551   -0.6161 C   0  0  0  0  0  0  0  0  0  0  0  0
    4.5790    1.3236   -0.6160 C   0  0  0  0  0  0  0  0  0  0  0  0
    5.2816    2.4112   -0.0751 C   0  0  0  0  0  0  0  0  0  0  0  0
    6.8016    2.4113   -0.0731 C   0  0  0  0  0  0  0  0  0  0  0  0
    7.3064    3.8346   -0.1709 C   0  0  0  0  0  0  0  0  0  0  0  0
    8.8242    3.8434   -0.1684 C   0  0  0  0  0  0  0  0  0  0  0  0
    9.3357    5.2681   -0.2654 C   0  0  0  0  0  0  0  0  0  0  0  0
   10.8526    5.2737   -0.2638 C   0  0  0  0  0  0  0  0  0  0  0  0
   11.3638    6.6986   -0.3587 C   0  0  0  0  0  0  0  0  0  0  0  0
   12.8808    6.7046   -0.3591 C   0  0  0  0  0  0  0  0  0  0  0  0
   13.3919    8.1303   -0.4521 C   0  0  0  0  0  0  0  0  0  0  0  0
   14.9094    8.1390   -0.4527 C   0  0  0  0  0  0  0  0  0  0  0  0
   15.4236    9.5669   -0.5456 C   0  0  0  0  0  0  0  0  0  0  0  0
   16.9427    9.5674   -0.5455 C   0  0  0  0  0  0  0  0  0  0  0  0
   17.4237   10.9390   -0.6353 N   0  0  0  0  0  0  0  0  0  0  0  0
   18.8866   10.9455   -0.6353 C   0  0  0  0  0  0  0  0  0  0  0  0
   19.4049   12.3729   -0.7287 C   0  0  0  0  0  0  0  0  0  0  0  0
   20.9283   12.3886   -0.7280 C   0  0  0  0  0  0  0  0  0  0  0  0
   21.3695   13.7391   -0.8156 O   0  0  0  0  0  0  0  0  0  0  0  0
   22.8211   13.6668   -0.8086 O   0  0  0  0  0  0  0  0  0  0  0  0
    2.4012    2.4109   -0.0790 C   0  0  0  0  0  0  0  0  0  0  0  0
    0.7470   -0.9906   -1.1062 H   0  0  0  0  0  0  0  0  0  0  0  0
    0.3860    0.7112   -0.7693 H   0  0  0  0  0  0  0  0  0  0  0  0
    1.2011   -0.3169    0.4628 H   0  0  0  0  0  0  0  0  0  0  0  0
    5.0696    0.4364   -1.0522 H   0  0  0  0  0  0  0  0  0  0  0  0
    7.1729    1.8104   -0.9125 H   0  0  0  0  0  0  0  0  0  0  0  0
    7.1619    1.9280    0.8424 H   0  0  0  0  0  0  0  0  0  0  0  0
    6.9279    4.4279    0.6711 H   0  0  0  0  0  0  0  0  0  0  0  0
    6.9321    4.3049   -1.0896 H   0  0  0  0  0  0  0  0  0  0  0  0
    9.2026    3.2541   -1.0129 H   0  0  0  0  0  0  0  0  0  0  0  0
    9.1983    3.3758    0.7506 H   0  0  0  0  0  0  0  0  0  0  0  0
    8.9600    5.8576    0.5798 H   0  0  0  0  0  0  0  0  0  0  0  0
    8.9624    5.7367   -1.1842 H   0  0  0  0  0  0  0  0  0  0  0  0
   11.2288    4.6855   -1.1098 H   0  0  0  0  0  0  0  0  0  0  0  0
   11.2266    4.8039    0.6542 H   0  0  0  0  0  0  0  0  0  0  0  0
   10.9886    7.2863    0.4881 H   0  0  0  0  0  0  0  0  0  0  0  0
   10.9887    7.1688   -1.2760 H   0  0  0  0  0  0  0  0  0  0  0  0
   13.2552    6.1176   -1.2067 H   0  0  0  0  0  0  0  0  0  0  0  0
   13.2552    6.2326    0.5575 H   0  0  0  0  0  0  0  0  0  0  0  0
   13.0160    8.7159    0.3956 H   0  0  0  0  0  0  0  0  0  0  0  0
   13.0160    8.6009   -1.3687 H   0  0  0  0  0  0  0  0  0  0  0  0
   15.2833    7.5506   -1.2998 H   0  0  0  0  0  0  0  0  0  0  0  0
   15.2832    7.6659    0.4638 H   0  0  0  0  0  0  0  0  0  0  0  0
   15.0440   10.1497    0.3030 H   0  0  0  0  0  0  0  0  0  0  0  0
   15.0450   10.0357   -1.4627 H   0  0  0  0  0  0  0  0  0  0  0  0
   17.3057    8.9843   -1.4002 H   0  0  0  0  0  0  0  0  0  0  0  0
   17.3093    9.0946    0.3734 H   0  0  0  0  0  0  0  0  0  0  0  0
   17.0772   11.4797    0.1576 H   0  0  0  0  0  0  0  0  0  0  0  0
   19.2604   10.3676   -1.4894 H   0  0  0  0  0  0  0  0  0  0  0  0
   19.2637   10.4784    0.2826 H   0  0  0  0  0  0  0  0  0  0  0  0
   19.0321   12.9719    0.1119 H   0  0  0  0  0  0  0  0  0  0  0  0
   19.0334   12.8562   -1.6412 H   0  0  0  0  0  0  0  0  0  0  0  0
   21.3125   11.8224   -1.5839 H   0  0  0  0  0  0  0  0  0  0  0  0
   21.3086   11.9415    0.1975 H   0  0  0  0  0  0  0  0  0  0  0  0
   22.9701   14.6265   -0.8764 H   0  0  0  0  0  0  0  0  0  0  0  0
    1.8788    3.2472    0.3023 H   0  0  0  0  0  0  0  0  0  0  0  0
  1  2  1  0  0  0  0
  1 24  1  0  0  0  0
  1 25  1  0  0  0  0
  1 26  1  0  0  0  0
  2  3  1  0  0  0  0
  3  4  1  0  0  0  0
  3 23  2  0  0  0  0
  4  5  2  0  0  0  0
  4 27  1  0  0  0  0
  5  6  1  0  0  0  0
  5 23  1  0  0  0  0
  6  7  1  0  0  0  0
  6 28  1  0  0  0  0
  6 29  1  0  0  0  0
  7  8  1  0  0  0  0
  7 30  1  0  0  0  0
  7 31  1  0  0  0  0
  8  9  1  0  0  0  0
  8 32  1  0  0  0  0
  8 33  1  0  0  0  0
  9 10  1  0  0  0  0
  9 34  1  0  0  0  0
  9 35  1  0  0  0  0
 10 11  1  0  0  0  0
 10 36  1  0  0  0  0
 10 37  1  0  0  0  0
 11 12  1  0  0  0  0
 11 38  1  0  0  0  0
 11 39  1  0  0  0  0
 12 13  1  0  0  0  0
 12 40  1  0  0  0  0
 12 41  1  0  0  0  0
 13 14  1  0  0  0  0
 13 42  1  0  0  0  0
 13 43  1  0  0  0  0
 14 15  1  0  0  0  0
 14 44  1  0  0  0  0
 14 45  1  0  0  0  0
 15 16  1  0  0  0  0
 15 46  1  0  0  0  0
 15 47  1  0  0  0  0
 16 17  1  0  0  0  0
 16 48  1  0  0  0  0
 16 49  1  0  0  0  0
 17 18  1  0  0  0  0
 17 50  1  0  0  0  0
 18 19  1  0  0  0  0
 18 51  1  0  0  0  0
 18 52  1  0  0  0  0
 19 20  1  0  0  0  0
 19 53  1  0  0  0  0
 19 54  1  0  0  0  0
 20 21  1  0  0  0  0
 20 55  1  0  0  0  0
 20 56  1  0  0  0  0
 21 22  1  0  0  0  0
 22 57  1  0  0  0  0
 23 58  1  0  0  0  0
M  END
$$$$
