
 OpenBabel04232216583D

 55 54  0  0  0  0  0  0  0  0999 V2000
    6.6061    2.3479    7.7702 N   0  0  0  0  0  0  0  0  0  0  0  0
    8.0072    2.1323    7.8448 N   0  0  0  0  0  0  0  0  0  0  0  0
    8.3416    1.1338    8.7953 N   0  0  0  0  0  0  0  0  0  0  0  0
    8.0644   -0.2043    8.3815 N   0  0  0  0  0  0  0  0  0  0  0  0
    8.5869   -0.4760    7.0780 N   0  0  0  0  0  0  0  0  0  0  0  0
   10.0219   -0.5127    7.1057 N   0  0  0  0  0  0  0  0  0  0  0  0
   10.4824   -1.5145    8.0301 N   0  0  0  0  0  0  0  0  0  0  0  0
   10.0087   -2.8150    7.6333 N   0  0  0  0  0  0  0  0  0  0  0  0
   10.5207   -3.1541    6.3327 N   0  0  0  0  0  0  0  0  0  0  0  0
   11.9592   -3.1561    6.3549 N   0  0  0  0  0  0  0  0  0  0  0  0
   12.4364   -4.1169    7.3151 N   0  0  0  0  0  0  0  0  0  0  0  0
   11.9735   -5.4343    6.9698 N   0  0  0  0  0  0  0  0  0  0  0  0
   12.4155   -5.7881    5.6477 N   0  0  0  0  0  0  0  0  0  0  0  0
   13.8510   -5.8042    5.6256 N   0  0  0  0  0  0  0  0  0  0  0  0
   14.3194   -6.7438    6.6148 N   0  0  0  0  0  0  0  0  0  0  0  0
   13.8670   -8.0711    6.2787 N   0  0  0  0  0  0  0  0  0  0  0  0
   14.3137   -8.4269    4.9540 N   0  0  0  0  0  0  0  0  0  0  0  0
   15.7544   -8.4036    4.8959 N   0  0  0  0  0  0  0  0  0  0  0  0
   16.3014   -9.3354    5.8460 N   0  0  0  0  0  0  0  0  0  0  0  0
   15.8153  -10.6626    5.5621 N   0  0  0  0  0  0  0  0  0  0  0  0
   16.3075  -11.1338    4.2922 N   0  0  0  0  0  0  0  0  0  0  0  0
   17.7536  -11.0830    4.2709 N   0  0  0  0  0  0  0  0  0  0  0  0
   18.2801  -12.0501    5.2364 C   0  0  0  0  0  0  0  0  0  0  0  0
   19.8043  -11.9702    5.2498 C   0  0  0  0  0  0  0  0  0  0  0  0
   20.3565  -12.9141    6.3032 C   0  0  0  0  0  0  0  0  0  0  0  0
    6.3654    3.0341    7.0530 H   0  0  0  0  0  0  0  0  0  0  0  0
    6.2096    2.6767    8.6493 H   0  0  0  0  0  0  0  0  0  0  0  0
    8.5368    2.9952    8.0321 H   0  0  0  0  0  0  0  0  0  0  0  0
    7.9794    1.3230    9.7320 H   0  0  0  0  0  0  0  0  0  0  0  0
    7.0695   -0.4492    8.4192 H   0  0  0  0  0  0  0  0  0  0  0  0
    8.2723    0.2800    6.4549 H   0  0  0  0  0  0  0  0  0  0  0  0
   10.3544    0.4075    7.4172 H   0  0  0  0  0  0  0  0  0  0  0  0
   10.0840   -1.2869    8.9496 H   0  0  0  0  0  0  0  0  0  0  0  0
    8.9835   -2.7602    7.5778 H   0  0  0  0  0  0  0  0  0  0  0  0
   10.2025   -2.4231    5.6835 H   0  0  0  0  0  0  0  0  0  0  0  0
   12.2550   -2.2183    6.6569 H   0  0  0  0  0  0  0  0  0  0  0  0
   12.0298   -3.8565    8.2236 H   0  0  0  0  0  0  0  0  0  0  0  0
   10.9528   -5.4017    6.9633 H   0  0  0  0  0  0  0  0  0  0  0  0
   12.0802   -5.0493    5.0119 H   0  0  0  0  0  0  0  0  0  0  0  0
   14.1402   -4.8662    5.9247 H   0  0  0  0  0  0  0  0  0  0  0  0
   13.8525   -6.4607    7.4904 H   0  0  0  0  0  0  0  0  0  0  0  0
   12.8392   -8.0372    6.2715 H   0  0  0  0  0  0  0  0  0  0  0  0
   13.9545   -7.7021    4.3184 H   0  0  0  0  0  0  0  0  0  0  0  0
   16.0461   -7.4592    5.1618 H   0  0  0  0  0  0  0  0  0  0  0  0
   15.9484   -9.0580    6.7695 H   0  0  0  0  0  0  0  0  0  0  0  0
   14.7912  -10.5877    5.5168 H   0  0  0  0  0  0  0  0  0  0  0  0
   15.9476  -10.4728    3.5891 H   0  0  0  0  0  0  0  0  0  0  0  0
   18.0004  -10.1440    4.6031 H   0  0  0  0  0  0  0  0  0  0  0  0
   17.9578  -13.0629    4.9705 H   0  0  0  0  0  0  0  0  0  0  0  0
   17.9192  -11.8382    6.2515 H   0  0  0  0  0  0  0  0  0  0  0  0
   20.1275  -10.9458    5.4806 H   0  0  0  0  0  0  0  0  0  0  0  0
   20.2029  -12.2295    4.2664 H   0  0  0  0  0  0  0  0  0  0  0  0
   20.0112  -12.6294    7.3010 H   0  0  0  0  0  0  0  0  0  0  0  0
   21.4535  -12.8910    6.2992 H   0  0  0  0  0  0  0  0  0  0  0  0
   20.0323  -13.9431    6.1107 H   0  0  0  0  0  0  0  0  0  0  0  0
  1  2  1  0  0  0  0
  1 26  1  0  0  0  0
  1 27  1  0  0  0  0
  2  3  1  0  0  0  0
  2 28  1  0  0  0  0
  3  4  1  0  0  0  0
  3 29  1  0  0  0  0
  4  5  1  0  0  0  0
  4 30  1  0  0  0  0
  5  6  1  0  0  0  0
  5 31  1  0  0  0  0
  6  7  1  0  0  0  0
  6 32  1  0  0  0  0
  7  8  1  0  0  0  0
  7 33  1  0  0  0  0
  8  9  1  0  0  0  0
  8 34  1  0  0  0  0
  9 10  1  0  0  0  0
  9 35  1  0  0  0  0
 10 11  1  0  0  0  0
 10 36  1  0  0  0  0
 11 12  1  0  0  0  0
 11 37  1  0  0  0  0
 12 13  1  0  0  0  0
 12 38  1  0  0  0  0
 13 14  1  0  0  0  0
 13 39  1  0  0  0  0
 14 15  1  0  0  0  0
 14 40  1  0  0  0  0
 15 16  1  0  0  0  0
 15 41  1  0  0  0  0
 16 17  1  0  0  0  0
 16 42  1  0  0  0  0
 17 18  1  0  0  0  0
 17 43  1  0  0  0  0
 18 19  1  0  0  0  0
 18 44  1  0  0  0  0
 19 20  1  0  0  0  0
 19 45  1  0  0  0  0
 20 21  1  0  0  0  0
 20 46  1  0  0  0  0
 21 22  1  0  0  0  0
 21 47  1  0  0  0  0
 22 23  1  0  0  0  0
 22 48  1  0  0  0  0
 23 24  1  0  0  0  0
 23 49  1  0  0  0  0
 23 50  1  0  0  0  0
 24 25  1  0  0  0  0
 24 51  1  0  0  0  0
 24 52  1  0  0  0  0
 25 53  1  0  0  0  0
 25 54  1  0  0  0  0
 25 55  1  0  0  0  0
M  END
$$$$
