
 OpenBabel04232216493D

 74 75  0  0  1  0  0  0  0  0999 V2000
    4.9028    6.8401    8.2855 C   0  0  0  0  0  0  0  0  0  0  0  0
    4.8592    5.3099    8.1709 C   0  0  3  0  0  0  0  0  0  0  0  0
    5.4125    4.6736    9.4557 C   0  0  0  0  0  0  0  0  0  0  0  0
    5.6325    3.1545    9.4557 C   0  0  0  0  0  0  0  0  0  0  0  0
    6.3189    2.5814    8.2078 C   0  0  0  0  0  0  0  0  0  0  0  0
    5.3779    1.9278    7.1823 C   0  0  0  0  0  0  0  0  0  0  0  0
    4.3969    2.8654    6.5223 C   0  0  0  0  0  0  0  0  0  0  0  0
    4.5422    3.2316    5.2308 C   0  0  0  0  0  0  0  0  0  0  0  0
    3.6749    4.2651    4.5842 C   0  0  0  0  0  0  0  0  0  0  0  0
    3.4307    4.1519    3.0911 C   0  0  0  0  0  0  0  0  0  0  0  0
    2.4863    5.2292    2.5626 C   0  0  0  0  0  0  0  0  0  0  0  0
    2.2355    5.3044    1.3581 O   0  0  0  0  0  0  0  0  0  0  0  0
    1.9398    6.0911    3.4934 N   0  0  0  0  0  0  0  0  0  0  0  0
    0.9809    7.1423    3.1706 C   0  0  3  0  0  0  0  0  0  0  0  0
    1.5872    8.1753    2.1807 C   0  0  0  0  0  0  0  0  0  0  0  0
    1.7756    9.5099    2.7978 N   0  0  0  0  0  0  0  0  0  0  0  0
    0.5606   10.3248    2.7139 C   0  0  0  0  0  0  0  0  0  0  0  0
    0.0930   10.7486    4.1113 C   0  0  0  0  0  0  0  0  0  0  0  0
   -1.3960   11.1262    4.0950 C   0  0  0  0  0  0  0  0  0  0  0  0
   -2.1171   10.8153    5.4200 C   0  0  0  0  0  0  0  0  0  0  0  0
   -3.4650   10.0996    5.2074 C   0  0  0  0  0  0  0  0  0  0  0  0
   -3.3970    8.5699    5.3456 C   0  0  0  0  0  0  0  0  0  0  0  0
   -2.3834    7.9385    4.3964 C   0  0  0  0  0  0  0  0  0  0  0  0
   -2.3844    6.4122    4.4092 C   0  0  0  0  0  0  0  0  0  0  0  0
   -1.0623    5.7955    3.9184 C   0  0  0  0  0  0  0  0  0  0  0  0
   -0.3687    6.5259    2.7394 C   0  0  0  0  0  0  0  0  0  0  0  0
    3.2746    3.3863    7.4069 C   0  0  0  0  0  0  0  0  0  0  0  0
    3.4272    4.8526    7.8405 C   0  0  0  0  0  0  0  0  0  0  0  0
    5.9227    7.1823    8.4941 H   0  0  0  0  0  0  0  0  0  0  0  0
    4.2476    7.2068    9.0809 H   0  0  0  0  0  0  0  0  0  0  0  0
    4.5923    7.3053    7.3427 H   0  0  0  0  0  0  0  0  0  0  0  0
    5.5252    5.0716    7.3356 H   0  0  0  0  0  0  0  0  0  0  0  0
    4.7538    4.9248   10.2980 H   0  0  0  0  0  0  0  0  0  0  0  0
    6.3780    5.1440    9.6832 H   0  0  0  0  0  0  0  0  0  0  0  0
    4.6994    2.6261    9.6703 H   0  0  0  0  0  0  0  0  0  0  0  0
    6.2737    2.9358   10.3211 H   0  0  0  0  0  0  0  0  0  0  0  0
    7.0080    1.7973    8.5437 H   0  0  0  0  0  0  0  0  0  0  0  0
    6.9465    3.3416    7.7270 H   0  0  0  0  0  0  0  0  0  0  0  0
    4.8255    1.1054    7.6546 H   0  0  0  0  0  0  0  0  0  0  0  0
    6.0072    1.4552    6.4146 H   0  0  0  0  0  0  0  0  0  0  0  0
    5.3828    2.8574    4.6441 H   0  0  0  0  0  0  0  0  0  0  0  0
    4.1194    5.2427    4.7970 H   0  0  0  0  0  0  0  0  0  0  0  0
    2.6868    4.2280    5.0627 H   0  0  0  0  0  0  0  0  0  0  0  0
    2.9881    3.1784    2.8491 H   0  0  0  0  0  0  0  0  0  0  0  0
    4.3773    4.2454    2.5482 H   0  0  0  0  0  0  0  0  0  0  0  0
    2.1612    6.0205    4.4716 H   0  0  0  0  0  0  0  0  0  0  0  0
    0.8147    7.6516    4.1292 H   0  0  0  0  0  0  0  0  0  0  0  0
    1.0066    8.2423    1.2543 H   0  0  0  0  0  0  0  0  0  0  0  0
    2.5911    7.8512    1.8828 H   0  0  0  0  0  0  0  0  0  0  0  0
    2.5245    9.9859    2.2935 H   0  0  0  0  0  0  0  0  0  0  0  0
   -0.2371    9.7884    2.1896 H   0  0  0  0  0  0  0  0  0  0  0  0
    0.7714   11.2206    2.1166 H   0  0  0  0  0  0  0  0  0  0  0  0
    0.6882   11.6006    4.4632 H   0  0  0  0  0  0  0  0  0  0  0  0
    0.2697    9.9338    4.8219 H   0  0  0  0  0  0  0  0  0  0  0  0
   -1.9007   10.6156    3.2685 H   0  0  0  0  0  0  0  0  0  0  0  0
   -1.4881   12.1986    3.8791 H   0  0  0  0  0  0  0  0  0  0  0  0
   -2.3044   11.7646    5.9309 H   0  0  0  0  0  0  0  0  0  0  0  0
   -1.4883   10.2255    6.0979 H   0  0  0  0  0  0  0  0  0  0  0  0
   -3.8925   10.3609    4.2310 H   0  0  0  0  0  0  0  0  0  0  0  0
   -4.1745   10.4659    5.9592 H   0  0  0  0  0  0  0  0  0  0  0  0
   -4.3932    8.1508    5.1574 H   0  0  0  0  0  0  0  0  0  0  0  0
   -3.1348    8.3116    6.3787 H   0  0  0  0  0  0  0  0  0  0  0  0
   -1.3866    8.2893    4.6694 H   0  0  0  0  0  0  0  0  0  0  0  0
   -2.5985    8.2816    3.3781 H   0  0  0  0  0  0  0  0  0  0  0  0
   -3.2086    6.0450    3.7861 H   0  0  0  0  0  0  0  0  0  0  0  0
   -2.5771    6.0381    5.4244 H   0  0  0  0  0  0  0  0  0  0  0  0
   -1.2587    4.7551    3.6293 H   0  0  0  0  0  0  0  0  0  0  0  0
   -0.3864    5.7329    4.7802 H   0  0  0  0  0  0  0  0  0  0  0  0
   -1.0140    7.2952    2.3113 H   0  0  0  0  0  0  0  0  0  0  0  0
   -0.2079    5.7970    1.9381 H   0  0  0  0  0  0  0  0  0  0  0  0
    3.1600    2.7456    8.2879 H   0  0  0  0  0  0  0  0  0  0  0  0
    2.3114    3.2659    6.8963 H   0  0  0  0  0  0  0  0  0  0  0  0
    2.7697    5.0339    8.7010 H   0  0  0  0  0  0  0  0  0  0  0  0
    3.0322    5.4916    7.0398 H   0  0  0  0  0  0  0  0  0  0  0  0
  1  2  1  0  0  0  0
  1 29  1  0  0  0  0
  1 30  1  0  0  0  0
  1 31  1  0  0  0  0
  2  3  1  0  0  0  0
  2 28  1  0  0  0  0
  2 32  1  0  0  0  0
  3  4  1  0  0  0  0
  3 33  1  0  0  0  0
  3 34  1  0  0  0  0
  4  5  1  0  0  0  0
  4 35  1  0  0  0  0
  4 36  1  0  0  0  0
  5  6  1  0  0  0  0
  5 37  1  0  0  0  0
  5 38  1  0  0  0  0
  6  7  1  0  0  0  0
  6 39  1  0  0  0  0
  6 40  1  0  0  0  0
  7  8  2  3  0  0  0
  7 27  1  0  0  0  0
  8  9  1  0  0  0  0
  8 41  1  0  0  0  0
  9 10  1  0  0  0  0
  9 42  1  0  0  0  0
  9 43  1  0  0  0  0
 10 11  1  0  0  0  0
 10 44  1  0  0  0  0
 10 45  1  0  0  0  0
 11 12  2  0  0  0  0
 11 13  1  0  0  0  0
 13 14  1  0  0  0  0
 13 46  1  0  0  0  0
 14 15  1  0  0  0  0
 14 26  1  0  0  0  0
 14 47  1  0  0  0  0
 15 16  1  0  0  0  0
 15 48  1  0  0  0  0
 15 49  1  0  0  0  0
 16 17  1  0  0  0  0
 16 50  1  0  0  0  0
 17 18  1  0  0  0  0
 17 51  1  0  0  0  0
 17 52  1  0  0  0  0
 18 19  1  0  0  0  0
 18 53  1  0  0  0  0
 18 54  1  0  0  0  0
 19 20  1  0  0  0  0
 19 55  1  0  0  0  0
 19 56  1  0  0  0  0
 20 21  1  0  0  0  0
 20 57  1  0  0  0  0
 20 58  1  0  0  0  0
 21 22  1  0  0  0  0
 21 59  1  0  0  0  0
 21 60  1  0  0  0  0
 22 23  1  0  0  0  0
 22 61  1  0  0  0  0
 22 62  1  0  0  0  0
 23 24  1  0  0  0  0
 23 63  1  0  0  0  0
 23 64  1  0  0  0  0
 24 25  1  0  0  0  0
 24 65  1  0  0  0  0
 24 66  1  0  0  0  0
 25 26  1  0  0  0  0
 25 67  1  0  0  0  0
 25 68  1  0  0  0  0
 26 69  1  0  0  0  0
 26 70  1  0  0  0  0
 27 28  1  0  0  0  0
 27 71  1  0  0  0  0
 27 72  1  0  0  0  0
 28 73  1  0  0  0  0
 28 74  1  0  0  0  0
M  END
$$$$
