
 OpenBabel04232216553D

 45 47  0  0  0  0  0  0  0  0999 V2000
    6.1008    4.1139   -3.4522 C   0  0  0  0  0  0  0  0  0  0  0  0
    5.7451    3.0639   -2.5367 N   0  0  0  0  0  0  0  0  0  0  0  0
    4.5275    2.3832   -2.4683 C   0  0  0  0  0  0  0  0  0  0  0  0
    3.3622    2.0574   -3.2826 C   0  0  0  0  0  0  0  0  0  0  0  0
    3.1140    2.4254   -4.5399 C   0  0  0  0  0  0  0  0  0  0  0  0
    1.9268    1.8659   -5.2603 C   0  0  0  0  0  0  0  0  0  0  0  0
    2.3898    1.0785   -6.4810 C   0  0  0  0  0  0  0  0  0  0  0  0
    1.1983    0.4281   -7.1724 C   0  0  0  0  0  0  0  0  0  0  0  0
    1.6332   -0.3229   -8.4252 C   0  0  0  0  0  0  0  0  0  0  0  0
    0.4356   -0.9487   -9.1171 C   0  0  0  0  0  0  0  0  0  0  0  0
    4.8188    1.9886   -1.2252 C   0  0  0  0  0  0  0  0  0  0  0  0
    4.2037    1.0909   -0.2926 C   0  0  0  0  0  0  0  0  0  0  0  0
    3.0411    1.0443    0.0928 O   0  0  0  0  0  0  0  0  0  0  0  0
    5.1393   -0.0158   -0.0364 C   0  0  0  0  0  0  0  0  0  0  0  0
    4.8205   -1.2831   -0.7712 C   0  0  0  0  0  0  0  0  0  0  0  0
    6.3058    0.2111    0.5845 C   0  0  0  0  0  0  0  0  0  0  0  0
    6.8662    1.4566    1.1532 C   0  0  0  0  0  0  0  0  0  0  0  0
    8.1093    1.2797    1.6764 C   0  0  0  0  0  0  0  0  0  0  0  0
    9.0955    1.3226    0.5745 C   0  0  0  0  0  0  0  0  0  0  0  0
    8.7107    2.0617   -0.4857 C   0  0  0  0  0  0  0  0  0  0  0  0
    7.1987    2.9286   -0.0325 S   0  0  3  0  0  0  0  0  0  0  0  0
    6.0968    2.6016   -1.3087 C   0  0  0  0  0  0  0  0  0  0  0  0
    6.9953    4.6355   -3.1106 H   0  0  0  0  0  0  0  0  0  0  0  0
    5.2700    4.8257   -3.5218 H   0  0  0  0  0  0  0  0  0  0  0  0
    6.2680    3.6764   -4.4408 H   0  0  0  0  0  0  0  0  0  0  0  0
    2.6423    1.4112   -2.7743 H   0  0  0  0  0  0  0  0  0  0  0  0
    3.7940    3.0744   -5.0798 H   0  0  0  0  0  0  0  0  0  0  0  0
    1.2562    2.6805   -5.5494 H   0  0  0  0  0  0  0  0  0  0  0  0
    1.3521    1.1976   -4.6039 H   0  0  0  0  0  0  0  0  0  0  0  0
    3.1086    0.3033   -6.1824 H   0  0  0  0  0  0  0  0  0  0  0  0
    2.9105    1.7478   -7.1769 H   0  0  0  0  0  0  0  0  0  0  0  0
    0.4639    1.1983   -7.4366 H   0  0  0  0  0  0  0  0  0  0  0  0
    0.7050   -0.2650   -6.4792 H   0  0  0  0  0  0  0  0  0  0  0  0
    2.3543   -1.1056   -8.1619 H   0  0  0  0  0  0  0  0  0  0  0  0
    2.1358    0.3640   -9.1159 H   0  0  0  0  0  0  0  0  0  0  0  0
   -0.0653   -1.6640   -8.4569 H   0  0  0  0  0  0  0  0  0  0  0  0
    0.7522   -1.4780  -10.0201 H   0  0  0  0  0  0  0  0  0  0  0  0
   -0.2907   -0.1819   -9.4054 H   0  0  0  0  0  0  0  0  0  0  0  0
    3.9583   -1.1516   -1.4373 H   0  0  0  0  0  0  0  0  0  0  0  0
    4.6027   -2.1044   -0.0871 H   0  0  0  0  0  0  0  0  0  0  0  0
    5.6623   -1.5630   -1.4179 H   0  0  0  0  0  0  0  0  0  0  0  0
    6.9636   -0.6554    0.6769 H   0  0  0  0  0  0  0  0  0  0  0  0
    8.4384    1.9572    2.4705 H   0  0  0  0  0  0  0  0  0  0  0  0
    9.9662    0.6812    0.6151 H   0  0  0  0  0  0  0  0  0  0  0  0
    9.2600    2.1121   -1.4153 H   0  0  0  0  0  0  0  0  0  0  0  0
  1  2  1  0  0  0  0
  1 23  1  0  0  0  0
  1 24  1  0  0  0  0
  1 25  1  0  0  0  0
  2  3  1  0  0  0  0
  2 22  1  0  0  0  0
  3  4  1  0  0  0  0
  3 11  2  0  0  0  0
  4  5  2  3  0  0  0
  4 26  1  0  0  0  0
  5  6  1  0  0  0  0
  5 27  1  0  0  0  0
  6  7  1  0  0  0  0
  6 28  1  0  0  0  0
  6 29  1  0  0  0  0
  7  8  1  0  0  0  0
  7 30  1  0  0  0  0
  7 31  1  0  0  0  0
  8  9  1  0  0  0  0
  8 32  1  0  0  0  0
  8 33  1  0  0  0  0
  9 10  1  0  0  0  0
  9 34  1  0  0  0  0
  9 35  1  0  0  0  0
 10 36  1  0  0  0  0
 10 37  1  0  0  0  0
 10 38  1  0  0  0  0
 11 12  1  0  0  0  0
 11 22  1  0  0  0  0
 12 13  2  0  0  0  0
 12 14  1  0  0  0  0
 14 15  1  0  0  0  0
 14 16  2  0  0  0  0
 15 39  1  0  0  0  0
 15 40  1  0  0  0  0
 15 41  1  0  0  0  0
 16 17  1  0  0  0  0
 16 42  1  0  0  0  0
 17 18  2  0  0  0  0
 17 21  1  0  0  0  0
 18 19  1  0  0  0  0
 18 43  1  0  0  0  0
 19 20  2  0  0  0  0
 19 44  1  0  0  0  0
 20 21  1  0  0  0  0
 20 45  1  0  0  0  0
 21 22  2  0  0  0  0
M  END
$$$$
