
 OpenBabel04232216503D

 66 67  0  0  0  0  0  0  0  0999 V2000
    9.1711    4.9354    0.8907 C   0  0  0  0  0  0  0  0  0  0  0  0
   11.0920    4.9667    1.7669 C   0  0  0  0  0  0  0  0  0  0  0  0
   12.2777    6.3671    1.7685 N   0  0  0  0  0  0  0  0  0  0  0  0
   13.8143    7.7120    2.3824 C   0  0  0  0  0  0  0  0  0  0  0  0
   15.7171    8.5201    2.8129 C   0  0  0  0  0  0  0  0  0  0  0  0
   17.4415    9.4943    3.6757 C   0  0  0  0  0  0  0  0  0  0  0  0
   18.7414   10.3279    4.9729 C   0  0  0  0  0  0  0  0  0  0  0  0
   20.1292    9.5686    5.8763 C   0  0  0  0  0  0  0  0  0  0  0  0
   19.3284    8.9112    6.9318 C   0  0  0  0  0  0  0  0  0  0  0  0
   18.8066    7.7868    6.1549 C   0  0  0  0  0  0  0  0  0  0  0  0
   17.3543    8.0408    6.3057 C   0  0  0  0  0  0  0  0  0  0  0  0
   16.8200    6.9767    5.4955 C   0  0  0  0  0  0  0  0  0  0  0  0
   15.3737    7.1498    5.6832 C   0  0  0  0  0  0  0  0  0  0  0  0
   14.9855    6.0142    4.8809 C   0  0  0  0  0  0  0  0  0  0  0  0
   13.5228    6.1227    4.8492 C   0  0  0  0  0  0  0  0  0  0  0  0
   13.3692    4.9269    4.0335 C   0  0  0  0  0  0  0  0  0  0  0  0
   12.0016    4.5080    4.2150 C   0  0  0  0  0  0  0  0  0  0  0  0
   12.1884    3.1936    3.4696 C   0  0  0  0  0  0  0  0  0  0  0  0
   10.6746    6.2175    1.3172 C   0  0  0  0  0  0  0  0  0  0  0  0
   10.8950    4.6559   -0.1207 C   0  0  0  0  0  0  0  0  0  0  0  0
    9.5450    6.0558    2.6508 C   0  0  0  0  0  0  0  0  0  0  0  0
    8.5240    4.5886    3.2090 C   0  0  0  0  0  0  0  0  0  0  0  0
    8.8081    3.5564    4.0670 C   0  0  0  0  0  0  0  0  0  0  0  0
    9.7910    2.4504    3.6978 C   0  0  0  0  0  0  0  0  0  0  0  0
   10.8948    2.8097    3.0150 C   0  0  0  0  0  0  0  0  0  0  0  0
   10.6947    3.7756    2.1768 N   0  0  0  0  0  0  0  0  0  0  0  0
    8.2050    5.5459    1.1399 H   0  0  0  0  0  0  0  0  0  0  0  0
    8.7618    3.9199    1.0360 H   0  0  0  0  0  0  0  0  0  0  0  0
    8.8664    4.9550   -0.2041 H   0  0  0  0  0  0  0  0  0  0  0  0
   13.2077    8.4982    2.8214 H   0  0  0  0  0  0  0  0  0  0  0  0
   14.2018    6.8747    2.8726 H   0  0  0  0  0  0  0  0  0  0  0  0
   15.5381    9.5295    2.3863 H   0  0  0  0  0  0  0  0  0  0  0  0
   15.4782    8.6341    3.8701 H   0  0  0  0  0  0  0  0  0  0  0  0
   18.1962    8.6900    3.5117 H   0  0  0  0  0  0  0  0  0  0  0  0
   17.7154   10.2823    2.9140 H   0  0  0  0  0  0  0  0  0  0  0  0
   19.4004   11.1236    4.5193 H   0  0  0  0  0  0  0  0  0  0  0  0
   18.3817   10.9733    5.8244 H   0  0  0  0  0  0  0  0  0  0  0  0
   20.9080   10.0285    6.5492 H   0  0  0  0  0  0  0  0  0  0  0  0
   20.7810    9.0130    5.1789 H   0  0  0  0  0  0  0  0  0  0  0  0
   18.5344    9.6311    7.1801 H   0  0  0  0  0  0  0  0  0  0  0  0
   19.6536    8.7009    7.9516 H   0  0  0  0  0  0  0  0  0  0  0  0
   19.1836    6.8203    6.4812 H   0  0  0  0  0  0  0  0  0  0  0  0
   19.0978    7.8060    5.0858 H   0  0  0  0  0  0  0  0  0  0  0  0
   16.9702    9.0120    5.9472 H   0  0  0  0  0  0  0  0  0  0  0  0
   17.0359    7.9888    7.3478 H   0  0  0  0  0  0  0  0  0  0  0  0
   17.1708    6.0136    5.8804 H   0  0  0  0  0  0  0  0  0  0  0  0
   17.1674    7.0193    4.4480 H   0  0  0  0  0  0  0  0  0  0  0  0
   14.8950    8.0777    5.3610 H   0  0  0  0  0  0  0  0  0  0  0  0
   15.0555    7.0724    6.7194 H   0  0  0  0  0  0  0  0  0  0  0  0
   15.3262    5.0818    5.3509 H   0  0  0  0  0  0  0  0  0  0  0  0
   15.4766    5.9787    3.8825 H   0  0  0  0  0  0  0  0  0  0  0  0
   13.0844    7.0342    4.4223 H   0  0  0  0  0  0  0  0  0  0  0  0
   13.0739    6.0682    5.8364 H   0  0  0  0  0  0  0  0  0  0  0  0
   14.0020    4.1025    4.3603 H   0  0  0  0  0  0  0  0  0  0  0  0
   13.6705    5.0686    2.9791 H   0  0  0  0  0  0  0  0  0  0  0  0
   11.4117    5.3670    3.8627 H   0  0  0  0  0  0  0  0  0  0  0  0
   11.6008    4.4105    5.2173 H   0  0  0  0  0  0  0  0  0  0  0  0
   12.7576    2.4272    3.9631 H   0  0  0  0  0  0  0  0  0  0  0  0
   12.7452    3.3427    2.5035 H   0  0  0  0  0  0  0  0  0  0  0  0
   10.1165    3.6650    0.0173 H   0  0  0  0  0  0  0  0  0  0  0  0
   11.4797    3.6854    0.2371 H   0  0  0  0  0  0  0  0  0  0  0  0
   10.4657    4.7355   -1.0787 H   0  0  0  0  0  0  0  0  0  0  0  0
    8.5292    6.5609    2.5770 H   0  0  0  0  0  0  0  0  0  0  0  0
    7.9372    3.9520    2.4576 H   0  0  0  0  0  0  0  0  0  0  0  0
    8.8160    3.8015    5.1177 H   0  0  0  0  0  0  0  0  0  0  0  0
    9.2747    1.6558    3.1240 H   0  0  0  0  0  0  0  0  0  0  0  0
  1  2  1  0  0  0  0
  1 27  1  0  0  0  0
  1 28  1  0  0  0  0
  1 29  1  0  0  0  0
  2  3  1  0  0  0  0
  2 26  2  0  0  0  0
  3  4  1  0  0  0  0
  3 19  1  0  0  0  0
  4  5  1  0  0  0  0
  4 30  1  0  0  0  0
  4 31  1  0  0  0  0
  5  6  1  0  0  0  0
  5 32  1  0  0  0  0
  5 33  1  0  0  0  0
  6  7  1  0  0  0  0
  6 34  1  0  0  0  0
  6 35  1  0  0  0  0
  7  8  1  0  0  0  0
  7 36  1  0  0  0  0
  7 37  1  0  0  0  0
  8  9  1  0  0  0  0
  8 38  1  0  0  0  0
  8 39  1  0  0  0  0
  9 10  1  0  0  0  0
  9 40  1  0  0  0  0
  9 41  1  0  0  0  0
 10 11  1  0  0  0  0
 10 42  1  0  0  0  0
 10 43  1  0  0  0  0
 11 12  1  0  0  0  0
 11 44  1  0  0  0  0
 11 45  1  0  0  0  0
 12 13  1  0  0  0  0
 12 46  1  0  0  0  0
 12 47  1  0  0  0  0
 13 14  1  0  0  0  0
 13 48  1  0  0  0  0
 13 49  1  0  0  0  0
 14 15  1  0  0  0  0
 14 50  1  0  0  0  0
 14 51  1  0  0  0  0
 15 16  1  0  0  0  0
 15 52  1  0  0  0  0
 15 53  1  0  0  0  0
 16 17  1  0  0  0  0
 16 54  1  0  0  0  0
 16 55  1  0  0  0  0
 17 18  1  0  0  0  0
 17 56  1  0  0  0  0
 17 57  1  0  0  0  0
 18 25  1  0  0  0  0
 18 58  1  0  0  0  0
 18 59  1  0  0  0  0
 19 20  1  0  0  0  0
 19 21  2  0  0  0  0
 20 60  1  0  0  0  0
 20 61  1  0  0  0  0
 20 62  1  0  0  0  0
 21 22  1  0  0  0  0
 21 63  1  0  0  0  0
 22 23  2  0  0  0  0
 22 64  1  0  0  0  0
 23 24  1  0  0  0  0
 23 65  1  0  0  0  0
 24 25  2  0  0  0  0
 24 66  1  0  0  0  0
 25 26  1  0  0  0  0
M  END
$$$$
