
 OpenBabel04232216503D

 38 39  0  0  0  0  0  0  0  0999 V2000
   -0.7371   -1.2908   -2.3706 C   0  0  0  0  0  0  0  0  0  0  0  0
   -0.3547   -0.5763   -1.1082 C   0  0  0  0  0  0  0  0  0  0  0  0
   -0.7105   -1.1594    0.0556 N   0  0  0  0  0  0  0  0  0  0  0  0
   -0.3375   -0.5375    1.1948 C   0  0  0  0  0  0  0  0  0  0  0  0
    0.3844    0.6531    1.2509 C   0  0  0  0  0  0  0  0  0  0  0  0
    0.7676    1.2222    2.5838 C   0  0  0  0  0  0  0  0  0  0  0  0
    0.7466    1.2539    0.0329 C   0  0  0  0  0  0  0  0  0  0  0  0
    1.5459    2.5388   -0.0300 C   0  0  0  0  0  0  0  0  0  0  0  0
    0.6706    3.7921   -0.0043 C   0  0  0  0  0  0  0  0  0  0  0  0
    1.5416    5.0509   -0.0405 C   0  0  0  0  0  0  0  0  0  0  0  0
    1.8721    5.5242    1.1065 N   0  0  0  0  0  0  0  0  0  0  0  0
    2.6286    6.6247    1.3766 N   0  0  0  0  0  0  0  0  0  0  0  0
    3.1172    7.4433    0.5123 C   0  0  0  0  0  0  0  0  0  0  0  0
    3.8681    8.5871    1.2039 C   0  0  0  0  0  0  0  0  0  0  0  0
    3.0651    7.4374   -0.8612 N   0  0  0  0  0  0  0  0  0  0  0  0
    3.7277    8.4685   -1.6678 C   0  0  0  0  0  0  0  0  0  0  0  0
    2.4384    6.4318   -1.6645 N   0  0  0  0  0  0  0  0  0  0  0  0
    2.5471    6.6131   -2.9261 O   0  0  0  0  0  0  0  0  0  0  0  0
    1.8161    5.4164   -1.3056 N   0  0  0  0  0  0  0  0  0  0  0  0
    0.3560    0.6228   -1.1596 C   0  0  0  0  0  0  0  0  0  0  0  0
   -1.2924   -2.2082   -2.1457 H   0  0  0  0  0  0  0  0  0  0  0  0
    0.1595   -1.5700   -2.9327 H   0  0  0  0  0  0  0  0  0  0  0  0
   -1.3718   -0.6543   -2.9941 H   0  0  0  0  0  0  0  0  0  0  0  0
   -0.6437   -1.0544    2.1024 H   0  0  0  0  0  0  0  0  0  0  0  0
    0.3744    0.6173    3.4070 H   0  0  0  0  0  0  0  0  0  0  0  0
    0.3665    2.2334    2.6998 H   0  0  0  0  0  0  0  0  0  0  0  0
    1.8570    1.2452    2.6867 H   0  0  0  0  0  0  0  0  0  0  0  0
    2.1599    2.5333   -0.9396 H   0  0  0  0  0  0  0  0  0  0  0  0
    2.2713    2.5660    0.7907 H   0  0  0  0  0  0  0  0  0  0  0  0
    0.0512    3.8177    0.9000 H   0  0  0  0  0  0  0  0  0  0  0  0
   -0.0140    3.8018   -0.8613 H   0  0  0  0  0  0  0  0  0  0  0  0
    3.8178    8.4922    2.2935 H   0  0  0  0  0  0  0  0  0  0  0  0
    3.4154    9.5465    0.9329 H   0  0  0  0  0  0  0  0  0  0  0  0
    4.9221    8.5721    0.9127 H   0  0  0  0  0  0  0  0  0  0  0  0
    4.2355    9.2427   -1.0895 H   0  0  0  0  0  0  0  0  0  0  0  0
    2.9974    8.9920   -2.2961 H   0  0  0  0  0  0  0  0  0  0  0  0
    4.4974    8.0195   -2.3068 H   0  0  0  0  0  0  0  0  0  0  0  0
    0.6186    1.0493   -2.1228 H   0  0  0  0  0  0  0  0  0  0  0  0
  1  2  1  0  0  0  0
  1 21  1  0  0  0  0
  1 22  1  0  0  0  0
  1 23  1  0  0  0  0
  2  3  1  0  0  0  0
  2 20  2  0  0  0  0
  3  4  2  0  0  0  0
  4  5  1  0  0  0  0
  4 24  1  0  0  0  0
  5  6  1  0  0  0  0
  5  7  2  0  0  0  0
  6 25  1  0  0  0  0
  6 26  1  0  0  0  0
  6 27  1  0  0  0  0
  7  8  1  0  0  0  0
  7 20  1  0  0  0  0
  8  9  1  0  0  0  0
  8 28  1  0  0  0  0
  8 29  1  0  0  0  0
  9 10  1  0  0  0  0
  9 30  1  0  0  0  0
  9 31  1  0  0  0  0
 10 11  2  0  0  0  0
 10 19  1  0  0  0  0
 11 12  1  0  0  0  0
 12 13  2  0  0  0  0
 13 14  1  0  0  0  0
 13 15  1  0  0  0  0
 14 32  1  0  0  0  0
 14 33  1  0  0  0  0
 14 34  1  0  0  0  0
 15 16  1  0  0  0  0
 15 17  1  0  0  0  0
 16 35  1  0  0  0  0
 16 36  1  0  0  0  0
 16 37  1  0  0  0  0
 17 18  2  0  0  0  0
 17 19  2  0  0  0  0
 20 38  1  0  0  0  0
M  END
$$$$
