
 OpenBabel04232216503D

 66 67  0  0  1  0  0  0  0  0999 V2000
    0.2052    1.1388   -0.2642 C   0  0  0  0  0  0  0  0  0  0  0  0
    1.6376    0.6628   -0.4222 C   0  0  3  0  0  0  0  0  0  0  0  0
    2.6474    1.7902   -0.7494 C   0  0  0  0  0  0  0  0  0  0  0  0
    2.0900    2.9643   -1.5509 C   0  0  0  0  0  0  0  0  0  0  0  0
    1.9533    2.5607   -3.0093 C   0  0  0  0  0  0  0  0  0  0  0  0
    0.6321    2.9899   -3.6460 C   0  0  0  0  0  0  0  0  0  0  0  0
    0.2829    2.0357   -4.7965 C   0  0  0  0  0  0  0  0  0  0  0  0
   -0.3990    0.7419   -4.3012 C   0  0  0  0  0  0  0  0  0  0  0  0
    0.0650   -0.5008   -5.0803 C   0  0  0  0  0  0  0  0  0  0  0  0
   -0.5762   -1.8226   -4.6014 C   0  0  0  0  0  0  0  0  0  0  0  0
    0.4534   -2.9889   -4.3663 C   0  0  0  0  0  0  0  0  0  0  0  0
    0.5847   -3.3136   -2.8635 C   0  0  0  0  0  0  0  0  0  0  0  0
    1.8730   -3.9410   -2.2116 C   0  0  0  0  0  0  0  0  0  0  0  0
    2.4735   -3.7249   -0.6753 C   0  0  0  0  0  0  0  0  0  0  0  0
    3.3096   -4.5377   -0.2656 O   0  0  0  0  0  0  0  0  0  0  0  0
    2.1503   -2.5277    0.2294 C   0  0  0  0  0  0  0  0  0  0  0  0
    1.1520   -1.8082   -0.2616 C   0  0  0  0  0  0  0  0  0  0  0  0
   -0.1926   -2.5441   -0.1382 C   0  0  0  0  0  0  0  0  0  0  0  0
   -0.3480   -3.3196    1.1858 C   0  0  0  0  0  0  0  0  0  0  0  0
    0.0421   -4.4830    1.3290 O   0  0  0  0  0  0  0  0  0  0  0  0
   -1.0733   -2.5804    2.3120 C   0  0  0  0  0  0  0  0  0  0  0  0
   -0.5828   -1.1754    2.3935 C   0  0  0  0  0  0  0  0  0  0  0  0
    0.6495   -0.9929    3.2543 C   0  0  0  0  0  0  0  0  0  0  0  0
    2.0641   -1.0736    2.6171 C   0  0  0  0  0  0  0  0  0  0  0  0
    2.6495   -2.2266    1.6614 C   0  0  0  0  0  0  0  0  0  0  0  0
    1.6446   -0.6543   -1.2103 C   0  0  0  0  0  0  0  0  0  0  0  0
    0.1304    1.8549    0.5556 H   0  0  0  0  0  0  0  0  0  0  0  0
   -0.4872    0.3247   -0.0755 H   0  0  0  0  0  0  0  0  0  0  0  0
   -0.1683    1.5805   -1.1842 H   0  0  0  0  0  0  0  0  0  0  0  0
    2.0023    0.3788    0.5480 H   0  0  0  0  0  0  0  0  0  0  0  0
    3.5628    1.3945   -1.2099 H   0  0  0  0  0  0  0  0  0  0  0  0
    2.9752    2.2120    0.2137 H   0  0  0  0  0  0  0  0  0  0  0  0
    2.7709    3.8189   -1.4626 H   0  0  0  0  0  0  0  0  0  0  0  0
    1.1478    3.3140   -1.1158 H   0  0  0  0  0  0  0  0  0  0  0  0
    2.0748    1.4771   -3.1080 H   0  0  0  0  0  0  0  0  0  0  0  0
    2.7866    3.0020   -3.5696 H   0  0  0  0  0  0  0  0  0  0  0  0
    0.7435    4.0139   -4.0216 H   0  0  0  0  0  0  0  0  0  0  0  0
   -0.1889    3.0117   -2.9203 H   0  0  0  0  0  0  0  0  0  0  0  0
    1.1982    1.8063   -5.3562 H   0  0  0  0  0  0  0  0  0  0  0  0
   -0.3909    2.5483   -5.4910 H   0  0  0  0  0  0  0  0  0  0  0  0
   -1.4860    0.8628   -4.3811 H   0  0  0  0  0  0  0  0  0  0  0  0
   -0.1954    0.5871   -3.2407 H   0  0  0  0  0  0  0  0  0  0  0  0
    1.1554   -0.5655   -5.0114 H   0  0  0  0  0  0  0  0  0  0  0  0
   -0.1819   -0.3526   -6.1391 H   0  0  0  0  0  0  0  0  0  0  0  0
   -1.2911   -2.1383   -5.3738 H   0  0  0  0  0  0  0  0  0  0  0  0
   -1.1903   -1.6470   -3.7070 H   0  0  0  0  0  0  0  0  0  0  0  0
    1.4221   -2.7543   -4.8104 H   0  0  0  0  0  0  0  0  0  0  0  0
    0.0608   -3.8801   -4.8725 H   0  0  0  0  0  0  0  0  0  0  0  0
   -0.2600   -3.9852   -2.6495 H   0  0  0  0  0  0  0  0  0  0  0  0
    0.3550   -2.3698   -2.4087 H   0  0  0  0  0  0  0  0  0  0  0  0
    2.7197   -3.7384   -2.8749 H   0  0  0  0  0  0  0  0  0  0  0  0
    1.6924   -5.0273   -2.2486 H   0  0  0  0  0  0  0  0  0  0  0  0
   -0.3281   -3.3677   -0.8216 H   0  0  0  0  0  0  0  0  0  0  0  0
   -1.0369   -1.8767   -0.3015 H   0  0  0  0  0  0  0  0  0  0  0  0
   -0.9636   -3.1475    3.2358 H   0  0  0  0  0  0  0  0  0  0  0  0
   -2.1314   -2.6288    2.0067 H   0  0  0  0  0  0  0  0  0  0  0  0
   -1.4131   -0.5570    2.7533 H   0  0  0  0  0  0  0  0  0  0  0  0
   -0.3504   -0.7607    1.4309 H   0  0  0  0  0  0  0  0  0  0  0  0
    0.5891   -1.6147    4.1518 H   0  0  0  0  0  0  0  0  0  0  0  0
    0.5580    0.0422    3.6280 H   0  0  0  0  0  0  0  0  0  0  0  0
    2.7469   -1.0295    3.4791 H   0  0  0  0  0  0  0  0  0  0  0  0
    2.2495   -0.0896    2.1910 H   0  0  0  0  0  0  0  0  0  0  0  0
    2.6572   -3.1457    2.2528 H   0  0  0  0  0  0  0  0  0  0  0  0
    3.7042   -1.9296    1.5390 H   0  0  0  0  0  0  0  0  0  0  0  0
    1.0953   -0.5903   -2.1266 H   0  0  0  0  0  0  0  0  0  0  0  0
    2.6938   -0.8747   -1.4951 H   0  0  0  0  0  0  0  0  0  0  0  0
  1  2  1  0  0  0  0
  1 27  1  0  0  0  0
  1 28  1  0  0  0  0
  1 29  1  0  0  0  0
  2  3  1  0  0  0  0
  2 26  1  0  0  0  0
  2 30  1  0  0  0  0
  3  4  1  0  0  0  0
  3 31  1  0  0  0  0
  3 32  1  0  0  0  0
  4  5  1  0  0  0  0
  4 33  1  0  0  0  0
  4 34  1  0  0  0  0
  5  6  1  0  0  0  0
  5 35  1  0  0  0  0
  5 36  1  0  0  0  0
  6  7  1  0  0  0  0
  6 37  1  0  0  0  0
  6 38  1  0  0  0  0
  7  8  1  0  0  0  0
  7 39  1  0  0  0  0
  7 40  1  0  0  0  0
  8  9  1  0  0  0  0
  8 41  1  0  0  0  0
  8 42  1  0  0  0  0
  9 10  1  0  0  0  0
  9 43  1  0  0  0  0
  9 44  1  0  0  0  0
 10 11  1  0  0  0  0
 10 45  1  0  0  0  0
 10 46  1  0  0  0  0
 11 12  1  0  0  0  0
 11 47  1  0  0  0  0
 11 48  1  0  0  0  0
 12 13  1  0  0  0  0
 12 49  1  0  0  0  0
 12 50  1  0  0  0  0
 13 14  1  0  0  0  0
 13 51  1  0  0  0  0
 13 52  1  0  0  0  0
 14 15  2  0  0  0  0
 14 16  1  0  0  0  0
 16 17  2  3  0  0  0
 16 25  1  0  0  0  0
 17 18  1  0  0  0  0
 17 26  1  0  0  0  0
 18 19  1  0  0  0  0
 18 53  1  0  0  0  0
 18 54  1  0  0  0  0
 19 20  2  0  0  0  0
 19 21  1  0  0  0  0
 21 22  1  0  0  0  0
 21 55  1  0  0  0  0
 21 56  1  0  0  0  0
 22 23  1  0  0  0  0
 22 57  1  0  0  0  0
 22 58  1  0  0  0  0
 23 24  1  0  0  0  0
 23 59  1  0  0  0  0
 23 60  1  0  0  0  0
 24 25  1  0  0  0  0
 24 61  1  0  0  0  0
 24 62  1  0  0  0  0
 25 63  1  0  0  0  0
 25 64  1  0  0  0  0
 26 65  1  0  0  0  0
 26 66  1  0  0  0  0
M  END
$$$$
