
 OpenBabel04232216553D

 38 40  0  0  0  0  0  0  0  0999 V2000
    1.7527   -0.5664    0.5362 Cl  0  0  0  0  0  0  0  0  0  0  0  0
    3.1513    0.3870    0.4223 C   0  0  0  0  0  0  0  0  0  0  0  0
    3.5087    1.0706   -0.7916 C   0  0  0  0  0  0  0  0  0  0  0  0
    4.7512    1.5426   -0.6778 C   0  0  0  0  0  0  0  0  0  0  0  0
    5.7192    1.8520   -1.7046 C   0  0  0  0  0  0  0  0  0  0  0  0
    6.6003    2.8386   -1.4650 C   0  0  0  0  0  0  0  0  0  0  0  0
    7.4821    2.7754   -0.2752 C   0  0  0  0  0  0  0  0  0  0  0  0
    8.8322    3.1633   -0.4435 N   0  0  0  0  0  0  0  0  0  0  0  0
    9.5245    3.0910   -1.7386 C   0  0  0  0  0  0  0  0  0  0  0  0
   10.3332    1.8037   -1.9164 C   0  0  0  0  0  0  0  0  0  0  0  0
   11.6939    1.8056   -1.2234 C   0  0  0  0  0  0  0  0  0  0  0  0
   11.6269    1.9947    0.2858 C   0  0  0  0  0  0  0  0  0  0  0  0
   11.1399    3.3873    0.6622 C   0  0  0  0  0  0  0  0  0  0  0  0
    9.6280    3.4988    0.7602 C   0  0  0  0  0  0  0  0  0  0  0  0
    6.8042    2.9439    0.9033 C   0  0  0  0  0  0  0  0  0  0  0  0
    6.6577    4.3451    1.4448 C   0  0  0  0  0  0  0  0  0  0  0  0
    5.9714    2.0047    1.4759 N   0  0  0  0  0  0  0  0  0  0  0  0
    5.0902    1.3942    0.7643 C   0  0  0  0  0  0  0  0  0  0  0  0
    4.1166    0.4542    1.3401 C   0  0  0  0  0  0  0  0  0  0  0  0
    2.9355    1.0175   -1.7046 H   0  0  0  0  0  0  0  0  0  0  0  0
    6.2114    0.8949   -1.9245 H   0  0  0  0  0  0  0  0  0  0  0  0
    6.1757    3.8509   -1.4932 H   0  0  0  0  0  0  0  0  0  0  0  0
   10.1612    3.9742   -1.8739 H   0  0  0  0  0  0  0  0  0  0  0  0
    8.8031    3.1371   -2.5604 H   0  0  0  0  0  0  0  0  0  0  0  0
   10.5296    1.6773   -2.9893 H   0  0  0  0  0  0  0  0  0  0  0  0
    9.7539    0.9294   -1.5969 H   0  0  0  0  0  0  0  0  0  0  0  0
   12.3268    2.5918   -1.6578 H   0  0  0  0  0  0  0  0  0  0  0  0
   12.2001    0.8567   -1.4347 H   0  0  0  0  0  0  0  0  0  0  0  0
   12.6390    1.8649    0.6887 H   0  0  0  0  0  0  0  0  0  0  0  0
   11.0049    1.2171    0.7461 H   0  0  0  0  0  0  0  0  0  0  0  0
   11.5431    4.1444   -0.0193 H   0  0  0  0  0  0  0  0  0  0  0  0
   11.5435    3.6312    1.6537 H   0  0  0  0  0  0  0  0  0  0  0  0
    9.3918    4.5325    1.0383 H   0  0  0  0  0  0  0  0  0  0  0  0
    9.3159    2.8625    1.5995 H   0  0  0  0  0  0  0  0  0  0  0  0
    5.5965    4.5961    1.5593 H   0  0  0  0  0  0  0  0  0  0  0  0
    7.0690    5.0899    0.7523 H   0  0  0  0  0  0  0  0  0  0  0  0
    7.1574    4.4560    2.4076 H   0  0  0  0  0  0  0  0  0  0  0  0
    4.2017   -0.0311    2.2931 H   0  0  0  0  0  0  0  0  0  0  0  0
  1  2  1  0  0  0  0
  2  3  1  0  0  0  0
  2 19  2  0  0  0  0
  3  4  2  0  0  0  0
  3 20  1  0  0  0  0
  4  5  1  0  0  0  0
  4 18  1  0  0  0  0
  5  6  2  0  0  0  0
  5 21  1  0  0  0  0
  6  7  1  0  0  0  0
  6 22  1  0  0  0  0
  7  8  1  0  0  0  0
  7 15  2  0  0  0  0
  8  9  1  0  0  0  0
  8 14  1  0  0  0  0
  9 10  1  0  0  0  0
  9 23  1  0  0  0  0
  9 24  1  0  0  0  0
 10 11  1  0  0  0  0
 10 25  1  0  0  0  0
 10 26  1  0  0  0  0
 11 12  1  0  0  0  0
 11 27  1  0  0  0  0
 11 28  1  0  0  0  0
 12 13  1  0  0  0  0
 12 29  1  0  0  0  0
 12 30  1  0  0  0  0
 13 14  1  0  0  0  0
 13 31  1  0  0  0  0
 13 32  1  0  0  0  0
 14 33  1  0  0  0  0
 14 34  1  0  0  0  0
 15 16  1  0  0  0  0
 15 17  1  0  0  0  0
 16 35  1  0  0  0  0
 16 36  1  0  0  0  0
 16 37  1  0  0  0  0
 17 18  2  0  0  0  0
 18 19  1  0  0  0  0
 19 38  1  0  0  0  0
M  END
$$$$
