
 OpenBabel04232216503D

 44 46  0  0  1  0  0  0  0  0999 V2000
    0.8312   -0.1154   -0.1323 C   0  0  0  0  0  0  0  0  0  0  0  0
    2.3456   -0.0065   -0.1262 C   0  0  3  0  0  0  0  0  0  0  0  0
    2.9395   -1.2953   -0.5859 N   0  0  0  0  0  0  0  0  0  0  0  0
    3.9124   -0.9378   -1.3751 C   0  0  0  0  0  0  0  0  0  0  0  0
    4.8142   -1.8724   -2.1319 C   0  0  0  0  0  0  0  0  0  0  0  0
    4.3863   -2.1639   -3.5964 C   0  0  3  0  0  0  0  0  0  0  0  0
    4.3601   -0.8651   -4.4256 C   0  0  0  0  0  0  0  0  0  0  0  0
    4.3207   -1.0266   -5.9444 C   0  0  0  0  0  0  0  0  0  0  0  0
    3.2907   -1.9897   -6.5036 C   0  0  0  0  0  0  0  0  0  0  0  0
    2.0265   -2.0882   -5.6869 C   0  0  0  0  0  0  0  0  0  0  0  0
    0.9604   -1.5992   -6.0487 O   0  0  0  0  0  0  0  0  0  0  0  0
    2.0702   -2.9191   -4.4602 C   0  0  0  0  0  0  0  0  0  0  0  0
    3.1091   -2.9815   -3.6145 C   0  0  0  0  0  0  0  0  0  0  0  0
    4.0380    0.5582   -1.5318 C   0  0  0  0  0  0  0  0  0  0  0  0
    4.9732    1.1364   -2.0357 O   0  0  0  0  0  0  0  0  0  0  0  0
    2.8890    1.0218   -0.9709 N   0  0  0  0  0  0  0  0  0  0  0  0
    2.5258    2.4233   -0.9051 C   0  0  0  0  0  0  0  0  0  0  0  0
    1.9714    2.8898   -2.2237 C   0  0  0  0  0  0  0  0  0  0  0  0
    2.7994    3.4558   -3.1915 C   0  0  0  0  0  0  0  0  0  0  0  0
    2.3890    3.8307   -4.4227 N   0  0  0  0  0  0  0  0  0  0  0  0
    1.0888    3.6197   -4.7242 C   0  0  0  0  0  0  0  0  0  0  0  0
    0.1795    3.0737   -3.8343 C   0  0  0  0  0  0  0  0  0  0  0  0
    0.6272    2.7086   -2.5693 C   0  0  0  0  0  0  0  0  0  0  0  0
    0.5060   -0.9643    0.4792 H   0  0  0  0  0  0  0  0  0  0  0  0
    0.4411   -0.2604   -1.1436 H   0  0  0  0  0  0  0  0  0  0  0  0
    0.3690    0.7866    0.2840 H   0  0  0  0  0  0  0  0  0  0  0  0
    2.6930    0.1820    0.8978 H   0  0  0  0  0  0  0  0  0  0  0  0
    4.8600   -2.8137   -1.5677 H   0  0  0  0  0  0  0  0  0  0  0  0
    5.8293   -1.4578   -2.1170 H   0  0  0  0  0  0  0  0  0  0  0  0
    5.1698   -2.8104   -4.0141 H   0  0  0  0  0  0  0  0  0  0  0  0
    5.2630   -0.2836   -4.2008 H   0  0  0  0  0  0  0  0  0  0  0  0
    3.5081   -0.2435   -4.1228 H   0  0  0  0  0  0  0  0  0  0  0  0
    5.3110   -1.3368   -6.3013 H   0  0  0  0  0  0  0  0  0  0  0  0
    4.1482   -0.0333   -6.3797 H   0  0  0  0  0  0  0  0  0  0  0  0
    3.7174   -2.9960   -6.5950 H   0  0  0  0  0  0  0  0  0  0  0  0
    3.0198   -1.6921   -7.5242 H   0  0  0  0  0  0  0  0  0  0  0  0
    1.1850   -3.5276   -4.3017 H   0  0  0  0  0  0  0  0  0  0  0  0
    3.0155   -3.7069   -2.8039 H   0  0  0  0  0  0  0  0  0  0  0  0
    3.4180    3.0063   -0.6408 H   0  0  0  0  0  0  0  0  0  0  0  0
    1.7917    2.5808   -0.1067 H   0  0  0  0  0  0  0  0  0  0  0  0
    3.8579    3.6105   -3.0018 H   0  0  0  0  0  0  0  0  0  0  0  0
    0.7922    3.9047   -5.7255 H   0  0  0  0  0  0  0  0  0  0  0  0
   -0.8549    2.9215   -4.1301 H   0  0  0  0  0  0  0  0  0  0  0  0
   -0.0730    2.2640   -1.8641 H   0  0  0  0  0  0  0  0  0  0  0  0
  1  2  1  0  0  0  0
  1 24  1  0  0  0  0
  1 25  1  0  0  0  0
  1 26  1  0  0  0  0
  2  3  1  0  0  0  0
  2 16  1  0  0  0  0
  2 27  1  0  0  0  0
  3  4  2  0  0  0  0
  4  5  1  0  0  0  0
  4 14  1  0  0  0  0
  5  6  1  0  0  0  0
  5 28  1  0  0  0  0
  5 29  1  0  0  0  0
  6  7  1  0  0  0  0
  6 13  1  0  0  0  0
  6 30  1  0  0  0  0
  7  8  1  0  0  0  0
  7 31  1  0  0  0  0
  7 32  1  0  0  0  0
  8  9  1  0  0  0  0
  8 33  1  0  0  0  0
  8 34  1  0  0  0  0
  9 10  1  0  0  0  0
  9 35  1  0  0  0  0
  9 36  1  0  0  0  0
 10 11  2  0  0  0  0
 10 12  1  0  0  0  0
 12 13  2  0  0  0  0
 12 37  1  0  0  0  0
 13 38  1  0  0  0  0
 14 15  2  0  0  0  0
 14 16  1  0  0  0  0
 16 17  1  0  0  0  0
 17 18  1  0  0  0  0
 17 39  1  0  0  0  0
 17 40  1  0  0  0  0
 18 19  1  0  0  0  0
 18 23  2  0  0  0  0
 19 20  2  0  0  0  0
 19 41  1  0  0  0  0
 20 21  1  0  0  0  0
 21 22  2  0  0  0  0
 21 42  1  0  0  0  0
 22 23  1  0  0  0  0
 22 43  1  0  0  0  0
 23 44  1  0  0  0  0
M  END
$$$$
