
 OpenBabel04232216533D

242241  0  0  0  0  0  0  0  0999 V2000
    1.0109    0.1772    0.0299 C   0  0  0  0  0  0  0  0  0  0  0  0
    2.5286    0.1627    0.0246 C   0  0  0  0  0  0  0  0  0  0  0  0
    3.0561   -0.8403    1.0425 C   0  0  0  0  0  0  0  0  0  0  0  0
    4.5787   -0.8607    1.0448 C   0  0  0  0  0  0  0  0  0  0  0  0
    5.0978   -1.8681    2.0642 C   0  0  0  0  0  0  0  0  0  0  0  0
    6.6214   -1.8824    2.0608 C   0  0  0  0  0  0  0  0  0  0  0  0
    7.1013   -2.8450    3.0515 N   0  0  0  0  0  0  0  0  0  0  0  0
    8.5183   -2.8384    3.0324 N   0  0  0  0  0  0  0  0  0  0  0  0
    8.9730   -3.7792    3.9893 N   0  0  0  0  0  0  0  0  0  0  0  0
   10.4345   -3.7866    3.9703 C   0  0  0  0  0  0  0  0  0  0  0  0
   10.9463   -4.7897    4.9950 C   0  0  0  0  0  0  0  0  0  0  0  0
   12.4686   -4.8032    4.9971 C   0  0  0  0  0  0  0  0  0  0  0  0
   12.9843   -5.8010    6.0201 C   0  0  0  0  0  0  0  0  0  0  0  0
   14.5029   -5.8112    6.0189 C   0  0  0  0  0  0  0  0  0  0  0  0
   15.0163   -6.8090    7.0408 C   0  0  0  0  0  0  0  0  0  0  0  0
   16.5337   -6.8168    7.0401 C   0  0  0  0  0  0  0  0  0  0  0  0
   17.0442   -7.8155    8.0603 C   0  0  0  0  0  0  0  0  0  0  0  0
   18.5624   -7.8226    8.0616 C   0  0  0  0  0  0  0  0  0  0  0  0
   19.0717   -8.8210    9.0837 C   0  0  0  0  0  0  0  0  0  0  0  0
   20.5886   -8.8260    9.0860 C   0  0  0  0  0  0  0  0  0  0  0  0
   21.0987   -9.8253   10.1064 C   0  0  0  0  0  0  0  0  0  0  0  0
   22.6153   -9.8287   10.1099 C   0  0  0  0  0  0  0  0  0  0  0  0
   23.1253  -10.8266   11.1315 C   0  0  0  0  0  0  0  0  0  0  0  0
   24.6421  -10.8314   11.1337 C   0  0  0  0  0  0  0  0  0  0  0  0
   25.1530  -11.8282   12.1563 C   0  0  0  0  0  0  0  0  0  0  0  0
   26.6685  -11.8357   12.1563 C   0  0  0  0  0  0  0  0  0  0  0  0
   27.1791  -12.8334   13.1786 C   0  0  0  0  0  0  0  0  0  0  0  0
   28.6950  -12.8401   13.1786 C   0  0  0  0  0  0  0  0  0  0  0  0
   29.2054  -13.8377   14.2003 C   0  0  0  0  0  0  0  0  0  0  0  0
   30.7223  -13.8441   14.2010 C   0  0  0  0  0  0  0  0  0  0  0  0
   31.2320  -14.8419   15.2226 C   0  0  0  0  0  0  0  0  0  0  0  0
   32.7484  -14.8481   15.2232 C   0  0  0  0  0  0  0  0  0  0  0  0
   33.2587  -15.8461   16.2451 C   0  0  0  0  0  0  0  0  0  0  0  0
   34.7753  -15.8510   16.2471 C   0  0  0  0  0  0  0  0  0  0  0  0
   35.2853  -16.8488   17.2690 C   0  0  0  0  0  0  0  0  0  0  0  0
   36.8019  -16.8522   17.2724 C   0  0  0  0  0  0  0  0  0  0  0  0
   37.3120  -17.8488   18.2955 C   0  0  0  0  0  0  0  0  0  0  0  0
   38.8286  -17.8536   18.2976 C   0  0  0  0  0  0  0  0  0  0  0  0
   39.3387  -18.8513   19.3194 C   0  0  0  0  0  0  0  0  0  0  0  0
   40.8552  -18.8548   19.3228 C   0  0  0  0  0  0  0  0  0  0  0  0
   41.3651  -19.8512   20.3461 C   0  0  0  0  0  0  0  0  0  0  0  0
   42.8819  -19.8546   20.3494 C   0  0  0  0  0  0  0  0  0  0  0  0
   43.3916  -20.8510   21.3731 C   0  0  0  0  0  0  0  0  0  0  0  0
   44.9086  -20.8539   21.3765 C   0  0  0  0  0  0  0  0  0  0  0  0
   45.4187  -21.8509   22.3998 C   0  0  0  0  0  0  0  0  0  0  0  0
   46.9352  -21.8543   22.4028 C   0  0  0  0  0  0  0  0  0  0  0  0
   47.4453  -22.8507   23.4260 C   0  0  0  0  0  0  0  0  0  0  0  0
   48.9619  -22.8542   23.4295 C   0  0  0  0  0  0  0  0  0  0  0  0
   49.4720  -23.8507   24.4526 C   0  0  0  0  0  0  0  0  0  0  0  0
   50.9886  -23.8554   24.4547 C   0  0  0  0  0  0  0  0  0  0  0  0
   51.4986  -24.8520   25.4779 C   0  0  0  0  0  0  0  0  0  0  0  0
   53.0152  -24.8554   25.4813 C   0  0  0  0  0  0  0  0  0  0  0  0
   53.5253  -25.8534   26.5033 C   0  0  0  0  0  0  0  0  0  0  0  0
   55.0425  -25.8555   26.5074 C   0  0  0  0  0  0  0  0  0  0  0  0
   55.5529  -26.8523   27.5307 C   0  0  0  0  0  0  0  0  0  0  0  0
   57.0678  -26.8550   27.5339 C   0  0  0  0  0  0  0  0  0  0  0  0
   57.5781  -27.8500   28.5590 C   0  0  0  0  0  0  0  0  0  0  0  0
   59.0957  -27.8522   28.5641 C   0  0  0  0  0  0  0  0  0  0  0  0
   59.6042  -28.8475   29.5876 C   0  0  0  0  0  0  0  0  0  0  0  0
   61.1218  -28.8501   29.5915 C   0  0  0  0  0  0  0  0  0  0  0  0
   61.6319  -29.8454   30.6167 C   0  0  0  0  0  0  0  0  0  0  0  0
   63.1484  -29.8490   30.6200 C   0  0  0  0  0  0  0  0  0  0  0  0
   63.6581  -30.8441   31.6447 C   0  0  0  0  0  0  0  0  0  0  0  0
   65.1750  -30.8467   31.6486 C   0  0  0  0  0  0  0  0  0  0  0  0
   65.6855  -31.8423   32.6735 C   0  0  0  0  0  0  0  0  0  0  0  0
   67.2018  -31.8456   32.6763 C   0  0  0  0  0  0  0  0  0  0  0  0
   67.7119  -32.8405   33.7009 C   0  0  0  0  0  0  0  0  0  0  0  0
   69.2285  -32.8440   33.7044 C   0  0  0  0  0  0  0  0  0  0  0  0
   69.7386  -33.8390   34.7290 C   0  0  0  0  0  0  0  0  0  0  0  0
   71.2552  -33.8438   34.7310 C   0  0  0  0  0  0  0  0  0  0  0  0
   71.7653  -34.8389   35.7556 C   0  0  0  0  0  0  0  0  0  0  0  0
   73.2821  -34.8438   35.7578 C   0  0  0  0  0  0  0  0  0  0  0  0
   73.7922  -35.8389   36.7824 C   0  0  0  0  0  0  0  0  0  0  0  0
   75.3089  -35.8439   36.7846 C   0  0  0  0  0  0  0  0  0  0  0  0
   75.8197  -36.8391   37.8093 C   0  0  0  0  0  0  0  0  0  0  0  0
   77.3374  -36.8457   37.8104 C   0  0  0  0  0  0  0  0  0  0  0  0
   77.8502  -37.8411   38.8353 C   0  0  0  0  0  0  0  0  0  0  0  0
   79.3693  -37.8483   38.8370 C   0  0  0  0  0  0  0  0  0  0  0  0
   79.8842  -38.8431   39.8642 C   0  0  0  0  0  0  0  0  0  0  0  0
   81.4056  -38.8571   39.8757 C   0  0  0  0  0  0  0  0  0  0  0  0
   81.9140  -39.8481   40.8992 C   0  0  0  0  0  0  0  0  0  0  0  0
    0.6337    0.8977   -0.7015 H   0  0  0  0  0  0  0  0  0  0  0  0
    0.6300    0.4571    1.0170 H   0  0  0  0  0  0  0  0  0  0  0  0
    0.6135   -0.8107   -0.2233 H   0  0  0  0  0  0  0  0  0  0  0  0
    2.9059    1.1653    0.2575 H   0  0  0  0  0  0  0  0  0  0  0  0
    2.8896   -0.0967   -0.9774 H   0  0  0  0  0  0  0  0  0  0  0  0
    2.6750   -1.8423    0.8086 H   0  0  0  0  0  0  0  0  0  0  0  0
    2.6898   -0.5812    2.0438 H   0  0  0  0  0  0  0  0  0  0  0  0
    4.9622    0.1392    1.2822 H   0  0  0  0  0  0  0  0  0  0  0  0
    4.9477   -1.1213    0.0452 H   0  0  0  0  0  0  0  0  0  0  0  0
    4.7101   -2.8669    1.8267 H   0  0  0  0  0  0  0  0  0  0  0  0
    4.7271   -1.6054    3.0637 H   0  0  0  0  0  0  0  0  0  0  0  0
    6.9897   -0.8769    2.3017 H   0  0  0  0  0  0  0  0  0  0  0  0
    6.9853   -2.1462    1.0596 H   0  0  0  0  0  0  0  0  0  0  0  0
    6.7398   -3.7705    2.8210 H   0  0  0  0  0  0  0  0  0  0  0  0
    8.8696   -1.8993    3.2677 H   0  0  0  0  0  0  0  0  0  0  0  0
    8.6312   -4.7148    3.7700 H   0  0  0  0  0  0  0  0  0  0  0  0
   10.8221   -2.7906    4.2197 H   0  0  0  0  0  0  0  0  0  0  0  0
   10.8067   -4.0558    2.9735 H   0  0  0  0  0  0  0  0  0  0  0  0
   10.5699   -5.7944    4.7638 H   0  0  0  0  0  0  0  0  0  0  0  0
   10.5797   -4.5272    5.9957 H   0  0  0  0  0  0  0  0  0  0  0  0
   12.8515   -3.8021    5.2306 H   0  0  0  0  0  0  0  0  0  0  0  0
   12.8411   -5.0679    4.0001 H   0  0  0  0  0  0  0  0  0  0  0  0
   12.6044   -6.8036    5.7882 H   0  0  0  0  0  0  0  0  0  0  0  0
   12.6148   -5.5371    7.0188 H   0  0  0  0  0  0  0  0  0  0  0  0
   14.8840   -4.8095    6.2525 H   0  0  0  0  0  0  0  0  0  0  0  0
   14.8750   -6.0749    5.0212 H   0  0  0  0  0  0  0  0  0  0  0  0
   14.6373   -7.8122    6.8071 H   0  0  0  0  0  0  0  0  0  0  0  0
   14.6447   -6.5466    8.0394 H   0  0  0  0  0  0  0  0  0  0  0  0
   16.9129   -5.8149    7.2759 H   0  0  0  0  0  0  0  0  0  0  0  0
   16.9062   -7.0787    6.0420 H   0  0  0  0  0  0  0  0  0  0  0  0
   16.6672   -8.8184    7.8247 H   0  0  0  0  0  0  0  0  0  0  0  0
   16.6720   -7.5549    9.0588 H   0  0  0  0  0  0  0  0  0  0  0  0
   18.9402   -6.8205    8.2974 H   0  0  0  0  0  0  0  0  0  0  0  0
   18.9354   -8.0851    7.0645 H   0  0  0  0  0  0  0  0  0  0  0  0
   18.6950   -9.8237    8.8477 H   0  0  0  0  0  0  0  0  0  0  0  0
   18.6976   -8.5599   10.0811 H   0  0  0  0  0  0  0  0  0  0  0  0
   20.9654   -7.8235    9.3234 H   0  0  0  0  0  0  0  0  0  0  0  0
   20.9634   -9.0860    8.0882 H   0  0  0  0  0  0  0  0  0  0  0  0
   20.7229  -10.8280    9.8682 H   0  0  0  0  0  0  0  0  0  0  0  0
   20.7229   -9.5661   11.1040 H   0  0  0  0  0  0  0  0  0  0  0  0
   22.9911   -8.8257   10.3468 H   0  0  0  0  0  0  0  0  0  0  0  0
   22.9909  -10.0892    9.1126 H   0  0  0  0  0  0  0  0  0  0  0  0
   22.7485  -11.8294   10.8955 H   0  0  0  0  0  0  0  0  0  0  0  0
   22.7508  -10.5653   12.1289 H   0  0  0  0  0  0  0  0  0  0  0  0
   25.0189   -9.8286   11.3697 H   0  0  0  0  0  0  0  0  0  0  0  0
   25.0165  -11.0928   10.1362 H   0  0  0  0  0  0  0  0  0  0  0  0
   24.7740  -12.8319   11.9202 H   0  0  0  0  0  0  0  0  0  0  0  0
   24.7785  -11.5672   13.1531 H   0  0  0  0  0  0  0  0  0  0  0  0
   27.0474  -10.8327   12.3916 H   0  0  0  0  0  0  0  0  0  0  0  0
   27.0421  -12.0979   11.1590 H   0  0  0  0  0  0  0  0  0  0  0  0
   26.8007  -13.8372   12.9440 H   0  0  0  0  0  0  0  0  0  0  0  0
   26.8054  -12.5716   14.1760 H   0  0  0  0  0  0  0  0  0  0  0  0
   29.0733  -11.8372   13.4137 H   0  0  0  0  0  0  0  0  0  0  0  0
   29.0687  -13.1019   12.1809 H   0  0  0  0  0  0  0  0  0  0  0  0
   28.8272  -14.8404   13.9651 H   0  0  0  0  0  0  0  0  0  0  0  0
   28.8319  -13.5756   15.1980 H   0  0  0  0  0  0  0  0  0  0  0  0
   31.0999  -12.8415   14.4362 H   0  0  0  0  0  0  0  0  0  0  0  0
   31.0952  -14.1061   13.2032 H   0  0  0  0  0  0  0  0  0  0  0  0
   30.8539  -15.8446   14.9874 H   0  0  0  0  0  0  0  0  0  0  0  0
   30.8586  -14.5798   16.2203 H   0  0  0  0  0  0  0  0  0  0  0  0
   33.1266  -13.8456   15.4586 H   0  0  0  0  0  0  0  0  0  0  0  0
   33.1221  -15.1103   14.2257 H   0  0  0  0  0  0  0  0  0  0  0  0
   32.8817  -16.8489   16.0090 H   0  0  0  0  0  0  0  0  0  0  0  0
   32.8842  -15.5847   17.2425 H   0  0  0  0  0  0  0  0  0  0  0  0
   35.1521  -14.8481   16.4832 H   0  0  0  0  0  0  0  0  0  0  0  0
   35.1499  -16.1123   15.2497 H   0  0  0  0  0  0  0  0  0  0  0  0
   34.9096  -17.8519   17.0322 H   0  0  0  0  0  0  0  0  0  0  0  0
   34.9097  -16.5882   18.2661 H   0  0  0  0  0  0  0  0  0  0  0  0
   37.1778  -15.8489   17.5080 H   0  0  0  0  0  0  0  0  0  0  0  0
   37.1775  -17.1141   16.2755 H   0  0  0  0  0  0  0  0  0  0  0  0
   36.9351  -18.8519   18.0608 H   0  0  0  0  0  0  0  0  0  0  0  0
   36.9374  -17.5860   19.2925 H   0  0  0  0  0  0  0  0  0  0  0  0
   39.2053  -16.8506   18.5337 H   0  0  0  0  0  0  0  0  0  0  0  0
   39.2033  -18.1149   17.3003 H   0  0  0  0  0  0  0  0  0  0  0  0
   38.9629  -19.8544   19.0826 H   0  0  0  0  0  0  0  0  0  0  0  0
   38.9630  -18.5907   20.3166 H   0  0  0  0  0  0  0  0  0  0  0  0
   41.2310  -17.8514   19.5584 H   0  0  0  0  0  0  0  0  0  0  0  0
   41.2309  -19.1166   18.3259 H   0  0  0  0  0  0  0  0  0  0  0  0
   40.9895  -20.8547   20.1105 H   0  0  0  0  0  0  0  0  0  0  0  0
   40.9895  -19.5893   21.3427 H   0  0  0  0  0  0  0  0  0  0  0  0
   43.2576  -18.8511   20.5848 H   0  0  0  0  0  0  0  0  0  0  0  0
   43.2575  -20.1162   19.3533 H   0  0  0  0  0  0  0  0  0  0  0  0
   43.0164  -21.8544   21.1372 H   0  0  0  0  0  0  0  0  0  0  0  0
   43.0162  -20.5892   22.3695 H   0  0  0  0  0  0  0  0  0  0  0  0
   45.2844  -19.8505   21.6119 H   0  0  0  0  0  0  0  0  0  0  0  0
   45.2845  -21.1156   20.3797 H   0  0  0  0  0  0  0  0  0  0  0  0
   45.0429  -22.8541   22.1638 H   0  0  0  0  0  0  0  0  0  0  0  0
   45.0430  -21.5890   23.3962 H   0  0  0  0  0  0  0  0  0  0  0  0
   47.3110  -20.8509   22.6383 H   0  0  0  0  0  0  0  0  0  0  0  0
   47.3109  -22.1163   21.4060 H   0  0  0  0  0  0  0  0  0  0  0  0
   47.0696  -23.8542   23.1905 H   0  0  0  0  0  0  0  0  0  0  0  0
   47.0696  -22.5888   24.4229 H   0  0  0  0  0  0  0  0  0  0  0  0
   49.3377  -21.8508   23.6649 H   0  0  0  0  0  0  0  0  0  0  0  0
   49.3376  -23.1161   22.4326 H   0  0  0  0  0  0  0  0  0  0  0  0
   49.0952  -24.8538   24.2179 H   0  0  0  0  0  0  0  0  0  0  0  0
   49.0973  -23.5879   25.4496 H   0  0  0  0  0  0  0  0  0  0  0  0
   51.3654  -22.8522   24.6894 H   0  0  0  0  0  0  0  0  0  0  0  0
   51.3632  -24.1182   23.4577 H   0  0  0  0  0  0  0  0  0  0  0  0
   51.1228  -25.8553   25.2423 H   0  0  0  0  0  0  0  0  0  0  0  0
   51.1230  -24.5901   26.4747 H   0  0  0  0  0  0  0  0  0  0  0  0
   53.3908  -23.8522   25.7182 H   0  0  0  0  0  0  0  0  0  0  0  0
   53.3910  -25.1159   24.4842 H   0  0  0  0  0  0  0  0  0  0  0  0
   53.1506  -26.8565   26.2655 H   0  0  0  0  0  0  0  0  0  0  0  0
   53.1484  -25.5934   27.5001 H   0  0  0  0  0  0  0  0  0  0  0  0
   55.4165  -24.8517   26.7443 H   0  0  0  0  0  0  0  0  0  0  0  0
   55.4185  -26.1161   25.5111 H   0  0  0  0  0  0  0  0  0  0  0  0
   55.1774  -27.8552   27.2950 H   0  0  0  0  0  0  0  0  0  0  0  0
   55.1765  -26.5903   28.5271 H   0  0  0  0  0  0  0  0  0  0  0  0
   57.4451  -25.8504   27.7676 H   0  0  0  0  0  0  0  0  0  0  0  0
   57.4453  -27.1177   26.5377 H   0  0  0  0  0  0  0  0  0  0  0  0
   57.2038  -28.8535   28.3234 H   0  0  0  0  0  0  0  0  0  0  0  0
   57.2008  -27.5883   29.5541 H   0  0  0  0  0  0  0  0  0  0  0  0
   59.4701  -26.8462   28.7968 H   0  0  0  0  0  0  0  0  0  0  0  0
   59.4716  -28.1140   27.5676 H   0  0  0  0  0  0  0  0  0  0  0  0
   59.2286  -29.8511   29.3537 H   0  0  0  0  0  0  0  0  0  0  0  0
   59.2290  -28.5835   30.5848 H   0  0  0  0  0  0  0  0  0  0  0  0
   61.4974  -27.8467   29.8261 H   0  0  0  0  0  0  0  0  0  0  0  0
   61.4976  -29.1136   28.5956 H   0  0  0  0  0  0  0  0  0  0  0  0
   61.2560  -30.8492   30.3826 H   0  0  0  0  0  0  0  0  0  0  0  0
   61.2562  -29.5821   31.6130 H   0  0  0  0  0  0  0  0  0  0  0  0
   63.5243  -28.8452   30.8543 H   0  0  0  0  0  0  0  0  0  0  0  0
   63.5243  -30.1121   29.6238 H   0  0  0  0  0  0  0  0  0  0  0  0
   63.2828  -31.8480   31.4106 H   0  0  0  0  0  0  0  0  0  0  0  0
   63.2820  -30.5813   32.6409 H   0  0  0  0  0  0  0  0  0  0  0  0
   65.5506  -29.8428   31.8827 H   0  0  0  0  0  0  0  0  0  0  0  0
   65.5511  -31.1095   30.6523 H   0  0  0  0  0  0  0  0  0  0  0  0
   65.3095  -32.8458   32.4386 H   0  0  0  0  0  0  0  0  0  0  0  0
   65.3096  -31.5789   33.6692 H   0  0  0  0  0  0  0  0  0  0  0  0
   67.5776  -30.8417   32.9103 H   0  0  0  0  0  0  0  0  0  0  0  0
   67.5776  -32.1089   31.6800 H   0  0  0  0  0  0  0  0  0  0  0  0
   67.3362  -33.8441   33.4669 H   0  0  0  0  0  0  0  0  0  0  0  0
   67.3362  -32.5771   34.6976 H   0  0  0  0  0  0  0  0  0  0  0  0
   69.6044  -31.8402   33.9384 H   0  0  0  0  0  0  0  0  0  0  0  0
   69.6041  -33.1073   32.7079 H   0  0  0  0  0  0  0  0  0  0  0  0
   69.3617  -34.8425   34.4956 H   0  0  0  0  0  0  0  0  0  0  0  0
   69.3639  -33.5749   35.7256 H   0  0  0  0  0  0  0  0  0  0  0  0
   71.6320  -32.8403   34.9643 H   0  0  0  0  0  0  0  0  0  0  0  0
   71.6297  -34.1080   33.7344 H   0  0  0  0  0  0  0  0  0  0  0  0
   71.3883  -35.8423   35.5223 H   0  0  0  0  0  0  0  0  0  0  0  0
   71.3907  -34.5747   36.7523 H   0  0  0  0  0  0  0  0  0  0  0  0
   73.6588  -33.8403   35.9909 H   0  0  0  0  0  0  0  0  0  0  0  0
   73.6564  -35.1079   34.7610 H   0  0  0  0  0  0  0  0  0  0  0  0
   73.4151  -36.8423   36.5491 H   0  0  0  0  0  0  0  0  0  0  0  0
   73.4175  -35.5746   37.7790 H   0  0  0  0  0  0  0  0  0  0  0  0
   75.6857  -34.8403   37.0177 H   0  0  0  0  0  0  0  0  0  0  0  0
   75.6832  -36.1079   35.7878 H   0  0  0  0  0  0  0  0  0  0  0  0
   75.4414  -37.8421   37.5768 H   0  0  0  0  0  0  0  0  0  0  0  0
   75.4460  -36.5739   38.8059 H   0  0  0  0  0  0  0  0  0  0  0  0
   77.7144  -35.8420   38.0422 H   0  0  0  0  0  0  0  0  0  0  0  0
   77.7098  -37.1101   36.8130 H   0  0  0  0  0  0  0  0  0  0  0  0
   77.4709  -38.8435   38.6025 H   0  0  0  0  0  0  0  0  0  0  0  0
   77.4755  -37.5756   39.8313 H   0  0  0  0  0  0  0  0  0  0  0  0
   79.7452  -36.8442   39.0672 H   0  0  0  0  0  0  0  0  0  0  0  0
   79.7406  -38.1138   37.8399 H   0  0  0  0  0  0  0  0  0  0  0  0
   79.5031  -39.8453   39.6312 H   0  0  0  0  0  0  0  0  0  0  0  0
   79.5056  -38.5764   40.8589 H   0  0  0  0  0  0  0  0  0  0  0  0
   81.7876  -37.8574   40.1114 H   0  0  0  0  0  0  0  0  0  0  0  0
   81.7852  -39.1265   38.8836 H   0  0  0  0  0  0  0  0  0  0  0  0
   81.5657  -39.5864   41.9047 H   0  0  0  0  0  0  0  0  0  0  0  0
   83.0082  -39.8610   40.9103 H   0  0  0  0  0  0  0  0  0  0  0  0
   81.5634  -40.8612   40.6714 H   0  0  0  0  0  0  0  0  0  0  0  0
  1  2  1  0  0  0  0
  1 82  1  0  0  0  0
  1 83  1  0  0  0  0
  1 84  1  0  0  0  0
  2  3  1  0  0  0  0
  2 85  1  0  0  0  0
  2 86  1  0  0  0  0
  3  4  1  0  0  0  0
  3 87  1  0  0  0  0
  3 88  1  0  0  0  0
  4  5  1  0  0  0  0
  4 89  1  0  0  0  0
  4 90  1  0  0  0  0
  5  6  1  0  0  0  0
  5 91  1  0  0  0  0
  5 92  1  0  0  0  0
  6  7  1  0  0  0  0
  6 93  1  0  0  0  0
  6 94  1  0  0  0  0
  7  8  1  0  0  0  0
  7 95  1  0  0  0  0
  8  9  1  0  0  0  0
  8 96  1  0  0  0  0
  9 10  1  0  0  0  0
  9 97  1  0  0  0  0
 10 11  1  0  0  0  0
 10 98  1  0  0  0  0
 10 99  1  0  0  0  0
 11 12  1  0  0  0  0
 11100  1  0  0  0  0
 11101  1  0  0  0  0
 12 13  1  0  0  0  0
 12102  1  0  0  0  0
 12103  1  0  0  0  0
 13 14  1  0  0  0  0
 13104  1  0  0  0  0
 13105  1  0  0  0  0
 14 15  1  0  0  0  0
 14106  1  0  0  0  0
 14107  1  0  0  0  0
 15 16  1  0  0  0  0
 15108  1  0  0  0  0
 15109  1  0  0  0  0
 16 17  1  0  0  0  0
 16110  1  0  0  0  0
 16111  1  0  0  0  0
 17 18  1  0  0  0  0
 17112  1  0  0  0  0
 17113  1  0  0  0  0
 18 19  1  0  0  0  0
 18114  1  0  0  0  0
 18115  1  0  0  0  0
 19 20  1  0  0  0  0
 19116  1  0  0  0  0
 19117  1  0  0  0  0
 20 21  1  0  0  0  0
 20118  1  0  0  0  0
 20119  1  0  0  0  0
 21 22  1  0  0  0  0
 21120  1  0  0  0  0
 21121  1  0  0  0  0
 22 23  1  0  0  0  0
 22122  1  0  0  0  0
 22123  1  0  0  0  0
 23 24  1  0  0  0  0
 23124  1  0  0  0  0
 23125  1  0  0  0  0
 24 25  1  0  0  0  0
 24126  1  0  0  0  0
 24127  1  0  0  0  0
 25 26  1  0  0  0  0
 25128  1  0  0  0  0
 25129  1  0  0  0  0
 26 27  1  0  0  0  0
 26130  1  0  0  0  0
 26131  1  0  0  0  0
 27 28  1  0  0  0  0
 27132  1  0  0  0  0
 27133  1  0  0  0  0
 28 29  1  0  0  0  0
 28134  1  0  0  0  0
 28135  1  0  0  0  0
 29 30  1  0  0  0  0
 29136  1  0  0  0  0
 29137  1  0  0  0  0
 30 31  1  0  0  0  0
 30138  1  0  0  0  0
 30139  1  0  0  0  0
 31 32  1  0  0  0  0
 31140  1  0  0  0  0
 31141  1  0  0  0  0
 32 33  1  0  0  0  0
 32142  1  0  0  0  0
 32143  1  0  0  0  0
 33 34  1  0  0  0  0
 33144  1  0  0  0  0
 33145  1  0  0  0  0
 34 35  1  0  0  0  0
 34146  1  0  0  0  0
 34147  1  0  0  0  0
 35 36  1  0  0  0  0
 35148  1  0  0  0  0
 35149  1  0  0  0  0
 36 37  1  0  0  0  0
 36150  1  0  0  0  0
 36151  1  0  0  0  0
 37 38  1  0  0  0  0
 37152  1  0  0  0  0
 37153  1  0  0  0  0
 38 39  1  0  0  0  0
 38154  1  0  0  0  0
 38155  1  0  0  0  0
 39 40  1  0  0  0  0
 39156  1  0  0  0  0
 39157  1  0  0  0  0
 40 41  1  0  0  0  0
 40158  1  0  0  0  0
 40159  1  0  0  0  0
 41 42  1  0  0  0  0
 41160  1  0  0  0  0
 41161  1  0  0  0  0
 42 43  1  0  0  0  0
 42162  1  0  0  0  0
 42163  1  0  0  0  0
 43 44  1  0  0  0  0
 43164  1  0  0  0  0
 43165  1  0  0  0  0
 44 45  1  0  0  0  0
 44166  1  0  0  0  0
 44167  1  0  0  0  0
 45 46  1  0  0  0  0
 45168  1  0  0  0  0
 45169  1  0  0  0  0
 46 47  1  0  0  0  0
 46170  1  0  0  0  0
 46171  1  0  0  0  0
 47 48  1  0  0  0  0
 47172  1  0  0  0  0
 47173  1  0  0  0  0
 48 49  1  0  0  0  0
 48174  1  0  0  0  0
 48175  1  0  0  0  0
 49 50  1  0  0  0  0
 49176  1  0  0  0  0
 49177  1  0  0  0  0
 50 51  1  0  0  0  0
 50178  1  0  0  0  0
 50179  1  0  0  0  0
 51 52  1  0  0  0  0
 51180  1  0  0  0  0
 51181  1  0  0  0  0
 52 53  1  0  0  0  0
 52182  1  0  0  0  0
 52183  1  0  0  0  0
 53 54  1  0  0  0  0
 53184  1  0  0  0  0
 53185  1  0  0  0  0
 54 55  1  0  0  0  0
 54186  1  0  0  0  0
 54187  1  0  0  0  0
 55 56  1  0  0  0  0
 55188  1  0  0  0  0
 55189  1  0  0  0  0
 56 57  1  0  0  0  0
 56190  1  0  0  0  0
 56191  1  0  0  0  0
 57 58  1  0  0  0  0
 57192  1  0  0  0  0
 57193  1  0  0  0  0
 58 59  1  0  0  0  0
 58194  1  0  0  0  0
 58195  1  0  0  0  0
 59 60  1  0  0  0  0
 59196  1  0  0  0  0
 59197  1  0  0  0  0
 60 61  1  0  0  0  0
 60198  1  0  0  0  0
 60199  1  0  0  0  0
 61 62  1  0  0  0  0
 61200  1  0  0  0  0
 61201  1  0  0  0  0
 62 63  1  0  0  0  0
 62202  1  0  0  0  0
 62203  1  0  0  0  0
 63 64  1  0  0  0  0
 63204  1  0  0  0  0
 63205  1  0  0  0  0
 64 65  1  0  0  0  0
 64206  1  0  0  0  0
 64207  1  0  0  0  0
 65 66  1  0  0  0  0
 65208  1  0  0  0  0
 65209  1  0  0  0  0
 66 67  1  0  0  0  0
 66210  1  0  0  0  0
 66211  1  0  0  0  0
 67 68  1  0  0  0  0
 67212  1  0  0  0  0
 67213  1  0  0  0  0
 68 69  1  0  0  0  0
 68214  1  0  0  0  0
 68215  1  0  0  0  0
 69 70  1  0  0  0  0
 69216  1  0  0  0  0
 69217  1  0  0  0  0
 70 71  1  0  0  0  0
 70218  1  0  0  0  0
 70219  1  0  0  0  0
 71 72  1  0  0  0  0
 71220  1  0  0  0  0
 71221  1  0  0  0  0
 72 73  1  0  0  0  0
 72222  1  0  0  0  0
 72223  1  0  0  0  0
 73 74  1  0  0  0  0
 73224  1  0  0  0  0
 73225  1  0  0  0  0
 74 75  1  0  0  0  0
 74226  1  0  0  0  0
 74227  1  0  0  0  0
 75 76  1  0  0  0  0
 75228  1  0  0  0  0
 75229  1  0  0  0  0
 76 77  1  0  0  0  0
 76230  1  0  0  0  0
 76231  1  0  0  0  0
 77 78  1  0  0  0  0
 77232  1  0  0  0  0
 77233  1  0  0  0  0
 78 79  1  0  0  0  0
 78234  1  0  0  0  0
 78235  1  0  0  0  0
 79 80  1  0  0  0  0
 79236  1  0  0  0  0
 79237  1  0  0  0  0
 80 81  1  0  0  0  0
 80238  1  0  0  0  0
 80239  1  0  0  0  0
 81240  1  0  0  0  0
 81241  1  0  0  0  0
 81242  1  0  0  0  0
M  END
$$$$
