
 OpenBabel04232216553D

236236  0  0  1  0  0  0  0  0999 V2000
    1.1455    0.1068   -0.1132 C   0  0  0  0  0  0  0  0  0  0  0  0
    2.6000    0.0434   -0.0284 N   0  0  0  0  0  0  0  0  0  0  0  0
    3.2316   -0.7207   -1.0996 C   0  0  0  0  0  0  0  0  0  0  0  0
    3.2731    0.7852   -1.0892 C   0  0  3  0  0  0  0  0  0  0  0  0
    4.5322    1.5224   -0.7340 C   0  0  0  0  0  0  0  0  0  0  0  0
    4.2954    3.0292   -0.7994 C   0  0  0  0  0  0  0  0  0  0  0  0
    5.5513    3.8082   -0.4396 C   0  0  0  0  0  0  0  0  0  0  0  0
    5.2841    5.3055   -0.5137 C   0  0  0  0  0  0  0  0  0  0  0  0
    6.5413    6.0798   -0.1539 C   0  0  0  0  0  0  0  0  0  0  0  0
    6.2793    7.5741   -0.2265 C   0  0  0  0  0  0  0  0  0  0  0  0
    7.5408    8.3393    0.1323 C   0  0  0  0  0  0  0  0  0  0  0  0
    7.2798    9.8324    0.0599 C   0  0  0  0  0  0  0  0  0  0  0  0
    8.5412   10.5957    0.4189 C   0  0  0  0  0  0  0  0  0  0  0  0
    8.2791   12.0882    0.3462 C   0  0  0  0  0  0  0  0  0  0  0  0
    9.5402   12.8510    0.7050 C   0  0  0  0  0  0  0  0  0  0  0  0
    9.2777   14.3431    0.6323 C   0  0  0  0  0  0  0  0  0  0  0  0
   10.5383   15.1057    0.9930 C   0  0  0  0  0  0  0  0  0  0  0  0
   10.2757   16.5977    0.9203 C   0  0  0  0  0  0  0  0  0  0  0  0
   11.5363   17.3601    1.2810 C   0  0  0  0  0  0  0  0  0  0  0  0
   11.2737   18.8521    1.2083 C   0  0  0  0  0  0  0  0  0  0  0  0
   12.5342   19.6145    1.5690 C   0  0  0  0  0  0  0  0  0  0  0  0
   12.2716   21.1065    1.4963 C   0  0  0  0  0  0  0  0  0  0  0  0
   13.5322   21.8689    1.8569 C   0  0  0  0  0  0  0  0  0  0  0  0
   13.2696   23.3609    1.7842 C   0  0  0  0  0  0  0  0  0  0  0  0
   14.5301   24.1233    2.1449 C   0  0  0  0  0  0  0  0  0  0  0  0
   14.2676   25.6152    2.0723 C   0  0  0  0  0  0  0  0  0  0  0  0
   15.5275   26.3776    2.4348 C   0  0  0  0  0  0  0  0  0  0  0  0
   15.2650   27.8696    2.3621 C   0  0  0  0  0  0  0  0  0  0  0  0
   16.5255   28.6320    2.7228 C   0  0  0  0  0  0  0  0  0  0  0  0
   16.2634   30.1240    2.6482 C   0  0  0  0  0  0  0  0  0  0  0  0
   17.5240   30.8864    3.0088 C   0  0  0  0  0  0  0  0  0  0  0  0
   17.2615   32.3783    2.9361 C   0  0  0  0  0  0  0  0  0  0  0  0
   18.5225   33.1408    3.2949 C   0  0  0  0  0  0  0  0  0  0  0  0
   18.2600   34.6327    3.2222 C   0  0  0  0  0  0  0  0  0  0  0  0
   19.5210   35.3952    3.5809 C   0  0  0  0  0  0  0  0  0  0  0  0
   19.2585   36.8871    3.5082 C   0  0  0  0  0  0  0  0  0  0  0  0
   20.5195   37.6495    3.8669 C   0  0  0  0  0  0  0  0  0  0  0  0
   20.2570   39.1415    3.7943 C   0  0  0  0  0  0  0  0  0  0  0  0
   21.5180   39.9039    4.1529 C   0  0  0  0  0  0  0  0  0  0  0  0
   21.2560   41.3959    4.0784 C   0  0  0  0  0  0  0  0  0  0  0  0
   22.5176   42.1583    4.4351 C   0  0  0  0  0  0  0  0  0  0  0  0
   22.2556   43.6502    4.3605 C   0  0  0  0  0  0  0  0  0  0  0  0
   23.5172   44.4127    4.7172 C   0  0  0  0  0  0  0  0  0  0  0  0
   23.2553   45.9046    4.6426 C   0  0  0  0  0  0  0  0  0  0  0  0
   24.5173   46.6671    4.9975 C   0  0  0  0  0  0  0  0  0  0  0  0
   24.2549   48.1590    4.9247 C   0  0  0  0  0  0  0  0  0  0  0  0
   25.5164   48.9214    5.2815 C   0  0  0  0  0  0  0  0  0  0  0  0
   25.2545   50.4134    5.2070 C   0  0  0  0  0  0  0  0  0  0  0  0
   26.5155   51.1758    5.5656 C   0  0  0  0  0  0  0  0  0  0  0  0
   26.2530   52.6677    5.4929 C   0  0  0  0  0  0  0  0  0  0  0  0
   27.5140   53.4302    5.8517 C   0  0  0  0  0  0  0  0  0  0  0  0
   27.2515   54.9221    5.7790 C   0  0  0  0  0  0  0  0  0  0  0  0
   28.5120   55.6846    6.1396 C   0  0  0  0  0  0  0  0  0  0  0  0
   28.2494   57.1765    6.0670 C   0  0  0  0  0  0  0  0  0  0  0  0
   29.5100   57.9389    6.4276 C   0  0  0  0  0  0  0  0  0  0  0  0
   29.2468   59.4309    6.3568 C   0  0  0  0  0  0  0  0  0  0  0  0
   30.5074   60.1933    6.7176 C   0  0  0  0  0  0  0  0  0  0  0  0
   30.2448   61.6853    6.6449 C   0  0  0  0  0  0  0  0  0  0  0  0
   31.5048   62.4477    7.0074 C   0  0  0  0  0  0  0  0  0  0  0  0
   31.2427   63.9397    6.9328 C   0  0  0  0  0  0  0  0  0  0  0  0
   32.5034   64.7022    7.2936 C   0  0  0  0  0  0  0  0  0  0  0  0
   32.2411   66.1940    7.2209 C   0  0  0  0  0  0  0  0  0  0  0  0
   33.5005   66.9564    7.5833 C   0  0  0  0  0  0  0  0  0  0  0  0
   33.2407   68.4472    7.5094 C   0  0  0  0  0  0  0  0  0  0  0  0
   34.4995   69.2112    7.8695 C   0  0  0  0  0  0  0  0  0  0  0  0
   34.2374   70.7045    7.7928 C   0  0  0  0  0  0  0  0  0  0  0  0
   35.4997   71.4646    8.1540 C   0  0  0  0  0  0  0  0  0  0  0  0
   35.2343   72.9575    8.0784 C   0  0  0  0  0  0  0  0  0  0  0  0
   36.5006   73.7200    8.4386 C   0  0  0  0  0  0  0  0  0  0  0  0
   36.2347   75.2101    8.3608 C   0  0  0  0  0  0  0  0  0  0  0  0
   37.4994   75.9743    8.7226 C   0  0  0  0  0  0  0  0  0  0  0  0
   37.2334   77.4632    8.6428 C   0  0  0  0  0  0  0  0  0  0  0  0
   38.4972   78.2313    9.0043 C   0  0  0  0  0  0  0  0  0  0  0  0
   38.2367   79.7243    8.9280 C   0  0  0  0  0  0  0  0  0  0  0  0
   39.4968   80.4910    9.2906 C   0  0  0  0  0  0  0  0  0  0  0  0
   39.2384   81.9872    9.2149 C   0  0  0  0  0  0  0  0  0  0  0  0
   40.4995   82.7559    9.5778 C   0  0  0  0  0  0  0  0  0  0  0  0
   40.2536   84.2569    9.5037 C   0  0  0  0  0  0  0  0  0  0  0  0
   41.5115   85.0213    9.8657 C   0  0  0  0  0  0  0  0  0  0  0  0
    0.7238   -0.4574    0.7250 H   0  0  0  0  0  0  0  0  0  0  0  0
    0.7264   -0.3117   -1.0346 H   0  0  0  0  0  0  0  0  0  0  0  0
    0.7982    1.1413   -0.0157 H   0  0  0  0  0  0  0  0  0  0  0  0
    2.6088   -1.1997   -1.8464 H   0  0  0  0  0  0  0  0  0  0  0  0
    4.1207   -1.2738   -0.8241 H   0  0  0  0  0  0  0  0  0  0  0  0
    2.6883    1.2869   -1.8529 H   0  0  0  0  0  0  0  0  0  0  0  0
    5.3297    1.2445   -1.4329 H   0  0  0  0  0  0  0  0  0  0  0  0
    4.8784    1.2487    0.2716 H   0  0  0  0  0  0  0  0  0  0  0  0
    3.4783    3.3065   -0.1215 H   0  0  0  0  0  0  0  0  0  0  0  0
    3.9732    3.3065   -1.8112 H   0  0  0  0  0  0  0  0  0  0  0  0
    6.3636    3.5452   -1.1281 H   0  0  0  0  0  0  0  0  0  0  0  0
    5.8817    3.5412    0.5713 H   0  0  0  0  0  0  0  0  0  0  0  0
    4.4722    5.5766    0.1726 H   0  0  0  0  0  0  0  0  0  0  0  0
    4.9571    5.5790   -1.5247 H   0  0  0  0  0  0  0  0  0  0  0  0
    7.3536    5.8118   -0.8407 H   0  0  0  0  0  0  0  0  0  0  0  0
    6.8689    5.8096    0.8574 H   0  0  0  0  0  0  0  0  0  0  0  0
    5.4701    7.8465    0.4623 H   0  0  0  0  0  0  0  0  0  0  0  0
    5.9518    7.8488   -1.2368 H   0  0  0  0  0  0  0  0  0  0  0  0
    8.3512    8.0687   -0.5557 H   0  0  0  0  0  0  0  0  0  0  0  0
    7.8689    8.0669    1.1430 H   0  0  0  0  0  0  0  0  0  0  0  0
    6.4703   10.1047    0.7482 H   0  0  0  0  0  0  0  0  0  0  0  0
    6.9527   10.1065   -0.9507 H   0  0  0  0  0  0  0  0  0  0  0  0
    9.3513   10.3248   -0.2695 H   0  0  0  0  0  0  0  0  0  0  0  0
    8.8690   10.3227    1.4294 H   0  0  0  0  0  0  0  0  0  0  0  0
    7.4694   12.3598    1.0348 H   0  0  0  0  0  0  0  0  0  0  0  0
    7.9514   12.3619   -0.6642 H   0  0  0  0  0  0  0  0  0  0  0  0
   10.3501   12.5799    0.0166 H   0  0  0  0  0  0  0  0  0  0  0  0
    9.8680   12.5778    1.7156 H   0  0  0  0  0  0  0  0  0  0  0  0
    8.4670   14.6143    1.3198 H   0  0  0  0  0  0  0  0  0  0  0  0
    8.9514   14.6168   -0.3786 H   0  0  0  0  0  0  0  0  0  0  0  0
   11.3491   14.8346    0.3056 H   0  0  0  0  0  0  0  0  0  0  0  0
   10.8647   14.8321    2.0039 H   0  0  0  0  0  0  0  0  0  0  0  0
    9.4650   16.8688    1.6077 H   0  0  0  0  0  0  0  0  0  0  0  0
    9.9494   16.8713   -0.0906 H   0  0  0  0  0  0  0  0  0  0  0  0
   12.3470   17.0890    0.5936 H   0  0  0  0  0  0  0  0  0  0  0  0
   11.8626   17.0865    2.2919 H   0  0  0  0  0  0  0  0  0  0  0  0
   10.4629   19.1232    1.8957 H   0  0  0  0  0  0  0  0  0  0  0  0
   10.9473   19.1257    0.1974 H   0  0  0  0  0  0  0  0  0  0  0  0
   13.3450   19.3434    0.8816 H   0  0  0  0  0  0  0  0  0  0  0  0
   12.8606   19.3409    2.5799 H   0  0  0  0  0  0  0  0  0  0  0  0
   11.4609   21.3776    2.1837 H   0  0  0  0  0  0  0  0  0  0  0  0
   11.9453   21.3801    0.4853 H   0  0  0  0  0  0  0  0  0  0  0  0
   14.3430   21.5978    1.1695 H   0  0  0  0  0  0  0  0  0  0  0  0
   13.8585   21.5953    2.8679 H   0  0  0  0  0  0  0  0  0  0  0  0
   12.4588   23.6320    2.4716 H   0  0  0  0  0  0  0  0  0  0  0  0
   12.9432   23.6345    0.7733 H   0  0  0  0  0  0  0  0  0  0  0  0
   15.3409   23.8522    1.4575 H   0  0  0  0  0  0  0  0  0  0  0  0
   14.8565   23.8496    3.1559 H   0  0  0  0  0  0  0  0  0  0  0  0
   13.4558   25.8862    2.7586 H   0  0  0  0  0  0  0  0  0  0  0  0
   13.9425   25.8891    1.0609 H   0  0  0  0  0  0  0  0  0  0  0  0
   16.3393   26.1067    1.7485 H   0  0  0  0  0  0  0  0  0  0  0  0
   15.8525   26.1038    3.4462 H   0  0  0  0  0  0  0  0  0  0  0  0
   14.4542   28.1407    3.0495 H   0  0  0  0  0  0  0  0  0  0  0  0
   14.9386   28.1432    1.3512 H   0  0  0  0  0  0  0  0  0  0  0  0
   17.3367   28.3599    2.0363 H   0  0  0  0  0  0  0  0  0  0  0  0
   16.8510   28.3594    3.7343 H   0  0  0  0  0  0  0  0  0  0  0  0
   15.4523   30.3962    3.3347 H   0  0  0  0  0  0  0  0  0  0  0  0
   15.9379   30.3966    1.6367 H   0  0  0  0  0  0  0  0  0  0  0  0
   18.3348   30.6152    2.3214 H   0  0  0  0  0  0  0  0  0  0  0  0
   17.8504   30.6128    4.0198 H   0  0  0  0  0  0  0  0  0  0  0  0
   16.4516   32.6497    3.6246 H   0  0  0  0  0  0  0  0  0  0  0  0
   16.9337   32.6518    1.9256 H   0  0  0  0  0  0  0  0  0  0  0  0
   19.3323   32.8694    2.6064 H   0  0  0  0  0  0  0  0  0  0  0  0
   18.8503   32.8674    4.3054 H   0  0  0  0  0  0  0  0  0  0  0  0
   17.4501   34.9041    3.9106 H   0  0  0  0  0  0  0  0  0  0  0  0
   17.9322   34.9061    2.2116 H   0  0  0  0  0  0  0  0  0  0  0  0
   20.3308   35.1238    2.8924 H   0  0  0  0  0  0  0  0  0  0  0  0
   19.8488   35.1217    4.5914 H   0  0  0  0  0  0  0  0  0  0  0  0
   18.4486   37.1584    4.1967 H   0  0  0  0  0  0  0  0  0  0  0  0
   18.9307   37.1605    2.4976 H   0  0  0  0  0  0  0  0  0  0  0  0
   21.3293   37.3782    3.1785 H   0  0  0  0  0  0  0  0  0  0  0  0
   20.8473   37.3761    4.8775 H   0  0  0  0  0  0  0  0  0  0  0  0
   19.4471   39.4129    4.4827 H   0  0  0  0  0  0  0  0  0  0  0  0
   19.9292   39.4148    2.7837 H   0  0  0  0  0  0  0  0  0  0  0  0
   22.3282   39.6315    3.4654 H   0  0  0  0  0  0  0  0  0  0  0  0
   21.8450   39.6316    5.1641 H   0  0  0  0  0  0  0  0  0  0  0  0
   20.4467   41.6685    4.7669 H   0  0  0  0  0  0  0  0  0  0  0  0
   20.9277   41.6680    3.0676 H   0  0  0  0  0  0  0  0  0  0  0  0
   23.3269   41.8856    3.7465 H   0  0  0  0  0  0  0  0  0  0  0  0
   22.8460   41.8862    5.4458 H   0  0  0  0  0  0  0  0  0  0  0  0
   21.4464   43.9229    5.0491 H   0  0  0  0  0  0  0  0  0  0  0  0
   21.9273   43.9223    3.3498 H   0  0  0  0  0  0  0  0  0  0  0  0
   24.3265   44.1400    4.0286 H   0  0  0  0  0  0  0  0  0  0  0  0
   23.8456   44.1406    5.7280 H   0  0  0  0  0  0  0  0  0  0  0  0
   22.4469   46.1774    5.3323 H   0  0  0  0  0  0  0  0  0  0  0  0
   22.9255   46.1766    3.6323 H   0  0  0  0  0  0  0  0  0  0  0  0
   25.3253   46.3952    4.3069 H   0  0  0  0  0  0  0  0  0  0  0  0
   24.8479   46.3941    6.0073 H   0  0  0  0  0  0  0  0  0  0  0  0
   23.4460   48.4306    5.6143 H   0  0  0  0  0  0  0  0  0  0  0  0
   23.9257   48.4321    3.9146 H   0  0  0  0  0  0  0  0  0  0  0  0
   26.3257   48.6488    4.5929 H   0  0  0  0  0  0  0  0  0  0  0  0
   25.8448   48.6493    6.2923 H   0  0  0  0  0  0  0  0  0  0  0  0
   24.4442   50.6858    5.8945 H   0  0  0  0  0  0  0  0  0  0  0  0
   24.9275   50.6857    4.1958 H   0  0  0  0  0  0  0  0  0  0  0  0
   27.3253   50.9044    4.8772 H   0  0  0  0  0  0  0  0  0  0  0  0
   26.8433   50.9024    6.5762 H   0  0  0  0  0  0  0  0  0  0  0  0
   25.4432   52.9391    6.1814 H   0  0  0  0  0  0  0  0  0  0  0  0
   25.9252   52.9412    4.4824 H   0  0  0  0  0  0  0  0  0  0  0  0
   28.3239   53.1588    5.1632 H   0  0  0  0  0  0  0  0  0  0  0  0
   27.8418   53.1567    6.8622 H   0  0  0  0  0  0  0  0  0  0  0  0
   26.4407   55.1933    6.4664 H   0  0  0  0  0  0  0  0  0  0  0  0
   26.9251   55.1957    4.7681 H   0  0  0  0  0  0  0  0  0  0  0  0
   29.3228   55.4134    5.4522 H   0  0  0  0  0  0  0  0  0  0  0  0
   28.8384   55.4109    7.1506 H   0  0  0  0  0  0  0  0  0  0  0  0
   27.4386   57.4476    6.7544 H   0  0  0  0  0  0  0  0  0  0  0  0
   27.9231   57.4502    5.0560 H   0  0  0  0  0  0  0  0  0  0  0  0
   30.3203   57.6688    5.7393 H   0  0  0  0  0  0  0  0  0  0  0  0
   29.8371   57.6642    7.4380 H   0  0  0  0  0  0  0  0  0  0  0  0
   28.4365   59.7009    7.0452 H   0  0  0  0  0  0  0  0  0  0  0  0
   28.9196   59.7055    5.3465 H   0  0  0  0  0  0  0  0  0  0  0  0
   31.3182   59.9222    6.0302 H   0  0  0  0  0  0  0  0  0  0  0  0
   30.8337   59.9196    7.7285 H   0  0  0  0  0  0  0  0  0  0  0  0
   29.4330   61.9562    7.3312 H   0  0  0  0  0  0  0  0  0  0  0  0
   29.9198   61.9590    5.6335 H   0  0  0  0  0  0  0  0  0  0  0  0
   32.3169   62.1757    6.3220 H   0  0  0  0  0  0  0  0  0  0  0  0
   31.8290   62.1749    8.0193 H   0  0  0  0  0  0  0  0  0  0  0  0
   30.4315   64.2117    7.6193 H   0  0  0  0  0  0  0  0  0  0  0  0
   30.9172   64.2123    5.9213 H   0  0  0  0  0  0  0  0  0  0  0  0
   33.3141   64.4309    6.6062 H   0  0  0  0  0  0  0  0  0  0  0  0
   32.8296   64.4284    8.3045 H   0  0  0  0  0  0  0  0  0  0  0  0
   31.4292   66.4652    7.9072 H   0  0  0  0  0  0  0  0  0  0  0  0
   31.9160   66.4681    6.2096 H   0  0  0  0  0  0  0  0  0  0  0  0
   34.3132   66.6845    6.8980 H   0  0  0  0  0  0  0  0  0  0  0  0
   33.8253   66.6837    8.5954 H   0  0  0  0  0  0  0  0  0  0  0  0
   32.4281   68.7206    8.1954 H   0  0  0  0  0  0  0  0  0  0  0  0
   32.9137   68.7209    6.4976 H   0  0  0  0  0  0  0  0  0  0  0  0
   35.3111   68.9382    7.1840 H   0  0  0  0  0  0  0  0  0  0  0  0
   34.8243   68.9399    8.8816 H   0  0  0  0  0  0  0  0  0  0  0  0
   33.4263   70.9767    8.4785 H   0  0  0  0  0  0  0  0  0  0  0  0
   33.9131   70.9750    6.7810 H   0  0  0  0  0  0  0  0  0  0  0  0
   36.3099   71.1927    7.4673 H   0  0  0  0  0  0  0  0  0  0  0  0
   35.8244   71.1925    9.1651 H   0  0  0  0  0  0  0  0  0  0  0  0
   34.4276   73.2300    8.7675 H   0  0  0  0  0  0  0  0  0  0  0  0
   34.9111   73.2299    7.0678 H   0  0  0  0  0  0  0  0  0  0  0  0
   37.3089   73.4455    7.7513 H   0  0  0  0  0  0  0  0  0  0  0  0
   36.8244   73.4476    9.4495 H   0  0  0  0  0  0  0  0  0  0  0  0
   35.4253   75.4845    9.0468 H   0  0  0  0  0  0  0  0  0  0  0  0
   35.9120   75.4825    7.3496 H   0  0  0  0  0  0  0  0  0  0  0  0
   38.3091   75.6993    8.0375 H   0  0  0  0  0  0  0  0  0  0  0  0
   37.8212   75.7032    9.7343 H   0  0  0  0  0  0  0  0  0  0  0  0
   36.4244   77.7398    9.3282 H   0  0  0  0  0  0  0  0  0  0  0  0
   36.9124   77.7359    7.6310 H   0  0  0  0  0  0  0  0  0  0  0  0
   39.3086   77.9570    8.3187 H   0  0  0  0  0  0  0  0  0  0  0  0
   38.8217   77.9589   10.0163 H   0  0  0  0  0  0  0  0  0  0  0  0
   37.4238   79.9963    9.6124 H   0  0  0  0  0  0  0  0  0  0  0  0
   37.9129   79.9949    7.9155 H   0  0  0  0  0  0  0  0  0  0  0  0
   40.3089   80.2164    8.6062 H   0  0  0  0  0  0  0  0  0  0  0  0
   39.8198   80.2178   10.3027 H   0  0  0  0  0  0  0  0  0  0  0  0
   38.4247   82.2575    9.8991 H   0  0  0  0  0  0  0  0  0  0  0  0
   38.9138   82.2561    8.2022 H   0  0  0  0  0  0  0  0  0  0  0  0
   41.3106   82.4762    8.8941 H   0  0  0  0  0  0  0  0  0  0  0  0
   40.8204   82.4796   10.5900 H   0  0  0  0  0  0  0  0  0  0  0  0
   39.4436   84.5355   10.1880 H   0  0  0  0  0  0  0  0  0  0  0  0
   39.9339   84.5320    8.4917 H   0  0  0  0  0  0  0  0  0  0  0  0
   41.8349   84.7782   10.8830 H   0  0  0  0  0  0  0  0  0  0  0  0
   41.3295   86.0984    9.8108 H   0  0  0  0  0  0  0  0  0  0  0  0
   42.3275   84.7747    9.1787 H   0  0  0  0  0  0  0  0  0  0  0  0
  1  2  1  0  0  0  0
  1 80  1  0  0  0  0
  1 81  1  0  0  0  0
  1 82  1  0  0  0  0
  2  3  1  0  0  0  0
  2  4  1  0  0  0  0
  3  4  1  0  0  0  0
  3 83  1  0  0  0  0
  3 84  1  0  0  0  0
  4  5  1  0  0  0  0
  4 85  1  0  0  0  0
  5  6  1  0  0  0  0
  5 86  1  0  0  0  0
  5 87  1  0  0  0  0
  6  7  1  0  0  0  0
  6 88  1  0  0  0  0
  6 89  1  0  0  0  0
  7  8  1  0  0  0  0
  7 90  1  0  0  0  0
  7 91  1  0  0  0  0
  8  9  1  0  0  0  0
  8 92  1  0  0  0  0
  8 93  1  0  0  0  0
  9 10  1  0  0  0  0
  9 94  1  0  0  0  0
  9 95  1  0  0  0  0
 10 11  1  0  0  0  0
 10 96  1  0  0  0  0
 10 97  1  0  0  0  0
 11 12  1  0  0  0  0
 11 98  1  0  0  0  0
 11 99  1  0  0  0  0
 12 13  1  0  0  0  0
 12100  1  0  0  0  0
 12101  1  0  0  0  0
 13 14  1  0  0  0  0
 13102  1  0  0  0  0
 13103  1  0  0  0  0
 14 15  1  0  0  0  0
 14104  1  0  0  0  0
 14105  1  0  0  0  0
 15 16  1  0  0  0  0
 15106  1  0  0  0  0
 15107  1  0  0  0  0
 16 17  1  0  0  0  0
 16108  1  0  0  0  0
 16109  1  0  0  0  0
 17 18  1  0  0  0  0
 17110  1  0  0  0  0
 17111  1  0  0  0  0
 18 19  1  0  0  0  0
 18112  1  0  0  0  0
 18113  1  0  0  0  0
 19 20  1  0  0  0  0
 19114  1  0  0  0  0
 19115  1  0  0  0  0
 20 21  1  0  0  0  0
 20116  1  0  0  0  0
 20117  1  0  0  0  0
 21 22  1  0  0  0  0
 21118  1  0  0  0  0
 21119  1  0  0  0  0
 22 23  1  0  0  0  0
 22120  1  0  0  0  0
 22121  1  0  0  0  0
 23 24  1  0  0  0  0
 23122  1  0  0  0  0
 23123  1  0  0  0  0
 24 25  1  0  0  0  0
 24124  1  0  0  0  0
 24125  1  0  0  0  0
 25 26  1  0  0  0  0
 25126  1  0  0  0  0
 25127  1  0  0  0  0
 26 27  1  0  0  0  0
 26128  1  0  0  0  0
 26129  1  0  0  0  0
 27 28  1  0  0  0  0
 27130  1  0  0  0  0
 27131  1  0  0  0  0
 28 29  1  0  0  0  0
 28132  1  0  0  0  0
 28133  1  0  0  0  0
 29 30  1  0  0  0  0
 29134  1  0  0  0  0
 29135  1  0  0  0  0
 30 31  1  0  0  0  0
 30136  1  0  0  0  0
 30137  1  0  0  0  0
 31 32  1  0  0  0  0
 31138  1  0  0  0  0
 31139  1  0  0  0  0
 32 33  1  0  0  0  0
 32140  1  0  0  0  0
 32141  1  0  0  0  0
 33 34  1  0  0  0  0
 33142  1  0  0  0  0
 33143  1  0  0  0  0
 34 35  1  0  0  0  0
 34144  1  0  0  0  0
 34145  1  0  0  0  0
 35 36  1  0  0  0  0
 35146  1  0  0  0  0
 35147  1  0  0  0  0
 36 37  1  0  0  0  0
 36148  1  0  0  0  0
 36149  1  0  0  0  0
 37 38  1  0  0  0  0
 37150  1  0  0  0  0
 37151  1  0  0  0  0
 38 39  1  0  0  0  0
 38152  1  0  0  0  0
 38153  1  0  0  0  0
 39 40  1  0  0  0  0
 39154  1  0  0  0  0
 39155  1  0  0  0  0
 40 41  1  0  0  0  0
 40156  1  0  0  0  0
 40157  1  0  0  0  0
 41 42  1  0  0  0  0
 41158  1  0  0  0  0
 41159  1  0  0  0  0
 42 43  1  0  0  0  0
 42160  1  0  0  0  0
 42161  1  0  0  0  0
 43 44  1  0  0  0  0
 43162  1  0  0  0  0
 43163  1  0  0  0  0
 44 45  1  0  0  0  0
 44164  1  0  0  0  0
 44165  1  0  0  0  0
 45 46  1  0  0  0  0
 45166  1  0  0  0  0
 45167  1  0  0  0  0
 46 47  1  0  0  0  0
 46168  1  0  0  0  0
 46169  1  0  0  0  0
 47 48  1  0  0  0  0
 47170  1  0  0  0  0
 47171  1  0  0  0  0
 48 49  1  0  0  0  0
 48172  1  0  0  0  0
 48173  1  0  0  0  0
 49 50  1  0  0  0  0
 49174  1  0  0  0  0
 49175  1  0  0  0  0
 50 51  1  0  0  0  0
 50176  1  0  0  0  0
 50177  1  0  0  0  0
 51 52  1  0  0  0  0
 51178  1  0  0  0  0
 51179  1  0  0  0  0
 52 53  1  0  0  0  0
 52180  1  0  0  0  0
 52181  1  0  0  0  0
 53 54  1  0  0  0  0
 53182  1  0  0  0  0
 53183  1  0  0  0  0
 54 55  1  0  0  0  0
 54184  1  0  0  0  0
 54185  1  0  0  0  0
 55 56  1  0  0  0  0
 55186  1  0  0  0  0
 55187  1  0  0  0  0
 56 57  1  0  0  0  0
 56188  1  0  0  0  0
 56189  1  0  0  0  0
 57 58  1  0  0  0  0
 57190  1  0  0  0  0
 57191  1  0  0  0  0
 58 59  1  0  0  0  0
 58192  1  0  0  0  0
 58193  1  0  0  0  0
 59 60  1  0  0  0  0
 59194  1  0  0  0  0
 59195  1  0  0  0  0
 60 61  1  0  0  0  0
 60196  1  0  0  0  0
 60197  1  0  0  0  0
 61 62  1  0  0  0  0
 61198  1  0  0  0  0
 61199  1  0  0  0  0
 62 63  1  0  0  0  0
 62200  1  0  0  0  0
 62201  1  0  0  0  0
 63 64  1  0  0  0  0
 63202  1  0  0  0  0
 63203  1  0  0  0  0
 64 65  1  0  0  0  0
 64204  1  0  0  0  0
 64205  1  0  0  0  0
 65 66  1  0  0  0  0
 65206  1  0  0  0  0
 65207  1  0  0  0  0
 66 67  1  0  0  0  0
 66208  1  0  0  0  0
 66209  1  0  0  0  0
 67 68  1  0  0  0  0
 67210  1  0  0  0  0
 67211  1  0  0  0  0
 68 69  1  0  0  0  0
 68212  1  0  0  0  0
 68213  1  0  0  0  0
 69 70  1  0  0  0  0
 69214  1  0  0  0  0
 69215  1  0  0  0  0
 70 71  1  0  0  0  0
 70216  1  0  0  0  0
 70217  1  0  0  0  0
 71 72  1  0  0  0  0
 71218  1  0  0  0  0
 71219  1  0  0  0  0
 72 73  1  0  0  0  0
 72220  1  0  0  0  0
 72221  1  0  0  0  0
 73 74  1  0  0  0  0
 73222  1  0  0  0  0
 73223  1  0  0  0  0
 74 75  1  0  0  0  0
 74224  1  0  0  0  0
 74225  1  0  0  0  0
 75 76  1  0  0  0  0
 75226  1  0  0  0  0
 75227  1  0  0  0  0
 76 77  1  0  0  0  0
 76228  1  0  0  0  0
 76229  1  0  0  0  0
 77 78  1  0  0  0  0
 77230  1  0  0  0  0
 77231  1  0  0  0  0
 78 79  1  0  0  0  0
 78232  1  0  0  0  0
 78233  1  0  0  0  0
 79234  1  0  0  0  0
 79235  1  0  0  0  0
 79236  1  0  0  0  0
M  END
$$$$
