
 OpenBabel04232216523D

 50 51  0  0  0  0  0  0  0  0999 V2000
   23.8617   -9.2293  -11.7323 C   0  0  0  0  0  0  0  0  0  0  0  0
   23.0736   -8.3011  -10.7218 C   0  0  0  0  0  0  0  0  0  0  0  0
   21.3331   -8.2773  -10.6204 C   0  0  0  0  0  0  0  0  0  0  0  0
   20.3278   -6.9278  -10.0761 C   0  0  0  0  0  0  0  0  0  0  0  0
   21.1971   -5.9037   -9.7991 C   0  0  0  0  0  0  0  0  0  0  0  0
   22.0394   -6.0976   -8.5838 C   0  0  0  0  0  0  0  0  0  0  0  0
   21.8689   -5.2286   -7.5855 C   0  0  0  0  0  0  0  0  0  0  0  0
   20.8829   -5.7329   -6.5797 C   0  0  0  0  0  0  0  0  0  0  0  0
   19.6984   -4.8259   -6.7695 C   0  0  0  0  0  0  0  0  0  0  0  0
   18.5738   -5.4671   -6.0537 C   0  0  0  0  0  0  0  0  0  0  0  0
   17.4264   -4.5334   -6.1534 C   0  0  0  0  0  0  0  0  0  0  0  0
   16.3567   -5.5304   -6.2317 C   0  0  0  0  0  0  0  0  0  0  0  0
   16.0735   -6.3658   -5.3605 O   0  0  0  0  0  0  0  0  0  0  0  0
   15.5594   -5.3792   -7.4215 C   0  0  0  0  0  0  0  0  0  0  0  0
   15.9440   -5.6390   -8.7235 C   0  0  0  0  0  0  0  0  0  0  0  0
   14.7218   -5.1543   -9.6586 C   0  0  0  0  0  0  0  0  0  0  0  0
   13.1953   -4.9838   -9.1606 C   0  0  0  0  0  0  0  0  0  0  0  0
   12.5040   -4.9037   -7.9778 C   0  0  0  0  0  0  0  0  0  0  0  0
   13.0939   -4.8871   -6.6259 C   0  0  0  0  0  0  0  0  0  0  0  0
   14.4984   -4.3961   -6.8255 C   0  0  0  0  0  0  0  0  0  0  0  0
   17.5682   -5.9642   -9.4019 C   0  0  0  0  0  0  0  0  0  0  0  0
   18.6984   -6.8934   -9.3969 C   0  0  0  0  0  0  0  0  0  0  0  0
   24.9323   -9.3086  -11.4428 H   0  0  0  0  0  0  0  0  0  0  0  0
   23.9024   -8.8229  -12.7521 H   0  0  0  0  0  0  0  0  0  0  0  0
   23.5052  -10.2624  -11.7762 H   0  0  0  0  0  0  0  0  0  0  0  0
   23.4912   -7.3003  -10.8881 H   0  0  0  0  0  0  0  0  0  0  0  0
   23.4565   -8.6256   -9.7404 H   0  0  0  0  0  0  0  0  0  0  0  0
   21.1305   -9.1075   -9.9335 H   0  0  0  0  0  0  0  0  0  0  0  0
   21.0089   -8.5373  -11.6316 H   0  0  0  0  0  0  0  0  0  0  0  0
   22.0140   -5.7725  -10.5274 H   0  0  0  0  0  0  0  0  0  0  0  0
   22.1868   -7.1392   -8.2936 H   0  0  0  0  0  0  0  0  0  0  0  0
   21.7175   -4.1715   -7.8393 H   0  0  0  0  0  0  0  0  0  0  0  0
   21.2274   -5.7286   -5.5453 H   0  0  0  0  0  0  0  0  0  0  0  0
   20.5707   -6.7689   -6.8013 H   0  0  0  0  0  0  0  0  0  0  0  0
   19.4452   -4.6857   -7.8308 H   0  0  0  0  0  0  0  0  0  0  0  0
   19.8820   -3.8228   -6.3819 H   0  0  0  0  0  0  0  0  0  0  0  0
   18.7803   -5.6877   -5.0016 H   0  0  0  0  0  0  0  0  0  0  0  0
   18.3671   -6.4399   -6.5363 H   0  0  0  0  0  0  0  0  0  0  0  0
   17.4401   -3.9281   -7.0777 H   0  0  0  0  0  0  0  0  0  0  0  0
   17.2937   -3.8455   -5.3191 H   0  0  0  0  0  0  0  0  0  0  0  0
   14.6244   -5.8430  -10.5010 H   0  0  0  0  0  0  0  0  0  0  0  0
   14.9745   -4.1584  -10.0410 H   0  0  0  0  0  0  0  0  0  0  0  0
   12.5224   -4.8106   -9.9923 H   0  0  0  0  0  0  0  0  0  0  0  0
   11.4221   -4.7427   -7.9840 H   0  0  0  0  0  0  0  0  0  0  0  0
   12.9958   -5.8385   -6.0853 H   0  0  0  0  0  0  0  0  0  0  0  0
   12.5479   -4.1459   -6.0104 H   0  0  0  0  0  0  0  0  0  0  0  0
   14.7964   -4.0355   -5.8244 H   0  0  0  0  0  0  0  0  0  0  0  0
   14.5124   -3.4642   -7.4056 H   0  0  0  0  0  0  0  0  0  0  0  0
   17.7494   -5.1046  -10.0597 H   0  0  0  0  0  0  0  0  0  0  0  0
   18.5951   -7.8104   -8.8115 H   0  0  0  0  0  0  0  0  0  0  0  0
  1  2  1  0  0  0  0
  1 23  1  0  0  0  0
  1 24  1  0  0  0  0
  1 25  1  0  0  0  0
  2  3  1  0  0  0  0
  2 26  1  0  0  0  0
  2 27  1  0  0  0  0
  3  4  1  0  0  0  0
  3 28  1  0  0  0  0
  3 29  1  0  0  0  0
  4  5  2  3  0  0  0
  4 22  1  0  0  0  0
  5  6  1  0  0  0  0
  5 30  1  0  0  0  0
  6  7  2  3  0  0  0
  6 31  1  0  0  0  0
  7  8  1  0  0  0  0
  7 32  1  0  0  0  0
  8  9  1  0  0  0  0
  8 33  1  0  0  0  0
  8 34  1  0  0  0  0
  9 10  1  0  0  0  0
  9 35  1  0  0  0  0
  9 36  1  0  0  0  0
 10 11  1  0  0  0  0
 10 37  1  0  0  0  0
 10 38  1  0  0  0  0
 11 12  1  0  0  0  0
 11 39  1  0  0  0  0
 11 40  1  0  0  0  0
 12 13  2  0  0  0  0
 12 14  1  0  0  0  0
 14 15  2  0  0  0  0
 14 20  1  0  0  0  0
 15 16  1  0  0  0  0
 15 21  1  0  0  0  0
 16 17  1  0  0  0  0
 16 41  1  0  0  0  0
 16 42  1  0  0  0  0
 17 18  2  0  0  0  0
 17 43  1  0  0  0  0
 18 19  1  0  0  0  0
 18 44  1  0  0  0  0
 19 20  1  0  0  0  0
 19 45  1  0  0  0  0
 19 46  1  0  0  0  0
 20 47  1  0  0  0  0
 20 48  1  0  0  0  0
 21 22  2  3  0  0  0
 21 49  1  0  0  0  0
 22 50  1  0  0  0  0
M  END
$$$$
