
 OpenBabel04232216473D

237237  0  0  1  0  0  0  0  0999 V2000
    1.0462    0.1177    0.0121 C   0  0  0  0  0  0  0  0  0  0  0  0
    2.5377    0.0848    0.0333 C   0  0  3  0  0  0  0  0  0  0  0  0
    3.2826   -0.6867   -1.0227 C   0  0  0  0  0  0  0  0  0  0  0  0
    3.3240    0.8093   -1.0311 C   0  0  3  0  0  0  0  0  0  0  0  0
    4.5869    1.5506   -0.6653 C   0  0  0  0  0  0  0  0  0  0  0  0
    4.3497    3.0600   -0.7348 C   0  0  0  0  0  0  0  0  0  0  0  0
    5.6097    3.8356   -0.3819 C   0  0  0  0  0  0  0  0  0  0  0  0
    5.3447    5.3316   -0.4605 C   0  0  0  0  0  0  0  0  0  0  0  0
    6.6049    6.1028   -0.1085 C   0  0  0  0  0  0  0  0  0  0  0  0
    6.3435    7.5964   -0.1853 C   0  0  0  0  0  0  0  0  0  0  0  0
    7.6060    8.3602    0.1696 C   0  0  0  0  0  0  0  0  0  0  0  0
    7.3453    9.8529    0.0932 C   0  0  0  0  0  0  0  0  0  0  0  0
    8.6076   10.6155    0.4481 C   0  0  0  0  0  0  0  0  0  0  0  0
    8.3465   12.1075    0.3716 C   0  0  0  0  0  0  0  0  0  0  0  0
    9.6084   12.8701    0.7264 C   0  0  0  0  0  0  0  0  0  0  0  0
    9.3472   14.3620    0.6499 C   0  0  0  0  0  0  0  0  0  0  0  0
   10.6086   15.1243    1.0066 C   0  0  0  0  0  0  0  0  0  0  0  0
   10.3469   16.6164    0.9300 C   0  0  0  0  0  0  0  0  0  0  0  0
   11.6092   17.3788    1.2869 C   0  0  0  0  0  0  0  0  0  0  0  0
   11.3472   18.8710    1.2102 C   0  0  0  0  0  0  0  0  0  0  0  0
   12.6093   19.6331    1.5671 C   0  0  0  0  0  0  0  0  0  0  0  0
   12.3473   21.1252    1.4904 C   0  0  0  0  0  0  0  0  0  0  0  0
   13.6094   21.8874    1.8473 C   0  0  0  0  0  0  0  0  0  0  0  0
   13.3475   23.3796    1.7706 C   0  0  0  0  0  0  0  0  0  0  0  0
   14.6096   24.1418    2.1275 C   0  0  0  0  0  0  0  0  0  0  0  0
   14.3476   25.6340    2.0509 C   0  0  0  0  0  0  0  0  0  0  0  0
   15.6092   26.3961    2.4097 C   0  0  0  0  0  0  0  0  0  0  0  0
   15.3472   27.8884    2.3330 C   0  0  0  0  0  0  0  0  0  0  0  0
   16.6094   28.6505    2.6899 C   0  0  0  0  0  0  0  0  0  0  0  0
   16.3479   30.1427    2.6112 C   0  0  0  0  0  0  0  0  0  0  0  0
   17.6101   30.9049    2.9682 C   0  0  0  0  0  0  0  0  0  0  0  0
   17.3481   32.3971    2.8914 C   0  0  0  0  0  0  0  0  0  0  0  0
   18.6097   33.1593    3.2503 C   0  0  0  0  0  0  0  0  0  0  0  0
   18.3477   34.6515    3.1736 C   0  0  0  0  0  0  0  0  0  0  0  0
   19.6093   35.4136    3.5325 C   0  0  0  0  0  0  0  0  0  0  0  0
   19.3473   36.9059    3.4557 C   0  0  0  0  0  0  0  0  0  0  0  0
   20.6089   37.6680    3.8146 C   0  0  0  0  0  0  0  0  0  0  0  0
   20.3469   39.1602    3.7379 C   0  0  0  0  0  0  0  0  0  0  0  0
   21.6085   39.9224    4.0968 C   0  0  0  0  0  0  0  0  0  0  0  0
   21.3460   41.4146    4.0220 C   0  0  0  0  0  0  0  0  0  0  0  0
   22.6081   42.1768    4.3789 C   0  0  0  0  0  0  0  0  0  0  0  0
   22.3456   43.6690    4.3042 C   0  0  0  0  0  0  0  0  0  0  0  0
   23.6077   44.4311    4.6611 C   0  0  0  0  0  0  0  0  0  0  0  0
   23.3452   45.9234    4.5863 C   0  0  0  0  0  0  0  0  0  0  0  0
   24.6079   46.6855    4.9413 C   0  0  0  0  0  0  0  0  0  0  0  0
   24.3459   48.1777    4.8646 C   0  0  0  0  0  0  0  0  0  0  0  0
   25.6081   48.9399    5.2215 C   0  0  0  0  0  0  0  0  0  0  0  0
   25.3455   50.4321    5.1467 C   0  0  0  0  0  0  0  0  0  0  0  0
   26.6082   51.1943    5.5017 C   0  0  0  0  0  0  0  0  0  0  0  0
   26.3462   52.6865    5.4250 C   0  0  0  0  0  0  0  0  0  0  0  0
   27.6089   53.4487    5.7799 C   0  0  0  0  0  0  0  0  0  0  0  0
   27.3469   54.9409    5.7032 C   0  0  0  0  0  0  0  0  0  0  0  0
   28.6091   55.7030    6.0601 C   0  0  0  0  0  0  0  0  0  0  0  0
   28.3471   57.1953    5.9834 C   0  0  0  0  0  0  0  0  0  0  0  0
   29.6092   57.9574    6.3403 C   0  0  0  0  0  0  0  0  0  0  0  0
   29.3467   59.4496    6.2655 C   0  0  0  0  0  0  0  0  0  0  0  0
   30.6088   60.2118    6.6225 C   0  0  0  0  0  0  0  0  0  0  0  0
   30.3458   61.7040    6.5496 C   0  0  0  0  0  0  0  0  0  0  0  0
   31.6073   62.4662    6.9085 C   0  0  0  0  0  0  0  0  0  0  0  0
   31.3448   63.9584    6.8338 C   0  0  0  0  0  0  0  0  0  0  0  0
   32.6058   64.7206    7.1945 C   0  0  0  0  0  0  0  0  0  0  0  0
   32.3428   66.2128    7.1217 C   0  0  0  0  0  0  0  0  0  0  0  0
   33.6043   66.9749    7.4806 C   0  0  0  0  0  0  0  0  0  0  0  0
   33.3407   68.4671    7.4097 C   0  0  0  0  0  0  0  0  0  0  0  0
   34.6017   69.2293    7.7705 C   0  0  0  0  0  0  0  0  0  0  0  0
   34.3375   70.7216    7.7016 C   0  0  0  0  0  0  0  0  0  0  0  0
   35.5986   71.4838    8.0624 C   0  0  0  0  0  0  0  0  0  0  0  0
   35.3350   72.9760    7.9915 C   0  0  0  0  0  0  0  0  0  0  0  0
   36.5967   73.7383    8.3504 C   0  0  0  0  0  0  0  0  0  0  0  0
   36.3324   75.2303    8.2815 C   0  0  0  0  0  0  0  0  0  0  0  0
   37.5929   75.9927    8.6421 C   0  0  0  0  0  0  0  0  0  0  0  0
   37.3293   77.4851    8.5754 C   0  0  0  0  0  0  0  0  0  0  0  0
   38.5897   78.2486    8.9361 C   0  0  0  0  0  0  0  0  0  0  0  0
   38.3271   79.7413    8.8676 C   0  0  0  0  0  0  0  0  0  0  0  0
   39.5872   80.5051    9.2303 C   0  0  0  0  0  0  0  0  0  0  0  0
   39.3251   81.9996    9.1619 C   0  0  0  0  0  0  0  0  0  0  0  0
   40.5851   82.7672    9.5246 C   0  0  0  0  0  0  0  0  0  0  0  0
   40.3319   84.2663    9.4567 C   0  0  0  0  0  0  0  0  0  0  0  0
   41.5909   85.0283    9.8190 C   0  0  0  0  0  0  0  0  0  0  0  0
    0.6473   -0.4644    0.8506 H   0  0  0  0  0  0  0  0  0  0  0  0
    0.6379   -0.3052   -0.9111 H   0  0  0  0  0  0  0  0  0  0  0  0
    0.6857    1.1458    0.1095 H   0  0  0  0  0  0  0  0  0  0  0  0
    2.9227    0.0971    1.0463 H   0  0  0  0  0  0  0  0  0  0  0  0
    2.7086   -1.1656   -1.8124 H   0  0  0  0  0  0  0  0  0  0  0  0
    4.1683   -1.2455   -0.7451 H   0  0  0  0  0  0  0  0  0  0  0  0
    2.8014    1.3037   -1.8339 H   0  0  0  0  0  0  0  0  0  0  0  0
    5.3804    1.2830   -1.3748 H   0  0  0  0  0  0  0  0  0  0  0  0
    4.9441    1.2757    0.3340 H   0  0  0  0  0  0  0  0  0  0  0  0
    3.5344    3.3428   -0.0577 H   0  0  0  0  0  0  0  0  0  0  0  0
    4.0281    3.3382   -1.7463 H   0  0  0  0  0  0  0  0  0  0  0  0
    6.4192    3.5681   -1.0720 H   0  0  0  0  0  0  0  0  0  0  0  0
    5.9416    3.5708    0.6290 H   0  0  0  0  0  0  0  0  0  0  0  0
    4.5366    5.6060    0.2289 H   0  0  0  0  0  0  0  0  0  0  0  0
    5.0133    5.6031   -1.4707 H   0  0  0  0  0  0  0  0  0  0  0  0
    7.4140    5.8314   -0.7978 H   0  0  0  0  0  0  0  0  0  0  0  0
    6.9359    5.8352    0.9023 H   0  0  0  0  0  0  0  0  0  0  0  0
    5.5354    7.8711    0.5038 H   0  0  0  0  0  0  0  0  0  0  0  0
    6.0150    7.8679   -1.1960 H   0  0  0  0  0  0  0  0  0  0  0  0
    8.4149    8.0868   -0.5192 H   0  0  0  0  0  0  0  0  0  0  0  0
    7.9351    8.0900    1.1806 H   0  0  0  0  0  0  0  0  0  0  0  0
    6.5370   10.1269    0.7823 H   0  0  0  0  0  0  0  0  0  0  0  0
    7.0168   10.1237   -0.9177 H   0  0  0  0  0  0  0  0  0  0  0  0
    9.4162   10.3417   -0.2408 H   0  0  0  0  0  0  0  0  0  0  0  0
    8.9364   10.3449    1.4591 H   0  0  0  0  0  0  0  0  0  0  0  0
    7.5379   12.3815    1.0606 H   0  0  0  0  0  0  0  0  0  0  0  0
    8.0177   12.3783   -0.6394 H   0  0  0  0  0  0  0  0  0  0  0  0
   10.4171   12.5963    0.0375 H   0  0  0  0  0  0  0  0  0  0  0  0
    9.9373   12.5994    1.7374 H   0  0  0  0  0  0  0  0  0  0  0  0
    8.5376   14.6359    1.3378 H   0  0  0  0  0  0  0  0  0  0  0  0
    9.0197   14.6331   -0.3614 H   0  0  0  0  0  0  0  0  0  0  0  0
   11.4185   14.8508    0.3189 H   0  0  0  0  0  0  0  0  0  0  0  0
   10.9364   14.8535    2.0180 H   0  0  0  0  0  0  0  0  0  0  0  0
    9.5375   16.8902    1.6178 H   0  0  0  0  0  0  0  0  0  0  0  0
   10.0196   16.8875   -0.0813 H   0  0  0  0  0  0  0  0  0  0  0  0
   12.4187   17.1050    0.5991 H   0  0  0  0  0  0  0  0  0  0  0  0
   11.9365   17.1077    2.2982 H   0  0  0  0  0  0  0  0  0  0  0  0
   10.5376   19.1445    1.8980 H   0  0  0  0  0  0  0  0  0  0  0  0
   11.0197   19.1418    0.1989 H   0  0  0  0  0  0  0  0  0  0  0  0
   13.4188   19.3593    0.8793 H   0  0  0  0  0  0  0  0  0  0  0  0
   12.9367   19.3621    2.5785 H   0  0  0  0  0  0  0  0  0  0  0  0
   11.5377   21.3989    2.1783 H   0  0  0  0  0  0  0  0  0  0  0  0
   12.0199   21.3962    0.4791 H   0  0  0  0  0  0  0  0  0  0  0  0
   14.4190   21.6137    1.1595 H   0  0  0  0  0  0  0  0  0  0  0  0
   13.9368   21.6164    2.8587 H   0  0  0  0  0  0  0  0  0  0  0  0
   12.5379   23.6533    2.4585 H   0  0  0  0  0  0  0  0  0  0  0  0
   13.0200   23.6506    0.7593 H   0  0  0  0  0  0  0  0  0  0  0  0
   15.4192   23.8681    1.4397 H   0  0  0  0  0  0  0  0  0  0  0  0
   14.9370   23.8708    3.1389 H   0  0  0  0  0  0  0  0  0  0  0  0
   13.5371   25.9074    2.7376 H   0  0  0  0  0  0  0  0  0  0  0  0
   14.0216   25.9051    1.0391 H   0  0  0  0  0  0  0  0  0  0  0  0
   16.4197   26.1227    1.7229 H   0  0  0  0  0  0  0  0  0  0  0  0
   15.9352   26.1250    3.4214 H   0  0  0  0  0  0  0  0  0  0  0  0
   14.5377   28.1620    3.0208 H   0  0  0  0  0  0  0  0  0  0  0  0
   15.0198   28.1593    1.3216 H   0  0  0  0  0  0  0  0  0  0  0  0
   17.4193   28.3758    2.0029 H   0  0  0  0  0  0  0  0  0  0  0  0
   16.9360   28.3806    3.7018 H   0  0  0  0  0  0  0  0  0  0  0  0
   15.5380   30.4174    3.2982 H   0  0  0  0  0  0  0  0  0  0  0  0
   16.0214   30.4126    1.5994 H   0  0  0  0  0  0  0  0  0  0  0  0
   18.4196   30.6312    2.2803 H   0  0  0  0  0  0  0  0  0  0  0  0
   17.9375   30.6339    3.9795 H   0  0  0  0  0  0  0  0  0  0  0  0
   16.5376   32.6706    3.5782 H   0  0  0  0  0  0  0  0  0  0  0  0
   17.0221   32.6683    1.8797 H   0  0  0  0  0  0  0  0  0  0  0  0
   19.4202   32.8858    2.5635 H   0  0  0  0  0  0  0  0  0  0  0  0
   18.9357   32.8881    4.2620 H   0  0  0  0  0  0  0  0  0  0  0  0
   17.5372   34.9249    3.8604 H   0  0  0  0  0  0  0  0  0  0  0  0
   18.0217   34.9227    2.1619 H   0  0  0  0  0  0  0  0  0  0  0  0
   20.4198   35.1402    2.8457 H   0  0  0  0  0  0  0  0  0  0  0  0
   19.9353   35.1424    4.5442 H   0  0  0  0  0  0  0  0  0  0  0  0
   18.5368   37.1793    4.1425 H   0  0  0  0  0  0  0  0  0  0  0  0
   19.0213   37.1770    2.4440 H   0  0  0  0  0  0  0  0  0  0  0  0
   21.4194   37.3946    3.1278 H   0  0  0  0  0  0  0  0  0  0  0  0
   20.9349   37.3968    4.8263 H   0  0  0  0  0  0  0  0  0  0  0  0
   19.5364   39.4336    4.4247 H   0  0  0  0  0  0  0  0  0  0  0  0
   20.0209   39.4314    2.7262 H   0  0  0  0  0  0  0  0  0  0  0  0
   22.4186   39.6500    3.4091 H   0  0  0  0  0  0  0  0  0  0  0  0
   21.9354   39.6502    5.1079 H   0  0  0  0  0  0  0  0  0  0  0  0
   20.5368   41.6872    4.7107 H   0  0  0  0  0  0  0  0  0  0  0  0
   21.0178   41.6867    3.0112 H   0  0  0  0  0  0  0  0  0  0  0  0
   23.4173   41.9042    3.6902 H   0  0  0  0  0  0  0  0  0  0  0  0
   22.9363   41.9047    5.3897 H   0  0  0  0  0  0  0  0  0  0  0  0
   21.5365   43.9416    4.9929 H   0  0  0  0  0  0  0  0  0  0  0  0
   22.0174   43.9410    3.2934 H   0  0  0  0  0  0  0  0  0  0  0  0
   24.4169   44.1585    3.9723 H   0  0  0  0  0  0  0  0  0  0  0  0
   23.9360   44.1591    5.6718 H   0  0  0  0  0  0  0  0  0  0  0  0
   22.5370   46.1962    5.2761 H   0  0  0  0  0  0  0  0  0  0  0  0
   23.0156   46.1952    3.5759 H   0  0  0  0  0  0  0  0  0  0  0  0
   25.4165   46.4117    4.2524 H   0  0  0  0  0  0  0  0  0  0  0  0
   24.9367   46.4147    5.9522 H   0  0  0  0  0  0  0  0  0  0  0  0
   23.5364   48.4514    5.5524 H   0  0  0  0  0  0  0  0  0  0  0  0
   24.0185   48.4487    3.8533 H   0  0  0  0  0  0  0  0  0  0  0  0
   26.4172   48.6672    4.5327 H   0  0  0  0  0  0  0  0  0  0  0  0
   25.9363   48.6679    6.2323 H   0  0  0  0  0  0  0  0  0  0  0  0
   24.5374   50.7049    5.8365 H   0  0  0  0  0  0  0  0  0  0  0  0
   25.0160   50.7039    4.1363 H   0  0  0  0  0  0  0  0  0  0  0  0
   27.4168   50.9204    4.8128 H   0  0  0  0  0  0  0  0  0  0  0  0
   26.9370   50.9235    6.5126 H   0  0  0  0  0  0  0  0  0  0  0  0
   25.5377   52.9604    6.1139 H   0  0  0  0  0  0  0  0  0  0  0  0
   26.0174   52.9572    4.4140 H   0  0  0  0  0  0  0  0  0  0  0  0
   28.4175   53.1748    5.0911 H   0  0  0  0  0  0  0  0  0  0  0  0
   27.9377   53.1779    6.7909 H   0  0  0  0  0  0  0  0  0  0  0  0
   26.5374   55.2146    6.3911 H   0  0  0  0  0  0  0  0  0  0  0  0
   27.0195   55.2118    4.6919 H   0  0  0  0  0  0  0  0  0  0  0  0
   29.4186   55.4294    5.3723 H   0  0  0  0  0  0  0  0  0  0  0  0
   28.9365   55.4321    7.0715 H   0  0  0  0  0  0  0  0  0  0  0  0
   27.5375   57.4689    6.6713 H   0  0  0  0  0  0  0  0  0  0  0  0
   28.0197   57.4662    4.9721 H   0  0  0  0  0  0  0  0  0  0  0  0
   30.4184   57.6848    5.6516 H   0  0  0  0  0  0  0  0  0  0  0  0
   29.9374   57.6854    7.3511 H   0  0  0  0  0  0  0  0  0  0  0  0
   28.5375   59.7222    6.9543 H   0  0  0  0  0  0  0  0  0  0  0  0
   29.0185   59.7217    5.2548 H   0  0  0  0  0  0  0  0  0  0  0  0
   31.4176   59.9403    5.9329 H   0  0  0  0  0  0  0  0  0  0  0  0
   30.9378   59.9387    7.6327 H   0  0  0  0  0  0  0  0  0  0  0  0
   29.5360   61.9753    7.2382 H   0  0  0  0  0  0  0  0  0  0  0  0
   30.0181   61.9773    5.5390 H   0  0  0  0  0  0  0  0  0  0  0  0
   32.4175   62.1939    6.2209 H   0  0  0  0  0  0  0  0  0  0  0  0
   31.9341   62.1939    7.9197 H   0  0  0  0  0  0  0  0  0  0  0  0
   30.5337   64.2305    7.5204 H   0  0  0  0  0  0  0  0  0  0  0  0
   31.0193   64.2309    5.8222 H   0  0  0  0  0  0  0  0  0  0  0  0
   33.4165   64.4494    6.5070 H   0  0  0  0  0  0  0  0  0  0  0  0
   32.9321   64.4470    8.2056 H   0  0  0  0  0  0  0  0  0  0  0  0
   31.5330   66.4840    7.8103 H   0  0  0  0  0  0  0  0  0  0  0  0
   32.0151   66.4862    6.1111 H   0  0  0  0  0  0  0  0  0  0  0  0
   34.4137   66.7047    6.7912 H   0  0  0  0  0  0  0  0  0  0  0  0
   33.9327   66.7005    8.4907 H   0  0  0  0  0  0  0  0  0  0  0  0
   32.5304   68.7371    8.0982 H   0  0  0  0  0  0  0  0  0  0  0  0
   33.0136   68.7418    6.3993 H   0  0  0  0  0  0  0  0  0  0  0  0
   35.4116   68.9604    7.0812 H   0  0  0  0  0  0  0  0  0  0  0  0
   34.9296   68.9536    8.7804 H   0  0  0  0  0  0  0  0  0  0  0  0
   33.5276   70.9904    8.3909 H   0  0  0  0  0  0  0  0  0  0  0  0
   34.0097   70.9972    6.6917 H   0  0  0  0  0  0  0  0  0  0  0  0
   36.4089   71.2137    7.3740 H   0  0  0  0  0  0  0  0  0  0  0  0
   35.9256   71.2090    9.0728 H   0  0  0  0  0  0  0  0  0  0  0  0
   34.5256   73.2460    8.6810 H   0  0  0  0  0  0  0  0  0  0  0  0
   35.0065   73.2504    6.9815 H   0  0  0  0  0  0  0  0  0  0  0  0
   37.4055   73.4690    7.6601 H   0  0  0  0  0  0  0  0  0  0  0  0
   36.9257   73.4626    9.3599 H   0  0  0  0  0  0  0  0  0  0  0  0
   35.5224   75.4992    8.9707 H   0  0  0  0  0  0  0  0  0  0  0  0
   36.0043   75.5061    7.2716 H   0  0  0  0  0  0  0  0  0  0  0  0
   38.4025   75.7249    7.9519 H   0  0  0  0  0  0  0  0  0  0  0  0
   37.9217   75.7160    9.6515 H   0  0  0  0  0  0  0  0  0  0  0  0
   36.5196   77.7528    9.2656 H   0  0  0  0  0  0  0  0  0  0  0  0
   37.0004   77.7618    7.5660 H   0  0  0  0  0  0  0  0  0  0  0  0
   39.3994   77.9791    8.2467 H   0  0  0  0  0  0  0  0  0  0  0  0
   38.9173   77.9721    9.9459 H   0  0  0  0  0  0  0  0  0  0  0  0
   37.5157   80.0095    9.5555 H   0  0  0  0  0  0  0  0  0  0  0  0
   38.0001   80.0166    7.8572 H   0  0  0  0  0  0  0  0  0  0  0  0
   40.3977   80.2348    8.5420 H   0  0  0  0  0  0  0  0  0  0  0  0
   39.9133   80.2276   10.2403 H   0  0  0  0  0  0  0  0  0  0  0  0
   38.5138   82.2666    9.8500 H   0  0  0  0  0  0  0  0  0  0  0  0
   38.9982   82.2738    8.1516 H   0  0  0  0  0  0  0  0  0  0  0  0
   41.3954   82.4937    8.8372 H   0  0  0  0  0  0  0  0  0  0  0  0
   40.9099   82.4885   10.5349 H   0  0  0  0  0  0  0  0  0  0  0  0
   39.5235   84.5406   10.1449 H   0  0  0  0  0  0  0  0  0  0  0  0
   40.0092   84.5457    8.4467 H   0  0  0  0  0  0  0  0  0  0  0  0
   41.9155   84.7772   10.8338 H   0  0  0  0  0  0  0  0  0  0  0  0
   41.4103   86.1062    9.7706 H   0  0  0  0  0  0  0  0  0  0  0  0
   42.4034   84.7824    9.1279 H   0  0  0  0  0  0  0  0  0  0  0  0
  1  2  1  0  0  0  0
  1 80  1  0  0  0  0
  1 81  1  0  0  0  0
  1 82  1  0  0  0  0
  2  3  1  0  0  0  0
  2  4  1  0  0  0  0
  2 83  1  0  0  0  0
  3  4  1  0  0  0  0
  3 84  1  0  0  0  0
  3 85  1  0  0  0  0
  4  5  1  0  0  0  0
  4 86  1  0  0  0  0
  5  6  1  0  0  0  0
  5 87  1  0  0  0  0
  5 88  1  0  0  0  0
  6  7  1  0  0  0  0
  6 89  1  0  0  0  0
  6 90  1  0  0  0  0
  7  8  1  0  0  0  0
  7 91  1  0  0  0  0
  7 92  1  0  0  0  0
  8  9  1  0  0  0  0
  8 93  1  0  0  0  0
  8 94  1  0  0  0  0
  9 10  1  0  0  0  0
  9 95  1  0  0  0  0
  9 96  1  0  0  0  0
 10 11  1  0  0  0  0
 10 97  1  0  0  0  0
 10 98  1  0  0  0  0
 11 12  1  0  0  0  0
 11 99  1  0  0  0  0
 11100  1  0  0  0  0
 12 13  1  0  0  0  0
 12101  1  0  0  0  0
 12102  1  0  0  0  0
 13 14  1  0  0  0  0
 13103  1  0  0  0  0
 13104  1  0  0  0  0
 14 15  1  0  0  0  0
 14105  1  0  0  0  0
 14106  1  0  0  0  0
 15 16  1  0  0  0  0
 15107  1  0  0  0  0
 15108  1  0  0  0  0
 16 17  1  0  0  0  0
 16109  1  0  0  0  0
 16110  1  0  0  0  0
 17 18  1  0  0  0  0
 17111  1  0  0  0  0
 17112  1  0  0  0  0
 18 19  1  0  0  0  0
 18113  1  0  0  0  0
 18114  1  0  0  0  0
 19 20  1  0  0  0  0
 19115  1  0  0  0  0
 19116  1  0  0  0  0
 20 21  1  0  0  0  0
 20117  1  0  0  0  0
 20118  1  0  0  0  0
 21 22  1  0  0  0  0
 21119  1  0  0  0  0
 21120  1  0  0  0  0
 22 23  1  0  0  0  0
 22121  1  0  0  0  0
 22122  1  0  0  0  0
 23 24  1  0  0  0  0
 23123  1  0  0  0  0
 23124  1  0  0  0  0
 24 25  1  0  0  0  0
 24125  1  0  0  0  0
 24126  1  0  0  0  0
 25 26  1  0  0  0  0
 25127  1  0  0  0  0
 25128  1  0  0  0  0
 26 27  1  0  0  0  0
 26129  1  0  0  0  0
 26130  1  0  0  0  0
 27 28  1  0  0  0  0
 27131  1  0  0  0  0
 27132  1  0  0  0  0
 28 29  1  0  0  0  0
 28133  1  0  0  0  0
 28134  1  0  0  0  0
 29 30  1  0  0  0  0
 29135  1  0  0  0  0
 29136  1  0  0  0  0
 30 31  1  0  0  0  0
 30137  1  0  0  0  0
 30138  1  0  0  0  0
 31 32  1  0  0  0  0
 31139  1  0  0  0  0
 31140  1  0  0  0  0
 32 33  1  0  0  0  0
 32141  1  0  0  0  0
 32142  1  0  0  0  0
 33 34  1  0  0  0  0
 33143  1  0  0  0  0
 33144  1  0  0  0  0
 34 35  1  0  0  0  0
 34145  1  0  0  0  0
 34146  1  0  0  0  0
 35 36  1  0  0  0  0
 35147  1  0  0  0  0
 35148  1  0  0  0  0
 36 37  1  0  0  0  0
 36149  1  0  0  0  0
 36150  1  0  0  0  0
 37 38  1  0  0  0  0
 37151  1  0  0  0  0
 37152  1  0  0  0  0
 38 39  1  0  0  0  0
 38153  1  0  0  0  0
 38154  1  0  0  0  0
 39 40  1  0  0  0  0
 39155  1  0  0  0  0
 39156  1  0  0  0  0
 40 41  1  0  0  0  0
 40157  1  0  0  0  0
 40158  1  0  0  0  0
 41 42  1  0  0  0  0
 41159  1  0  0  0  0
 41160  1  0  0  0  0
 42 43  1  0  0  0  0
 42161  1  0  0  0  0
 42162  1  0  0  0  0
 43 44  1  0  0  0  0
 43163  1  0  0  0  0
 43164  1  0  0  0  0
 44 45  1  0  0  0  0
 44165  1  0  0  0  0
 44166  1  0  0  0  0
 45 46  1  0  0  0  0
 45167  1  0  0  0  0
 45168  1  0  0  0  0
 46 47  1  0  0  0  0
 46169  1  0  0  0  0
 46170  1  0  0  0  0
 47 48  1  0  0  0  0
 47171  1  0  0  0  0
 47172  1  0  0  0  0
 48 49  1  0  0  0  0
 48173  1  0  0  0  0
 48174  1  0  0  0  0
 49 50  1  0  0  0  0
 49175  1  0  0  0  0
 49176  1  0  0  0  0
 50 51  1  0  0  0  0
 50177  1  0  0  0  0
 50178  1  0  0  0  0
 51 52  1  0  0  0  0
 51179  1  0  0  0  0
 51180  1  0  0  0  0
 52 53  1  0  0  0  0
 52181  1  0  0  0  0
 52182  1  0  0  0  0
 53 54  1  0  0  0  0
 53183  1  0  0  0  0
 53184  1  0  0  0  0
 54 55  1  0  0  0  0
 54185  1  0  0  0  0
 54186  1  0  0  0  0
 55 56  1  0  0  0  0
 55187  1  0  0  0  0
 55188  1  0  0  0  0
 56 57  1  0  0  0  0
 56189  1  0  0  0  0
 56190  1  0  0  0  0
 57 58  1  0  0  0  0
 57191  1  0  0  0  0
 57192  1  0  0  0  0
 58 59  1  0  0  0  0
 58193  1  0  0  0  0
 58194  1  0  0  0  0
 59 60  1  0  0  0  0
 59195  1  0  0  0  0
 59196  1  0  0  0  0
 60 61  1  0  0  0  0
 60197  1  0  0  0  0
 60198  1  0  0  0  0
 61 62  1  0  0  0  0
 61199  1  0  0  0  0
 61200  1  0  0  0  0
 62 63  1  0  0  0  0
 62201  1  0  0  0  0
 62202  1  0  0  0  0
 63 64  1  0  0  0  0
 63203  1  0  0  0  0
 63204  1  0  0  0  0
 64 65  1  0  0  0  0
 64205  1  0  0  0  0
 64206  1  0  0  0  0
 65 66  1  0  0  0  0
 65207  1  0  0  0  0
 65208  1  0  0  0  0
 66 67  1  0  0  0  0
 66209  1  0  0  0  0
 66210  1  0  0  0  0
 67 68  1  0  0  0  0
 67211  1  0  0  0  0
 67212  1  0  0  0  0
 68 69  1  0  0  0  0
 68213  1  0  0  0  0
 68214  1  0  0  0  0
 69 70  1  0  0  0  0
 69215  1  0  0  0  0
 69216  1  0  0  0  0
 70 71  1  0  0  0  0
 70217  1  0  0  0  0
 70218  1  0  0  0  0
 71 72  1  0  0  0  0
 71219  1  0  0  0  0
 71220  1  0  0  0  0
 72 73  1  0  0  0  0
 72221  1  0  0  0  0
 72222  1  0  0  0  0
 73 74  1  0  0  0  0
 73223  1  0  0  0  0
 73224  1  0  0  0  0
 74 75  1  0  0  0  0
 74225  1  0  0  0  0
 74226  1  0  0  0  0
 75 76  1  0  0  0  0
 75227  1  0  0  0  0
 75228  1  0  0  0  0
 76 77  1  0  0  0  0
 76229  1  0  0  0  0
 76230  1  0  0  0  0
 77 78  1  0  0  0  0
 77231  1  0  0  0  0
 77232  1  0  0  0  0
 78 79  1  0  0  0  0
 78233  1  0  0  0  0
 78234  1  0  0  0  0
 79235  1  0  0  0  0
 79236  1  0  0  0  0
 79237  1  0  0  0  0
M  END
$$$$
