
 OpenBabel04232216443D

 46 48  0  0  0  0  0  0  0  0999 V2000
    0.8801    0.5476    0.0374 C   0  0  0  0  0  0  0  0  0  0  0  0
    2.3866    0.3602   -0.0058 C   0  0  0  0  0  0  0  0  0  0  0  0
    2.9457   -0.9152   -0.1913 C   0  0  0  0  0  0  0  0  0  0  0  0
    2.0321   -2.0220   -0.6455 C   0  0  0  0  0  0  0  0  0  0  0  0
    4.3473   -1.1223   -0.0308 C   0  0  0  0  0  0  0  0  0  0  0  0
    4.9078   -2.5525   -0.0355 C   0  0  0  0  0  0  0  0  0  0  0  0
    4.2068   -3.7305    0.6146 C   0  0  0  0  0  0  0  0  0  0  0  0
    3.1972   -4.7306    0.0668 C   0  0  0  0  0  0  0  0  0  0  0  0
    4.6405   -5.0829    0.0509 C   0  0  0  0  0  0  0  0  0  0  0  0
    5.2819    0.0308    0.0187 C   0  0  0  0  0  0  0  0  0  0  0  0
    6.7740    0.0568   -0.0133 C   0  0  0  0  0  0  0  0  0  0  0  0
    7.6491   -1.1748   -0.1492 C   0  0  0  0  0  0  0  0  0  0  0  0
    7.5268    1.2855    0.0708 C   0  0  0  0  0  0  0  0  0  0  0  0
    9.0416    1.3244    0.1051 C   0  0  0  0  0  0  0  0  0  0  0  0
    6.8551    2.5008    0.0930 C   0  0  0  0  0  0  0  0  0  0  0  0
    7.5238    3.8537    0.0972 C   0  0  0  0  0  0  0  0  0  0  0  0
    5.4612    2.4846    0.0935 C   0  0  0  0  0  0  0  0  0  0  0  0
    4.6547    1.3270    0.0668 C   0  0  0  0  0  0  0  0  0  0  0  0
    3.2329    1.4845    0.0753 C   0  0  0  0  0  0  0  0  0  0  0  0
    2.5406    2.8407    0.1276 C   0  0  0  0  0  0  0  0  0  0  0  0
    0.3484   -0.3696    0.3067 H   0  0  0  0  0  0  0  0  0  0  0  0
    0.5135    0.8984   -0.9324 H   0  0  0  0  0  0  0  0  0  0  0  0
    0.5948    1.2623    0.8158 H   0  0  0  0  0  0  0  0  0  0  0  0
    1.1540   -1.6501   -1.1839 H   0  0  0  0  0  0  0  0  0  0  0  0
    1.6841   -2.6130    0.2047 H   0  0  0  0  0  0  0  0  0  0  0  0
    2.5416   -2.6251   -1.3991 H   0  0  0  0  0  0  0  0  0  0  0  0
    5.7786   -2.5114    0.6216 H   0  0  0  0  0  0  0  0  0  0  0  0
    5.2117   -2.7929   -1.0597 H   0  0  0  0  0  0  0  0  0  0  0  0
    4.2286   -3.6300    1.6976 H   0  0  0  0  0  0  0  0  0  0  0  0
    2.7193   -4.6073   -0.8939 H   0  0  0  0  0  0  0  0  0  0  0  0
    2.5664   -5.2400    0.7908 H   0  0  0  0  0  0  0  0  0  0  0  0
    5.0940   -5.1326   -0.9368 H   0  0  0  0  0  0  0  0  0  0  0  0
    4.9875   -5.8546    0.7254 H   0  0  0  0  0  0  0  0  0  0  0  0
    7.1716   -2.0619   -0.5363 H   0  0  0  0  0  0  0  0  0  0  0  0
    8.1099   -1.4010    0.8239 H   0  0  0  0  0  0  0  0  0  0  0  0
    8.4324   -0.9988   -0.8950 H   0  0  0  0  0  0  0  0  0  0  0  0
    9.5277    0.3533    0.1951 H   0  0  0  0  0  0  0  0  0  0  0  0
    9.3753    1.8941    0.9802 H   0  0  0  0  0  0  0  0  0  0  0  0
    9.4217    1.7952   -0.8089 H   0  0  0  0  0  0  0  0  0  0  0  0
    8.6131    3.8081    0.0866 H   0  0  0  0  0  0  0  0  0  0  0  0
    7.2258    4.4120    0.9929 H   0  0  0  0  0  0  0  0  0  0  0  0
    7.2170    4.4184   -0.7896 H   0  0  0  0  0  0  0  0  0  0  0  0
    5.0137    3.4725    0.1058 H   0  0  0  0  0  0  0  0  0  0  0  0
    3.1776    3.7160    0.0303 H   0  0  0  0  0  0  0  0  0  0  0  0
    2.0097    2.9492    1.0789 H   0  0  0  0  0  0  0  0  0  0  0  0
    1.8295    2.9263   -0.7028 H   0  0  0  0  0  0  0  0  0  0  0  0
  1  2  1  0  0  0  0
  1 21  1  0  0  0  0
  1 22  1  0  0  0  0
  1 23  1  0  0  0  0
  2  3  1  0  0  0  0
  2 19  2  0  0  0  0
  3  4  1  0  0  0  0
  3  5  2  0  0  0  0
  4 24  1  0  0  0  0
  4 25  1  0  0  0  0
  4 26  1  0  0  0  0
  5  6  1  0  0  0  0
  5 10  1  0  0  0  0
  6  7  1  0  0  0  0
  6 27  1  0  0  0  0
  6 28  1  0  0  0  0
  7  8  1  0  0  0  0
  7  9  1  0  0  0  0
  7 29  1  0  0  0  0
  8  9  1  0  0  0  0
  8 30  1  0  0  0  0
  8 31  1  0  0  0  0
  9 32  1  0  0  0  0
  9 33  1  0  0  0  0
 10 11  1  0  0  0  0
 10 18  2  0  0  0  0
 11 12  1  0  0  0  0
 11 13  2  0  0  0  0
 12 34  1  0  0  0  0
 12 35  1  0  0  0  0
 12 36  1  0  0  0  0
 13 14  1  0  0  0  0
 13 15  1  0  0  0  0
 14 37  1  0  0  0  0
 14 38  1  0  0  0  0
 14 39  1  0  0  0  0
 15 16  1  0  0  0  0
 15 17  2  0  0  0  0
 16 40  1  0  0  0  0
 16 41  1  0  0  0  0
 16 42  1  0  0  0  0
 17 18  1  0  0  0  0
 17 43  1  0  0  0  0
 18 19  1  0  0  0  0
 19 20  1  0  0  0  0
 20 44  1  0  0  0  0
 20 45  1  0  0  0  0
 20 46  1  0  0  0  0
M  END
$$$$
