
 OpenBabel04232216553D

236235  0  0  0  0  0  0  0  0999 V2000
    0.9094    0.0759    0.0821 C   0  0  0  0  0  0  0  0  0  0  0  0
    2.3697    0.0539    0.0371 N   0  0  0  0  0  0  0  0  0  0  0  0
    2.8948    0.6895   -1.1812 C   0  0  0  0  0  0  0  0  0  0  0  0
    2.4161    0.0005   -2.4544 C   0  0  0  0  0  0  0  0  0  0  0  0
    2.8847    0.7378    1.2267 C   0  0  0  0  0  0  0  0  0  0  0  0
    4.3062    0.7430    1.2538 O   0  0  0  0  0  0  0  0  0  0  0  0
    4.7691    1.4189    2.4130 C   0  0  0  0  0  0  0  0  0  0  0  0
    6.2882    1.4092    2.3995 C   0  0  0  0  0  0  0  0  0  0  0  0
    6.8121    2.1232    3.6372 C   0  0  0  0  0  0  0  0  0  0  0  0
    8.3272    2.1249    3.6430 C   0  0  0  0  0  0  0  0  0  0  0  0
    8.8379    2.8435    4.8824 C   0  0  0  0  0  0  0  0  0  0  0  0
   10.3565    2.8474    4.8888 C   0  0  0  0  0  0  0  0  0  0  0  0
   10.8673    3.5625    6.1268 C   0  0  0  0  0  0  0  0  0  0  0  0
   12.3845    3.5653    6.1311 C   0  0  0  0  0  0  0  0  0  0  0  0
   12.8938    4.2783    7.3678 C   0  0  0  0  0  0  0  0  0  0  0  0
   14.4128    4.2821    7.3713 C   0  0  0  0  0  0  0  0  0  0  0  0
   14.9221    4.9967    8.6092 C   0  0  0  0  0  0  0  0  0  0  0  0
   16.4385    5.0024    8.6111 C   0  0  0  0  0  0  0  0  0  0  0  0
   16.9489    5.7181    9.8470 C   0  0  0  0  0  0  0  0  0  0  0  0
   18.4655    5.7223    9.8499 C   0  0  0  0  0  0  0  0  0  0  0  0
   18.9758    6.4399   11.0853 C   0  0  0  0  0  0  0  0  0  0  0  0
   20.4921    6.4458   11.0872 C   0  0  0  0  0  0  0  0  0  0  0  0
   21.0023    7.1615   12.3232 C   0  0  0  0  0  0  0  0  0  0  0  0
   22.5191    7.1656   12.3264 C   0  0  0  0  0  0  0  0  0  0  0  0
   23.0292    7.8832   13.5612 C   0  0  0  0  0  0  0  0  0  0  0  0
   24.5456    7.8873   13.5647 C   0  0  0  0  0  0  0  0  0  0  0  0
   25.0559    8.6066   14.7982 C   0  0  0  0  0  0  0  0  0  0  0  0
   26.5723    8.6108   14.8018 C   0  0  0  0  0  0  0  0  0  0  0  0
   27.0825    9.3300   16.0353 C   0  0  0  0  0  0  0  0  0  0  0  0
   28.5989    9.3342   16.0388 C   0  0  0  0  0  0  0  0  0  0  0  0
   29.1092   10.0533   17.2725 C   0  0  0  0  0  0  0  0  0  0  0  0
   30.6256   10.0595   17.2748 C   0  0  0  0  0  0  0  0  0  0  0  0
   31.1359   10.7785   18.5085 C   0  0  0  0  0  0  0  0  0  0  0  0
   32.6522   10.7846   18.5109 C   0  0  0  0  0  0  0  0  0  0  0  0
   33.1625   11.5037   19.7447 C   0  0  0  0  0  0  0  0  0  0  0  0
   34.6788   11.5100   19.7471 C   0  0  0  0  0  0  0  0  0  0  0  0
   35.1891   12.2271   20.9818 C   0  0  0  0  0  0  0  0  0  0  0  0
   36.7057   12.2313   20.9850 C   0  0  0  0  0  0  0  0  0  0  0  0
   37.2159   12.9506   22.2186 C   0  0  0  0  0  0  0  0  0  0  0  0
   38.7322   12.9531   22.2232 C   0  0  0  0  0  0  0  0  0  0  0  0
   39.2425   13.6705   23.4579 C   0  0  0  0  0  0  0  0  0  0  0  0
   40.7589   13.6713   23.4633 C   0  0  0  0  0  0  0  0  0  0  0  0
   41.2692   14.3887   24.6980 C   0  0  0  0  0  0  0  0  0  0  0  0
   42.7855   14.3894   24.7035 C   0  0  0  0  0  0  0  0  0  0  0  0
   43.2958   15.1069   25.9381 C   0  0  0  0  0  0  0  0  0  0  0  0
   44.8122   15.1076   25.9435 C   0  0  0  0  0  0  0  0  0  0  0  0
   45.3225   15.8250   27.1783 C   0  0  0  0  0  0  0  0  0  0  0  0
   46.8388   15.8275   27.1828 C   0  0  0  0  0  0  0  0  0  0  0  0
   47.3490   16.5468   28.4165 C   0  0  0  0  0  0  0  0  0  0  0  0
   48.8656   16.5511   28.4197 C   0  0  0  0  0  0  0  0  0  0  0  0
   49.3758   17.2683   29.6545 C   0  0  0  0  0  0  0  0  0  0  0  0
   50.8921   17.2726   29.6580 C   0  0  0  0  0  0  0  0  0  0  0  0
   51.4024   17.9920   30.8915 C   0  0  0  0  0  0  0  0  0  0  0  0
   52.9190   17.9978   30.8938 C   0  0  0  0  0  0  0  0  0  0  0  0
   53.4291   18.7151   32.1287 C   0  0  0  0  0  0  0  0  0  0  0  0
   54.9455   18.7230   32.1299 C   0  0  0  0  0  0  0  0  0  0  0  0
   55.4558   19.4402   33.3647 C   0  0  0  0  0  0  0  0  0  0  0  0
   56.9721   19.4500   33.3650 C   0  0  0  0  0  0  0  0  0  0  0  0
   57.4824   20.1672   34.5997 C   0  0  0  0  0  0  0  0  0  0  0  0
   58.9988   20.1768   34.6001 C   0  0  0  0  0  0  0  0  0  0  0  0
   59.5091   20.8941   35.8348 C   0  0  0  0  0  0  0  0  0  0  0  0
   61.0254   20.9037   35.8352 C   0  0  0  0  0  0  0  0  0  0  0  0
   61.5358   21.6211   37.0699 C   0  0  0  0  0  0  0  0  0  0  0  0
   63.0521   21.6307   37.0703 C   0  0  0  0  0  0  0  0  0  0  0  0
   63.5623   22.3479   38.3049 C   0  0  0  0  0  0  0  0  0  0  0  0
   65.0792   22.3574   38.3048 C   0  0  0  0  0  0  0  0  0  0  0  0
   65.5893   23.0753   39.5407 C   0  0  0  0  0  0  0  0  0  0  0  0
   67.1058   23.0829   39.5417 C   0  0  0  0  0  0  0  0  0  0  0  0
   67.6164   23.8001   40.7760 C   0  0  0  0  0  0  0  0  0  0  0  0
   69.1330   23.8077   40.7772 C   0  0  0  0  0  0  0  0  0  0  0  0
   69.6433   24.5254   42.0123 C   0  0  0  0  0  0  0  0  0  0  0  0
   71.1608   24.5333   42.0140 C   0  0  0  0  0  0  0  0  0  0  0  0
   71.6717   25.2514   43.2499 C   0  0  0  0  0  0  0  0  0  0  0  0
   73.1888   25.2572   43.2517 C   0  0  0  0  0  0  0  0  0  0  0  0
   73.7066   25.9760   44.4889 C   0  0  0  0  0  0  0  0  0  0  0  0
   75.2227   25.9828   44.4926 C   0  0  0  0  0  0  0  0  0  0  0  0
   75.7386   26.6993   45.7298 C   0  0  0  0  0  0  0  0  0  0  0  0
   77.2612   26.7144   45.7439 C   0  0  0  0  0  0  0  0  0  0  0  0
   77.7730   27.4296   46.9789 C   0  0  0  0  0  0  0  0  0  0  0  0
    0.4728   -0.5089   -0.7322 H   0  0  0  0  0  0  0  0  0  0  0  0
    0.5162    1.0985    0.0277 H   0  0  0  0  0  0  0  0  0  0  0  0
    0.5421   -0.3880    1.0036 H   0  0  0  0  0  0  0  0  0  0  0  0
    3.9922    0.6366   -1.1863 H   0  0  0  0  0  0  0  0  0  0  0  0
    2.6255    1.7525   -1.2160 H   0  0  0  0  0  0  0  0  0  0  0  0
    2.6923   -1.0589   -2.4503 H   0  0  0  0  0  0  0  0  0  0  0  0
    2.8684    0.4716   -3.3317 H   0  0  0  0  0  0  0  0  0  0  0  0
    1.3318    0.0767   -2.5772 H   0  0  0  0  0  0  0  0  0  0  0  0
    2.5312    0.2149    2.1240 H   0  0  0  0  0  0  0  0  0  0  0  0
    2.5178    1.7740    1.2648 H   0  0  0  0  0  0  0  0  0  0  0  0
    4.4005    0.9112    3.3094 H   0  0  0  0  0  0  0  0  0  0  0  0
    4.4063    2.4517    2.4109 H   0  0  0  0  0  0  0  0  0  0  0  0
    6.6562    1.8928    1.4874 H   0  0  0  0  0  0  0  0  0  0  0  0
    6.6538    0.3756    2.3670 H   0  0  0  0  0  0  0  0  0  0  0  0
    6.4365    1.6274    4.5398 H   0  0  0  0  0  0  0  0  0  0  0  0
    6.4381    3.1538    3.6549 H   0  0  0  0  0  0  0  0  0  0  0  0
    8.7074    2.6223    2.7431 H   0  0  0  0  0  0  0  0  0  0  0  0
    8.7053    1.0952    3.6307 H   0  0  0  0  0  0  0  0  0  0  0  0
    8.4627    2.3478    5.7840 H   0  0  0  0  0  0  0  0  0  0  0  0
    8.4641    3.8753    4.8985 H   0  0  0  0  0  0  0  0  0  0  0  0
   10.7322    3.3462    3.9869 H   0  0  0  0  0  0  0  0  0  0  0  0
   10.7325    1.8166    4.8741 H   0  0  0  0  0  0  0  0  0  0  0  0
   10.4916    3.0655    7.0287 H   0  0  0  0  0  0  0  0  0  0  0  0
   10.4916    4.5937    6.1442 H   0  0  0  0  0  0  0  0  0  0  0  0
   12.7605    4.0642    5.2293 H   0  0  0  0  0  0  0  0  0  0  0  0
   12.7594    2.5347    6.1118 H   0  0  0  0  0  0  0  0  0  0  0  0
   12.5218    3.7727    8.2686 H   0  0  0  0  0  0  0  0  0  0  0  0
   12.5186    5.3081    7.3885 H   0  0  0  0  0  0  0  0  0  0  0  0
   14.7873    4.7821    6.4704 H   0  0  0  0  0  0  0  0  0  0  0  0
   14.7893    3.2522    7.3530 H   0  0  0  0  0  0  0  0  0  0  0  0
   14.5486    4.4961    9.5110 H   0  0  0  0  0  0  0  0  0  0  0  0
   14.5440    6.0263    8.6295 H   0  0  0  0  0  0  0  0  0  0  0  0
   16.8120    5.5019    7.7086 H   0  0  0  0  0  0  0  0  0  0  0  0
   16.8165    3.9727    8.5922 H   0  0  0  0  0  0  0  0  0  0  0  0
   16.5744    5.2196   10.7494 H   0  0  0  0  0  0  0  0  0  0  0  0
   16.5718    6.7483    9.8651 H   0  0  0  0  0  0  0  0  0  0  0  0
   18.8399    6.2195    8.9469 H   0  0  0  0  0  0  0  0  0  0  0  0
   18.8423    4.6925    9.8331 H   0  0  0  0  0  0  0  0  0  0  0  0
   18.6020    5.9419   11.9881 H   0  0  0  0  0  0  0  0  0  0  0  0
   18.5976    7.4694   11.1030 H   0  0  0  0  0  0  0  0  0  0  0  0
   20.8659    6.9449   10.1855 H   0  0  0  0  0  0  0  0  0  0  0  0
   20.8706    5.4159   11.0683 H   0  0  0  0  0  0  0  0  0  0  0  0
   20.6279    6.6631   13.2258 H   0  0  0  0  0  0  0  0  0  0  0  0
   20.6253    8.1916   12.3412 H   0  0  0  0  0  0  0  0  0  0  0  0
   22.8940    7.6627   11.4230 H   0  0  0  0  0  0  0  0  0  0  0  0
   22.8960    6.1356   12.3095 H   0  0  0  0  0  0  0  0  0  0  0  0
   22.6544    7.3860   14.4646 H   0  0  0  0  0  0  0  0  0  0  0  0
   22.6518    8.9132   13.5782 H   0  0  0  0  0  0  0  0  0  0  0  0
   24.9207    8.3832   12.6605 H   0  0  0  0  0  0  0  0  0  0  0  0
   24.9227    6.8572   13.5491 H   0  0  0  0  0  0  0  0  0  0  0  0
   24.6809    8.1107   15.7025 H   0  0  0  0  0  0  0  0  0  0  0  0
   24.6787    9.6367   14.8139 H   0  0  0  0  0  0  0  0  0  0  0  0
   26.9472    9.1066   13.8976 H   0  0  0  0  0  0  0  0  0  0  0  0
   26.9496    7.5807   14.7860 H   0  0  0  0  0  0  0  0  0  0  0  0
   26.7076    8.8342   16.9396 H   0  0  0  0  0  0  0  0  0  0  0  0
   26.7053   10.3601   16.0509 H   0  0  0  0  0  0  0  0  0  0  0  0
   28.9737    9.8299   15.1345 H   0  0  0  0  0  0  0  0  0  0  0  0
   28.9762    8.3042   16.0234 H   0  0  0  0  0  0  0  0  0  0  0  0
   28.7355    9.5566   18.1765 H   0  0  0  0  0  0  0  0  0  0  0  0
   28.7309   11.0832   17.2890 H   0  0  0  0  0  0  0  0  0  0  0  0
   30.9993   10.5561   16.3708 H   0  0  0  0  0  0  0  0  0  0  0  0
   31.0040    9.0296   17.2584 H   0  0  0  0  0  0  0  0  0  0  0  0
   30.7622   10.2819   19.4127 H   0  0  0  0  0  0  0  0  0  0  0  0
   30.7574   11.8082   18.5249 H   0  0  0  0  0  0  0  0  0  0  0  0
   33.0261   11.2813   17.6067 H   0  0  0  0  0  0  0  0  0  0  0  0
   33.0306    9.7549   18.4946 H   0  0  0  0  0  0  0  0  0  0  0  0
   32.7886   11.0070   20.6486 H   0  0  0  0  0  0  0  0  0  0  0  0
   32.7843   12.5335   19.7609 H   0  0  0  0  0  0  0  0  0  0  0  0
   35.0525   12.0079   18.8436 H   0  0  0  0  0  0  0  0  0  0  0  0
   35.0576   10.4799   19.7290 H   0  0  0  0  0  0  0  0  0  0  0  0
   34.8145   11.7300   21.8852 H   0  0  0  0  0  0  0  0  0  0  0  0
   34.8116   13.2573   20.9985 H   0  0  0  0  0  0  0  0  0  0  0  0
   37.0808   12.7275   20.0810 H   0  0  0  0  0  0  0  0  0  0  0  0
   37.0826   11.2011   20.9695 H   0  0  0  0  0  0  0  0  0  0  0  0
   36.8395   12.4557   23.1230 H   0  0  0  0  0  0  0  0  0  0  0  0
   36.8399   13.9812   22.2335 H   0  0  0  0  0  0  0  0  0  0  0  0
   39.1082   13.4495   21.3198 H   0  0  0  0  0  0  0  0  0  0  0  0
   39.1085   11.9226   22.2066 H   0  0  0  0  0  0  0  0  0  0  0  0
   38.8654   13.1752   24.3613 H   0  0  0  0  0  0  0  0  0  0  0  0
   38.8675   14.7015   23.4733 H   0  0  0  0  0  0  0  0  0  0  0  0
   41.1362   14.1666   22.5598 H   0  0  0  0  0  0  0  0  0  0  0  0
   41.1337   12.6403   23.4478 H   0  0  0  0  0  0  0  0  0  0  0  0
   40.8919   13.8933   25.6014 H   0  0  0  0  0  0  0  0  0  0  0  0
   40.8942   15.4197   24.7136 H   0  0  0  0  0  0  0  0  0  0  0  0
   43.1628   14.8848   23.8001 H   0  0  0  0  0  0  0  0  0  0  0  0
   43.1604   13.3585   24.6878 H   0  0  0  0  0  0  0  0  0  0  0  0
   42.9185   14.6115   26.8417 H   0  0  0  0  0  0  0  0  0  0  0  0
   42.9210   16.1378   25.9536 H   0  0  0  0  0  0  0  0  0  0  0  0
   45.1893   15.6029   25.0401 H   0  0  0  0  0  0  0  0  0  0  0  0
   45.1872   14.0766   25.9281 H   0  0  0  0  0  0  0  0  0  0  0  0
   44.9465   15.3286   28.0816 H   0  0  0  0  0  0  0  0  0  0  0  0
   44.9462   16.8555   27.1948 H   0  0  0  0  0  0  0  0  0  0  0  0
   47.2152   16.3224   26.2784 H   0  0  0  0  0  0  0  0  0  0  0  0
   47.2148   14.7969   27.1680 H   0  0  0  0  0  0  0  0  0  0  0  0
   46.9740   16.0507   29.3203 H   0  0  0  0  0  0  0  0  0  0  0  0
   46.9721   17.5770   28.4319 H   0  0  0  0  0  0  0  0  0  0  0  0
   49.2403   17.0483   27.5163 H   0  0  0  0  0  0  0  0  0  0  0  0
   49.2431   15.5206   28.4027 H   0  0  0  0  0  0  0  0  0  0  0  0
   49.0011   16.7712   30.5579 H   0  0  0  0  0  0  0  0  0  0  0  0
   48.9983   18.2984   29.6714 H   0  0  0  0  0  0  0  0  0  0  0  0
   51.2674   17.7684   28.7535 H   0  0  0  0  0  0  0  0  0  0  0  0
   51.2693   16.2424   29.6425 H   0  0  0  0  0  0  0  0  0  0  0  0
   51.0285   17.4949   31.7956 H   0  0  0  0  0  0  0  0  0  0  0  0
   51.0242   19.0217   30.9079 H   0  0  0  0  0  0  0  0  0  0  0  0
   53.2923   18.4959   29.9905 H   0  0  0  0  0  0  0  0  0  0  0  0
   53.2975   16.9681   30.8763 H   0  0  0  0  0  0  0  0  0  0  0  0
   53.0566   18.2163   33.0320 H   0  0  0  0  0  0  0  0  0  0  0  0
   53.0495   19.7445   32.1474 H   0  0  0  0  0  0  0  0  0  0  0  0
   55.3179   19.2217   31.2265 H   0  0  0  0  0  0  0  0  0  0  0  0
   55.3251   17.6937   32.1116 H   0  0  0  0  0  0  0  0  0  0  0  0
   55.0844   18.9406   34.2680 H   0  0  0  0  0  0  0  0  0  0  0  0
   55.0751   20.4692   33.3842 H   0  0  0  0  0  0  0  0  0  0  0  0
   57.3435   19.9496   32.4617 H   0  0  0  0  0  0  0  0  0  0  0  0
   57.3529   18.4210   33.3457 H   0  0  0  0  0  0  0  0  0  0  0  0
   57.1110   19.6677   35.5032 H   0  0  0  0  0  0  0  0  0  0  0  0
   57.1016   21.1960   34.6190 H   0  0  0  0  0  0  0  0  0  0  0  0
   59.3701   20.6764   33.6967 H   0  0  0  0  0  0  0  0  0  0  0  0
   59.3796   19.1480   34.5808 H   0  0  0  0  0  0  0  0  0  0  0  0
   59.1377   20.3945   36.7382 H   0  0  0  0  0  0  0  0  0  0  0  0
   59.1283   21.9229   35.8541 H   0  0  0  0  0  0  0  0  0  0  0  0
   61.3968   21.4033   34.9317 H   0  0  0  0  0  0  0  0  0  0  0  0
   61.4062   19.8749   35.8158 H   0  0  0  0  0  0  0  0  0  0  0  0
   61.1644   21.1214   37.9733 H   0  0  0  0  0  0  0  0  0  0  0  0
   61.1549   22.6499   37.0892 H   0  0  0  0  0  0  0  0  0  0  0  0
   63.4235   22.1302   36.1668 H   0  0  0  0  0  0  0  0  0  0  0  0
   63.4329   20.6019   37.0509 H   0  0  0  0  0  0  0  0  0  0  0  0
   63.1911   21.8484   39.2082 H   0  0  0  0  0  0  0  0  0  0  0  0
   63.1816   23.3769   38.3243 H   0  0  0  0  0  0  0  0  0  0  0  0
   65.4504   22.8574   37.4019 H   0  0  0  0  0  0  0  0  0  0  0  0
   65.4597   21.3287   38.2857 H   0  0  0  0  0  0  0  0  0  0  0  0
   65.2171   22.5760   40.4435 H   0  0  0  0  0  0  0  0  0  0  0  0
   65.2098   24.1040   39.5587 H   0  0  0  0  0  0  0  0  0  0  0  0
   67.4778   23.5817   38.6381 H   0  0  0  0  0  0  0  0  0  0  0  0
   67.4849   22.0536   39.5230 H   0  0  0  0  0  0  0  0  0  0  0  0
   67.2443   23.3011   41.6794 H   0  0  0  0  0  0  0  0  0  0  0  0
   67.2372   24.8294   40.7944 H   0  0  0  0  0  0  0  0  0  0  0  0
   69.5057   24.3072   39.8739 H   0  0  0  0  0  0  0  0  0  0  0  0
   69.5127   22.7783   40.7593 H   0  0  0  0  0  0  0  0  0  0  0  0
   69.2709   24.0263   42.9156 H   0  0  0  0  0  0  0  0  0  0  0  0
   69.2639   25.5547   42.0306 H   0  0  0  0  0  0  0  0  0  0  0  0
   71.5324   25.0324   41.1105 H   0  0  0  0  0  0  0  0  0  0  0  0
   71.5394   23.5038   41.9956 H   0  0  0  0  0  0  0  0  0  0  0  0
   71.2971   24.7526   44.1519 H   0  0  0  0  0  0  0  0  0  0  0  0
   71.2923   26.2802   43.2663 H   0  0  0  0  0  0  0  0  0  0  0  0
   73.5623   25.7556   42.3486 H   0  0  0  0  0  0  0  0  0  0  0  0
   73.5669   24.2275   43.2345 H   0  0  0  0  0  0  0  0  0  0  0  0
   73.3279   25.4768   45.3900 H   0  0  0  0  0  0  0  0  0  0  0  0
   73.3232   27.0042   44.5047 H   0  0  0  0  0  0  0  0  0  0  0  0
   75.5932   26.4813   43.5885 H   0  0  0  0  0  0  0  0  0  0  0  0
   75.5981   24.9523   44.4722 H   0  0  0  0  0  0  0  0  0  0  0  0
   75.3620   26.1982   46.6301 H   0  0  0  0  0  0  0  0  0  0  0  0
   75.3550   27.7269   45.7477 H   0  0  0  0  0  0  0  0  0  0  0  0
   77.6374   27.2167   44.8451 H   0  0  0  0  0  0  0  0  0  0  0  0
   77.6445   25.6875   45.7277 H   0  0  0  0  0  0  0  0  0  0  0  0
   77.4189   28.4653   47.0014 H   0  0  0  0  0  0  0  0  0  0  0  0
   78.8663   27.4388   46.9861 H   0  0  0  0  0  0  0  0  0  0  0  0
   77.4260   26.9287   47.8883 H   0  0  0  0  0  0  0  0  0  0  0  0
  1  2  1  0  0  0  0
  1 80  1  0  0  0  0
  1 81  1  0  0  0  0
  1 82  1  0  0  0  0
  2  3  1  0  0  0  0
  2  5  1  0  0  0  0
  3  4  1  0  0  0  0
  3 83  1  0  0  0  0
  3 84  1  0  0  0  0
  4 85  1  0  0  0  0
  4 86  1  0  0  0  0
  4 87  1  0  0  0  0
  5  6  1  0  0  0  0
  5 88  1  0  0  0  0
  5 89  1  0  0  0  0
  6  7  1  0  0  0  0
  7  8  1  0  0  0  0
  7 90  1  0  0  0  0
  7 91  1  0  0  0  0
  8  9  1  0  0  0  0
  8 92  1  0  0  0  0
  8 93  1  0  0  0  0
  9 10  1  0  0  0  0
  9 94  1  0  0  0  0
  9 95  1  0  0  0  0
 10 11  1  0  0  0  0
 10 96  1  0  0  0  0
 10 97  1  0  0  0  0
 11 12  1  0  0  0  0
 11 98  1  0  0  0  0
 11 99  1  0  0  0  0
 12 13  1  0  0  0  0
 12100  1  0  0  0  0
 12101  1  0  0  0  0
 13 14  1  0  0  0  0
 13102  1  0  0  0  0
 13103  1  0  0  0  0
 14 15  1  0  0  0  0
 14104  1  0  0  0  0
 14105  1  0  0  0  0
 15 16  1  0  0  0  0
 15106  1  0  0  0  0
 15107  1  0  0  0  0
 16 17  1  0  0  0  0
 16108  1  0  0  0  0
 16109  1  0  0  0  0
 17 18  1  0  0  0  0
 17110  1  0  0  0  0
 17111  1  0  0  0  0
 18 19  1  0  0  0  0
 18112  1  0  0  0  0
 18113  1  0  0  0  0
 19 20  1  0  0  0  0
 19114  1  0  0  0  0
 19115  1  0  0  0  0
 20 21  1  0  0  0  0
 20116  1  0  0  0  0
 20117  1  0  0  0  0
 21 22  1  0  0  0  0
 21118  1  0  0  0  0
 21119  1  0  0  0  0
 22 23  1  0  0  0  0
 22120  1  0  0  0  0
 22121  1  0  0  0  0
 23 24  1  0  0  0  0
 23122  1  0  0  0  0
 23123  1  0  0  0  0
 24 25  1  0  0  0  0
 24124  1  0  0  0  0
 24125  1  0  0  0  0
 25 26  1  0  0  0  0
 25126  1  0  0  0  0
 25127  1  0  0  0  0
 26 27  1  0  0  0  0
 26128  1  0  0  0  0
 26129  1  0  0  0  0
 27 28  1  0  0  0  0
 27130  1  0  0  0  0
 27131  1  0  0  0  0
 28 29  1  0  0  0  0
 28132  1  0  0  0  0
 28133  1  0  0  0  0
 29 30  1  0  0  0  0
 29134  1  0  0  0  0
 29135  1  0  0  0  0
 30 31  1  0  0  0  0
 30136  1  0  0  0  0
 30137  1  0  0  0  0
 31 32  1  0  0  0  0
 31138  1  0  0  0  0
 31139  1  0  0  0  0
 32 33  1  0  0  0  0
 32140  1  0  0  0  0
 32141  1  0  0  0  0
 33 34  1  0  0  0  0
 33142  1  0  0  0  0
 33143  1  0  0  0  0
 34 35  1  0  0  0  0
 34144  1  0  0  0  0
 34145  1  0  0  0  0
 35 36  1  0  0  0  0
 35146  1  0  0  0  0
 35147  1  0  0  0  0
 36 37  1  0  0  0  0
 36148  1  0  0  0  0
 36149  1  0  0  0  0
 37 38  1  0  0  0  0
 37150  1  0  0  0  0
 37151  1  0  0  0  0
 38 39  1  0  0  0  0
 38152  1  0  0  0  0
 38153  1  0  0  0  0
 39 40  1  0  0  0  0
 39154  1  0  0  0  0
 39155  1  0  0  0  0
 40 41  1  0  0  0  0
 40156  1  0  0  0  0
 40157  1  0  0  0  0
 41 42  1  0  0  0  0
 41158  1  0  0  0  0
 41159  1  0  0  0  0
 42 43  1  0  0  0  0
 42160  1  0  0  0  0
 42161  1  0  0  0  0
 43 44  1  0  0  0  0
 43162  1  0  0  0  0
 43163  1  0  0  0  0
 44 45  1  0  0  0  0
 44164  1  0  0  0  0
 44165  1  0  0  0  0
 45 46  1  0  0  0  0
 45166  1  0  0  0  0
 45167  1  0  0  0  0
 46 47  1  0  0  0  0
 46168  1  0  0  0  0
 46169  1  0  0  0  0
 47 48  1  0  0  0  0
 47170  1  0  0  0  0
 47171  1  0  0  0  0
 48 49  1  0  0  0  0
 48172  1  0  0  0  0
 48173  1  0  0  0  0
 49 50  1  0  0  0  0
 49174  1  0  0  0  0
 49175  1  0  0  0  0
 50 51  1  0  0  0  0
 50176  1  0  0  0  0
 50177  1  0  0  0  0
 51 52  1  0  0  0  0
 51178  1  0  0  0  0
 51179  1  0  0  0  0
 52 53  1  0  0  0  0
 52180  1  0  0  0  0
 52181  1  0  0  0  0
 53 54  1  0  0  0  0
 53182  1  0  0  0  0
 53183  1  0  0  0  0
 54 55  1  0  0  0  0
 54184  1  0  0  0  0
 54185  1  0  0  0  0
 55 56  1  0  0  0  0
 55186  1  0  0  0  0
 55187  1  0  0  0  0
 56 57  1  0  0  0  0
 56188  1  0  0  0  0
 56189  1  0  0  0  0
 57 58  1  0  0  0  0
 57190  1  0  0  0  0
 57191  1  0  0  0  0
 58 59  1  0  0  0  0
 58192  1  0  0  0  0
 58193  1  0  0  0  0
 59 60  1  0  0  0  0
 59194  1  0  0  0  0
 59195  1  0  0  0  0
 60 61  1  0  0  0  0
 60196  1  0  0  0  0
 60197  1  0  0  0  0
 61 62  1  0  0  0  0
 61198  1  0  0  0  0
 61199  1  0  0  0  0
 62 63  1  0  0  0  0
 62200  1  0  0  0  0
 62201  1  0  0  0  0
 63 64  1  0  0  0  0
 63202  1  0  0  0  0
 63203  1  0  0  0  0
 64 65  1  0  0  0  0
 64204  1  0  0  0  0
 64205  1  0  0  0  0
 65 66  1  0  0  0  0
 65206  1  0  0  0  0
 65207  1  0  0  0  0
 66 67  1  0  0  0  0
 66208  1  0  0  0  0
 66209  1  0  0  0  0
 67 68  1  0  0  0  0
 67210  1  0  0  0  0
 67211  1  0  0  0  0
 68 69  1  0  0  0  0
 68212  1  0  0  0  0
 68213  1  0  0  0  0
 69 70  1  0  0  0  0
 69214  1  0  0  0  0
 69215  1  0  0  0  0
 70 71  1  0  0  0  0
 70216  1  0  0  0  0
 70217  1  0  0  0  0
 71 72  1  0  0  0  0
 71218  1  0  0  0  0
 71219  1  0  0  0  0
 72 73  1  0  0  0  0
 72220  1  0  0  0  0
 72221  1  0  0  0  0
 73 74  1  0  0  0  0
 73222  1  0  0  0  0
 73223  1  0  0  0  0
 74 75  1  0  0  0  0
 74224  1  0  0  0  0
 74225  1  0  0  0  0
 75 76  1  0  0  0  0
 75226  1  0  0  0  0
 75227  1  0  0  0  0
 76 77  1  0  0  0  0
 76228  1  0  0  0  0
 76229  1  0  0  0  0
 77 78  1  0  0  0  0
 77230  1  0  0  0  0
 77231  1  0  0  0  0
 78 79  1  0  0  0  0
 78232  1  0  0  0  0
 78233  1  0  0  0  0
 79234  1  0  0  0  0
 79235  1  0  0  0  0
 79236  1  0  0  0  0
M  END
$$$$
