
 OpenBabel04232216553D

 45 46  0  0  0  0  0  0  0  0999 V2000
    7.0286   -0.3899    0.4780 C   0  0  0  0  0  0  0  0  0  0  0  0
    7.2187   -0.2401    1.9803 N   0  0  0  0  0  0  0  0  0  0  0  0
    5.8970    0.0386    2.5264 C   0  0  0  0  0  0  0  0  0  0  0  0
    4.8492   -0.8007    2.2502 C   0  0  0  0  0  0  0  0  0  0  0  0
    5.4488    1.2986    2.8621 N   0  0  0  0  0  0  0  0  0  0  0  0
    5.5417    1.4064    4.1588 C   0  0  0  0  0  0  0  0  0  0  0  0
    4.3784    0.9292    4.9819 C   0  0  0  0  0  0  0  0  0  0  0  0
    6.9324    1.5785    4.6698 C   0  0  0  0  0  0  0  0  0  0  0  0
    7.4681    0.5452    5.3525 C   0  0  0  0  0  0  0  0  0  0  0  0
    6.8338   -0.1742    6.4994 C   0  0  0  0  0  0  0  0  0  0  0  0
    8.6983   -0.1056    4.8854 C   0  0  0  0  0  0  0  0  0  0  0  0
    9.4416   -0.9775    5.6161 C   0  0  0  0  0  0  0  0  0  0  0  0
   10.6146   -1.6673    5.0954 C   0  0  0  0  0  0  0  0  0  0  0  0
   11.6866   -1.8754    5.8731 C   0  0  0  0  0  0  0  0  0  0  0  0
   13.0681   -1.8509    5.3043 C   0  0  0  0  0  0  0  0  0  0  0  0
   13.4721   -1.6237    3.8588 C   0  0  0  0  0  0  0  0  0  0  0  0
   13.9876   -1.5015    6.1497 N   0  0  0  0  0  0  0  0  0  0  0  0
   13.9172   -0.1038    6.3484 C   0  0  0  0  0  0  0  0  0  0  0  0
   13.1355    0.8257    5.7893 C   0  0  0  0  0  0  0  0  0  0  0  0
   12.0566    1.1663    4.7003 C   0  0  0  0  0  0  0  0  0  0  0  0
   10.8594    0.9939    4.0264 C   0  0  0  0  0  0  0  0  0  0  0  0
    9.2786    0.3236    3.5755 C   0  0  0  0  0  0  0  0  0  0  0  0
    8.6697    0.3687    2.3904 N   0  0  0  0  0  0  0  0  0  0  0  0
    5.9526   -0.3519    0.1827 H   0  0  0  0  0  0  0  0  0  0  0  0
    7.3383   -1.3789    0.1252 H   0  0  0  0  0  0  0  0  0  0  0  0
    7.4543    0.4348   -0.0871 H   0  0  0  0  0  0  0  0  0  0  0  0
    4.1243   -0.3570    1.5428 H   0  0  0  0  0  0  0  0  0  0  0  0
    4.0665   -0.9088    3.0321 H   0  0  0  0  0  0  0  0  0  0  0  0
    3.4252    1.1466    4.4892 H   0  0  0  0  0  0  0  0  0  0  0  0
    4.3903    1.3646    5.9796 H   0  0  0  0  0  0  0  0  0  0  0  0
    4.4444   -0.1636    5.0393 H   0  0  0  0  0  0  0  0  0  0  0  0
    7.4983    2.0858    3.8832 H   0  0  0  0  0  0  0  0  0  0  0  0
    5.7546   -0.1311    6.5428 H   0  0  0  0  0  0  0  0  0  0  0  0
    7.2089    0.2584    7.4236 H   0  0  0  0  0  0  0  0  0  0  0  0
    7.0598   -1.2463    6.4730 H   0  0  0  0  0  0  0  0  0  0  0  0
    9.2260   -1.1015    6.6646 H   0  0  0  0  0  0  0  0  0  0  0  0
   10.6747   -1.8196    4.0395 H   0  0  0  0  0  0  0  0  0  0  0  0
   11.6549   -1.6662    6.9398 H   0  0  0  0  0  0  0  0  0  0  0  0
   12.6402   -1.5541    3.1633 H   0  0  0  0  0  0  0  0  0  0  0  0
   14.2023   -2.3784    3.5556 H   0  0  0  0  0  0  0  0  0  0  0  0
   14.0250   -0.6681    3.7827 H   0  0  0  0  0  0  0  0  0  0  0  0
   14.7042    0.1624    7.0483 H   0  0  0  0  0  0  0  0  0  0  0  0
   13.4730    1.8007    6.2177 H   0  0  0  0  0  0  0  0  0  0  0  0
   12.5599    2.0657    4.3136 H   0  0  0  0  0  0  0  0  0  0  0  0
   10.4743    2.0389    4.0339 H   0  0  0  0  0  0  0  0  0  0  0  0
  1  2  1  0  0  0  0
  1 24  1  0  0  0  0
  1 25  1  0  0  0  0
  1 26  1  0  0  0  0
  2  3  1  0  0  0  0
  2 23  1  0  0  0  0
  3  4  2  0  0  0  0
  3  5  1  0  0  0  0
  4 27  1  0  0  0  0
  4 28  1  0  0  0  0
  5  6  2  0  0  0  0
  6  7  1  0  0  0  0
  6  8  1  0  0  0  0
  7 29  1  0  0  0  0
  7 30  1  0  0  0  0
  7 31  1  0  0  0  0
  8  9  2  0  0  0  0
  8 32  1  0  0  0  0
  9 10  1  0  0  0  0
  9 11  1  0  0  0  0
 10 33  1  0  0  0  0
 10 34  1  0  0  0  0
 10 35  1  0  0  0  0
 11 12  2  3  0  0  0
 11 22  1  0  0  0  0
 12 13  1  0  0  0  0
 12 36  1  0  0  0  0
 13 14  2  3  0  0  0
 13 37  1  0  0  0  0
 14 15  1  0  0  0  0
 14 38  1  0  0  0  0
 15 16  1  0  0  0  0
 15 17  2  3  0  0  0
 16 39  1  0  0  0  0
 16 40  1  0  0  0  0
 16 41  1  0  0  0  0
 17 18  1  0  0  0  0
 18 19  2  3  0  0  0
 18 42  1  0  0  0  0
 19 20  1  0  0  0  0
 19 43  1  0  0  0  0
 20 21  2  3  0  0  0
 20 44  1  0  0  0  0
 21 22  1  0  0  0  0
 21 45  1  0  0  0  0
 22 23  2  0  0  0  0
M  END
$$$$
