
 OpenBabel04232216503D

 64 66  0  0  0  0  0  0  0  0999 V2000
    2.8842    0.1171    0.7129 C   0  0  0  0  0  0  0  0  0  0  0  0
    3.6835    0.9167   -0.2722 C   0  0  0  0  0  0  0  0  0  0  0  0
    2.8923    1.6574   -1.0840 C   0  0  0  0  0  0  0  0  0  0  0  0
    2.7776    1.4016   -2.4431 N   0  0  0  0  0  0  0  0  0  0  0  0
    4.0802    1.2906   -3.1954 C   0  0  0  0  0  0  0  0  0  0  0  0
    4.0444    1.7295   -4.6157 C   0  0  0  0  0  0  0  0  0  0  0  0
    2.6953    2.0457   -4.9566 C   0  0  0  0  0  0  0  0  0  0  0  0
    2.5313    2.8578   -6.2020 C   0  0  0  0  0  0  0  0  0  0  0  0
    1.0781    2.9755   -6.0068 C   0  0  0  0  0  0  0  0  0  0  0  0
    0.0846    3.4226   -7.0454 C   0  0  0  0  0  0  0  0  0  0  0  0
   -1.0564    2.9163   -6.1972 C   0  0  0  0  0  0  0  0  0  0  0  0
   -2.4711    2.8647   -6.4688 C   0  0  0  0  0  0  0  0  0  0  0  0
   -2.9160    2.1495   -5.1569 C   0  0  0  0  0  0  0  0  0  0  0  0
   -1.8920    1.4235   -3.9613 C   0  0  0  0  0  0  0  0  0  0  0  0
   -0.3171    1.5990   -3.1283 C   0  0  0  0  0  0  0  0  0  0  0  0
    1.2158    0.7324   -2.8676 C   0  0  0  0  0  0  0  0  0  0  0  0
    5.4263    1.2228   -2.8532 C   0  0  0  0  0  0  0  0  0  0  0  0
    6.5147    1.1652   -4.0107 C   0  0  0  0  0  0  0  0  0  0  0  0
    6.8189    2.3230   -5.0061 C   0  0  0  0  0  0  0  0  0  0  0  0
    7.4480    0.1779   -3.9838 C   0  0  0  0  0  0  0  0  0  0  0  0
    8.8645    0.5839   -3.9729 C   0  0  0  0  0  0  0  0  0  0  0  0
    9.3124    1.2974   -2.9281 C   0  0  0  0  0  0  0  0  0  0  0  0
    8.3585    1.9230   -1.9825 C   0  0  0  0  0  0  0  0  0  0  0  0
    7.5131    1.1508   -1.2342 C   0  0  0  0  0  0  0  0  0  0  0  0
    5.9695    1.1208   -1.4210 C   0  0  0  0  0  0  0  0  0  0  0  0
    5.1634    0.7523   -0.3505 C   0  0  0  0  0  0  0  0  0  0  0  0
    5.7289    0.0800    0.8680 C   0  0  0  0  0  0  0  0  0  0  0  0
    1.8194    0.1051    0.4459 H   0  0  0  0  0  0  0  0  0  0  0  0
    2.9676    0.5027    1.7273 H   0  0  0  0  0  0  0  0  0  0  0  0
    3.1882   -0.9358    0.6749 H   0  0  0  0  0  0  0  0  0  0  0  0
    1.9119    1.9431   -0.7290 H   0  0  0  0  0  0  0  0  0  0  0  0
    4.4479    1.0067   -5.3344 H   0  0  0  0  0  0  0  0  0  0  0  0
    4.5122    2.7134   -4.6263 H   0  0  0  0  0  0  0  0  0  0  0  0
    2.2909    2.6573   -4.1323 H   0  0  0  0  0  0  0  0  0  0  0  0
    2.1957    1.0708   -5.0224 H   0  0  0  0  0  0  0  0  0  0  0  0
    2.8307    2.2962   -7.0860 H   0  0  0  0  0  0  0  0  0  0  0  0
    3.0362    3.8240   -6.1363 H   0  0  0  0  0  0  0  0  0  0  0  0
    0.9092    3.5582   -5.0763 H   0  0  0  0  0  0  0  0  0  0  0  0
    0.7969    1.9329   -5.7718 H   0  0  0  0  0  0  0  0  0  0  0  0
    0.2492    2.8524   -7.9548 H   0  0  0  0  0  0  0  0  0  0  0  0
    0.1583    4.4815   -7.1609 H   0  0  0  0  0  0  0  0  0  0  0  0
   -0.9984    3.4447   -5.2315 H   0  0  0  0  0  0  0  0  0  0  0  0
   -0.8775    1.8342   -6.0827 H   0  0  0  0  0  0  0  0  0  0  0  0
   -2.6628    2.2926   -7.3861 H   0  0  0  0  0  0  0  0  0  0  0  0
   -2.8786    3.8755   -6.6045 H   0  0  0  0  0  0  0  0  0  0  0  0
   -3.5911    2.8546   -4.6530 H   0  0  0  0  0  0  0  0  0  0  0  0
   -3.5796    1.3425   -5.5051 H   0  0  0  0  0  0  0  0  0  0  0  0
   -2.1183    0.3518   -4.0229 H   0  0  0  0  0  0  0  0  0  0  0  0
   -2.5202    1.7655   -3.1135 H   0  0  0  0  0  0  0  0  0  0  0  0
   -0.7659    0.9110   -2.3769 H   0  0  0  0  0  0  0  0  0  0  0  0
   -0.3220    2.5311   -2.5547 H   0  0  0  0  0  0  0  0  0  0  0  0
    1.3551   -0.1123   -3.5459 H   0  0  0  0  0  0  0  0  0  0  0  0
    0.9976    0.2461   -1.8991 H   0  0  0  0  0  0  0  0  0  0  0  0
    5.9972    2.6477   -5.6490 H   0  0  0  0  0  0  0  0  0  0  0  0
    7.5348    1.9901   -5.7731 H   0  0  0  0  0  0  0  0  0  0  0  0
    7.2311    3.2022   -4.5119 H   0  0  0  0  0  0  0  0  0  0  0  0
    7.2857   -0.7041   -3.3735 H   0  0  0  0  0  0  0  0  0  0  0  0
    9.4852    0.3162   -4.8312 H   0  0  0  0  0  0  0  0  0  0  0  0
   10.3578    1.6319   -2.9012 H   0  0  0  0  0  0  0  0  0  0  0  0
    7.9611    2.8390   -2.4187 H   0  0  0  0  0  0  0  0  0  0  0  0
    7.9383    0.2811   -0.7390 H   0  0  0  0  0  0  0  0  0  0  0  0
    6.8136    0.0783    0.9595 H   0  0  0  0  0  0  0  0  0  0  0  0
    5.4391   -0.9792    0.8426 H   0  0  0  0  0  0  0  0  0  0  0  0
    5.3441    0.5305    1.7844 H   0  0  0  0  0  0  0  0  0  0  0  0
  1  2  1  0  0  0  0
  1 28  1  0  0  0  0
  1 29  1  0  0  0  0
  1 30  1  0  0  0  0
  2  3  2  0  0  0  0
  2 26  1  0  0  0  0
  3  4  1  0  0  0  0
  3 31  1  0  0  0  0
  4  5  1  0  0  0  0
  4 16  1  0  0  0  0
  5  6  1  0  0  0  0
  5 17  2  0  0  0  0
  6  7  1  0  0  0  0
  6 32  1  0  0  0  0
  6 33  1  0  0  0  0
  7  8  1  0  0  0  0
  7 34  1  0  0  0  0
  7 35  1  0  0  0  0
  8  9  1  0  0  0  0
  8 36  1  0  0  0  0
  8 37  1  0  0  0  0
  9 10  1  0  0  0  0
  9 38  1  0  0  0  0
  9 39  1  0  0  0  0
 10 11  1  0  0  0  0
 10 40  1  0  0  0  0
 10 41  1  0  0  0  0
 11 12  1  0  0  0  0
 11 42  1  0  0  0  0
 11 43  1  0  0  0  0
 12 13  1  0  0  0  0
 12 44  1  0  0  0  0
 12 45  1  0  0  0  0
 13 14  1  0  0  0  0
 13 46  1  0  0  0  0
 13 47  1  0  0  0  0
 14 15  1  0  0  0  0
 14 48  1  0  0  0  0
 14 49  1  0  0  0  0
 15 16  1  0  0  0  0
 15 50  1  0  0  0  0
 15 51  1  0  0  0  0
 16 52  1  0  0  0  0
 16 53  1  0  0  0  0
 17 18  1  0  0  0  0
 17 25  1  0  0  0  0
 18 19  1  0  0  0  0
 18 20  2  0  0  0  0
 19 54  1  0  0  0  0
 19 55  1  0  0  0  0
 19 56  1  0  0  0  0
 20 21  1  0  0  0  0
 20 57  1  0  0  0  0
 21 22  2  0  0  0  0
 21 58  1  0  0  0  0
 22 23  1  0  0  0  0
 22 59  1  0  0  0  0
 23 24  2  0  0  0  0
 23 60  1  0  0  0  0
 24 25  1  0  0  0  0
 24 61  1  0  0  0  0
 25 26  2  0  0  0  0
 26 27  1  0  0  0  0
 27 62  1  0  0  0  0
 27 63  1  0  0  0  0
 27 64  1  0  0  0  0
M  END
$$$$
