
 OpenBabel04232216413D

225224  0  0  0  0  0  0  0  0999 V2000
    1.4640    0.2746    0.9514 C   0  0  0  0  0  0  0  0  0  0  0  0
    2.3076   -0.0914   -0.0213 C   0  0  0  0  0  0  0  0  0  0  0  0
    3.0698   -1.3739    0.0392 C   0  0  0  0  0  0  0  0  0  0  0  0
    4.5143   -1.1042    0.0113 N   0  0  0  0  0  0  0  0  0  0  0  0
    5.2310   -2.3482    0.0737 N   0  0  0  0  0  0  0  0  0  0  0  0
    6.6296   -2.1006    0.0511 N   0  0  0  0  0  0  0  0  0  0  0  0
    7.3349   -3.3274    0.1113 N   0  0  0  0  0  0  0  0  0  0  0  0
    8.7337   -3.0715    0.0851 N   0  0  0  0  0  0  0  0  0  0  0  0
    9.4584   -4.2882    0.1501 N   0  0  0  0  0  0  0  0  0  0  0  0
   10.8601   -4.0461    0.1247 N   0  0  0  0  0  0  0  0  0  0  0  0
   11.5654   -5.2688    0.1875 N   0  0  0  0  0  0  0  0  0  0  0  0
   12.9556   -5.0165    0.1663 N   0  0  0  0  0  0  0  0  0  0  0  0
   13.6612   -6.2344    0.2273 N   0  0  0  0  0  0  0  0  0  0  0  0
   15.0541   -5.9817    0.2068 N   0  0  0  0  0  0  0  0  0  0  0  0
   15.7715   -7.2002    0.2691 N   0  0  0  0  0  0  0  0  0  0  0  0
   17.1663   -6.9507    0.2502 N   0  0  0  0  0  0  0  0  0  0  0  0
   17.8854   -8.1698    0.3140 N   0  0  0  0  0  0  0  0  0  0  0  0
   19.2820   -7.9020    0.2959 N   0  0  0  0  0  0  0  0  0  0  0  0
   19.9862   -9.1746    0.3611 C   0  0  0  0  0  0  0  0  0  0  0  0
   21.4834   -8.9043    0.3410 C   0  0  0  0  0  0  0  0  0  0  0  0
   22.2523  -10.2140    0.4053 C   0  0  0  0  0  0  0  0  0  0  0  0
   23.7460   -9.9453    0.3873 C   0  0  0  0  0  0  0  0  0  0  0  0
   24.5103  -11.2544    0.4497 C   0  0  0  0  0  0  0  0  0  0  0  0
   26.0025  -10.9839    0.4336 C   0  0  0  0  0  0  0  0  0  0  0  0
   26.7658  -12.2925    0.4959 C   0  0  0  0  0  0  0  0  0  0  0  0
   28.2575  -12.0216    0.4818 C   0  0  0  0  0  0  0  0  0  0  0  0
   29.0205  -13.3301    0.5442 C   0  0  0  0  0  0  0  0  0  0  0  0
   30.5120  -13.0591    0.5301 C   0  0  0  0  0  0  0  0  0  0  0  0
   31.2750  -14.3677    0.5925 C   0  0  0  0  0  0  0  0  0  0  0  0
   32.7665  -14.0966    0.5784 C   0  0  0  0  0  0  0  0  0  0  0  0
   33.5294  -15.4051    0.6407 C   0  0  0  0  0  0  0  0  0  0  0  0
   35.0209  -15.1341    0.6266 C   0  0  0  0  0  0  0  0  0  0  0  0
   35.7838  -16.4427    0.6870 C   0  0  0  0  0  0  0  0  0  0  0  0
   37.2753  -16.1717    0.6729 C   0  0  0  0  0  0  0  0  0  0  0  0
   38.0382  -17.4803    0.7332 C   0  0  0  0  0  0  0  0  0  0  0  0
   39.5297  -17.2092    0.7191 C   0  0  0  0  0  0  0  0  0  0  0  0
   40.2926  -18.5179    0.7775 C   0  0  0  0  0  0  0  0  0  0  0  0
   41.7841  -18.2468    0.7654 C   0  0  0  0  0  0  0  0  0  0  0  0
   42.5470  -19.5556    0.8217 C   0  0  0  0  0  0  0  0  0  0  0  0
   44.0385  -19.2844    0.8116 C   0  0  0  0  0  0  0  0  0  0  0  0
   44.8014  -20.5931    0.8700 C   0  0  0  0  0  0  0  0  0  0  0  0
   46.2929  -20.3219    0.8579 C   0  0  0  0  0  0  0  0  0  0  0  0
   47.0558  -21.6306    0.9162 C   0  0  0  0  0  0  0  0  0  0  0  0
   48.5473  -21.3595    0.9041 C   0  0  0  0  0  0  0  0  0  0  0  0
   49.3103  -22.6682    0.9625 C   0  0  0  0  0  0  0  0  0  0  0  0
   50.8017  -22.3971    0.9504 C   0  0  0  0  0  0  0  0  0  0  0  0
   51.5647  -23.7058    1.0087 C   0  0  0  0  0  0  0  0  0  0  0  0
   53.0561  -23.4346    0.9986 C   0  0  0  0  0  0  0  0  0  0  0  0
   53.8191  -24.7432    1.0590 C   0  0  0  0  0  0  0  0  0  0  0  0
   55.3105  -24.4719    1.0509 C   0  0  0  0  0  0  0  0  0  0  0  0
   56.0735  -25.7805    1.1113 C   0  0  0  0  0  0  0  0  0  0  0  0
   57.5649  -25.5093    1.1012 C   0  0  0  0  0  0  0  0  0  0  0  0
   58.3279  -26.8180    1.1596 C   0  0  0  0  0  0  0  0  0  0  0  0
   59.8193  -26.5467    1.1515 C   0  0  0  0  0  0  0  0  0  0  0  0
   60.5823  -27.8555    1.2078 C   0  0  0  0  0  0  0  0  0  0  0  0
   62.0738  -27.5842    1.1978 C   0  0  0  0  0  0  0  0  0  0  0  0
   62.8367  -28.8929    1.2561 C   0  0  0  0  0  0  0  0  0  0  0  0
   64.3282  -28.6217    1.2460 C   0  0  0  0  0  0  0  0  0  0  0  0
   65.0911  -29.9305    1.3023 C   0  0  0  0  0  0  0  0  0  0  0  0
   66.5826  -29.6593    1.2923 C   0  0  0  0  0  0  0  0  0  0  0  0
   67.3455  -30.9681    1.3486 C   0  0  0  0  0  0  0  0  0  0  0  0
   68.8370  -30.6969    1.3385 C   0  0  0  0  0  0  0  0  0  0  0  0
   69.5999  -32.0056    1.3948 C   0  0  0  0  0  0  0  0  0  0  0  0
   71.0914  -31.7344    1.3848 C   0  0  0  0  0  0  0  0  0  0  0  0
   71.8543  -33.0432    1.4411 C   0  0  0  0  0  0  0  0  0  0  0  0
   73.3458  -32.7720    1.4310 C   0  0  0  0  0  0  0  0  0  0  0  0
   74.1087  -34.0808    1.4873 C   0  0  0  0  0  0  0  0  0  0  0  0
   75.6002  -33.8096    1.4772 C   0  0  0  0  0  0  0  0  0  0  0  0
   76.3631  -35.1183    1.5356 C   0  0  0  0  0  0  0  0  0  0  0  0
   77.8546  -34.8470    1.5255 C   0  0  0  0  0  0  0  0  0  0  0  0
   78.6175  -36.1557    1.5838 C   0  0  0  0  0  0  0  0  0  0  0  0
   80.1090  -35.8845    1.5738 C   0  0  0  0  0  0  0  0  0  0  0  0
   80.8720  -37.1932    1.6321 C   0  0  0  0  0  0  0  0  0  0  0  0
   82.3635  -36.9220    1.6220 C   0  0  0  0  0  0  0  0  0  0  0  0
   83.1265  -38.2307    1.6824 C   0  0  0  0  0  0  0  0  0  0  0  0
   84.6184  -37.9600    1.6723 C   0  0  0  0  0  0  0  0  0  0  0  0
   85.3817  -39.2693    1.7327 C   0  0  0  0  0  0  0  0  0  0  0  0
   86.8745  -38.9998    1.7247 C   0  0  0  0  0  0  0  0  0  0  0  0
   87.6434  -40.3086    1.7831 C   0  0  0  0  0  0  0  0  0  0  0  0
   89.1319  -40.0355    1.7750 C   0  0  0  0  0  0  0  0  0  0  0  0
    0.9323    1.2096    0.8931 H   0  0  0  0  0  0  0  0  0  0  0  0
    1.3091   -0.3549    1.8220 H   0  0  0  0  0  0  0  0  0  0  0  0
    2.4458    0.5647   -0.8790 H   0  0  0  0  0  0  0  0  0  0  0  0
    2.8067   -1.9946   -0.8276 H   0  0  0  0  0  0  0  0  0  0  0  0
    2.8109   -1.9291    0.9506 H   0  0  0  0  0  0  0  0  0  0  0  0
    4.7790   -0.5637    0.8356 H   0  0  0  0  0  0  0  0  0  0  0  0
    5.0082   -2.9337   -0.7334 H   0  0  0  0  0  0  0  0  0  0  0  0
    6.9011   -1.5178    0.8419 H   0  0  0  0  0  0  0  0  0  0  0  0
    7.0254   -3.8953   -0.6820 H   0  0  0  0  0  0  0  0  0  0  0  0
    8.9519   -2.4611    0.8852 H   0  0  0  0  0  0  0  0  0  0  0  0
    9.2585   -4.8789   -0.6622 H   0  0  0  0  0  0  0  0  0  0  0  0
   11.1597   -3.4943    0.9259 H   0  0  0  0  0  0  0  0  0  0  0  0
   11.3238   -5.8549   -0.6108 H   0  0  0  0  0  0  0  0  0  0  0  0
   13.2187   -4.4366    0.9619 H   0  0  0  0  0  0  0  0  0  0  0  0
   13.4216   -6.8108   -0.5779 H   0  0  0  0  0  0  0  0  0  0  0  0
   15.2874   -5.4048    1.0117 H   0  0  0  0  0  0  0  0  0  0  0  0
   15.5197   -7.7631   -0.5412 H   0  0  0  0  0  0  0  0  0  0  0  0
   17.4021   -6.3737    1.0555 H   0  0  0  0  0  0  0  0  0  0  0  0
   17.6307   -8.7339   -0.4963 H   0  0  0  0  0  0  0  0  0  0  0  0
   19.5134   -7.3376    1.1128 H   0  0  0  0  0  0  0  0  0  0  0  0
   19.7245   -9.8025   -0.4999 H   0  0  0  0  0  0  0  0  0  0  0  0
   19.7266   -9.7201    1.2770 H   0  0  0  0  0  0  0  0  0  0  0  0
   21.7653   -8.2735    1.1935 H   0  0  0  0  0  0  0  0  0  0  0  0
   21.7572   -8.3646   -0.5747 H   0  0  0  0  0  0  0  0  0  0  0  0
   21.9811  -10.8483   -0.4474 H   0  0  0  0  0  0  0  0  0  0  0  0
   21.9862  -10.7580    1.3198 H   0  0  0  0  0  0  0  0  0  0  0  0
   24.0214   -9.3146    1.2412 H   0  0  0  0  0  0  0  0  0  0  0  0
   24.0159   -9.4020   -0.5264 H   0  0  0  0  0  0  0  0  0  0  0  0
   24.2383  -11.8857   -0.4049 H   0  0  0  0  0  0  0  0  0  0  0  0
   24.2417  -11.7994    1.3627 H   0  0  0  0  0  0  0  0  0  0  0  0
   26.2757  -10.3532    1.2882 H   0  0  0  0  0  0  0  0  0  0  0  0
   26.2723  -10.4394   -0.4794 H   0  0  0  0  0  0  0  0  0  0  0  0
   26.4943  -12.9229   -0.3594 H   0  0  0  0  0  0  0  0  0  0  0  0
   26.4956  -12.8379    1.4082 H   0  0  0  0  0  0  0  0  0  0  0  0
   28.5293  -11.3914    1.3372 H   0  0  0  0  0  0  0  0  0  0  0  0
   28.5281  -11.4764   -0.4304 H   0  0  0  0  0  0  0  0  0  0  0  0
   28.7488  -13.9605   -0.3112 H   0  0  0  0  0  0  0  0  0  0  0  0
   28.7501  -13.8755    1.4565 H   0  0  0  0  0  0  0  0  0  0  0  0
   30.7838  -12.4289    1.3855 H   0  0  0  0  0  0  0  0  0  0  0  0
   30.7825  -12.5138   -0.3822 H   0  0  0  0  0  0  0  0  0  0  0  0
   31.0032  -14.9979   -0.2629 H   0  0  0  0  0  0  0  0  0  0  0  0
   31.0045  -14.9130    1.5048 H   0  0  0  0  0  0  0  0  0  0  0  0
   33.0382  -13.4663    1.4338 H   0  0  0  0  0  0  0  0  0  0  0  0
   33.0369  -13.5513   -0.3339 H   0  0  0  0  0  0  0  0  0  0  0  0
   33.2576  -16.0354   -0.2146 H   0  0  0  0  0  0  0  0  0  0  0  0
   33.2589  -15.9504    1.5530 H   0  0  0  0  0  0  0  0  0  0  0  0
   35.2928  -14.5050    1.4828 H   0  0  0  0  0  0  0  0  0  0  0  0
   35.2911  -14.5875   -0.2850 H   0  0  0  0  0  0  0  0  0  0  0  0
   35.5118  -17.0718   -0.1692 H   0  0  0  0  0  0  0  0  0  0  0  0
   35.5135  -16.9893    1.5986 H   0  0  0  0  0  0  0  0  0  0  0  0
   37.5473  -15.5426    1.5291 H   0  0  0  0  0  0  0  0  0  0  0  0
   37.5455  -15.6251   -0.2387 H   0  0  0  0  0  0  0  0  0  0  0  0
   37.7662  -18.1094   -0.1230 H   0  0  0  0  0  0  0  0  0  0  0  0
   37.7680  -18.0268    1.6448 H   0  0  0  0  0  0  0  0  0  0  0  0
   39.8019  -16.5813    1.5761 H   0  0  0  0  0  0  0  0  0  0  0  0
   39.7997  -16.6614   -0.1918 H   0  0  0  0  0  0  0  0  0  0  0  0
   40.0215  -19.1452   -0.0803 H   0  0  0  0  0  0  0  0  0  0  0  0
   40.0215  -19.0664    1.6877 H   0  0  0  0  0  0  0  0  0  0  0  0
   42.0554  -17.6207    1.6240 H   0  0  0  0  0  0  0  0  0  0  0  0
   42.0550  -17.6970   -0.1441 H   0  0  0  0  0  0  0  0  0  0  0  0
   42.2768  -20.1811   -0.0376 H   0  0  0  0  0  0  0  0  0  0  0  0
   42.2751  -20.1060    1.7305 H   0  0  0  0  0  0  0  0  0  0  0  0
   44.3086  -18.6577    1.6702 H   0  0  0  0  0  0  0  0  0  0  0  0
   44.3107  -18.7352   -0.0978 H   0  0  0  0  0  0  0  0  0  0  0  0
   44.5303  -21.2204    0.0122 H   0  0  0  0  0  0  0  0  0  0  0  0
   44.5303  -21.1416    1.7802 H   0  0  0  0  0  0  0  0  0  0  0  0
   46.5640  -19.6946    1.7157 H   0  0  0  0  0  0  0  0  0  0  0  0
   46.5640  -19.7734   -0.0523 H   0  0  0  0  0  0  0  0  0  0  0  0
   46.7847  -22.2579    0.0584 H   0  0  0  0  0  0  0  0  0  0  0  0
   46.7847  -22.1791    1.8264 H   0  0  0  0  0  0  0  0  0  0  0  0
   48.8184  -20.7322    1.7619 H   0  0  0  0  0  0  0  0  0  0  0  0
   48.8184  -20.8110   -0.0060 H   0  0  0  0  0  0  0  0  0  0  0  0
   49.0391  -23.2955    0.1047 H   0  0  0  0  0  0  0  0  0  0  0  0
   49.0391  -23.2167    1.8727 H   0  0  0  0  0  0  0  0  0  0  0  0
   51.0728  -21.7698    1.8082 H   0  0  0  0  0  0  0  0  0  0  0  0
   51.0729  -21.8486    0.0402 H   0  0  0  0  0  0  0  0  0  0  0  0
   51.2946  -24.3325    0.1502 H   0  0  0  0  0  0  0  0  0  0  0  0
   51.2925  -24.2549    1.9182 H   0  0  0  0  0  0  0  0  0  0  0  0
   53.3259  -22.8067    1.8564 H   0  0  0  0  0  0  0  0  0  0  0  0
   53.3286  -22.8867    0.0885 H   0  0  0  0  0  0  0  0  0  0  0  0
   53.5503  -25.3705    0.2005 H   0  0  0  0  0  0  0  0  0  0  0  0
   53.5456  -25.2918    1.9684 H   0  0  0  0  0  0  0  0  0  0  0  0
   55.5793  -23.8446    1.9095 H   0  0  0  0  0  0  0  0  0  0  0  0
   55.5840  -23.9233    0.1415 H   0  0  0  0  0  0  0  0  0  0  0  0
   55.8037  -26.4084    0.2535 H   0  0  0  0  0  0  0  0  0  0  0  0
   55.8010  -26.3284    2.0214 H   0  0  0  0  0  0  0  0  0  0  0  0
   57.8350  -24.8826    1.9598 H   0  0  0  0  0  0  0  0  0  0  0  0
   57.8372  -24.9601    0.1918 H   0  0  0  0  0  0  0  0  0  0  0  0
   58.0589  -27.4441    0.3002 H   0  0  0  0  0  0  0  0  0  0  0  0
   58.0546  -27.3678    2.0683 H   0  0  0  0  0  0  0  0  0  0  0  0
   60.0885  -25.9218    2.0116 H   0  0  0  0  0  0  0  0  0  0  0  0
   60.0924  -25.9956    0.2434 H   0  0  0  0  0  0  0  0  0  0  0  0
   60.3120  -28.4810    0.3485 H   0  0  0  0  0  0  0  0  0  0  0  0
   60.3103  -28.4059    2.1166 H   0  0  0  0  0  0  0  0  0  0  0  0
   62.3438  -26.9575    2.0563 H   0  0  0  0  0  0  0  0  0  0  0  0
   62.3459  -27.0351    0.2883 H   0  0  0  0  0  0  0  0  0  0  0  0
   62.5666  -29.5196    0.3975 H   0  0  0  0  0  0  0  0  0  0  0  0
   62.5645  -29.4421    2.1655 H   0  0  0  0  0  0  0  0  0  0  0  0
   64.5984  -27.9962    2.1054 H   0  0  0  0  0  0  0  0  0  0  0  0
   64.6001  -28.0713    0.3372 H   0  0  0  0  0  0  0  0  0  0  0  0
   64.8208  -30.5560    0.4430 H   0  0  0  0  0  0  0  0  0  0  0  0
   64.8191  -30.4809    2.2111 H   0  0  0  0  0  0  0  0  0  0  0  0
   66.8528  -29.0338    2.1516 H   0  0  0  0  0  0  0  0  0  0  0  0
   66.8545  -29.1089    0.3835 H   0  0  0  0  0  0  0  0  0  0  0  0
   67.0752  -31.5936    0.4892 H   0  0  0  0  0  0  0  0  0  0  0  0
   67.0735  -31.5185    2.2573 H   0  0  0  0  0  0  0  0  0  0  0  0
   69.1072  -30.0713    2.1979 H   0  0  0  0  0  0  0  0  0  0  0  0
   69.1089  -30.1464    0.4297 H   0  0  0  0  0  0  0  0  0  0  0  0
   69.3297  -32.6312    0.5355 H   0  0  0  0  0  0  0  0  0  0  0  0
   69.3279  -32.5561    2.3036 H   0  0  0  0  0  0  0  0  0  0  0  0
   71.3616  -31.1089    2.2441 H   0  0  0  0  0  0  0  0  0  0  0  0
   71.3634  -31.1840    0.4760 H   0  0  0  0  0  0  0  0  0  0  0  0
   71.5841  -33.6687    0.5817 H   0  0  0  0  0  0  0  0  0  0  0  0
   71.5824  -33.5936    2.3498 H   0  0  0  0  0  0  0  0  0  0  0  0
   73.6161  -32.1465    2.2904 H   0  0  0  0  0  0  0  0  0  0  0  0
   73.6178  -32.2216    0.5222 H   0  0  0  0  0  0  0  0  0  0  0  0
   73.8385  -34.7063    0.6280 H   0  0  0  0  0  0  0  0  0  0  0  0
   73.8368  -34.6312    2.3961 H   0  0  0  0  0  0  0  0  0  0  0  0
   75.8702  -33.1829    2.3358 H   0  0  0  0  0  0  0  0  0  0  0  0
   75.8724  -33.2604    0.5678 H   0  0  0  0  0  0  0  0  0  0  0  0
   76.0931  -35.7450    0.6770 H   0  0  0  0  0  0  0  0  0  0  0  0
   76.0909  -35.6674    2.4450 H   0  0  0  0  0  0  0  0  0  0  0  0
   78.1246  -34.2203    2.3841 H   0  0  0  0  0  0  0  0  0  0  0  0
   78.1268  -34.2979    0.6160 H   0  0  0  0  0  0  0  0  0  0  0  0
   78.3475  -36.7824    0.7253 H   0  0  0  0  0  0  0  0  0  0  0  0
   78.3454  -36.7049    2.4933 H   0  0  0  0  0  0  0  0  0  0  0  0
   80.3791  -35.2578    2.4323 H   0  0  0  0  0  0  0  0  0  0  0  0
   80.3812  -35.3354    0.6643 H   0  0  0  0  0  0  0  0  0  0  0  0
   80.6019  -37.8199    0.7736 H   0  0  0  0  0  0  0  0  0  0  0  0
   80.5998  -37.7424    2.5416 H   0  0  0  0  0  0  0  0  0  0  0  0
   82.6333  -36.2941    2.4798 H   0  0  0  0  0  0  0  0  0  0  0  0
   82.6359  -36.3741    0.7119 H   0  0  0  0  0  0  0  0  0  0  0  0
   82.8565  -38.8585    0.8246 H   0  0  0  0  0  0  0  0  0  0  0  0
   82.8539  -38.7785    2.5925 H   0  0  0  0  0  0  0  0  0  0  0  0
   84.8878  -37.3318    2.5300 H   0  0  0  0  0  0  0  0  0  0  0  0
   84.8905  -37.4118    0.7622 H   0  0  0  0  0  0  0  0  0  0  0  0
   85.1122  -39.8959    0.8740 H   0  0  0  0  0  0  0  0  0  0  0  0
   85.1074  -39.8172    2.6423 H   0  0  0  0  0  0  0  0  0  0  0  0
   87.1416  -38.3718    2.5837 H   0  0  0  0  0  0  0  0  0  0  0  0
   87.1459  -38.4481    0.8162 H   0  0  0  0  0  0  0  0  0  0  0  0
   87.3781  -40.9349    0.9236 H   0  0  0  0  0  0  0  0  0  0  0  0
   87.3737  -40.8586    2.6920 H   0  0  0  0  0  0  0  0  0  0  0  0
   89.4178  -39.5004    0.8638 H   0  0  0  0  0  0  0  0  0  0  0  0
   89.6874  -40.9751    1.8169 H   0  0  0  0  0  0  0  0  0  0  0  0
   89.4135  -39.4239    2.6380 H   0  0  0  0  0  0  0  0  0  0  0  0
  1  2  2  0  0  0  0
  1 81  1  0  0  0  0
  1 82  1  0  0  0  0
  2  3  1  0  0  0  0
  2 83  1  0  0  0  0
  3  4  1  0  0  0  0
  3 84  1  0  0  0  0
  3 85  1  0  0  0  0
  4  5  1  0  0  0  0
  4 86  1  0  0  0  0
  5  6  1  0  0  0  0
  5 87  1  0  0  0  0
  6  7  1  0  0  0  0
  6 88  1  0  0  0  0
  7  8  1  0  0  0  0
  7 89  1  0  0  0  0
  8  9  1  0  0  0  0
  8 90  1  0  0  0  0
  9 10  1  0  0  0  0
  9 91  1  0  0  0  0
 10 11  1  0  0  0  0
 10 92  1  0  0  0  0
 11 12  1  0  0  0  0
 11 93  1  0  0  0  0
 12 13  1  0  0  0  0
 12 94  1  0  0  0  0
 13 14  1  0  0  0  0
 13 95  1  0  0  0  0
 14 15  1  0  0  0  0
 14 96  1  0  0  0  0
 15 16  1  0  0  0  0
 15 97  1  0  0  0  0
 16 17  1  0  0  0  0
 16 98  1  0  0  0  0
 17 18  1  0  0  0  0
 17 99  1  0  0  0  0
 18 19  1  0  0  0  0
 18100  1  0  0  0  0
 19 20  1  0  0  0  0
 19101  1  0  0  0  0
 19102  1  0  0  0  0
 20 21  1  0  0  0  0
 20103  1  0  0  0  0
 20104  1  0  0  0  0
 21 22  1  0  0  0  0
 21105  1  0  0  0  0
 21106  1  0  0  0  0
 22 23  1  0  0  0  0
 22107  1  0  0  0  0
 22108  1  0  0  0  0
 23 24  1  0  0  0  0
 23109  1  0  0  0  0
 23110  1  0  0  0  0
 24 25  1  0  0  0  0
 24111  1  0  0  0  0
 24112  1  0  0  0  0
 25 26  1  0  0  0  0
 25113  1  0  0  0  0
 25114  1  0  0  0  0
 26 27  1  0  0  0  0
 26115  1  0  0  0  0
 26116  1  0  0  0  0
 27 28  1  0  0  0  0
 27117  1  0  0  0  0
 27118  1  0  0  0  0
 28 29  1  0  0  0  0
 28119  1  0  0  0  0
 28120  1  0  0  0  0
 29 30  1  0  0  0  0
 29121  1  0  0  0  0
 29122  1  0  0  0  0
 30 31  1  0  0  0  0
 30123  1  0  0  0  0
 30124  1  0  0  0  0
 31 32  1  0  0  0  0
 31125  1  0  0  0  0
 31126  1  0  0  0  0
 32 33  1  0  0  0  0
 32127  1  0  0  0  0
 32128  1  0  0  0  0
 33 34  1  0  0  0  0
 33129  1  0  0  0  0
 33130  1  0  0  0  0
 34 35  1  0  0  0  0
 34131  1  0  0  0  0
 34132  1  0  0  0  0
 35 36  1  0  0  0  0
 35133  1  0  0  0  0
 35134  1  0  0  0  0
 36 37  1  0  0  0  0
 36135  1  0  0  0  0
 36136  1  0  0  0  0
 37 38  1  0  0  0  0
 37137  1  0  0  0  0
 37138  1  0  0  0  0
 38 39  1  0  0  0  0
 38139  1  0  0  0  0
 38140  1  0  0  0  0
 39 40  1  0  0  0  0
 39141  1  0  0  0  0
 39142  1  0  0  0  0
 40 41  1  0  0  0  0
 40143  1  0  0  0  0
 40144  1  0  0  0  0
 41 42  1  0  0  0  0
 41145  1  0  0  0  0
 41146  1  0  0  0  0
 42 43  1  0  0  0  0
 42147  1  0  0  0  0
 42148  1  0  0  0  0
 43 44  1  0  0  0  0
 43149  1  0  0  0  0
 43150  1  0  0  0  0
 44 45  1  0  0  0  0
 44151  1  0  0  0  0
 44152  1  0  0  0  0
 45 46  1  0  0  0  0
 45153  1  0  0  0  0
 45154  1  0  0  0  0
 46 47  1  0  0  0  0
 46155  1  0  0  0  0
 46156  1  0  0  0  0
 47 48  1  0  0  0  0
 47157  1  0  0  0  0
 47158  1  0  0  0  0
 48 49  1  0  0  0  0
 48159  1  0  0  0  0
 48160  1  0  0  0  0
 49 50  1  0  0  0  0
 49161  1  0  0  0  0
 49162  1  0  0  0  0
 50 51  1  0  0  0  0
 50163  1  0  0  0  0
 50164  1  0  0  0  0
 51 52  1  0  0  0  0
 51165  1  0  0  0  0
 51166  1  0  0  0  0
 52 53  1  0  0  0  0
 52167  1  0  0  0  0
 52168  1  0  0  0  0
 53 54  1  0  0  0  0
 53169  1  0  0  0  0
 53170  1  0  0  0  0
 54 55  1  0  0  0  0
 54171  1  0  0  0  0
 54172  1  0  0  0  0
 55 56  1  0  0  0  0
 55173  1  0  0  0  0
 55174  1  0  0  0  0
 56 57  1  0  0  0  0
 56175  1  0  0  0  0
 56176  1  0  0  0  0
 57 58  1  0  0  0  0
 57177  1  0  0  0  0
 57178  1  0  0  0  0
 58 59  1  0  0  0  0
 58179  1  0  0  0  0
 58180  1  0  0  0  0
 59 60  1  0  0  0  0
 59181  1  0  0  0  0
 59182  1  0  0  0  0
 60 61  1  0  0  0  0
 60183  1  0  0  0  0
 60184  1  0  0  0  0
 61 62  1  0  0  0  0
 61185  1  0  0  0  0
 61186  1  0  0  0  0
 62 63  1  0  0  0  0
 62187  1  0  0  0  0
 62188  1  0  0  0  0
 63 64  1  0  0  0  0
 63189  1  0  0  0  0
 63190  1  0  0  0  0
 64 65  1  0  0  0  0
 64191  1  0  0  0  0
 64192  1  0  0  0  0
 65 66  1  0  0  0  0
 65193  1  0  0  0  0
 65194  1  0  0  0  0
 66 67  1  0  0  0  0
 66195  1  0  0  0  0
 66196  1  0  0  0  0
 67 68  1  0  0  0  0
 67197  1  0  0  0  0
 67198  1  0  0  0  0
 68 69  1  0  0  0  0
 68199  1  0  0  0  0
 68200  1  0  0  0  0
 69 70  1  0  0  0  0
 69201  1  0  0  0  0
 69202  1  0  0  0  0
 70 71  1  0  0  0  0
 70203  1  0  0  0  0
 70204  1  0  0  0  0
 71 72  1  0  0  0  0
 71205  1  0  0  0  0
 71206  1  0  0  0  0
 72 73  1  0  0  0  0
 72207  1  0  0  0  0
 72208  1  0  0  0  0
 73 74  1  0  0  0  0
 73209  1  0  0  0  0
 73210  1  0  0  0  0
 74 75  1  0  0  0  0
 74211  1  0  0  0  0
 74212  1  0  0  0  0
 75 76  1  0  0  0  0
 75213  1  0  0  0  0
 75214  1  0  0  0  0
 76 77  1  0  0  0  0
 76215  1  0  0  0  0
 76216  1  0  0  0  0
 77 78  1  0  0  0  0
 77217  1  0  0  0  0
 77218  1  0  0  0  0
 78 79  1  0  0  0  0
 78219  1  0  0  0  0
 78220  1  0  0  0  0
 79 80  1  0  0  0  0
 79221  1  0  0  0  0
 79222  1  0  0  0  0
 80223  1  0  0  0  0
 80224  1  0  0  0  0
 80225  1  0  0  0  0
M  END
$$$$
