
 OpenBabel04232216433D

 29 29  0  0  0  0  0  0  0  0999 V2000
    7.0559    0.0898   -0.2335 C   0  0  0  0  0  0  0  0  0  0  0  0
    5.4554   -0.0178   -0.1109 C   0  0  0  0  0  0  0  0  0  0  0  0
    4.1781    0.5737   -0.8202 C   0  0  0  0  0  0  0  0  0  0  0  0
    4.3668    1.4669   -1.8969 C   0  0  0  0  0  0  0  0  0  0  0  0
    4.5196    2.2857   -2.8821 C   0  0  0  0  0  0  0  0  0  0  0  0
    5.8641    2.3519   -2.9601 C   0  0  0  0  0  0  0  0  0  0  0  0
    6.4830    3.0791   -3.8332 C   0  0  0  0  0  0  0  0  0  0  0  0
    7.6609    2.8979   -3.6159 C   0  0  0  0  0  0  0  0  0  0  0  0
    8.4365    3.6246   -4.4903 C   0  0  0  0  0  0  0  0  0  0  0  0
    9.6133    3.2974   -4.0985 C   0  0  0  0  0  0  0  0  0  0  0  0
   10.7442    3.8467   -4.7334 C   0  0  0  0  0  0  0  0  0  0  0  0
   12.0099    3.3845   -4.0325 C   0  0  0  0  0  0  0  0  0  0  0  0
   11.6590    2.3115   -2.8788 C   0  0  0  0  0  0  0  0  0  0  0  0
   10.7562    1.5713   -2.0083 C   0  0  0  0  0  0  0  0  0  0  0  0
    9.0477    0.7182   -0.9672 S   0  0  0  0  0  0  0  0  0  0  0  0
    6.7969    0.7166   -0.9943 H   0  0  0  0  0  0  0  0  0  0  0  0
    4.7430   -0.5971    0.5828 H   0  0  0  0  0  0  0  0  0  0  0  0
    2.9741    0.7308   -1.0116 H   0  0  0  0  0  0  0  0  0  0  0  0
    5.4192    1.1525   -1.5208 H   0  0  0  0  0  0  0  0  0  0  0  0
    3.8377    2.7803   -3.4745 H   0  0  0  0  0  0  0  0  0  0  0  0
    6.5919    1.8093   -2.3081 H   0  0  0  0  0  0  0  0  0  0  0  0
    5.9815    3.6542   -4.5241 H   0  0  0  0  0  0  0  0  0  0  0  0
    8.0718    2.2314   -2.8147 H   0  0  0  0  0  0  0  0  0  0  0  0
    8.2025    4.2940   -5.2917 H   0  0  0  0  0  0  0  0  0  0  0  0
    9.5590    2.6007   -3.2674 H   0  0  0  0  0  0  0  0  0  0  0  0
   10.4772    4.4653   -5.5120 H   0  0  0  0  0  0  0  0  0  0  0  0
   13.1856    3.5548   -4.3960 H   0  0  0  0  0  0  0  0  0  0  0  0
   11.5991    2.9215   -3.7519 H   0  0  0  0  0  0  0  0  0  0  0  0
   11.7782    1.2707   -1.6726 H   0  0  0  0  0  0  0  0  0  0  0  0
  1  2  2  3  0  0  0
  1 15  1  0  0  0  0
  1 16  1  0  0  0  0
  2  3  1  0  0  0  0
  2 17  1  0  0  0  0
  3  4  2  3  0  0  0
  3 18  1  0  0  0  0
  4  5  1  0  0  0  0
  4 19  1  0  0  0  0
  5  6  2  3  0  0  0
  5 20  1  0  0  0  0
  6  7  1  0  0  0  0
  6 21  1  0  0  0  0
  7  8  2  3  0  0  0
  7 22  1  0  0  0  0
  8  9  1  0  0  0  0
  8 23  1  0  0  0  0
  9 10  2  3  0  0  0
  9 24  1  0  0  0  0
 10 11  1  0  0  0  0
 10 25  1  0  0  0  0
 11 12  2  3  0  0  0
 11 26  1  0  0  0  0
 12 13  1  0  0  0  0
 12 27  1  0  0  0  0
 13 14  2  3  0  0  0
 13 28  1  0  0  0  0
 14 15  1  0  0  0  0
 14 29  1  0  0  0  0
M  END
$$$$
