
 OpenBabel04232216503D

 50 50  0  0  0  0  0  0  0  0999 V2000
    6.6354    5.7515    1.2348 C   0  0  0  0  0  0  0  0  0  0  0  0
    8.4082    5.9065    2.0315 C   0  0  0  0  0  0  0  0  0  0  0  0
    7.8744    4.3606    2.0310 C   0  0  0  0  0  0  0  0  0  0  0  0
    6.5859    3.1018    1.5263 C   0  0  0  0  0  0  0  0  0  0  0  0
    6.4603    1.9809    2.2931 C   0  0  0  0  0  0  0  0  0  0  0  0
    7.8759    1.4785    2.1458 C   0  0  0  0  0  0  0  0  0  0  0  0
    8.4827    2.2416    3.2670 C   0  0  0  0  0  0  0  0  0  0  0  0
    9.5077    3.0806    3.3099 C   0  0  0  0  0  0  0  0  0  0  0  0
    9.1186    4.2035    4.1517 C   0  0  0  0  0  0  0  0  0  0  0  0
   10.0060    5.0311    4.6266 C   0  0  0  0  0  0  0  0  0  0  0  0
   10.9093    5.8268    5.0960 C   0  0  0  0  0  0  0  0  0  0  0  0
   12.1677    5.5783    4.7493 C   0  0  0  0  0  0  0  0  0  0  0  0
   13.0236    6.2811    5.5132 C   0  0  0  0  0  0  0  0  0  0  0  0
   14.3239    6.2419    5.2775 C   0  0  0  0  0  0  0  0  0  0  0  0
   14.8690    6.9750    6.3026 C   0  0  0  0  0  0  0  0  0  0  0  0
   16.0677    7.4407    6.4841 C   0  0  0  0  0  0  0  0  0  0  0  0
   15.9039    8.3524    7.5881 C   0  0  0  0  0  0  0  0  0  0  0  0
   16.9542    9.1389    7.7279 C   0  0  0  0  0  0  0  0  0  0  0  0
   16.3002   10.3988    7.2218 C   0  0  0  0  0  0  0  0  0  0  0  0
   16.0912   10.1407    5.8217 C   0  0  0  0  0  0  0  0  0  0  0  0
   14.4162    9.8255    4.8889 C   0  0  0  0  0  0  0  0  0  0  0  0
   13.1916    8.7502    4.1578 C   0  0  0  0  0  0  0  0  0  0  0  0
   11.4370    7.9829    3.4642 C   0  0  0  0  0  0  0  0  0  0  0  0
   10.2326    6.8406    2.5374 C   0  0  0  0  0  0  0  0  0  0  0  0
    5.7158    5.7436    1.9746 H   0  0  0  0  0  0  0  0  0  0  0  0
    5.8322    4.7555    1.3250 H   0  0  0  0  0  0  0  0  0  0  0  0
    6.6630    4.9888    0.2531 H   0  0  0  0  0  0  0  0  0  0  0  0
    6.9102    4.3450    2.8012 H   0  0  0  0  0  0  0  0  0  0  0  0
    6.4278    2.3831    0.5838 H   0  0  0  0  0  0  0  0  0  0  0  0
    6.0377    2.0906    3.3534 H   0  0  0  0  0  0  0  0  0  0  0  0
    8.2138    1.7843    1.1097 H   0  0  0  0  0  0  0  0  0  0  0  0
    7.9744    0.4096    2.1369 H   0  0  0  0  0  0  0  0  0  0  0  0
    7.6942    2.7156    3.8829 H   0  0  0  0  0  0  0  0  0  0  0  0
   10.2444    3.1805    2.4979 H   0  0  0  0  0  0  0  0  0  0  0  0
    8.1147    4.6815    4.2822 H   0  0  0  0  0  0  0  0  0  0  0  0
   10.7211    4.3078    4.4173 H   0  0  0  0  0  0  0  0  0  0  0  0
   10.5575    6.7622    5.5745 H   0  0  0  0  0  0  0  0  0  0  0  0
   12.5506    4.9487    3.9714 H   0  0  0  0  0  0  0  0  0  0  0  0
   12.5241    6.9459    6.2529 H   0  0  0  0  0  0  0  0  0  0  0  0
   14.7838    6.0908    4.3119 H   0  0  0  0  0  0  0  0  0  0  0  0
   14.1000    7.5042    6.8801 H   0  0  0  0  0  0  0  0  0  0  0  0
   16.8811    7.3994    5.7588 H   0  0  0  0  0  0  0  0  0  0  0  0
   14.9161    8.9227    7.5997 H   0  0  0  0  0  0  0  0  0  0  0  0
   17.8710    8.7006    7.2842 H   0  0  0  0  0  0  0  0  0  0  0  0
   16.8874   11.0550    7.9386 H   0  0  0  0  0  0  0  0  0  0  0  0
   17.2296   10.3560    5.5145 H   0  0  0  0  0  0  0  0  0  0  0  0
   14.5908   10.9622    4.9568 H   0  0  0  0  0  0  0  0  0  0  0  0
   13.6817    8.1732    4.9292 H   0  0  0  0  0  0  0  0  0  0  0  0
   11.2441    8.1929    4.4851 H   0  0  0  0  0  0  0  0  0  0  0  0
   10.7684    5.9270    2.4331 H   0  0  0  0  0  0  0  0  0  0  0  0
  1  2  1  0  0  0  0
  1 25  1  0  0  0  0
  1 26  1  0  0  0  0
  1 27  1  0  0  0  0
  2  3  2  3  0  0  0
  2 24  1  0  0  0  0
  3  4  1  0  0  0  0
  3 28  1  0  0  0  0
  4  5  2  3  0  0  0
  4 29  1  0  0  0  0
  5  6  1  0  0  0  0
  5 30  1  0  0  0  0
  6  7  1  0  0  0  0
  6 31  1  0  0  0  0
  6 32  1  0  0  0  0
  7  8  2  3  0  0  0
  7 33  1  0  0  0  0
  8  9  1  0  0  0  0
  8 34  1  0  0  0  0
  9 10  2  3  0  0  0
  9 35  1  0  0  0  0
 10 11  1  0  0  0  0
 10 36  1  0  0  0  0
 11 12  2  3  0  0  0
 11 37  1  0  0  0  0
 12 13  1  0  0  0  0
 12 38  1  0  0  0  0
 13 14  2  3  0  0  0
 13 39  1  0  0  0  0
 14 15  1  0  0  0  0
 14 40  1  0  0  0  0
 15 16  2  3  0  0  0
 15 41  1  0  0  0  0
 16 17  1  0  0  0  0
 16 42  1  0  0  0  0
 17 18  2  3  0  0  0
 17 43  1  0  0  0  0
 18 19  1  0  0  0  0
 18 44  1  0  0  0  0
 19 20  2  3  0  0  0
 19 45  1  0  0  0  0
 20 21  1  0  0  0  0
 20 46  1  0  0  0  0
 21 22  2  3  0  0  0
 21 47  1  0  0  0  0
 22 23  1  0  0  0  0
 22 48  1  0  0  0  0
 23 24  2  3  0  0  0
 23 49  1  0  0  0  0
 24 50  1  0  0  0  0
M  END
$$$$
