
 OpenBabel04232216503D

 40 41  0  0  0  0  0  0  0  0999 V2000
    4.6745    0.2322   -1.4141 C   0  0  0  0  0  0  0  0  0  0  0  0
    5.2858    1.6365   -1.4078 C   0  0  0  0  0  0  0  0  0  0  0  0
    4.2798    2.4826   -1.0162 N   0  0  0  0  0  0  0  0  0  0  0  0
    4.1507    2.5463    0.2759 C   0  0  0  0  0  0  0  0  0  0  0  0
    5.1104    3.3587    1.0361 C   0  0  0  0  0  0  0  0  0  0  0  0
    5.4834    4.5938    0.7986 N   0  0  0  0  0  0  0  0  0  0  0  0
    5.0114    5.3470   -0.4077 C   0  0  0  0  0  0  0  0  0  0  0  0
    3.5059    5.5449   -0.5514 C   0  0  0  0  0  0  0  0  0  0  0  0
    2.9349    6.5365    0.4306 C   0  0  0  0  0  0  0  0  0  0  0  0
    6.3195    2.9671    1.4944 C   0  0  0  0  0  0  0  0  0  0  0  0
    7.0522    1.6297    1.5541 C   0  0  0  0  0  0  0  0  0  0  0  0
    6.7435    4.2216    0.8964 C   0  0  0  0  0  0  0  0  0  0  0  0
    7.8159    4.2672    0.1047 C   0  0  0  0  0  0  0  0  0  0  0  0
    7.6383    4.2296   -1.3501 C   0  0  0  0  0  0  0  0  0  0  0  0
    8.2559    5.4663   -1.9669 C   0  0  0  0  0  0  0  0  0  0  0  0
    7.5090    3.0310   -1.9882 C   0  0  0  0  0  0  0  0  0  0  0  0
    8.8686    2.5606   -2.5308 C   0  0  0  0  0  0  0  0  0  0  0  0
    6.5744    1.8676   -1.7774 C   0  0  0  0  0  0  0  0  0  0  0  0
    3.5739    0.3072   -1.4865 H   0  0  0  0  0  0  0  0  0  0  0  0
    4.8723   -0.2697   -0.4616 H   0  0  0  0  0  0  0  0  0  0  0  0
    4.9903   -0.3814   -2.2559 H   0  0  0  0  0  0  0  0  0  0  0  0
    3.1916    2.3615    0.7830 H   0  0  0  0  0  0  0  0  0  0  0  0
    5.3061    4.8233   -1.3207 H   0  0  0  0  0  0  0  0  0  0  0  0
    5.5149    6.3235   -0.4379 H   0  0  0  0  0  0  0  0  0  0  0  0
    2.9446    4.6112   -0.4778 H   0  0  0  0  0  0  0  0  0  0  0  0
    3.3222    5.9135   -1.5690 H   0  0  0  0  0  0  0  0  0  0  0  0
    2.9828    6.1442    1.4490 H   0  0  0  0  0  0  0  0  0  0  0  0
    1.8868    6.7283    0.1814 H   0  0  0  0  0  0  0  0  0  0  0  0
    3.4782    7.4836    0.3824 H   0  0  0  0  0  0  0  0  0  0  0  0
    6.3781    0.7723    1.5853 H   0  0  0  0  0  0  0  0  0  0  0  0
    7.7662    1.6060    2.3805 H   0  0  0  0  0  0  0  0  0  0  0  0
    7.6949    1.5180    0.6701 H   0  0  0  0  0  0  0  0  0  0  0  0
    8.7151    3.7427    0.4329 H   0  0  0  0  0  0  0  0  0  0  0  0
    7.4845    6.2434   -2.0510 H   0  0  0  0  0  0  0  0  0  0  0  0
    8.6474    5.2920   -2.9721 H   0  0  0  0  0  0  0  0  0  0  0  0
    9.0648    5.8795   -1.3527 H   0  0  0  0  0  0  0  0  0  0  0  0
    9.0989    1.5356   -2.2140 H   0  0  0  0  0  0  0  0  0  0  0  0
    9.6934    3.1538   -2.1049 H   0  0  0  0  0  0  0  0  0  0  0  0
    8.9250    2.6334   -3.6164 H   0  0  0  0  0  0  0  0  0  0  0  0
    7.0699    0.9372   -2.0674 H   0  0  0  0  0  0  0  0  0  0  0  0
  1  2  1  0  0  0  0
  1 19  1  0  0  0  0
  1 20  1  0  0  0  0
  1 21  1  0  0  0  0
  2  3  1  0  0  0  0
  2 18  2  0  0  0  0
  3  4  2  0  0  0  0
  4  5  1  0  0  0  0
  4 22  1  0  0  0  0
  5  6  1  0  0  0  0
  5 10  2  0  0  0  0
  6  7  1  0  0  0  0
  6 12  1  0  0  0  0
  7  8  1  0  0  0  0
  7 23  1  0  0  0  0
  7 24  1  0  0  0  0
  8  9  1  0  0  0  0
  8 25  1  0  0  0  0
  8 26  1  0  0  0  0
  9 27  1  0  0  0  0
  9 28  1  0  0  0  0
  9 29  1  0  0  0  0
 10 11  1  0  0  0  0
 10 12  1  0  0  0  0
 11 30  1  0  0  0  0
 11 31  1  0  0  0  0
 11 32  1  0  0  0  0
 12 13  2  0  0  0  0
 13 14  1  0  0  0  0
 13 33  1  0  0  0  0
 14 15  1  0  0  0  0
 14 16  2  0  0  0  0
 15 34  1  0  0  0  0
 15 35  1  0  0  0  0
 15 36  1  0  0  0  0
 16 17  1  0  0  0  0
 16 18  1  0  0  0  0
 17 37  1  0  0  0  0
 17 38  1  0  0  0  0
 17 39  1  0  0  0  0
 18 40  1  0  0  0  0
M  END
$$$$
