
 OpenBabel04232217023D

132131  0  0  0  0  0  0  0  0999 V2000
   12.3356   -6.4457  -15.6765 S   0  0  0  0  0  0  0  0  0  0  0  0
   14.1327   -6.2992  -15.4338 C   0  0  0  0  0  0  0  0  0  0  0  0
   14.7974   -7.6418  -15.6728 C   0  0  0  0  0  0  0  0  0  0  0  0
   16.3002   -7.5251  -15.5236 C   0  0  0  0  0  0  0  0  0  0  0  0
   16.9322   -8.8640  -15.8379 C   0  0  0  0  0  0  0  0  0  0  0  0
   18.3707   -8.6214  -15.8057 N   0  0  0  0  0  0  0  0  0  0  0  0
   19.0361   -9.9135  -15.9139 N   0  0  0  0  0  0  0  0  0  0  0  0
   20.4486   -9.9066  -15.6075 N   0  0  0  0  0  0  0  0  0  0  0  0
   20.7808   -9.4971  -14.3125 N   0  0  0  0  0  0  0  0  0  0  0  0
   20.3050  -10.4649  -13.3647 N   0  0  0  0  0  0  0  0  0  0  0  0
   20.9534  -11.7793  -13.5427 N   0  0  0  0  0  0  0  0  0  0  0  0
   22.3686  -11.6988  -13.4304 N   0  0  0  0  0  0  0  0  0  0  0  0
   22.6645  -11.2617  -12.0921 N   0  0  0  0  0  0  0  0  0  0  0  0
   22.0666  -12.2115  -11.1478 N   0  0  0  0  0  0  0  0  0  0  0  0
   22.5849  -13.5177  -11.3892 N   0  0  0  0  0  0  0  0  0  0  0  0
   24.0141  -13.5243  -11.2029 N   0  0  0  0  0  0  0  0  0  0  0  0
   24.3763  -13.0879   -9.8738 N   0  0  0  0  0  0  0  0  0  0  0  0
   23.7955  -13.9824   -8.9218 N   0  0  0  0  0  0  0  0  0  0  0  0
   24.2998  -15.2858   -9.1946 N   0  0  0  0  0  0  0  0  0  0  0  0
   25.7418  -15.2047   -9.1092 N   0  0  0  0  0  0  0  0  0  0  0  0
   26.1746  -14.7622   -7.7808 N   0  0  0  0  0  0  0  0  0  0  0  0
   25.6666  -15.6106   -6.7711 N   0  0  0  0  0  0  0  0  0  0  0  0
   26.1924  -16.9238   -7.0078 N   0  0  0  0  0  0  0  0  0  0  0  0
   27.6301  -16.8006   -7.0731 N   0  0  0  0  0  0  0  0  0  0  0  0
   28.0410  -16.2912   -5.7684 N   0  0  0  0  0  0  0  0  0  0  0  0
   27.5841  -17.1736   -4.7138 N   0  0  0  0  0  0  0  0  0  0  0  0
   28.1108  -18.4829   -4.8979 N   0  0  0  0  0  0  0  0  0  0  0  0
   29.5368  -18.4692   -4.9183 N   0  0  0  0  0  0  0  0  0  0  0  0
   30.0092  -17.9951   -3.6375 N   0  0  0  0  0  0  0  0  0  0  0  0
   29.5629  -18.8504   -2.5430 N   0  0  0  0  0  0  0  0  0  0  0  0
   30.0615  -20.1947   -2.7130 N   0  0  0  0  0  0  0  0  0  0  0  0
   31.5139  -20.2789   -2.6293 N   0  0  0  0  0  0  0  0  0  0  0  0
   32.0170  -19.7800   -1.3808 N   0  0  0  0  0  0  0  0  0  0  0  0
   31.5696  -20.5734   -0.2770 N   0  0  0  0  0  0  0  0  0  0  0  0
   31.9674  -21.9331   -0.5360 N   0  0  0  0  0  0  0  0  0  0  0  0
   33.4317  -22.0349   -0.5851 N   0  0  0  0  0  0  0  0  0  0  0  0
   33.9696  -21.4057    0.6180 N   0  0  0  0  0  0  0  0  0  0  0  0
   33.5353  -22.1422    1.7912 N   0  0  0  0  0  0  0  0  0  0  0  0
   34.0543  -21.5278    3.2222 S   0  0  0  0  0  0  0  0  0  0  0  0
   33.4911  -19.9850    3.4147 N   0  0  0  0  0  0  0  0  0  0  0  0
   31.8711  -19.8777    3.7317 S   0  0  0  0  0  0  0  0  0  0  0  0
   31.5248  -18.2503    3.7608 N   0  0  0  0  0  0  0  0  0  0  0  0
   31.9622  -17.5057    5.1804 S   0  0  0  0  0  0  0  0  0  0  0  0
   33.6099  -17.3141    5.2293 N   0  0  0  0  0  0  0  0  0  0  0  0
   34.2483  -16.5038    3.9449 S   0  0  0  0  0  0  0  0  0  0  0  0
   33.8748  -14.8927    4.0843 N   0  0  0  0  0  0  0  0  0  0  0  0
   34.5839  -14.0997    2.8025 S   0  0  0  0  0  0  0  0  0  0  0  0
   34.0557  -12.3921    3.0565 C   0  0  0  0  0  0  0  0  0  0  0  0
   34.5626  -11.6851    4.6472 S   0  0  0  0  0  0  0  0  0  0  0  0
   36.3660  -11.7719    4.5329 C   0  0  0  0  0  0  0  0  0  0  0  0
   37.1775  -10.7744    3.2461 S   0  0  0  0  0  0  0  0  0  0  0  0
   36.7000   -8.8157    3.6662 S   0  0  0  0  0  0  0  0  0  0  0  0
   37.5866   -8.3398    5.4660 S   0  0  0  0  0  0  0  0  0  0  0  0
   39.6273   -8.1994    5.1797 S   0  0  0  0  0  0  0  0  0  0  0  0
   40.4289   -7.6919    7.0333 S   0  0  0  0  0  0  0  0  0  0  0  0
   42.4993   -7.8731    6.8916 S   0  0  0  0  0  0  0  0  0  0  0  0
   43.3230   -7.2335    8.7055 S   0  0  0  0  0  0  0  0  0  0  0  0
   45.4082   -7.3991    8.5567 S   0  0  0  0  0  0  0  0  0  0  0  0
   46.2523   -6.7878   10.3804 S   0  0  0  0  0  0  0  0  0  0  0  0
   48.3450   -6.9458   10.2293 S   0  0  0  0  0  0  0  0  0  0  0  0
   49.1967   -6.3330   12.0552 S   0  0  0  0  0  0  0  0  0  0  0  0
   51.2929   -6.4912   11.9075 S   0  0  0  0  0  0  0  0  0  0  0  0
   52.1468   -5.8777   13.7349 S   0  0  0  0  0  0  0  0  0  0  0  0
   54.2445   -6.0355   13.5884 S   0  0  0  0  0  0  0  0  0  0  0  0
   55.0991   -5.4219   15.4163 S   0  0  0  0  0  0  0  0  0  0  0  0
   57.1973   -5.5797   15.2701 S   0  0  0  0  0  0  0  0  0  0  0  0
   58.0521   -4.9660   17.0980 S   0  0  0  0  0  0  0  0  0  0  0  0
   60.1502   -5.1238   16.9517 S   0  0  0  0  0  0  0  0  0  0  0  0
   61.0045   -4.5102   18.7794 S   0  0  0  0  0  0  0  0  0  0  0  0
   63.1018   -4.6682   18.6325 S   0  0  0  0  0  0  0  0  0  0  0  0
   63.9546   -4.0548   20.4594 S   0  0  0  0  0  0  0  0  0  0  0  0
   66.0495   -4.2129   20.3113 S   0  0  0  0  0  0  0  0  0  0  0  0
   66.8975   -3.6009   22.1370 S   0  0  0  0  0  0  0  0  0  0  0  0
   68.9869   -3.7585   21.9853 S   0  0  0  0  0  0  0  0  0  0  0  0
   69.8268   -3.1411   23.8052 S   0  0  0  0  0  0  0  0  0  0  0  0
   71.9035   -3.3277   23.6511 S   0  0  0  0  0  0  0  0  0  0  0  0
   72.7387   -2.6926   25.4536 S   0  0  0  0  0  0  0  0  0  0  0  0
   74.8012   -2.7925   25.2306 S   0  0  0  0  0  0  0  0  0  0  0  0
   75.6338   -2.4401   27.0910 S   0  0  0  0  0  0  0  0  0  0  0  0
   77.6800   -2.4319   26.8115 S   0  0  0  0  0  0  0  0  0  0  0  0
   78.2212   -4.4119   26.7079 S   0  0  0  0  0  0  0  0  0  0  0  0
   12.0517   -5.1750  -15.3783 H   0  0  0  0  0  0  0  0  0  0  0  0
   14.3381   -5.9484  -14.4158 H   0  0  0  0  0  0  0  0  0  0  0  0
   14.5265   -5.5511  -16.1306 H   0  0  0  0  0  0  0  0  0  0  0  0
   14.5792   -8.0054  -16.6848 H   0  0  0  0  0  0  0  0  0  0  0  0
   14.4292   -8.3922  -14.9619 H   0  0  0  0  0  0  0  0  0  0  0  0
   16.5609   -7.2088  -14.5013 H   0  0  0  0  0  0  0  0  0  0  0  0
   16.6999   -6.7599  -16.2032 H   0  0  0  0  0  0  0  0  0  0  0  0
   16.6494   -9.2323  -16.8292 H   0  0  0  0  0  0  0  0  0  0  0  0
   16.6338   -9.6097  -15.0863 H   0  0  0  0  0  0  0  0  0  0  0  0
   18.5466   -8.2444  -14.8698 H   0  0  0  0  0  0  0  0  0  0  0  0
   18.8648  -10.3193  -16.8490 H   0  0  0  0  0  0  0  0  0  0  0  0
   21.0243   -9.3953  -16.2720 H   0  0  0  0  0  0  0  0  0  0  0  0
   20.5343   -8.5222  -14.1149 H   0  0  0  0  0  0  0  0  0  0  0  0
   19.2909  -10.5799  -13.5160 H   0  0  0  0  0  0  0  0  0  0  0  0
   20.7514  -12.1524  -14.4695 H   0  0  0  0  0  0  0  0  0  0  0  0
   22.7221  -11.0704  -14.1635 H   0  0  0  0  0  0  0  0  0  0  0  0
   22.1814  -10.3648  -11.9746 H   0  0  0  0  0  0  0  0  0  0  0  0
   21.0686  -12.2871  -11.3412 H   0  0  0  0  0  0  0  0  0  0  0  0
   22.2894  -13.8329  -12.3319 H   0  0  0  0  0  0  0  0  0  0  0  0
   24.4629  -12.9291  -11.9108 H   0  0  0  0  0  0  0  0  0  0  0  0
   24.0424  -12.1651   -9.6401 H   0  0  0  0  0  0  0  0  0  0  0  0
   22.8031  -14.0019   -9.1165 H   0  0  0  0  0  0  0  0  0  0  0  0
   24.0029  -15.5038  -10.1589 H   0  0  0  0  0  0  0  0  0  0  0  0
   26.0781  -14.5386   -9.8281 H   0  0  0  0  0  0  0  0  0  0  0  0
   25.9109  -13.8074   -7.5499 H   0  0  0  0  0  0  0  0  0  0  0  0
   24.6595  -15.6426   -6.7621 H   0  0  0  0  0  0  0  0  0  0  0  0
   25.8300  -17.1704   -7.9420 H   0  0  0  0  0  0  0  0  0  0  0  0
   27.8322  -16.0683   -7.7834 H   0  0  0  0  0  0  0  0  0  0  0  0
   27.5269  -15.3951   -5.6649 H   0  0  0  0  0  0  0  0  0  0  0  0
   26.5694  -17.2550   -4.7068 H   0  0  0  0  0  0  0  0  0  0  0  0
   27.7861  -18.8818   -5.7680 H   0  0  0  0  0  0  0  0  0  0  0  0
   29.8289  -17.8358   -5.6747 H   0  0  0  0  0  0  0  0  0  0  0  0
   29.6019  -17.0562   -3.5109 H   0  0  0  0  0  0  0  0  0  0  0  0
   28.5288  -18.8558   -2.4846 H   0  0  0  0  0  0  0  0  0  0  0  0
   29.7170  -20.5726   -3.6090 H   0  0  0  0  0  0  0  0  0  0  0  0
   31.9409  -19.6820   -3.3565 H   0  0  0  0  0  0  0  0  0  0  0  0
   31.7230  -18.8203   -1.2350 H   0  0  0  0  0  0  0  0  0  0  0  0
   30.5541  -20.5258   -0.2685 H   0  0  0  0  0  0  0  0  0  0  0  0
   31.6507  -22.0426   -1.5021 H   0  0  0  0  0  0  0  0  0  0  0  0
   33.6428  -21.4190   -1.3959 H   0  0  0  0  0  0  0  0  0  0  0  0
   33.4957  -20.4920    0.6103 H   0  0  0  0  0  0  0  0  0  0  0  0
   33.6843  -23.1387    1.6446 H   0  0  0  0  0  0  0  0  0  0  0  0
   33.7386  -19.3725    2.6359 H   0  0  0  0  0  0  0  0  0  0  0  0
   30.5170  -18.1149    3.6350 H   0  0  0  0  0  0  0  0  0  0  0  0
   34.0439  -18.2382    5.3074 H   0  0  0  0  0  0  0  0  0  0  0  0
   34.2087  -14.5085    4.9733 H   0  0  0  0  0  0  0  0  0  0  0  0
   32.9657  -12.3319    2.9905 H   0  0  0  0  0  0  0  0  0  0  0  0
   34.4587  -11.7793    2.2463 H   0  0  0  0  0  0  0  0  0  0  0  0
   36.6917  -12.8089    4.4222 H   0  0  0  0  0  0  0  0  0  0  0  0
   36.7744  -11.4392    5.4933 H   0  0  0  0  0  0  0  0  0  0  0  0
   79.5541   -4.2987   26.5817 H   0  0  0  0  0  0  0  0  0  0  0  0
  1  2  1  0  0  0  0
  1 82  1  0  0  0  0
  2  3  1  0  0  0  0
  2 83  1  0  0  0  0
  2 84  1  0  0  0  0
  3  4  1  0  0  0  0
  3 85  1  0  0  0  0
  3 86  1  0  0  0  0
  4  5  1  0  0  0  0
  4 87  1  0  0  0  0
  4 88  1  0  0  0  0
  5  6  1  0  0  0  0
  5 89  1  0  0  0  0
  5 90  1  0  0  0  0
  6  7  1  0  0  0  0
  6 91  1  0  0  0  0
  7  8  1  0  0  0  0
  7 92  1  0  0  0  0
  8  9  1  0  0  0  0
  8 93  1  0  0  0  0
  9 10  1  0  0  0  0
  9 94  1  0  0  0  0
 10 11  1  0  0  0  0
 10 95  1  0  0  0  0
 11 12  1  0  0  0  0
 11 96  1  0  0  0  0
 12 13  1  0  0  0  0
 12 97  1  0  0  0  0
 13 14  1  0  0  0  0
 13 98  1  0  0  0  0
 14 15  1  0  0  0  0
 14 99  1  0  0  0  0
 15 16  1  0  0  0  0
 15100  1  0  0  0  0
 16 17  1  0  0  0  0
 16101  1  0  0  0  0
 17 18  1  0  0  0  0
 17102  1  0  0  0  0
 18 19  1  0  0  0  0
 18103  1  0  0  0  0
 19 20  1  0  0  0  0
 19104  1  0  0  0  0
 20 21  1  0  0  0  0
 20105  1  0  0  0  0
 21 22  1  0  0  0  0
 21106  1  0  0  0  0
 22 23  1  0  0  0  0
 22107  1  0  0  0  0
 23 24  1  0  0  0  0
 23108  1  0  0  0  0
 24 25  1  0  0  0  0
 24109  1  0  0  0  0
 25 26  1  0  0  0  0
 25110  1  0  0  0  0
 26 27  1  0  0  0  0
 26111  1  0  0  0  0
 27 28  1  0  0  0  0
 27112  1  0  0  0  0
 28 29  1  0  0  0  0
 28113  1  0  0  0  0
 29 30  1  0  0  0  0
 29114  1  0  0  0  0
 30 31  1  0  0  0  0
 30115  1  0  0  0  0
 31 32  1  0  0  0  0
 31116  1  0  0  0  0
 32 33  1  0  0  0  0
 32117  1  0  0  0  0
 33 34  1  0  0  0  0
 33118  1  0  0  0  0
 34 35  1  0  0  0  0
 34119  1  0  0  0  0
 35 36  1  0  0  0  0
 35120  1  0  0  0  0
 36 37  1  0  0  0  0
 36121  1  0  0  0  0
 37 38  1  0  0  0  0
 37122  1  0  0  0  0
 38 39  1  0  0  0  0
 38123  1  0  0  0  0
 39 40  1  0  0  0  0
 40 41  1  0  0  0  0
 40124  1  0  0  0  0
 41 42  1  0  0  0  0
 42 43  1  0  0  0  0
 42125  1  0  0  0  0
 43 44  1  0  0  0  0
 44 45  1  0  0  0  0
 44126  1  0  0  0  0
 45 46  1  0  0  0  0
 46 47  1  0  0  0  0
 46127  1  0  0  0  0
 47 48  1  0  0  0  0
 48 49  1  0  0  0  0
 48128  1  0  0  0  0
 48129  1  0  0  0  0
 49 50  1  0  0  0  0
 50 51  1  0  0  0  0
 50130  1  0  0  0  0
 50131  1  0  0  0  0
 51 52  1  0  0  0  0
 52 53  1  0  0  0  0
 53 54  1  0  0  0  0
 54 55  1  0  0  0  0
 55 56  1  0  0  0  0
 56 57  1  0  0  0  0
 57 58  1  0  0  0  0
 58 59  1  0  0  0  0
 59 60  1  0  0  0  0
 60 61  1  0  0  0  0
 61 62  1  0  0  0  0
 62 63  1  0  0  0  0
 63 64  1  0  0  0  0
 64 65  1  0  0  0  0
 65 66  1  0  0  0  0
 66 67  1  0  0  0  0
 67 68  1  0  0  0  0
 68 69  1  0  0  0  0
 69 70  1  0  0  0  0
 70 71  1  0  0  0  0
 71 72  1  0  0  0  0
 72 73  1  0  0  0  0
 73 74  1  0  0  0  0
 74 75  1  0  0  0  0
 75 76  1  0  0  0  0
 76 77  1  0  0  0  0
 77 78  1  0  0  0  0
 78 79  1  0  0  0  0
 79 80  1  0  0  0  0
 80 81  1  0  0  0  0
 81132  1  0  0  0  0
M  END
$$$$
