
 OpenBabel04232216403D

230229  0  0  0  0  0  0  0  0999 V2000
    1.5499   -1.0441   -0.3990 C   0  0  0  0  0  0  0  0  0  0  0  0
    2.4104   -0.0516   -0.1416 C   0  0  0  0  0  0  0  0  0  0  0  0
    3.1797    0.6484   -1.2139 C   0  0  0  0  0  0  0  0  0  0  0  0
    4.6154    0.5223   -0.9805 N   0  0  0  0  0  0  0  0  0  0  0  0
    5.3432    1.2110   -2.0426 C   0  0  0  0  0  0  0  0  0  0  0  0
    6.8396    1.0659   -1.8075 C   0  0  0  0  0  0  0  0  0  0  0  0
    7.6094    1.7832   -2.9074 C   0  0  0  0  0  0  0  0  0  0  0  0
    9.1048    1.6435   -2.6805 C   0  0  0  0  0  0  0  0  0  0  0  0
    9.8693    2.3608   -3.7794 C   0  0  0  0  0  0  0  0  0  0  0  0
   11.3630    2.2175   -3.5501 C   0  0  0  0  0  0  0  0  0  0  0  0
   12.1266    2.9359   -4.6471 C   0  0  0  0  0  0  0  0  0  0  0  0
   13.6192    2.7935   -4.4155 C   0  0  0  0  0  0  0  0  0  0  0  0
   14.3821    3.5102   -5.5134 C   0  0  0  0  0  0  0  0  0  0  0  0
   15.8743    3.3692   -5.2804 C   0  0  0  0  0  0  0  0  0  0  0  0
   16.6369    4.0858   -6.3782 C   0  0  0  0  0  0  0  0  0  0  0  0
   18.1289    3.9432   -6.1461 C   0  0  0  0  0  0  0  0  0  0  0  0
   18.8914    4.6582   -7.2451 C   0  0  0  0  0  0  0  0  0  0  0  0
   20.3834    4.5171   -7.0120 C   0  0  0  0  0  0  0  0  0  0  0  0
   21.1459    5.2304   -8.1120 C   0  0  0  0  0  0  0  0  0  0  0  0
   22.6379    5.0876   -7.8799 C   0  0  0  0  0  0  0  0  0  0  0  0
   23.4003    5.7993   -8.9809 C   0  0  0  0  0  0  0  0  0  0  0  0
   24.8922    5.6580   -8.7478 C   0  0  0  0  0  0  0  0  0  0  0  0
   25.6547    6.3715   -9.8480 C   0  0  0  0  0  0  0  0  0  0  0  0
   27.1467    6.2286   -9.6160 C   0  0  0  0  0  0  0  0  0  0  0  0
   27.9089    6.9418  -10.7161 C   0  0  0  0  0  0  0  0  0  0  0  0
   29.4011    6.7976  -10.4851 C   0  0  0  0  0  0  0  0  0  0  0  0
   30.1636    7.5112  -11.5848 C   0  0  0  0  0  0  0  0  0  0  0  0
   31.6567    7.3668  -11.3528 C   0  0  0  0  0  0  0  0  0  0  0  0
   32.4178    8.0800  -12.4535 C   0  0  0  0  0  0  0  0  0  0  0  0
   33.9096    7.9349  -12.2228 C   0  0  0  0  0  0  0  0  0  0  0  0
   34.6719    8.6481  -13.3234 C   0  0  0  0  0  0  0  0  0  0  0  0
   36.1636    8.5031  -13.0928 C   0  0  0  0  0  0  0  0  0  0  0  0
   36.9264    9.2156  -14.1931 C   0  0  0  0  0  0  0  0  0  0  0  0
   38.4186    9.0711  -13.9619 C   0  0  0  0  0  0  0  0  0  0  0  0
   39.1809    9.7825  -15.0631 C   0  0  0  0  0  0  0  0  0  0  0  0
   40.6728    9.6379  -14.8321 C   0  0  0  0  0  0  0  0  0  0  0  0
   41.4354   10.3479  -15.9343 C   0  0  0  0  0  0  0  0  0  0  0  0
   42.9274   10.2017  -15.7044 C   0  0  0  0  0  0  0  0  0  0  0  0
   43.6898   10.9133  -16.8056 C   0  0  0  0  0  0  0  0  0  0  0  0
   45.1818   10.7655  -16.5769 C   0  0  0  0  0  0  0  0  0  0  0  0
   45.9442   11.4789  -17.6769 C   0  0  0  0  0  0  0  0  0  0  0  0
   47.4361   11.3294  -17.4492 C   0  0  0  0  0  0  0  0  0  0  0  0
   48.1985   12.0425  -18.5492 C   0  0  0  0  0  0  0  0  0  0  0  0
   49.6907   11.8927  -18.3213 C   0  0  0  0  0  0  0  0  0  0  0  0
   50.4530   12.6060  -19.4214 C   0  0  0  0  0  0  0  0  0  0  0  0
   51.9450   12.4565  -19.1935 C   0  0  0  0  0  0  0  0  0  0  0  0
   52.7074   13.1698  -20.2937 C   0  0  0  0  0  0  0  0  0  0  0  0
   54.1994   13.0219  -20.0649 C   0  0  0  0  0  0  0  0  0  0  0  0
   54.9619   13.7336  -21.1660 C   0  0  0  0  0  0  0  0  0  0  0  0
   56.4538   13.5873  -20.9362 C   0  0  0  0  0  0  0  0  0  0  0  0
   57.2163   14.2990  -22.0372 C   0  0  0  0  0  0  0  0  0  0  0  0
   58.7082   14.1511  -21.8084 C   0  0  0  0  0  0  0  0  0  0  0  0
   59.4707   14.8643  -22.9085 C   0  0  0  0  0  0  0  0  0  0  0  0
   60.9626   14.7148  -22.6808 C   0  0  0  0  0  0  0  0  0  0  0  0
   61.7251   15.4265  -23.7819 C   0  0  0  0  0  0  0  0  0  0  0  0
   63.2170   15.2785  -23.5531 C   0  0  0  0  0  0  0  0  0  0  0  0
   63.9794   15.9918  -24.6532 C   0  0  0  0  0  0  0  0  0  0  0  0
   65.4716   15.8440  -24.4244 C   0  0  0  0  0  0  0  0  0  0  0  0
   66.2337   16.5590  -25.5235 C   0  0  0  0  0  0  0  0  0  0  0  0
   67.7262   16.4111  -25.2945 C   0  0  0  0  0  0  0  0  0  0  0  0
   68.4889   17.1265  -26.3938 C   0  0  0  0  0  0  0  0  0  0  0  0
   69.9810   16.9790  -26.1641 C   0  0  0  0  0  0  0  0  0  0  0  0
   70.7451   17.6939  -27.2644 C   0  0  0  0  0  0  0  0  0  0  0  0
   72.2381   17.5464  -27.0363 C   0  0  0  0  0  0  0  0  0  0  0  0
   73.0041   18.2613  -28.1352 C   0  0  0  0  0  0  0  0  0  0  0  0
   74.4989   18.1139  -27.9073 C   0  0  0  0  0  0  0  0  0  0  0  0
   75.2711   18.8276  -29.0047 C   0  0  0  0  0  0  0  0  0  0  0  0
   76.7715   18.6806  -28.7795 C   0  0  0  0  0  0  0  0  0  0  0  0
   77.5385   19.3982  -29.8816 C   0  0  0  0  0  0  0  0  0  0  0  0
   78.9772   19.2607  -29.6652 N   0  0  0  0  0  0  0  0  0  0  0  0
   79.7050   19.9529  -30.7224 C   0  0  0  0  0  0  0  0  0  0  0  0
   81.1361   19.8262  -30.4909 N   0  0  0  0  0  0  0  0  0  0  0  0
   81.8939   20.4854  -31.5453 C   0  0  0  0  0  0  0  0  0  0  0  0
   83.3229   20.3025  -31.3074 N   0  0  0  0  0  0  0  0  0  0  0  0
   83.6474   18.9361  -31.3522 N   0  0  0  0  0  0  0  0  0  0  0  0
   85.0238   18.7940  -31.1147 N   0  0  0  0  0  0  0  0  0  0  0  0
   85.3570   17.4303  -31.1067 N   0  0  0  0  0  0  0  0  0  0  0  0
   86.7324   17.2538  -30.8939 N   0  0  0  0  0  0  0  0  0  0  0  0
   87.0357   15.8887  -30.9075 N   0  0  0  0  0  0  0  0  0  0  0  0
   88.3993   15.7594  -30.6703 N   0  0  0  0  0  0  0  0  0  0  0  0
    1.0135   -1.5406    0.3983 H   0  0  0  0  0  0  0  0  0  0  0  0
    1.3984   -1.3816   -1.4184 H   0  0  0  0  0  0  0  0  0  0  0  0
    2.5841    0.2801    0.8772 H   0  0  0  0  0  0  0  0  0  0  0  0
    2.8961    1.7078   -1.2017 H   0  0  0  0  0  0  0  0  0  0  0  0
    2.9209    0.2463   -2.2005 H   0  0  0  0  0  0  0  0  0  0  0  0
    4.8893   -0.4610   -0.9857 H   0  0  0  0  0  0  0  0  0  0  0  0
    5.0784    2.2747   -2.0552 H   0  0  0  0  0  0  0  0  0  0  0  0
    5.0868    0.7845   -3.0206 H   0  0  0  0  0  0  0  0  0  0  0  0
    7.1218    0.0054   -1.7940 H   0  0  0  0  0  0  0  0  0  0  0  0
    7.1113    1.4876   -0.8317 H   0  0  0  0  0  0  0  0  0  0  0  0
    7.3346    2.8452   -2.9248 H   0  0  0  0  0  0  0  0  0  0  0  0
    7.3425    1.3642   -3.8856 H   0  0  0  0  0  0  0  0  0  0  0  0
    9.3830    0.5826   -2.6659 H   0  0  0  0  0  0  0  0  0  0  0  0
    9.3753    2.0640   -1.7042 H   0  0  0  0  0  0  0  0  0  0  0  0
    9.5949    3.4228   -3.7946 H   0  0  0  0  0  0  0  0  0  0  0  0
    9.6008    1.9423   -4.7572 H   0  0  0  0  0  0  0  0  0  0  0  0
   11.6393    1.1560   -3.5371 H   0  0  0  0  0  0  0  0  0  0  0  0
   11.6332    2.6354   -2.5725 H   0  0  0  0  0  0  0  0  0  0  0  0
   11.8507    3.9976   -4.6616 H   0  0  0  0  0  0  0  0  0  0  0  0
   11.8588    2.5175   -5.6252 H   0  0  0  0  0  0  0  0  0  0  0  0
   13.8959    1.7320   -4.4000 H   0  0  0  0  0  0  0  0  0  0  0  0
   13.8878    3.2134   -3.4383 H   0  0  0  0  0  0  0  0  0  0  0  0
   14.1051    4.5715   -5.5300 H   0  0  0  0  0  0  0  0  0  0  0  0
   14.1149    3.0895   -6.4906 H   0  0  0  0  0  0  0  0  0  0  0  0
   16.1516    2.3079   -5.2638 H   0  0  0  0  0  0  0  0  0  0  0  0
   16.1418    3.7900   -4.3033 H   0  0  0  0  0  0  0  0  0  0  0  0
   16.3607    5.1474   -6.3940 H   0  0  0  0  0  0  0  0  0  0  0  0
   16.3686    3.6659   -7.3555 H   0  0  0  0  0  0  0  0  0  0  0  0
   18.4051    2.8817   -6.1292 H   0  0  0  0  0  0  0  0  0  0  0  0
   18.3975    4.3644   -5.1695 H   0  0  0  0  0  0  0  0  0  0  0  0
   18.6145    5.7195   -7.2631 H   0  0  0  0  0  0  0  0  0  0  0  0
   18.6238    4.2360   -8.2216 H   0  0  0  0  0  0  0  0  0  0  0  0
   20.6602    3.4558   -6.9926 H   0  0  0  0  0  0  0  0  0  0  0  0
   20.6513    4.9405   -6.0360 H   0  0  0  0  0  0  0  0  0  0  0  0
   20.8701    6.2920   -8.1305 H   0  0  0  0  0  0  0  0  0  0  0  0
   20.8771    4.8078   -9.0880 H   0  0  0  0  0  0  0  0  0  0  0  0
   22.9135    4.0260   -7.8600 H   0  0  0  0  0  0  0  0  0  0  0  0
   22.9068    5.5113   -6.9044 H   0  0  0  0  0  0  0  0  0  0  0  0
   23.1237    6.8606   -9.0018 H   0  0  0  0  0  0  0  0  0  0  0  0
   23.1323    5.3745   -9.9562 H   0  0  0  0  0  0  0  0  0  0  0  0
   25.1689    4.5967   -8.7283 H   0  0  0  0  0  0  0  0  0  0  0  0
   25.1602    6.0815   -7.7719 H   0  0  0  0  0  0  0  0  0  0  0  0
   25.3788    7.4329   -9.8664 H   0  0  0  0  0  0  0  0  0  0  0  0
   25.3858    5.9488  -10.8239 H   0  0  0  0  0  0  0  0  0  0  0  0
   27.4224    5.1670   -9.5973 H   0  0  0  0  0  0  0  0  0  0  0  0
   27.4157    6.6508   -8.6398 H   0  0  0  0  0  0  0  0  0  0  0  0
   27.6341    8.0039  -10.7336 H   0  0  0  0  0  0  0  0  0  0  0  0
   27.6390    6.5203  -11.6923 H   0  0  0  0  0  0  0  0  0  0  0  0
   29.6762    5.7358  -10.4674 H   0  0  0  0  0  0  0  0  0  0  0  0
   29.6709    7.2190   -9.5089 H   0  0  0  0  0  0  0  0  0  0  0  0
   29.8888    8.5735  -11.6032 H   0  0  0  0  0  0  0  0  0  0  0  0
   29.8939    7.0895  -12.5609 H   0  0  0  0  0  0  0  0  0  0  0  0
   31.9317    6.3048  -11.3330 H   0  0  0  0  0  0  0  0  0  0  0  0
   31.9249    7.7889  -10.3765 H   0  0  0  0  0  0  0  0  0  0  0  0
   32.1417    9.1426  -12.4715 H   0  0  0  0  0  0  0  0  0  0  0  0
   32.1474    7.6583  -13.4295 H   0  0  0  0  0  0  0  0  0  0  0  0
   34.1839    6.8730  -12.2048 H   0  0  0  0  0  0  0  0  0  0  0  0
   34.1795    8.3565  -11.2467 H   0  0  0  0  0  0  0  0  0  0  0  0
   34.3966    9.7096  -13.3408 H   0  0  0  0  0  0  0  0  0  0  0  0
   34.4016    8.2266  -14.2993 H   0  0  0  0  0  0  0  0  0  0  0  0
   36.4391    7.4418  -13.0732 H   0  0  0  0  0  0  0  0  0  0  0  0
   36.4355    8.9251  -12.1173 H   0  0  0  0  0  0  0  0  0  0  0  0
   36.6519   10.2775  -14.2119 H   0  0  0  0  0  0  0  0  0  0  0  0
   36.6563    8.7929  -15.1685 H   0  0  0  0  0  0  0  0  0  0  0  0
   38.6929    8.0091  -13.9429 H   0  0  0  0  0  0  0  0  0  0  0  0
   38.6887    9.4937  -12.9864 H   0  0  0  0  0  0  0  0  0  0  0  0
   38.9066   10.8445  -15.0822 H   0  0  0  0  0  0  0  0  0  0  0  0
   38.9107    9.3597  -16.0386 H   0  0  0  0  0  0  0  0  0  0  0  0
   40.9472    8.5760  -14.8118 H   0  0  0  0  0  0  0  0  0  0  0  0
   40.9434   10.0620  -13.8572 H   0  0  0  0  0  0  0  0  0  0  0  0
   41.1622   11.4101  -15.9538 H   0  0  0  0  0  0  0  0  0  0  0  0
   41.1641    9.9248  -16.9094 H   0  0  0  0  0  0  0  0  0  0  0  0
   43.2007    9.1394  -15.6863 H   0  0  0  0  0  0  0  0  0  0  0  0
   43.1987   10.6235  -14.7288 H   0  0  0  0  0  0  0  0  0  0  0  0
   43.4174   11.9758  -16.8227 H   0  0  0  0  0  0  0  0  0  0  0  0
   43.4175   10.4924  -17.7814 H   0  0  0  0  0  0  0  0  0  0  0  0
   45.4542    9.7029  -16.5610 H   0  0  0  0  0  0  0  0  0  0  0  0
   45.4539   11.1849  -15.6004 H   0  0  0  0  0  0  0  0  0  0  0  0
   45.6726   12.5418  -17.6917 H   0  0  0  0  0  0  0  0  0  0  0  0
   45.6710   11.0602  -18.6534 H   0  0  0  0  0  0  0  0  0  0  0  0
   47.7078   10.2666  -17.4343 H   0  0  0  0  0  0  0  0  0  0  0  0
   47.7094   11.7478  -16.4727 H   0  0  0  0  0  0  0  0  0  0  0  0
   47.9272   13.1054  -18.5642 H   0  0  0  0  0  0  0  0  0  0  0  0
   47.9254   11.6239  -19.5258 H   0  0  0  0  0  0  0  0  0  0  0  0
   49.9620   10.8298  -18.3063 H   0  0  0  0  0  0  0  0  0  0  0  0
   49.9638   12.3113  -17.3447 H   0  0  0  0  0  0  0  0  0  0  0  0
   50.1814   13.6687  -19.4362 H   0  0  0  0  0  0  0  0  0  0  0  0
   50.1798   12.1874  -20.3978 H   0  0  0  0  0  0  0  0  0  0  0  0
   52.2165   11.3937  -19.1788 H   0  0  0  0  0  0  0  0  0  0  0  0
   52.2181   12.8751  -18.2171 H   0  0  0  0  0  0  0  0  0  0  0  0
   52.4350   14.2323  -20.3094 H   0  0  0  0  0  0  0  0  0  0  0  0
   52.4352   12.7502  -21.2700 H   0  0  0  0  0  0  0  0  0  0  0  0
   54.4718   11.9594  -20.0478 H   0  0  0  0  0  0  0  0  0  0  0  0
   54.4716   13.4428  -19.0891 H   0  0  0  0  0  0  0  0  0  0  0  0
   54.6885   14.7958  -21.1840 H   0  0  0  0  0  0  0  0  0  0  0  0
   54.6906   13.3118  -22.1416 H   0  0  0  0  0  0  0  0  0  0  0  0
   56.7271   12.5251  -20.9181 H   0  0  0  0  0  0  0  0  0  0  0  0
   56.7251   14.0091  -19.9605 H   0  0  0  0  0  0  0  0  0  0  0  0
   56.9438   15.3615  -22.0543 H   0  0  0  0  0  0  0  0  0  0  0  0
   56.9441   13.8781  -23.0130 H   0  0  0  0  0  0  0  0  0  0  0  0
   58.9806   13.0886  -21.7927 H   0  0  0  0  0  0  0  0  0  0  0  0
   58.9804   14.5707  -20.8321 H   0  0  0  0  0  0  0  0  0  0  0  0
   59.1992   15.9271  -22.9233 H   0  0  0  0  0  0  0  0  0  0  0  0
   59.1975   14.4456  -23.8850 H   0  0  0  0  0  0  0  0  0  0  0  0
   61.2340   13.6520  -22.6646 H   0  0  0  0  0  0  0  0  0  0  0  0
   61.2359   15.1347  -21.7048 H   0  0  0  0  0  0  0  0  0  0  0  0
   61.4528   16.4890  -23.7989 H   0  0  0  0  0  0  0  0  0  0  0  0
   61.4527   15.0056  -24.7576 H   0  0  0  0  0  0  0  0  0  0  0  0
   63.4895   14.2160  -23.5373 H   0  0  0  0  0  0  0  0  0  0  0  0
   63.4892   15.6981  -22.5768 H   0  0  0  0  0  0  0  0  0  0  0  0
   63.7069   17.0542  -24.6687 H   0  0  0  0  0  0  0  0  0  0  0  0
   63.7075   15.5722  -25.6295 H   0  0  0  0  0  0  0  0  0  0  0  0
   65.7442   14.7815  -24.4100 H   0  0  0  0  0  0  0  0  0  0  0  0
   65.7434   16.2623  -23.4474 H   0  0  0  0  0  0  0  0  0  0  0  0
   65.9613   17.6212  -25.5376 H   0  0  0  0  0  0  0  0  0  0  0  0
   65.9622   16.1406  -26.5003 H   0  0  0  0  0  0  0  0  0  0  0  0
   67.9990   15.3487  -25.2802 H   0  0  0  0  0  0  0  0  0  0  0  0
   67.9980   16.8293  -24.3175 H   0  0  0  0  0  0  0  0  0  0  0  0
   68.2158   18.1891  -26.4080 H   0  0  0  0  0  0  0  0  0  0  0  0
   68.2169   16.7080  -27.3706 H   0  0  0  0  0  0  0  0  0  0  0  0
   70.2540   15.9167  -26.1506 H   0  0  0  0  0  0  0  0  0  0  0  0
   70.2530   17.3970  -25.1879 H   0  0  0  0  0  0  0  0  0  0  0  0
   70.4716   18.7561  -27.2784 H   0  0  0  0  0  0  0  0  0  0  0  0
   70.4724   17.2753  -28.2409 H   0  0  0  0  0  0  0  0  0  0  0  0
   72.5097   16.4836  -27.0214 H   0  0  0  0  0  0  0  0  0  0  0  0
   72.5088   17.9642  -26.0588 H   0  0  0  0  0  0  0  0  0  0  0  0
   72.7299   19.3234  -28.1491 H   0  0  0  0  0  0  0  0  0  0  0  0
   72.7308   17.8428  -29.1117 H   0  0  0  0  0  0  0  0  0  0  0  0
   74.7686   17.0508  -27.8920 H   0  0  0  0  0  0  0  0  0  0  0  0
   74.7678   18.5316  -26.9293 H   0  0  0  0  0  0  0  0  0  0  0  0
   74.9959   19.8897  -29.0192 H   0  0  0  0  0  0  0  0  0  0  0  0
   74.9963   18.4099  -29.9813 H   0  0  0  0  0  0  0  0  0  0  0  0
   77.0370   17.6163  -28.7643 H   0  0  0  0  0  0  0  0  0  0  0  0
   77.0376   19.0979  -27.8002 H   0  0  0  0  0  0  0  0  0  0  0  0
   77.2592   20.4593  -29.8780 H   0  0  0  0  0  0  0  0  0  0  0  0
   77.2559   18.9788  -30.8549 H   0  0  0  0  0  0  0  0  0  0  0  0
   79.2485   18.2780  -29.6748 H   0  0  0  0  0  0  0  0  0  0  0  0
   79.4339   21.0146  -30.7095 H   0  0  0  0  0  0  0  0  0  0  0  0
   79.4362   19.5309  -31.6981 H   0  0  0  0  0  0  0  0  0  0  0  0
   81.4271   18.8502  -30.5096 H   0  0  0  0  0  0  0  0  0  0  0  0
   81.6636   21.5574  -31.5514 H   0  0  0  0  0  0  0  0  0  0  0  0
   81.6230   20.0927  -32.5346 H   0  0  0  0  0  0  0  0  0  0  0  0
   83.5729   20.6977  -30.4029 H   0  0  0  0  0  0  0  0  0  0  0  0
   83.4269   18.5460  -32.2653 H   0  0  0  0  0  0  0  0  0  0  0  0
   85.2299   19.2096  -30.2122 H   0  0  0  0  0  0  0  0  0  0  0  0
   85.1360   17.0482  -32.0215 H   0  0  0  0  0  0  0  0  0  0  0  0
   87.0033   17.6156  -29.9860 H   0  0  0  0  0  0  0  0  0  0  0  0
   86.8001   15.5025  -31.8189 H   0  0  0  0  0  0  0  0  0  0  0  0
   88.6503   16.1821  -29.7793 H   0  0  0  0  0  0  0  0  0  0  0  0
   88.9246   16.2579  -31.3869 H   0  0  0  0  0  0  0  0  0  0  0  0
  1  2  2  0  0  0  0
  1 81  1  0  0  0  0
  1 82  1  0  0  0  0
  2  3  1  0  0  0  0
  2 83  1  0  0  0  0
  3  4  1  0  0  0  0
  3 84  1  0  0  0  0
  3 85  1  0  0  0  0
  4  5  1  0  0  0  0
  4 86  1  0  0  0  0
  5  6  1  0  0  0  0
  5 87  1  0  0  0  0
  5 88  1  0  0  0  0
  6  7  1  0  0  0  0
  6 89  1  0  0  0  0
  6 90  1  0  0  0  0
  7  8  1  0  0  0  0
  7 91  1  0  0  0  0
  7 92  1  0  0  0  0
  8  9  1  0  0  0  0
  8 93  1  0  0  0  0
  8 94  1  0  0  0  0
  9 10  1  0  0  0  0
  9 95  1  0  0  0  0
  9 96  1  0  0  0  0
 10 11  1  0  0  0  0
 10 97  1  0  0  0  0
 10 98  1  0  0  0  0
 11 12  1  0  0  0  0
 11 99  1  0  0  0  0
 11100  1  0  0  0  0
 12 13  1  0  0  0  0
 12101  1  0  0  0  0
 12102  1  0  0  0  0
 13 14  1  0  0  0  0
 13103  1  0  0  0  0
 13104  1  0  0  0  0
 14 15  1  0  0  0  0
 14105  1  0  0  0  0
 14106  1  0  0  0  0
 15 16  1  0  0  0  0
 15107  1  0  0  0  0
 15108  1  0  0  0  0
 16 17  1  0  0  0  0
 16109  1  0  0  0  0
 16110  1  0  0  0  0
 17 18  1  0  0  0  0
 17111  1  0  0  0  0
 17112  1  0  0  0  0
 18 19  1  0  0  0  0
 18113  1  0  0  0  0
 18114  1  0  0  0  0
 19 20  1  0  0  0  0
 19115  1  0  0  0  0
 19116  1  0  0  0  0
 20 21  1  0  0  0  0
 20117  1  0  0  0  0
 20118  1  0  0  0  0
 21 22  1  0  0  0  0
 21119  1  0  0  0  0
 21120  1  0  0  0  0
 22 23  1  0  0  0  0
 22121  1  0  0  0  0
 22122  1  0  0  0  0
 23 24  1  0  0  0  0
 23123  1  0  0  0  0
 23124  1  0  0  0  0
 24 25  1  0  0  0  0
 24125  1  0  0  0  0
 24126  1  0  0  0  0
 25 26  1  0  0  0  0
 25127  1  0  0  0  0
 25128  1  0  0  0  0
 26 27  1  0  0  0  0
 26129  1  0  0  0  0
 26130  1  0  0  0  0
 27 28  1  0  0  0  0
 27131  1  0  0  0  0
 27132  1  0  0  0  0
 28 29  1  0  0  0  0
 28133  1  0  0  0  0
 28134  1  0  0  0  0
 29 30  1  0  0  0  0
 29135  1  0  0  0  0
 29136  1  0  0  0  0
 30 31  1  0  0  0  0
 30137  1  0  0  0  0
 30138  1  0  0  0  0
 31 32  1  0  0  0  0
 31139  1  0  0  0  0
 31140  1  0  0  0  0
 32 33  1  0  0  0  0
 32141  1  0  0  0  0
 32142  1  0  0  0  0
 33 34  1  0  0  0  0
 33143  1  0  0  0  0
 33144  1  0  0  0  0
 34 35  1  0  0  0  0
 34145  1  0  0  0  0
 34146  1  0  0  0  0
 35 36  1  0  0  0  0
 35147  1  0  0  0  0
 35148  1  0  0  0  0
 36 37  1  0  0  0  0
 36149  1  0  0  0  0
 36150  1  0  0  0  0
 37 38  1  0  0  0  0
 37151  1  0  0  0  0
 37152  1  0  0  0  0
 38 39  1  0  0  0  0
 38153  1  0  0  0  0
 38154  1  0  0  0  0
 39 40  1  0  0  0  0
 39155  1  0  0  0  0
 39156  1  0  0  0  0
 40 41  1  0  0  0  0
 40157  1  0  0  0  0
 40158  1  0  0  0  0
 41 42  1  0  0  0  0
 41159  1  0  0  0  0
 41160  1  0  0  0  0
 42 43  1  0  0  0  0
 42161  1  0  0  0  0
 42162  1  0  0  0  0
 43 44  1  0  0  0  0
 43163  1  0  0  0  0
 43164  1  0  0  0  0
 44 45  1  0  0  0  0
 44165  1  0  0  0  0
 44166  1  0  0  0  0
 45 46  1  0  0  0  0
 45167  1  0  0  0  0
 45168  1  0  0  0  0
 46 47  1  0  0  0  0
 46169  1  0  0  0  0
 46170  1  0  0  0  0
 47 48  1  0  0  0  0
 47171  1  0  0  0  0
 47172  1  0  0  0  0
 48 49  1  0  0  0  0
 48173  1  0  0  0  0
 48174  1  0  0  0  0
 49 50  1  0  0  0  0
 49175  1  0  0  0  0
 49176  1  0  0  0  0
 50 51  1  0  0  0  0
 50177  1  0  0  0  0
 50178  1  0  0  0  0
 51 52  1  0  0  0  0
 51179  1  0  0  0  0
 51180  1  0  0  0  0
 52 53  1  0  0  0  0
 52181  1  0  0  0  0
 52182  1  0  0  0  0
 53 54  1  0  0  0  0
 53183  1  0  0  0  0
 53184  1  0  0  0  0
 54 55  1  0  0  0  0
 54185  1  0  0  0  0
 54186  1  0  0  0  0
 55 56  1  0  0  0  0
 55187  1  0  0  0  0
 55188  1  0  0  0  0
 56 57  1  0  0  0  0
 56189  1  0  0  0  0
 56190  1  0  0  0  0
 57 58  1  0  0  0  0
 57191  1  0  0  0  0
 57192  1  0  0  0  0
 58 59  1  0  0  0  0
 58193  1  0  0  0  0
 58194  1  0  0  0  0
 59 60  1  0  0  0  0
 59195  1  0  0  0  0
 59196  1  0  0  0  0
 60 61  1  0  0  0  0
 60197  1  0  0  0  0
 60198  1  0  0  0  0
 61 62  1  0  0  0  0
 61199  1  0  0  0  0
 61200  1  0  0  0  0
 62 63  1  0  0  0  0
 62201  1  0  0  0  0
 62202  1  0  0  0  0
 63 64  1  0  0  0  0
 63203  1  0  0  0  0
 63204  1  0  0  0  0
 64 65  1  0  0  0  0
 64205  1  0  0  0  0
 64206  1  0  0  0  0
 65 66  1  0  0  0  0
 65207  1  0  0  0  0
 65208  1  0  0  0  0
 66 67  1  0  0  0  0
 66209  1  0  0  0  0
 66210  1  0  0  0  0
 67 68  1  0  0  0  0
 67211  1  0  0  0  0
 67212  1  0  0  0  0
 68 69  1  0  0  0  0
 68213  1  0  0  0  0
 68214  1  0  0  0  0
 69 70  1  0  0  0  0
 69215  1  0  0  0  0
 69216  1  0  0  0  0
 70 71  1  0  0  0  0
 70217  1  0  0  0  0
 71 72  1  0  0  0  0
 71218  1  0  0  0  0
 71219  1  0  0  0  0
 72 73  1  0  0  0  0
 72220  1  0  0  0  0
 73 74  1  0  0  0  0
 73221  1  0  0  0  0
 73222  1  0  0  0  0
 74 75  1  0  0  0  0
 74223  1  0  0  0  0
 75 76  1  0  0  0  0
 75224  1  0  0  0  0
 76 77  1  0  0  0  0
 76225  1  0  0  0  0
 77 78  1  0  0  0  0
 77226  1  0  0  0  0
 78 79  1  0  0  0  0
 78227  1  0  0  0  0
 79 80  1  0  0  0  0
 79228  1  0  0  0  0
 80229  1  0  0  0  0
 80230  1  0  0  0  0
M  END
$$$$
