
 OpenBabel04232216583D

140139  0  0  0  0  0  0  0  0999 V2000
   36.3169   21.8746   -4.8492 N   0  0  0  0  0  0  0  0  0  0  0  0
   35.9500   22.7278   -6.0099 N   0  0  0  0  0  0  0  0  0  0  0  0
   34.4802   22.8304   -6.1951 C   0  0  0  0  0  0  0  0  0  0  0  0
   34.0075   23.6165   -7.4935 C   0  0  0  0  0  0  0  0  0  0  0  0
   32.5545   23.4207   -7.9757 C   0  0  0  0  0  0  0  0  0  0  0  0
   32.2969   23.7329   -9.4250 N   0  0  0  0  0  0  0  0  0  0  0  0
   30.9957   23.1694   -9.7869 N   0  0  0  0  0  0  0  0  0  0  0  0
   30.6200   23.3916  -11.1452 N   0  0  0  0  0  0  0  0  0  0  0  0
   31.0391   22.4264  -12.1166 N   0  0  0  0  0  0  0  0  0  0  0  0
   30.6305   21.1054  -11.8022 N   0  0  0  0  0  0  0  0  0  0  0  0
   29.2445   20.8585  -11.9779 N   0  0  0  0  0  0  0  0  0  0  0  0
   28.9004   19.5376  -11.5336 N   0  0  0  0  0  0  0  0  0  0  0  0
   29.4091   19.1788  -10.2325 N   0  0  0  0  0  0  0  0  0  0  0  0
   29.0054   20.0875   -9.2187 N   0  0  0  0  0  0  0  0  0  0  0  0
   29.1446   19.5814   -7.8674 N   0  0  0  0  0  0  0  0  0  0  0  0
   30.0942   20.2190   -7.0857 N   0  0  0  0  0  0  0  0  0  0  0  0
   30.2525   21.5374   -7.3920 N   0  0  0  0  0  0  0  0  0  0  0  0
   29.8470   22.3597   -6.3242 N   0  0  0  0  0  0  0  0  0  0  0  0
   30.3610   21.7833   -5.0592 N   0  0  0  0  0  0  0  0  0  0  0  0
   31.7833   21.6233   -5.1800 N   0  0  0  0  0  0  0  0  0  0  0  0
   32.4302   20.9096   -4.1636 N   0  0  0  0  0  0  0  0  0  0  0  0
   32.1449   19.5430   -4.1251 N   0  0  0  0  0  0  0  0  0  0  0  0
   32.9017   18.7248   -4.9893 N   0  0  0  0  0  0  0  0  0  0  0  0
   32.5877   17.3715   -4.6455 N   0  0  0  0  0  0  0  0  0  0  0  0
   31.1708   17.1115   -4.5193 N   0  0  0  0  0  0  0  0  0  0  0  0
   30.5186   17.3770   -5.8328 N   0  0  0  0  0  0  0  0  0  0  0  0
   31.2083   16.6031   -6.7697 N   0  0  0  0  0  0  0  0  0  0  0  0
   31.1698   17.1472   -8.2752 S   0  0  0  0  0  0  0  0  0  0  0  0
   31.7920   18.6510   -8.4032 N   0  0  0  0  0  0  0  0  0  0  0  0
   32.8294   18.5995   -9.6660 S   0  0  0  0  0  0  0  0  0  0  0  0
   32.7693   20.0943  -10.3153 N   0  0  0  0  0  0  0  0  0  0  0  0
   34.0856   21.0049   -9.9673 S   0  0  0  0  0  0  0  0  0  0  0  0
   34.6181   20.5087   -8.5166 N   0  0  0  0  0  0  0  0  0  0  0  0
   36.2033   20.6637   -8.2275 S   0  0  0  0  0  0  0  0  0  0  0  0
   36.6253   22.1933   -8.6792 N   0  0  0  0  0  0  0  0  0  0  0  0
   38.2219   22.5160   -8.7020 S   0  0  0  0  0  0  0  0  0  0  0  0
   38.7359   21.4791   -9.8664 N   0  0  0  0  0  0  0  0  0  0  0  0
   37.9271   21.7436  -11.2991 S   0  0  0  0  0  0  0  0  0  0  0  0
   38.0890   20.3145  -12.1005 N   0  0  0  0  0  0  0  0  0  0  0  0
   37.4566   18.9713  -11.3626 S   0  0  0  0  0  0  0  0  0  0  0  0
   35.8244   18.9317  -11.5018 N   0  0  0  0  0  0  0  0  0  0  0  0
   35.2324   18.7978  -13.0271 S   0  0  0  0  0  0  0  0  0  0  0  0
   33.6054   18.4888  -12.8452 N   0  0  0  0  0  0  0  0  0  0  0  0
   33.2615   16.8699  -13.0310 S   0  0  0  0  0  0  0  0  0  0  0  0
   33.4173   16.1763  -11.5501 N   0  0  0  0  0  0  0  0  0  0  0  0
   32.2519   15.0875  -11.1357 S   0  0  0  0  0  0  0  0  0  0  0  0
   30.7637   15.8482  -11.0172 N   0  0  0  0  0  0  0  0  0  0  0  0
   29.6767   14.9051  -10.1697 S   0  0  0  0  0  0  0  0  0  0  0  0
   28.2199   15.7165  -10.1777 N   0  0  0  0  0  0  0  0  0  0  0  0
   27.7139   16.2617   -8.6923 S   0  0  0  0  0  0  0  0  0  0  0  0
   27.2447   17.8364   -8.8424 N   0  0  0  0  0  0  0  0  0  0  0  0
   26.1048   18.1669   -9.9685 S   0  0  0  0  0  0  0  0  0  0  0  0
   24.8683   18.8161   -9.1216 N   0  0  0  0  0  0  0  0  0  0  0  0
   24.9156   20.4109   -8.7873 S   0  0  0  0  0  0  0  0  0  0  0  0
   23.2983   20.7714   -8.7754 N   0  0  0  0  0  0  0  0  0  0  0  0
   22.6913   21.2912  -10.2158 S   0  0  0  0  0  0  0  0  0  0  0  0
   23.4645   20.5279  -11.4707 N   0  0  0  0  0  0  0  0  0  0  0  0
   23.0676   18.9417  -11.7372 S   0  0  0  0  0  0  0  0  0  0  0  0
   21.4415   18.7312  -11.6871 N   0  0  0  0  0  0  0  0  0  0  0  0
   20.6605   19.2792  -13.0313 S   0  0  0  0  0  0  0  0  0  0  0  0
   21.3798   18.5588  -14.3296 N   0  0  0  0  0  0  0  0  0  0  0  0
   20.8041   17.0350  -14.5963 S   0  0  0  0  0  0  0  0  0  0  0  0
   21.7118   16.4744  -15.8603 N   0  0  0  0  0  0  0  0  0  0  0  0
   21.1155   16.9507  -17.3303 S   0  0  0  0  0  0  0  0  0  0  0  0
   21.3719   18.5834  -17.4654 N   0  0  0  0  0  0  0  0  0  0  0  0
   22.9654   19.0229  -17.5759 S   0  0  0  0  0  0  0  0  0  0  0  0
   23.5919   18.3102  -18.9186 N   0  0  0  0  0  0  0  0  0  0  0  0
   23.2194   19.1272  -20.3015 S   0  0  0  0  0  0  0  0  0  0  0  0
   23.8099   18.1625  -21.5096 N   0  0  0  0  0  0  0  0  0  0  0  0
   25.4032   18.4626  -21.8515 S   0  0  0  0  0  0  0  0  0  0  0  0
   26.3098   17.9997  -20.5449 N   0  0  0  0  0  0  0  0  0  0  0  0
   26.3613   16.3701  -20.2641 S   0  0  0  0  0  0  0  0  0  0  0  0
   26.9551   15.5990  -21.5971 N   0  0  0  0  0  0  0  0  0  0  0  0
   28.5473   15.8829  -21.9313 S   0  0  0  0  0  0  0  0  0  0  0  0
   29.4775   15.4200  -20.6484 N   0  0  0  0  0  0  0  0  0  0  0  0
   29.5245   13.7993  -20.3310 S   0  0  0  0  0  0  0  0  0  0  0  0
   30.0588   12.9980  -21.6710 N   0  0  0  0  0  0  0  0  0  0  0  0
   31.6336   13.3325  -22.0448 S   0  0  0  0  0  0  0  0  0  0  0  0
   32.0287   12.3142  -23.2825 N   0  0  0  0  0  0  0  0  0  0  0  0
   31.1661   12.6101  -24.6550 S   0  0  0  0  0  0  0  0  0  0  0  0
   31.8245   11.6039  -25.7786 N   0  0  0  0  0  0  0  0  0  0  0  0
   37.3381   21.9066   -4.7212 H   0  0  0  0  0  0  0  0  0  0  0  0
   36.1430   20.8789   -5.0542 H   0  0  0  0  0  0  0  0  0  0  0  0
   36.3423   22.2127   -6.8052 H   0  0  0  0  0  0  0  0  0  0  0  0
   34.0803   23.3314   -5.3098 H   0  0  0  0  0  0  0  0  0  0  0  0
   34.0874   21.8126   -6.2228 H   0  0  0  0  0  0  0  0  0  0  0  0
   34.5420   23.2805   -8.3614 H   0  0  0  0  0  0  0  0  0  0  0  0
   34.2579   24.6743   -7.3860 H   0  0  0  0  0  0  0  0  0  0  0  0
   31.8826   24.0195   -7.3540 H   0  0  0  0  0  0  0  0  0  0  0  0
   32.3570   22.3603   -7.8374 H   0  0  0  0  0  0  0  0  0  0  0  0
   33.0030   23.2504   -9.9857 H   0  0  0  0  0  0  0  0  0  0  0  0
   30.2699   23.5968   -9.1936 H   0  0  0  0  0  0  0  0  0  0  0  0
   30.7729   24.3537  -11.4560 H   0  0  0  0  0  0  0  0  0  0  0  0
   32.0569   22.4632  -12.2121 H   0  0  0  0  0  0  0  0  0  0  0  0
   30.7893   20.9977  -10.7933 H   0  0  0  0  0  0  0  0  0  0  0  0
   28.9448   21.0354  -12.9428 H   0  0  0  0  0  0  0  0  0  0  0  0
   29.2150   18.8434  -12.2208 H   0  0  0  0  0  0  0  0  0  0  0  0
   30.4239   19.0677  -10.2733 H   0  0  0  0  0  0  0  0  0  0  0  0
   28.0196   20.3312   -9.4097 H   0  0  0  0  0  0  0  0  0  0  0  0
   29.3521   18.5791   -7.7430 H   0  0  0  0  0  0  0  0  0  0  0  0
   31.0376   19.7994   -7.0324 H   0  0  0  0  0  0  0  0  0  0  0  0
   30.0071   21.7153   -8.3697 H   0  0  0  0  0  0  0  0  0  0  0  0
   28.8234   22.3320   -6.3154 H   0  0  0  0  0  0  0  0  0  0  0  0
   29.9441   20.8469   -5.0523 H   0  0  0  0  0  0  0  0  0  0  0  0
   32.1828   22.5524   -5.2962 H   0  0  0  0  0  0  0  0  0  0  0  0
   32.2985   21.3546   -3.2588 H   0  0  0  0  0  0  0  0  0  0  0  0
   31.1739   19.3296   -4.3755 H   0  0  0  0  0  0  0  0  0  0  0  0
   33.9062   18.9064   -4.9596 H   0  0  0  0  0  0  0  0  0  0  0  0
   33.0186   17.1304   -3.7604 H   0  0  0  0  0  0  0  0  0  0  0  0
   30.7558   17.7754   -3.8580 H   0  0  0  0  0  0  0  0  0  0  0  0
   30.6028   18.3531   -6.0805 H   0  0  0  0  0  0  0  0  0  0  0  0
   30.8910   15.6411   -6.7019 H   0  0  0  0  0  0  0  0  0  0  0  0
   31.0100   19.2729   -8.6722 H   0  0  0  0  0  0  0  0  0  0  0  0
   32.6857   20.0224  -11.3298 H   0  0  0  0  0  0  0  0  0  0  0  0
   33.9149   20.4820   -7.7671 H   0  0  0  0  0  0  0  0  0  0  0  0
   36.1654   22.9783   -8.2626 H   0  0  0  0  0  0  0  0  0  0  0  0
   38.3747   20.5862   -9.5252 H   0  0  0  0  0  0  0  0  0  0  0  0
   39.0928   20.1712  -12.1423 H   0  0  0  0  0  0  0  0  0  0  0  0
   35.3666   19.6487  -10.9362 H   0  0  0  0  0  0  0  0  0  0  0  0
   33.0771   19.0035  -13.5533 H   0  0  0  0  0  0  0  0  0  0  0  0
   33.7612   16.8007  -10.8227 H   0  0  0  0  0  0  0  0  0  0  0  0
   30.8696   16.7428  -10.5533 H   0  0  0  0  0  0  0  0  0  0  0  0
   27.5144   15.0318  -10.4532 H   0  0  0  0  0  0  0  0  0  0  0  0
   28.0300   18.4725   -9.0493 H   0  0  0  0  0  0  0  0  0  0  0  0
   24.5987   18.2346   -8.3396 H   0  0  0  0  0  0  0  0  0  0  0  0
   23.0579   21.4107   -8.0172 H   0  0  0  0  0  0  0  0  0  0  0  0
   24.4716   20.5630  -11.2774 H   0  0  0  0  0  0  0  0  0  0  0  0
   21.0721   19.1445  -10.8334 H   0  0  0  0  0  0  0  0  0  0  0  0
   22.3930   18.5401  -14.1924 H   0  0  0  0  0  0  0  0  0  0  0  0
   21.7428   15.4556  -15.8262 H   0  0  0  0  0  0  0  0  0  0  0  0
   20.9601   19.0392  -16.6462 H   0  0  0  0  0  0  0  0  0  0  0  0
   23.2899   17.3389  -18.9777 H   0  0  0  0  0  0  0  0  0  0  0  0
   23.2617   18.3259  -22.3547 H   0  0  0  0  0  0  0  0  0  0  0  0
   25.9422   18.4704  -19.7139 H   0  0  0  0  0  0  0  0  0  0  0  0
   26.3861   15.8518  -22.4033 H   0  0  0  0  0  0  0  0  0  0  0  0
   29.2019   15.9386  -19.8160 H   0  0  0  0  0  0  0  0  0  0  0  0
   29.4644   13.2381  -22.4616 H   0  0  0  0  0  0  0  0  0  0  0  0
   31.9605   11.3437  -22.9877 H   0  0  0  0  0  0  0  0  0  0  0  0
   31.4395   11.7956  -26.7055 H   0  0  0  0  0  0  0  0  0  0  0  0
   31.6046   10.6308  -25.5796 H   0  0  0  0  0  0  0  0  0  0  0  0
  1  2  1  0  0  0  0
  1 82  1  0  0  0  0
  1 83  1  0  0  0  0
  2  3  1  0  0  0  0
  2 84  1  0  0  0  0
  3  4  1  0  0  0  0
  3 85  1  0  0  0  0
  3 86  1  0  0  0  0
  4  5  1  0  0  0  0
  4 87  1  0  0  0  0
  4 88  1  0  0  0  0
  5  6  1  0  0  0  0
  5 89  1  0  0  0  0
  5 90  1  0  0  0  0
  6  7  1  0  0  0  0
  6 91  1  0  0  0  0
  7  8  1  0  0  0  0
  7 92  1  0  0  0  0
  8  9  1  0  0  0  0
  8 93  1  0  0  0  0
  9 10  1  0  0  0  0
  9 94  1  0  0  0  0
 10 11  1  0  0  0  0
 10 95  1  0  0  0  0
 11 12  1  0  0  0  0
 11 96  1  0  0  0  0
 12 13  1  0  0  0  0
 12 97  1  0  0  0  0
 13 14  1  0  0  0  0
 13 98  1  0  0  0  0
 14 15  1  0  0  0  0
 14 99  1  0  0  0  0
 15 16  1  0  0  0  0
 15100  1  0  0  0  0
 16 17  1  0  0  0  0
 16101  1  0  0  0  0
 17 18  1  0  0  0  0
 17102  1  0  0  0  0
 18 19  1  0  0  0  0
 18103  1  0  0  0  0
 19 20  1  0  0  0  0
 19104  1  0  0  0  0
 20 21  1  0  0  0  0
 20105  1  0  0  0  0
 21 22  1  0  0  0  0
 21106  1  0  0  0  0
 22 23  1  0  0  0  0
 22107  1  0  0  0  0
 23 24  1  0  0  0  0
 23108  1  0  0  0  0
 24 25  1  0  0  0  0
 24109  1  0  0  0  0
 25 26  1  0  0  0  0
 25110  1  0  0  0  0
 26 27  1  0  0  0  0
 26111  1  0  0  0  0
 27 28  1  0  0  0  0
 27112  1  0  0  0  0
 28 29  1  0  0  0  0
 29 30  1  0  0  0  0
 29113  1  0  0  0  0
 30 31  1  0  0  0  0
 31 32  1  0  0  0  0
 31114  1  0  0  0  0
 32 33  1  0  0  0  0
 33 34  1  0  0  0  0
 33115  1  0  0  0  0
 34 35  1  0  0  0  0
 35 36  1  0  0  0  0
 35116  1  0  0  0  0
 36 37  1  0  0  0  0
 37 38  1  0  0  0  0
 37117  1  0  0  0  0
 38 39  1  0  0  0  0
 39 40  1  0  0  0  0
 39118  1  0  0  0  0
 40 41  1  0  0  0  0
 41 42  1  0  0  0  0
 41119  1  0  0  0  0
 42 43  1  0  0  0  0
 43 44  1  0  0  0  0
 43120  1  0  0  0  0
 44 45  1  0  0  0  0
 45 46  1  0  0  0  0
 45121  1  0  0  0  0
 46 47  1  0  0  0  0
 47 48  1  0  0  0  0
 47122  1  0  0  0  0
 48 49  1  0  0  0  0
 49 50  1  0  0  0  0
 49123  1  0  0  0  0
 50 51  1  0  0  0  0
 51 52  1  0  0  0  0
 51124  1  0  0  0  0
 52 53  1  0  0  0  0
 53 54  1  0  0  0  0
 53125  1  0  0  0  0
 54 55  1  0  0  0  0
 55 56  1  0  0  0  0
 55126  1  0  0  0  0
 56 57  1  0  0  0  0
 57 58  1  0  0  0  0
 57127  1  0  0  0  0
 58 59  1  0  0  0  0
 59 60  1  0  0  0  0
 59128  1  0  0  0  0
 60 61  1  0  0  0  0
 61 62  1  0  0  0  0
 61129  1  0  0  0  0
 62 63  1  0  0  0  0
 63 64  1  0  0  0  0
 63130  1  0  0  0  0
 64 65  1  0  0  0  0
 65 66  1  0  0  0  0
 65131  1  0  0  0  0
 66 67  1  0  0  0  0
 67 68  1  0  0  0  0
 67132  1  0  0  0  0
 68 69  1  0  0  0  0
 69 70  1  0  0  0  0
 69133  1  0  0  0  0
 70 71  1  0  0  0  0
 71 72  1  0  0  0  0
 71134  1  0  0  0  0
 72 73  1  0  0  0  0
 73 74  1  0  0  0  0
 73135  1  0  0  0  0
 74 75  1  0  0  0  0
 75 76  1  0  0  0  0
 75136  1  0  0  0  0
 76 77  1  0  0  0  0
 77 78  1  0  0  0  0
 77137  1  0  0  0  0
 78 79  1  0  0  0  0
 79 80  1  0  0  0  0
 79138  1  0  0  0  0
 80 81  1  0  0  0  0
 81139  1  0  0  0  0
 81140  1  0  0  0  0
M  END
$$$$
