
 OpenBabel04232216583D

162161  0  0  0  0  0  0  0  0999 V2000
   26.0102  -15.4219    8.6269 N   0  0  0  0  0  0  0  0  0  0  0  0
   25.6730  -14.6238    9.7667 N   0  0  0  0  0  0  0  0  0  0  0  0
   26.2554  -15.2217   11.0068 C   0  0  0  0  0  0  0  0  0  0  0  0
   27.8424  -15.4725   10.9204 C   0  0  0  0  0  0  0  0  0  0  0  0
   28.9358  -16.6427   11.4436 C   0  0  0  0  0  0  0  0  0  0  0  0
   29.4403  -18.1536   11.2705 N   0  0  0  0  0  0  0  0  0  0  0  0
   28.7570  -19.3625   12.0041 N   0  0  0  0  0  0  0  0  0  0  0  0
   28.3317  -20.7335   11.6363 N   0  0  0  0  0  0  0  0  0  0  0  0
   28.7082  -21.4034   10.4715 N   0  0  0  0  0  0  0  0  0  0  0  0
   30.0264  -21.8924   10.5263 N   0  0  0  0  0  0  0  0  0  0  0  0
   30.7020  -21.5478    9.3018 N   0  0  0  0  0  0  0  0  0  0  0  0
   30.0310  -20.6378    8.4062 N   0  0  0  0  0  0  0  0  0  0  0  0
   30.0274  -19.3601    8.9585 N   0  0  0  0  0  0  0  0  0  0  0  0
   29.1554  -18.3761    8.4993 N   0  0  0  0  0  0  0  0  0  0  0  0
   27.7219  -18.4614    8.5644 N   0  0  0  0  0  0  0  0  0  0  0  0
   27.1693  -19.0192    9.8260 N   0  0  0  0  0  0  0  0  0  0  0  0
   26.6930  -17.9805   10.7458 N   0  0  0  0  0  0  0  0  0  0  0  0
   26.2656  -18.1023   12.4365 S   0  0  0  0  0  0  0  0  0  0  0  0
   27.3321  -18.4949   13.7418 N   0  0  0  0  0  0  0  0  0  0  0  0
   28.6060  -17.6847   14.4649 S   0  0  0  0  0  0  0  0  0  0  0  0
   30.2097  -18.3090   14.1931 N   0  0  0  0  0  0  0  0  0  0  0  0
   30.5849  -19.9329   14.1645 S   0  0  0  0  0  0  0  0  0  0  0  0
   31.1460  -20.2358   12.6073 N   0  0  0  0  0  0  0  0  0  0  0  0
   32.7549  -19.9650   12.3784 S   0  0  0  0  0  0  0  0  0  0  0  0
   33.5439  -21.2493   13.0596 N   0  0  0  0  0  0  0  0  0  0  0  0
   35.1517  -21.1970   12.6690 S   0  0  0  0  0  0  0  0  0  0  0  0
   35.6657  -19.6782   13.1727 N   0  0  0  0  0  0  0  0  0  0  0  0
   35.0672  -19.3158   14.4589 N   0  0  0  0  0  0  0  0  0  0  0  0
   35.5198  -20.1170   15.5291 N   0  0  0  0  0  0  0  0  0  0  0  0
   36.9219  -20.1282   15.5649 N   0  0  0  0  0  0  0  0  0  0  0  0
   37.4473  -18.8057   15.7622 N   0  0  0  0  0  0  0  0  0  0  0  0
   37.1461  -18.2665   17.0680 N   0  0  0  0  0  0  0  0  0  0  0  0
   37.7487  -18.9503   18.1673 N   0  0  0  0  0  0  0  0  0  0  0  0
   39.1586  -18.8322   18.1540 N   0  0  0  0  0  0  0  0  0  0  0  0
   39.5139  -17.4456   18.3179 N   0  0  0  0  0  0  0  0  0  0  0  0
   39.1544  -16.9525   19.6409 N   0  0  0  0  0  0  0  0  0  0  0  0
   39.6379  -17.7384   20.7176 N   0  0  0  0  0  0  0  0  0  0  0  0
   41.0278  -17.8404   20.6714 N   0  0  0  0  0  0  0  0  0  0  0  0
   41.5199  -16.5188   20.8870 N   0  0  0  0  0  0  0  0  0  0  0  0
   41.1082  -16.0653   22.2033 N   0  0  0  0  0  0  0  0  0  0  0  0
   41.6474  -16.9407   23.2027 N   0  0  0  0  0  0  0  0  0  0  0  0
   43.0969  -16.8623   23.0843 N   0  0  0  0  0  0  0  0  0  0  0  0
   43.4295  -15.4309   23.0661 N   0  0  0  0  0  0  0  0  0  0  0  0
   42.7366  -14.8195   24.1794 N   0  0  0  0  0  0  0  0  0  0  0  0
   43.1175  -15.5620   25.3836 N   0  0  0  0  0  0  0  0  0  0  0  0
   44.5593  -15.6142   25.5925 N   0  0  0  0  0  0  0  0  0  0  0  0
   45.1526  -14.3137   25.6277 N   0  0  0  0  0  0  0  0  0  0  0  0
   44.7951  -13.7240   26.8806 N   0  0  0  0  0  0  0  0  0  0  0  0
   45.2492  -14.5973   27.9485 N   0  0  0  0  0  0  0  0  0  0  0  0
   46.6689  -14.6648   27.9736 N   0  0  0  0  0  0  0  0  0  0  0  0
   47.2286  -13.3655   28.1726 N   0  0  0  0  0  0  0  0  0  0  0  0
   46.7780  -12.8519   29.4534 N   0  0  0  0  0  0  0  0  0  0  0  0
   47.1875  -13.7648   30.4911 N   0  0  0  0  0  0  0  0  0  0  0  0
   48.6012  -14.0204   30.3132 N   0  0  0  0  0  0  0  0  0  0  0  0
   49.2730  -12.7194   30.2928 N   0  0  0  0  0  0  0  0  0  0  0  0
   48.6941  -11.8925   31.3314 N   0  0  0  0  0  0  0  0  0  0  0  0
   49.1540  -12.2097   32.6922 N   0  0  0  0  0  0  0  0  0  0  0  0
   50.5690  -12.3787   32.7881 N   0  0  0  0  0  0  0  0  0  0  0  0
   51.1933  -11.1459   33.0520 N   0  0  0  0  0  0  0  0  0  0  0  0
   50.5781  -10.6416   34.2280 N   0  0  0  0  0  0  0  0  0  0  0  0
   50.8931  -11.5661   35.2802 N   0  0  0  0  0  0  0  0  0  0  0  0
   52.3443  -11.7022   35.3700 N   0  0  0  0  0  0  0  0  0  0  0  0
   52.9633  -10.3912   35.1861 N   0  0  0  0  0  0  0  0  0  0  0  0
   52.5724   -9.5476   36.2999 N   0  0  0  0  0  0  0  0  0  0  0  0
   52.8413  -10.2367   37.5537 N   0  0  0  0  0  0  0  0  0  0  0  0
   54.2391  -10.5028   37.6997 N   0  0  0  0  0  0  0  0  0  0  0  0
   55.0195   -9.3211   37.9816 N   0  0  0  0  0  0  0  0  0  0  0  0
   54.5877   -8.6615   39.1746 N   0  0  0  0  0  0  0  0  0  0  0  0
   54.8752   -9.4840   40.2763 N   0  0  0  0  0  0  0  0  0  0  0  0
   56.3001   -9.6749   40.2789 N   0  0  0  0  0  0  0  0  0  0  0  0
   56.9603   -8.3352   40.2930 N   0  0  0  0  0  0  0  0  0  0  0  0
   56.4145   -7.5083   41.3568 N   0  0  0  0  0  0  0  0  0  0  0  0
   56.6071   -8.1904   42.6178 N   0  0  0  0  0  0  0  0  0  0  0  0
   58.0261   -8.5316   42.7676 N   0  0  0  0  0  0  0  0  0  0  0  0
   58.8510   -7.3214   42.8382 N   0  0  0  0  0  0  0  0  0  0  0  0
   58.5812   -6.4944   43.9766 N   0  0  0  0  0  0  0  0  0  0  0  0
   58.8212   -7.1375   45.2137 N   0  0  0  0  0  0  0  0  0  0  0  0
   60.2207   -7.3636   45.4098 N   0  0  0  0  0  0  0  0  0  0  0  0
   60.9399   -6.1024   45.4408 N   0  0  0  0  0  0  0  0  0  0  0  0
   60.4463   -5.2878   46.5312 N   0  0  0  0  0  0  0  0  0  0  0  0
   60.6805   -5.9763   47.7835 N   0  0  0  0  0  0  0  0  0  0  0  0
   25.6167  -15.0267    7.7779 H   0  0  0  0  0  0  0  0  0  0  0  0
   25.6528  -16.3667    8.6927 H   0  0  0  0  0  0  0  0  0  0  0  0
   24.6409  -14.6271    9.8686 H   0  0  0  0  0  0  0  0  0  0  0  0
   25.5834  -16.0448   11.2339 H   0  0  0  0  0  0  0  0  0  0  0  0
   26.0369  -14.5451   11.8482 H   0  0  0  0  0  0  0  0  0  0  0  0
   28.1928  -14.5941   11.4905 H   0  0  0  0  0  0  0  0  0  0  0  0
   28.1506  -15.2355    9.8963 H   0  0  0  0  0  0  0  0  0  0  0  0
   29.2428  -16.3003   12.4308 H   0  0  0  0  0  0  0  0  0  0  0  0
   29.7642  -16.2469   10.8333 H   0  0  0  0  0  0  0  0  0  0  0  0
   30.3635  -18.0783   11.7559 H   0  0  0  0  0  0  0  0  0  0  0  0
   29.1792  -19.4237   12.9499 H   0  0  0  0  0  0  0  0  0  0  0  0
   27.3540  -21.0025   11.9032 H   0  0  0  0  0  0  0  0  0  0  0  0
   28.7482  -20.7551    9.6601 H   0  0  0  0  0  0  0  0  0  0  0  0
   30.5126  -21.3957   11.2740 H   0  0  0  0  0  0  0  0  0  0  0  0
   30.8833  -22.4004    8.7921 H   0  0  0  0  0  0  0  0  0  0  0  0
   29.1857  -21.0094    7.9892 H   0  0  0  0  0  0  0  0  0  0  0  0
   30.9580  -18.9803    8.8122 H   0  0  0  0  0  0  0  0  0  0  0  0
   29.4901  -17.9798    7.6233 H   0  0  0  0  0  0  0  0  0  0  0  0
   27.4465  -19.0228    7.7706 H   0  0  0  0  0  0  0  0  0  0  0  0
   28.0770  -19.3034   10.1798 H   0  0  0  0  0  0  0  0  0  0  0  0
   26.3170  -17.2306   10.1289 H   0  0  0  0  0  0  0  0  0  0  0  0
   27.3916  -19.4831   13.9311 H   0  0  0  0  0  0  0  0  0  0  0  0
   30.7779  -18.0013   15.0023 H   0  0  0  0  0  0  0  0  0  0  0  0
   30.7218  -19.6849   11.8453 H   0  0  0  0  0  0  0  0  0  0  0  0
   33.0999  -22.1024   12.6960 H   0  0  0  0  0  0  0  0  0  0  0  0
   35.3135  -19.0163   12.4662 H   0  0  0  0  0  0  0  0  0  0  0  0
   34.0554  -19.4291   14.4153 H   0  0  0  0  0  0  0  0  0  0  0  0
   35.1926  -21.0702   15.4645 H   0  0  0  0  0  0  0  0  0  0  0  0
   37.2986  -20.5419   14.7056 H   0  0  0  0  0  0  0  0  0  0  0  0
   37.0748  -18.1729   15.0299 H   0  0  0  0  0  0  0  0  0  0  0  0
   36.1429  -18.2285   17.2392 H   0  0  0  0  0  0  0  0  0  0  0  0
   37.4878  -19.9229   18.2224 H   0  0  0  0  0  0  0  0  0  0  0  0
   39.4755  -19.1745   17.2459 H   0  0  0  0  0  0  0  0  0  0  0  0
   38.9730  -16.9316   17.6030 H   0  0  0  0  0  0  0  0  0  0  0  0
   38.1473  -16.8963   19.7531 H   0  0  0  0  0  0  0  0  0  0  0  0
   39.2120  -18.6475   20.7986 H   0  0  0  0  0  0  0  0  0  0  0  0
   41.2866  -18.2081   19.7491 H   0  0  0  0  0  0  0  0  0  0  0  0
   40.9766  -15.9322   20.2517 H   0  0  0  0  0  0  0  0  0  0  0  0
   40.0962  -16.1847   22.2081 H   0  0  0  0  0  0  0  0  0  0  0  0
   41.2822  -17.8669   22.9160 H   0  0  0  0  0  0  0  0  0  0  0  0
   43.2493  -17.1470   22.1185 H   0  0  0  0  0  0  0  0  0  0  0  0
   42.8915  -15.1014   22.2681 H   0  0  0  0  0  0  0  0  0  0  0  0
   41.7387  -15.0233   23.9715 H   0  0  0  0  0  0  0  0  0  0  0  0
   42.8681  -16.5315   25.1540 H   0  0  0  0  0  0  0  0  0  0  0  0
   44.9751  -16.1211   24.8052 H   0  0  0  0  0  0  0  0  0  0  0  0
   44.7548  -13.8174   24.8206 H   0  0  0  0  0  0  0  0  0  0  0  0
   43.7853  -13.8025   26.9305 H   0  0  0  0  0  0  0  0  0  0  0  0
   44.8421  -15.5190   27.6879 H   0  0  0  0  0  0  0  0  0  0  0  0
   47.0182  -15.0372   27.0926 H   0  0  0  0  0  0  0  0  0  0  0  0
   46.9494  -12.7394   27.4108 H   0  0  0  0  0  0  0  0  0  0  0  0
   45.7606  -12.9103   29.4011 H   0  0  0  0  0  0  0  0  0  0  0  0
   46.7188  -14.6218   30.2712 H   0  0  0  0  0  0  0  0  0  0  0  0
   48.5698  -14.3094   29.3241 H   0  0  0  0  0  0  0  0  0  0  0  0
   48.8756  -12.2952   29.4478 H   0  0  0  0  0  0  0  0  0  0  0  0
   47.6834  -12.1226   31.2264 H   0  0  0  0  0  0  0  0  0  0  0  0
   48.7139  -13.0667   33.0069 H   0  0  0  0  0  0  0  0  0  0  0  0
   50.8756  -12.7857   31.9073 H   0  0  0  0  0  0  0  0  0  0  0  0
   51.0535  -10.5156   32.2657 H   0  0  0  0  0  0  0  0  0  0  0  0
   49.5786  -10.7670   34.0617 H   0  0  0  0  0  0  0  0  0  0  0  0
   50.4781  -12.4572   34.9438 H   0  0  0  0  0  0  0  0  0  0  0  0
   52.6279  -12.2122   34.5366 H   0  0  0  0  0  0  0  0  0  0  0  0
   52.4772  -10.0643   34.3223 H   0  0  0  0  0  0  0  0  0  0  0  0
   51.5553   -9.5033   36.2371 H   0  0  0  0  0  0  0  0  0  0  0  0
   52.4128  -11.1612   37.4604 H   0  0  0  0  0  0  0  0  0  0  0  0
   54.5345  -11.0061   36.8496 H   0  0  0  0  0  0  0  0  0  0  0  0
   54.9228   -8.6554   37.2215 H   0  0  0  0  0  0  0  0  0  0  0  0
   53.5832   -8.5253   39.1023 H   0  0  0  0  0  0  0  0  0  0  0  0
   54.3596  -10.3808   40.1020 H   0  0  0  0  0  0  0  0  0  0  0  0
   56.5069  -10.0953   39.3520 H   0  0  0  0  0  0  0  0  0  0  0  0
   56.6135   -7.8798   39.4413 H   0  0  0  0  0  0  0  0  0  0  0  0
   55.4103   -7.5129   41.1672 H   0  0  0  0  0  0  0  0  0  0  0  0
   56.0860   -9.0655   42.4352 H   0  0  0  0  0  0  0  0  0  0  0  0
   58.2332   -9.0118   41.8658 H   0  0  0  0  0  0  0  0  0  0  0  0
   58.7151   -6.8072   41.9701 H   0  0  0  0  0  0  0  0  0  0  0  0
   57.6104   -6.1781   43.9578 H   0  0  0  0  0  0  0  0  0  0  0  0
   58.3279   -8.0270   45.2286 H   0  0  0  0  0  0  0  0  0  0  0  0
   60.5175   -7.8570   44.5673 H   0  0  0  0  0  0  0  0  0  0  0  0
   60.6025   -5.6581   44.5801 H   0  0  0  0  0  0  0  0  0  0  0  0
   59.4360   -5.3371   46.3455 H   0  0  0  0  0  0  0  0  0  0  0  0
   61.6204   -6.3548   47.7023 H   0  0  0  0  0  0  0  0  0  0  0  0
   60.1021   -6.8204   47.6639 H   0  0  0  0  0  0  0  0  0  0  0  0
  1  2  1  0  0  0  0
  1 82  1  0  0  0  0
  1 83  1  0  0  0  0
  2  3  1  0  0  0  0
  2 84  1  0  0  0  0
  3  4  1  0  0  0  0
  3 85  1  0  0  0  0
  3 86  1  0  0  0  0
  4  5  1  0  0  0  0
  4 87  1  0  0  0  0
  4 88  1  0  0  0  0
  5  6  1  0  0  0  0
  5 89  1  0  0  0  0
  5 90  1  0  0  0  0
  6  7  1  0  0  0  0
  6 91  1  0  0  0  0
  7  8  1  0  0  0  0
  7 92  1  0  0  0  0
  8  9  1  0  0  0  0
  8 93  1  0  0  0  0
  9 10  1  0  0  0  0
  9 94  1  0  0  0  0
 10 11  1  0  0  0  0
 10 95  1  0  0  0  0
 11 12  1  0  0  0  0
 11 96  1  0  0  0  0
 12 13  1  0  0  0  0
 12 97  1  0  0  0  0
 13 14  1  0  0  0  0
 13 98  1  0  0  0  0
 14 15  1  0  0  0  0
 14 99  1  0  0  0  0
 15 16  1  0  0  0  0
 15100  1  0  0  0  0
 16 17  1  0  0  0  0
 16101  1  0  0  0  0
 17 18  1  0  0  0  0
 17102  1  0  0  0  0
 18 19  1  0  0  0  0
 19 20  1  0  0  0  0
 19103  1  0  0  0  0
 20 21  1  0  0  0  0
 21 22  1  0  0  0  0
 21104  1  0  0  0  0
 22 23  1  0  0  0  0
 23 24  1  0  0  0  0
 23105  1  0  0  0  0
 24 25  1  0  0  0  0
 25 26  1  0  0  0  0
 25106  1  0  0  0  0
 26 27  1  0  0  0  0
 27 28  1  0  0  0  0
 27107  1  0  0  0  0
 28 29  1  0  0  0  0
 28108  1  0  0  0  0
 29 30  1  0  0  0  0
 29109  1  0  0  0  0
 30 31  1  0  0  0  0
 30110  1  0  0  0  0
 31 32  1  0  0  0  0
 31111  1  0  0  0  0
 32 33  1  0  0  0  0
 32112  1  0  0  0  0
 33 34  1  0  0  0  0
 33113  1  0  0  0  0
 34 35  1  0  0  0  0
 34114  1  0  0  0  0
 35 36  1  0  0  0  0
 35115  1  0  0  0  0
 36 37  1  0  0  0  0
 36116  1  0  0  0  0
 37 38  1  0  0  0  0
 37117  1  0  0  0  0
 38 39  1  0  0  0  0
 38118  1  0  0  0  0
 39 40  1  0  0  0  0
 39119  1  0  0  0  0
 40 41  1  0  0  0  0
 40120  1  0  0  0  0
 41 42  1  0  0  0  0
 41121  1  0  0  0  0
 42 43  1  0  0  0  0
 42122  1  0  0  0  0
 43 44  1  0  0  0  0
 43123  1  0  0  0  0
 44 45  1  0  0  0  0
 44124  1  0  0  0  0
 45 46  1  0  0  0  0
 45125  1  0  0  0  0
 46 47  1  0  0  0  0
 46126  1  0  0  0  0
 47 48  1  0  0  0  0
 47127  1  0  0  0  0
 48 49  1  0  0  0  0
 48128  1  0  0  0  0
 49 50  1  0  0  0  0
 49129  1  0  0  0  0
 50 51  1  0  0  0  0
 50130  1  0  0  0  0
 51 52  1  0  0  0  0
 51131  1  0  0  0  0
 52 53  1  0  0  0  0
 52132  1  0  0  0  0
 53 54  1  0  0  0  0
 53133  1  0  0  0  0
 54 55  1  0  0  0  0
 54134  1  0  0  0  0
 55 56  1  0  0  0  0
 55135  1  0  0  0  0
 56 57  1  0  0  0  0
 56136  1  0  0  0  0
 57 58  1  0  0  0  0
 57137  1  0  0  0  0
 58 59  1  0  0  0  0
 58138  1  0  0  0  0
 59 60  1  0  0  0  0
 59139  1  0  0  0  0
 60 61  1  0  0  0  0
 60140  1  0  0  0  0
 61 62  1  0  0  0  0
 61141  1  0  0  0  0
 62 63  1  0  0  0  0
 62142  1  0  0  0  0
 63 64  1  0  0  0  0
 63143  1  0  0  0  0
 64 65  1  0  0  0  0
 64144  1  0  0  0  0
 65 66  1  0  0  0  0
 65145  1  0  0  0  0
 66 67  1  0  0  0  0
 66146  1  0  0  0  0
 67 68  1  0  0  0  0
 67147  1  0  0  0  0
 68 69  1  0  0  0  0
 68148  1  0  0  0  0
 69 70  1  0  0  0  0
 69149  1  0  0  0  0
 70 71  1  0  0  0  0
 70150  1  0  0  0  0
 71 72  1  0  0  0  0
 71151  1  0  0  0  0
 72 73  1  0  0  0  0
 72152  1  0  0  0  0
 73 74  1  0  0  0  0
 73153  1  0  0  0  0
 74 75  1  0  0  0  0
 74154  1  0  0  0  0
 75 76  1  0  0  0  0
 75155  1  0  0  0  0
 76 77  1  0  0  0  0
 76156  1  0  0  0  0
 77 78  1  0  0  0  0
 77157  1  0  0  0  0
 78 79  1  0  0  0  0
 78158  1  0  0  0  0
 79 80  1  0  0  0  0
 79159  1  0  0  0  0
 80 81  1  0  0  0  0
 80160  1  0  0  0  0
 81161  1  0  0  0  0
 81162  1  0  0  0  0
M  END
$$$$
