
 OpenBabel04232216503D

 69 70  0  0  1  0  0  0  0  0999 V2000
    6.4076    1.8402   -1.8250 C   0  0  0  0  0  0  0  0  0  0  0  0
    7.0427    1.5629   -3.5239 C   0  0  3  0  0  0  0  0  0  0  0  0
    5.3517    0.7127   -3.2985 C   0  0  0  0  0  0  0  0  0  0  0  0
    5.4511   -0.7822   -3.0070 C   0  0  0  0  0  0  0  0  0  0  0  0
    5.1933   -1.2186   -4.3822 C   0  0  0  0  0  0  0  0  0  0  0  0
    6.3637   -0.5149   -4.9690 C   0  0  0  0  0  0  0  0  0  0  0  0
    7.1156   -1.3574   -5.7874 C   0  0  0  0  0  0  0  0  0  0  0  0
    8.2662   -1.8007   -4.9337 C   0  0  0  0  0  0  0  0  0  0  0  0
    9.1034   -1.9545   -6.0876 C   0  0  0  0  0  0  0  0  0  0  0  0
   10.4284   -1.8820   -5.5538 C   0  0  0  0  0  0  0  0  0  0  0  0
   11.0567   -2.2304   -6.8217 C   0  0  0  0  0  0  0  0  0  0  0  0
   12.3864   -2.1947   -6.2635 C   0  0  0  0  0  0  0  0  0  0  0  0
   13.1642   -2.2639   -7.4663 C   0  0  0  0  0  0  0  0  0  0  0  0
   13.9590   -1.1524   -6.9504 C   0  0  0  0  0  0  0  0  0  0  0  0
   14.9971   -1.2186   -6.3124 O   0  0  0  0  0  0  0  0  0  0  0  0
   13.3636    0.0674   -7.5660 C   0  0  0  0  0  0  0  0  0  0  0  0
   11.8227    0.5890   -7.5440 C   0  0  0  0  0  0  0  0  0  0  0  0
   12.1202    0.4754   -9.4239 C   0  0  0  0  0  0  0  0  0  0  0  0
   12.7558   -0.3805  -11.0374 C   0  0  0  0  0  0  0  0  0  0  0  0
   12.3179    0.1372  -12.0863 O   0  0  0  0  0  0  0  0  0  0  0  0
   14.1382   -1.4236  -11.5563 C   0  0  0  0  0  0  0  0  0  0  0  0
   14.1820   -2.9632  -11.4660 C   0  0  0  0  0  0  0  0  0  0  0  0
   14.2509   -3.2121   -9.9934 C   0  0  0  0  0  0  0  0  0  0  0  0
   15.1893   -2.1954   -9.1981 C   0  0  0  0  0  0  0  0  0  0  0  0
   14.6569   -0.4793   -8.8081 C   0  0  0  0  0  0  0  0  0  0  0  0
   10.1640    1.0787   -6.3303 C   0  0  0  0  0  0  0  0  0  0  0  0
    8.9316    1.2696   -4.6278 C   0  0  0  0  0  0  0  0  0  0  0  0
    5.4886    2.5245   -1.9187 H   0  0  0  0  0  0  0  0  0  0  0  0
    6.9515    2.0595   -0.9131 H   0  0  0  0  0  0  0  0  0  0  0  0
    5.8152    0.9835   -1.3346 H   0  0  0  0  0  0  0  0  0  0  0  0
    6.8265    2.6569   -3.8622 H   0  0  0  0  0  0  0  0  0  0  0  0
    4.6405    1.1496   -4.0507 H   0  0  0  0  0  0  0  0  0  0  0  0
    4.6360    0.8713   -2.5173 H   0  0  0  0  0  0  0  0  0  0  0  0
    4.7551   -1.3355   -2.2912 H   0  0  0  0  0  0  0  0  0  0  0  0
    6.4300   -0.9807   -2.4748 H   0  0  0  0  0  0  0  0  0  0  0  0
    4.2988   -0.7222   -4.7780 H   0  0  0  0  0  0  0  0  0  0  0  0
    5.0893   -2.2759   -4.5787 H   0  0  0  0  0  0  0  0  0  0  0  0
    7.0850   -0.3143   -4.1490 H   0  0  0  0  0  0  0  0  0  0  0  0
    6.1567    0.4629   -5.4287 H   0  0  0  0  0  0  0  0  0  0  0  0
    7.3287   -0.6664   -6.6160 H   0  0  0  0  0  0  0  0  0  0  0  0
    6.5735   -2.2152   -6.1490 H   0  0  0  0  0  0  0  0  0  0  0  0
    8.1239   -2.6709   -4.2974 H   0  0  0  0  0  0  0  0  0  0  0  0
    8.7706   -1.1547   -4.2075 H   0  0  0  0  0  0  0  0  0  0  0  0
    9.0312   -1.1241   -6.8166 H   0  0  0  0  0  0  0  0  0  0  0  0
    8.8351   -2.8756   -6.5979 H   0  0  0  0  0  0  0  0  0  0  0  0
   10.6603   -2.5716   -4.7435 H   0  0  0  0  0  0  0  0  0  0  0  0
   10.6931   -0.8735   -5.1851 H   0  0  0  0  0  0  0  0  0  0  0  0
   10.8158   -1.4876   -7.6130 H   0  0  0  0  0  0  0  0  0  0  0  0
   10.7871   -3.1906   -7.2643 H   0  0  0  0  0  0  0  0  0  0  0  0
   12.6804   -2.9550   -5.5556 H   0  0  0  0  0  0  0  0  0  0  0  0
   12.4840   -1.2380   -5.6909 H   0  0  0  0  0  0  0  0  0  0  0  0
   12.6238   -1.9286   -8.3861 H   0  0  0  0  0  0  0  0  0  0  0  0
   13.5289   -3.2599   -7.6663 H   0  0  0  0  0  0  0  0  0  0  0  0
   13.0047    1.1269   -9.4633 H   0  0  0  0  0  0  0  0  0  0  0  0
   11.4322    1.2114   -9.8759 H   0  0  0  0  0  0  0  0  0  0  0  0
   15.1441   -1.0433  -11.3094 H   0  0  0  0  0  0  0  0  0  0  0  0
   14.2125   -1.3087  -12.6631 H   0  0  0  0  0  0  0  0  0  0  0  0
   15.0263   -3.4836  -11.9834 H   0  0  0  0  0  0  0  0  0  0  0  0
   13.2965   -3.4297  -11.9232 H   0  0  0  0  0  0  0  0  0  0  0  0
   14.4877   -4.2737   -9.7878 H   0  0  0  0  0  0  0  0  0  0  0  0
   13.2101   -3.0960   -9.7283 H   0  0  0  0  0  0  0  0  0  0  0  0
   16.1593   -2.1613   -9.7361 H   0  0  0  0  0  0  0  0  0  0  0  0
   15.4934   -2.7216   -8.2773 H   0  0  0  0  0  0  0  0  0  0  0  0
   14.6845    0.0975   -9.7349 H   0  0  0  0  0  0  0  0  0  0  0  0
   15.6065   -0.1254   -8.3618 H   0  0  0  0  0  0  0  0  0  0  0  0
    9.4410    1.0921   -7.0800 H   0  0  0  0  0  0  0  0  0  0  0  0
   10.5254    2.1303   -6.2126 H   0  0  0  0  0  0  0  0  0  0  0  0
    9.4080    2.0952   -4.1123 H   0  0  0  0  0  0  0  0  0  0  0  0
    9.1555    0.4662   -4.0869 H   0  0  0  0  0  0  0  0  0  0  0  0
  1  2  1  0  0  0  0
  1 28  1  0  0  0  0
  1 29  1  0  0  0  0
  1 30  1  0  0  0  0
  2  3  1  0  0  0  0
  2 27  1  0  0  0  0
  2 31  1  0  0  0  0
  3  4  1  0  0  0  0
  3 32  1  0  0  0  0
  3 33  1  0  0  0  0
  4  5  1  0  0  0  0
  4 34  1  0  0  0  0
  4 35  1  0  0  0  0
  5  6  1  0  0  0  0
  5 36  1  0  0  0  0
  5 37  1  0  0  0  0
  6  7  1  0  0  0  0
  6 38  1  0  0  0  0
  6 39  1  0  0  0  0
  7  8  1  0  0  0  0
  7 40  1  0  0  0  0
  7 41  1  0  0  0  0
  8  9  1  0  0  0  0
  8 42  1  0  0  0  0
  8 43  1  0  0  0  0
  9 10  1  0  0  0  0
  9 44  1  0  0  0  0
  9 45  1  0  0  0  0
 10 11  1  0  0  0  0
 10 46  1  0  0  0  0
 10 47  1  0  0  0  0
 11 12  1  0  0  0  0
 11 48  1  0  0  0  0
 11 49  1  0  0  0  0
 12 13  1  0  0  0  0
 12 50  1  0  0  0  0
 12 51  1  0  0  0  0
 13 14  1  0  0  0  0
 13 52  1  0  0  0  0
 13 53  1  0  0  0  0
 14 15  2  0  0  0  0
 14 16  1  0  0  0  0
 16 17  2  3  0  0  0
 16 25  1  0  0  0  0
 17 18  1  0  0  0  0
 17 26  1  0  0  0  0
 18 19  1  0  0  0  0
 18 54  1  0  0  0  0
 18 55  1  0  0  0  0
 19 20  2  0  0  0  0
 19 21  1  0  0  0  0
 21 22  1  0  0  0  0
 21 56  1  0  0  0  0
 21 57  1  0  0  0  0
 22 23  1  0  0  0  0
 22 58  1  0  0  0  0
 22 59  1  0  0  0  0
 23 24  1  0  0  0  0
 23 60  1  0  0  0  0
 23 61  1  0  0  0  0
 24 25  1  0  0  0  0
 24 62  1  0  0  0  0
 24 63  1  0  0  0  0
 25 64  1  0  0  0  0
 25 65  1  0  0  0  0
 26 27  1  0  0  0  0
 26 66  1  0  0  0  0
 26 67  1  0  0  0  0
 27 68  1  0  0  0  0
 27 69  1  0  0  0  0
M  END
$$$$
