
 OpenBabel04232216423D

 57 58  0  0  1  0  0  0  0  0999 V2000
    3.1039    0.1405    2.4684 C   0  0  0  0  0  0  0  0  0  0  0  0
    3.0451   -0.1626    1.0367 C   0  0  0  0  0  0  0  0  0  0  0  0
    3.3939   -1.3035    0.3853 C   0  0  0  0  0  0  0  0  0  0  0  0
    4.8627   -1.9202    0.4101 C   0  0  3  0  0  0  0  0  0  0  0  0
    5.7944   -0.7118    0.7237 C   0  0  0  0  0  0  0  0  0  0  0  0
    7.2894   -0.8964    0.8489 C   0  0  0  0  0  0  0  0  0  0  0  0
    8.0340   -1.2857   -0.4025 C   0  0  0  0  0  0  0  0  0  0  0  0
    7.8412   -0.2496   -1.4932 C   0  0  0  0  0  0  0  0  0  0  0  0
    8.5527   -0.6656   -2.7633 C   0  0  0  0  0  0  0  0  0  0  0  0
    8.2750    0.3674   -3.8460 C   0  0  0  0  0  0  0  0  0  0  0  0
    8.9271   -0.0317   -5.1511 C   0  0  0  0  0  0  0  0  0  0  0  0
    2.9276   -2.6156    0.8139 C   0  0  0  0  0  0  0  0  0  0  0  0
    4.1318   -2.9228    1.3464 C   0  0  0  0  0  0  0  0  0  0  0  0
    4.3995   -3.7839    2.5485 C   0  0  0  0  0  0  0  0  0  0  0  0
    3.2794   -3.9024    3.5633 C   0  0  0  0  0  0  0  0  0  0  0  0
    5.6725   -4.0953    2.8271 C   0  0  0  0  0  0  0  0  0  0  0  0
    6.2389   -3.7342    4.1272 C   0  0  0  0  0  0  0  0  0  0  0  0
    6.3119   -4.7553    5.2142 C   0  0  0  0  0  0  0  0  0  0  0  0
    6.8149   -2.5058    4.1691 C   0  0  0  0  0  0  0  0  0  0  0  0
    8.3169   -2.5763    3.7731 C   0  0  0  0  0  0  0  0  0  0  0  0
    9.2339   -3.5118    4.5503 C   0  0  0  0  0  0  0  0  0  0  0  0
    6.1504   -1.3998    3.5490 N   0  0  0  0  0  0  0  0  0  0  0  0
    4.9744   -1.1271    4.0310 C   0  0  0  0  0  0  0  0  0  0  0  0
    3.8374   -0.2003    3.5563 C   0  0  0  0  0  0  0  0  0  0  0  0
    2.3307    0.8884    2.6722 H   0  0  0  0  0  0  0  0  0  0  0  0
    2.9149    0.7083    0.3967 H   0  0  0  0  0  0  0  0  0  0  0  0
    5.2036   -2.3741   -0.5325 H   0  0  0  0  0  0  0  0  0  0  0  0
    5.4996   -0.1884    1.6268 H   0  0  0  0  0  0  0  0  0  0  0  0
    5.6163    0.0449   -0.0518 H   0  0  0  0  0  0  0  0  0  0  0  0
    7.5088   -1.6357    1.5959 H   0  0  0  0  0  0  0  0  0  0  0  0
    7.7074    0.0549    1.2162 H   0  0  0  0  0  0  0  0  0  0  0  0
    7.7056   -2.2764   -0.7299 H   0  0  0  0  0  0  0  0  0  0  0  0
    9.1010   -1.3630   -0.1555 H   0  0  0  0  0  0  0  0  0  0  0  0
    8.2097    0.7263   -1.1511 H   0  0  0  0  0  0  0  0  0  0  0  0
    6.7782   -0.1305   -1.7236 H   0  0  0  0  0  0  0  0  0  0  0  0
    8.1885   -1.6511   -3.0784 H   0  0  0  0  0  0  0  0  0  0  0  0
    9.6294   -0.7554   -2.5787 H   0  0  0  0  0  0  0  0  0  0  0  0
    8.6484    1.3478   -3.5274 H   0  0  0  0  0  0  0  0  0  0  0  0
    7.1928    0.4678   -3.9949 H   0  0  0  0  0  0  0  0  0  0  0  0
   10.0109   -0.1193   -5.0304 H   0  0  0  0  0  0  0  0  0  0  0  0
    8.7217    0.7206   -5.9169 H   0  0  0  0  0  0  0  0  0  0  0  0
    8.5378   -0.9940   -5.4981 H   0  0  0  0  0  0  0  0  0  0  0  0
    1.9181   -2.9520    1.0086 H   0  0  0  0  0  0  0  0  0  0  0  0
    2.3220   -3.5133    3.2066 H   0  0  0  0  0  0  0  0  0  0  0  0
    3.5015   -3.3406    4.4759 H   0  0  0  0  0  0  0  0  0  0  0  0
    3.1240   -4.9441    3.8551 H   0  0  0  0  0  0  0  0  0  0  0  0
    6.3989   -4.0113    2.0145 H   0  0  0  0  0  0  0  0  0  0  0  0
    5.3069   -4.9684    5.5973 H   0  0  0  0  0  0  0  0  0  0  0  0
    6.8901   -4.3819    6.0660 H   0  0  0  0  0  0  0  0  0  0  0  0
    6.7609   -5.6920    4.8778 H   0  0  0  0  0  0  0  0  0  0  0  0
    8.7384   -1.5658    3.7641 H   0  0  0  0  0  0  0  0  0  0  0  0
    8.3854   -2.9402    2.7353 H   0  0  0  0  0  0  0  0  0  0  0  0
   10.2796   -3.2585    4.3417 H   0  0  0  0  0  0  0  0  0  0  0  0
    9.0671   -3.4478    5.6257 H   0  0  0  0  0  0  0  0  0  0  0  0
    9.0997   -4.5528    4.2281 H   0  0  0  0  0  0  0  0  0  0  0  0
    4.6917   -1.5795    5.0066 H   0  0  0  0  0  0  0  0  0  0  0  0
    3.4852    0.3021    4.4602 H   0  0  0  0  0  0  0  0  0  0  0  0
  1  2  1  0  0  0  0
  1 24  2  3  0  0  0
  1 25  1  0  0  0  0
  2  3  2  3  0  0  0
  2 26  1  0  0  0  0
  3  4  1  0  0  0  0
  3 12  1  0  0  0  0
  4  5  1  0  0  0  0
  4 13  1  0  0  0  0
  4 27  1  0  0  0  0
  5  6  1  0  0  0  0
  5 28  1  0  0  0  0
  5 29  1  0  0  0  0
  6  7  1  0  0  0  0
  6 30  1  0  0  0  0
  6 31  1  0  0  0  0
  7  8  1  0  0  0  0
  7 32  1  0  0  0  0
  7 33  1  0  0  0  0
  8  9  1  0  0  0  0
  8 34  1  0  0  0  0
  8 35  1  0  0  0  0
  9 10  1  0  0  0  0
  9 36  1  0  0  0  0
  9 37  1  0  0  0  0
 10 11  1  0  0  0  0
 10 38  1  0  0  0  0
 10 39  1  0  0  0  0
 11 40  1  0  0  0  0
 11 41  1  0  0  0  0
 11 42  1  0  0  0  0
 12 13  2  0  0  0  0
 12 43  1  0  0  0  0
 13 14  1  0  0  0  0
 14 15  1  0  0  0  0
 14 16  2  3  0  0  0
 15 44  1  0  0  0  0
 15 45  1  0  0  0  0
 15 46  1  0  0  0  0
 16 17  1  0  0  0  0
 16 47  1  0  0  0  0
 17 18  1  0  0  0  0
 17 19  2  3  0  0  0
 18 48  1  0  0  0  0
 18 49  1  0  0  0  0
 18 50  1  0  0  0  0
 19 20  1  0  0  0  0
 19 22  1  0  0  0  0
 20 21  1  0  0  0  0
 20 51  1  0  0  0  0
 20 52  1  0  0  0  0
 21 53  1  0  0  0  0
 21 54  1  0  0  0  0
 21 55  1  0  0  0  0
 22 23  2  3  0  0  0
 23 24  1  0  0  0  0
 23 56  1  0  0  0  0
 24 57  1  0  0  0  0
M  END
$$$$
