
 OpenBabel04232216513D

110110  0  0  1  0  0  0  0  0999 V2000
 -100.3392    7.6979   45.5005 C   0  0  0  0  0  0  0  0  0  0  0  0
  -98.7889    6.4246   48.4099 C   0  0  0  0  0  0  0  0  0  0  0  0
  -97.2344    5.1262   51.3639 C   0  0  3  0  0  0  0  0  0  0  0  0
  -98.4456    6.0662   48.0701 C   0  0  0  0  0  0  0  0  0  0  0  0
  -99.3995    6.7011   45.4824 C   0  0  0  0  0  0  0  0  0  0  0  0
 -100.6717    7.4317   42.7364 C   0  0  0  0  0  0  0  0  0  0  0  0
 -101.8680    8.0251   40.6178 C   0  0  0  0  0  0  0  0  0  0  0  0
 -103.8341    8.0642   39.2034 C   0  0  0  0  0  0  0  0  0  0  0  0
 -102.7895    7.4444   39.8798 C   0  0  0  0  0  0  0  0  0  0  0  0
 -103.9080    7.1668   41.5912 C   0  0  0  0  0  0  0  0  0  0  0  0
 -102.9598    6.4431   42.6661 C   0  0  0  0  0  0  0  0  0  0  0  0
 -101.7859    6.3082   43.4831 C   0  0  0  0  0  0  0  0  0  0  0  0
 -100.3016    5.7104   43.7388 C   0  0  0  0  0  0  0  0  0  0  0  0
 -100.8990    5.6005   45.4743 C   0  0  0  0  0  0  0  0  0  0  0  0
  -99.5191    5.0174   46.0574 C   0  0  0  0  0  0  0  0  0  0  0  0
  -99.7243    4.6883   47.5188 C   0  0  0  0  0  0  0  0  0  0  0  0
  -98.3096    4.2363   48.0727 C   0  0  0  0  0  0  0  0  0  0  0  0
  -98.7496    4.1678   49.5179 C   0  0  0  0  0  0  0  0  0  0  0  0
  -97.5245    3.6710   50.0588 C   0  0  0  0  0  0  0  0  0  0  0  0
  -97.4760    3.3982   51.4478 C   0  0  0  0  0  0  0  0  0  0  0  0
  -97.9945    3.2726   52.7053 C   0  0  0  0  0  0  0  0  0  0  0  0
  -96.8531    2.6503   53.4935 C   0  0  0  0  0  0  0  0  0  0  0  0
  -95.9024    1.6900   54.2516 C   0  0  0  0  0  0  0  0  0  0  0  0
  -95.6814    1.7952   55.8770 C   0  0  0  0  0  0  0  0  0  0  0  0
  -94.5115    1.7448   56.4789 C   0  0  0  0  0  0  0  0  0  0  0  0
  -94.7759    1.0173   57.6874 C   0  0  0  0  0  0  0  0  0  0  0  0
  -93.6706    0.2937   58.1798 C   0  0  0  0  0  0  0  0  0  0  0  0
  -93.9418   -0.1101   59.6479 C   0  0  0  0  0  0  0  0  0  0  0  0
  -93.0468   -0.9877   60.0161 C   0  0  0  0  0  0  0  0  0  0  0  0
  -92.9330   -1.3473   61.4277 C   0  0  0  0  0  0  0  0  0  0  0  0
  -91.6490   -1.7202   62.2551 C   0  0  0  0  0  0  0  0  0  0  0  0
  -92.0254   -1.8167   63.9746 C   0  0  0  0  0  0  0  0  0  0  0  0
  -90.9247   -2.4002   64.5588 C   0  0  0  0  0  0  0  0  0  0  0  0
  -91.1980   -2.6593   65.9407 C   0  0  0  0  0  0  0  0  0  0  0  0
  -90.1973   -3.1221   66.6999 C   0  0  0  0  0  0  0  0  0  0  0  0
  -90.1085   -3.7037   68.0261 C   0  0  0  0  0  0  0  0  0  0  0  0
  -88.8801   -4.2229   67.8944 C   0  0  0  0  0  0  0  0  0  0  0  0
  -88.5720   -4.7850   69.8052 C   0  0  0  0  0  0  0  0  0  0  0  0
  -87.3338   -5.2041   70.9555 C   0  0  0  0  0  0  0  0  0  0  0  0
  -88.2363   -5.7569   72.5933 C   0  0  0  0  0  0  0  0  0  0  0  0
  -86.9492   -6.1135   72.7128 C   0  0  0  0  0  0  0  0  0  0  0  0
  -87.1075   -6.5428   73.9859 C   0  0  0  0  0  0  0  0  0  0  0  0
  -85.8882   -7.0160   74.5203 C   0  0  0  0  0  0  0  0  0  0  0  0
  -86.2312   -7.6248   76.2685 C   0  0  0  0  0  0  0  0  0  0  0  0
  -85.6403   -7.5591   77.3377 C   0  0  0  0  0  0  0  0  0  0  0  0
  -86.5314   -5.7206   75.8639 C   0  0  0  0  0  0  0  0  0  0  0  0
  -87.1322   -4.2800   73.3844 C   0  0  0  0  0  0  0  0  0  0  0  0
  -88.3314   -3.0455   70.7455 C   0  0  0  0  0  0  0  0  0  0  0  0
  -89.4877   -1.7815   67.9666 C   0  0  0  0  0  0  0  0  0  0  0  0
  -90.9290   -0.4606   64.8762 C   0  0  0  0  0  0  0  0  0  0  0  0
  -92.2673    0.7468   62.0117 C   0  0  0  0  0  0  0  0  0  0  0  0
  -93.8461    2.2128   58.5463 C   0  0  0  0  0  0  0  0  0  0  0  0
  -95.6191    3.7502   54.8469 C   0  0  0  0  0  3  0  0  0  0  0  0
 -101.3164    8.3964   43.5261 H   0  0  0  0  0  0  0  0  0  0  0  0
 -101.2613    8.3962   43.4993 H   0  0  0  0  0  0  0  0  0  0  0  0
 -101.1638    8.4697   43.4840 H   0  0  0  0  0  0  0  0  0  0  0  0
 -100.1618    7.0962   46.6613 H   0  0  0  0  0  0  0  0  0  0  0  0
 -100.1006    7.2250   46.6690 H   0  0  0  0  0  0  0  0  0  0  0  0
  -97.9925    5.6685   49.5794 H   0  0  0  0  0  0  0  0  0  0  0  0
  -99.0185    6.7230   46.3517 H   0  0  0  0  0  0  0  0  0  0  0  0
 -100.2218    7.4575   43.6743 H   0  0  0  0  0  0  0  0  0  0  0  0
 -101.9207    8.2863   41.1315 H   0  0  0  0  0  0  0  0  0  0  0  0
 -102.3607    8.8565   38.5618 H   0  0  0  0  0  0  0  0  0  0  0  0
 -104.5876    7.6165   39.7670 H   0  0  0  0  0  0  0  0  0  0  0  0
 -101.3877    8.4764   39.3252 H   0  0  0  0  0  0  0  0  0  0  0  0
 -104.3107    8.2355   41.1570 H   0  0  0  0  0  0  0  0  0  0  0  0
 -101.6229    6.3429   42.1932 H   0  0  0  0  0  0  0  0  0  0  0  0
 -102.5923    7.1170   43.9475 H   0  0  0  0  0  0  0  0  0  0  0  0
  -99.2765    6.8350   43.2737 H   0  0  0  0  0  0  0  0  0  0  0  0
 -101.7562    6.3244   45.7417 H   0  0  0  0  0  0  0  0  0  0  0  0
  -98.3455    5.8972   45.4716 H   0  0  0  0  0  0  0  0  0  0  0  0
 -100.2710    5.6559   48.1764 H   0  0  0  0  0  0  0  0  0  0  0  0
  -97.4866    5.1766   47.5721 H   0  0  0  0  0  0  0  0  0  0  0  0
  -99.2628    3.8687   50.3342 H   0  0  0  0  0  0  0  0  0  0  0  0
  -96.5556    4.3596   49.6506 H   0  0  0  0  0  0  0  0  0  0  0  0
  -96.5894    2.6478   50.9992 H   0  0  0  0  0  0  0  0  0  0  0  0
  -96.6316    3.2001   52.1371 H   0  0  0  0  0  0  0  0  0  0  0  0
  -97.0146    3.7489   53.1756 H   0  0  0  0  0  0  0  0  0  0  0  0
  -94.6704    2.3879   53.8647 H   0  0  0  0  0  0  0  0  0  0  0  0
  -95.4883    0.8390   56.1467 H   0  0  0  0  0  0  0  0  0  0  0  0
  -93.5818    1.7680   55.9787 H   0  0  0  0  0  0  0  0  0  0  0  0
  -95.4496    1.5166   58.4789 H   0  0  0  0  0  0  0  0  0  0  0  0
  -92.5808    0.8115   58.0391 H   0  0  0  0  0  0  0  0  0  0  0  0
  -94.7453   -0.2870   60.2096 H   0  0  0  0  0  0  0  0  0  0  0  0
  -91.8376   -0.2649   60.0801 H   0  0  0  0  0  0  0  0  0  0  0  0
  -93.7430   -1.2713   62.3994 H   0  0  0  0  0  0  0  0  0  0  0  0
  -90.6056   -0.9934   62.2411 H   0  0  0  0  0  0  0  0  0  0  0  0
  -92.2112   -0.9152   64.8284 H   0  0  0  0  0  0  0  0  0  0  0  0
  -89.6211   -1.8892   64.3654 H   0  0  0  0  0  0  0  0  0  0  0  0
  -91.3467   -3.2624   66.6602 H   0  0  0  0  0  0  0  0  0  0  0  0
  -88.7888   -2.8468   66.1851 H   0  0  0  0  0  0  0  0  0  0  0  0
  -90.5772   -3.1782   68.8635 H   0  0  0  0  0  0  0  0  0  0  0  0
  -89.2412   -4.2308   66.2783 H   0  0  0  0  0  0  0  0  0  0  0  0
  -89.4045   -5.3250   70.5770 H   0  0  0  0  0  0  0  0  0  0  0  0
  -85.9493   -4.5986   70.5448 H   0  0  0  0  0  0  0  0  0  0  0  0
  -88.4010   -5.0236   73.3828 H   0  0  0  0  0  0  0  0  0  0  0  0
  -85.7119   -5.4496   72.7165 H   0  0  0  0  0  0  0  0  0  0  0  0
  -87.0761   -6.6440   74.9585 H   0  0  0  0  0  0  0  0  0  0  0  0
  -84.6618   -6.3696   74.7976 H   0  0  0  0  0  0  0  0  0  0  0  0
  -86.9708   -7.1225   76.9234 H   0  0  0  0  0  0  0  0  0  0  0  0
  -84.1863   -7.4598   77.1037 H   0  0  0  0  0  0  0  0  0  0  0  0
  -86.0500   -6.7913   77.8180 H   0  0  0  0  0  0  0  0  0  0  0  0
  -86.2781   -5.3906   75.4211 H   0  0  0  0  0  0  0  0  0  0  0  0
  -87.5359   -3.9546   72.5265 H   0  0  0  0  0  0  0  0  0  0  0  0
  -88.6234   -2.7767   69.8030 H   0  0  0  0  0  0  0  0  0  0  0  0
  -90.0317   -1.3559   66.5738 H   0  0  0  0  0  0  0  0  0  0  0  0
  -91.2923   -0.0961   63.6059 H   0  0  0  0  0  0  0  0  0  0  0  0
  -92.9396    1.2953   59.9255 H   0  0  0  0  0  0  0  0  0  0  0  0
  -93.1294    1.2848   60.0300 H   0  0  0  0  0  0  0  0  0  0  0  0
  -95.9323    4.5717   53.6108 H   0  0  0  0  0  0  0  0  0  0  0  0
  1  2  1  0  0  0  0
  1 54  1  0  0  0  0
  1 55  1  0  0  0  0
  1 56  1  0  0  0  0
  2  3  1  0  0  0  0
  2 57  1  0  0  0  0
  2 58  1  0  0  0  0
  3  4  1  0  0  0  0
  3 53  1  0  0  0  0
  3 59  1  0  0  0  0
  4  5  2  3  0  0  0
  4 60  1  0  0  0  0
  5  6  1  0  0  0  0
  5 61  1  0  0  0  0
  6  7  2  3  0  0  0
  6 62  1  0  0  0  0
  7  8  1  0  0  0  0
  7 63  1  0  0  0  0
  8  9  2  3  0  0  0
  8 64  1  0  0  0  0
  9 10  1  0  0  0  0
  9 65  1  0  0  0  0
 10 11  2  3  0  0  0
 10 66  1  0  0  0  0
 11 12  1  0  0  0  0
 11 67  1  0  0  0  0
 12 13  2  3  0  0  0
 12 68  1  0  0  0  0
 13 14  1  0  0  0  0
 13 69  1  0  0  0  0
 14 15  2  3  0  0  0
 14 70  1  0  0  0  0
 15 16  1  0  0  0  0
 15 71  1  0  0  0  0
 16 17  2  3  0  0  0
 16 72  1  0  0  0  0
 17 18  1  0  0  0  0
 17 73  1  0  0  0  0
 18 19  2  3  0  0  0
 18 74  1  0  0  0  0
 19 20  1  0  0  0  0
 19 75  1  0  0  0  0
 20 21  2  3  0  0  0
 20 76  1  0  0  0  0
 21 22  1  0  0  0  0
 21 77  1  0  0  0  0
 22 23  2  3  0  0  0
 22 78  1  0  0  0  0
 23 24  1  0  0  0  0
 23 79  1  0  0  0  0
 24 25  2  3  0  0  0
 24 80  1  0  0  0  0
 25 26  1  0  0  0  0
 25 81  1  0  0  0  0
 26 27  2  3  0  0  0
 26 82  1  0  0  0  0
 27 28  1  0  0  0  0
 27 83  1  0  0  0  0
 28 29  2  3  0  0  0
 28 84  1  0  0  0  0
 29 30  1  0  0  0  0
 29 85  1  0  0  0  0
 30 31  2  3  0  0  0
 30 86  1  0  0  0  0
 31 32  1  0  0  0  0
 31 87  1  0  0  0  0
 32 33  2  3  0  0  0
 32 88  1  0  0  0  0
 33 34  1  0  0  0  0
 33 89  1  0  0  0  0
 34 35  2  3  0  0  0
 34 90  1  0  0  0  0
 35 36  1  0  0  0  0
 35 91  1  0  0  0  0
 36 37  2  3  0  0  0
 36 92  1  0  0  0  0
 37 38  1  0  0  0  0
 37 93  1  0  0  0  0
 38 39  2  3  0  0  0
 38 94  1  0  0  0  0
 39 40  1  0  0  0  0
 39 95  1  0  0  0  0
 40 41  2  3  0  0  0
 40 96  1  0  0  0  0
 41 42  1  0  0  0  0
 41 97  1  0  0  0  0
 42 43  2  3  0  0  0
 42 98  1  0  0  0  0
 43 44  1  0  0  0  0
 43 99  1  0  0  0  0
 44 45  2  3  0  0  0
 44100  1  0  0  0  0
 45 46  1  0  0  0  0
 45101  1  0  0  0  0
 46 47  2  3  0  0  0
 46102  1  0  0  0  0
 47 48  1  0  0  0  0
 47103  1  0  0  0  0
 48 49  2  3  0  0  0
 48104  1  0  0  0  0
 49 50  1  0  0  0  0
 49105  1  0  0  0  0
 50 51  2  3  0  0  0
 50106  1  0  0  0  0
 51 52  1  0  0  0  0
 51107  1  0  0  0  0
 52 53  1  0  0  0  0
 52108  1  0  0  0  0
 52109  1  0  0  0  0
 53110  1  0  0  0  0
M  END
$$$$
