
 OpenBabel04232216493D

 45 46  0  0  1  0  0  0  0  0999 V2000
    0.8022    3.0026   -1.8595 C   0  0  0  0  0  0  0  0  0  0  0  0
    1.1517    1.5156   -1.7304 C   0  0  3  0  0  0  0  0  0  0  0  0
    2.3464    1.3854   -0.8408 C   0  0  0  0  0  0  0  0  0  0  0  0
    3.5610    0.8753   -1.0649 C   0  0  0  0  0  0  0  0  0  0  0  0
    4.1067    0.2709   -2.2479 C   0  0  0  0  0  0  0  0  0  0  0  0
    3.5662    0.0071   -3.4570 C   0  0  0  0  0  0  0  0  0  0  0  0
    4.4016   -0.6899   -4.4639 C   0  0  0  0  0  0  0  0  0  0  0  0
    5.7327   -0.5926   -4.6368 C   0  0  0  0  0  0  0  0  0  0  0  0
    6.4891   -1.3380   -5.6920 C   0  0  0  0  0  0  0  0  0  0  0  0
    7.1759   -0.3957   -6.5487 N   0  0  0  0  0  0  0  0  0  0  0  0
    8.5455   -0.4625   -6.6550 C   0  0  0  0  0  0  0  0  0  0  0  0
    9.2269   -1.2700   -6.0474 O   0  0  0  0  0  0  0  0  0  0  0  0
    9.1689    0.5341   -7.5695 C   0  0  0  0  0  0  0  0  0  0  0  0
   10.3996    0.2358   -8.0185 C   0  0  0  0  0  0  0  0  0  0  0  0
   11.1559    1.1669   -8.8217 C   0  0  0  0  0  0  0  0  0  0  0  0
   10.8034    2.4603   -8.9225 C   0  0  0  0  0  0  0  0  0  0  0  0
   11.6070    3.3201   -9.6377 N   0  0  0  0  0  0  0  0  0  0  0  0
   11.4403    4.6585   -9.8621 C   0  0  0  0  0  0  0  0  0  0  0  0
   12.2299    5.3223  -10.5218 O   0  0  0  0  0  0  0  0  0  0  0  0
    9.5491    2.9612   -8.2332 C   0  0  0  0  0  0  0  0  0  0  0  0
    8.5286    1.8557   -7.8764 C   0  0  0  0  0  0  0  0  0  0  0  0
    2.1773    0.3028   -3.7971 C   0  0  0  0  0  0  0  0  0  0  0  0
    1.2029    0.9136   -3.1042 C   0  0  0  0  0  0  0  0  0  0  0  0
    0.7670    3.4944   -0.8802 H   0  0  0  0  0  0  0  0  0  0  0  0
   -0.1801    3.1347   -2.3269 H   0  0  0  0  0  0  0  0  0  0  0  0
    1.5409    3.5317   -2.4730 H   0  0  0  0  0  0  0  0  0  0  0  0
    0.3241    1.0194   -1.2037 H   0  0  0  0  0  0  0  0  0  0  0  0
    2.1861    1.7824    0.1626 H   0  0  0  0  0  0  0  0  0  0  0  0
    4.2687    0.9168   -0.2356 H   0  0  0  0  0  0  0  0  0  0  0  0
    5.1440   -0.0064   -2.0690 H   0  0  0  0  0  0  0  0  0  0  0  0
    3.8439   -1.3309   -5.1500 H   0  0  0  0  0  0  0  0  0  0  0  0
    6.3321    0.0291   -3.9788 H   0  0  0  0  0  0  0  0  0  0  0  0
    5.8185   -1.9406   -6.3145 H   0  0  0  0  0  0  0  0  0  0  0  0
    7.2168   -2.0112   -5.2275 H   0  0  0  0  0  0  0  0  0  0  0  0
    6.6415    0.1817   -7.1770 H   0  0  0  0  0  0  0  0  0  0  0  0
   10.8799   -0.7091   -7.7725 H   0  0  0  0  0  0  0  0  0  0  0  0
   12.0576    0.7780   -9.2868 H   0  0  0  0  0  0  0  0  0  0  0  0
   12.4553    2.9544  -10.0589 H   0  0  0  0  0  0  0  0  0  0  0  0
   10.5428    5.1019   -9.4091 H   0  0  0  0  0  0  0  0  0  0  0  0
    9.0256    3.6939   -8.8572 H   0  0  0  0  0  0  0  0  0  0  0  0
    9.8522    3.4788   -7.3139 H   0  0  0  0  0  0  0  0  0  0  0  0
    7.8388    1.7231   -8.7197 H   0  0  0  0  0  0  0  0  0  0  0  0
    7.9288    2.2038   -7.0277 H   0  0  0  0  0  0  0  0  0  0  0  0
    1.8982   -0.0036   -4.8069 H   0  0  0  0  0  0  0  0  0  0  0  0
    0.2526    1.0080   -3.6313 H   0  0  0  0  0  0  0  0  0  0  0  0
  1  2  1  0  0  0  0
  1 24  1  0  0  0  0
  1 25  1  0  0  0  0
  1 26  1  0  0  0  0
  2  3  1  0  0  0  0
  2 23  1  0  0  0  0
  2 27  1  0  0  0  0
  3  4  2  0  0  0  0
  3 28  1  0  0  0  0
  4  5  1  0  0  0  0
  4 29  1  0  0  0  0
  5  6  2  0  0  0  0
  5 30  1  0  0  0  0
  6  7  1  0  0  0  0
  6 22  1  0  0  0  0
  7  8  2  3  0  0  0
  7 31  1  0  0  0  0
  8  9  1  0  0  0  0
  8 32  1  0  0  0  0
  9 10  1  0  0  0  0
  9 33  1  0  0  0  0
  9 34  1  0  0  0  0
 10 11  1  0  0  0  0
 10 35  1  0  0  0  0
 11 12  2  0  0  0  0
 11 13  1  0  0  0  0
 13 14  2  0  0  0  0
 13 21  1  0  0  0  0
 14 15  1  0  0  0  0
 14 36  1  0  0  0  0
 15 16  2  0  0  0  0
 15 37  1  0  0  0  0
 16 17  1  0  0  0  0
 16 20  1  0  0  0  0
 17 18  1  0  0  0  0
 17 38  1  0  0  0  0
 18 19  2  0  0  0  0
 18 39  1  0  0  0  0
 20 21  1  0  0  0  0
 20 40  1  0  0  0  0
 20 41  1  0  0  0  0
 21 42  1  0  0  0  0
 21 43  1  0  0  0  0
 22 23  2  0  0  0  0
 22 44  1  0  0  0  0
 23 45  1  0  0  0  0
M  END
$$$$
