
 OpenBabel04232216423D

193192  0  0  0  0  0  0  0  0999 V2000
   26.3295  -20.3000   25.0664 C   0  0  0  0  0  0  0  0  0  0  0  0
   27.1759  -20.5565   24.0579 C   0  0  0  0  0  0  0  0  0  0  0  0
   27.8451  -19.4728   23.2482 C   0  0  0  0  0  0  0  0  0  0  0  0
   27.4606  -19.5925   21.8542 N   0  0  0  0  0  0  0  0  0  0  0  0
   28.0865  -18.5247   21.1742 N   0  0  0  0  0  0  0  0  0  0  0  0
   27.7674  -18.5833   19.7897 N   0  0  0  0  0  0  0  0  0  0  0  0
   28.4241  -17.5463   19.0796 N   0  0  0  0  0  0  0  0  0  0  0  0
   29.8511  -17.6628   19.1880 N   0  0  0  0  0  0  0  0  0  0  0  0
   30.2933  -18.9418   18.6843 N   0  0  0  0  0  0  0  0  0  0  0  0
   29.9433  -19.0528   17.2941 N   0  0  0  0  0  0  0  0  0  0  0  0
   30.5775  -17.9977   16.5307 N   0  0  0  0  0  0  0  0  0  0  0  0
   31.9897  -18.0677   16.6902 N   0  0  0  0  0  0  0  0  0  0  0  0
   32.4521  -19.3291   16.2007 N   0  0  0  0  0  0  0  0  0  0  0  0
   32.0827  -19.4896   14.8241 N   0  0  0  0  0  0  0  0  0  0  0  0
   32.6955  -18.4526   14.0239 N   0  0  0  0  0  0  0  0  0  0  0  0
   34.1178  -18.4824   14.1721 N   0  0  0  0  0  0  0  0  0  0  0  0
   34.6133  -19.7425   13.7233 N   0  0  0  0  0  0  0  0  0  0  0  0
   34.2161  -19.9363   12.3642 N   0  0  0  0  0  0  0  0  0  0  0  0
   34.7742  -18.8725   11.5799 N   0  0  0  0  0  0  0  0  0  0  0  0
   36.2120  -18.8888   11.6978 N   0  0  0  0  0  0  0  0  0  0  0  0
   36.7180  -20.1508   11.2757 N   0  0  0  0  0  0  0  0  0  0  0  0
   36.3879  -20.3678    9.8881 N   0  0  0  0  0  0  0  0  0  0  0  0
   36.9076  -19.3140    9.0713 N   0  0  0  0  0  0  0  0  0  0  0  0
   38.3269  -19.2802    9.2020 N   0  0  0  0  0  0  0  0  0  0  0  0
   38.8477  -20.5509    8.7944 N   0  0  0  0  0  0  0  0  0  0  0  0
   38.4653  -20.8055    7.4384 N   0  0  0  0  0  0  0  0  0  0  0  0
   38.9808  -19.7805    6.5943 N   0  0  0  0  0  0  0  0  0  0  0  0
   40.4120  -19.7151    6.6743 N   0  0  0  0  0  0  0  0  0  0  0  0
   40.9903  -20.9641    6.2786 N   0  0  0  0  0  0  0  0  0  0  0  0
   40.5827  -21.2513    4.9476 N   0  0  0  0  0  0  0  0  0  0  0  0
   41.0533  -20.1931    4.1018 N   0  0  0  0  0  0  0  0  0  0  0  0
   42.5104  -20.1079    4.1715 N   0  0  0  0  0  0  0  0  0  0  0  0
   43.1284  -21.3403    3.7791 N   0  0  0  0  0  0  0  0  0  0  0  0
   42.7548  -21.6659    2.4600 N   0  0  0  0  0  0  0  0  0  0  0  0
   43.1885  -20.6239    1.5954 N   0  0  0  0  0  0  0  0  0  0  0  0
   44.6121  -20.4758    1.6891 N   0  0  0  0  0  0  0  0  0  0  0  0
   45.2495  -21.7112    1.3487 N   0  0  0  0  0  0  0  0  0  0  0  0
   44.9031  -22.0606   -0.0111 N   0  0  0  0  0  0  0  0  0  0  0  0
   45.3223  -21.0251   -0.9080 N   0  0  0  0  0  0  0  0  0  0  0  0
   46.7251  -20.8220   -0.8065 N   0  0  0  0  0  0  0  0  0  0  0  0
   47.3896  -22.0476   -1.1392 N   0  0  0  0  0  0  0  0  0  0  0  0
   47.0208  -22.4268   -2.4759 N   0  0  0  0  0  0  0  0  0  0  0  0
   47.3854  -21.3787   -3.3835 N   0  0  0  0  0  0  0  0  0  0  0  0
   48.8036  -21.1831   -3.2887 N   0  0  0  0  0  0  0  0  0  0  0  0
   49.4941  -22.3997   -3.6379 N   0  0  0  0  0  0  0  0  0  0  0  0
   49.1388  -22.8071   -4.9633 N   0  0  0  0  0  0  0  0  0  0  0  0
   49.5289  -21.7887   -5.8867 N   0  0  0  0  0  0  0  0  0  0  0  0
   50.9386  -21.5341   -5.8127 N   0  0  0  0  0  0  0  0  0  0  0  0
   51.6670  -22.7188   -6.1332 N   0  0  0  0  0  0  0  0  0  0  0  0
   51.3281  -23.1732   -7.4663 N   0  0  0  0  0  0  0  0  0  0  0  0
   51.6654  -22.0928   -8.3889 C   0  0  0  0  0  0  0  0  0  0  0  0
   51.3003  -22.5243   -9.7922 C   0  0  0  0  0  0  0  0  0  0  0  0
   51.6645  -21.4328  -10.7824 C   0  0  0  0  0  0  0  0  0  0  0  0
   51.3064  -21.8664  -12.1904 C   0  0  0  0  0  0  0  0  0  0  0  0
   51.6731  -20.7780  -13.1798 C   0  0  0  0  0  0  0  0  0  0  0  0
   51.3164  -21.2137  -14.5867 C   0  0  0  0  0  0  0  0  0  0  0  0
   51.6814  -20.1248  -15.5751 C   0  0  0  0  0  0  0  0  0  0  0  0
   51.3247  -20.5606  -16.9817 C   0  0  0  0  0  0  0  0  0  0  0  0
   51.6915  -19.4725  -17.9701 C   0  0  0  0  0  0  0  0  0  0  0  0
   51.3347  -19.9084  -19.3766 C   0  0  0  0  0  0  0  0  0  0  0  0
   51.7015  -18.8203  -20.3650 C   0  0  0  0  0  0  0  0  0  0  0  0
   51.3448  -19.2561  -21.7715 C   0  0  0  0  0  0  0  0  0  0  0  0
   51.7116  -18.1680  -22.7599 C   0  0  0  0  0  0  0  0  0  0  0  0
   51.3549  -18.6039  -24.1664 C   0  0  0  0  0  0  0  0  0  0  0  0
   51.7217  -17.5158  -25.1547 C   0  0  0  0  0  0  0  0  0  0  0  0
   51.3649  -17.9517  -26.5612 C   0  0  0  0  0  0  0  0  0  0  0  0
   51.7317  -16.8635  -27.5496 C   0  0  0  0  0  0  0  0  0  0  0  0
   51.3750  -17.2994  -28.9561 C   0  0  0  0  0  0  0  0  0  0  0  0
   51.7436  -16.2121  -29.9448 C   0  0  0  0  0  0  0  0  0  0  0  0
   51.3869  -16.6480  -31.3513 C   0  0  0  0  0  0  0  0  0  0  0  0
   51.7555  -15.5607  -32.3399 C   0  0  0  0  0  0  0  0  0  0  0  0
   51.3988  -15.9965  -33.7464 C   0  0  0  0  0  0  0  0  0  0  0  0
   51.7674  -14.9092  -34.7350 C   0  0  0  0  0  0  0  0  0  0  0  0
   51.4107  -15.3451  -36.1415 C   0  0  0  0  0  0  0  0  0  0  0  0
   51.7775  -14.2570  -37.1299 C   0  0  0  0  0  0  0  0  0  0  0  0
   51.4207  -14.6928  -38.5364 C   0  0  0  0  0  0  0  0  0  0  0  0
   51.7877  -13.6043  -39.5249 C   0  0  0  0  0  0  0  0  0  0  0  0
   51.4295  -14.0385  -40.9318 C   0  0  0  0  0  0  0  0  0  0  0  0
   51.7976  -12.9512  -41.9240 C   0  0  0  0  0  0  0  0  0  0  0  0
   51.4387  -13.3883  -43.3260 C   0  0  0  0  0  0  0  0  0  0  0  0
   25.8617  -21.1082   25.6080 H   0  0  0  0  0  0  0  0  0  0  0  0
   26.0860  -19.2780   25.3396 H   0  0  0  0  0  0  0  0  0  0  0  0
   27.3917  -21.5887   23.7916 H   0  0  0  0  0  0  0  0  0  0  0  0
   28.9314  -19.5617   23.3751 H   0  0  0  0  0  0  0  0  0  0  0  0
   27.5413  -18.4913   23.6439 H   0  0  0  0  0  0  0  0  0  0  0  0
   26.4459  -19.4897   21.7842 H   0  0  0  0  0  0  0  0  0  0  0  0
   29.1018  -18.6258   21.2933 H   0  0  0  0  0  0  0  0  0  0  0  0
   26.7698  -18.5166   19.6147 H   0  0  0  0  0  0  0  0  0  0  0  0
   28.1559  -16.6281   19.4028 H   0  0  0  0  0  0  0  0  0  0  0  0
   30.1642  -17.5586   20.1472 H   0  0  0  0  0  0  0  0  0  0  0  0
   29.8469  -19.7034   19.2145 H   0  0  0  0  0  0  0  0  0  0  0  0
   28.9436  -18.9711   17.1434 H   0  0  0  0  0  0  0  0  0  0  0  0
   30.2764  -17.0918   16.8772 H   0  0  0  0  0  0  0  0  0  0  0  0
   32.2501  -17.9622   17.6718 H   0  0  0  0  0  0  0  0  0  0  0  0
   32.0072  -20.0888   16.7309 H   0  0  0  0  0  0  0  0  0  0  0  0
   31.0586  -19.4587   14.7344 H   0  0  0  0  0  0  0  0  0  0  0  0
   32.3628  -17.5408   14.3520 H   0  0  0  0  0  0  0  0  0  0  0  0
   34.3391  -18.3437   15.1711 H   0  0  0  0  0  0  0  0  0  0  0  0
   34.1905  -20.4806   14.2708 H   0  0  0  0  0  0  0  0  0  0  0  0
   33.1912  -19.9074   12.3133 H   0  0  0  0  0  0  0  0  0  0  0  0
   34.4332  -17.9635   11.8980 H   0  0  0  0  0  0  0  0  0  0  0  0
   36.4958  -18.7678   12.6651 H   0  0  0  0  0  0  0  0  0  0  0  0
   36.3215  -20.8992   11.8400 H   0  0  0  0  0  0  0  0  0  0  0  0
   35.3722  -20.3673    9.7885 H   0  0  0  0  0  0  0  0  0  0  0  0
   36.5104  -18.4198    9.3970 H   0  0  0  0  0  0  0  0  0  0  0  0
   38.5372  -19.1044   10.1913 H   0  0  0  0  0  0  0  0  0  0  0  0
   38.4407  -21.2906    9.3547 H   0  0  0  0  0  0  0  0  0  0  0  0
   37.4550  -20.7997    7.3431 H   0  0  0  0  0  0  0  0  0  0  0  0
   38.5940  -18.8794    6.8762 H   0  0  0  0  0  0  0  0  0  0  0  0
   40.6800  -19.5041    7.6424 H   0  0  0  0  0  0  0  0  0  0  0  0
   40.6211  -21.7025    6.8667 H   0  0  0  0  0  0  0  0  0  0  0  0
   39.5595  -21.2786    4.9159 H   0  0  0  0  0  0  0  0  0  0  0  0
   40.6379  -19.3039    4.4064 H   0  0  0  0  0  0  0  0  0  0  0  0
   42.7877  -19.8839    5.1370 H   0  0  0  0  0  0  0  0  0  0  0  0
   42.8180  -22.1007    4.3826 H   0  0  0  0  0  0  0  0  0  0  0  0
   41.7514  -21.7379    2.3780 H   0  0  0  0  0  0  0  0  0  0  0  0
   42.7661  -19.7511    1.8937 H   0  0  0  0  0  0  0  0  0  0  0  0
   44.8196  -20.2249    2.6696 H   0  0  0  0  0  0  0  0  0  0  0  0
   44.9285  -22.4545    1.9777 H   0  0  0  0  0  0  0  0  0  0  0  0
   43.8904  -22.1485   -0.0862 H   0  0  0  0  0  0  0  0  0  0  0  0
   44.8553  -20.1582   -0.6460 H   0  0  0  0  0  0  0  0  0  0  0  0
   46.9599  -20.5773    0.1502 H   0  0  0  0  0  0  0  0  0  0  0  0
   47.0835  -22.7617   -0.4718 H   0  0  0  0  0  0  0  0  0  0  0  0
   46.0009  -22.5632   -2.5120 H   0  0  0  0  0  0  0  0  0  0  0  0
   46.9022  -20.5061   -3.1357 H   0  0  0  0  0  0  0  0  0  0  0  0
   49.0705  -20.8894   -2.3424 H   0  0  0  0  0  0  0  0  0  0  0  0
   49.2476  -23.1541   -2.9842 H   0  0  0  0  0  0  0  0  0  0  0  0
   48.1273  -22.9771   -5.0413 H   0  0  0  0  0  0  0  0  0  0  0  0
   49.0430  -20.9148   -5.6750 H   0  0  0  0  0  0  0  0  0  0  0  0
   51.1827  -21.2418   -4.8689 H   0  0  0  0  0  0  0  0  0  0  0  0
   51.3883  -23.4408   -5.4693 H   0  0  0  0  0  0  0  0  0  0  0  0
   50.3115  -23.3074   -7.4865 H   0  0  0  0  0  0  0  0  0  0  0  0
   52.7375  -21.8826   -8.3300 H   0  0  0  0  0  0  0  0  0  0  0  0
   51.1224  -21.1632   -8.1602 H   0  0  0  0  0  0  0  0  0  0  0  0
   50.2250  -22.7303   -9.8564 H   0  0  0  0  0  0  0  0  0  0  0  0
   51.8384  -23.4437  -10.0461 H   0  0  0  0  0  0  0  0  0  0  0  0
   52.7390  -21.2225  -10.7245 H   0  0  0  0  0  0  0  0  0  0  0  0
   51.1273  -20.5097  -10.5341 H   0  0  0  0  0  0  0  0  0  0  0  0
   50.2317  -22.0737  -12.2519 H   0  0  0  0  0  0  0  0  0  0  0  0
   51.8427  -22.7889  -12.4414 H   0  0  0  0  0  0  0  0  0  0  0  0
   52.7476  -20.5692  -13.1190 H   0  0  0  0  0  0  0  0  0  0  0  0
   51.1357  -19.8554  -12.9313 H   0  0  0  0  0  0  0  0  0  0  0  0
   50.2422  -21.4237  -14.6479 H   0  0  0  0  0  0  0  0  0  0  0  0
   51.8550  -22.1353  -14.8364 H   0  0  0  0  0  0  0  0  0  0  0  0
   52.7556  -19.9147  -15.5141 H   0  0  0  0  0  0  0  0  0  0  0  0
   51.1428  -19.2031  -15.3257 H   0  0  0  0  0  0  0  0  0  0  0  0
   50.2502  -20.7693  -17.0430 H   0  0  0  0  0  0  0  0  0  0  0  0
   51.8622  -21.4831  -17.2307 H   0  0  0  0  0  0  0  0  0  0  0  0
   52.7659  -19.2638  -17.9087 H   0  0  0  0  0  0  0  0  0  0  0  0
   51.1540  -18.5501  -17.7211 H   0  0  0  0  0  0  0  0  0  0  0  0
   50.2603  -20.1171  -19.4379 H   0  0  0  0  0  0  0  0  0  0  0  0
   51.8722  -20.8308  -19.6255 H   0  0  0  0  0  0  0  0  0  0  0  0
   52.7760  -18.6116  -20.3036 H   0  0  0  0  0  0  0  0  0  0  0  0
   51.1641  -17.8978  -20.1160 H   0  0  0  0  0  0  0  0  0  0  0  0
   50.2704  -19.4648  -21.8328 H   0  0  0  0  0  0  0  0  0  0  0  0
   51.8823  -20.1786  -22.0204 H   0  0  0  0  0  0  0  0  0  0  0  0
   52.7860  -17.9593  -22.6985 H   0  0  0  0  0  0  0  0  0  0  0  0
   51.1741  -17.2456  -22.5109 H   0  0  0  0  0  0  0  0  0  0  0  0
   50.2804  -18.8126  -24.2277 H   0  0  0  0  0  0  0  0  0  0  0  0
   51.8923  -19.5263  -24.4153 H   0  0  0  0  0  0  0  0  0  0  0  0
   52.7961  -17.3071  -25.0934 H   0  0  0  0  0  0  0  0  0  0  0  0
   51.1842  -16.5933  -24.9058 H   0  0  0  0  0  0  0  0  0  0  0  0
   50.2905  -18.1603  -26.6226 H   0  0  0  0  0  0  0  0  0  0  0  0
   51.9024  -18.8741  -26.8102 H   0  0  0  0  0  0  0  0  0  0  0  0
   52.8062  -16.6549  -27.4883 H   0  0  0  0  0  0  0  0  0  0  0  0
   51.1943  -15.9411  -27.3007 H   0  0  0  0  0  0  0  0  0  0  0  0
   50.3003  -17.5067  -29.0178 H   0  0  0  0  0  0  0  0  0  0  0  0
   51.9114  -18.2226  -29.2046 H   0  0  0  0  0  0  0  0  0  0  0  0
   52.8183  -16.0048  -29.8830 H   0  0  0  0  0  0  0  0  0  0  0  0
   51.2073  -15.2889  -29.6963 H   0  0  0  0  0  0  0  0  0  0  0  0
   50.3122  -16.8553  -31.4130 H   0  0  0  0  0  0  0  0  0  0  0  0
   51.9232  -17.5712  -31.5997 H   0  0  0  0  0  0  0  0  0  0  0  0
   52.8302  -15.3534  -32.2781 H   0  0  0  0  0  0  0  0  0  0  0  0
   51.2191  -14.6374  -32.0914 H   0  0  0  0  0  0  0  0  0  0  0  0
   50.3241  -16.2038  -33.8081 H   0  0  0  0  0  0  0  0  0  0  0  0
   51.9351  -16.9198  -33.9948 H   0  0  0  0  0  0  0  0  0  0  0  0
   52.8421  -14.7019  -34.6733 H   0  0  0  0  0  0  0  0  0  0  0  0
   51.2310  -13.9860  -34.4865 H   0  0  0  0  0  0  0  0  0  0  0  0
   50.3362  -15.5538  -36.2028 H   0  0  0  0  0  0  0  0  0  0  0  0
   51.9481  -16.2676  -36.3904 H   0  0  0  0  0  0  0  0  0  0  0  0
   52.8519  -14.0483  -37.0685 H   0  0  0  0  0  0  0  0  0  0  0  0
   51.2400  -13.3345  -36.8809 H   0  0  0  0  0  0  0  0  0  0  0  0
   50.3463  -14.9015  -38.5977 H   0  0  0  0  0  0  0  0  0  0  0  0
   51.9582  -15.6153  -38.7854 H   0  0  0  0  0  0  0  0  0  0  0  0
   52.8624  -13.3970  -39.4643 H   0  0  0  0  0  0  0  0  0  0  0  0
   51.2512  -12.6817  -39.2749 H   0  0  0  0  0  0  0  0  0  0  0  0
   50.3544  -14.2457  -40.9916 H   0  0  0  0  0  0  0  0  0  0  0  0
   51.9642  -14.9629  -41.1802 H   0  0  0  0  0  0  0  0  0  0  0  0
   52.8721  -12.7455  -41.8667 H   0  0  0  0  0  0  0  0  0  0  0  0
   51.2616  -12.0280  -41.6780 H   0  0  0  0  0  0  0  0  0  0  0  0
   51.9787  -14.3033  -43.5888 H   0  0  0  0  0  0  0  0  0  0  0  0
   51.7027  -12.6073  -44.0424 H   0  0  0  0  0  0  0  0  0  0  0  0
   50.3643  -13.5841  -43.3997 H   0  0  0  0  0  0  0  0  0  0  0  0
  1  2  2  0  0  0  0
  1 81  1  0  0  0  0
  1 82  1  0  0  0  0
  2  3  1  0  0  0  0
  2 83  1  0  0  0  0
  3  4  1  0  0  0  0
  3 84  1  0  0  0  0
  3 85  1  0  0  0  0
  4  5  1  0  0  0  0
  4 86  1  0  0  0  0
  5  6  1  0  0  0  0
  5 87  1  0  0  0  0
  6  7  1  0  0  0  0
  6 88  1  0  0  0  0
  7  8  1  0  0  0  0
  7 89  1  0  0  0  0
  8  9  1  0  0  0  0
  8 90  1  0  0  0  0
  9 10  1  0  0  0  0
  9 91  1  0  0  0  0
 10 11  1  0  0  0  0
 10 92  1  0  0  0  0
 11 12  1  0  0  0  0
 11 93  1  0  0  0  0
 12 13  1  0  0  0  0
 12 94  1  0  0  0  0
 13 14  1  0  0  0  0
 13 95  1  0  0  0  0
 14 15  1  0  0  0  0
 14 96  1  0  0  0  0
 15 16  1  0  0  0  0
 15 97  1  0  0  0  0
 16 17  1  0  0  0  0
 16 98  1  0  0  0  0
 17 18  1  0  0  0  0
 17 99  1  0  0  0  0
 18 19  1  0  0  0  0
 18100  1  0  0  0  0
 19 20  1  0  0  0  0
 19101  1  0  0  0  0
 20 21  1  0  0  0  0
 20102  1  0  0  0  0
 21 22  1  0  0  0  0
 21103  1  0  0  0  0
 22 23  1  0  0  0  0
 22104  1  0  0  0  0
 23 24  1  0  0  0  0
 23105  1  0  0  0  0
 24 25  1  0  0  0  0
 24106  1  0  0  0  0
 25 26  1  0  0  0  0
 25107  1  0  0  0  0
 26 27  1  0  0  0  0
 26108  1  0  0  0  0
 27 28  1  0  0  0  0
 27109  1  0  0  0  0
 28 29  1  0  0  0  0
 28110  1  0  0  0  0
 29 30  1  0  0  0  0
 29111  1  0  0  0  0
 30 31  1  0  0  0  0
 30112  1  0  0  0  0
 31 32  1  0  0  0  0
 31113  1  0  0  0  0
 32 33  1  0  0  0  0
 32114  1  0  0  0  0
 33 34  1  0  0  0  0
 33115  1  0  0  0  0
 34 35  1  0  0  0  0
 34116  1  0  0  0  0
 35 36  1  0  0  0  0
 35117  1  0  0  0  0
 36 37  1  0  0  0  0
 36118  1  0  0  0  0
 37 38  1  0  0  0  0
 37119  1  0  0  0  0
 38 39  1  0  0  0  0
 38120  1  0  0  0  0
 39 40  1  0  0  0  0
 39121  1  0  0  0  0
 40 41  1  0  0  0  0
 40122  1  0  0  0  0
 41 42  1  0  0  0  0
 41123  1  0  0  0  0
 42 43  1  0  0  0  0
 42124  1  0  0  0  0
 43 44  1  0  0  0  0
 43125  1  0  0  0  0
 44 45  1  0  0  0  0
 44126  1  0  0  0  0
 45 46  1  0  0  0  0
 45127  1  0  0  0  0
 46 47  1  0  0  0  0
 46128  1  0  0  0  0
 47 48  1  0  0  0  0
 47129  1  0  0  0  0
 48 49  1  0  0  0  0
 48130  1  0  0  0  0
 49 50  1  0  0  0  0
 49131  1  0  0  0  0
 50 51  1  0  0  0  0
 50132  1  0  0  0  0
 51 52  1  0  0  0  0
 51133  1  0  0  0  0
 51134  1  0  0  0  0
 52 53  1  0  0  0  0
 52135  1  0  0  0  0
 52136  1  0  0  0  0
 53 54  1  0  0  0  0
 53137  1  0  0  0  0
 53138  1  0  0  0  0
 54 55  1  0  0  0  0
 54139  1  0  0  0  0
 54140  1  0  0  0  0
 55 56  1  0  0  0  0
 55141  1  0  0  0  0
 55142  1  0  0  0  0
 56 57  1  0  0  0  0
 56143  1  0  0  0  0
 56144  1  0  0  0  0
 57 58  1  0  0  0  0
 57145  1  0  0  0  0
 57146  1  0  0  0  0
 58 59  1  0  0  0  0
 58147  1  0  0  0  0
 58148  1  0  0  0  0
 59 60  1  0  0  0  0
 59149  1  0  0  0  0
 59150  1  0  0  0  0
 60 61  1  0  0  0  0
 60151  1  0  0  0  0
 60152  1  0  0  0  0
 61 62  1  0  0  0  0
 61153  1  0  0  0  0
 61154  1  0  0  0  0
 62 63  1  0  0  0  0
 62155  1  0  0  0  0
 62156  1  0  0  0  0
 63 64  1  0  0  0  0
 63157  1  0  0  0  0
 63158  1  0  0  0  0
 64 65  1  0  0  0  0
 64159  1  0  0  0  0
 64160  1  0  0  0  0
 65 66  1  0  0  0  0
 65161  1  0  0  0  0
 65162  1  0  0  0  0
 66 67  1  0  0  0  0
 66163  1  0  0  0  0
 66164  1  0  0  0  0
 67 68  1  0  0  0  0
 67165  1  0  0  0  0
 67166  1  0  0  0  0
 68 69  1  0  0  0  0
 68167  1  0  0  0  0
 68168  1  0  0  0  0
 69 70  1  0  0  0  0
 69169  1  0  0  0  0
 69170  1  0  0  0  0
 70 71  1  0  0  0  0
 70171  1  0  0  0  0
 70172  1  0  0  0  0
 71 72  1  0  0  0  0
 71173  1  0  0  0  0
 71174  1  0  0  0  0
 72 73  1  0  0  0  0
 72175  1  0  0  0  0
 72176  1  0  0  0  0
 73 74  1  0  0  0  0
 73177  1  0  0  0  0
 73178  1  0  0  0  0
 74 75  1  0  0  0  0
 74179  1  0  0  0  0
 74180  1  0  0  0  0
 75 76  1  0  0  0  0
 75181  1  0  0  0  0
 75182  1  0  0  0  0
 76 77  1  0  0  0  0
 76183  1  0  0  0  0
 76184  1  0  0  0  0
 77 78  1  0  0  0  0
 77185  1  0  0  0  0
 77186  1  0  0  0  0
 78 79  1  0  0  0  0
 78187  1  0  0  0  0
 78188  1  0  0  0  0
 79 80  1  0  0  0  0
 79189  1  0  0  0  0
 79190  1  0  0  0  0
 80191  1  0  0  0  0
 80192  1  0  0  0  0
 80193  1  0  0  0  0
M  END
$$$$
