
 OpenBabel04232216513D

 58 59  0  0  1  0  0  0  0  0999 V2000
    2.2466   -1.5375    0.1406 C   0  0  0  0  0  0  0  0  0  0  0  0
    2.4819   -0.0372    0.0611 C   0  0  0  0  0  0  0  0  0  0  0  0
    2.9430    0.4536   -1.3279 C   0  0  3  0  0  0  0  0  0  0  0  0
    1.9143    0.2630   -2.4500 C   0  0  0  0  0  0  0  0  0  0  0  0
    0.7163    1.2035   -2.3441 C   0  0  0  0  0  0  0  0  0  0  0  0
    1.1268    2.6662   -2.1898 C   0  0  0  0  0  0  0  0  0  0  0  0
    2.1584    2.8819   -1.0721 C   0  0  3  0  0  0  0  0  0  0  0  0
    2.5872    4.3606   -1.0424 C   0  0  0  0  0  0  0  0  0  0  0  0
    3.6028    4.6643    0.0570 C   0  0  0  0  0  0  0  0  0  0  0  0
    3.9959    6.1355    0.0571 C   0  0  0  0  0  0  0  0  0  0  0  0
    5.0486    6.3938    1.1271 C   0  0  0  0  0  0  0  0  0  0  0  0
    5.4392    7.7828    1.1436 N   0  0  0  0  0  0  0  0  0  0  0  0
    6.4563    8.2651    0.3561 C   0  0  0  0  0  0  0  0  0  0  0  0
    7.0796    7.5618   -0.4368 O   0  0  0  0  0  0  0  0  0  0  0  0
    6.7747    9.7284    0.5375 C   0  0  0  0  0  0  0  0  0  0  0  0
    7.4614   10.4129   -0.4124 C   0  0  0  0  0  0  0  0  0  0  0  0
    7.8169    9.8221   -1.6140 N   0  0  0  0  0  0  0  0  0  0  0  0
    8.4491   10.3792   -2.6921 C   0  0  0  0  0  0  0  0  0  0  0  0
    8.7228    9.7600   -3.7130 O   0  0  0  0  0  0  0  0  0  0  0  0
    7.8902   11.8512   -0.1853 C   0  0  0  0  0  0  0  0  0  0  0  0
    7.8383   12.2929    1.2751 C   0  0  0  0  0  0  0  0  0  0  0  0
    6.5278   11.8767    1.9064 C   0  0  0  0  0  0  0  0  0  0  0  0
    6.3657   10.3610    1.8512 C   0  0  0  0  0  0  0  0  0  0  0  0
    3.3553    1.9325   -1.2589 C   0  0  0  0  0  0  0  0  0  0  0  0
    2.0243   -1.8222    1.1748 H   0  0  0  0  0  0  0  0  0  0  0  0
    3.1336   -2.0935   -0.1776 H   0  0  0  0  0  0  0  0  0  0  0  0
    1.3981   -1.8443   -0.4760 H   0  0  0  0  0  0  0  0  0  0  0  0
    3.2553    0.2170    0.7974 H   0  0  0  0  0  0  0  0  0  0  0  0
    1.5695    0.4767    0.3809 H   0  0  0  0  0  0  0  0  0  0  0  0
    3.8386   -0.1234   -1.5951 H   0  0  0  0  0  0  0  0  0  0  0  0
    1.5661   -0.7744   -2.4903 H   0  0  0  0  0  0  0  0  0  0  0  0
    2.4146    0.4498   -3.4098 H   0  0  0  0  0  0  0  0  0  0  0  0
    0.0857    0.9078   -1.4988 H   0  0  0  0  0  0  0  0  0  0  0  0
    0.1001    1.1014   -3.2459 H   0  0  0  0  0  0  0  0  0  0  0  0
    0.2320    3.2693   -1.9912 H   0  0  0  0  0  0  0  0  0  0  0  0
    1.5378    3.0236   -3.1430 H   0  0  0  0  0  0  0  0  0  0  0  0
    1.6752    2.6617   -0.1117 H   0  0  0  0  0  0  0  0  0  0  0  0
    1.6985    4.9865   -0.8886 H   0  0  0  0  0  0  0  0  0  0  0  0
    3.0082    4.6448   -2.0152 H   0  0  0  0  0  0  0  0  0  0  0  0
    4.5126    4.0738   -0.0907 H   0  0  0  0  0  0  0  0  0  0  0  0
    3.1874    4.3862    1.0337 H   0  0  0  0  0  0  0  0  0  0  0  0
    3.1154    6.7626    0.2405 H   0  0  0  0  0  0  0  0  0  0  0  0
    4.3885    6.4175   -0.9263 H   0  0  0  0  0  0  0  0  0  0  0  0
    5.9336    5.7684    0.9665 H   0  0  0  0  0  0  0  0  0  0  0  0
    4.6486    6.1661    2.1208 H   0  0  0  0  0  0  0  0  0  0  0  0
    4.8101    8.4141    1.6058 H   0  0  0  0  0  0  0  0  0  0  0  0
    7.6094    8.8260   -1.7292 H   0  0  0  0  0  0  0  0  0  0  0  0
    8.6921   11.4462   -2.5886 H   0  0  0  0  0  0  0  0  0  0  0  0
    7.2481   12.5052   -0.7889 H   0  0  0  0  0  0  0  0  0  0  0  0
    8.9229   12.0003   -0.5197 H   0  0  0  0  0  0  0  0  0  0  0  0
    7.9599   13.3813    1.3378 H   0  0  0  0  0  0  0  0  0  0  0  0
    8.6730   11.8435    1.8279 H   0  0  0  0  0  0  0  0  0  0  0  0
    5.6925   12.3531    1.3773 H   0  0  0  0  0  0  0  0  0  0  0  0
    6.4791   12.2112    2.9479 H   0  0  0  0  0  0  0  0  0  0  0  0
    5.3146   10.1685    2.0829 H   0  0  0  0  0  0  0  0  0  0  0  0
    6.9639    9.9020    2.6486 H   0  0  0  0  0  0  0  0  0  0  0  0
    4.0752    2.0474   -0.4420 H   0  0  0  0  0  0  0  0  0  0  0  0
    3.8871    2.2007   -2.1816 H   0  0  0  0  0  0  0  0  0  0  0  0
  1  2  1  0  0  0  0
  1 25  1  0  0  0  0
  1 26  1  0  0  0  0
  1 27  1  0  0  0  0
  2  3  1  0  0  0  0
  2 28  1  0  0  0  0
  2 29  1  0  0  0  0
  3  4  1  0  0  0  0
  3 24  1  0  0  0  0
  3 30  1  0  0  0  0
  4  5  1  0  0  0  0
  4 31  1  0  0  0  0
  4 32  1  0  0  0  0
  5  6  1  0  0  0  0
  5 33  1  0  0  0  0
  5 34  1  0  0  0  0
  6  7  1  0  0  0  0
  6 35  1  0  0  0  0
  6 36  1  0  0  0  0
  7  8  1  0  0  0  0
  7 24  1  0  0  0  0
  7 37  1  0  0  0  0
  8  9  1  0  0  0  0
  8 38  1  0  0  0  0
  8 39  1  0  0  0  0
  9 10  1  0  0  0  0
  9 40  1  0  0  0  0
  9 41  1  0  0  0  0
 10 11  1  0  0  0  0
 10 42  1  0  0  0  0
 10 43  1  0  0  0  0
 11 12  1  0  0  0  0
 11 44  1  0  0  0  0
 11 45  1  0  0  0  0
 12 13  1  0  0  0  0
 12 46  1  0  0  0  0
 13 14  2  0  0  0  0
 13 15  1  0  0  0  0
 15 16  2  0  0  0  0
 15 23  1  0  0  0  0
 16 17  1  0  0  0  0
 16 20  1  0  0  0  0
 17 18  1  0  0  0  0
 17 47  1  0  0  0  0
 18 19  2  0  0  0  0
 18 48  1  0  0  0  0
 20 21  1  0  0  0  0
 20 49  1  0  0  0  0
 20 50  1  0  0  0  0
 21 22  1  0  0  0  0
 21 51  1  0  0  0  0
 21 52  1  0  0  0  0
 22 23  1  0  0  0  0
 22 53  1  0  0  0  0
 22 54  1  0  0  0  0
 23 55  1  0  0  0  0
 23 56  1  0  0  0  0
 24 57  1  0  0  0  0
 24 58  1  0  0  0  0
M  END
$$$$
