
 OpenBabel04232216463D

 50 51  0  0  1  0  0  0  0  0999 V2000
    7.6131   -2.2865   -1.2506 C   0  0  0  0  0  0  0  0  0  0  0  0
    8.2114   -2.0828    0.1335 C   0  0  0  0  0  0  0  0  0  0  0  0
    7.0533   -2.0308    1.0593 C   0  0  0  0  0  0  0  0  0  0  0  0
    6.0904   -1.1112    1.3200 C   0  0  0  0  0  0  0  0  0  0  0  0
    5.8674    0.1915    0.5923 C   0  0  0  0  0  0  0  0  0  0  0  0
    4.5627    0.1657    0.0218 O   0  0  0  0  0  0  0  0  0  0  0  0
    5.2189   -1.2629    2.6068 C   0  0  3  0  0  0  0  0  0  0  0  0
    4.8646   -2.7231    2.9523 C   0  0  0  0  0  0  0  0  0  0  0  0
    5.8929   -0.4972    3.7733 C   0  0  0  0  0  0  0  0  0  0  0  0
    7.0506   -0.9368    4.3290 C   0  0  0  0  0  0  0  0  0  0  0  0
    8.2566   -0.7894    3.5089 C   0  0  0  0  0  0  0  0  0  0  0  0
    8.5711    0.5379    2.8284 C   0  0  0  0  0  0  0  0  0  0  0  0
    8.8989   -1.9441    3.1446 C   0  0  0  0  0  0  0  0  0  0  0  0
    9.8420   -1.9068    2.0544 C   0  0  0  0  0  0  0  0  0  0  0  0
   10.9809   -1.3626    2.5031 C   0  0  0  0  0  0  0  0  0  0  0  0
   12.0828   -0.8278    1.7919 C   0  0  0  0  0  0  0  0  0  0  0  0
   12.5948    0.4653    2.3817 C   0  0  0  0  0  0  0  0  0  0  0  0
   12.6990   -1.5805    0.8692 C   0  0  0  0  0  0  0  0  0  0  0  0
   14.2407   -1.5152    0.8778 C   0  0  0  0  0  0  0  0  0  0  0  0
   14.9103   -1.7611    2.2624 C   0  0  0  0  0  0  0  0  0  0  0  0
   12.0671   -2.4578   -0.0106 N   0  0  0  0  0  0  0  0  0  0  0  0
   10.7680   -2.5837   -0.1762 C   0  0  0  0  0  0  0  0  0  0  0  0
    9.5218   -2.1054    0.6112 C   0  0  0  0  0  0  0  0  0  0  0  0
    8.1888   -1.8569   -2.0694 H   0  0  0  0  0  0  0  0  0  0  0  0
    6.6203   -1.8054   -1.3219 H   0  0  0  0  0  0  0  0  0  0  0  0
    7.4091   -3.3480   -1.4313 H   0  0  0  0  0  0  0  0  0  0  0  0
    7.0786   -2.9144    1.6982 H   0  0  0  0  0  0  0  0  0  0  0  0
    6.6021    0.3776   -0.1972 H   0  0  0  0  0  0  0  0  0  0  0  0
    5.9023    1.0478    1.2714 H   0  0  0  0  0  0  0  0  0  0  0  0
    4.6186    0.6173   -0.8338 H   0  0  0  0  0  0  0  0  0  0  0  0
    4.2585   -0.7584    2.4293 H   0  0  0  0  0  0  0  0  0  0  0  0
    4.9641   -3.3852    2.0939 H   0  0  0  0  0  0  0  0  0  0  0  0
    3.8192   -2.7886    3.2747 H   0  0  0  0  0  0  0  0  0  0  0  0
    5.4764   -3.1408    3.7636 H   0  0  0  0  0  0  0  0  0  0  0  0
    5.8522    0.5752    3.5726 H   0  0  0  0  0  0  0  0  0  0  0  0
    7.0177   -1.9458    4.7446 H   0  0  0  0  0  0  0  0  0  0  0  0
    7.6762    1.0841    2.5246 H   0  0  0  0  0  0  0  0  0  0  0  0
    9.1324    0.4450    1.8901 H   0  0  0  0  0  0  0  0  0  0  0  0
    9.1569    1.1816    3.4853 H   0  0  0  0  0  0  0  0  0  0  0  0
    8.6475   -2.9241    3.5358 H   0  0  0  0  0  0  0  0  0  0  0  0
   11.0878   -1.2098    3.5807 H   0  0  0  0  0  0  0  0  0  0  0  0
   11.7558    1.1568    2.5367 H   0  0  0  0  0  0  0  0  0  0  0  0
   13.2825    0.9799    1.7036 H   0  0  0  0  0  0  0  0  0  0  0  0
   13.0780    0.3270    3.3526 H   0  0  0  0  0  0  0  0  0  0  0  0
   14.5594   -0.5278    0.5233 H   0  0  0  0  0  0  0  0  0  0  0  0
   14.6637   -2.2495    0.1856 H   0  0  0  0  0  0  0  0  0  0  0  0
   14.3925   -1.3017    3.1101 H   0  0  0  0  0  0  0  0  0  0  0  0
   15.9301   -1.3545    2.2753 H   0  0  0  0  0  0  0  0  0  0  0  0
   14.9797   -2.8294    2.4934 H   0  0  0  0  0  0  0  0  0  0  0  0
   10.4963   -3.2734   -0.9991 H   0  0  0  0  0  0  0  0  0  0  0  0
  1  2  1  0  0  0  0
  1 24  1  0  0  0  0
  1 25  1  0  0  0  0
  1 26  1  0  0  0  0
  2  3  1  0  0  0  0
  2 23  2  3  0  0  0
  3  4  2  3  0  0  0
  3 27  1  0  0  0  0
  4  5  1  0  0  0  0
  4  7  1  0  0  0  0
  5  6  1  0  0  0  0
  5 28  1  0  0  0  0
  5 29  1  0  0  0  0
  6 30  1  0  0  0  0
  7  8  1  0  0  0  0
  7  9  1  0  0  0  0
  7 31  1  0  0  0  0
  8 32  1  0  0  0  0
  8 33  1  0  0  0  0
  8 34  1  0  0  0  0
  9 10  2  3  0  0  0
  9 35  1  0  0  0  0
 10 11  1  0  0  0  0
 10 36  1  0  0  0  0
 11 12  1  0  0  0  0
 11 13  2  3  0  0  0
 12 37  1  0  0  0  0
 12 38  1  0  0  0  0
 12 39  1  0  0  0  0
 13 14  1  0  0  0  0
 13 40  1  0  0  0  0
 14 15  2  0  0  0  0
 14 23  1  0  0  0  0
 15 16  1  0  0  0  0
 15 41  1  0  0  0  0
 16 17  1  0  0  0  0
 16 18  2  0  0  0  0
 17 42  1  0  0  0  0
 17 43  1  0  0  0  0
 17 44  1  0  0  0  0
 18 19  1  0  0  0  0
 18 21  1  0  0  0  0
 19 20  1  0  0  0  0
 19 45  1  0  0  0  0
 19 46  1  0  0  0  0
 20 47  1  0  0  0  0
 20 48  1  0  0  0  0
 20 49  1  0  0  0  0
 21 22  2  0  0  0  0
 22 23  1  0  0  0  0
 22 50  1  0  0  0  0
M  END
$$$$
