
 OpenBabel04232216573D

239238  0  0  0  0  0  0  0  0999 V2000
   16.3879    2.7978   -2.4109 C   0  0  0  0  0  0  0  0  0  0  0  0
   15.8869    2.5933   -1.0578 N   0  0  0  0  0  0  0  0  0  0  0  0
   14.4424    2.5426   -1.0802 C   0  0  0  0  0  0  0  0  0  0  0  0
   14.0327    2.2947    0.2759 N   0  0  0  0  0  0  0  0  0  0  0  0
   12.5729    2.2852    0.3712 C   0  0  0  0  0  0  0  0  0  0  0  0
   12.1238    2.0342    1.8054 C   0  0  0  0  0  0  0  0  0  0  0  0
   10.6903    1.9966    1.8397 O   0  0  0  0  0  0  0  0  0  0  0  0
   10.2030    1.8180    3.1648 C   0  0  0  0  0  0  0  0  0  0  0  0
   10.5294    2.8653    4.0782 O   0  0  0  0  0  0  0  0  0  0  0  0
   10.0987    4.1394    3.6052 C   0  0  0  0  0  0  0  0  0  0  0  0
   10.6382    5.2107    4.5359 C   0  0  0  0  0  0  0  0  0  0  0  0
   12.1651    5.2214    4.5339 C   0  0  0  0  0  0  0  0  0  0  0  0
   12.6887    6.2985    5.4688 C   0  0  0  0  0  0  0  0  0  0  0  0
   14.2083    6.3031    5.4642 C   0  0  0  0  0  0  0  0  0  0  0  0
   14.7251    7.3794    6.4016 C   0  0  0  0  0  0  0  0  0  0  0  0
   16.2429    7.3867    6.3974 C   0  0  0  0  0  0  0  0  0  0  0  0
   16.7569    8.4636    7.3344 C   0  0  0  0  0  0  0  0  0  0  0  0
   18.2740    8.4751    7.3310 C   0  0  0  0  0  0  0  0  0  0  0  0
   18.7835    9.5517    8.2706 C   0  0  0  0  0  0  0  0  0  0  0  0
   20.3013    9.5593    8.2690 C   0  0  0  0  0  0  0  0  0  0  0  0
   20.8081   10.6368    9.2117 C   0  0  0  0  0  0  0  0  0  0  0  0
   22.3297   10.6413    9.2086 C   0  0  0  0  0  0  0  0  0  0  0  0
   22.8381   11.7165   10.1508 C   0  0  0  0  0  0  0  0  0  0  0  0
   24.3552   11.7217   10.1528 C   0  0  0  0  0  0  0  0  0  0  0  0
   24.8648   12.7958   11.0945 C   0  0  0  0  0  0  0  0  0  0  0  0
   26.3818   12.8018   11.0946 C   0  0  0  0  0  0  0  0  0  0  0  0
   26.8919   13.8760   12.0361 C   0  0  0  0  0  0  0  0  0  0  0  0
   28.4086   13.8823   12.0362 C   0  0  0  0  0  0  0  0  0  0  0  0
   28.9187   14.9564   12.9777 C   0  0  0  0  0  0  0  0  0  0  0  0
   30.4353   14.9627   12.9778 C   0  0  0  0  0  0  0  0  0  0  0  0
   30.9453   16.0368   13.9193 C   0  0  0  0  0  0  0  0  0  0  0  0
   32.4620   16.0431   13.9193 C   0  0  0  0  0  0  0  0  0  0  0  0
   32.9720   17.1173   14.8607 C   0  0  0  0  0  0  0  0  0  0  0  0
   34.4886   17.1248   14.8594 C   0  0  0  0  0  0  0  0  0  0  0  0
   34.9986   18.1989   15.8009 C   0  0  0  0  0  0  0  0  0  0  0  0
   36.5153   18.2051   15.8010 C   0  0  0  0  0  0  0  0  0  0  0  0
   37.0253   19.2780   16.7438 C   0  0  0  0  0  0  0  0  0  0  0  0
   38.5419   19.2829   16.7455 C   0  0  0  0  0  0  0  0  0  0  0  0
   39.0520   20.3570   17.6870 C   0  0  0  0  0  0  0  0  0  0  0  0
   40.5686   20.3606   17.6901 C   0  0  0  0  0  0  0  0  0  0  0  0
   41.0786   21.4360   18.6301 C   0  0  0  0  0  0  0  0  0  0  0  0
   42.5953   21.4396   18.6332 C   0  0  0  0  0  0  0  0  0  0  0  0
   43.1053   22.5150   19.5732 C   0  0  0  0  0  0  0  0  0  0  0  0
   44.6219   22.5186   19.5763 C   0  0  0  0  0  0  0  0  0  0  0  0
   45.1320   23.5941   20.5162 C   0  0  0  0  0  0  0  0  0  0  0  0
   46.6486   23.5977   20.5193 C   0  0  0  0  0  0  0  0  0  0  0  0
   47.1586   24.6731   21.4593 C   0  0  0  0  0  0  0  0  0  0  0  0
   48.6753   24.6766   21.4625 C   0  0  0  0  0  0  0  0  0  0  0  0
   49.1853   25.7521   22.4024 C   0  0  0  0  0  0  0  0  0  0  0  0
   50.7019   25.7545   22.4069 C   0  0  0  0  0  0  0  0  0  0  0  0
   51.2119   26.8299   23.3469 C   0  0  0  0  0  0  0  0  0  0  0  0
   52.7286   26.8334   23.3501 C   0  0  0  0  0  0  0  0  0  0  0  0
   53.2386   27.9075   24.2916 C   0  0  0  0  0  0  0  0  0  0  0  0
   54.7552   27.9097   24.2963 C   0  0  0  0  0  0  0  0  0  0  0  0
   55.2653   28.9826   25.2391 C   0  0  0  0  0  0  0  0  0  0  0  0
   56.7819   28.9836   25.2452 C   0  0  0  0  0  0  0  0  0  0  0  0
   57.2919   30.0577   26.1868 C   0  0  0  0  0  0  0  0  0  0  0  0
   58.8085   30.0598   26.1915 C   0  0  0  0  0  0  0  0  0  0  0  0
   59.3186   31.1339   27.1330 C   0  0  0  0  0  0  0  0  0  0  0  0
   60.8352   31.1349   27.1391 C   0  0  0  0  0  0  0  0  0  0  0  0
   61.3452   32.2090   28.0805 C   0  0  0  0  0  0  0  0  0  0  0  0
   62.8619   32.2100   28.0867 C   0  0  0  0  0  0  0  0  0  0  0  0
   63.3719   33.2841   29.0282 C   0  0  0  0  0  0  0  0  0  0  0  0
   64.8886   33.2850   29.0343 C   0  0  0  0  0  0  0  0  0  0  0  0
   65.3986   34.3591   29.9758 C   0  0  0  0  0  0  0  0  0  0  0  0
   66.9153   34.3601   29.9820 C   0  0  0  0  0  0  0  0  0  0  0  0
   67.4254   35.4342   30.9234 C   0  0  0  0  0  0  0  0  0  0  0  0
   68.9421   35.4352   30.9297 C   0  0  0  0  0  0  0  0  0  0  0  0
   69.4523   36.5093   31.8712 C   0  0  0  0  0  0  0  0  0  0  0  0
   70.9691   36.5092   31.8790 C   0  0  0  0  0  0  0  0  0  0  0  0
   71.4795   37.5835   32.8207 C   0  0  0  0  0  0  0  0  0  0  0  0
   72.9966   37.5839   32.8290 C   0  0  0  0  0  0  0  0  0  0  0  0
   73.5076   38.6583   33.7706 C   0  0  0  0  0  0  0  0  0  0  0  0
   75.0253   38.6588   33.7791 C   0  0  0  0  0  0  0  0  0  0  0  0
   75.5389   39.7332   34.7209 C   0  0  0  0  0  0  0  0  0  0  0  0
   77.0580   39.7328   34.7311 C   0  0  0  0  0  0  0  0  0  0  0  0
   77.5748   40.8074   35.6730 C   0  0  0  0  0  0  0  0  0  0  0  0
   79.0961   40.8102   35.6865 C   0  0  0  0  0  0  0  0  0  0  0  0
   79.6145   41.8879   36.6286 C   0  0  0  0  0  0  0  0  0  0  0  0
   81.1385   41.9002   36.6527 C   0  0  0  0  0  0  0  0  0  0  0  0
   81.6517   42.9753   37.5923 C   0  0  0  0  0  0  0  0  0  0  0  0
   17.4810    2.8155   -2.4065 H   0  0  0  0  0  0  0  0  0  0  0  0
   16.0338    3.7481   -2.8245 H   0  0  0  0  0  0  0  0  0  0  0  0
   16.0733    1.9846   -3.0745 H   0  0  0  0  0  0  0  0  0  0  0  0
   16.2064    3.3505   -0.4557 H   0  0  0  0  0  0  0  0  0  0  0  0
   14.0935    1.7289   -1.7241 H   0  0  0  0  0  0  0  0  0  0  0  0
   14.0346    3.4937   -1.4435 H   0  0  0  0  0  0  0  0  0  0  0  0
   14.4391    3.0319    0.8485 H   0  0  0  0  0  0  0  0  0  0  0  0
   12.1570    1.4989   -0.2692 H   0  0  0  0  0  0  0  0  0  0  0  0
   12.1446    3.2334    0.0211 H   0  0  0  0  0  0  0  0  0  0  0  0
   12.4889    2.8417    2.4496 H   0  0  0  0  0  0  0  0  0  0  0  0
   12.5154    1.0796    2.1724 H   0  0  0  0  0  0  0  0  0  0  0  0
   10.5818    0.8734    3.5703 H   0  0  0  0  0  0  0  0  0  0  0  0
    9.1120    1.7367    3.1188 H   0  0  0  0  0  0  0  0  0  0  0  0
    9.0061    4.1637    3.5880 H   0  0  0  0  0  0  0  0  0  0  0  0
   10.4733    4.3274    2.5920 H   0  0  0  0  0  0  0  0  0  0  0  0
   10.2826    5.0225    5.5554 H   0  0  0  0  0  0  0  0  0  0  0  0
   10.2602    6.1891    4.2195 H   0  0  0  0  0  0  0  0  0  0  0  0
   12.5375    5.4005    3.5171 H   0  0  0  0  0  0  0  0  0  0  0  0
   12.5565    4.2466    4.8505 H   0  0  0  0  0  0  0  0  0  0  0  0
   12.3221    6.1175    6.4864 H   0  0  0  0  0  0  0  0  0  0  0  0
   12.3124    7.2798    5.1559 H   0  0  0  0  0  0  0  0  0  0  0  0
   14.5800    6.4846    4.4481 H   0  0  0  0  0  0  0  0  0  0  0  0
   14.5883    5.3227    5.7777 H   0  0  0  0  0  0  0  0  0  0  0  0
   14.3554    7.1991    7.4188 H   0  0  0  0  0  0  0  0  0  0  0  0
   14.3465    8.3599    6.0876 H   0  0  0  0  0  0  0  0  0  0  0  0
   16.6133    7.5689    5.3808 H   0  0  0  0  0  0  0  0  0  0  0  0
   16.6230    6.4066    6.7108 H   0  0  0  0  0  0  0  0  0  0  0  0
   16.3876    8.2806    8.3510 H   0  0  0  0  0  0  0  0  0  0  0  0
   16.3762    9.4434    7.0207 H   0  0  0  0  0  0  0  0  0  0  0  0
   18.6445    8.6603    6.3153 H   0  0  0  0  0  0  0  0  0  0  0  0
   18.6561    7.4949    7.6427 H   0  0  0  0  0  0  0  0  0  0  0  0
   18.4119    9.3685    9.2863 H   0  0  0  0  0  0  0  0  0  0  0  0
   18.4032   10.5320    7.9582 H   0  0  0  0  0  0  0  0  0  0  0  0
   20.6732    9.7433    7.2543 H   0  0  0  0  0  0  0  0  0  0  0  0
   20.6802    8.5801    8.5820 H   0  0  0  0  0  0  0  0  0  0  0  0
   20.4382   10.4511   10.2245 H   0  0  0  0  0  0  0  0  0  0  0  0
   20.4344   11.6151    8.8920 H   0  0  0  0  0  0  0  0  0  0  0  0
   22.7024   10.8256    8.1937 H   0  0  0  0  0  0  0  0  0  0  0  0
   22.7068    9.6603    9.5216 H   0  0  0  0  0  0  0  0  0  0  0  0
   22.4633   11.5328   11.1653 H   0  0  0  0  0  0  0  0  0  0  0  0
   22.4608   12.6973    9.8381 H   0  0  0  0  0  0  0  0  0  0  0  0
   24.7303   11.9048    9.1384 H   0  0  0  0  0  0  0  0  0  0  0  0
   24.7321   10.7402   10.4661 H   0  0  0  0  0  0  0  0  0  0  0  0
   24.4916   12.6117   12.1095 H   0  0  0  0  0  0  0  0  0  0  0  0
   24.4871   13.7771   10.7824 H   0  0  0  0  0  0  0  0  0  0  0  0
   26.7554   12.9859   10.0797 H   0  0  0  0  0  0  0  0  0  0  0  0
   26.7600   11.8206   11.4067 H   0  0  0  0  0  0  0  0  0  0  0  0
   26.5185   13.6921   13.0511 H   0  0  0  0  0  0  0  0  0  0  0  0
   26.5138   14.8574   11.7240 H   0  0  0  0  0  0  0  0  0  0  0  0
   28.7821   14.0664   11.0213 H   0  0  0  0  0  0  0  0  0  0  0  0
   28.7868   12.9010   12.3483 H   0  0  0  0  0  0  0  0  0  0  0  0
   28.5452   14.7724   13.9926 H   0  0  0  0  0  0  0  0  0  0  0  0
   28.5405   15.9378   12.6656 H   0  0  0  0  0  0  0  0  0  0  0  0
   30.8087   15.1467   11.9629 H   0  0  0  0  0  0  0  0  0  0  0  0
   30.8135   13.9814   13.2898 H   0  0  0  0  0  0  0  0  0  0  0  0
   30.5719   15.8528   14.9342 H   0  0  0  0  0  0  0  0  0  0  0  0
   30.5671   17.0181   13.6073 H   0  0  0  0  0  0  0  0  0  0  0  0
   32.8353   16.2272   12.9043 H   0  0  0  0  0  0  0  0  0  0  0  0
   32.8402   15.0618   14.2313 H   0  0  0  0  0  0  0  0  0  0  0  0
   32.5996   16.9325   15.8759 H   0  0  0  0  0  0  0  0  0  0  0  0
   32.5928   18.0985   14.5495 H   0  0  0  0  0  0  0  0  0  0  0  0
   34.8610   17.3096   13.8442 H   0  0  0  0  0  0  0  0  0  0  0  0
   34.8678   16.1436   15.1706 H   0  0  0  0  0  0  0  0  0  0  0  0
   34.6252   18.0148   16.8158 H   0  0  0  0  0  0  0  0  0  0  0  0
   34.6205   19.1802   15.4889 H   0  0  0  0  0  0  0  0  0  0  0  0
   36.8887   18.3904   14.7863 H   0  0  0  0  0  0  0  0  0  0  0  0
   36.8934   17.2234   16.1118 H   0  0  0  0  0  0  0  0  0  0  0  0
   36.6508   19.0935   17.7583 H   0  0  0  0  0  0  0  0  0  0  0  0
   36.6482   20.2599   16.4323 H   0  0  0  0  0  0  0  0  0  0  0  0
   38.9167   19.4661   15.7309 H   0  0  0  0  0  0  0  0  0  0  0  0
   38.9188   18.3013   17.0584 H   0  0  0  0  0  0  0  0  0  0  0  0
   38.6763   20.1746   18.7014 H   0  0  0  0  0  0  0  0  0  0  0  0
   38.6761   21.3386   17.3732 H   0  0  0  0  0  0  0  0  0  0  0  0
   40.9444   20.5417   16.6755 H   0  0  0  0  0  0  0  0  0  0  0  0
   40.9444   19.3793   18.0051 H   0  0  0  0  0  0  0  0  0  0  0  0
   40.7028   21.2550   19.6447 H   0  0  0  0  0  0  0  0  0  0  0  0
   40.7029   22.4173   18.3150 H   0  0  0  0  0  0  0  0  0  0  0  0
   42.9710   21.6205   17.6186 H   0  0  0  0  0  0  0  0  0  0  0  0
   42.9711   20.4583   18.9484 H   0  0  0  0  0  0  0  0  0  0  0  0
   42.7295   22.3341   20.5878 H   0  0  0  0  0  0  0  0  0  0  0  0
   42.7295   23.4963   19.2580 H   0  0  0  0  0  0  0  0  0  0  0  0
   44.9977   22.6996   18.5617 H   0  0  0  0  0  0  0  0  0  0  0  0
   44.9977   21.5374   19.8914 H   0  0  0  0  0  0  0  0  0  0  0  0
   44.7562   23.4131   21.5308 H   0  0  0  0  0  0  0  0  0  0  0  0
   44.7561   24.5753   20.2011 H   0  0  0  0  0  0  0  0  0  0  0  0
   47.0244   23.7786   19.5047 H   0  0  0  0  0  0  0  0  0  0  0  0
   47.0244   22.6164   20.8345 H   0  0  0  0  0  0  0  0  0  0  0  0
   46.7828   24.4922   22.4739 H   0  0  0  0  0  0  0  0  0  0  0  0
   46.7829   25.6544   21.1441 H   0  0  0  0  0  0  0  0  0  0  0  0
   49.0512   24.8576   20.4479 H   0  0  0  0  0  0  0  0  0  0  0  0
   49.0509   23.6953   21.7776 H   0  0  0  0  0  0  0  0  0  0  0  0
   48.8085   25.5719   23.4168 H   0  0  0  0  0  0  0  0  0  0  0  0
   48.8105   26.7334   22.0865 H   0  0  0  0  0  0  0  0  0  0  0  0
   51.0788   25.9347   21.3925 H   0  0  0  0  0  0  0  0  0  0  0  0
   51.0767   24.7731   22.7228 H   0  0  0  0  0  0  0  0  0  0  0  0
   50.8360   26.6489   24.3614 H   0  0  0  0  0  0  0  0  0  0  0  0
   50.8363   27.8113   23.0318 H   0  0  0  0  0  0  0  0  0  0  0  0
   53.1045   27.0157   22.3358 H   0  0  0  0  0  0  0  0  0  0  0  0
   53.1043   25.8517   23.6640 H   0  0  0  0  0  0  0  0  0  0  0  0
   52.8617   27.7259   25.3056 H   0  0  0  0  0  0  0  0  0  0  0  0
   52.8639   28.8894   23.9770 H   0  0  0  0  0  0  0  0  0  0  0  0
   55.1322   28.0926   23.2824 H   0  0  0  0  0  0  0  0  0  0  0  0
   55.1298   26.9274   24.6096 H   0  0  0  0  0  0  0  0  0  0  0  0
   54.8873   28.8005   26.2528 H   0  0  0  0  0  0  0  0  0  0  0  0
   54.8916   29.9650   24.9250 H   0  0  0  0  0  0  0  0  0  0  0  0
   57.1600   29.1645   24.2314 H   0  0  0  0  0  0  0  0  0  0  0  0
   57.1554   28.0015   25.5606 H   0  0  0  0  0  0  0  0  0  0  0  0
   56.9148   29.8761   27.2008 H   0  0  0  0  0  0  0  0  0  0  0  0
   56.9174   31.0396   25.8722 H   0  0  0  0  0  0  0  0  0  0  0  0
   59.1856   30.2414   25.1775 H   0  0  0  0  0  0  0  0  0  0  0  0
   59.1830   29.0779   26.5062 H   0  0  0  0  0  0  0  0  0  0  0  0
   58.9405   30.9532   28.1468 H   0  0  0  0  0  0  0  0  0  0  0  0
   58.9450   32.1160   26.8175 H   0  0  0  0  0  0  0  0  0  0  0  0
   61.2133   31.3157   26.1253 H   0  0  0  0  0  0  0  0  0  0  0  0
   61.2087   30.1529   27.4545 H   0  0  0  0  0  0  0  0  0  0  0  0
   60.9671   32.0283   29.0943 H   0  0  0  0  0  0  0  0  0  0  0  0
   60.9718   33.1911   27.7651 H   0  0  0  0  0  0  0  0  0  0  0  0
   63.2400   32.3907   27.0729 H   0  0  0  0  0  0  0  0  0  0  0  0
   63.2353   31.2279   28.4021 H   0  0  0  0  0  0  0  0  0  0  0  0
   62.9938   33.1033   30.0420 H   0  0  0  0  0  0  0  0  0  0  0  0
   62.9985   34.2661   28.7127 H   0  0  0  0  0  0  0  0  0  0  0  0
   65.2667   33.4658   28.0206 H   0  0  0  0  0  0  0  0  0  0  0  0
   65.2620   32.3029   29.3498 H   0  0  0  0  0  0  0  0  0  0  0  0
   65.0205   34.1784   30.9896 H   0  0  0  0  0  0  0  0  0  0  0  0
   65.0251   35.3412   29.6604 H   0  0  0  0  0  0  0  0  0  0  0  0
   67.2934   34.5408   28.9682 H   0  0  0  0  0  0  0  0  0  0  0  0
   67.2887   33.3780   30.2974 H   0  0  0  0  0  0  0  0  0  0  0  0
   67.0471   35.2535   31.9372 H   0  0  0  0  0  0  0  0  0  0  0  0
   67.0519   36.4163   30.6080 H   0  0  0  0  0  0  0  0  0  0  0  0
   69.3203   35.6158   29.9160 H   0  0  0  0  0  0  0  0  0  0  0  0
   69.3153   34.4530   31.2452 H   0  0  0  0  0  0  0  0  0  0  0  0
   69.0729   36.3293   32.8847 H   0  0  0  0  0  0  0  0  0  0  0  0
   69.0798   37.4915   31.5549 H   0  0  0  0  0  0  0  0  0  0  0  0
   71.3482   36.6890   30.8655 H   0  0  0  0  0  0  0  0  0  0  0  0
   71.3412   35.5269   32.1952 H   0  0  0  0  0  0  0  0  0  0  0  0
   71.0998   37.4033   33.8340 H   0  0  0  0  0  0  0  0  0  0  0  0
   71.1068   38.5655   32.5042 H   0  0  0  0  0  0  0  0  0  0  0  0
   73.3755   37.7635   31.8153 H   0  0  0  0  0  0  0  0  0  0  0  0
   73.3685   36.6014   33.1451 H   0  0  0  0  0  0  0  0  0  0  0  0
   73.1277   38.4781   34.7838 H   0  0  0  0  0  0  0  0  0  0  0  0
   73.1346   39.6402   33.4541 H   0  0  0  0  0  0  0  0  0  0  0  0
   75.4040   38.8382   32.7652 H   0  0  0  0  0  0  0  0  0  0  0  0
   75.3965   37.6761   34.0949 H   0  0  0  0  0  0  0  0  0  0  0  0
   75.1578   39.5536   35.7336 H   0  0  0  0  0  0  0  0  0  0  0  0
   75.1669   40.7151   34.4036 H   0  0  0  0  0  0  0  0  0  0  0  0
   77.4363   39.9107   33.7169 H   0  0  0  0  0  0  0  0  0  0  0  0
   77.4271   38.7493   35.0471 H   0  0  0  0  0  0  0  0  0  0  0  0
   77.1921   40.6277   36.6853 H   0  0  0  0  0  0  0  0  0  0  0  0
   77.2016   41.7889   35.3554 H   0  0  0  0  0  0  0  0  0  0  0  0
   79.4744   40.9867   34.6721 H   0  0  0  0  0  0  0  0  0  0  0  0
   79.4645   39.8270   36.0038 H   0  0  0  0  0  0  0  0  0  0  0  0
   79.2276   41.7092   37.6394 H   0  0  0  0  0  0  0  0  0  0  0  0
   79.2392   42.8675   36.3078 H   0  0  0  0  0  0  0  0  0  0  0  0
   81.5253   42.0809   35.6431 H   0  0  0  0  0  0  0  0  0  0  0  0
   81.5134   40.9219   36.9753 H   0  0  0  0  0  0  0  0  0  0  0  0
   81.3076   43.9647   37.2745 H   0  0  0  0  0  0  0  0  0  0  0  0
   82.7444   42.9789   37.6050 H   0  0  0  0  0  0  0  0  0  0  0  0
   81.2958   42.8007   38.6128 H   0  0  0  0  0  0  0  0  0  0  0  0
  1  2  1  0  0  0  0
  1 82  1  0  0  0  0
  1 83  1  0  0  0  0
  1 84  1  0  0  0  0
  2  3  1  0  0  0  0
  2 85  1  0  0  0  0
  3  4  1  0  0  0  0
  3 86  1  0  0  0  0
  3 87  1  0  0  0  0
  4  5  1  0  0  0  0
  4 88  1  0  0  0  0
  5  6  1  0  0  0  0
  5 89  1  0  0  0  0
  5 90  1  0  0  0  0
  6  7  1  0  0  0  0
  6 91  1  0  0  0  0
  6 92  1  0  0  0  0
  7  8  1  0  0  0  0
  8  9  1  0  0  0  0
  8 93  1  0  0  0  0
  8 94  1  0  0  0  0
  9 10  1  0  0  0  0
 10 11  1  0  0  0  0
 10 95  1  0  0  0  0
 10 96  1  0  0  0  0
 11 12  1  0  0  0  0
 11 97  1  0  0  0  0
 11 98  1  0  0  0  0
 12 13  1  0  0  0  0
 12 99  1  0  0  0  0
 12100  1  0  0  0  0
 13 14  1  0  0  0  0
 13101  1  0  0  0  0
 13102  1  0  0  0  0
 14 15  1  0  0  0  0
 14103  1  0  0  0  0
 14104  1  0  0  0  0
 15 16  1  0  0  0  0
 15105  1  0  0  0  0
 15106  1  0  0  0  0
 16 17  1  0  0  0  0
 16107  1  0  0  0  0
 16108  1  0  0  0  0
 17 18  1  0  0  0  0
 17109  1  0  0  0  0
 17110  1  0  0  0  0
 18 19  1  0  0  0  0
 18111  1  0  0  0  0
 18112  1  0  0  0  0
 19 20  1  0  0  0  0
 19113  1  0  0  0  0
 19114  1  0  0  0  0
 20 21  1  0  0  0  0
 20115  1  0  0  0  0
 20116  1  0  0  0  0
 21 22  1  0  0  0  0
 21117  1  0  0  0  0
 21118  1  0  0  0  0
 22 23  1  0  0  0  0
 22119  1  0  0  0  0
 22120  1  0  0  0  0
 23 24  1  0  0  0  0
 23121  1  0  0  0  0
 23122  1  0  0  0  0
 24 25  1  0  0  0  0
 24123  1  0  0  0  0
 24124  1  0  0  0  0
 25 26  1  0  0  0  0
 25125  1  0  0  0  0
 25126  1  0  0  0  0
 26 27  1  0  0  0  0
 26127  1  0  0  0  0
 26128  1  0  0  0  0
 27 28  1  0  0  0  0
 27129  1  0  0  0  0
 27130  1  0  0  0  0
 28 29  1  0  0  0  0
 28131  1  0  0  0  0
 28132  1  0  0  0  0
 29 30  1  0  0  0  0
 29133  1  0  0  0  0
 29134  1  0  0  0  0
 30 31  1  0  0  0  0
 30135  1  0  0  0  0
 30136  1  0  0  0  0
 31 32  1  0  0  0  0
 31137  1  0  0  0  0
 31138  1  0  0  0  0
 32 33  1  0  0  0  0
 32139  1  0  0  0  0
 32140  1  0  0  0  0
 33 34  1  0  0  0  0
 33141  1  0  0  0  0
 33142  1  0  0  0  0
 34 35  1  0  0  0  0
 34143  1  0  0  0  0
 34144  1  0  0  0  0
 35 36  1  0  0  0  0
 35145  1  0  0  0  0
 35146  1  0  0  0  0
 36 37  1  0  0  0  0
 36147  1  0  0  0  0
 36148  1  0  0  0  0
 37 38  1  0  0  0  0
 37149  1  0  0  0  0
 37150  1  0  0  0  0
 38 39  1  0  0  0  0
 38151  1  0  0  0  0
 38152  1  0  0  0  0
 39 40  1  0  0  0  0
 39153  1  0  0  0  0
 39154  1  0  0  0  0
 40 41  1  0  0  0  0
 40155  1  0  0  0  0
 40156  1  0  0  0  0
 41 42  1  0  0  0  0
 41157  1  0  0  0  0
 41158  1  0  0  0  0
 42 43  1  0  0  0  0
 42159  1  0  0  0  0
 42160  1  0  0  0  0
 43 44  1  0  0  0  0
 43161  1  0  0  0  0
 43162  1  0  0  0  0
 44 45  1  0  0  0  0
 44163  1  0  0  0  0
 44164  1  0  0  0  0
 45 46  1  0  0  0  0
 45165  1  0  0  0  0
 45166  1  0  0  0  0
 46 47  1  0  0  0  0
 46167  1  0  0  0  0
 46168  1  0  0  0  0
 47 48  1  0  0  0  0
 47169  1  0  0  0  0
 47170  1  0  0  0  0
 48 49  1  0  0  0  0
 48171  1  0  0  0  0
 48172  1  0  0  0  0
 49 50  1  0  0  0  0
 49173  1  0  0  0  0
 49174  1  0  0  0  0
 50 51  1  0  0  0  0
 50175  1  0  0  0  0
 50176  1  0  0  0  0
 51 52  1  0  0  0  0
 51177  1  0  0  0  0
 51178  1  0  0  0  0
 52 53  1  0  0  0  0
 52179  1  0  0  0  0
 52180  1  0  0  0  0
 53 54  1  0  0  0  0
 53181  1  0  0  0  0
 53182  1  0  0  0  0
 54 55  1  0  0  0  0
 54183  1  0  0  0  0
 54184  1  0  0  0  0
 55 56  1  0  0  0  0
 55185  1  0  0  0  0
 55186  1  0  0  0  0
 56 57  1  0  0  0  0
 56187  1  0  0  0  0
 56188  1  0  0  0  0
 57 58  1  0  0  0  0
 57189  1  0  0  0  0
 57190  1  0  0  0  0
 58 59  1  0  0  0  0
 58191  1  0  0  0  0
 58192  1  0  0  0  0
 59 60  1  0  0  0  0
 59193  1  0  0  0  0
 59194  1  0  0  0  0
 60 61  1  0  0  0  0
 60195  1  0  0  0  0
 60196  1  0  0  0  0
 61 62  1  0  0  0  0
 61197  1  0  0  0  0
 61198  1  0  0  0  0
 62 63  1  0  0  0  0
 62199  1  0  0  0  0
 62200  1  0  0  0  0
 63 64  1  0  0  0  0
 63201  1  0  0  0  0
 63202  1  0  0  0  0
 64 65  1  0  0  0  0
 64203  1  0  0  0  0
 64204  1  0  0  0  0
 65 66  1  0  0  0  0
 65205  1  0  0  0  0
 65206  1  0  0  0  0
 66 67  1  0  0  0  0
 66207  1  0  0  0  0
 66208  1  0  0  0  0
 67 68  1  0  0  0  0
 67209  1  0  0  0  0
 67210  1  0  0  0  0
 68 69  1  0  0  0  0
 68211  1  0  0  0  0
 68212  1  0  0  0  0
 69 70  1  0  0  0  0
 69213  1  0  0  0  0
 69214  1  0  0  0  0
 70 71  1  0  0  0  0
 70215  1  0  0  0  0
 70216  1  0  0  0  0
 71 72  1  0  0  0  0
 71217  1  0  0  0  0
 71218  1  0  0  0  0
 72 73  1  0  0  0  0
 72219  1  0  0  0  0
 72220  1  0  0  0  0
 73 74  1  0  0  0  0
 73221  1  0  0  0  0
 73222  1  0  0  0  0
 74 75  1  0  0  0  0
 74223  1  0  0  0  0
 74224  1  0  0  0  0
 75 76  1  0  0  0  0
 75225  1  0  0  0  0
 75226  1  0  0  0  0
 76 77  1  0  0  0  0
 76227  1  0  0  0  0
 76228  1  0  0  0  0
 77 78  1  0  0  0  0
 77229  1  0  0  0  0
 77230  1  0  0  0  0
 78 79  1  0  0  0  0
 78231  1  0  0  0  0
 78232  1  0  0  0  0
 79 80  1  0  0  0  0
 79233  1  0  0  0  0
 79234  1  0  0  0  0
 80 81  1  0  0  0  0
 80235  1  0  0  0  0
 80236  1  0  0  0  0
 81237  1  0  0  0  0
 81238  1  0  0  0  0
 81239  1  0  0  0  0
M  END
$$$$
