
 OpenBabel04232216473D

100100  0  0  0  0  0  0  0  0999 V2000
   13.9664    4.5360   -3.0127 C   0  0  0  0  0  0  0  0  0  0  0  0
   16.0796    5.7829   -3.1258 C   0  0  0  0  0  0  0  0  0  0  0  0
   13.7481    4.7810   -2.2283 C   0  0  0  0  0  0  0  0  0  0  0  0
   11.6717    4.0459   -1.7324 C   0  0  0  0  0  0  0  0  0  0  0  0
    9.3051    3.4695   -1.7852 C   0  0  0  0  0  0  0  0  0  0  0  0
    6.9025    3.2214   -2.0026 C   0  0  0  0  0  0  0  0  0  0  0  0
    8.4684    2.0077   -2.2729 C   0  0  0  0  0  0  0  0  0  0  0  0
    8.4173    2.8484   -3.4271 C   0  0  0  0  0  0  0  0  0  0  0  0
    9.8476    2.8260   -3.6794 C   0  0  0  0  0  0  0  0  0  0  0  0
    9.6824    4.5033   -3.9488 C   0  0  0  0  0  0  0  0  0  0  0  0
   10.9941    4.8951   -4.0589 C   0  0  0  0  0  0  0  0  0  0  0  0
   11.7354    5.8034   -4.8402 C   0  0  0  0  0  0  0  0  0  0  0  0
   13.0580    5.5679   -4.4251 C   0  0  0  0  0  0  0  0  0  0  0  0
   14.0446    5.9416   -5.1180 C   0  0  0  0  0  0  0  0  0  0  0  0
   14.8854    6.7950   -5.5093 C   0  0  0  0  0  0  0  0  0  0  0  0
   16.1529    6.7032   -5.5328 C   0  0  0  0  0  0  0  0  0  0  0  0
   17.4187    6.9262   -5.6434 C   0  0  0  0  0  0  0  0  0  0  0  0
   18.4595    7.4832   -6.2437 C   0  0  0  0  0  0  0  0  0  0  0  0
   19.6065    6.7162   -5.8642 C   0  0  0  0  0  0  0  0  0  0  0  0
   20.3086    7.7943   -6.7815 C   0  0  0  0  0  0  0  0  0  0  0  0
   21.8410    7.0730   -6.4508 C   0  0  0  0  0  0  0  0  0  0  0  0
   22.2228    8.5271   -7.4859 C   0  0  0  0  0  0  0  0  0  0  0  0
   23.8510    7.8846   -7.1220 C   0  0  0  0  0  0  0  0  0  0  0  0
   24.5262    9.2233   -8.1755 C   0  0  0  0  0  0  0  0  0  0  0  0
   26.2922    8.7907   -7.8625 C   0  0  0  0  0  0  0  0  0  0  0  0
   26.8375   10.1967   -8.9910 C   0  0  0  0  0  0  0  0  0  0  0  0
   28.5520    9.6107   -8.5524 C   0  0  0  0  0  0  0  0  0  0  0  0
   29.0732   10.9000   -9.7351 C   0  0  0  0  0  0  0  0  0  0  0  0
   30.6961   10.0231   -8.7890 C   0  0  0  0  0  0  0  0  0  0  0  0
   31.8355   11.0487   -8.9943 C   0  0  0  0  0  0  0  0  0  0  0  0
   33.2391   10.8944   -8.9222 C   0  0  0  0  0  0  0  0  0  0  0  0
   31.2366   11.7056   -9.1351 C   0  0  0  0  0  0  0  0  0  0  0  0
   29.4347   11.4849   -8.0491 C   0  0  0  0  0  0  0  0  0  0  0  0
   27.3348   10.6399   -6.9759 C   0  0  0  0  0  0  0  0  0  0  0  0
   25.1606    9.8357   -6.1941 C   0  0  0  0  0  0  0  0  0  0  0  0
   22.9260    8.8015   -5.2924 C   0  0  0  0  0  0  0  0  0  0  0  0
   20.7756    7.6850   -4.6156 C   0  0  0  0  0  0  0  0  0  0  0  0
   18.3251    6.5759   -3.7935 C   0  0  0  0  0  0  0  0  0  0  0  0
   12.2622    4.4614   -3.1081 H   0  0  0  0  0  0  0  0  0  0  0  0
   12.2697    4.7181   -2.9183 H   0  0  0  0  0  0  0  0  0  0  0  0
   12.3736    4.0560   -3.2451 H   0  0  0  0  0  0  0  0  0  0  0  0
   12.5857    3.6561   -1.7969 H   0  0  0  0  0  0  0  0  0  0  0  0
   10.3617    2.9985   -1.3380 H   0  0  0  0  0  0  0  0  0  0  0  0
    5.1696    2.8132   -1.9976 H   0  0  0  0  0  0  0  0  0  0  0  0
    5.5933    2.8807   -3.1095 H   0  0  0  0  0  0  0  0  0  0  0  0
    5.4110    3.9402   -2.0007 H   0  0  0  0  0  0  0  0  0  0  0  0
    8.1783    1.1834   -1.3303 H   0  0  0  0  0  0  0  0  0  0  0  0
    7.4003    3.7755   -3.3554 H   0  0  0  0  0  0  0  0  0  0  0  0
   10.9243    2.1923   -2.9341 H   0  0  0  0  0  0  0  0  0  0  0  0
    9.2503    5.1206   -3.0716 H   0  0  0  0  0  0  0  0  0  0  0  0
    9.2630    4.1402   -4.8512 H   0  0  0  0  0  0  0  0  0  0  0  0
   11.6019    3.4785   -4.2474 H   0  0  0  0  0  0  0  0  0  0  0  0
   11.3468    5.6719   -2.6991 H   0  0  0  0  0  0  0  0  0  0  0  0
   11.5570    6.2566   -3.8883 H   0  0  0  0  0  0  0  0  0  0  0  0
   11.6384    4.8230   -5.3141 H   0  0  0  0  0  0  0  0  0  0  0  0
   13.5860    4.3936   -4.7934 H   0  0  0  0  0  0  0  0  0  0  0  0
   13.5337    6.2229   -3.2517 H   0  0  0  0  0  0  0  0  0  0  0  0
   13.7552    6.8337   -4.4860 H   0  0  0  0  0  0  0  0  0  0  0  0
   13.7195    5.5051   -5.9967 H   0  0  0  0  0  0  0  0  0  0  0  0
   15.2585    5.5016   -5.5134 H   0  0  0  0  0  0  0  0  0  0  0  0
   15.1656    6.7888   -4.3908 H   0  0  0  0  0  0  0  0  0  0  0  0
   16.0755    7.6713   -5.0182 H   0  0  0  0  0  0  0  0  0  0  0  0
   16.0465    6.3352   -6.5161 H   0  0  0  0  0  0  0  0  0  0  0  0
   17.7466    5.6669   -5.8170 H   0  0  0  0  0  0  0  0  0  0  0  0
   17.5229    7.9003   -4.5931 H   0  0  0  0  0  0  0  0  0  0  0  0
   18.3950    8.4391   -5.7473 H   0  0  0  0  0  0  0  0  0  0  0  0
   18.2874    7.1907   -7.2126 H   0  0  0  0  0  0  0  0  0  0  0  0
   20.1409    5.8443   -6.1638 H   0  0  0  0  0  0  0  0  0  0  0  0
   19.8179    6.6079   -4.5816 H   0  0  0  0  0  0  0  0  0  0  0  0
   20.2816    9.0625   -6.3638 H   0  0  0  0  0  0  0  0  0  0  0  0
   20.3205    7.7475   -7.8772 H   0  0  0  0  0  0  0  0  0  0  0  0
   22.3911    6.3615   -6.9999 H   0  0  0  0  0  0  0  0  0  0  0  0
   22.4656    7.2857   -5.1750 H   0  0  0  0  0  0  0  0  0  0  0  0
   22.2325    9.8471   -7.0860 H   0  0  0  0  0  0  0  0  0  0  0  0
   22.3918    8.6993   -8.5166 H   0  0  0  0  0  0  0  0  0  0  0  0
   24.6259    7.2750   -7.4219 H   0  0  0  0  0  0  0  0  0  0  0  0
   24.5280    8.0391   -5.8743 H   0  0  0  0  0  0  0  0  0  0  0  0
   24.4806   10.5707   -7.8304 H   0  0  0  0  0  0  0  0  0  0  0  0
   24.8191    9.3709   -9.1704 H   0  0  0  0  0  0  0  0  0  0  0  0
   27.0545    8.1507   -8.2288 H   0  0  0  0  0  0  0  0  0  0  0  0
   26.9850    9.0327   -6.6132 H   0  0  0  0  0  0  0  0  0  0  0  0
   26.8206   11.6048   -8.5993 H   0  0  0  0  0  0  0  0  0  0  0  0
   27.1687   10.1875   -9.9833 H   0  0  0  0  0  0  0  0  0  0  0  0
   29.2527    8.8822   -8.8945 H   0  0  0  0  0  0  0  0  0  0  0  0
   29.2126    9.9572   -7.3107 H   0  0  0  0  0  0  0  0  0  0  0  0
   28.8797   12.3985   -9.3318 H   0  0  0  0  0  0  0  0  0  0  0  0
   29.4764   11.0271  -10.6759 H   0  0  0  0  0  0  0  0  0  0  0  0
   31.3394    9.6363   -9.5233 H   0  0  0  0  0  0  0  0  0  0  0  0
   31.2806   10.7631   -7.7145 H   0  0  0  0  0  0  0  0  0  0  0  0
   31.6916   12.4977   -8.0795 H   0  0  0  0  0  0  0  0  0  0  0  0
   31.6276   11.0570  -10.5823 H   0  0  0  0  0  0  0  0  0  0  0  0
   33.7704   10.6188   -9.9474 H   0  0  0  0  0  0  0  0  0  0  0  0
   33.8189   11.7556   -8.4224 H   0  0  0  0  0  0  0  0  0  0  0  0
   32.6168   12.2392  -10.1779 H   0  0  0  0  0  0  0  0  0  0  0  0
   30.7011   12.1916   -9.1406 H   0  0  0  0  0  0  0  0  0  0  0  0
   28.6147   11.2592   -7.9775 H   0  0  0  0  0  0  0  0  0  0  0  0
   26.5329   10.3224   -7.2148 H   0  0  0  0  0  0  0  0  0  0  0  0
   24.0341    9.3649   -6.3955 H   0  0  0  0  0  0  0  0  0  0  0  0
   21.6186    8.5369   -5.7028 H   0  0  0  0  0  0  0  0  0  0  0  0
   17.3384    5.5546   -4.2820 H   0  0  0  0  0  0  0  0  0  0  0  0
  1  2  1  0  0  0  0
  1 39  1  0  0  0  0
  1 40  1  0  0  0  0
  1 41  1  0  0  0  0
  2  3  1  0  0  0  0
  2 38  2  3  0  0  0
  3  4  2  3  0  0  0
  3 42  1  0  0  0  0
  4  5  1  0  0  0  0
  4 43  1  0  0  0  0
  5  6  1  0  0  0  0
  5  7  2  3  0  0  0
  6 44  1  0  0  0  0
  6 45  1  0  0  0  0
  6 46  1  0  0  0  0
  7  8  1  0  0  0  0
  7 47  1  0  0  0  0
  8  9  2  3  0  0  0
  8 48  1  0  0  0  0
  9 10  1  0  0  0  0
  9 49  1  0  0  0  0
 10 11  1  0  0  0  0
 10 50  1  0  0  0  0
 10 51  1  0  0  0  0
 11 12  1  0  0  0  0
 11 52  1  0  0  0  0
 11 53  1  0  0  0  0
 12 13  1  0  0  0  0
 12 54  1  0  0  0  0
 12 55  1  0  0  0  0
 13 14  1  0  0  0  0
 13 56  1  0  0  0  0
 13 57  1  0  0  0  0
 14 15  1  0  0  0  0
 14 58  1  0  0  0  0
 14 59  1  0  0  0  0
 15 16  1  0  0  0  0
 15 60  1  0  0  0  0
 15 61  1  0  0  0  0
 16 17  1  0  0  0  0
 16 62  1  0  0  0  0
 16 63  1  0  0  0  0
 17 18  1  0  0  0  0
 17 64  1  0  0  0  0
 17 65  1  0  0  0  0
 18 19  1  0  0  0  0
 18 66  1  0  0  0  0
 18 67  1  0  0  0  0
 19 20  1  0  0  0  0
 19 68  1  0  0  0  0
 19 69  1  0  0  0  0
 20 21  1  0  0  0  0
 20 70  1  0  0  0  0
 20 71  1  0  0  0  0
 21 22  1  0  0  0  0
 21 72  1  0  0  0  0
 21 73  1  0  0  0  0
 22 23  1  0  0  0  0
 22 74  1  0  0  0  0
 22 75  1  0  0  0  0
 23 24  1  0  0  0  0
 23 76  1  0  0  0  0
 23 77  1  0  0  0  0
 24 25  1  0  0  0  0
 24 78  1  0  0  0  0
 24 79  1  0  0  0  0
 25 26  1  0  0  0  0
 25 80  1  0  0  0  0
 25 81  1  0  0  0  0
 26 27  1  0  0  0  0
 26 82  1  0  0  0  0
 26 83  1  0  0  0  0
 27 28  1  0  0  0  0
 27 84  1  0  0  0  0
 27 85  1  0  0  0  0
 28 29  1  0  0  0  0
 28 86  1  0  0  0  0
 28 87  1  0  0  0  0
 29 30  1  0  0  0  0
 29 88  1  0  0  0  0
 29 89  1  0  0  0  0
 30 31  1  0  0  0  0
 30 90  1  0  0  0  0
 30 91  1  0  0  0  0
 31 32  1  0  0  0  0
 31 92  1  0  0  0  0
 31 93  1  0  0  0  0
 32 33  2  3  0  0  0
 32 94  1  0  0  0  0
 33 34  1  0  0  0  0
 33 95  1  0  0  0  0
 34 35  2  3  0  0  0
 34 96  1  0  0  0  0
 35 36  1  0  0  0  0
 35 97  1  0  0  0  0
 36 37  2  3  0  0  0
 36 98  1  0  0  0  0
 37 38  1  0  0  0  0
 37 99  1  0  0  0  0
 38100  1  0  0  0  0
M  END
$$$$
