
 OpenBabel04232216473D

 48 49  0  0  0  0  0  0  0  0999 V2000
    4.9966    3.0542    0.1459 C   0  0  0  0  0  0  0  0  0  0  0  0
    5.9832    2.6574   -0.9627 C   0  0  0  0  0  0  0  0  0  0  0  0
    5.5247    1.4981   -1.5318 C   0  0  0  0  0  0  0  0  0  0  0  0
    6.0621    0.1303   -1.2718 C   0  0  0  0  0  0  0  0  0  0  0  0
    6.0452   -0.8555   -2.3732 C   0  0  0  0  0  0  0  0  0  0  0  0
    7.0856   -0.9078   -3.2330 C   0  0  0  0  0  0  0  0  0  0  0  0
    7.6726    0.2479   -3.9097 C   0  0  0  0  0  0  0  0  0  0  0  0
    8.9844    0.6035   -3.8909 C   0  0  0  0  0  0  0  0  0  0  0  0
   10.0393    0.0630   -2.8704 C   0  0  0  0  0  0  0  0  0  0  0  0
    9.5163    0.0468   -1.4303 C   0  0  0  0  0  0  0  0  0  0  0  0
   10.3754   -0.2750   -0.1921 C   0  0  0  0  0  0  0  0  0  0  0  0
    9.3371   -0.2599    0.9250 C   0  0  0  0  0  0  0  0  0  0  0  0
    8.8208   -1.3574    1.5116 C   0  0  0  0  0  0  0  0  0  0  0  0
    7.3964   -1.4857    1.8067 C   0  0  0  0  0  0  0  0  0  0  0  0
    6.4065   -1.3328    0.8780 C   0  0  0  0  0  0  0  0  0  0  0  0
    6.2708   -0.1522    0.0390 C   0  0  0  0  0  0  0  0  0  0  0  0
    9.3545    1.7934   -4.6803 C   0  0  0  0  0  0  0  0  0  0  0  0
   10.5921    2.3344   -4.7181 C   0  0  0  0  0  0  0  0  0  0  0  0
   10.5914    3.6674   -4.1052 C   0  0  0  0  0  0  0  0  0  0  0  0
   10.4815    3.6739   -2.7813 C   0  0  0  0  0  0  0  0  0  0  0  0
    9.3209    4.2415   -2.0208 C   0  0  0  0  0  0  0  0  0  0  0  0
    8.1256    3.6050   -1.9040 C   0  0  0  0  0  0  0  0  0  0  0  0
    7.3469    3.0691   -0.8153 N   0  0  0  0  0  0  0  0  0  0  0  0
    4.1791    3.6647   -0.2386 H   0  0  0  0  0  0  0  0  0  0  0  0
    5.4917    3.5362    0.9907 H   0  0  0  0  0  0  0  0  0  0  0  0
    4.5139    2.1592    0.5883 H   0  0  0  0  0  0  0  0  0  0  0  0
    4.4360    1.3956   -1.6375 H   0  0  0  0  0  0  0  0  0  0  0  0
    5.1000   -0.6436   -2.9043 H   0  0  0  0  0  0  0  0  0  0  0  0
    7.8297   -1.6684   -3.0205 H   0  0  0  0  0  0  0  0  0  0  0  0
    6.9535    0.8451   -4.4847 H   0  0  0  0  0  0  0  0  0  0  0  0
   10.9153    0.7128   -2.8323 H   0  0  0  0  0  0  0  0  0  0  0  0
   10.3854   -0.9151   -3.1988 H   0  0  0  0  0  0  0  0  0  0  0  0
    8.6864   -0.6519   -1.3867 H   0  0  0  0  0  0  0  0  0  0  0  0
    9.1281    1.0446   -1.2535 H   0  0  0  0  0  0  0  0  0  0  0  0
   11.1252    0.5002   -0.0038 H   0  0  0  0  0  0  0  0  0  0  0  0
   10.8712   -1.2439   -0.2866 H   0  0  0  0  0  0  0  0  0  0  0  0
    8.7282    0.6361    0.9459 H   0  0  0  0  0  0  0  0  0  0  0  0
    9.3938   -2.2885    1.5777 H   0  0  0  0  0  0  0  0  0  0  0  0
    7.1771   -1.8899    2.7948 H   0  0  0  0  0  0  0  0  0  0  0  0
    5.4436   -1.7137    1.2052 H   0  0  0  0  0  0  0  0  0  0  0  0
    6.1802    0.6729    0.7409 H   0  0  0  0  0  0  0  0  0  0  0  0
    8.5188    2.4862   -4.8425 H   0  0  0  0  0  0  0  0  0  0  0  0
   11.4830    1.7241   -4.5817 H   0  0  0  0  0  0  0  0  0  0  0  0
   10.1572    4.4464   -4.7402 H   0  0  0  0  0  0  0  0  0  0  0  0
   10.9225    2.8473   -2.2095 H   0  0  0  0  0  0  0  0  0  0  0  0
    9.4243    5.2582   -1.7161 H   0  0  0  0  0  0  0  0  0  0  0  0
    8.1107    2.8010   -2.6193 H   0  0  0  0  0  0  0  0  0  0  0  0
    7.7981    2.1618   -0.6602 H   0  0  0  0  0  0  0  0  0  0  0  0
  1  2  1  0  0  0  0
  1 24  1  0  0  0  0
  1 25  1  0  0  0  0
  1 26  1  0  0  0  0
  2  3  2  3  0  0  0
  2 23  1  0  0  0  0
  3  4  1  0  0  0  0
  3 27  1  0  0  0  0
  4  5  1  0  0  0  0
  4 16  2  3  0  0  0
  5  6  2  3  0  0  0
  5 28  1  0  0  0  0
  6  7  1  0  0  0  0
  6 29  1  0  0  0  0
  7  8  2  3  0  0  0
  7 30  1  0  0  0  0
  8  9  1  0  0  0  0
  8 17  1  0  0  0  0
  9 10  1  0  0  0  0
  9 31  1  0  0  0  0
  9 32  1  0  0  0  0
 10 11  1  0  0  0  0
 10 33  1  0  0  0  0
 10 34  1  0  0  0  0
 11 12  1  0  0  0  0
 11 35  1  0  0  0  0
 11 36  1  0  0  0  0
 12 13  2  3  0  0  0
 12 37  1  0  0  0  0
 13 14  1  0  0  0  0
 13 38  1  0  0  0  0
 14 15  2  3  0  0  0
 14 39  1  0  0  0  0
 15 16  1  0  0  0  0
 15 40  1  0  0  0  0
 16 41  1  0  0  0  0
 17 18  2  3  0  0  0
 17 42  1  0  0  0  0
 18 19  1  0  0  0  0
 18 43  1  0  0  0  0
 19 20  2  3  0  0  0
 19 44  1  0  0  0  0
 20 21  1  0  0  0  0
 20 45  1  0  0  0  0
 21 22  2  3  0  0  0
 21 46  1  0  0  0  0
 22 23  1  0  0  0  0
 22 47  1  0  0  0  0
 23 48  1  0  0  0  0
M  END
$$$$
