
 OpenBabel04232216393D

 23 23  0  0  0  0  0  0  0  0999 V2000
    0.8569   -0.0360   -0.1615 C   0  0  0  0  0  0  0  0  0  0  0  0
    2.1860   -0.1192    0.0371 C   0  0  0  0  0  0  0  0  0  0  0  0
    2.7551   -1.3795    0.4917 C   0  0  0  0  0  0  0  0  0  0  0  0
    3.8225   -1.6383    1.2621 C   0  0  0  0  0  0  0  0  0  0  0  0
    4.7760   -0.7936    1.9531 C   0  0  0  0  0  0  0  0  0  0  0  0
    4.6605    0.4812    2.3733 C   0  0  0  0  0  0  0  0  0  0  0  0
    5.7595    1.1204    3.1879 C   0  0  0  0  0  0  0  0  0  0  0  0
    3.5573    1.2951    2.1547 N   0  0  0  0  0  0  0  0  0  0  0  0
    3.4434    1.9819    0.8601 C   0  0  0  0  0  0  0  0  0  0  0  0
    3.1089    1.0340   -0.3001 C   0  0  0  0  0  0  0  0  0  0  0  0
    0.1929   -0.8677    0.0669 H   0  0  0  0  0  0  0  0  0  0  0  0
    0.3902    0.8746   -0.5156 H   0  0  0  0  0  0  0  0  0  0  0  0
    2.1985   -2.2574    0.1553 H   0  0  0  0  0  0  0  0  0  0  0  0
    4.0355   -2.6975    1.4280 H   0  0  0  0  0  0  0  0  0  0  0  0
    5.6914   -1.3255    2.2175 H   0  0  0  0  0  0  0  0  0  0  0  0
    6.6127    0.4496    3.3411 H   0  0  0  0  0  0  0  0  0  0  0  0
    5.3763    1.4020    4.1739 H   0  0  0  0  0  0  0  0  0  0  0  0
    6.1259    2.0266    2.6966 H   0  0  0  0  0  0  0  0  0  0  0  0
    2.7140    0.7260    2.2636 H   0  0  0  0  0  0  0  0  0  0  0  0
    4.3756    2.5157    0.6321 H   0  0  0  0  0  0  0  0  0  0  0  0
    2.6625    2.7451    0.9490 H   0  0  0  0  0  0  0  0  0  0  0  0
    4.0337    0.6362   -0.7373 H   0  0  0  0  0  0  0  0  0  0  0  0
    2.6628    1.6349   -1.1062 H   0  0  0  0  0  0  0  0  0  0  0  0
  1  2  2  0  0  0  0
  1 11  1  0  0  0  0
  1 12  1  0  0  0  0
  2  3  1  0  0  0  0
  2 10  1  0  0  0  0
  3  4  2  0  0  0  0
  3 13  1  0  0  0  0
  4  5  1  0  0  0  0
  4 14  1  0  0  0  0
  5  6  2  0  0  0  0
  5 15  1  0  0  0  0
  6  7  1  0  0  0  0
  6  8  1  0  0  0  0
  7 16  1  0  0  0  0
  7 17  1  0  0  0  0
  7 18  1  0  0  0  0
  8  9  1  0  0  0  0
  8 19  1  0  0  0  0
  9 10  1  0  0  0  0
  9 20  1  0  0  0  0
  9 21  1  0  0  0  0
 10 22  1  0  0  0  0
 10 23  1  0  0  0  0
M  END
$$$$
