
 OpenBabel04232216573D

167166  0  0  0  0  0  0  0  0999 V2000
   16.0849  -24.3475   -6.6470 C   0  0  0  0  0  0  0  0  0  0  0  0
   17.5006  -24.4451   -6.7715 O   0  0  0  0  0  0  0  0  0  0  0  0
   18.0061  -25.3385   -5.7797 C   0  0  0  0  0  0  0  0  0  0  0  0
   19.5138  -25.4424   -5.9001 C   0  0  0  0  0  0  0  0  0  0  0  0
   20.1569  -24.0735   -5.6917 C   0  0  0  0  0  0  0  0  0  0  0  0
   21.5877  -24.2353   -5.7909 N   0  0  0  0  0  0  0  0  0  0  0  0
   22.1899  -22.9552   -5.5779 N   0  0  0  0  0  0  0  0  0  0  0  0
   23.6090  -23.0841   -5.6915 N   0  0  0  0  0  0  0  0  0  0  0  0
   23.9746  -23.5490   -7.0028 N   0  0  0  0  0  0  0  0  0  0  0  0
   23.4983  -22.6614   -8.0040 N   0  0  0  0  0  0  0  0  0  0  0  0
   24.0822  -21.3847   -7.8301 N   0  0  0  0  0  0  0  0  0  0  0  0
   25.4983  -21.4762   -7.9074 N   0  0  0  0  0  0  0  0  0  0  0  0
   25.8619  -21.9978   -9.1967 N   0  0  0  0  0  0  0  0  0  0  0  0
   25.3790  -21.1000  -10.2311 N   0  0  0  0  0  0  0  0  0  0  0  0
   25.9512  -19.7908  -10.0559 N   0  0  0  0  0  0  0  0  0  0  0  0
   27.3627  -19.8835  -10.1252 N   0  0  0  0  0  0  0  0  0  0  0  0
   27.7598  -20.3920  -11.3911 N   0  0  0  0  0  0  0  0  0  0  0  0
   27.2534  -19.5507  -12.4088 N   0  0  0  0  0  0  0  0  0  0  0  0
   27.8223  -18.2393  -12.2585 N   0  0  0  0  0  0  0  0  0  0  0  0
   29.2744  -18.2916  -12.3269 N   0  0  0  0  0  0  0  0  0  0  0  0
   29.6571  -18.8512  -13.5884 N   0  0  0  0  0  0  0  0  0  0  0  0
   29.1515  -17.9950  -14.6241 N   0  0  0  0  0  0  0  0  0  0  0  0
   29.6676  -16.6838  -14.4287 N   0  0  0  0  0  0  0  0  0  0  0  0
   31.0884  -16.7360  -14.4914 N   0  0  0  0  0  0  0  0  0  0  0  0
   31.5042  -17.2799  -15.7508 N   0  0  0  0  0  0  0  0  0  0  0  0
   31.0246  -16.4502  -16.8189 N   0  0  0  0  0  0  0  0  0  0  0  0
   31.5559  -15.1129  -16.6784 N   0  0  0  0  0  0  0  0  0  0  0  0
   32.9912  -15.1626  -16.6909 N   0  0  0  0  0  0  0  0  0  0  0  0
   33.4290  -15.6909  -17.9585 N   0  0  0  0  0  0  0  0  0  0  0  0
   32.9327  -14.8850  -19.0226 N   0  0  0  0  0  0  0  0  0  0  0  0
   33.4232  -13.5599  -18.8707 N   0  0  0  0  0  0  0  0  0  0  0  0
   34.8719  -13.5760  -18.9197 N   0  0  0  0  0  0  0  0  0  0  0  0
   35.3151  -14.1471  -20.1583 N   0  0  0  0  0  0  0  0  0  0  0  0
   34.7848  -13.3622  -21.2200 N   0  0  0  0  0  0  0  0  0  0  0  0
   35.2691  -12.0273  -21.0579 N   0  0  0  0  0  0  0  0  0  0  0  0
   36.7134  -12.0281  -21.0977 N   0  0  0  0  0  0  0  0  0  0  0  0
   37.2095  -12.5878  -22.3421 N   0  0  0  0  0  0  0  0  0  0  0  0
   36.7254  -11.8091  -23.4444 N   0  0  0  0  0  0  0  0  0  0  0  0
   37.1938  -10.4735  -23.3006 N   0  0  0  0  0  0  0  0  0  0  0  0
   38.6184  -10.4772  -23.2752 N   0  0  0  0  0  0  0  0  0  0  0  0
   39.1015  -11.0328  -24.5014 N   0  0  0  0  0  0  0  0  0  0  0  0
   38.6184  -10.2548  -25.6226 N   0  0  0  0  0  0  0  0  0  0  0  0
   39.0766   -8.8994  -25.4983 N   0  0  0  0  0  0  0  0  0  0  0  0
   40.5032   -8.9025  -25.4657 N   0  0  0  0  0  0  0  0  0  0  0  0
   40.9812   -9.5009  -26.6673 N   0  0  0  0  0  0  0  0  0  0  0  0
   40.5261   -8.7368  -27.8035 N   0  0  0  0  0  0  0  0  0  0  0  0
   40.9659   -7.3524  -27.7136 N   0  0  0  0  0  0  0  0  0  0  0  0
   42.3925   -7.3299  -27.6763 N   0  0  0  0  0  0  0  0  0  0  0  0
   42.8941   -7.9304  -28.8784 N   0  0  0  0  0  0  0  0  0  0  0  0
   42.4113   -7.1907  -30.0065 N   0  0  0  0  0  0  0  0  0  0  0  0
   42.8413   -5.8190  -29.9113 N   0  0  0  0  0  0  0  0  0  0  0  0
   44.2662   -5.7732  -29.8683 N   0  0  0  0  0  0  0  0  0  0  0  0
   44.7697   -6.3951  -31.0526 N   0  0  0  0  0  0  0  0  0  0  0  0
   44.2718   -5.6689  -32.1782 N   0  0  0  0  0  0  0  0  0  0  0  0
   44.7124   -4.2883  -32.1407 N   0  0  0  0  0  0  0  0  0  0  0  0
   46.1365   -4.2174  -32.0878 N   0  0  0  0  0  0  0  0  0  0  0  0
   46.6741   -4.7956  -33.2781 N   0  0  0  0  0  0  0  0  0  0  0  0
   46.1563   -4.1062  -34.4177 N   0  0  0  0  0  0  0  0  0  0  0  0
   46.5704   -2.7284  -34.3668 N   0  0  0  0  0  0  0  0  0  0  0  0
   47.9922   -2.6580  -34.2846 N   0  0  0  0  0  0  0  0  0  0  0  0
   48.5357   -3.2755  -35.4605 N   0  0  0  0  0  0  0  0  0  0  0  0
   48.0634   -2.5616  -36.6466 N   0  0  0  0  0  0  0  0  0  0  0  0
   48.4287   -1.1620  -36.5864 N   0  0  0  0  0  0  0  0  0  0  0  0
   49.8491   -1.0716  -36.5231 N   0  0  0  0  0  0  0  0  0  0  0  0
   50.4059   -1.6804  -37.7000 N   0  0  0  0  0  0  0  0  0  0  0  0
   49.9006   -1.0177  -38.8763 N   0  0  0  0  0  0  0  0  0  0  0  0
   50.2360    0.3692  -38.7920 N   0  0  0  0  0  0  0  0  0  0  0  0
   51.6809    0.4954  -38.7443 N   0  0  0  0  0  0  0  0  0  0  0  0
   52.2700   -0.1128  -39.9228 N   0  0  0  0  0  0  0  0  0  0  0  0
   51.7794    0.5283  -41.1025 N   0  0  0  0  0  0  0  0  0  0  0  0
   52.0989    1.9106  -41.0356 N   0  0  0  0  0  0  0  0  0  0  0  0
   53.5323    2.0416  -40.9702 N   0  0  0  0  0  0  0  0  0  0  0  0
   54.1153    1.4095  -42.1237 N   0  0  0  0  0  0  0  0  0  0  0  0
   53.6281    2.0506  -43.3268 N   0  0  0  0  0  0  0  0  0  0  0  0
   53.9566    3.4477  -43.3022 N   0  0  0  0  0  0  0  0  0  0  0  0
   55.3770    3.6108  -43.2277 N   0  0  0  0  0  0  0  0  0  0  0  0
   55.9727    2.9727  -44.3529 N   0  0  0  0  0  0  0  0  0  0  0  0
   55.4629    3.5915  -45.5563 N   0  0  0  0  0  0  0  0  0  0  0  0
   55.7972    5.0131  -45.5349 N   0  0  0  0  0  0  0  0  0  0  0  0
   57.2299    5.1778  -45.4387 N   0  0  0  0  0  0  0  0  0  0  0  0
   57.8482    4.5508  -46.5634 N   0  0  0  0  0  0  0  0  0  0  0  0
   15.7111  -23.6601   -7.4046 H   0  0  0  0  0  0  0  0  0  0  0  0
   15.8273  -23.9683   -5.6547 H   0  0  0  0  0  0  0  0  0  0  0  0
   15.6385  -25.3327   -6.7970 H   0  0  0  0  0  0  0  0  0  0  0  0
   17.5606  -26.3258   -5.9248 H   0  0  0  0  0  0  0  0  0  0  0  0
   17.7414  -24.9662   -4.7848 H   0  0  0  0  0  0  0  0  0  0  0  0
   19.7724  -25.8321   -6.8924 H   0  0  0  0  0  0  0  0  0  0  0  0
   19.8808  -26.1499   -5.1478 H   0  0  0  0  0  0  0  0  0  0  0  0
   19.8918  -23.7027   -4.7030 H   0  0  0  0  0  0  0  0  0  0  0  0
   19.7895  -23.3825   -6.4544 H   0  0  0  0  0  0  0  0  0  0  0  0
   21.7823  -24.5883   -6.7326 H   0  0  0  0  0  0  0  0  0  0  0  0
   21.9386  -22.5729   -4.6551 H   0  0  0  0  0  0  0  0  0  0  0  0
   23.9817  -23.7134   -4.9701 H   0  0  0  0  0  0  0  0  0  0  0  0
   23.6042  -24.4722   -7.1970 H   0  0  0  0  0  0  0  0  0  0  0  0
   22.4887  -22.5459   -7.9769 H   0  0  0  0  0  0  0  0  0  0  0  0
   23.8488  -20.9847   -6.9258 H   0  0  0  0  0  0  0  0  0  0  0  0
   25.8632  -22.0992   -7.1934 H   0  0  0  0  0  0  0  0  0  0  0  0
   25.4136  -22.9176   -9.3149 H   0  0  0  0  0  0  0  0  0  0  0  0
   24.3650  -21.0116  -10.1363 H   0  0  0  0  0  0  0  0  0  0  0  0
   25.6961  -19.4425   -9.1363 H   0  0  0  0  0  0  0  0  0  0  0  0
   27.7120  -20.5053   -9.4013 H   0  0  0  0  0  0  0  0  0  0  0  0
   27.3506  -21.3135  -11.5233 H   0  0  0  0  0  0  0  0  0  0  0  0
   26.2220  -19.5199  -12.3253 H   0  0  0  0  0  0  0  0  0  0  0  0
   27.5690  -17.8801  -11.3355 H   0  0  0  0  0  0  0  0  0  0  0  0
   29.5766  -18.9307  -11.5940 H   0  0  0  0  0  0  0  0  0  0  0  0
   29.2205  -19.7819  -13.6378 H   0  0  0  0  0  0  0  0  0  0  0  0
   28.1418  -17.9325  -14.5341 H   0  0  0  0  0  0  0  0  0  0  0  0
   29.3988  -16.3130  -13.5214 H   0  0  0  0  0  0  0  0  0  0  0  0
   31.4402  -17.3429  -13.7530 H   0  0  0  0  0  0  0  0  0  0  0  0
   31.1208  -18.2326  -15.8403 H   0  0  0  0  0  0  0  0  0  0  0  0
   30.0141  -16.3763  -16.7711 H   0  0  0  0  0  0  0  0  0  0  0  0
   31.2761  -14.7636  -15.7673 H   0  0  0  0  0  0  0  0  0  0  0  0
   33.2842  -15.7724  -15.9133 H   0  0  0  0  0  0  0  0  0  0  0  0
   33.0280  -16.6238  -18.0621 H   0  0  0  0  0  0  0  0  0  0  0  0
   31.9140  -14.8518  -18.9848 H   0  0  0  0  0  0  0  0  0  0  0  0
   33.1010  -13.1865  -17.9690 H   0  0  0  0  0  0  0  0  0  0  0  0
   35.1751  -14.1957  -18.1629 H   0  0  0  0  0  0  0  0  0  0  0  0
   34.9078  -15.0758  -20.2228 H   0  0  0  0  0  0  0  0  0  0  0  0
   33.7632  -13.3655  -21.1413 H   0  0  0  0  0  0  0  0  0  0  0  0
   34.9818  -11.6579  -20.1502 H   0  0  0  0  0  0  0  0  0  0  0  0
   37.0644  -12.6073  -20.3364 H   0  0  0  0  0  0  0  0  0  0  0  0
   36.8466  -13.5496  -22.3995 H   0  0  0  0  0  0  0  0  0  0  0  0
   35.7120  -11.7791  -23.4026 H   0  0  0  0  0  0  0  0  0  0  0  0
   36.8755  -10.1096  -22.4066 H   0  0  0  0  0  0  0  0  0  0  0  0
   38.9081  -11.0549  -22.4665 H   0  0  0  0  0  0  0  0  0  0  0  0
   38.7296  -11.9781  -24.5982 H   0  0  0  0  0  0  0  0  0  0  0  0
   37.5858  -10.2900  -25.5897 H   0  0  0  0  0  0  0  0  0  0  0  0
   38.7494   -8.5404  -24.6052 H   0  0  0  0  0  0  0  0  0  0  0  0
   40.8132   -9.4894  -24.6998 H   0  0  0  0  0  0  0  0  0  0  0  0
   40.6167  -10.4513  -26.7387 H   0  0  0  0  0  0  0  0  0  0  0  0
   39.5095   -8.7352  -27.8007 H   0  0  0  0  0  0  0  0  0  0  0  0
   40.5826   -6.9864  -26.8285 H   0  0  0  0  0  0  0  0  0  0  0  0
   42.7248   -7.8925  -26.8999 H   0  0  0  0  0  0  0  0  0  0  0  0
   42.5458   -8.9050  -28.9130 H   0  0  0  0  0  0  0  0  0  0  0  0
   41.3904   -7.2000  -29.9954 H   0  0  0  0  0  0  0  0  0  0  0  0
   42.4447   -5.4450  -29.0376 H   0  0  0  0  0  0  0  0  0  0  0  0
   44.5984   -6.3288  -29.0937 H   0  0  0  0  0  0  0  0  0  0  0  0
   44.4144   -7.3594  -31.0839 H   0  0  0  0  0  0  0  0  0  0  0  0
   43.2522   -5.6765  -32.1923 H   0  0  0  0  0  0  0  0  0  0  0  0
   44.3364   -3.8857  -31.2809 H   0  0  0  0  0  0  0  0  0  0  0  0
   46.4637   -4.7317  -31.2686 H   0  0  0  0  0  0  0  0  0  0  0  0
   46.3546   -5.7594  -33.3473 H   0  0  0  0  0  0  0  0  0  0  0  0
   45.1258   -4.1800  -34.4114 H   0  0  0  0  0  0  0  0  0  0  0  0
   46.2041   -2.3213  -33.5092 H   0  0  0  0  0  0  0  0  0  0  0  0
   48.2959   -3.1959  -33.4732 H   0  0  0  0  0  0  0  0  0  0  0  0
   48.2049   -4.2482  -35.4812 H   0  0  0  0  0  0  0  0  0  0  0  0
   47.0436   -2.6046  -36.6293 H   0  0  0  0  0  0  0  0  0  0  0  0
   48.0082   -0.7967  -35.7127 H   0  0  0  0  0  0  0  0  0  0  0  0
   50.1622   -1.5704  -35.6771 H   0  0  0  0  0  0  0  0  0  0  0  0
   50.0974   -2.6513  -37.7483 H   0  0  0  0  0  0  0  0  0  0  0  0
   48.8830   -1.0973  -38.8427 H   0  0  0  0  0  0  0  0  0  0  0  0
   49.8234    0.7369  -37.9273 H   0  0  0  0  0  0  0  0  0  0  0  0
   52.0171   -0.0306  -37.9382 H   0  0  0  0  0  0  0  0  0  0  0  0
   51.9646   -1.0906  -39.9297 H   0  0  0  0  0  0  0  0  0  0  0  0
   50.7624    0.4211  -41.0948 H   0  0  0  0  0  0  0  0  0  0  0  0
   51.6641    2.2958  -40.1860 H   0  0  0  0  0  0  0  0  0  0  0  0
   53.8452    1.5334  -40.1271 H   0  0  0  0  0  0  0  0  0  0  0  0
   53.8151    0.4379  -42.1532 H   0  0  0  0  0  0  0  0  0  0  0  0
   52.6142    1.9587  -43.3095 H   0  0  0  0  0  0  0  0  0  0  0  0
   53.5390    3.8397  -42.4577 H   0  0  0  0  0  0  0  0  0  0  0  0
   55.6955    3.1370  -42.3789 H   0  0  0  0  0  0  0  0  0  0  0  0
   55.7113    1.9777  -44.3285 H   0  0  0  0  0  0  0  0  0  0  0  0
   54.4406    3.4847  -45.5457 H   0  0  0  0  0  0  0  0  0  0  0  0
   55.3628    5.3965  -44.6802 H   0  0  0  0  0  0  0  0  0  0  0  0
   57.5456    4.7169  -44.5665 H   0  0  0  0  0  0  0  0  0  0  0  0
   57.4771    4.9618  -47.4237 H   0  0  0  0  0  0  0  0  0  0  0  0
   57.5991    3.5559  -46.5940 H   0  0  0  0  0  0  0  0  0  0  0  0
  1  2  1  0  0  0  0
  1 82  1  0  0  0  0
  1 83  1  0  0  0  0
  1 84  1  0  0  0  0
  2  3  1  0  0  0  0
  3  4  1  0  0  0  0
  3 85  1  0  0  0  0
  3 86  1  0  0  0  0
  4  5  1  0  0  0  0
  4 87  1  0  0  0  0
  4 88  1  0  0  0  0
  5  6  1  0  0  0  0
  5 89  1  0  0  0  0
  5 90  1  0  0  0  0
  6  7  1  0  0  0  0
  6 91  1  0  0  0  0
  7  8  1  0  0  0  0
  7 92  1  0  0  0  0
  8  9  1  0  0  0  0
  8 93  1  0  0  0  0
  9 10  1  0  0  0  0
  9 94  1  0  0  0  0
 10 11  1  0  0  0  0
 10 95  1  0  0  0  0
 11 12  1  0  0  0  0
 11 96  1  0  0  0  0
 12 13  1  0  0  0  0
 12 97  1  0  0  0  0
 13 14  1  0  0  0  0
 13 98  1  0  0  0  0
 14 15  1  0  0  0  0
 14 99  1  0  0  0  0
 15 16  1  0  0  0  0
 15100  1  0  0  0  0
 16 17  1  0  0  0  0
 16101  1  0  0  0  0
 17 18  1  0  0  0  0
 17102  1  0  0  0  0
 18 19  1  0  0  0  0
 18103  1  0  0  0  0
 19 20  1  0  0  0  0
 19104  1  0  0  0  0
 20 21  1  0  0  0  0
 20105  1  0  0  0  0
 21 22  1  0  0  0  0
 21106  1  0  0  0  0
 22 23  1  0  0  0  0
 22107  1  0  0  0  0
 23 24  1  0  0  0  0
 23108  1  0  0  0  0
 24 25  1  0  0  0  0
 24109  1  0  0  0  0
 25 26  1  0  0  0  0
 25110  1  0  0  0  0
 26 27  1  0  0  0  0
 26111  1  0  0  0  0
 27 28  1  0  0  0  0
 27112  1  0  0  0  0
 28 29  1  0  0  0  0
 28113  1  0  0  0  0
 29 30  1  0  0  0  0
 29114  1  0  0  0  0
 30 31  1  0  0  0  0
 30115  1  0  0  0  0
 31 32  1  0  0  0  0
 31116  1  0  0  0  0
 32 33  1  0  0  0  0
 32117  1  0  0  0  0
 33 34  1  0  0  0  0
 33118  1  0  0  0  0
 34 35  1  0  0  0  0
 34119  1  0  0  0  0
 35 36  1  0  0  0  0
 35120  1  0  0  0  0
 36 37  1  0  0  0  0
 36121  1  0  0  0  0
 37 38  1  0  0  0  0
 37122  1  0  0  0  0
 38 39  1  0  0  0  0
 38123  1  0  0  0  0
 39 40  1  0  0  0  0
 39124  1  0  0  0  0
 40 41  1  0  0  0  0
 40125  1  0  0  0  0
 41 42  1  0  0  0  0
 41126  1  0  0  0  0
 42 43  1  0  0  0  0
 42127  1  0  0  0  0
 43 44  1  0  0  0  0
 43128  1  0  0  0  0
 44 45  1  0  0  0  0
 44129  1  0  0  0  0
 45 46  1  0  0  0  0
 45130  1  0  0  0  0
 46 47  1  0  0  0  0
 46131  1  0  0  0  0
 47 48  1  0  0  0  0
 47132  1  0  0  0  0
 48 49  1  0  0  0  0
 48133  1  0  0  0  0
 49 50  1  0  0  0  0
 49134  1  0  0  0  0
 50 51  1  0  0  0  0
 50135  1  0  0  0  0
 51 52  1  0  0  0  0
 51136  1  0  0  0  0
 52 53  1  0  0  0  0
 52137  1  0  0  0  0
 53 54  1  0  0  0  0
 53138  1  0  0  0  0
 54 55  1  0  0  0  0
 54139  1  0  0  0  0
 55 56  1  0  0  0  0
 55140  1  0  0  0  0
 56 57  1  0  0  0  0
 56141  1  0  0  0  0
 57 58  1  0  0  0  0
 57142  1  0  0  0  0
 58 59  1  0  0  0  0
 58143  1  0  0  0  0
 59 60  1  0  0  0  0
 59144  1  0  0  0  0
 60 61  1  0  0  0  0
 60145  1  0  0  0  0
 61 62  1  0  0  0  0
 61146  1  0  0  0  0
 62 63  1  0  0  0  0
 62147  1  0  0  0  0
 63 64  1  0  0  0  0
 63148  1  0  0  0  0
 64 65  1  0  0  0  0
 64149  1  0  0  0  0
 65 66  1  0  0  0  0
 65150  1  0  0  0  0
 66 67  1  0  0  0  0
 66151  1  0  0  0  0
 67 68  1  0  0  0  0
 67152  1  0  0  0  0
 68 69  1  0  0  0  0
 68153  1  0  0  0  0
 69 70  1  0  0  0  0
 69154  1  0  0  0  0
 70 71  1  0  0  0  0
 70155  1  0  0  0  0
 71 72  1  0  0  0  0
 71156  1  0  0  0  0
 72 73  1  0  0  0  0
 72157  1  0  0  0  0
 73 74  1  0  0  0  0
 73158  1  0  0  0  0
 74 75  1  0  0  0  0
 74159  1  0  0  0  0
 75 76  1  0  0  0  0
 75160  1  0  0  0  0
 76 77  1  0  0  0  0
 76161  1  0  0  0  0
 77 78  1  0  0  0  0
 77162  1  0  0  0  0
 78 79  1  0  0  0  0
 78163  1  0  0  0  0
 79 80  1  0  0  0  0
 79164  1  0  0  0  0
 80 81  1  0  0  0  0
 80165  1  0  0  0  0
 81166  1  0  0  0  0
 81167  1  0  0  0  0
M  END
$$$$
