
 OpenBabel04232217003D

 59 60  0  0  1  0  0  0  0  0999 V2000
    7.5926   -1.1635   -1.4856 O   0  0  0  0  0  0  0  0  0  0  0  0
    7.9273   -0.3837   -0.3845 C   0  0  0  0  0  0  0  0  0  0  0  0
    8.1439   -1.0814    0.7511 C   0  0  0  0  0  0  0  0  0  0  0  0
    8.5305   -0.9800    2.2480 C   0  0  0  0  0  0  0  0  0  0  0  0
    8.1869    0.1284    3.3115 C   0  0  3  0  0  0  0  0  0  0  0  0
    9.0096    0.1479    4.6369 C   0  0  3  0  0  0  0  0  0  0  0  0
    8.8599   -1.1501    5.4583 C   0  0  0  0  0  0  0  0  0  0  0  0
   10.5090    0.3985    4.5070 C   0  0  0  0  0  0  0  0  0  0  0  0
   11.5449   -0.0801    3.7163 N   0  0  0  0  0  0  0  0  0  0  0  0
   12.3959    0.6278    4.3179 N   0  0  0  0  0  0  0  0  0  0  0  0
   11.4103    1.1554    5.1607 C   0  0  0  0  0  0  0  0  0  0  0  0
   11.4268    2.1293    6.3037 C   0  0  0  0  0  0  0  0  0  0  0  0
   11.0287    1.4954    7.5316 O   0  0  0  0  0  0  0  0  0  0  0  0
   12.0488    0.6466    8.0583 C   0  0  0  0  0  0  0  0  0  0  0  0
   11.6590    0.1624    9.4524 C   0  0  0  0  0  0  0  0  0  0  0  0
   10.3206   -0.5798    9.4719 C   0  0  0  0  0  0  0  0  0  0  0  0
   10.0276   -1.1266   10.8688 C   0  0  0  0  0  0  0  0  0  0  0  0
    8.6911   -1.8642   10.9210 C   0  0  0  0  0  0  0  0  0  0  0  0
    8.4234   -2.4015   12.3182 C   0  0  0  0  0  0  0  0  0  0  0  0
    7.8736    0.9719   -0.7217 N   0  0  0  0  0  0  0  0  0  0  0  0
    8.9727    1.6380   -1.4697 C   0  0  0  0  0  0  0  0  0  0  0  0
    9.2814    1.0137   -2.8260 C   0  0  0  0  0  0  0  0  0  0  0  0
    6.9350    1.7749   -0.0551 C   0  0  0  0  0  0  0  0  0  0  0  0
    7.3058    2.6749    0.8821 C   0  0  0  0  0  0  0  0  0  0  0  0
    7.1526    2.0880    2.2080 C   0  0  0  0  0  0  0  0  0  0  0  0
    8.2586    1.4794    2.6708 C   0  0  0  0  0  0  0  0  0  0  0  0
    7.2040   -0.5165   -2.0933 H   0  0  0  0  0  0  0  0  0  0  0  0
    8.0490   -2.1573    0.5487 H   0  0  0  0  0  0  0  0  0  0  0  0
    9.6024   -1.1947    2.2876 H   0  0  0  0  0  0  0  0  0  0  0  0
    8.0641   -1.8817    2.6839 H   0  0  0  0  0  0  0  0  0  0  0  0
    7.1463   -0.0580    3.6145 H   0  0  0  0  0  0  0  0  0  0  0  0
    8.6092    0.9391    5.2892 H   0  0  0  0  0  0  0  0  0  0  0  0
    9.2571   -2.0257    4.9341 H   0  0  0  0  0  0  0  0  0  0  0  0
    7.8141   -1.3340    5.7136 H   0  0  0  0  0  0  0  0  0  0  0  0
    9.4107   -1.0691    6.4062 H   0  0  0  0  0  0  0  0  0  0  0  0
   10.6314    2.8666    6.1336 H   0  0  0  0  0  0  0  0  0  0  0  0
   12.3889    2.6307    6.4280 H   0  0  0  0  0  0  0  0  0  0  0  0
   12.9938    1.1973    8.1261 H   0  0  0  0  0  0  0  0  0  0  0  0
   12.1887   -0.2148    7.3977 H   0  0  0  0  0  0  0  0  0  0  0  0
   11.5949    1.0220   10.1300 H   0  0  0  0  0  0  0  0  0  0  0  0
   12.4527   -0.4940    9.8309 H   0  0  0  0  0  0  0  0  0  0  0  0
   10.3457   -1.4061    8.7511 H   0  0  0  0  0  0  0  0  0  0  0  0
    9.5138    0.0959    9.1654 H   0  0  0  0  0  0  0  0  0  0  0  0
   10.0187   -0.3013   11.5915 H   0  0  0  0  0  0  0  0  0  0  0  0
   10.8323   -1.8092   11.1696 H   0  0  0  0  0  0  0  0  0  0  0  0
    8.6937   -2.6958   10.2074 H   0  0  0  0  0  0  0  0  0  0  0  0
    7.8786   -1.1882   10.6312 H   0  0  0  0  0  0  0  0  0  0  0  0
    9.2058   -3.1045   12.6226 H   0  0  0  0  0  0  0  0  0  0  0  0
    7.4637   -2.9257   12.3487 H   0  0  0  0  0  0  0  0  0  0  0  0
    8.3913   -1.5879   13.0500 H   0  0  0  0  0  0  0  0  0  0  0  0
    9.8776    1.6683   -0.8542 H   0  0  0  0  0  0  0  0  0  0  0  0
    8.6865    2.6787   -1.6718 H   0  0  0  0  0  0  0  0  0  0  0  0
    9.8060    0.0605   -2.7173 H   0  0  0  0  0  0  0  0  0  0  0  0
    9.9349    1.6821   -3.4015 H   0  0  0  0  0  0  0  0  0  0  0  0
    8.3780    0.8494   -3.4205 H   0  0  0  0  0  0  0  0  0  0  0  0
    6.0440    1.1694    0.1346 H   0  0  0  0  0  0  0  0  0  0  0  0
    8.2568    3.1939    0.7530 H   0  0  0  0  0  0  0  0  0  0  0  0
    6.1634    1.7065    2.4681 H   0  0  0  0  0  0  0  0  0  0  0  0
    9.2431    1.7612    2.2942 H   0  0  0  0  0  0  0  0  0  0  0  0
  1  2  1  0  0  0  0
  1 27  1  0  0  0  0
  2  3  2  3  0  0  0
  2 20  1  0  0  0  0
  3  4  1  0  0  0  0
  3 28  1  0  0  0  0
  4  5  1  0  0  0  0
  4 29  1  0  0  0  0
  4 30  1  0  0  0  0
  5  6  1  0  0  0  0
  5 26  1  0  0  0  0
  5 31  1  0  0  0  0
  6  7  1  0  0  0  0
  6  8  1  0  0  0  0
  6 32  1  0  0  0  0
  7 33  1  0  0  0  0
  7 34  1  0  0  0  0
  7 35  1  0  0  0  0
  8  9  1  0  0  0  0
  8 11  2  0  0  0  0
  9 10  2  0  0  0  0
 10 11  1  0  0  0  0
 11 12  1  0  0  0  0
 12 13  1  0  0  0  0
 12 36  1  0  0  0  0
 12 37  1  0  0  0  0
 13 14  1  0  0  0  0
 14 15  1  0  0  0  0
 14 38  1  0  0  0  0
 14 39  1  0  0  0  0
 15 16  1  0  0  0  0
 15 40  1  0  0  0  0
 15 41  1  0  0  0  0
 16 17  1  0  0  0  0
 16 42  1  0  0  0  0
 16 43  1  0  0  0  0
 17 18  1  0  0  0  0
 17 44  1  0  0  0  0
 17 45  1  0  0  0  0
 18 19  1  0  0  0  0
 18 46  1  0  0  0  0
 18 47  1  0  0  0  0
 19 48  1  0  0  0  0
 19 49  1  0  0  0  0
 19 50  1  0  0  0  0
 20 21  1  0  0  0  0
 20 23  1  0  0  0  0
 21 22  1  0  0  0  0
 21 51  1  0  0  0  0
 21 52  1  0  0  0  0
 22 53  1  0  0  0  0
 22 54  1  0  0  0  0
 22 55  1  0  0  0  0
 23 24  2  3  0  0  0
 23 56  1  0  0  0  0
 24 25  1  0  0  0  0
 24 57  1  0  0  0  0
 25 26  2  3  0  0  0
 25 58  1  0  0  0  0
 26 59  1  0  0  0  0
M  END
$$$$
