
 OpenBabel04232216463D

 43 44  0  0  0  0  0  0  0  0999 V2000
    1.2415   -1.4231    1.0620 C   0  0  0  0  0  0  0  0  0  0  0  0
    2.7128   -1.7822    1.1064 C   0  0  0  0  0  0  0  0  0  0  0  0
    2.9952   -3.1052    1.7360 C   0  0  0  0  0  0  0  0  0  0  0  0
    3.4314   -4.1389    0.9928 C   0  0  0  0  0  0  0  0  0  0  0  0
    3.8037   -5.4597    1.6113 C   0  0  0  0  0  0  0  0  0  0  0  0
    3.6161   -4.0465   -0.3556 N   0  0  0  0  0  0  0  0  0  0  0  0
    4.5468   -3.2226   -0.7791 C   0  0  0  0  0  0  0  0  0  0  0  0
    4.5837   -3.0146   -2.3213 C   0  0  0  0  0  0  0  0  0  0  0  0
    3.3163   -3.3642   -3.1095 C   0  0  0  0  0  0  0  0  0  0  0  0
    2.1682   -2.3957   -2.8699 C   0  0  0  0  0  0  0  0  0  0  0  0
    5.5933   -2.4067    0.1411 C   0  0  0  0  0  0  0  0  0  0  0  0
    6.1575   -3.2069    1.3454 C   0  0  0  0  0  0  0  0  0  0  0  0
    6.7211   -2.2129   -0.8559 N   0  0  0  0  0  2  0  0  0  0  0  0
    7.4741   -1.1087   -0.6529 C   0  0  0  0  0  0  0  0  0  0  0  0
    7.9430   -0.6539    0.5212 C   0  0  0  0  0  0  0  0  0  0  0  0
    7.0197    0.2141    1.2354 C   0  0  0  0  0  0  0  0  0  0  0  0
    5.6784    0.0285    1.2930 C   0  0  0  0  0  0  0  0  0  0  0  0
    4.8783    1.0446    2.0674 C   0  0  0  0  0  0  0  0  0  0  0  0
    4.9188   -1.0996    0.6685 C   0  0  0  0  0  0  0  0  0  0  0  0
    3.5429   -0.9049    0.6327 N   0  0  0  0  0  0  0  0  0  0  0  0
    0.6384   -2.1418    1.6271 H   0  0  0  0  0  0  0  0  0  0  0  0
    0.8924   -1.4162    0.0257 H   0  0  0  0  0  0  0  0  0  0  0  0
    1.0911   -0.4301    1.4943 H   0  0  0  0  0  0  0  0  0  0  0  0
    2.8525   -3.1688    2.8039 H   0  0  0  0  0  0  0  0  0  0  0  0
    3.8268   -5.4046    2.7060 H   0  0  0  0  0  0  0  0  0  0  0  0
    4.8076   -5.7614    1.2866 H   0  0  0  0  0  0  0  0  0  0  0  0
    3.1059   -6.2437    1.3138 H   0  0  0  0  0  0  0  0  0  0  0  0
    5.3926   -3.6563   -2.6992 H   0  0  0  0  0  0  0  0  0  0  0  0
    4.8464   -1.9737   -2.5402 H   0  0  0  0  0  0  0  0  0  0  0  0
    2.9857   -4.3851   -2.8895 H   0  0  0  0  0  0  0  0  0  0  0  0
    3.5587   -3.3379   -4.1796 H   0  0  0  0  0  0  0  0  0  0  0  0
    1.8282   -2.4328   -1.8335 H   0  0  0  0  0  0  0  0  0  0  0  0
    1.3169   -2.6559   -3.5078 H   0  0  0  0  0  0  0  0  0  0  0  0
    2.4599   -1.3670   -3.1042 H   0  0  0  0  0  0  0  0  0  0  0  0
    6.4854   -4.2068    1.0497 H   0  0  0  0  0  0  0  0  0  0  0  0
    5.4532   -3.2993    2.1750 H   0  0  0  0  0  0  0  0  0  0  0  0
    7.0106   -2.7279    1.8266 H   0  0  0  0  0  0  0  0  0  0  0  0
    7.2755   -0.3098   -1.3738 H   0  0  0  0  0  0  0  0  0  0  0  0
    8.3656   -1.3713    1.2238 H   0  0  0  0  0  0  0  0  0  0  0  0
    7.4987    1.0385    1.7507 H   0  0  0  0  0  0  0  0  0  0  0  0
    5.5249    1.7684    2.5797 H   0  0  0  0  0  0  0  0  0  0  0  0
    4.2743    0.5617    2.8421 H   0  0  0  0  0  0  0  0  0  0  0  0
    4.2254    1.6172    1.4009 H   0  0  0  0  0  0  0  0  0  0  0  0
  1  2  1  0  0  0  0
  1 21  1  0  0  0  0
  1 22  1  0  0  0  0
  1 23  1  0  0  0  0
  2  3  1  0  0  0  0
  2 20  2  0  0  0  0
  3  4  2  0  0  0  0
  3 24  1  0  0  0  0
  4  5  1  0  0  0  0
  4  6  1  0  0  0  0
  5 25  1  0  0  0  0
  5 26  1  0  0  0  0
  5 27  1  0  0  0  0
  6  7  2  0  0  0  0
  7  8  1  0  0  0  0
  7 11  1  0  0  0  0
  8  9  1  0  0  0  0
  8 28  1  0  0  0  0
  8 29  1  0  0  0  0
  9 10  1  0  0  0  0
  9 30  1  0  0  0  0
  9 31  1  0  0  0  0
 10 32  1  0  0  0  0
 10 33  1  0  0  0  0
 10 34  1  0  0  0  0
 11 12  1  0  0  0  0
 11 13  1  0  0  0  0
 11 19  2  0  0  0  0
 12 35  1  0  0  0  0
 12 36  1  0  0  0  0
 12 37  1  0  0  0  0
 13 14  1  0  0  0  0
 14 15  2  0  0  0  0
 14 38  1  0  0  0  0
 15 16  1  0  0  0  0
 15 39  1  0  0  0  0
 16 17  2  0  0  0  0
 16 40  1  0  0  0  0
 17 18  1  0  0  0  0
 17 19  1  0  0  0  0
 18 41  1  0  0  0  0
 18 42  1  0  0  0  0
 18 43  1  0  0  0  0
 19 20  1  0  0  0  0
M  END
$$$$
