
 OpenBabel04232217003D

196195  0  0  0  0  0  0  0  0999 V2000
    0.9436   -0.0070    0.1930 O   0  0  0  0  0  0  0  0  0  0  0  0
    2.3618    0.0048    0.1800 C   0  0  0  0  0  0  0  0  0  0  0  0
    2.8741   -1.3395    0.6567 C   0  0  0  0  0  0  0  0  0  0  0  0
    4.3916   -1.3556    0.6511 C   0  0  0  0  0  0  0  0  0  0  0  0
    4.9044   -2.7010    1.1281 C   0  0  0  0  0  0  0  0  0  0  0  0
    6.4208   -2.7110    1.1203 C   0  0  0  0  0  0  0  0  0  0  0  0
    6.9323   -4.0565    1.5953 C   0  0  0  0  0  0  0  0  0  0  0  0
    8.4479   -4.0655    1.5892 C   0  0  0  0  0  0  0  0  0  0  0  0
    8.9591   -5.4108    2.0641 C   0  0  0  0  0  0  0  0  0  0  0  0
   10.4746   -5.4204    2.0562 C   0  0  0  0  0  0  0  0  0  0  0  0
   10.9858   -6.7664    2.5292 C   0  0  0  0  0  0  0  0  0  0  0  0
   12.5013   -6.7753    2.5231 C   0  0  0  0  0  0  0  0  0  0  0  0
   13.0124   -8.1219    2.9943 C   0  0  0  0  0  0  0  0  0  0  0  0
   14.5279   -8.1302    2.9900 C   0  0  0  0  0  0  0  0  0  0  0  0
   15.0391   -9.4769    3.4612 C   0  0  0  0  0  0  0  0  0  0  0  0
   16.5545   -9.4857    3.4551 C   0  0  0  0  0  0  0  0  0  0  0  0
   17.0657  -10.8331    3.9243 C   0  0  0  0  0  0  0  0  0  0  0  0
   18.5812  -10.8413    3.9201 C   0  0  0  0  0  0  0  0  0  0  0  0
   19.0923  -12.1880    4.3912 C   0  0  0  0  0  0  0  0  0  0  0  0
   20.6078  -12.1956    4.3889 C   0  0  0  0  0  0  0  0  0  0  0  0
   21.1190  -13.5416    4.8620 C   0  0  0  0  0  0  0  0  0  0  0  0
   22.6345  -13.5485    4.8616 C   0  0  0  0  0  0  0  0  0  0  0  0
   23.1456  -14.8938    5.3365 C   0  0  0  0  0  0  0  0  0  0  0  0
   24.6611  -14.9000    5.3380 C   0  0  0  0  0  0  0  0  0  0  0  0
   25.1723  -16.2454    5.8129 C   0  0  0  0  0  0  0  0  0  0  0  0
   26.6878  -16.2523    5.8125 C   0  0  0  0  0  0  0  0  0  0  0  0
   27.1990  -17.5976    6.2874 C   0  0  0  0  0  0  0  0  0  0  0  0
   28.7145  -17.6046    6.2870 C   0  0  0  0  0  0  0  0  0  0  0  0
   29.2259  -18.9500    6.7620 C   0  0  0  0  0  0  0  0  0  0  0  0
   30.7417  -18.9572    6.7617 C   0  0  0  0  0  0  0  0  0  0  0  0
   31.2539  -20.3030    7.2367 C   0  0  0  0  0  0  0  0  0  0  0  0
   32.7705  -20.3107    7.2368 C   0  0  0  0  0  0  0  0  0  0  0  0
   33.2856  -21.6554    7.7118 C   0  0  0  0  0  0  0  0  0  0  0  0
   34.8028  -21.6590    7.7130 C   0  0  0  0  0  0  0  0  0  0  0  0
   35.2160  -22.9687    8.1471 N   0  0  0  0  0  0  0  0  0  0  0  0
   36.6413  -22.9600    8.1207 N   0  0  0  0  0  0  0  0  0  0  0  0
   37.1477  -24.2106    8.5477 N   0  0  0  0  0  0  0  0  0  0  0  0
   38.5749  -24.2038    8.5635 N   0  0  0  0  0  0  0  0  0  0  0  0
   39.0694  -23.1911    9.4453 N   0  0  0  0  0  0  0  0  0  0  0  0
   38.6247  -23.4300   10.8169 N   0  0  0  0  0  0  0  0  0  0  0  0
   39.0774  -24.7031   11.2794 N   0  0  0  0  0  0  0  0  0  0  0  0
   40.5058  -24.7484   11.2818 N   0  0  0  0  0  0  0  0  0  0  0  0
   41.0284  -23.7104   12.1359 N   0  0  0  0  0  0  0  0  0  0  0  0
   40.5475  -23.8947   13.4831 N   0  0  0  0  0  0  0  0  0  0  0  0
   40.9850  -25.1766   13.9754 N   0  0  0  0  0  0  0  0  0  0  0  0
   42.4002  -25.2498   13.9148 N   0  0  0  0  0  0  0  0  0  0  0  0
   42.9101  -24.1912   14.7182 N   0  0  0  0  0  0  0  0  0  0  0  0
   42.4187  -24.3620   16.0684 N   0  0  0  0  0  0  0  0  0  0  0  0
   42.8237  -25.6585   16.5875 N   0  0  0  0  0  0  0  0  0  0  0  0
   44.2681  -25.7570   16.6120 N   0  0  0  0  0  0  0  0  0  0  0  0
   44.8692  -24.7168   17.4293 N   0  0  0  0  0  0  0  0  0  0  0  0
   44.3684  -24.8382   18.7588 N   0  0  0  0  0  0  0  0  0  0  0  0
   44.7133  -26.1252   19.2546 N   0  0  0  0  0  0  0  0  0  0  0  0
   46.1413  -26.2519   19.2209 N   0  0  0  0  0  0  0  0  0  0  0  0
   46.7260  -25.2234   20.0087 N   0  0  0  0  0  0  0  0  0  0  0  0
   46.2962  -25.3050   21.3822 N   0  0  0  0  0  0  0  0  0  0  0  0
   46.6201  -26.5834   21.9193 N   0  0  0  0  0  0  0  0  0  0  0  0
   48.0278  -26.7456   21.8304 N   0  0  0  0  0  0  0  0  0  0  0  0
   48.6539  -25.6839   22.6203 N   0  0  0  0  0  0  0  0  0  0  0  0
   48.2070  -25.7565   24.0022 N   0  0  0  0  0  0  0  0  0  0  0  0
   48.5175  -27.0338   24.5698 N   0  0  0  0  0  0  0  0  0  0  0  0
   49.9307  -27.2146   24.5283 N   0  0  0  0  0  0  0  0  0  0  0  0
   50.5598  -26.1661   25.2627 N   0  0  0  0  0  0  0  0  0  0  0  0
   50.1436  -26.1782   26.6509 N   0  0  0  0  0  0  0  0  0  0  0  0
   50.4343  -27.4393   27.2684 N   0  0  0  0  0  0  0  0  0  0  0  0
   51.8306  -27.6572   27.1642 N   0  0  0  0  0  0  0  0  0  0  0  0
   52.4873  -26.5746   27.8878 N   0  0  0  0  0  0  0  0  0  0  0  0
   52.0539  -26.5490   29.2728 N   0  0  0  0  0  0  0  0  0  0  0  0
   52.3318  -27.7876   29.8960 N   0  0  0  0  0  0  0  0  0  0  0  0
   53.7512  -28.0178   29.8779 N   0  0  0  0  0  0  0  0  0  0  0  0
   54.4479  -26.9508   30.5324 N   0  0  0  0  0  0  0  0  0  0  0  0
   53.9961  -26.8776   31.8738 N   0  0  0  0  0  0  0  0  0  0  0  0
   54.2862  -28.1357   32.5632 N   0  0  0  0  0  0  0  0  0  0  0  0
   55.6758  -28.4197   32.4808 N   0  0  0  0  0  0  0  0  0  0  0  0
   56.3843  -27.3750   33.1512 N   0  0  0  0  0  0  0  0  0  0  0  0
   55.9264  -27.2534   34.5068 N   0  0  0  0  0  0  0  0  0  0  0  0
   56.1703  -28.4899   35.2079 N   0  0  0  0  0  0  0  0  0  0  0  0
   57.5708  -28.8005   35.1762 N   0  0  0  0  0  0  0  0  0  0  0  0
   58.3360  -27.7595   35.8069 N   0  0  0  0  0  0  0  0  0  0  0  0
   57.9003  -27.6092   37.1670 N   0  0  0  0  0  0  0  0  0  0  0  0
   58.1002  -28.8444   37.8927 N   0  0  0  0  0  0  0  0  0  0  0  0
    0.6434    0.8645   -0.1163 H   0  0  0  0  0  0  0  0  0  0  0  0
    2.7212    0.7995    0.8413 H   0  0  0  0  0  0  0  0  0  0  0  0
    2.7108    0.1998   -0.8389 H   0  0  0  0  0  0  0  0  0  0  0  0
    2.4882   -2.1360    0.0088 H   0  0  0  0  0  0  0  0  0  0  0  0
    2.5007   -1.5429    1.6678 H   0  0  0  0  0  0  0  0  0  0  0  0
    4.7731   -0.5629    1.3058 H   0  0  0  0  0  0  0  0  0  0  0  0
    4.7605   -1.1594   -0.3629 H   0  0  0  0  0  0  0  0  0  0  0  0
    4.5263   -3.4954    0.4738 H   0  0  0  0  0  0  0  0  0  0  0  0
    4.5389   -2.8988    2.1427 H   0  0  0  0  0  0  0  0  0  0  0  0
    6.8002   -1.9182    1.7759 H   0  0  0  0  0  0  0  0  0  0  0  0
    6.7878   -2.5125    0.1062 H   0  0  0  0  0  0  0  0  0  0  0  0
    6.5545   -4.8494    0.9389 H   0  0  0  0  0  0  0  0  0  0  0  0
    6.5647   -4.2560    2.6089 H   0  0  0  0  0  0  0  0  0  0  0  0
    8.8260   -3.2726    2.2456 H   0  0  0  0  0  0  0  0  0  0  0  0
    8.8157   -3.8660    0.5756 H   0  0  0  0  0  0  0  0  0  0  0  0
    8.5800   -6.2038    1.4086 H   0  0  0  0  0  0  0  0  0  0  0  0
    8.5926   -5.6096    3.0783 H   0  0  0  0  0  0  0  0  0  0  0  0
   10.8537   -4.6282    2.7128 H   0  0  0  0  0  0  0  0  0  0  0  0
   10.8412   -5.2202    1.0423 H   0  0  0  0  0  0  0  0  0  0  0  0
   10.6078   -7.5583    1.8716 H   0  0  0  0  0  0  0  0  0  0  0  0
   10.6181   -6.9673    3.5425 H   0  0  0  0  0  0  0  0  0  0  0  0
   12.8792   -5.9842    3.1817 H   0  0  0  0  0  0  0  0  0  0  0  0
   12.8691   -6.5730    1.5101 H   0  0  0  0  0  0  0  0  0  0  0  0
   12.6356   -8.9128    2.3347 H   0  0  0  0  0  0  0  0  0  0  0  0
   12.6435   -8.3249    4.0067 H   0  0  0  0  0  0  0  0  0  0  0  0
   14.9047   -7.3393    3.6495 H   0  0  0  0  0  0  0  0  0  0  0  0
   14.8968   -7.9272    1.9776 H   0  0  0  0  0  0  0  0  0  0  0  0
   14.6611  -10.2679    2.8025 H   0  0  0  0  0  0  0  0  0  0  0  0
   14.6713   -9.6792    4.4742 H   0  0  0  0  0  0  0  0  0  0  0  0
   16.9324   -8.6956    4.1149 H   0  0  0  0  0  0  0  0  0  0  0  0
   16.9224   -9.2820    2.4424 H   0  0  0  0  0  0  0  0  0  0  0  0
   16.6889  -11.6230    3.2637 H   0  0  0  0  0  0  0  0  0  0  0  0
   16.6967  -11.0374    4.9365 H   0  0  0  0  0  0  0  0  0  0  0  0
   18.9579  -10.0505    4.5797 H   0  0  0  0  0  0  0  0  0  0  0  0
   18.9501  -10.6383    2.9077 H   0  0  0  0  0  0  0  0  0  0  0  0
   18.7167  -12.9787    3.7309 H   0  0  0  0  0  0  0  0  0  0  0  0
   18.7222  -12.3916    5.4032 H   0  0  0  0  0  0  0  0  0  0  0  0
   20.9834  -11.4039    5.0482 H   0  0  0  0  0  0  0  0  0  0  0  0
   20.9779  -11.9933    3.3768 H   0  0  0  0  0  0  0  0  0  0  0  0
   20.7445  -14.3331    4.2019 H   0  0  0  0  0  0  0  0  0  0  0  0
   20.7477  -13.7444    5.8736 H   0  0  0  0  0  0  0  0  0  0  0  0
   23.0089  -12.7560    5.5206 H   0  0  0  0  0  0  0  0  0  0  0  0
   23.0058  -13.3470    3.8497 H   0  0  0  0  0  0  0  0  0  0  0  0
   22.7723  -15.6860    4.6767 H   0  0  0  0  0  0  0  0  0  0  0  0
   22.7732  -15.0958    6.3479 H   0  0  0  0  0  0  0  0  0  0  0  0
   25.0344  -14.1078    5.9978 H   0  0  0  0  0  0  0  0  0  0  0  0
   25.0336  -14.6980    4.3266 H   0  0  0  0  0  0  0  0  0  0  0  0
   24.7979  -17.0378    5.1539 H   0  0  0  0  0  0  0  0  0  0  0  0
   24.8009  -16.4468    6.8248 H   0  0  0  0  0  0  0  0  0  0  0  0
   27.0622  -15.4598    6.4715 H   0  0  0  0  0  0  0  0  0  0  0  0
   27.0591  -16.0509    4.8006 H   0  0  0  0  0  0  0  0  0  0  0  0
   26.8245  -18.3900    5.6284 H   0  0  0  0  0  0  0  0  0  0  0  0
   26.8276  -17.7990    7.2993 H   0  0  0  0  0  0  0  0  0  0  0  0
   29.0889  -16.8121    6.9460 H   0  0  0  0  0  0  0  0  0  0  0  0
   29.0857  -17.4031    5.2751 H   0  0  0  0  0  0  0  0  0  0  0  0
   28.8512  -19.7423    6.1030 H   0  0  0  0  0  0  0  0  0  0  0  0
   28.8544  -19.1513    7.7738 H   0  0  0  0  0  0  0  0  0  0  0  0
   31.1157  -18.1645    7.4205 H   0  0  0  0  0  0  0  0  0  0  0  0
   31.1126  -18.7555    5.7496 H   0  0  0  0  0  0  0  0  0  0  0  0
   30.8784  -21.0948    6.5776 H   0  0  0  0  0  0  0  0  0  0  0  0
   30.8816  -20.5038    8.2484 H   0  0  0  0  0  0  0  0  0  0  0  0
   33.1433  -19.5174    7.8953 H   0  0  0  0  0  0  0  0  0  0  0  0
   33.1402  -20.1086    6.2245 H   0  0  0  0  0  0  0  0  0  0  0  0
   32.9071  -22.4461    7.0507 H   0  0  0  0  0  0  0  0  0  0  0  0
   32.9085  -21.8574    8.7227 H   0  0  0  0  0  0  0  0  0  0  0  0
   35.1701  -20.8716    8.3832 H   0  0  0  0  0  0  0  0  0  0  0  0
   35.1714  -21.4582    6.6995 H   0  0  0  0  0  0  0  0  0  0  0  0
   34.8541  -23.6758    7.5029 H   0  0  0  0  0  0  0  0  0  0  0  0
   37.0145  -22.2643    8.7866 H   0  0  0  0  0  0  0  0  0  0  0  0
   36.8589  -24.9912    7.9824 H   0  0  0  0  0  0  0  0  0  0  0  0
   38.9306  -24.0712    7.6132 H   0  0  0  0  0  0  0  0  0  0  0  0
   38.7793  -22.2597    9.1452 H   0  0  0  0  0  0  0  0  0  0  0  0
   37.6058  -23.4392   10.8561 H   0  0  0  0  0  0  0  0  0  0  0  0
   38.7264  -25.4566   10.6946 H   0  0  0  0  0  0  0  0  0  0  0  0
   40.8232  -24.6290   10.3051 H   0  0  0  0  0  0  0  0  0  0  0  0
   40.7171  -22.7915   11.7717 H   0  0  0  0  0  0  0  0  0  0  0  0
   39.5263  -23.8814   13.4870 H   0  0  0  0  0  0  0  0  0  0  0  0
   40.6020  -25.8888   13.3522 H   0  0  0  0  0  0  0  0  0  0  0  0
   42.6969  -25.1052   12.9528 H   0  0  0  0  0  0  0  0  0  0  0  0
   42.5720  -23.3047   14.3279 H   0  0  0  0  0  0  0  0  0  0  0  0
   41.4022  -24.3616   16.0834 H   0  0  0  0  0  0  0  0  0  0  0  0
   42.4038  -26.3846   15.9776 H   0  0  0  0  0  0  0  0  0  0  0  0
   44.6331  -25.6505   15.6658 H   0  0  0  0  0  0  0  0  0  0  0  0
   44.5671  -23.8184   17.0334 H   0  0  0  0  0  0  0  0  0  0  0  0
   43.3439  -24.7270   18.7129 H   0  0  0  0  0  0  0  0  0  0  0  0
   44.3531  -26.8548   18.6539 H   0  0  0  0  0  0  0  0  0  0  0  0
   46.4422  -26.1069   18.2589 H   0  0  0  0  0  0  0  0  0  0  0  0
   46.4521  -24.3160   19.6458 H   0  0  0  0  0  0  0  0  0  0  0  0
   45.2816  -25.2057   21.3892 H   0  0  0  0  0  0  0  0  0  0  0  0
   46.1378  -27.2798   21.3270 H   0  0  0  0  0  0  0  0  0  0  0  0
   48.3037  -26.6481   20.8447 H   0  0  0  0  0  0  0  0  0  0  0  0
   48.3563  -24.7819   22.2137 H   0  0  0  0  0  0  0  0  0  0  0  0
   47.1919  -25.6419   24.0303 H   0  0  0  0  0  0  0  0  0  0  0  0
   48.0332  -27.7550   24.0214 H   0  0  0  0  0  0  0  0  0  0  0  0
   50.2758  -27.1457   23.5785 H   0  0  0  0  0  0  0  0  0  0  0  0
   50.3173  -25.2551   24.8799 H   0  0  0  0  0  0  0  0  0  0  0  0
   49.1336  -26.0311   26.6643 H   0  0  0  0  0  0  0  0  0  0  0  0
   49.9316  -28.1453   26.7136 H   0  0  0  0  0  0  0  0  0  0  0  0
   52.1019  -27.6144   26.1726 H   0  0  0  0  0  0  0  0  0  0  0  0
   52.2034  -25.6933   27.4133 H   0  0  0  0  0  0  0  0  0  0  0  0
   51.0394  -26.4156   29.3014 H   0  0  0  0  0  0  0  0  0  0  0  0
   51.8830  -28.5398   29.3933 H   0  0  0  0  0  0  0  0  0  0  0  0
   54.0302  -28.0110   28.8975 H   0  0  0  0  0  0  0  0  0  0  0  0
   54.1977  -26.0864   30.0134 H   0  0  0  0  0  0  0  0  0  0  0  0
   52.9863  -26.7169   31.8915 H   0  0  0  0  0  0  0  0  0  0  0  0
   53.8115  -28.8722   32.0326 H   0  0  0  0  0  0  0  0  0  0  0  0
   55.9481  -28.4317   31.5015 H   0  0  0  0  0  0  0  0  0  0  0  0
   56.1240  -26.5146   32.6692 H   0  0  0  0  0  0  0  0  0  0  0  0
   54.9203  -27.0975   34.4744 H   0  0  0  0  0  0  0  0  0  0  0  0
   55.6719  -29.2142   34.6910 H   0  0  0  0  0  0  0  0  0  0  0  0
   57.8482  -28.8471   34.1923 H   0  0  0  0  0  0  0  0  0  0  0  0
   58.1206  -26.8965   35.2929 H   0  0  0  0  0  0  0  0  0  0  0  0
   56.8970  -27.4113   37.1283 H   0  0  0  0  0  0  0  0  0  0  0  0
   59.0812  -29.0801   37.7734 H   0  0  0  0  0  0  0  0  0  0  0  0
   57.5963  -29.5600   37.3522 H   0  0  0  0  0  0  0  0  0  0  0  0
  1  2  1  0  0  0  0
  1 82  1  0  0  0  0
  2  3  1  0  0  0  0
  2 83  1  0  0  0  0
  2 84  1  0  0  0  0
  3  4  1  0  0  0  0
  3 85  1  0  0  0  0
  3 86  1  0  0  0  0
  4  5  1  0  0  0  0
  4 87  1  0  0  0  0
  4 88  1  0  0  0  0
  5  6  1  0  0  0  0
  5 89  1  0  0  0  0
  5 90  1  0  0  0  0
  6  7  1  0  0  0  0
  6 91  1  0  0  0  0
  6 92  1  0  0  0  0
  7  8  1  0  0  0  0
  7 93  1  0  0  0  0
  7 94  1  0  0  0  0
  8  9  1  0  0  0  0
  8 95  1  0  0  0  0
  8 96  1  0  0  0  0
  9 10  1  0  0  0  0
  9 97  1  0  0  0  0
  9 98  1  0  0  0  0
 10 11  1  0  0  0  0
 10 99  1  0  0  0  0
 10100  1  0  0  0  0
 11 12  1  0  0  0  0
 11101  1  0  0  0  0
 11102  1  0  0  0  0
 12 13  1  0  0  0  0
 12103  1  0  0  0  0
 12104  1  0  0  0  0
 13 14  1  0  0  0  0
 13105  1  0  0  0  0
 13106  1  0  0  0  0
 14 15  1  0  0  0  0
 14107  1  0  0  0  0
 14108  1  0  0  0  0
 15 16  1  0  0  0  0
 15109  1  0  0  0  0
 15110  1  0  0  0  0
 16 17  1  0  0  0  0
 16111  1  0  0  0  0
 16112  1  0  0  0  0
 17 18  1  0  0  0  0
 17113  1  0  0  0  0
 17114  1  0  0  0  0
 18 19  1  0  0  0  0
 18115  1  0  0  0  0
 18116  1  0  0  0  0
 19 20  1  0  0  0  0
 19117  1  0  0  0  0
 19118  1  0  0  0  0
 20 21  1  0  0  0  0
 20119  1  0  0  0  0
 20120  1  0  0  0  0
 21 22  1  0  0  0  0
 21121  1  0  0  0  0
 21122  1  0  0  0  0
 22 23  1  0  0  0  0
 22123  1  0  0  0  0
 22124  1  0  0  0  0
 23 24  1  0  0  0  0
 23125  1  0  0  0  0
 23126  1  0  0  0  0
 24 25  1  0  0  0  0
 24127  1  0  0  0  0
 24128  1  0  0  0  0
 25 26  1  0  0  0  0
 25129  1  0  0  0  0
 25130  1  0  0  0  0
 26 27  1  0  0  0  0
 26131  1  0  0  0  0
 26132  1  0  0  0  0
 27 28  1  0  0  0  0
 27133  1  0  0  0  0
 27134  1  0  0  0  0
 28 29  1  0  0  0  0
 28135  1  0  0  0  0
 28136  1  0  0  0  0
 29 30  1  0  0  0  0
 29137  1  0  0  0  0
 29138  1  0  0  0  0
 30 31  1  0  0  0  0
 30139  1  0  0  0  0
 30140  1  0  0  0  0
 31 32  1  0  0  0  0
 31141  1  0  0  0  0
 31142  1  0  0  0  0
 32 33  1  0  0  0  0
 32143  1  0  0  0  0
 32144  1  0  0  0  0
 33 34  1  0  0  0  0
 33145  1  0  0  0  0
 33146  1  0  0  0  0
 34 35  1  0  0  0  0
 34147  1  0  0  0  0
 34148  1  0  0  0  0
 35 36  1  0  0  0  0
 35149  1  0  0  0  0
 36 37  1  0  0  0  0
 36150  1  0  0  0  0
 37 38  1  0  0  0  0
 37151  1  0  0  0  0
 38 39  1  0  0  0  0
 38152  1  0  0  0  0
 39 40  1  0  0  0  0
 39153  1  0  0  0  0
 40 41  1  0  0  0  0
 40154  1  0  0  0  0
 41 42  1  0  0  0  0
 41155  1  0  0  0  0
 42 43  1  0  0  0  0
 42156  1  0  0  0  0
 43 44  1  0  0  0  0
 43157  1  0  0  0  0
 44 45  1  0  0  0  0
 44158  1  0  0  0  0
 45 46  1  0  0  0  0
 45159  1  0  0  0  0
 46 47  1  0  0  0  0
 46160  1  0  0  0  0
 47 48  1  0  0  0  0
 47161  1  0  0  0  0
 48 49  1  0  0  0  0
 48162  1  0  0  0  0
 49 50  1  0  0  0  0
 49163  1  0  0  0  0
 50 51  1  0  0  0  0
 50164  1  0  0  0  0
 51 52  1  0  0  0  0
 51165  1  0  0  0  0
 52 53  1  0  0  0  0
 52166  1  0  0  0  0
 53 54  1  0  0  0  0
 53167  1  0  0  0  0
 54 55  1  0  0  0  0
 54168  1  0  0  0  0
 55 56  1  0  0  0  0
 55169  1  0  0  0  0
 56 57  1  0  0  0  0
 56170  1  0  0  0  0
 57 58  1  0  0  0  0
 57171  1  0  0  0  0
 58 59  1  0  0  0  0
 58172  1  0  0  0  0
 59 60  1  0  0  0  0
 59173  1  0  0  0  0
 60 61  1  0  0  0  0
 60174  1  0  0  0  0
 61 62  1  0  0  0  0
 61175  1  0  0  0  0
 62 63  1  0  0  0  0
 62176  1  0  0  0  0
 63 64  1  0  0  0  0
 63177  1  0  0  0  0
 64 65  1  0  0  0  0
 64178  1  0  0  0  0
 65 66  1  0  0  0  0
 65179  1  0  0  0  0
 66 67  1  0  0  0  0
 66180  1  0  0  0  0
 67 68  1  0  0  0  0
 67181  1  0  0  0  0
 68 69  1  0  0  0  0
 68182  1  0  0  0  0
 69 70  1  0  0  0  0
 69183  1  0  0  0  0
 70 71  1  0  0  0  0
 70184  1  0  0  0  0
 71 72  1  0  0  0  0
 71185  1  0  0  0  0
 72 73  1  0  0  0  0
 72186  1  0  0  0  0
 73 74  1  0  0  0  0
 73187  1  0  0  0  0
 74 75  1  0  0  0  0
 74188  1  0  0  0  0
 75 76  1  0  0  0  0
 75189  1  0  0  0  0
 76 77  1  0  0  0  0
 76190  1  0  0  0  0
 77 78  1  0  0  0  0
 77191  1  0  0  0  0
 78 79  1  0  0  0  0
 78192  1  0  0  0  0
 79 80  1  0  0  0  0
 79193  1  0  0  0  0
 80 81  1  0  0  0  0
 80194  1  0  0  0  0
 81195  1  0  0  0  0
 81196  1  0  0  0  0
M  END
$$$$
