
 OpenBabel04232216433D

 41 42  0  0  0  0  0  0  0  0999 V2000
    7.3045   -6.8980    3.9892 C   0  0  0  0  0  0  0  0  0  0  0  0
    6.4136   -6.4992    5.1509 C   0  0  0  0  0  3  0  0  0  0  0  0
    5.1486   -5.8481    4.8070 C   0  0  0  0  0  0  0  0  0  0  0  0
    5.1749   -4.5308    4.5451 C   0  0  0  0  0  0  0  0  0  0  0  0
    4.8507   -3.9300    3.1629 C   0  0  0  0  0  0  0  0  0  0  0  0
    5.2047   -2.4079    3.2092 C   0  0  0  0  0  0  0  0  0  0  0  0
    4.3994   -1.5950    4.2341 C   0  0  0  0  0  0  0  0  0  0  0  0
    4.8257   -0.1303    4.2208 C   0  0  0  0  0  0  0  0  0  0  0  0
    3.5167   -4.1243    2.3997 C   0  0  0  0  0  0  0  0  0  0  0  0
    2.4864   -5.1027    2.9303 C   0  0  0  0  0  0  0  0  0  0  0  0
    1.3459   -5.2061    1.9238 C   0  0  0  0  0  0  0  0  0  0  0  0
    5.7938   -4.7013    2.3082 N   0  0  0  0  0  0  0  0  0  0  0  0
    6.6068   -4.0554    1.4008 N   0  0  0  0  0  0  0  0  0  0  0  0
    7.7722   -3.8252    1.8904 C   0  0  0  0  0  0  0  0  0  0  0  0
    8.7866   -3.4676    1.0545 O   0  0  0  0  0  0  0  0  0  0  0  0
    9.9354   -3.0218    1.8379 O   0  0  0  0  0  0  0  0  0  0  0  0
   10.7793   -4.0565    2.2797 N   0  0  0  0  0  0  0  0  0  0  0  0
   10.2214   -4.9367    3.0782 C   0  0  0  0  0  0  0  0  0  0  0  0
    8.1642   -3.9291    3.3312 C   0  0  0  0  0  0  0  0  0  0  0  0
    8.7881   -5.0951    3.5478 C   0  0  0  0  0  0  0  0  0  0  0  0
    8.2793   -6.3522    3.3253 N   0  0  0  0  0  0  0  0  0  0  0  0
    7.0479   -7.9086    3.6282 H   0  0  0  0  0  0  0  0  0  0  0  0
    6.2720   -7.3389    5.8347 H   0  0  0  0  0  0  0  0  0  0  0  0
    4.4044   -6.5144    4.3840 H   0  0  0  0  0  0  0  0  0  0  0  0
    5.9943   -3.9941    5.0293 H   0  0  0  0  0  0  0  0  0  0  0  0
    5.0813   -1.9677    2.2115 H   0  0  0  0  0  0  0  0  0  0  0  0
    6.2578   -2.2595    3.4649 H   0  0  0  0  0  0  0  0  0  0  0  0
    4.5637   -1.9838    5.2448 H   0  0  0  0  0  0  0  0  0  0  0  0
    3.3284   -1.6634    4.0274 H   0  0  0  0  0  0  0  0  0  0  0  0
    5.9032   -0.0293    4.3867 H   0  0  0  0  0  0  0  0  0  0  0  0
    4.3106    0.4221    5.0129 H   0  0  0  0  0  0  0  0  0  0  0  0
    4.5811    0.3381    3.2618 H   0  0  0  0  0  0  0  0  0  0  0  0
    3.7578   -4.4593    1.3761 H   0  0  0  0  0  0  0  0  0  0  0  0
    3.0320   -3.1548    2.2418 H   0  0  0  0  0  0  0  0  0  0  0  0
    2.1089   -4.7608    3.8996 H   0  0  0  0  0  0  0  0  0  0  0  0
    2.9065   -6.1031    3.0473 H   0  0  0  0  0  0  0  0  0  0  0  0
    0.9452   -4.2169    1.6811 H   0  0  0  0  0  0  0  0  0  0  0  0
    0.5392   -5.8272    2.3150 H   0  0  0  0  0  0  0  0  0  0  0  0
    1.7046   -5.6598    0.9911 H   0  0  0  0  0  0  0  0  0  0  0  0
   10.8743   -5.7427    3.4136 H   0  0  0  0  0  0  0  0  0  0  0  0
    8.6187   -2.9907    3.6532 H   0  0  0  0  0  0  0  0  0  0  0  0
  1  2  1  0  0  0  0
  1 21  2  3  0  0  0
  1 22  1  0  0  0  0
  2  3  1  0  0  0  0
  2 23  1  0  0  0  0
  3  4  2  3  0  0  0
  3 24  1  0  0  0  0
  4  5  1  0  0  0  0
  4 25  1  0  0  0  0
  5  6  1  0  0  0  0
  5  9  1  0  0  0  0
  5 12  2  0  0  0  0
  6  7  1  0  0  0  0
  6 26  1  0  0  0  0
  6 27  1  0  0  0  0
  7  8  1  0  0  0  0
  7 28  1  0  0  0  0
  7 29  1  0  0  0  0
  8 30  1  0  0  0  0
  8 31  1  0  0  0  0
  8 32  1  0  0  0  0
  9 10  1  0  0  0  0
  9 33  1  0  0  0  0
  9 34  1  0  0  0  0
 10 11  1  0  0  0  0
 10 35  1  0  0  0  0
 10 36  1  0  0  0  0
 11 37  1  0  0  0  0
 11 38  1  0  0  0  0
 11 39  1  0  0  0  0
 12 13  1  0  0  0  0
 13 14  2  3  0  0  0
 14 15  1  0  0  0  0
 14 19  1  0  0  0  0
 15 16  1  0  0  0  0
 16 17  1  0  0  0  0
 17 18  2  0  0  0  0
 18 20  1  0  0  0  0
 18 40  1  0  0  0  0
 19 20  2  0  0  0  0
 19 41  1  0  0  0  0
 20 21  1  0  0  0  0
M  END
$$$$
