
 OpenBabel04232217033D

 96 95  0  0  0  0  0  0  0  0999 V2000
   25.0307   16.2018    2.5429 S   0  0  0  0  0  0  0  0  0  0  0  0
   24.5709   17.6657    3.2141 O   0  0  0  0  0  0  0  0  0  0  0  0
   22.9683   17.9898    2.8615 S   0  0  0  0  0  0  0  0  0  0  0  0
   22.0986   16.6470    3.7844 C   0  0  0  0  0  0  0  0  0  0  0  0
   20.5823   16.7490    3.5546 C   0  0  0  0  0  0  0  0  0  0  0  0
   20.2040   16.6608    2.1286 N   0  0  0  0  0  0  0  0  0  0  0  0
   20.5963   15.3675    1.6463 N   0  0  0  0  0  0  0  0  0  0  0  0
   20.3011   15.2874    0.2526 N   0  0  0  0  0  0  0  0  0  0  0  0
   20.9546   16.3115   -0.4793 N   0  0  0  0  0  0  0  0  0  0  0  0
   22.3731   16.2170   -0.3805 N   0  0  0  0  0  0  0  0  0  0  0  0
   22.8588   14.9460   -0.8311 N   0  0  0  0  0  0  0  0  0  0  0  0
   22.5483   14.7279   -2.2123 N   0  0  0  0  0  0  0  0  0  0  0  0
   23.0858   13.2702   -2.7892 S   0  0  0  0  0  0  0  0  0  0  0  0
   22.3852   12.0126   -1.9646 N   0  0  0  0  0  0  0  0  0  0  0  0
   20.7291   11.9095   -2.0995 S   0  0  0  0  0  0  0  0  0  0  0  0
   20.2423   11.7116   -3.6845 N   0  0  0  0  0  0  0  0  0  0  0  0
   20.8296   10.2980   -4.3525 S   0  0  0  0  0  0  0  0  0  0  0  0
   20.0999   10.2450   -6.2952 S   0  0  0  0  0  0  0  0  0  0  0  0
   20.8171   11.8606   -7.3866 S   0  0  0  0  0  0  0  0  0  0  0  0
   22.8966   11.8309   -7.4463 S   0  0  0  0  0  0  0  0  0  0  0  0
   23.5719   13.5263   -8.5051 S   0  0  0  0  0  0  0  0  0  0  0  0
   25.6834   13.5173   -8.5000 S   0  0  0  0  0  0  0  0  0  0  0  0
   26.3748   15.1988   -9.5706 S   0  0  0  0  0  0  0  0  0  0  0  0
   28.4845   15.1878   -9.5635 S   0  0  0  0  0  0  0  0  0  0  0  0
   29.1752   16.8694  -10.6336 S   0  0  0  0  0  0  0  0  0  0  0  0
   31.2846   16.8582  -10.6265 S   0  0  0  0  0  0  0  0  0  0  0  0
   31.9752   18.5398  -11.6965 S   0  0  0  0  0  0  0  0  0  0  0  0
   34.0846   18.5286  -11.6894 S   0  0  0  0  0  0  0  0  0  0  0  0
   34.7752   20.2102  -12.7594 S   0  0  0  0  0  0  0  0  0  0  0  0
   36.8845   20.1990  -12.7523 S   0  0  0  0  0  0  0  0  0  0  0  0
   37.5752   21.8806  -13.8223 S   0  0  0  0  0  0  0  0  0  0  0  0
   39.6845   21.8694  -13.8151 S   0  0  0  0  0  0  0  0  0  0  0  0
   40.3752   23.5510  -14.8851 S   0  0  0  0  0  0  0  0  0  0  0  0
   42.4845   23.5399  -14.8780 S   0  0  0  0  0  0  0  0  0  0  0  0
   43.1752   25.2214  -15.9480 S   0  0  0  0  0  0  0  0  0  0  0  0
   45.2845   25.2103  -15.9409 S   0  0  0  0  0  0  0  0  0  0  0  0
   45.9751   26.8919  -17.0109 S   0  0  0  0  0  0  0  0  0  0  0  0
   48.0845   26.8807  -17.0038 S   0  0  0  0  0  0  0  0  0  0  0  0
   48.7751   28.5623  -18.0738 S   0  0  0  0  0  0  0  0  0  0  0  0
   50.8845   28.5511  -18.0667 S   0  0  0  0  0  0  0  0  0  0  0  0
   51.5751   30.2327  -19.1367 S   0  0  0  0  0  0  0  0  0  0  0  0
   53.6845   30.2215  -19.1296 S   0  0  0  0  0  0  0  0  0  0  0  0
   54.3751   31.9031  -20.1996 S   0  0  0  0  0  0  0  0  0  0  0  0
   56.4845   31.8919  -20.1925 S   0  0  0  0  0  0  0  0  0  0  0  0
   57.1751   33.5735  -21.2625 S   0  0  0  0  0  0  0  0  0  0  0  0
   59.2845   33.5623  -21.2554 S   0  0  0  0  0  0  0  0  0  0  0  0
   59.9751   35.2439  -22.3254 S   0  0  0  0  0  0  0  0  0  0  0  0
   62.0845   35.2327  -22.3183 S   0  0  0  0  0  0  0  0  0  0  0  0
   62.7751   36.9143  -23.3883 S   0  0  0  0  0  0  0  0  0  0  0  0
   64.8845   36.9031  -23.3812 S   0  0  0  0  0  0  0  0  0  0  0  0
   65.5751   38.5847  -24.4512 S   0  0  0  0  0  0  0  0  0  0  0  0
   67.6845   38.5735  -24.4441 S   0  0  0  0  0  0  0  0  0  0  0  0
   68.3751   40.2551  -25.5141 S   0  0  0  0  0  0  0  0  0  0  0  0
   70.4845   40.2440  -25.5070 S   0  0  0  0  0  0  0  0  0  0  0  0
   71.1751   41.9255  -26.5770 S   0  0  0  0  0  0  0  0  0  0  0  0
   73.2844   41.9144  -26.5699 S   0  0  0  0  0  0  0  0  0  0  0  0
   73.9751   43.5959  -27.6399 S   0  0  0  0  0  0  0  0  0  0  0  0
   76.0844   43.5848  -27.6328 S   0  0  0  0  0  0  0  0  0  0  0  0
   76.7751   45.2664  -28.7028 S   0  0  0  0  0  0  0  0  0  0  0  0
   78.8844   45.2552  -28.6957 S   0  0  0  0  0  0  0  0  0  0  0  0
   79.5751   46.9368  -29.7657 S   0  0  0  0  0  0  0  0  0  0  0  0
   81.6844   46.9256  -29.7585 S   0  0  0  0  0  0  0  0  0  0  0  0
   82.3750   48.6072  -30.8286 S   0  0  0  0  0  0  0  0  0  0  0  0
   84.4844   48.5960  -30.8214 S   0  0  0  0  0  0  0  0  0  0  0  0
   85.1750   50.2776  -31.8914 S   0  0  0  0  0  0  0  0  0  0  0  0
   87.2844   50.2664  -31.8843 S   0  0  0  0  0  0  0  0  0  0  0  0
   87.9750   51.9480  -32.9543 S   0  0  0  0  0  0  0  0  0  0  0  0
   90.0844   51.9368  -32.9472 S   0  0  0  0  0  0  0  0  0  0  0  0
   90.7750   53.6184  -34.0172 S   0  0  0  0  0  0  0  0  0  0  0  0
   92.8844   53.6072  -34.0101 S   0  0  0  0  0  0  0  0  0  0  0  0
   93.5750   55.2888  -35.0801 S   0  0  0  0  0  0  0  0  0  0  0  0
   95.6844   55.2776  -35.0730 S   0  0  0  0  0  0  0  0  0  0  0  0
   96.3750   56.9592  -36.1430 S   0  0  0  0  0  0  0  0  0  0  0  0
   98.4844   56.9481  -36.1359 S   0  0  0  0  0  0  0  0  0  0  0  0
   99.1750   58.6295  -37.2060 S   0  0  0  0  0  0  0  0  0  0  0  0
  101.2834   58.6185  -37.1983 S   0  0  0  0  0  0  0  0  0  0  0  0
  101.9726   60.2986  -38.2678 S   0  0  0  0  0  0  0  0  0  0  0  0
  104.0733   60.2676  -38.2688 S   0  0  0  0  0  0  0  0  0  0  0  0
  104.7659   61.9609  -39.2733 S   0  0  0  0  0  0  0  0  0  0  0  0
  106.8533   61.9040  -39.2928 S   0  0  0  0  0  0  0  0  0  0  0  0
  107.4772   62.0536  -37.3320 S   0  0  0  0  0  0  0  0  0  0  0  0
   26.3388   16.1307    2.8591 H   0  0  0  0  0  0  0  0  0  0  0  0
   22.2991   16.7023    4.8547 H   0  0  0  0  0  0  0  0  0  0  0  0
   22.4248   15.6568    3.4310 H   0  0  0  0  0  0  0  0  0  0  0  0
   20.2154   17.7147    3.9300 H   0  0  0  0  0  0  0  0  0  0  0  0
   20.0543   15.9804    4.1193 H   0  0  0  0  0  0  0  0  0  0  0  0
   20.7253   17.3318    1.5902 H   0  0  0  0  0  0  0  0  0  0  0  0
   20.1592   14.6194    2.0913 H   0  0  0  0  0  0  0  0  0  0  0  0
   19.3137   15.3660    0.1207 H   0  0  0  0  0  0  0  0  0  0  0  0
   20.6389   17.2178   -0.1693 H   0  0  0  0  0  0  0  0  0  0  0  0
   22.6227   16.3049    0.6111 H   0  0  0  0  0  0  0  0  0  0  0  0
   22.3968   14.2301   -0.2848 H   0  0  0  0  0  0  0  0  0  0  0  0
   22.9431   15.5156   -2.7252 H   0  0  0  0  0  0  0  0  0  0  0  0
   22.6615   12.0788   -0.9806 H   0  0  0  0  0  0  0  0  0  0  0  0
   20.5288   12.5213   -4.2294 H   0  0  0  0  0  0  0  0  0  0  0  0
  108.8278   62.0244  -37.4058 H   0  0  0  0  0  0  0  0  0  0  0  0
  1  2  1  0  0  0  0
  1 82  1  0  0  0  0
  2  3  1  0  0  0  0
  3  4  1  0  0  0  0
  4  5  1  0  0  0  0
  4 83  1  0  0  0  0
  4 84  1  0  0  0  0
  5  6  1  0  0  0  0
  5 85  1  0  0  0  0
  5 86  1  0  0  0  0
  6  7  1  0  0  0  0
  6 87  1  0  0  0  0
  7  8  1  0  0  0  0
  7 88  1  0  0  0  0
  8  9  1  0  0  0  0
  8 89  1  0  0  0  0
  9 10  1  0  0  0  0
  9 90  1  0  0  0  0
 10 11  1  0  0  0  0
 10 91  1  0  0  0  0
 11 12  1  0  0  0  0
 11 92  1  0  0  0  0
 12 13  1  0  0  0  0
 12 93  1  0  0  0  0
 13 14  1  0  0  0  0
 14 15  1  0  0  0  0
 14 94  1  0  0  0  0
 15 16  1  0  0  0  0
 16 17  1  0  0  0  0
 16 95  1  0  0  0  0
 17 18  1  0  0  0  0
 18 19  1  0  0  0  0
 19 20  1  0  0  0  0
 20 21  1  0  0  0  0
 21 22  1  0  0  0  0
 22 23  1  0  0  0  0
 23 24  1  0  0  0  0
 24 25  1  0  0  0  0
 25 26  1  0  0  0  0
 26 27  1  0  0  0  0
 27 28  1  0  0  0  0
 28 29  1  0  0  0  0
 29 30  1  0  0  0  0
 30 31  1  0  0  0  0
 31 32  1  0  0  0  0
 32 33  1  0  0  0  0
 33 34  1  0  0  0  0
 34 35  1  0  0  0  0
 35 36  1  0  0  0  0
 36 37  1  0  0  0  0
 37 38  1  0  0  0  0
 38 39  1  0  0  0  0
 39 40  1  0  0  0  0
 40 41  1  0  0  0  0
 41 42  1  0  0  0  0
 42 43  1  0  0  0  0
 43 44  1  0  0  0  0
 44 45  1  0  0  0  0
 45 46  1  0  0  0  0
 46 47  1  0  0  0  0
 47 48  1  0  0  0  0
 48 49  1  0  0  0  0
 49 50  1  0  0  0  0
 50 51  1  0  0  0  0
 51 52  1  0  0  0  0
 52 53  1  0  0  0  0
 53 54  1  0  0  0  0
 54 55  1  0  0  0  0
 55 56  1  0  0  0  0
 56 57  1  0  0  0  0
 57 58  1  0  0  0  0
 58 59  1  0  0  0  0
 59 60  1  0  0  0  0
 60 61  1  0  0  0  0
 61 62  1  0  0  0  0
 62 63  1  0  0  0  0
 63 64  1  0  0  0  0
 64 65  1  0  0  0  0
 65 66  1  0  0  0  0
 66 67  1  0  0  0  0
 67 68  1  0  0  0  0
 68 69  1  0  0  0  0
 69 70  1  0  0  0  0
 70 71  1  0  0  0  0
 71 72  1  0  0  0  0
 72 73  1  0  0  0  0
 73 74  1  0  0  0  0
 74 75  1  0  0  0  0
 75 76  1  0  0  0  0
 76 77  1  0  0  0  0
 77 78  1  0  0  0  0
 78 79  1  0  0  0  0
 79 80  1  0  0  0  0
 80 81  1  0  0  0  0
 81 96  1  0  0  0  0
M  END
$$$$
