
 OpenBabel04232216563D

232232  0  0  1  0  0  0  0  0999 V2000
    1.1642   -0.0356   -0.0656 C   0  0  0  0  0  0  0  0  0  0  0  0
    2.6031    0.0207   -0.0388 N   0  0  0  0  0  0  0  0  0  0  0  0
    3.4630   -1.0286    0.1941 C   0  0  0  0  0  0  0  0  0  0  0  0
    4.6622   -0.6135    0.5833 C   0  0  0  0  0  0  0  0  0  0  0  0
    4.6520    0.8829    0.7309 C   0  0  0  0  0  0  0  0  0  0  0  0
    3.3419    1.2974   -0.0018 C   0  0  3  0  0  0  0  0  0  0  0  0
    3.6228    1.7665   -1.4395 C   0  0  0  0  0  0  0  0  0  0  0  0
    4.5490    2.9727   -1.4552 C   0  0  0  0  0  0  0  0  0  0  0  0
    4.7988    3.3931   -2.7964 O   0  0  0  0  0  0  0  0  0  0  0  0
    5.6764    4.5119   -2.7816 C   0  0  0  0  0  0  0  0  0  0  0  0
    5.9332    4.9387   -4.2100 C   0  0  0  0  0  0  0  0  0  0  0  0
    6.8623    6.1405   -4.2254 C   0  0  0  0  0  0  0  0  0  0  0  0
    7.1298    6.5854   -5.6510 C   0  0  0  0  0  0  0  0  0  0  0  0
    8.0609    7.7854   -5.6548 C   0  0  0  0  0  0  0  0  0  0  0  0
    8.3245    8.2292   -7.0817 C   0  0  0  0  0  0  0  0  0  0  0  0
    9.2522    9.4292   -7.0872 C   0  0  0  0  0  0  0  0  0  0  0  0
    9.5173    9.8697   -8.5146 C   0  0  0  0  0  0  0  0  0  0  0  0
   10.4443   11.0706   -8.5193 C   0  0  0  0  0  0  0  0  0  0  0  0
   10.7109   11.5093   -9.9467 C   0  0  0  0  0  0  0  0  0  0  0  0
   11.6376   12.7099   -9.9515 C   0  0  0  0  0  0  0  0  0  0  0  0
   11.9041   13.1485  -11.3788 C   0  0  0  0  0  0  0  0  0  0  0  0
   12.8308   14.3491  -11.3837 C   0  0  0  0  0  0  0  0  0  0  0  0
   13.0973   14.7877  -12.8110 C   0  0  0  0  0  0  0  0  0  0  0  0
   14.0241   15.9883  -12.8158 C   0  0  0  0  0  0  0  0  0  0  0  0
   14.2905   16.4268  -14.2431 C   0  0  0  0  0  0  0  0  0  0  0  0
   15.2172   17.6274  -14.2479 C   0  0  0  0  0  0  0  0  0  0  0  0
   15.4836   18.0658  -15.6751 C   0  0  0  0  0  0  0  0  0  0  0  0
   16.4104   19.2664  -15.6800 C   0  0  0  0  0  0  0  0  0  0  0  0
   16.6752   19.7062  -17.1071 C   0  0  0  0  0  0  0  0  0  0  0  0
   17.6019   20.9068  -17.1120 C   0  0  0  0  0  0  0  0  0  0  0  0
   17.8652   21.3477  -18.5391 C   0  0  0  0  0  0  0  0  0  0  0  0
   18.7919   22.5483  -18.5440 C   0  0  0  0  0  0  0  0  0  0  0  0
   19.0535   22.9905  -19.9709 C   0  0  0  0  0  0  0  0  0  0  0  0
   19.9802   24.1911  -19.9758 C   0  0  0  0  0  0  0  0  0  0  0  0
   20.2435   24.6321  -21.4028 C   0  0  0  0  0  0  0  0  0  0  0  0
   21.1718   25.8314  -21.4078 C   0  0  0  0  0  0  0  0  0  0  0  0
   21.4335   26.2736  -22.8347 C   0  0  0  0  0  0  0  0  0  0  0  0
   22.3617   27.4729  -22.8397 C   0  0  0  0  0  0  0  0  0  0  0  0
   22.6234   27.9152  -24.2666 C   0  0  0  0  0  0  0  0  0  0  0  0
   23.5517   29.1145  -24.2716 C   0  0  0  0  0  0  0  0  0  0  0  0
   23.8134   29.5567  -25.6985 C   0  0  0  0  0  0  0  0  0  0  0  0
   24.7417   30.7560  -25.7035 C   0  0  0  0  0  0  0  0  0  0  0  0
   25.0033   31.1983  -27.1304 C   0  0  0  0  0  0  0  0  0  0  0  0
   25.9300   32.3988  -27.1354 C   0  0  0  0  0  0  0  0  0  0  0  0
   26.1901   32.8422  -28.5622 C   0  0  0  0  0  0  0  0  0  0  0  0
   27.1184   34.0416  -28.5672 C   0  0  0  0  0  0  0  0  0  0  0  0
   27.3769   34.4863  -29.9939 C   0  0  0  0  0  0  0  0  0  0  0  0
   28.3036   35.6868  -29.9988 C   0  0  0  0  0  0  0  0  0  0  0  0
   28.5621   36.1315  -31.4255 C   0  0  0  0  0  0  0  0  0  0  0  0
   29.4887   37.3321  -31.4305 C   0  0  0  0  0  0  0  0  0  0  0  0
   29.7472   37.7768  -32.8572 C   0  0  0  0  0  0  0  0  0  0  0  0
   30.6723   38.9785  -32.8620 C   0  0  0  0  0  0  0  0  0  0  0  0
   30.9308   39.4233  -34.2887 C   0  0  0  0  0  0  0  0  0  0  0  0
   31.8543   40.6262  -34.2935 C   0  0  0  0  0  0  0  0  0  0  0  0
   32.1128   41.0709  -35.7202 C   0  0  0  0  0  0  0  0  0  0  0  0
   33.0379   42.2727  -35.7250 C   0  0  0  0  0  0  0  0  0  0  0  0
   33.2963   42.7174  -37.1517 C   0  0  0  0  0  0  0  0  0  0  0  0
   34.2198   43.9204  -37.1564 C   0  0  0  0  0  0  0  0  0  0  0  0
   34.4768   44.3664  -38.5831 C   0  0  0  0  0  0  0  0  0  0  0  0
   35.4018   45.5682  -38.5879 C   0  0  0  0  0  0  0  0  0  0  0  0
   35.6603   46.0129  -40.0147 C   0  0  0  0  0  0  0  0  0  0  0  0
   36.5870   47.2135  -40.0197 C   0  0  0  0  0  0  0  0  0  0  0  0
   36.8442   47.6596  -41.4461 C   0  0  0  0  0  0  0  0  0  0  0  0
   37.7723   48.8588  -41.4511 C   0  0  0  0  0  0  0  0  0  0  0  0
   38.0307   49.3033  -42.8778 C   0  0  0  0  0  0  0  0  0  0  0  0
   38.9576   50.5042  -42.8826 C   0  0  0  0  0  0  0  0  0  0  0  0
   39.2154   50.9480  -44.3102 C   0  0  0  0  0  0  0  0  0  0  0  0
   40.1409   52.1504  -44.3139 C   0  0  0  0  0  0  0  0  0  0  0  0
   40.3974   52.5956  -45.7415 C   0  0  0  0  0  0  0  0  0  0  0  0
   41.3238   53.7963  -45.7469 C   0  0  0  0  0  0  0  0  0  0  0  0
   41.5810   54.2454  -47.1722 C   0  0  0  0  0  0  0  0  0  0  0  0
   42.5059   55.4476  -47.1780 C   0  0  0  0  0  0  0  0  0  0  0  0
   42.7622   55.8953  -48.6045 C   0  0  0  0  0  0  0  0  0  0  0  0
   43.6856   57.0987  -48.6112 C   0  0  0  0  0  0  0  0  0  0  0  0
   43.9448   57.5476  -50.0379 C   0  0  0  0  0  0  0  0  0  0  0  0
   44.8700   58.7530  -50.0458 C   0  0  0  0  0  0  0  0  0  0  0  0
   45.1312   59.2046  -51.4740 C   0  0  0  0  0  0  0  0  0  0  0  0
   46.0597   60.4119  -51.4923 C   0  0  0  0  0  0  0  0  0  0  0  0
   46.3183   60.8599  -52.9177 C   0  0  0  0  0  0  0  0  0  0  0  0
    0.8078   -1.0712   -0.0004 H   0  0  0  0  0  0  0  0  0  0  0  0
    0.7739    0.3967   -0.9901 H   0  0  0  0  0  0  0  0  0  0  0  0
    0.7370    0.5100    0.7842 H   0  0  0  0  0  0  0  0  0  0  0  0
    3.1333   -2.0503    0.0416 H   0  0  0  0  0  0  0  0  0  0  0  0
    5.5136   -1.2416    0.7887 H   0  0  0  0  0  0  0  0  0  0  0  0
    5.5600    1.3114    0.3167 H   0  0  0  0  0  0  0  0  0  0  0  0
    4.6052    1.1529    1.7912 H   0  0  0  0  0  0  0  0  0  0  0  0
    2.8007    2.0667    0.5604 H   0  0  0  0  0  0  0  0  0  0  0  0
    2.6865    2.0181   -1.9521 H   0  0  0  0  0  0  0  0  0  0  0  0
    4.0680    0.9600   -2.0374 H   0  0  0  0  0  0  0  0  0  0  0  0
    5.5153    2.7442   -1.0020 H   0  0  0  0  0  0  0  0  0  0  0  0
    4.0925    3.7983   -0.8971 H   0  0  0  0  0  0  0  0  0  0  0  0
    6.6228    4.2448   -2.2943 H   0  0  0  0  0  0  0  0  0  0  0  0
    5.2075    5.3303   -2.2217 H   0  0  0  0  0  0  0  0  0  0  0  0
    4.9824    5.1773   -4.7013 H   0  0  0  0  0  0  0  0  0  0  0  0
    6.3687    4.1058   -4.7754 H   0  0  0  0  0  0  0  0  0  0  0  0
    7.8082    5.8873   -3.7319 H   0  0  0  0  0  0  0  0  0  0  0  0
    6.4133    6.9658   -3.6585 H   0  0  0  0  0  0  0  0  0  0  0  0
    6.1859    6.8441   -6.1449 H   0  0  0  0  0  0  0  0  0  0  0  0
    7.5804    5.7628   -6.2203 H   0  0  0  0  0  0  0  0  0  0  0  0
    9.0064    7.5286   -5.1626 H   0  0  0  0  0  0  0  0  0  0  0  0
    7.6127    8.6099   -5.0848 H   0  0  0  0  0  0  0  0  0  0  0  0
    7.3793    8.4858   -7.5746 H   0  0  0  0  0  0  0  0  0  0  0  0
    8.7748    7.4061   -7.6510 H   0  0  0  0  0  0  0  0  0  0  0  0
   10.1979    9.1744   -6.5933 H   0  0  0  0  0  0  0  0  0  0  0  0
    8.8017   10.2532   -6.5198 H   0  0  0  0  0  0  0  0  0  0  0  0
    8.5721   10.1252   -9.0089 H   0  0  0  0  0  0  0  0  0  0  0  0
    9.9688    9.0468   -9.0821 H   0  0  0  0  0  0  0  0  0  0  0  0
   11.3892   10.8159   -8.0237 H   0  0  0  0  0  0  0  0  0  0  0  0
    9.9924   11.8943   -7.9531 H   0  0  0  0  0  0  0  0  0  0  0  0
    9.7660   11.7640  -10.4423 H   0  0  0  0  0  0  0  0  0  0  0  0
   11.1628   10.6856  -10.5129 H   0  0  0  0  0  0  0  0  0  0  0  0
   12.5825   12.4552   -9.4559 H   0  0  0  0  0  0  0  0  0  0  0  0
   11.1857   13.5336   -9.3853 H   0  0  0  0  0  0  0  0  0  0  0  0
   10.9592   13.4032  -11.8745 H   0  0  0  0  0  0  0  0  0  0  0  0
   12.3560   12.3248  -11.9451 H   0  0  0  0  0  0  0  0  0  0  0  0
   13.7757   14.0944  -10.8880 H   0  0  0  0  0  0  0  0  0  0  0  0
   12.3789   15.1728  -10.8175 H   0  0  0  0  0  0  0  0  0  0  0  0
   12.1525   15.0424  -13.3067 H   0  0  0  0  0  0  0  0  0  0  0  0
   13.5492   13.9640  -13.3773 H   0  0  0  0  0  0  0  0  0  0  0  0
   14.9689   15.7336  -12.3201 H   0  0  0  0  0  0  0  0  0  0  0  0
   13.5722   16.8119  -12.2495 H   0  0  0  0  0  0  0  0  0  0  0  0
   13.3457   16.6814  -14.7388 H   0  0  0  0  0  0  0  0  0  0  0  0
   14.7423   15.6031  -14.8093 H   0  0  0  0  0  0  0  0  0  0  0  0
   16.1620   17.3727  -13.7523 H   0  0  0  0  0  0  0  0  0  0  0  0
   14.7654   18.4510  -13.6817 H   0  0  0  0  0  0  0  0  0  0  0  0
   14.5388   18.3206  -16.1708 H   0  0  0  0  0  0  0  0  0  0  0  0
   15.9355   17.2422  -16.2414 H   0  0  0  0  0  0  0  0  0  0  0  0
   17.3558   19.0113  -15.1856 H   0  0  0  0  0  0  0  0  0  0  0  0
   15.9591   20.0897  -15.1126 H   0  0  0  0  0  0  0  0  0  0  0  0
   15.7298   19.9613  -17.6015 H   0  0  0  0  0  0  0  0  0  0  0  0
   17.1265   18.8830  -17.6747 H   0  0  0  0  0  0  0  0  0  0  0  0
   18.5479   20.6512  -16.6188 H   0  0  0  0  0  0  0  0  0  0  0  0
   17.1513   21.7295  -16.5433 H   0  0  0  0  0  0  0  0  0  0  0  0
   16.9192   21.6033  -19.0322 H   0  0  0  0  0  0  0  0  0  0  0  0
   18.3158   20.5250  -19.1078 H   0  0  0  0  0  0  0  0  0  0  0  0
   19.7384   22.2923  -18.0520 H   0  0  0  0  0  0  0  0  0  0  0  0
   18.3419   23.3706  -17.9740 H   0  0  0  0  0  0  0  0  0  0  0  0
   18.1070   23.2466  -20.4628 H   0  0  0  0  0  0  0  0  0  0  0  0
   19.5035   22.1682  -20.5408 H   0  0  0  0  0  0  0  0  0  0  0  0
   20.9263   23.9355  -19.4826 H   0  0  0  0  0  0  0  0  0  0  0  0
   19.5296   25.0138  -19.4070 H   0  0  0  0  0  0  0  0  0  0  0  0
   19.2976   24.8890  -21.8955 H   0  0  0  0  0  0  0  0  0  0  0  0
   20.6928   23.8089  -21.9720 H   0  0  0  0  0  0  0  0  0  0  0  0
   22.1182   25.5740  -20.9163 H   0  0  0  0  0  0  0  0  0  0  0  0
   20.7231   26.6542  -20.8375 H   0  0  0  0  0  0  0  0  0  0  0  0
   20.4870   26.5310  -23.3261 H   0  0  0  0  0  0  0  0  0  0  0  0
   21.8821   25.4509  -23.4050 H   0  0  0  0  0  0  0  0  0  0  0  0
   23.3082   27.2156  -22.3483 H   0  0  0  0  0  0  0  0  0  0  0  0
   21.9131   28.2957  -22.2694 H   0  0  0  0  0  0  0  0  0  0  0  0
   21.6770   28.1725  -24.7581 H   0  0  0  0  0  0  0  0  0  0  0  0
   23.0721   27.0924  -24.8370 H   0  0  0  0  0  0  0  0  0  0  0  0
   24.4981   28.8571  -23.7802 H   0  0  0  0  0  0  0  0  0  0  0  0
   23.1030   29.9372  -23.7013 H   0  0  0  0  0  0  0  0  0  0  0  0
   22.8670   29.8141  -26.1900 H   0  0  0  0  0  0  0  0  0  0  0  0
   24.2620   28.7340  -26.2689 H   0  0  0  0  0  0  0  0  0  0  0  0
   25.6881   30.4987  -25.2121 H   0  0  0  0  0  0  0  0  0  0  0  0
   24.2930   31.5787  -25.1332 H   0  0  0  0  0  0  0  0  0  0  0  0
   24.0568   31.4543  -27.6223 H   0  0  0  0  0  0  0  0  0  0  0  0
   25.4533   30.3760  -27.7004 H   0  0  0  0  0  0  0  0  0  0  0  0
   26.8771   32.1423  -26.6447 H   0  0  0  0  0  0  0  0  0  0  0  0
   25.4807   33.2206  -26.5642 H   0  0  0  0  0  0  0  0  0  0  0  0
   25.2431   33.1000  -29.0523 H   0  0  0  0  0  0  0  0  0  0  0  0
   26.6382   32.0201  -29.1338 H   0  0  0  0  0  0  0  0  0  0  0  0
   28.0659   33.7834  -28.0783 H   0  0  0  0  0  0  0  0  0  0  0  0
   26.6710   34.8633  -27.9944 H   0  0  0  0  0  0  0  0  0  0  0  0
   26.4292   34.7432  -30.4832 H   0  0  0  0  0  0  0  0  0  0  0  0
   27.8255   33.6650  -30.5663 H   0  0  0  0  0  0  0  0  0  0  0  0
   29.2512   35.4300  -29.5095 H   0  0  0  0  0  0  0  0  0  0  0  0
   27.8549   36.5081  -29.4265 H   0  0  0  0  0  0  0  0  0  0  0  0
   27.6144   36.3884  -31.9149 H   0  0  0  0  0  0  0  0  0  0  0  0
   29.0107   35.3102  -31.9979 H   0  0  0  0  0  0  0  0  0  0  0  0
   30.4364   37.0753  -30.9411 H   0  0  0  0  0  0  0  0  0  0  0  0
   29.0400   38.1533  -30.8581 H   0  0  0  0  0  0  0  0  0  0  0  0
   28.7994   38.0323  -33.3470 H   0  0  0  0  0  0  0  0  0  0  0  0
   30.1972   36.9559  -33.4292 H   0  0  0  0  0  0  0  0  0  0  0  0
   31.6201   38.7231  -32.3722 H   0  0  0  0  0  0  0  0  0  0  0  0
   30.2223   39.7994  -32.2900 H   0  0  0  0  0  0  0  0  0  0  0  0
   29.9829   39.6774  -34.7790 H   0  0  0  0  0  0  0  0  0  0  0  0
   31.3821   38.6029  -34.8603 H   0  0  0  0  0  0  0  0  0  0  0  0
   32.8022   40.3721  -33.8032 H   0  0  0  0  0  0  0  0  0  0  0  0
   31.4030   41.4466  -33.7219 H   0  0  0  0  0  0  0  0  0  0  0  0
   31.1650   41.3264  -36.2099 H   0  0  0  0  0  0  0  0  0  0  0  0
   32.5628   40.2501  -36.2922 H   0  0  0  0  0  0  0  0  0  0  0  0
   33.9857   42.0173  -35.2352 H   0  0  0  0  0  0  0  0  0  0  0  0
   32.5878   43.0935  -35.1530 H   0  0  0  0  0  0  0  0  0  0  0  0
   32.3484   42.9716  -37.6419 H   0  0  0  0  0  0  0  0  0  0  0  0
   33.7477   41.8971  -37.7233 H   0  0  0  0  0  0  0  0  0  0  0  0
   35.1683   43.6659  -36.6674 H   0  0  0  0  0  0  0  0  0  0  0  0
   33.7692   44.7404  -36.5837 H   0  0  0  0  0  0  0  0  0  0  0  0
   33.5284   44.6223  -39.0716 H   0  0  0  0  0  0  0  0  0  0  0  0
   34.9261   43.5460  -39.1563 H   0  0  0  0  0  0  0  0  0  0  0  0
   36.3496   45.3127  -38.0982 H   0  0  0  0  0  0  0  0  0  0  0  0
   34.9518   46.3890  -38.0159 H   0  0  0  0  0  0  0  0  0  0  0  0
   34.7126   46.2697  -40.5039 H   0  0  0  0  0  0  0  0  0  0  0  0
   36.1091   45.1916  -40.5870 H   0  0  0  0  0  0  0  0  0  0  0  0
   37.5352   46.9561  -39.5315 H   0  0  0  0  0  0  0  0  0  0  0  0
   36.1390   48.0343  -39.4460 H   0  0  0  0  0  0  0  0  0  0  0  0
   35.8960   47.9181  -41.9339 H   0  0  0  0  0  0  0  0  0  0  0  0
   37.2908   46.8382  -42.0202 H   0  0  0  0  0  0  0  0  0  0  0  0
   38.7200   48.6007  -40.9622 H   0  0  0  0  0  0  0  0  0  0  0  0
   37.3249   49.6806  -40.8783 H   0  0  0  0  0  0  0  0  0  0  0  0
   37.0839   49.5603  -43.3668 H   0  0  0  0  0  0  0  0  0  0  0  0
   38.4790   48.4828  -43.4496 H   0  0  0  0  0  0  0  0  0  0  0  0
   39.9050   50.2464  -42.3943 H   0  0  0  0  0  0  0  0  0  0  0  0
   38.5079   51.3250  -42.3112 H   0  0  0  0  0  0  0  0  0  0  0  0
   38.2679   51.2039  -44.7994 H   0  0  0  0  0  0  0  0  0  0  0  0
   39.6658   50.1276  -44.8816 H   0  0  0  0  0  0  0  0  0  0  0  0
   41.0890   51.8943  -43.8257 H   0  0  0  0  0  0  0  0  0  0  0  0
   39.6914   52.9705  -43.7412 H   0  0  0  0  0  0  0  0  0  0  0  0
   39.4487   52.8522  -46.2290 H   0  0  0  0  0  0  0  0  0  0  0  0
   40.8452   51.7742  -46.3144 H   0  0  0  0  0  0  0  0  0  0  0  0
   42.2722   53.5381  -45.2593 H   0  0  0  0  0  0  0  0  0  0  0  0
   40.8760   54.6159  -45.1715 H   0  0  0  0  0  0  0  0  0  0  0  0
   40.6320   54.5016  -47.6606 H   0  0  0  0  0  0  0  0  0  0  0  0
   42.0298   53.4255  -47.7473 H   0  0  0  0  0  0  0  0  0  0  0  0
   43.4549   55.1913  -46.6896 H   0  0  0  0  0  0  0  0  0  0  0  0
   42.0576   56.2678  -46.6031 H   0  0  0  0  0  0  0  0  0  0  0  0
   41.8125   56.1492  -49.0927 H   0  0  0  0  0  0  0  0  0  0  0  0
   43.2116   55.0750  -49.1784 H   0  0  0  0  0  0  0  0  0  0  0  0
   44.6336   56.8435  -48.1210 H   0  0  0  0  0  0  0  0  0  0  0  0
   43.2344   57.9179  -48.0372 H   0  0  0  0  0  0  0  0  0  0  0  0
   42.9956   57.8008  -50.5263 H   0  0  0  0  0  0  0  0  0  0  0  0
   44.3946   56.7266  -50.6101 H   0  0  0  0  0  0  0  0  0  0  0  0
   45.8174   58.4967  -49.5551 H   0  0  0  0  0  0  0  0  0  0  0  0
   44.4181   59.5714  -49.4713 H   0  0  0  0  0  0  0  0  0  0  0  0
   44.1812   59.4571  -51.9603 H   0  0  0  0  0  0  0  0  0  0  0  0
   45.5779   58.3818  -52.0450 H   0  0  0  0  0  0  0  0  0  0  0  0
   47.0096   60.1590  -51.0077 H   0  0  0  0  0  0  0  0  0  0  0  0
   45.6125   61.2348  -50.9230 H   0  0  0  0  0  0  0  0  0  0  0  0
   46.7862   60.0577  -53.4971 H   0  0  0  0  0  0  0  0  0  0  0  0
   46.9850   61.7266  -52.9277 H   0  0  0  0  0  0  0  0  0  0  0  0
   45.3822   61.1388  -53.4120 H   0  0  0  0  0  0  0  0  0  0  0  0
  1  2  1  0  0  0  0
  1 80  1  0  0  0  0
  1 81  1  0  0  0  0
  1 82  1  0  0  0  0
  2  3  1  0  0  0  0
  2  6  1  0  0  0  0
  3  4  2  0  0  0  0
  3 83  1  0  0  0  0
  4  5  1  0  0  0  0
  4 84  1  0  0  0  0
  5  6  1  0  0  0  0
  5 85  1  0  0  0  0
  5 86  1  0  0  0  0
  6  7  1  0  0  0  0
  6 87  1  0  0  0  0
  7  8  1  0  0  0  0
  7 88  1  0  0  0  0
  7 89  1  0  0  0  0
  8  9  1  0  0  0  0
  8 90  1  0  0  0  0
  8 91  1  0  0  0  0
  9 10  1  0  0  0  0
 10 11  1  0  0  0  0
 10 92  1  0  0  0  0
 10 93  1  0  0  0  0
 11 12  1  0  0  0  0
 11 94  1  0  0  0  0
 11 95  1  0  0  0  0
 12 13  1  0  0  0  0
 12 96  1  0  0  0  0
 12 97  1  0  0  0  0
 13 14  1  0  0  0  0
 13 98  1  0  0  0  0
 13 99  1  0  0  0  0
 14 15  1  0  0  0  0
 14100  1  0  0  0  0
 14101  1  0  0  0  0
 15 16  1  0  0  0  0
 15102  1  0  0  0  0
 15103  1  0  0  0  0
 16 17  1  0  0  0  0
 16104  1  0  0  0  0
 16105  1  0  0  0  0
 17 18  1  0  0  0  0
 17106  1  0  0  0  0
 17107  1  0  0  0  0
 18 19  1  0  0  0  0
 18108  1  0  0  0  0
 18109  1  0  0  0  0
 19 20  1  0  0  0  0
 19110  1  0  0  0  0
 19111  1  0  0  0  0
 20 21  1  0  0  0  0
 20112  1  0  0  0  0
 20113  1  0  0  0  0
 21 22  1  0  0  0  0
 21114  1  0  0  0  0
 21115  1  0  0  0  0
 22 23  1  0  0  0  0
 22116  1  0  0  0  0
 22117  1  0  0  0  0
 23 24  1  0  0  0  0
 23118  1  0  0  0  0
 23119  1  0  0  0  0
 24 25  1  0  0  0  0
 24120  1  0  0  0  0
 24121  1  0  0  0  0
 25 26  1  0  0  0  0
 25122  1  0  0  0  0
 25123  1  0  0  0  0
 26 27  1  0  0  0  0
 26124  1  0  0  0  0
 26125  1  0  0  0  0
 27 28  1  0  0  0  0
 27126  1  0  0  0  0
 27127  1  0  0  0  0
 28 29  1  0  0  0  0
 28128  1  0  0  0  0
 28129  1  0  0  0  0
 29 30  1  0  0  0  0
 29130  1  0  0  0  0
 29131  1  0  0  0  0
 30 31  1  0  0  0  0
 30132  1  0  0  0  0
 30133  1  0  0  0  0
 31 32  1  0  0  0  0
 31134  1  0  0  0  0
 31135  1  0  0  0  0
 32 33  1  0  0  0  0
 32136  1  0  0  0  0
 32137  1  0  0  0  0
 33 34  1  0  0  0  0
 33138  1  0  0  0  0
 33139  1  0  0  0  0
 34 35  1  0  0  0  0
 34140  1  0  0  0  0
 34141  1  0  0  0  0
 35 36  1  0  0  0  0
 35142  1  0  0  0  0
 35143  1  0  0  0  0
 36 37  1  0  0  0  0
 36144  1  0  0  0  0
 36145  1  0  0  0  0
 37 38  1  0  0  0  0
 37146  1  0  0  0  0
 37147  1  0  0  0  0
 38 39  1  0  0  0  0
 38148  1  0  0  0  0
 38149  1  0  0  0  0
 39 40  1  0  0  0  0
 39150  1  0  0  0  0
 39151  1  0  0  0  0
 40 41  1  0  0  0  0
 40152  1  0  0  0  0
 40153  1  0  0  0  0
 41 42  1  0  0  0  0
 41154  1  0  0  0  0
 41155  1  0  0  0  0
 42 43  1  0  0  0  0
 42156  1  0  0  0  0
 42157  1  0  0  0  0
 43 44  1  0  0  0  0
 43158  1  0  0  0  0
 43159  1  0  0  0  0
 44 45  1  0  0  0  0
 44160  1  0  0  0  0
 44161  1  0  0  0  0
 45 46  1  0  0  0  0
 45162  1  0  0  0  0
 45163  1  0  0  0  0
 46 47  1  0  0  0  0
 46164  1  0  0  0  0
 46165  1  0  0  0  0
 47 48  1  0  0  0  0
 47166  1  0  0  0  0
 47167  1  0  0  0  0
 48 49  1  0  0  0  0
 48168  1  0  0  0  0
 48169  1  0  0  0  0
 49 50  1  0  0  0  0
 49170  1  0  0  0  0
 49171  1  0  0  0  0
 50 51  1  0  0  0  0
 50172  1  0  0  0  0
 50173  1  0  0  0  0
 51 52  1  0  0  0  0
 51174  1  0  0  0  0
 51175  1  0  0  0  0
 52 53  1  0  0  0  0
 52176  1  0  0  0  0
 52177  1  0  0  0  0
 53 54  1  0  0  0  0
 53178  1  0  0  0  0
 53179  1  0  0  0  0
 54 55  1  0  0  0  0
 54180  1  0  0  0  0
 54181  1  0  0  0  0
 55 56  1  0  0  0  0
 55182  1  0  0  0  0
 55183  1  0  0  0  0
 56 57  1  0  0  0  0
 56184  1  0  0  0  0
 56185  1  0  0  0  0
 57 58  1  0  0  0  0
 57186  1  0  0  0  0
 57187  1  0  0  0  0
 58 59  1  0  0  0  0
 58188  1  0  0  0  0
 58189  1  0  0  0  0
 59 60  1  0  0  0  0
 59190  1  0  0  0  0
 59191  1  0  0  0  0
 60 61  1  0  0  0  0
 60192  1  0  0  0  0
 60193  1  0  0  0  0
 61 62  1  0  0  0  0
 61194  1  0  0  0  0
 61195  1  0  0  0  0
 62 63  1  0  0  0  0
 62196  1  0  0  0  0
 62197  1  0  0  0  0
 63 64  1  0  0  0  0
 63198  1  0  0  0  0
 63199  1  0  0  0  0
 64 65  1  0  0  0  0
 64200  1  0  0  0  0
 64201  1  0  0  0  0
 65 66  1  0  0  0  0
 65202  1  0  0  0  0
 65203  1  0  0  0  0
 66 67  1  0  0  0  0
 66204  1  0  0  0  0
 66205  1  0  0  0  0
 67 68  1  0  0  0  0
 67206  1  0  0  0  0
 67207  1  0  0  0  0
 68 69  1  0  0  0  0
 68208  1  0  0  0  0
 68209  1  0  0  0  0
 69 70  1  0  0  0  0
 69210  1  0  0  0  0
 69211  1  0  0  0  0
 70 71  1  0  0  0  0
 70212  1  0  0  0  0
 70213  1  0  0  0  0
 71 72  1  0  0  0  0
 71214  1  0  0  0  0
 71215  1  0  0  0  0
 72 73  1  0  0  0  0
 72216  1  0  0  0  0
 72217  1  0  0  0  0
 73 74  1  0  0  0  0
 73218  1  0  0  0  0
 73219  1  0  0  0  0
 74 75  1  0  0  0  0
 74220  1  0  0  0  0
 74221  1  0  0  0  0
 75 76  1  0  0  0  0
 75222  1  0  0  0  0
 75223  1  0  0  0  0
 76 77  1  0  0  0  0
 76224  1  0  0  0  0
 76225  1  0  0  0  0
 77 78  1  0  0  0  0
 77226  1  0  0  0  0
 77227  1  0  0  0  0
 78 79  1  0  0  0  0
 78228  1  0  0  0  0
 78229  1  0  0  0  0
 79230  1  0  0  0  0
 79231  1  0  0  0  0
 79232  1  0  0  0  0
M  END
$$$$
