
 OpenBabel04232216563D

 88 88  0  0  1  0  0  0  0  0999 V2000
    2.5275   -1.4722   -1.8156 C   0  0  0  0  0  0  0  0  0  0  0  0
    3.3886   -0.3232   -2.0436 N   0  0  0  0  0  0  0  0  0  0  0  0
    2.6751    0.9158   -2.3495 C   0  0  0  0  0  0  0  0  0  0  0  0
    3.3377    0.6765   -0.9999 C   0  0  3  0  0  0  0  0  0  0  0  0
    4.5707    1.4036   -0.6693 C   0  0  0  0  0  0  0  0  0  0  0  0
    4.2046    2.7499   -0.7488 O   0  0  0  0  0  0  0  0  0  0  0  0
    5.3940    3.4150   -0.4274 O   0  0  0  0  0  0  0  0  0  0  0  0
    5.1179    4.7723   -0.5068 O   0  0  0  0  0  0  0  0  0  0  0  0
    6.2897    5.4501   -0.1724 O   0  0  0  0  0  0  0  0  0  0  0  0
    5.9961    6.7917   -0.2535 O   0  0  0  0  0  0  0  0  0  0  0  0
    7.1702    7.4481    0.0750 O   0  0  0  0  0  0  0  0  0  0  0  0
    6.8816    8.7839   -0.0071 O   0  0  0  0  0  0  0  0  0  0  0  0
    8.0512    9.4254    0.3239 O   0  0  0  0  0  0  0  0  0  0  0  0
    7.7643   10.7611    0.2423 O   0  0  0  0  0  0  0  0  0  0  0  0
    8.9274   11.3924    0.5712 O   0  0  0  0  0  0  0  0  0  0  0  0
    8.6377   12.7266    0.4888 O   0  0  0  0  0  0  0  0  0  0  0  0
    9.7978   13.3611    0.8169 O   0  0  0  0  0  0  0  0  0  0  0  0
    9.5010   14.6886    0.7325 O   0  0  0  0  0  0  0  0  0  0  0  0
   10.6585   15.3289    1.0598 O   0  0  0  0  0  0  0  0  0  0  0  0
   10.3682   16.6579    0.9772 O   0  0  0  0  0  0  0  0  0  0  0  0
   11.5210   17.2863    1.3033 O   0  0  0  0  0  0  0  0  0  0  0  0
   11.2332   18.6155    1.2214 O   0  0  0  0  0  0  0  0  0  0  0  0
   12.3973   19.2406    1.5506 O   0  0  0  0  0  0  0  0  0  0  0  0
   12.1178   20.5694    1.4711 O   0  0  0  0  0  0  0  0  0  0  0  0
   13.2792   21.1910    1.7996 O   0  0  0  0  0  0  0  0  0  0  0  0
   12.9860   22.5197    1.7161 O   0  0  0  0  0  0  0  0  0  0  0  0
   14.1418   23.1582    2.0430 O   0  0  0  0  0  0  0  0  0  0  0  0
   13.8438   24.4863    1.9583 O   0  0  0  0  0  0  0  0  0  0  0  0
   15.0087   25.1179    2.2877 O   0  0  0  0  0  0  0  0  0  0  0  0
   14.7124   26.4461    2.2034 O   0  0  0  0  0  0  0  0  0  0  0  0
   15.8716   27.0805    2.5313 O   0  0  0  0  0  0  0  0  0  0  0  0
   15.5772   28.4056    2.4475 O   0  0  0  0  0  0  0  0  0  0  0  0
   16.7443   29.0342    2.7776 O   0  0  0  0  0  0  0  0  0  0  0  0
   16.4751   30.3462    2.7010 O   0  0  0  0  0  0  0  0  0  0  0  0
   17.6092   30.9932    3.0217 O   0  0  0  0  0  0  0  0  0  0  0  0
   17.3144   32.3210    2.9379 O   0  0  0  0  0  0  0  0  0  0  0  0
   18.4778   32.9507    3.2669 O   0  0  0  0  0  0  0  0  0  0  0  0
   18.1825   34.2788    3.1829 O   0  0  0  0  0  0  0  0  0  0  0  0
   19.3459   34.9084    3.5119 O   0  0  0  0  0  0  0  0  0  0  0  0
   19.0506   36.2365    3.4279 O   0  0  0  0  0  0  0  0  0  0  0  0
   20.2140   36.8662    3.7569 O   0  0  0  0  0  0  0  0  0  0  0  0
   19.9187   38.1943    3.6730 O   0  0  0  0  0  0  0  0  0  0  0  0
   21.0821   38.8239    4.0020 O   0  0  0  0  0  0  0  0  0  0  0  0
   20.7868   40.1520    3.9180 O   0  0  0  0  0  0  0  0  0  0  0  0
   21.9501   40.7817    4.2470 O   0  0  0  0  0  0  0  0  0  0  0  0
   21.6548   42.1098    4.1630 O   0  0  0  0  0  0  0  0  0  0  0  0
   22.8182   42.7394    4.4920 O   0  0  0  0  0  0  0  0  0  0  0  0
   22.5229   44.0675    4.4080 O   0  0  0  0  0  0  0  0  0  0  0  0
   23.6863   44.6972    4.7370 O   0  0  0  0  0  0  0  0  0  0  0  0
   23.3910   46.0253    4.6531 O   0  0  0  0  0  0  0  0  0  0  0  0
   24.5544   46.6549    4.9821 O   0  0  0  0  0  0  0  0  0  0  0  0
   24.2591   47.9830    4.8981 O   0  0  0  0  0  0  0  0  0  0  0  0
   25.4225   48.6127    5.2271 O   0  0  0  0  0  0  0  0  0  0  0  0
   25.1272   49.9408    5.1431 O   0  0  0  0  0  0  0  0  0  0  0  0
   26.2905   50.5704    5.4721 O   0  0  0  0  0  0  0  0  0  0  0  0
   25.9953   51.8985    5.3881 O   0  0  0  0  0  0  0  0  0  0  0  0
   27.1586   52.5282    5.7172 O   0  0  0  0  0  0  0  0  0  0  0  0
   26.8633   53.8563    5.6332 O   0  0  0  0  0  0  0  0  0  0  0  0
   28.0267   54.4859    5.9622 O   0  0  0  0  0  0  0  0  0  0  0  0
   27.7314   55.8140    5.8782 O   0  0  0  0  0  0  0  0  0  0  0  0
   28.8949   56.4438    6.2072 O   0  0  0  0  0  0  0  0  0  0  0  0
   28.5996   57.7723    6.1232 O   0  0  0  0  0  0  0  0  0  0  0  0
   29.7630   58.4023    6.4523 O   0  0  0  0  0  0  0  0  0  0  0  0
   29.4686   59.7306    6.3685 O   0  0  0  0  0  0  0  0  0  0  0  0
   30.6327   60.3608    6.6977 O   0  0  0  0  0  0  0  0  0  0  0  0
   30.3385   61.6904    6.6141 O   0  0  0  0  0  0  0  0  0  0  0  0
   31.5025   62.3225    6.9433 O   0  0  0  0  0  0  0  0  0  0  0  0
   31.2068   63.6532    6.8592 O   0  0  0  0  0  0  0  0  0  0  0  0
   32.3718   64.2886    7.1886 O   0  0  0  0  0  0  0  0  0  0  0  0
   32.0765   65.6224    7.1046 O   0  0  0  0  0  0  0  0  0  0  0  0
   33.2403   66.2641    7.4338 O   0  0  0  0  0  0  0  0  0  0  0  0
   32.9518   67.6021    7.3517 O   0  0  0  0  0  0  0  0  0  0  0  0
   34.1166   68.2521    7.6811 O   0  0  0  0  0  0  0  0  0  0  0  0
   33.8316   69.5996    7.6000 O   0  0  0  0  0  0  0  0  0  0  0  0
   35.0034   70.2630    7.9314 O   0  0  0  0  0  0  0  0  0  0  0  0
   34.7336   71.6237    7.8546 O   0  0  0  0  0  0  0  0  0  0  0  0
   35.9207   72.2842    8.1904 O   0  0  0  0  0  0  0  0  0  0  0  0
   35.6894   73.6724    8.1244 O   0  0  0  0  0  0  0  0  0  0  0  0
   36.8974   74.3396    8.4661 O   0  0  0  0  0  0  0  0  0  0  0  0
    2.7069   -2.1707   -2.6378 H   0  0  0  0  0  0  0  0  0  0  0  0
    1.4559   -1.2464   -1.8061 H   0  0  0  0  0  0  0  0  0  0  0  0
    2.7811   -2.0029   -0.8911 H   0  0  0  0  0  0  0  0  0  0  0  0
    1.5929    0.9174   -2.4006 H   0  0  0  0  0  0  0  0  0  0  0  0
    3.1481    1.5803   -3.0655 H   0  0  0  0  0  0  0  0  0  0  0  0
    2.6730    0.6264   -0.1425 H   0  0  0  0  0  0  0  0  0  0  0  0
    5.3926    1.2143   -1.3715 H   0  0  0  0  0  0  0  0  0  0  0  0
    4.9275    1.2059    0.3494 H   0  0  0  0  0  0  0  0  0  0  0  0
   36.5124   75.2181    8.3569 H   0  0  0  0  0  0  0  0  0  0  0  0
  1  2  1  0  0  0  0
  1 80  1  0  0  0  0
  1 81  1  0  0  0  0
  1 82  1  0  0  0  0
  2  3  1  0  0  0  0
  2  4  1  0  0  0  0
  3  4  1  0  0  0  0
  3 83  1  0  0  0  0
  3 84  1  0  0  0  0
  4  5  1  0  0  0  0
  4 85  1  0  0  0  0
  5  6  1  0  0  0  0
  5 86  1  0  0  0  0
  5 87  1  0  0  0  0
  6  7  1  0  0  0  0
  7  8  1  0  0  0  0
  8  9  1  0  0  0  0
  9 10  1  0  0  0  0
 10 11  1  0  0  0  0
 11 12  1  0  0  0  0
 12 13  1  0  0  0  0
 13 14  1  0  0  0  0
 14 15  1  0  0  0  0
 15 16  1  0  0  0  0
 16 17  1  0  0  0  0
 17 18  1  0  0  0  0
 18 19  1  0  0  0  0
 19 20  1  0  0  0  0
 20 21  1  0  0  0  0
 21 22  1  0  0  0  0
 22 23  1  0  0  0  0
 23 24  1  0  0  0  0
 24 25  1  0  0  0  0
 25 26  1  0  0  0  0
 26 27  1  0  0  0  0
 27 28  1  0  0  0  0
 28 29  1  0  0  0  0
 29 30  1  0  0  0  0
 30 31  1  0  0  0  0
 31 32  1  0  0  0  0
 32 33  1  0  0  0  0
 33 34  1  0  0  0  0
 34 35  1  0  0  0  0
 35 36  1  0  0  0  0
 36 37  1  0  0  0  0
 37 38  1  0  0  0  0
 38 39  1  0  0  0  0
 39 40  1  0  0  0  0
 40 41  1  0  0  0  0
 41 42  1  0  0  0  0
 42 43  1  0  0  0  0
 43 44  1  0  0  0  0
 44 45  1  0  0  0  0
 45 46  1  0  0  0  0
 46 47  1  0  0  0  0
 47 48  1  0  0  0  0
 48 49  1  0  0  0  0
 49 50  1  0  0  0  0
 50 51  1  0  0  0  0
 51 52  1  0  0  0  0
 52 53  1  0  0  0  0
 53 54  1  0  0  0  0
 54 55  1  0  0  0  0
 55 56  1  0  0  0  0
 56 57  1  0  0  0  0
 57 58  1  0  0  0  0
 58 59  1  0  0  0  0
 59 60  1  0  0  0  0
 60 61  1  0  0  0  0
 61 62  1  0  0  0  0
 62 63  1  0  0  0  0
 63 64  1  0  0  0  0
 64 65  1  0  0  0  0
 65 66  1  0  0  0  0
 66 67  1  0  0  0  0
 67 68  1  0  0  0  0
 68 69  1  0  0  0  0
 69 70  1  0  0  0  0
 70 71  1  0  0  0  0
 71 72  1  0  0  0  0
 72 73  1  0  0  0  0
 73 74  1  0  0  0  0
 74 75  1  0  0  0  0
 75 76  1  0  0  0  0
 76 77  1  0  0  0  0
 77 78  1  0  0  0  0
 78 79  1  0  0  0  0
 79 88  1  0  0  0  0
M  END
$$$$
