
 OpenBabel04232216483D

 47 48  0  0  0  0  0  0  0  0999 V2000
    0.7364   -1.4530    2.0590 C   0  0  0  0  0  0  0  0  0  0  0  0
    0.1036   -0.7897    0.9032 C   0  0  0  0  0  0  0  0  0  0  0  0
    0.2498   -0.9182   -0.4612 C   0  0  0  0  0  0  0  0  0  0  0  0
   -0.6530   -0.0017   -1.0443 C   0  0  0  0  0  0  0  0  0  0  0  0
   -1.2964    0.6254    0.0052 C   0  0  0  0  0  0  0  0  0  0  0  0
   -2.3726    1.6499    0.0614 C   0  0  0  0  0  0  0  0  0  0  0  0
   -3.7481    0.9847    0.0484 C   0  0  0  0  0  0  0  0  0  0  0  0
   -4.8678    2.0218    0.0519 C   0  0  0  0  0  0  0  0  0  0  0  0
   -6.2355    1.3464    0.0248 C   0  0  0  0  0  0  0  0  0  0  0  0
   -7.3563    2.3785    0.0226 C   0  0  0  0  0  0  0  0  0  0  0  0
   -8.6441    1.7214    0.0408 N   0  0  0  0  0  0  0  0  0  0  0  0
   -9.3809    1.5029   -1.0985 C   0  0  0  0  0  0  0  0  0  0  0  0
   -9.0193    1.8606   -2.2141 O   0  0  0  0  0  0  0  0  0  0  0  0
  -10.6570    0.7250   -0.8761 C   0  0  0  0  0  0  0  0  0  0  0  0
  -10.9549   -0.1134   -1.8913 C   0  0  0  0  0  0  0  0  0  0  0  0
  -11.9957   -1.1064   -2.0920 C   0  0  0  0  0  0  0  0  0  0  0  0
  -13.1665   -1.3225   -1.4766 C   0  0  0  0  0  0  0  0  0  0  0  0
  -13.6115   -0.5143   -0.3375 C   0  0  0  0  0  0  0  0  0  0  0  0
  -14.3880    0.4190   -0.4598 O   0  0  0  0  0  0  0  0  0  0  0  0
  -13.0257   -0.9196    0.8395 N   0  0  0  0  0  0  0  0  0  0  0  0
  -11.7852   -0.2632    1.2152 C   0  0  0  0  0  0  0  0  0  0  0  0
  -11.4121    0.9866    0.4116 C   0  0  0  0  0  0  0  0  0  0  0  0
   -0.8385    0.1512    1.1921 O   0  0  0  0  0  0  0  0  0  0  0  0
    1.4567   -2.2076    1.7298 H   0  0  0  0  0  0  0  0  0  0  0  0
   -0.0188   -1.9491    2.6765 H   0  0  0  0  0  0  0  0  0  0  0  0
    1.2648   -0.7225    2.6780 H   0  0  0  0  0  0  0  0  0  0  0  0
    0.9237   -1.5936   -0.9693 H   0  0  0  0  0  0  0  0  0  0  0  0
   -0.8299    0.1750   -2.0969 H   0  0  0  0  0  0  0  0  0  0  0  0
   -2.2773    2.3276   -0.7961 H   0  0  0  0  0  0  0  0  0  0  0  0
   -2.2577    2.2608    0.9641 H   0  0  0  0  0  0  0  0  0  0  0  0
   -3.8499    0.3273    0.9216 H   0  0  0  0  0  0  0  0  0  0  0  0
   -3.8454    0.3455   -0.8389 H   0  0  0  0  0  0  0  0  0  0  0  0
   -4.7663    2.6785   -0.8204 H   0  0  0  0  0  0  0  0  0  0  0  0
   -4.7850    2.6521    0.9457 H   0  0  0  0  0  0  0  0  0  0  0  0
   -6.3421    0.6897    0.8983 H   0  0  0  0  0  0  0  0  0  0  0  0
   -6.3210    0.7035   -0.8601 H   0  0  0  0  0  0  0  0  0  0  0  0
   -7.2813    3.0346   -0.8507 H   0  0  0  0  0  0  0  0  0  0  0  0
   -7.3039    2.9998    0.9233 H   0  0  0  0  0  0  0  0  0  0  0  0
   -8.9002    1.2640    0.9013 H   0  0  0  0  0  0  0  0  0  0  0  0
  -10.2860   -0.0957   -2.7599 H   0  0  0  0  0  0  0  0  0  0  0  0
  -11.7767   -1.7686   -2.9325 H   0  0  0  0  0  0  0  0  0  0  0  0
  -13.8392   -2.1114   -1.7889 H   0  0  0  0  0  0  0  0  0  0  0  0
  -12.9121   -1.9225    0.8913 H   0  0  0  0  0  0  0  0  0  0  0  0
  -10.9889   -1.0157    1.1418 H   0  0  0  0  0  0  0  0  0  0  0  0
  -11.8838   -0.0135    2.2768 H   0  0  0  0  0  0  0  0  0  0  0  0
  -10.8193    1.6121    1.0863 H   0  0  0  0  0  0  0  0  0  0  0  0
  -12.2817    1.6157    0.1939 H   0  0  0  0  0  0  0  0  0  0  0  0
  1  2  1  0  0  0  0
  1 24  1  0  0  0  0
  1 25  1  0  0  0  0
  1 26  1  0  0  0  0
  2  3  2  0  0  0  0
  2 23  1  0  0  0  0
  3  4  1  0  0  0  0
  3 27  1  0  0  0  0
  4  5  2  0  0  0  0
  4 28  1  0  0  0  0
  5  6  1  0  0  0  0
  5 23  1  0  0  0  0
  6  7  1  0  0  0  0
  6 29  1  0  0  0  0
  6 30  1  0  0  0  0
  7  8  1  0  0  0  0
  7 31  1  0  0  0  0
  7 32  1  0  0  0  0
  8  9  1  0  0  0  0
  8 33  1  0  0  0  0
  8 34  1  0  0  0  0
  9 10  1  0  0  0  0
  9 35  1  0  0  0  0
  9 36  1  0  0  0  0
 10 11  1  0  0  0  0
 10 37  1  0  0  0  0
 10 38  1  0  0  0  0
 11 12  1  0  0  0  0
 11 39  1  0  0  0  0
 12 13  2  0  0  0  0
 12 14  1  0  0  0  0
 14 15  2  0  0  0  0
 14 22  1  0  0  0  0
 15 16  1  0  0  0  0
 15 40  1  0  0  0  0
 16 17  2  0  0  0  0
 16 41  1  0  0  0  0
 17 18  1  0  0  0  0
 17 42  1  0  0  0  0
 18 19  2  0  0  0  0
 18 20  1  0  0  0  0
 20 21  1  0  0  0  0
 20 43  1  0  0  0  0
 21 22  1  0  0  0  0
 21 44  1  0  0  0  0
 21 45  1  0  0  0  0
 22 46  1  0  0  0  0
 22 47  1  0  0  0  0
M  END
$$$$
