
 OpenBabel04232216513D

150150  0  0  1  0  0  0  0  0999 V2000
  180.8405  -53.3786   97.5571 C   0  0  0  0  0  0  0  0  0  0  0  0
  179.3507  -56.4859  100.3476 C   0  0  0  0  0  0  0  0  0  0  0  0
  177.8874  -59.9690  103.4426 C   0  0  3  0  0  0  0  0  0  0  0  0
  179.9532  -56.7466   99.9379 C   0  0  0  0  0  0  0  0  0  0  0  0
  181.7268  -54.3125   97.4337 C   0  0  0  0  0  0  0  0  0  0  0  0
  183.5069  -51.5263   94.7123 C   0  0  0  0  0  0  0  0  0  0  0  0
  184.9731  -49.2487   92.5661 C   0  0  0  0  0  0  0  0  0  0  0  0
  186.9705  -47.6471   90.4079 C   0  0  0  0  0  0  0  0  0  0  0  0
  188.2323  -46.7847   91.6252 C   0  0  0  0  0  0  0  0  0  0  0  0
  187.9561  -46.9357   89.9925 C   0  0  0  0  0  0  0  0  0  0  0  0
  187.2960  -46.6754   91.4052 C   0  0  0  0  0  0  0  0  0  0  0  0
  187.0334  -48.7425   91.2881 C   0  0  0  0  0  0  0  0  0  0  0  0
  186.1344  -49.8292   91.9554 C   0  0  0  0  0  0  0  0  0  0  0  0
  185.9575  -50.9754   92.8488 C   0  0  0  0  0  0  0  0  0  0  0  0
  185.5980  -51.3636   94.5150 C   0  0  0  0  0  0  0  0  0  0  0  0
  184.6831  -52.1058   94.2941 C   0  0  0  0  0  0  0  0  0  0  0  0
  184.7108  -51.2076   95.4499 C   0  0  0  0  0  0  0  0  0  0  0  0
  183.8437  -52.8610   96.1739 C   0  0  0  0  0  0  0  0  0  0  0  0
  182.8038  -52.7345   97.6964 C   0  0  0  0  0  0  0  0  0  0  0  0
  182.9438  -54.1818   98.1986 C   0  0  0  0  0  0  0  0  0  0  0  0
  182.0841  -54.6672   99.0195 C   0  0  0  0  0  0  0  0  0  0  0  0
  181.8985  -56.1373   99.1992 C   0  0  0  0  0  0  0  0  0  0  0  0
  181.1838  -56.2690  100.6822 C   0  0  0  0  0  0  0  0  0  0  0  0
  180.6538  -57.9159  101.2437 C   0  0  0  0  0  0  0  0  0  0  0  0
  180.1251  -57.8519  102.9096 C   0  0  0  0  0  0  0  0  0  0  0  0
  179.5670  -59.4028  102.4593 C   0  0  0  0  0  0  0  0  0  0  0  0
  179.1425  -59.7011  103.8258 C   0  0  0  0  0  0  0  0  0  0  0  0
  178.3425  -61.3725  104.2955 C   0  0  0  0  0  0  0  0  0  0  0  0
  178.3067  -62.5663  105.4488 C   0  0  0  0  0  0  0  0  0  0  0  0
  177.2401  -62.5426  105.7606 C   0  0  0  0  0  0  0  0  0  0  0  0
  177.8704  -63.2188  106.7525 C   0  0  0  0  0  0  0  0  0  0  0  0
  177.0848  -64.8915  107.3537 C   0  0  0  0  0  0  0  0  0  0  0  0
  175.9651  -64.5113  108.5173 C   0  0  0  0  0  0  0  0  0  0  0  0
  175.3800  -65.7803  108.8785 C   0  0  0  0  0  0  0  0  0  0  0  0
  174.9194  -66.0292  110.0859 C   0  0  0  0  0  0  0  0  0  0  0  0
  174.5340  -67.3671  110.4436 C   0  0  0  0  0  0  0  0  0  0  0  0
  174.3089  -67.5765  111.8089 C   0  0  0  0  0  0  0  0  0  0  0  0
  173.8892  -69.1487  112.1476 C   0  0  0  0  0  0  0  0  0  0  0  0
  173.3298  -69.1438  113.4450 C   0  0  0  0  0  0  0  0  0  0  0  0
  173.3742  -70.4865  113.6134 C   0  0  0  0  0  0  0  0  0  0  0  0
  172.3028  -70.7283  114.9614 C   0  0  0  0  0  0  0  0  0  0  0  0
  172.0046  -72.4458  115.6093 C   0  0  0  0  0  0  0  0  0  0  0  0
  171.4304  -72.4085  116.7722 C   0  0  0  0  0  0  0  0  0  0  0  0
  171.4864  -73.8371  116.4924 C   0  0  0  0  0  0  0  0  0  0  0  0
  170.5487  -73.6890  117.9904 C   0  0  0  0  0  0  0  0  0  0  0  0
  170.3852  -75.0992  118.6195 C   0  0  0  0  0  0  0  0  0  0  0  0
  169.6508  -75.1715  120.0954 C   0  0  0  0  0  0  0  0  0  0  0  0
  169.6353  -76.3080  119.6634 C   0  0  0  0  0  0  0  0  0  0  0  0
  168.9735  -77.1072  121.2228 C   0  0  0  0  0  0  0  0  0  0  0  0
  168.3628  -79.1744  121.5414 C   0  0  0  0  0  0  0  0  0  0  0  0
  167.1443  -80.4368  121.8205 C   0  0  0  0  0  0  0  0  0  0  0  0
  167.5414  -81.7730  121.5019 C   0  0  0  0  0  0  0  0  0  0  0  0
  167.7928  -81.0105  122.5098 C   0  0  0  0  0  0  0  0  0  0  0  0
  167.5321  -82.0655  124.3382 C   0  0  0  0  0  0  0  0  0  0  0  0
  166.6804  -81.2974  125.9509 C   0  0  0  0  0  0  0  0  0  0  0  0
  165.4606  -82.4564  127.2780 C   0  0  0  0  0  0  0  0  0  0  0  0
  165.3394  -84.3032  126.9532 C   0  0  0  0  0  0  0  0  0  0  0  0
  164.5508  -85.4697  128.4944 C   0  0  0  0  0  0  0  0  0  0  0  0
  163.5977  -84.7770  130.0981 C   0  0  0  0  0  0  0  0  0  0  0  0
  163.8511  -86.4361  130.3561 C   0  0  0  0  0  0  0  0  0  0  0  0
  163.0142  -86.6226  131.5706 C   0  0  0  0  0  0  0  0  0  0  0  0
  162.8269  -88.5321  131.2022 C   0  0  0  0  0  0  0  0  0  0  0  0
  162.0458  -87.9869  132.8509 C   0  0  0  0  0  0  0  0  0  0  0  0
  160.8537  -87.9935  134.2163 C   0  0  0  0  0  0  0  0  0  0  0  0
  161.4771  -88.0324  132.2796 C   0  0  0  0  0  0  0  0  0  0  0  0
  162.4976  -85.9444  129.7311 C   0  0  0  0  0  0  0  0  0  0  0  0
  163.6152  -83.3891  127.3255 C   0  0  0  0  0  0  0  0  0  0  0  0
  165.5319  -80.4853  124.1789 C   0  0  0  0  0  0  0  0  0  0  0  0
  167.2737  -77.6836  121.1328 C   0  0  0  0  0  0  0  0  0  0  0  0
  169.0130  -74.0267  117.8871 C   0  0  0  0  0  0  0  0  0  0  0  0
  170.7704  -71.2051  114.5998 C   0  0  0  0  0  0  0  0  0  0  0  0
  172.9309  -67.4985  110.8676 C   0  0  0  0  0  0  0  0  0  0  0  0
  175.4161  -63.6609  107.1603 C   0  0  0  0  0  3  0  0  0  0  0  0
  181.9555  -51.4471   95.6854 H   0  0  0  0  0  0  0  0  0  0  0  0
  181.9466  -51.4690   95.6573 H   0  0  0  0  0  0  0  0  0  0  0  0
  181.9759  -51.4542   95.6907 H   0  0  0  0  0  0  0  0  0  0  0  0
  180.3301  -54.4897   98.5960 H   0  0  0  0  0  0  0  0  0  0  0  0
  180.3505  -54.4822   98.6165 H   0  0  0  0  0  0  0  0  0  0  0  0
  178.6711  -58.1415  101.7107 H   0  0  0  0  0  0  0  0  0  0  0  0
  181.0176  -55.1710   98.1805 H   0  0  0  0  0  0  0  0  0  0  0  0
  182.6824  -52.3829   95.7154 H   0  0  0  0  0  0  0  0  0  0  0  0
  184.5283  -49.5850   92.8864 H   0  0  0  0  0  0  0  0  0  0  0  0
  186.0952  -47.3244   90.8670 H   0  0  0  0  0  0  0  0  0  0  0  0
  188.1396  -46.0251   88.8081 H   0  0  0  0  0  0  0  0  0  0  0  0
  188.1272  -45.6362   92.9929 H   0  0  0  0  0  0  0  0  0  0  0  0
  186.7432  -46.9108   88.7745 H   0  0  0  0  0  0  0  0  0  0  0  0
  186.5963  -45.7443   91.3318 H   0  0  0  0  0  0  0  0  0  0  0  0
  185.8124  -49.0171   90.6983 H   0  0  0  0  0  0  0  0  0  0  0  0
  185.7955  -48.1098   92.8332 H   0  0  0  0  0  0  0  0  0  0  0  0
  185.2493  -50.2929   92.1309 H   0  0  0  0  0  0  0  0  0  0  0  0
  184.9379  -49.8095   94.7548 H   0  0  0  0  0  0  0  0  0  0  0  0
  184.3058  -51.6298   93.6414 H   0  0  0  0  0  0  0  0  0  0  0  0
  183.7118  -50.6076   96.1707 H   0  0  0  0  0  0  0  0  0  0  0  0
  183.3537  -53.5816   95.1881 H   0  0  0  0  0  0  0  0  0  0  0  0
  182.7814  -51.9712   97.9340 H   0  0  0  0  0  0  0  0  0  0  0  0
  184.1348  -54.4264   98.4040 H   0  0  0  0  0  0  0  0  0  0  0  0
  181.6954  -53.8451   99.4627 H   0  0  0  0  0  0  0  0  0  0  0  0
  181.9372  -56.9493   98.7984 H   0  0  0  0  0  0  0  0  0  0  0  0
  180.7278  -55.4472  101.0908 H   0  0  0  0  0  0  0  0  0  0  0  0
  179.5368  -58.3980  100.1936 H   0  0  0  0  0  0  0  0  0  0  0  0
  179.7141  -57.0302  102.6616 H   0  0  0  0  0  0  0  0  0  0  0  0
  178.8415  -60.2125  102.4639 H   0  0  0  0  0  0  0  0  0  0  0  0
  178.7791  -58.7496  104.3126 H   0  0  0  0  0  0  0  0  0  0  0  0
  178.4358  -61.7032  103.2904 H   0  0  0  0  0  0  0  0  0  0  0  0
  177.8527  -60.9745  105.8650 H   0  0  0  0  0  0  0  0  0  0  0  0
  178.0678  -62.0913  106.2761 H   0  0  0  0  0  0  0  0  0  0  0  0
  176.9457  -62.1155  107.4665 H   0  0  0  0  0  0  0  0  0  0  0  0
  176.9940  -65.3726  108.5772 H   0  0  0  0  0  0  0  0  0  0  0  0
  175.8424  -63.6129  109.1539 H   0  0  0  0  0  0  0  0  0  0  0  0
  174.8303  -66.3187  108.1740 H   0  0  0  0  0  0  0  0  0  0  0  0
  174.8618  -65.2366  110.7854 H   0  0  0  0  0  0  0  0  0  0  0  0
  174.4729  -68.1745  109.7619 H   0  0  0  0  0  0  0  0  0  0  0  0
  173.8891  -66.8468  112.4197 H   0  0  0  0  0  0  0  0  0  0  0  0
  173.0588  -69.7857  111.2083 H   0  0  0  0  0  0  0  0  0  0  0  0
  172.9006  -68.4606  114.0511 H   0  0  0  0  0  0  0  0  0  0  0  0
  174.2860  -71.0741  112.5405 H   0  0  0  0  0  0  0  0  0  0  0  0
  171.9154  -70.0691  115.6773 H   0  0  0  0  0  0  0  0  0  0  0  0
  171.3252  -72.5643  115.1412 H   0  0  0  0  0  0  0  0  0  0  0  0
  170.9386  -71.7110  117.2948 H   0  0  0  0  0  0  0  0  0  0  0  0
  171.4707  -74.0575  115.0246 H   0  0  0  0  0  0  0  0  0  0  0  0
  169.9771  -73.3124  118.9134 H   0  0  0  0  0  0  0  0  0  0  0  0
  170.0446  -74.4983  120.1552 H   0  0  0  0  0  0  0  0  0  0  0  0
  168.8664  -74.9588  120.5822 H   0  0  0  0  0  0  0  0  0  0  0  0
  170.4911  -77.4084  119.4479 H   0  0  0  0  0  0  0  0  0  0  0  0
  168.0174  -76.5971  122.1254 H   0  0  0  0  0  0  0  0  0  0  0  0
  168.1468  -80.5110  120.4551 H   0  0  0  0  0  0  0  0  0  0  0  0
  167.2777  -79.3380  123.1130 H   0  0  0  0  0  0  0  0  0  0  0  0
  167.2655  -81.4608  122.7666 H   0  0  0  0  0  0  0  0  0  0  0  0
  167.2978  -80.9061  123.8421 H   0  0  0  0  0  0  0  0  0  0  0  0
  167.5864  -83.7612  123.8754 H   0  0  0  0  0  0  0  0  0  0  0  0
  165.3487  -81.3315  126.8684 H   0  0  0  0  0  0  0  0  0  0  0  0
  164.4155  -81.9547  128.6158 H   0  0  0  0  0  0  0  0  0  0  0  0
  164.9857  -83.1646  127.6197 H   0  0  0  0  0  0  0  0  0  0  0  0
  163.6525  -85.9153  127.6034 H   0  0  0  0  0  0  0  0  0  0  0  0
  163.1624  -83.6637  131.4663 H   0  0  0  0  0  0  0  0  0  0  0  0
  163.8958  -87.4564  131.3114 H   0  0  0  0  0  0  0  0  0  0  0  0
  162.0959  -86.2933  131.9183 H   0  0  0  0  0  0  0  0  0  0  0  0
  163.3587  -89.4039  131.5233 H   0  0  0  0  0  0  0  0  0  0  0  0
  161.0899  -87.6821  133.5387 H   0  0  0  0  0  0  0  0  0  0  0  0
  161.3757  -86.4927  133.7760 H   0  0  0  0  0  0  0  0  0  0  0  0
  160.4428  -89.3214  134.5680 H   0  0  0  0  0  0  0  0  0  0  0  0
  161.5095  -87.9869  131.4604 H   0  0  0  0  0  0  0  0  0  0  0  0
  162.7831  -85.5848  129.1220 H   0  0  0  0  0  0  0  0  0  0  0  0
  164.5733  -82.5210  125.9491 H   0  0  0  0  0  0  0  0  0  0  0  0
  166.2370  -79.6877  123.0697 H   0  0  0  0  0  0  0  0  0  0  0  0
  168.1589  -76.2034  119.4743 H   0  0  0  0  0  0  0  0  0  0  0  0
  169.9301  -73.0565  116.3425 H   0  0  0  0  0  0  0  0  0  0  0  0
  172.1957  -69.0539  112.4320 H   0  0  0  0  0  0  0  0  0  0  0  0
  172.1815  -69.0178  112.4603 H   0  0  0  0  0  0  0  0  0  0  0  0
  175.8739  -62.3411  105.6574 H   0  0  0  0  0  0  0  0  0  0  0  0
  1  2  1  0  0  0  0
  1 74  1  0  0  0  0
  1 75  1  0  0  0  0
  1 76  1  0  0  0  0
  2  3  1  0  0  0  0
  2 77  1  0  0  0  0
  2 78  1  0  0  0  0
  3  4  1  0  0  0  0
  3 73  1  0  0  0  0
  3 79  1  0  0  0  0
  4  5  2  3  0  0  0
  4 80  1  0  0  0  0
  5  6  1  0  0  0  0
  5 81  1  0  0  0  0
  6  7  2  3  0  0  0
  6 82  1  0  0  0  0
  7  8  1  0  0  0  0
  7 83  1  0  0  0  0
  8  9  2  3  0  0  0
  8 84  1  0  0  0  0
  9 10  1  0  0  0  0
  9 85  1  0  0  0  0
 10 11  2  3  0  0  0
 10 86  1  0  0  0  0
 11 12  1  0  0  0  0
 11 87  1  0  0  0  0
 12 13  2  3  0  0  0
 12 88  1  0  0  0  0
 13 14  1  0  0  0  0
 13 89  1  0  0  0  0
 14 15  2  3  0  0  0
 14 90  1  0  0  0  0
 15 16  1  0  0  0  0
 15 91  1  0  0  0  0
 16 17  2  3  0  0  0
 16 92  1  0  0  0  0
 17 18  1  0  0  0  0
 17 93  1  0  0  0  0
 18 19  2  3  0  0  0
 18 94  1  0  0  0  0
 19 20  1  0  0  0  0
 19 95  1  0  0  0  0
 20 21  2  3  0  0  0
 20 96  1  0  0  0  0
 21 22  1  0  0  0  0
 21 97  1  0  0  0  0
 22 23  2  3  0  0  0
 22 98  1  0  0  0  0
 23 24  1  0  0  0  0
 23 99  1  0  0  0  0
 24 25  2  3  0  0  0
 24100  1  0  0  0  0
 25 26  1  0  0  0  0
 25101  1  0  0  0  0
 26 27  2  3  0  0  0
 26102  1  0  0  0  0
 27 28  1  0  0  0  0
 27103  1  0  0  0  0
 28 29  2  3  0  0  0
 28104  1  0  0  0  0
 29 30  1  0  0  0  0
 29105  1  0  0  0  0
 30 31  2  3  0  0  0
 30106  1  0  0  0  0
 31 32  1  0  0  0  0
 31107  1  0  0  0  0
 32 33  2  3  0  0  0
 32108  1  0  0  0  0
 33 34  1  0  0  0  0
 33109  1  0  0  0  0
 34 35  2  3  0  0  0
 34110  1  0  0  0  0
 35 36  1  0  0  0  0
 35111  1  0  0  0  0
 36 37  2  3  0  0  0
 36112  1  0  0  0  0
 37 38  1  0  0  0  0
 37113  1  0  0  0  0
 38 39  2  3  0  0  0
 38114  1  0  0  0  0
 39 40  1  0  0  0  0
 39115  1  0  0  0  0
 40 41  2  3  0  0  0
 40116  1  0  0  0  0
 41 42  1  0  0  0  0
 41117  1  0  0  0  0
 42 43  2  3  0  0  0
 42118  1  0  0  0  0
 43 44  1  0  0  0  0
 43119  1  0  0  0  0
 44 45  2  3  0  0  0
 44120  1  0  0  0  0
 45 46  1  0  0  0  0
 45121  1  0  0  0  0
 46 47  2  3  0  0  0
 46122  1  0  0  0  0
 47 48  1  0  0  0  0
 47123  1  0  0  0  0
 48 49  2  3  0  0  0
 48124  1  0  0  0  0
 49 50  1  0  0  0  0
 49125  1  0  0  0  0
 50 51  2  3  0  0  0
 50126  1  0  0  0  0
 51 52  1  0  0  0  0
 51127  1  0  0  0  0
 52 53  2  3  0  0  0
 52128  1  0  0  0  0
 53 54  1  0  0  0  0
 53129  1  0  0  0  0
 54 55  2  3  0  0  0
 54130  1  0  0  0  0
 55 56  1  0  0  0  0
 55131  1  0  0  0  0
 56 57  2  3  0  0  0
 56132  1  0  0  0  0
 57 58  1  0  0  0  0
 57133  1  0  0  0  0
 58 59  2  3  0  0  0
 58134  1  0  0  0  0
 59 60  1  0  0  0  0
 59135  1  0  0  0  0
 60 61  2  3  0  0  0
 60136  1  0  0  0  0
 61 62  1  0  0  0  0
 61137  1  0  0  0  0
 62 63  2  3  0  0  0
 62138  1  0  0  0  0
 63 64  1  0  0  0  0
 63139  1  0  0  0  0
 64 65  2  3  0  0  0
 64140  1  0  0  0  0
 65 66  1  0  0  0  0
 65141  1  0  0  0  0
 66 67  2  3  0  0  0
 66142  1  0  0  0  0
 67 68  1  0  0  0  0
 67143  1  0  0  0  0
 68 69  2  3  0  0  0
 68144  1  0  0  0  0
 69 70  1  0  0  0  0
 69145  1  0  0  0  0
 70 71  2  3  0  0  0
 70146  1  0  0  0  0
 71 72  1  0  0  0  0
 71147  1  0  0  0  0
 72 73  1  0  0  0  0
 72148  1  0  0  0  0
 72149  1  0  0  0  0
 73150  1  0  0  0  0
M  END
$$$$
