
 OpenBabel04232216433D

 58 60  0  0  1  0  0  0  0  0999 V2000
    3.9381    0.1336   -2.6324 C   0  0  0  0  0  0  0  0  0  0  0  0
    3.1361    0.1542   -1.2946 C   0  0  0  0  0  0  0  0  0  0  0  0
    3.4573    0.8907   -0.2210 C   0  0  0  0  0  0  0  0  0  0  0  0
    4.8848    1.0788   -0.0329 C   0  0  0  0  0  0  0  0  0  0  0  0
    5.4471    2.3006   -0.2729 C   0  0  0  0  0  0  0  0  0  0  0  0
    4.8224    3.5710   -0.5647 N   0  0  0  0  0  0  0  0  0  0  0  0
    3.8903    4.2959    0.2757 C   0  0  0  0  0  0  0  0  0  0  0  0
    3.8365    5.8089    0.2215 C   0  0  0  0  0  0  0  0  0  0  0  0
    3.4696    6.1609   -1.2420 C   0  0  0  0  0  0  0  0  0  0  0  0
    3.3857    7.6583   -1.4206 C   0  0  0  0  0  0  0  0  0  0  0  0
    3.0287    8.0571   -2.8474 C   0  0  0  0  0  0  0  0  0  0  0  0
    2.9699    9.5719   -2.9205 C   0  0  0  0  0  0  0  0  0  0  0  0
    6.9750    2.4150   -0.3888 C   0  0  3  0  0  0  0  0  0  0  0  0
    7.7968    1.1290   -0.4959 C   0  0  0  0  0  0  0  0  0  0  0  0
    7.1364   -0.1783   -0.2122 C   0  0  0  0  0  0  0  0  0  0  0  0
    5.6737   -0.2154    0.0637 C   0  0  0  0  0  0  0  0  0  0  0  0
    5.0990   -1.4648    0.0703 C   0  0  0  0  0  0  0  0  0  0  0  0
    5.6434   -2.5359   -0.8246 C   0  0  0  0  0  0  0  0  0  0  0  0
    5.3729   -2.3232   -2.1391 C   0  0  0  0  0  0  0  0  0  0  0  0
    6.0889   -1.4011   -2.8835 N   0  0  0  0  0  0  0  0  0  0  0  0
    7.2086    3.2700   -1.5739 N   0  0  0  0  0  0  0  0  0  0  0  0
    8.4359    3.4069   -1.9349 C   0  0  0  0  0  0  0  0  0  0  0  0
    8.6750    3.7689   -3.3564 C   0  0  0  0  0  0  0  0  0  0  0  0
    8.7572    2.5169   -3.9070 C   0  0  0  0  0  0  0  0  0  0  0  0
    7.5266    1.7389   -4.4634 C   0  0  0  0  0  0  0  0  0  0  0  0
    6.6310    0.8722   -3.8645 C   0  0  0  0  0  0  0  0  0  0  0  0
    5.5750   -0.1810   -3.0701 C   0  0  0  0  0  0  0  0  0  0  0  0
    3.4139   -0.7129   -3.0950 H   0  0  0  0  0  0  0  0  0  0  0  0
    3.5801    1.0199   -3.1635 H   0  0  0  0  0  0  0  0  0  0  0  0
    2.5502   -0.7234   -0.9729 H   0  0  0  0  0  0  0  0  0  0  0  0
    2.7694    1.7100   -0.0868 H   0  0  0  0  0  0  0  0  0  0  0  0
    4.5635    3.5623   -1.5620 H   0  0  0  0  0  0  0  0  0  0  0  0
    4.2549    4.1544    1.2880 H   0  0  0  0  0  0  0  0  0  0  0  0
    2.8722    3.9164    0.1299 H   0  0  0  0  0  0  0  0  0  0  0  0
    4.7875    6.2763    0.4997 H   0  0  0  0  0  0  0  0  0  0  0  0
    3.0606    6.1918    0.8950 H   0  0  0  0  0  0  0  0  0  0  0  0
    2.5018    5.7123   -1.5114 H   0  0  0  0  0  0  0  0  0  0  0  0
    4.2068    5.7339   -1.9364 H   0  0  0  0  0  0  0  0  0  0  0  0
    4.3486    8.1012   -1.1448 H   0  0  0  0  0  0  0  0  0  0  0  0
    2.6276    8.0524   -0.7345 H   0  0  0  0  0  0  0  0  0  0  0  0
    2.0601    7.6318   -3.1377 H   0  0  0  0  0  0  0  0  0  0  0  0
    3.7759    7.6761   -3.5539 H   0  0  0  0  0  0  0  0  0  0  0  0
    2.2150    9.9567   -2.2263 H   0  0  0  0  0  0  0  0  0  0  0  0
    2.7179    9.9068   -3.9287 H   0  0  0  0  0  0  0  0  0  0  0  0
    3.9369   10.0034   -2.6407 H   0  0  0  0  0  0  0  0  0  0  0  0
    7.3207    2.9641    0.4874 H   0  0  0  0  0  0  0  0  0  0  0  0
    8.6464    1.2068    0.1851 H   0  0  0  0  0  0  0  0  0  0  0  0
    8.2828    1.0127   -1.4706 H   0  0  0  0  0  0  0  0  0  0  0  0
    7.6435   -0.6831    0.6160 H   0  0  0  0  0  0  0  0  0  0  0  0
    7.3907   -0.7970   -1.0753 H   0  0  0  0  0  0  0  0  0  0  0  0
    4.0572   -1.6672    0.3136 H   0  0  0  0  0  0  0  0  0  0  0  0
    6.6940   -2.6787   -0.5583 H   0  0  0  0  0  0  0  0  0  0  0  0
    4.3613   -2.5333   -2.4813 H   0  0  0  0  0  0  0  0  0  0  0  0
    9.3032    3.0333   -1.3599 H   0  0  0  0  0  0  0  0  0  0  0  0
    7.8629    4.4346   -3.6321 H   0  0  0  0  0  0  0  0  0  0  0  0
    9.7459    2.0706   -3.9066 H   0  0  0  0  0  0  0  0  0  0  0  0
    7.3599    2.1767   -5.4287 H   0  0  0  0  0  0  0  0  0  0  0  0
    7.3714    0.5183   -3.1299 H   0  0  0  0  0  0  0  0  0  0  0  0
  1  2  1  0  0  0  0
  1 27  1  0  0  0  0
  1 28  1  0  0  0  0
  1 29  1  0  0  0  0
  2  3  2  3  0  0  0
  2 30  1  0  0  0  0
  3  4  1  0  0  0  0
  3 31  1  0  0  0  0
  4  5  2  0  0  0  0
  4 16  1  0  0  0  0
  5  6  1  0  0  0  0
  5 13  1  0  0  0  0
  6  7  1  0  0  0  0
  6 32  1  0  0  0  0
  7  8  1  0  0  0  0
  7 33  1  0  0  0  0
  7 34  1  0  0  0  0
  8  9  1  0  0  0  0
  8 35  1  0  0  0  0
  8 36  1  0  0  0  0
  9 10  1  0  0  0  0
  9 37  1  0  0  0  0
  9 38  1  0  0  0  0
 10 11  1  0  0  0  0
 10 39  1  0  0  0  0
 10 40  1  0  0  0  0
 11 12  1  0  0  0  0
 11 41  1  0  0  0  0
 11 42  1  0  0  0  0
 12 43  1  0  0  0  0
 12 44  1  0  0  0  0
 12 45  1  0  0  0  0
 13 14  1  0  0  0  0
 13 21  1  0  0  0  0
 13 46  1  0  0  0  0
 14 15  1  0  0  0  0
 14 47  1  0  0  0  0
 14 48  1  0  0  0  0
 15 16  1  0  0  0  0
 15 49  1  0  0  0  0
 15 50  1  0  0  0  0
 16 17  2  3  0  0  0
 17 18  1  0  0  0  0
 17 51  1  0  0  0  0
 18 19  2  3  0  0  0
 18 52  1  0  0  0  0
 19 20  1  0  0  0  0
 19 53  1  0  0  0  0
 20 27  2  3  0  0  0
 21 22  2  3  0  0  0
 22 23  1  0  0  0  0
 22 54  1  0  0  0  0
 23 24  2  3  0  0  0
 23 55  1  0  0  0  0
 24 25  1  0  0  0  0
 24 56  1  0  0  0  0
 25 26  2  3  0  0  0
 25 57  1  0  0  0  0
 26 27  1  0  0  0  0
 26 58  1  0  0  0  0
M  END
$$$$
