
 OpenBabel04232216553D

 50 52  0  0  0  0  0  0  0  0999 V2000
    1.1766    0.0368    0.0586 C   0  0  0  0  0  0  0  0  0  0  0  0
    2.6196    0.0413    0.0591 N   0  0  0  0  0  0  0  0  0  0  0  0
    3.5621    1.1078    0.0737 C   0  0  0  0  0  0  0  0  0  0  0  0
    3.3593    2.4333    0.0658 C   0  0  0  0  0  0  0  0  0  0  0  0
    2.0199    3.1423    0.0707 C   0  0  0  0  0  0  0  0  0  0  0  0
    1.4005    3.4652   -1.2801 C   0  0  0  0  0  0  0  0  0  0  0  0
    1.6829    2.6492   -2.3873 C   0  0  0  0  0  0  0  0  0  0  0  0
    1.1027    2.8796   -3.6327 C   0  0  0  0  0  0  0  0  0  0  0  0
    0.2015    3.9290   -3.8081 C   0  0  0  0  0  0  0  0  0  0  0  0
   -0.4115    4.2007   -5.1498 C   0  0  0  0  0  0  0  0  0  0  0  0
   -0.1286    4.7249   -2.7052 C   0  0  0  0  0  0  0  0  0  0  0  0
    0.4477    4.5023   -1.4397 C   0  0  0  0  0  0  0  0  0  0  0  0
    0.0020    5.3708   -0.2936 C   0  0  0  0  0  0  0  0  0  0  0  0
    4.9279    0.4537    0.0642 C   0  0  0  0  0  0  0  0  0  0  0  0
    6.2693    1.1414    0.0453 C   0  0  0  0  0  0  0  0  0  0  0  0
    7.1451    0.7699   -1.1685 C   0  0  0  0  0  0  0  0  0  0  0  0
    6.6153    1.0967   -2.5645 C   0  0  0  0  0  0  0  0  0  0  0  0
    7.6370    0.6312   -3.6066 C   0  0  0  0  0  0  0  0  0  0  0  0
    4.7238   -0.8722    0.0617 C   0  0  0  0  0  0  0  0  0  0  0  0
    5.4304   -2.1159    0.0577 C   0  0  0  0  0  0  0  0  0  0  0  0
    4.4664   -3.0832    0.0647 C   0  0  0  0  0  0  0  0  0  0  0  0
    3.1461   -2.4602    0.0661 C   0  0  0  0  0  0  0  0  0  0  0  0
    3.3060   -1.1342    0.0591 C   0  0  0  0  0  0  0  0  0  0  0  0
    0.6892    0.9999    0.0272 H   0  0  0  0  0  0  0  0  0  0  0  0
    0.8034   -0.4705    0.9579 H   0  0  0  0  0  0  0  0  0  0  0  0
    0.7973   -0.4988   -0.8202 H   0  0  0  0  0  0  0  0  0  0  0  0
    4.2129    3.1060    0.0932 H   0  0  0  0  0  0  0  0  0  0  0  0
    2.1357    4.0609    0.6521 H   0  0  0  0  0  0  0  0  0  0  0  0
    1.2924    2.5638    0.6396 H   0  0  0  0  0  0  0  0  0  0  0  0
    2.3603    1.8036   -2.2861 H   0  0  0  0  0  0  0  0  0  0  0  0
    1.3621    2.2281   -4.4631 H   0  0  0  0  0  0  0  0  0  0  0  0
   -0.0532    3.4925   -5.9048 H   0  0  0  0  0  0  0  0  0  0  0  0
   -0.1477    5.2082   -5.4873 H   0  0  0  0  0  0  0  0  0  0  0  0
   -1.5012    4.1118   -5.0978 H   0  0  0  0  0  0  0  0  0  0  0  0
   -0.8535    5.5288   -2.8361 H   0  0  0  0  0  0  0  0  0  0  0  0
   -0.7252    6.1255   -0.6125 H   0  0  0  0  0  0  0  0  0  0  0  0
    0.8532    5.9049    0.1387 H   0  0  0  0  0  0  0  0  0  0  0  0
   -0.4820    4.7603    0.4784 H   0  0  0  0  0  0  0  0  0  0  0  0
    6.8240    0.8661    0.9539 H   0  0  0  0  0  0  0  0  0  0  0  0
    6.1630    2.2291    0.0896 H   0  0  0  0  0  0  0  0  0  0  0  0
    7.3341   -0.3095   -1.1406 H   0  0  0  0  0  0  0  0  0  0  0  0
    8.1146    1.2753   -1.0625 H   0  0  0  0  0  0  0  0  0  0  0  0
    6.4525    2.1748   -2.6715 H   0  0  0  0  0  0  0  0  0  0  0  0
    5.6618    0.5895   -2.7446 H   0  0  0  0  0  0  0  0  0  0  0  0
    8.6009    1.1329   -3.4653 H   0  0  0  0  0  0  0  0  0  0  0  0
    7.2902    0.8454   -4.6214 H   0  0  0  0  0  0  0  0  0  0  0  0
    7.8136   -0.4479   -3.5302 H   0  0  0  0  0  0  0  0  0  0  0  0
    6.4832   -2.2875    0.0518 H   0  0  0  0  0  0  0  0  0  0  0  0
    4.6453   -4.1400    0.0668 H   0  0  0  0  0  0  0  0  0  0  0  0
    2.2129   -3.0023    0.0737 H   0  0  0  0  0  0  0  0  0  0  0  0
  1  2  1  0  0  0  0
  1 24  1  0  0  0  0
  1 25  1  0  0  0  0
  1 26  1  0  0  0  0
  2  3  1  0  0  0  0
  2 23  1  0  0  0  0
  3  4  2  3  0  0  0
  3 14  1  0  0  0  0
  4  5  1  0  0  0  0
  4 27  1  0  0  0  0
  5  6  1  0  0  0  0
  5 28  1  0  0  0  0
  5 29  1  0  0  0  0
  6  7  1  0  0  0  0
  6 12  2  0  0  0  0
  7  8  2  0  0  0  0
  7 30  1  0  0  0  0
  8  9  1  0  0  0  0
  8 31  1  0  0  0  0
  9 10  1  0  0  0  0
  9 11  2  0  0  0  0
 10 32  1  0  0  0  0
 10 33  1  0  0  0  0
 10 34  1  0  0  0  0
 11 12  1  0  0  0  0
 11 35  1  0  0  0  0
 12 13  1  0  0  0  0
 13 36  1  0  0  0  0
 13 37  1  0  0  0  0
 13 38  1  0  0  0  0
 14 15  1  0  0  0  0
 14 19  2  0  0  0  0
 15 16  1  0  0  0  0
 15 39  1  0  0  0  0
 15 40  1  0  0  0  0
 16 17  1  0  0  0  0
 16 41  1  0  0  0  0
 16 42  1  0  0  0  0
 17 18  1  0  0  0  0
 17 43  1  0  0  0  0
 17 44  1  0  0  0  0
 18 45  1  0  0  0  0
 18 46  1  0  0  0  0
 18 47  1  0  0  0  0
 19 20  1  0  0  0  0
 19 23  1  0  0  0  0
 20 21  2  0  0  0  0
 20 48  1  0  0  0  0
 21 22  1  0  0  0  0
 21 49  1  0  0  0  0
 22 23  2  0  0  0  0
 22 50  1  0  0  0  0
M  END
$$$$
