
 OpenBabel04232216583D

 43 42  0  0  0  0  0  0  0  0999 V2000
    1.0026   -4.0231   -8.3908 N   0  0  0  0  0  0  0  0  0  0  0  0
    2.4184   -4.0601   -8.4251 N   0  0  0  0  0  0  0  0  0  0  0  0
    2.8981   -2.9649   -7.6805 N   0  0  0  0  0  0  0  0  0  0  0  0
    4.3133   -2.9808   -7.6283 N   0  0  0  0  0  0  0  0  0  0  0  0
    4.7760   -1.8831   -6.8632 N   0  0  0  0  0  0  0  0  0  0  0  0
    6.2079   -1.8865   -6.8369 N   0  0  0  0  0  0  0  0  0  0  0  0
    6.6797   -0.7333   -6.0760 C   0  0  0  0  0  0  0  0  0  0  0  0
    8.1268   -0.8478   -5.9614 N   0  0  0  0  0  0  0  0  0  0  0  0
    8.6595    0.3140   -5.3049 N   0  0  0  0  0  0  0  0  0  0  0  0
   10.0740    0.2242   -5.3278 N   0  0  0  0  0  0  0  0  0  0  0  0
   10.5515    0.4152   -6.6675 N   0  0  0  0  0  0  0  0  0  0  0  0
   12.0156    0.3929   -6.6516 C   0  0  0  0  0  0  0  0  0  0  0  0
   12.5388    0.4895   -8.0841 C   0  0  0  0  0  0  0  0  0  0  0  0
   14.0672    0.4567   -8.1121 C   0  0  0  0  0  0  0  0  0  0  0  0
   14.5943    0.5535   -9.5432 C   0  0  0  0  0  0  0  0  0  0  0  0
   16.1214    0.5320   -9.5741 C   0  0  0  0  0  0  0  0  0  0  0  0
   16.6465    0.6325  -10.9969 C   0  0  0  0  0  0  0  0  0  0  0  0
    0.5970   -4.8116   -8.8964 H   0  0  0  0  0  0  0  0  0  0  0  0
    0.6515   -3.1732   -8.8354 H   0  0  0  0  0  0  0  0  0  0  0  0
    2.7959   -4.0449   -9.3782 H   0  0  0  0  0  0  0  0  0  0  0  0
    2.5119   -3.0352   -6.7346 H   0  0  0  0  0  0  0  0  0  0  0  0
    4.7029   -2.9414   -8.5703 H   0  0  0  0  0  0  0  0  0  0  0  0
    4.4056   -1.9716   -5.9079 H   0  0  0  0  0  0  0  0  0  0  0  0
    6.5848   -1.8068   -7.7787 H   0  0  0  0  0  0  0  0  0  0  0  0
    6.2434   -0.7452   -5.0690 H   0  0  0  0  0  0  0  0  0  0  0  0
    6.3905    0.2012   -6.5737 H   0  0  0  0  0  0  0  0  0  0  0  0
    8.5314   -0.8713   -6.8992 H   0  0  0  0  0  0  0  0  0  0  0  0
    8.3325    0.3631   -4.3321 H   0  0  0  0  0  0  0  0  0  0  0  0
   10.3518   -0.6985   -4.9699 H   0  0  0  0  0  0  0  0  0  0  0  0
   10.2296    1.3234   -7.0080 H   0  0  0  0  0  0  0  0  0  0  0  0
   12.3760   -0.5418   -6.2030 H   0  0  0  0  0  0  0  0  0  0  0  0
   12.4046    1.2268   -6.0539 H   0  0  0  0  0  0  0  0  0  0  0  0
   12.1825    1.4163   -8.5510 H   0  0  0  0  0  0  0  0  0  0  0  0
   12.1452   -0.3448   -8.6791 H   0  0  0  0  0  0  0  0  0  0  0  0
   14.4245   -0.4720   -7.6505 H   0  0  0  0  0  0  0  0  0  0  0  0
   14.4634    1.2876   -7.5159 H   0  0  0  0  0  0  0  0  0  0  0  0
   14.2299    1.4783  -10.0068 H   0  0  0  0  0  0  0  0  0  0  0  0
   14.2022   -0.2816  -10.1364 H   0  0  0  0  0  0  0  0  0  0  0  0
   16.4908   -0.3936   -9.1174 H   0  0  0  0  0  0  0  0  0  0  0  0
   16.5179    1.3662   -8.9837 H   0  0  0  0  0  0  0  0  0  0  0  0
   16.2924   -0.2060  -11.6050 H   0  0  0  0  0  0  0  0  0  0  0  0
   17.7407    0.6167  -10.9994 H   0  0  0  0  0  0  0  0  0  0  0  0
   16.3183    1.5632  -11.4704 H   0  0  0  0  0  0  0  0  0  0  0  0
  1  2  1  0  0  0  0
  1 18  1  0  0  0  0
  1 19  1  0  0  0  0
  2  3  1  0  0  0  0
  2 20  1  0  0  0  0
  3  4  1  0  0  0  0
  3 21  1  0  0  0  0
  4  5  1  0  0  0  0
  4 22  1  0  0  0  0
  5  6  1  0  0  0  0
  5 23  1  0  0  0  0
  6  7  1  0  0  0  0
  6 24  1  0  0  0  0
  7  8  1  0  0  0  0
  7 25  1  0  0  0  0
  7 26  1  0  0  0  0
  8  9  1  0  0  0  0
  8 27  1  0  0  0  0
  9 10  1  0  0  0  0
  9 28  1  0  0  0  0
 10 11  1  0  0  0  0
 10 29  1  0  0  0  0
 11 12  1  0  0  0  0
 11 30  1  0  0  0  0
 12 13  1  0  0  0  0
 12 31  1  0  0  0  0
 12 32  1  0  0  0  0
 13 14  1  0  0  0  0
 13 33  1  0  0  0  0
 13 34  1  0  0  0  0
 14 15  1  0  0  0  0
 14 35  1  0  0  0  0
 14 36  1  0  0  0  0
 15 16  1  0  0  0  0
 15 37  1  0  0  0  0
 15 38  1  0  0  0  0
 16 17  1  0  0  0  0
 16 39  1  0  0  0  0
 16 40  1  0  0  0  0
 17 41  1  0  0  0  0
 17 42  1  0  0  0  0
 17 43  1  0  0  0  0
M  END
$$$$
