
 OpenBabel04232216443D

 51 52  0  0  1  0  0  0  0  0999 V2000
    4.0666   -3.4505   -0.6942 C   0  0  0  0  0  0  0  0  0  0  0  0
    5.1034   -2.7666   -1.6068 C   0  0  3  0  0  0  0  0  0  0  0  0
    4.3769   -1.4254   -2.0902 C   0  0  3  0  0  3  0  0  0  0  0  0
    2.9900   -1.1941   -2.7536 C   0  0  0  0  0  0  0  0  0  0  0  0
    2.4664    0.2885   -2.8638 C   0  0  0  0  0  0  0  0  0  0  0  0
    5.0566   -0.1235   -1.7558 C   0  0  0  0  0  0  0  0  0  0  0  0
    5.6724    0.1760   -3.0850 C   0  0  0  0  0  0  0  0  0  0  0  0
    7.1435   -0.0101   -2.9403 C   0  0  0  0  0  0  0  0  0  0  0  0
    7.6218   -0.5342   -4.2577 C   0  0  0  0  0  0  0  0  0  0  0  0
    9.1177   -0.3263   -4.2538 C   0  0  0  0  0  0  0  0  0  0  0  0
    9.7370   -1.2371   -5.2678 C   0  0  0  0  0  0  0  0  0  0  0  0
   10.4475   -2.3184   -4.4711 C   0  0  0  0  0  0  0  0  0  0  0  0
   11.5081   -2.1864   -3.8698 O   0  0  0  0  0  0  0  0  0  0  0  0
    9.6250   -3.5677   -4.4511 C   0  0  0  0  0  0  0  0  0  0  0  0
    8.7144   -3.6090   -3.4246 C   0  0  0  0  0  0  0  0  0  0  0  0
    7.3412   -4.2381   -3.2777 C   0  0  0  0  0  0  0  0  0  0  0  0
    7.1907   -5.4791   -3.9313 N   0  0  0  0  0  0  0  0  0  0  0  0
    7.9014   -6.0373   -4.9740 C   0  0  0  0  0  0  0  0  0  0  0  0
    7.3693   -6.5165   -5.9684 O   0  0  0  0  0  0  0  0  0  0  0  0
    9.2718   -6.1508   -4.7690 O   0  0  0  0  0  0  0  0  0  0  0  0
   10.0328   -5.6343   -5.8512 C   0  0  0  0  0  0  0  0  0  0  0  0
    9.8065   -4.1380   -5.8536 C   0  0  0  0  0  0  0  0  0  0  0  0
    6.2424   -3.6924   -2.5521 C   0  0  0  0  0  0  0  0  0  0  0  0
    3.1358   -2.8608   -0.6201 H   0  0  0  0  0  0  0  0  0  0  0  0
    4.4276   -3.4380    0.3397 H   0  0  0  0  0  0  0  0  0  0  0  0
    3.7829   -4.4569   -0.9775 H   0  0  0  0  0  0  0  0  0  0  0  0
    5.7918   -2.3668   -0.8502 H   0  0  0  0  0  0  0  0  0  0  0  0
    2.2012   -1.7416   -2.2308 H   0  0  0  0  0  0  0  0  0  0  0  0
    3.0470   -1.5661   -3.7784 H   0  0  0  0  0  0  0  0  0  0  0  0
    2.2843    0.7462   -1.8811 H   0  0  0  0  0  0  0  0  0  0  0  0
    1.5190    0.3431   -3.4121 H   0  0  0  0  0  0  0  0  0  0  0  0
    3.1562    0.9478   -3.4061 H   0  0  0  0  0  0  0  0  0  0  0  0
    5.7502   -0.2249   -0.9162 H   0  0  0  0  0  0  0  0  0  0  0  0
    4.3848    0.6826   -1.4446 H   0  0  0  0  0  0  0  0  0  0  0  0
    5.4421    1.1770   -3.4554 H   0  0  0  0  0  0  0  0  0  0  0  0
    5.2954   -0.5017   -3.8728 H   0  0  0  0  0  0  0  0  0  0  0  0
    7.3986   -0.7486   -2.1578 H   0  0  0  0  0  0  0  0  0  0  0  0
    7.6028    0.9261   -2.6445 H   0  0  0  0  0  0  0  0  0  0  0  0
    7.1568   -0.0211   -5.1075 H   0  0  0  0  0  0  0  0  0  0  0  0
    7.3159   -1.5825   -4.3538 H   0  0  0  0  0  0  0  0  0  0  0  0
    9.4902   -0.5558   -3.2457 H   0  0  0  0  0  0  0  0  0  0  0  0
    9.3292    0.7198   -4.4534 H   0  0  0  0  0  0  0  0  0  0  0  0
   10.3738   -0.7408   -5.9972 H   0  0  0  0  0  0  0  0  0  0  0  0
    8.9372   -1.6984   -5.8709 H   0  0  0  0  0  0  0  0  0  0  0  0
    9.0132   -3.0695   -2.5288 H   0  0  0  0  0  0  0  0  0  0  0  0
    6.6322   -6.1382   -3.4734 H   0  0  0  0  0  0  0  0  0  0  0  0
    9.7895   -6.0503   -6.8459 H   0  0  0  0  0  0  0  0  0  0  0  0
   11.1230   -5.8444   -5.7173 H   0  0  0  0  0  0  0  0  0  0  0  0
    8.9408   -3.8825   -6.4715 H   0  0  0  0  0  0  0  0  0  0  0  0
   10.6634   -3.6678   -6.3668 H   0  0  0  0  0  0  0  0  0  0  0  0
    6.8987   -2.8336   -2.2341 H   0  0  0  0  0  0  0  0  0  0  0  0
  1  2  1  0  0  0  0
  1 24  1  0  0  0  0
  1 25  1  0  0  0  0
  1 26  1  0  0  0  0
  2  3  1  0  0  0  0
  2 23  1  0  0  0  0
  2 27  1  0  0  0  0
  3  4  1  0  0  0  0
  3  6  1  0  0  0  0
  4  5  1  0  0  0  0
  4 28  1  0  0  0  0
  4 29  1  0  0  0  0
  5 30  1  0  0  0  0
  5 31  1  0  0  0  0
  5 32  1  0  0  0  0
  6  7  1  0  0  0  0
  6 33  1  0  0  0  0
  6 34  1  0  0  0  0
  7  8  1  0  0  0  0
  7 35  1  0  0  0  0
  7 36  1  0  0  0  0
  8  9  1  0  0  0  0
  8 37  1  0  0  0  0
  8 38  1  0  0  0  0
  9 10  1  0  0  0  0
  9 39  1  0  0  0  0
  9 40  1  0  0  0  0
 10 11  1  0  0  0  0
 10 41  1  0  0  0  0
 10 42  1  0  0  0  0
 11 12  1  0  0  0  0
 11 43  1  0  0  0  0
 11 44  1  0  0  0  0
 12 13  2  0  0  0  0
 12 14  1  0  0  0  0
 14 15  2  0  0  0  0
 14 22  1  0  0  0  0
 15 16  1  0  0  0  0
 15 45  1  0  0  0  0
 16 17  1  0  0  0  0
 16 23  2  3  0  0  0
 17 18  1  0  0  0  0
 17 46  1  0  0  0  0
 18 19  2  0  0  0  0
 18 20  1  0  0  0  0
 20 21  1  0  0  0  0
 21 22  1  0  0  0  0
 21 47  1  0  0  0  0
 21 48  1  0  0  0  0
 22 49  1  0  0  0  0
 22 50  1  0  0  0  0
 23 51  1  0  0  0  0
M  END
$$$$
