
 OpenBabel04232216573D

234234  0  0  1  0  0  0  0  0999 V2000
    2.6766    1.2857   -0.0358 C   0  0  0  0  0  0  0  0  0  0  0  0
    2.5113   -0.1042   -0.2827 O   0  0  0  0  0  0  0  0  0  0  0  0
    3.0394   -0.9155    0.7867 C   0  0  3  0  0  0  0  0  0  0  0  0
    2.9141   -2.4007    0.5895 C   0  0  0  0  0  0  0  0  0  0  0  0
    4.2075   -1.7557    0.5936 C   0  0  3  0  0  3  0  0  0  0  0  0
    5.2284   -1.9620    1.6545 C   0  0  0  0  0  0  0  0  0  0  0  0
    6.4691   -1.1220    1.3600 C   0  0  0  0  0  0  0  0  0  0  0  0
    7.5250   -1.3223    2.4414 C   0  0  0  0  0  0  0  0  0  0  0  0
    8.7675   -0.4898    2.1506 C   0  0  0  0  0  0  0  0  0  0  0  0
    9.8123   -0.7004    3.2372 C   0  0  0  0  0  0  0  0  0  0  0  0
   11.0542    0.1277    2.9478 C   0  0  0  0  0  0  0  0  0  0  0  0
   12.0933   -0.0862    4.0357 C   0  0  0  0  0  0  0  0  0  0  0  0
   13.3324    0.7421    3.7439 C   0  0  0  0  0  0  0  0  0  0  0  0
   14.3698    0.5278    4.8310 C   0  0  0  0  0  0  0  0  0  0  0  0
   15.6064    1.3566    4.5365 C   0  0  0  0  0  0  0  0  0  0  0  0
   16.6437    1.1426    5.6231 C   0  0  0  0  0  0  0  0  0  0  0  0
   17.8807    1.9699    5.3275 C   0  0  0  0  0  0  0  0  0  0  0  0
   18.9160    1.7545    6.4146 C   0  0  0  0  0  0  0  0  0  0  0  0
   20.1529    2.5812    6.1196 C   0  0  0  0  0  0  0  0  0  0  0  0
   21.1883    2.3658    7.2070 C   0  0  0  0  0  0  0  0  0  0  0  0
   22.4251    3.1928    6.9110 C   0  0  0  0  0  0  0  0  0  0  0  0
   23.4607    2.9779    7.9980 C   0  0  0  0  0  0  0  0  0  0  0  0
   24.6969    3.8049    7.7019 C   0  0  0  0  0  0  0  0  0  0  0  0
   25.7321    3.5895    8.7892 C   0  0  0  0  0  0  0  0  0  0  0  0
   26.9685    4.4164    8.4932 C   0  0  0  0  0  0  0  0  0  0  0  0
   28.0038    4.2012    9.5803 C   0  0  0  0  0  0  0  0  0  0  0  0
   29.2408    5.0268    9.2830 C   0  0  0  0  0  0  0  0  0  0  0  0
   30.2762    4.8117   10.3701 C   0  0  0  0  0  0  0  0  0  0  0  0
   31.5125    5.6387   10.0740 C   0  0  0  0  0  0  0  0  0  0  0  0
   32.5472    5.4249   11.1621 C   0  0  0  0  0  0  0  0  0  0  0  0
   33.7835    6.2520   10.8661 C   0  0  0  0  0  0  0  0  0  0  0  0
   34.8188    6.0368   11.9532 C   0  0  0  0  0  0  0  0  0  0  0  0
   36.0544    6.8654   11.6582 C   0  0  0  0  0  0  0  0  0  0  0  0
   37.0899    6.6502   12.7453 C   0  0  0  0  0  0  0  0  0  0  0  0
   38.3254    7.4788   12.4503 C   0  0  0  0  0  0  0  0  0  0  0  0
   39.3608    7.2636   13.5374 C   0  0  0  0  0  0  0  0  0  0  0  0
   40.5964    8.0922   13.2424 C   0  0  0  0  0  0  0  0  0  0  0  0
   41.6318    7.8770   14.3295 C   0  0  0  0  0  0  0  0  0  0  0  0
   42.8674    8.7055   14.0344 C   0  0  0  0  0  0  0  0  0  0  0  0
   43.9036    8.4888   15.1205 C   0  0  0  0  0  0  0  0  0  0  0  0
   45.1399    9.3159   14.8245 C   0  0  0  0  0  0  0  0  0  0  0  0
   46.1761    9.0991   15.9105 C   0  0  0  0  0  0  0  0  0  0  0  0
   47.4125    9.9262   15.6145 C   0  0  0  0  0  0  0  0  0  0  0  0
   48.4487    9.7094   16.7005 C   0  0  0  0  0  0  0  0  0  0  0  0
   49.6843   10.5379   16.4054 C   0  0  0  0  0  0  0  0  0  0  0  0
   50.7212   10.3197   17.4905 C   0  0  0  0  0  0  0  0  0  0  0  0
   51.9576   11.1468   17.1945 C   0  0  0  0  0  0  0  0  0  0  0  0
   52.9938   10.9300   18.2805 C   0  0  0  0  0  0  0  0  0  0  0  0
   54.2294   11.7586   17.9855 C   0  0  0  0  0  0  0  0  0  0  0  0
   55.2648   11.5434   19.0726 C   0  0  0  0  0  0  0  0  0  0  0  0
   56.5004   12.3720   18.7776 C   0  0  0  0  0  0  0  0  0  0  0  0
   57.5358   12.1568   19.8647 C   0  0  0  0  0  0  0  0  0  0  0  0
   58.7721   12.9838   19.5686 C   0  0  0  0  0  0  0  0  0  0  0  0
   59.8075   12.7687   20.6558 C   0  0  0  0  0  0  0  0  0  0  0  0
   61.0439   13.5957   20.3597 C   0  0  0  0  0  0  0  0  0  0  0  0
   62.0785   13.3821   21.4478 C   0  0  0  0  0  0  0  0  0  0  0  0
   63.3149   14.2091   21.1518 C   0  0  0  0  0  0  0  0  0  0  0  0
   64.3488   13.9969   22.2409 C   0  0  0  0  0  0  0  0  0  0  0  0
   65.5858   14.8225   21.9439 C   0  0  0  0  0  0  0  0  0  0  0  0
   66.6205   14.6088   23.0320 C   0  0  0  0  0  0  0  0  0  0  0  0
   67.8621   15.4335   22.7328 C   0  0  0  0  0  0  0  0  0  0  0  0
   68.8941   15.2214   23.8216 C   0  0  0  0  0  0  0  0  0  0  0  0
   70.1297   16.0445   23.5280 C   0  0  0  0  0  0  0  0  0  0  0  0
   71.1643   15.8323   24.6148 C   0  0  0  0  0  0  0  0  0  0  0  0
   72.4009   16.6582   24.3175 C   0  0  0  0  0  0  0  0  0  0  0  0
   73.4368   16.4456   25.4038 C   0  0  0  0  0  0  0  0  0  0  0  0
   74.6732   17.2711   25.1105 C   0  0  0  0  0  0  0  0  0  0  0  0
   75.7061   17.0592   26.1972 C   0  0  0  0  0  0  0  0  0  0  0  0
   76.9439   17.8869   25.9036 C   0  0  0  0  0  0  0  0  0  0  0  0
   77.9779   17.6756   26.9906 C   0  0  0  0  0  0  0  0  0  0  0  0
   79.2142   18.5020   26.6958 C   0  0  0  0  0  0  0  0  0  0  0  0
   80.2485   18.2920   27.7858 C   0  0  0  0  0  0  0  0  0  0  0  0
   81.4864   19.1188   27.4913 C   0  0  0  0  0  0  0  0  0  0  0  0
   82.5225   18.9076   28.5807 C   0  0  0  0  0  0  0  0  0  0  0  0
   83.7633   19.7326   28.2873 C   0  0  0  0  0  0  0  0  0  0  0  0
   84.8020   19.5220   29.3778 C   0  0  0  0  0  0  0  0  0  0  0  0
   86.0463   20.3473   29.0863 C   0  0  0  0  0  0  0  0  0  0  0  0
   87.0944   20.1449   30.1717 C   0  0  0  0  0  0  0  0  0  0  0  0
   88.3338   20.9703   29.8765 C   0  0  0  0  0  0  0  0  0  0  0  0
    2.3546    1.8410   -0.9203 H   0  0  0  0  0  0  0  0  0  0  0  0
    3.7267    1.5190    0.1676 H   0  0  0  0  0  0  0  0  0  0  0  0
    2.0557    1.5839    0.8146 H   0  0  0  0  0  0  0  0  0  0  0  0
    2.8849   -0.5542    1.8005 H   0  0  0  0  0  0  0  0  0  0  0  0
    2.5777   -2.7698   -0.3699 H   0  0  0  0  0  0  0  0  0  0  0  0
    2.6626   -3.0140    1.4440 H   0  0  0  0  0  0  0  0  0  0  0  0
    5.5026   -3.0228    1.6911 H   0  0  0  0  0  0  0  0  0  0  0  0
    4.8281   -1.6980    2.6412 H   0  0  0  0  0  0  0  0  0  0  0  0
    6.2007   -0.0590    1.3024 H   0  0  0  0  0  0  0  0  0  0  0  0
    6.8866   -1.4000    0.3836 H   0  0  0  0  0  0  0  0  0  0  0  0
    7.7993   -2.3827    2.5001 H   0  0  0  0  0  0  0  0  0  0  0  0
    7.1144   -1.0390    3.4182 H   0  0  0  0  0  0  0  0  0  0  0  0
    8.5011    0.5729    2.0953 H   0  0  0  0  0  0  0  0  0  0  0  0
    9.1860   -0.7703    1.1763 H   0  0  0  0  0  0  0  0  0  0  0  0
   10.0816   -1.7623    3.2956 H   0  0  0  0  0  0  0  0  0  0  0  0
    9.3985   -0.4174    4.2129 H   0  0  0  0  0  0  0  0  0  0  0  0
   10.7896    1.1908    2.8914 H   0  0  0  0  0  0  0  0  0  0  0  0
   11.4730   -0.1545    1.9740 H   0  0  0  0  0  0  0  0  0  0  0  0
   12.3613   -1.1484    4.0937 H   0  0  0  0  0  0  0  0  0  0  0  0
   11.6780    0.1971    5.0108 H   0  0  0  0  0  0  0  0  0  0  0  0
   13.0668    1.8049    3.6869 H   0  0  0  0  0  0  0  0  0  0  0  0
   13.7501    0.4594    2.7697 H   0  0  0  0  0  0  0  0  0  0  0  0
   14.6377   -0.5344    4.8888 H   0  0  0  0  0  0  0  0  0  0  0  0
   13.9544    0.8111    5.8060 H   0  0  0  0  0  0  0  0  0  0  0  0
   15.3400    2.4192    4.4792 H   0  0  0  0  0  0  0  0  0  0  0  0
   16.0232    1.0736    3.5620 H   0  0  0  0  0  0  0  0  0  0  0  0
   16.9101    0.0799    5.6817 H   0  0  0  0  0  0  0  0  0  0  0  0
   16.2281    1.4271    6.5979 H   0  0  0  0  0  0  0  0  0  0  0  0
   17.6145    3.0326    5.2690 H   0  0  0  0  0  0  0  0  0  0  0  0
   18.2964    1.6854    4.3529 H   0  0  0  0  0  0  0  0  0  0  0  0
   19.1815    0.6917    6.4728 H   0  0  0  0  0  0  0  0  0  0  0  0
   18.4997    2.0389    7.3889 H   0  0  0  0  0  0  0  0  0  0  0  0
   19.8874    3.6439    6.0613 H   0  0  0  0  0  0  0  0  0  0  0  0
   20.5691    2.2968    5.1453 H   0  0  0  0  0  0  0  0  0  0  0  0
   21.4541    1.3032    7.2653 H   0  0  0  0  0  0  0  0  0  0  0  0
   20.7723    2.6502    8.1813 H   0  0  0  0  0  0  0  0  0  0  0  0
   22.1591    4.2556    6.8529 H   0  0  0  0  0  0  0  0  0  0  0  0
   22.8410    2.9081    5.9367 H   0  0  0  0  0  0  0  0  0  0  0  0
   23.7268    1.9153    8.0566 H   0  0  0  0  0  0  0  0  0  0  0  0
   23.0451    3.2623    8.9725 H   0  0  0  0  0  0  0  0  0  0  0  0
   24.4312    4.8676    7.6437 H   0  0  0  0  0  0  0  0  0  0  0  0
   25.1130    3.5205    6.7276 H   0  0  0  0  0  0  0  0  0  0  0  0
   25.9980    2.5268    8.8475 H   0  0  0  0  0  0  0  0  0  0  0  0
   25.3162    3.8740    9.7636 H   0  0  0  0  0  0  0  0  0  0  0  0
   26.7028    5.4792    8.4349 H   0  0  0  0  0  0  0  0  0  0  0  0
   27.3845    4.1319    7.5188 H   0  0  0  0  0  0  0  0  0  0  0  0
   28.2689    3.1383    9.6396 H   0  0  0  0  0  0  0  0  0  0  0  0
   27.5884    4.4870   10.5545 H   0  0  0  0  0  0  0  0  0  0  0  0
   28.9758    6.0897    9.2237 H   0  0  0  0  0  0  0  0  0  0  0  0
   29.6563    4.7410    8.3088 H   0  0  0  0  0  0  0  0  0  0  0  0
   30.5421    3.7490   10.4285 H   0  0  0  0  0  0  0  0  0  0  0  0
   29.8603    5.0962   11.3445 H   0  0  0  0  0  0  0  0  0  0  0  0
   31.2464    6.7012   10.0143 H   0  0  0  0  0  0  0  0  0  0  0  0
   31.9291    5.3532    9.1001 H   0  0  0  0  0  0  0  0  0  0  0  0
   32.8132    4.3623   11.2218 H   0  0  0  0  0  0  0  0  0  0  0  0
   32.1305    5.7104   12.1359 H   0  0  0  0  0  0  0  0  0  0  0  0
   33.5174    7.3147   10.8077 H   0  0  0  0  0  0  0  0  0  0  0  0
   34.1995    5.9676    9.8917 H   0  0  0  0  0  0  0  0  0  0  0  0
   35.0857    4.9743   12.0106 H   0  0  0  0  0  0  0  0  0  0  0  0
   34.4025    6.3200   12.9278 H   0  0  0  0  0  0  0  0  0  0  0  0
   35.7875    7.9279   11.6008 H   0  0  0  0  0  0  0  0  0  0  0  0
   36.4708    6.5822   10.6835 H   0  0  0  0  0  0  0  0  0  0  0  0
   37.3568    5.5877   12.8026 H   0  0  0  0  0  0  0  0  0  0  0  0
   36.6734    6.9333   13.7199 H   0  0  0  0  0  0  0  0  0  0  0  0
   38.0584    8.5413   12.3929 H   0  0  0  0  0  0  0  0  0  0  0  0
   38.7418    7.1956   11.4757 H   0  0  0  0  0  0  0  0  0  0  0  0
   39.6278    6.2011   13.5947 H   0  0  0  0  0  0  0  0  0  0  0  0
   38.9444    7.5467   14.5120 H   0  0  0  0  0  0  0  0  0  0  0  0
   40.3294    9.1547   13.1850 H   0  0  0  0  0  0  0  0  0  0  0  0
   41.0128    7.8091   12.2678 H   0  0  0  0  0  0  0  0  0  0  0  0
   41.8987    6.8145   14.3868 H   0  0  0  0  0  0  0  0  0  0  0  0
   41.2155    8.1601   15.3041 H   0  0  0  0  0  0  0  0  0  0  0  0
   42.6007    9.7681   13.9784 H   0  0  0  0  0  0  0  0  0  0  0  0
   43.2830    8.4233   13.0592 H   0  0  0  0  0  0  0  0  0  0  0  0
   44.1693    7.4260   15.1774 H   0  0  0  0  0  0  0  0  0  0  0  0
   43.4884    8.7722   16.0956 H   0  0  0  0  0  0  0  0  0  0  0  0
   44.8743   10.3787   14.7676 H   0  0  0  0  0  0  0  0  0  0  0  0
   45.5550    9.0324   13.8494 H   0  0  0  0  0  0  0  0  0  0  0  0
   46.4418    8.0363   15.9674 H   0  0  0  0  0  0  0  0  0  0  0  0
   45.7610    9.3826   16.8856 H   0  0  0  0  0  0  0  0  0  0  0  0
   47.1467   10.9890   15.5576 H   0  0  0  0  0  0  0  0  0  0  0  0
   47.8276    9.6428   14.6394 H   0  0  0  0  0  0  0  0  0  0  0  0
   48.7152    8.6468   16.7564 H   0  0  0  0  0  0  0  0  0  0  0  0
   48.0333    9.9916   17.6758 H   0  0  0  0  0  0  0  0  0  0  0  0
   49.4179   11.6007   16.3509 H   0  0  0  0  0  0  0  0  0  0  0  0
   50.0990   10.2567   15.4296 H   0  0  0  0  0  0  0  0  0  0  0  0
   50.9868    9.2568   17.5460 H   0  0  0  0  0  0  0  0  0  0  0  0
   50.3068   10.6021   18.4661 H   0  0  0  0  0  0  0  0  0  0  0  0
   51.6919   12.2096   17.1376 H   0  0  0  0  0  0  0  0  0  0  0  0
   52.3727   10.8634   16.2194 H   0  0  0  0  0  0  0  0  0  0  0  0
   53.2605    9.8674   18.3365 H   0  0  0  0  0  0  0  0  0  0  0  0
   52.5782   11.2122   19.2558 H   0  0  0  0  0  0  0  0  0  0  0  0
   53.9625   12.8211   17.9282 H   0  0  0  0  0  0  0  0  0  0  0  0
   54.6457   11.4755   17.0108 H   0  0  0  0  0  0  0  0  0  0  0  0
   55.5317   10.4809   19.1299 H   0  0  0  0  0  0  0  0  0  0  0  0
   54.8484   11.8266   20.0472 H   0  0  0  0  0  0  0  0  0  0  0  0
   56.2335   13.4345   18.7202 H   0  0  0  0  0  0  0  0  0  0  0  0
   56.9167   12.0888   17.8029 H   0  0  0  0  0  0  0  0  0  0  0  0
   57.8018   11.0941   19.9230 H   0  0  0  0  0  0  0  0  0  0  0  0
   57.1198   12.4412   20.8391 H   0  0  0  0  0  0  0  0  0  0  0  0
   58.5062   14.0465   19.5103 H   0  0  0  0  0  0  0  0  0  0  0  0
   59.1881   12.6994   18.5942 H   0  0  0  0  0  0  0  0  0  0  0  0
   60.0735   11.7060   20.7141 H   0  0  0  0  0  0  0  0  0  0  0  0
   59.3915   13.0532   21.6301 H   0  0  0  0  0  0  0  0  0  0  0  0
   60.7778   14.6583   20.3000 H   0  0  0  0  0  0  0  0  0  0  0  0
   61.4606   13.3102   19.3859 H   0  0  0  0  0  0  0  0  0  0  0  0
   62.3447   12.3195   21.5076 H   0  0  0  0  0  0  0  0  0  0  0  0
   61.6617   13.6676   22.4216 H   0  0  0  0  0  0  0  0  0  0  0  0
   63.0486   15.2715   21.0907 H   0  0  0  0  0  0  0  0  0  0  0  0
   63.7323   13.9226   20.1786 H   0  0  0  0  0  0  0  0  0  0  0  0
   64.6141   12.9343   22.3030 H   0  0  0  0  0  0  0  0  0  0  0  0
   63.9317   14.2847   23.2139 H   0  0  0  0  0  0  0  0  0  0  0  0
   65.3206   15.8853   21.8831 H   0  0  0  0  0  0  0  0  0  0  0  0
   66.0022   14.5357   20.9704 H   0  0  0  0  0  0  0  0  0  0  0  0
   66.8865   13.5463   23.0918 H   0  0  0  0  0  0  0  0  0  0  0  0
   66.2039   14.8944   24.0059 H   0  0  0  0  0  0  0  0  0  0  0  0
   67.5911   16.4984   22.6775 H   0  0  0  0  0  0  0  0  0  0  0  0
   68.2739   15.1505   21.7613 H   0  0  0  0  0  0  0  0  0  0  0  0
   69.1578   14.1576   23.8828 H   0  0  0  0  0  0  0  0  0  0  0  0
   68.4753   15.5058   24.7988 H   0  0  0  0  0  0  0  0  0  0  0  0
   69.8646   17.1075   23.4684 H   0  0  0  0  0  0  0  0  0  0  0  0
   70.5483   15.7627   22.5500 H   0  0  0  0  0  0  0  0  0  0  0  0
   71.4298   14.7694   24.6739 H   0  0  0  0  0  0  0  0  0  0  0  0
   70.7483   16.1184   25.5883 H   0  0  0  0  0  0  0  0  0  0  0  0
   72.1353   17.7238   24.2583 H   0  0  0  0  0  0  0  0  0  0  0  0
   72.8183   16.3718   23.3427 H   0  0  0  0  0  0  0  0  0  0  0  0
   73.7030   15.3812   25.4642 H   0  0  0  0  0  0  0  0  0  0  0  0
   73.0197   16.7290   26.3802 H   0  0  0  0  0  0  0  0  0  0  0  0
   74.4071   18.3335   25.0508 H   0  0  0  0  0  0  0  0  0  0  0  0
   75.0895   16.9867   24.1378 H   0  0  0  0  0  0  0  0  0  0  0  0
   75.9754   15.9969   26.2575 H   0  0  0  0  0  0  0  0  0  0  0  0
   75.2924   17.3433   27.1711 H   0  0  0  0  0  0  0  0  0  0  0  0
   76.6770   18.9482   25.8418 H   0  0  0  0  0  0  0  0  0  0  0  0
   77.3611   17.6019   24.9299 H   0  0  0  0  0  0  0  0  0  0  0  0
   78.2444   16.6122   27.0529 H   0  0  0  0  0  0  0  0  0  0  0  0
   77.5597   17.9613   27.9647 H   0  0  0  0  0  0  0  0  0  0  0  0
   78.9472   19.5646   26.6335 H   0  0  0  0  0  0  0  0  0  0  0  0
   79.6325   18.2146   25.7228 H   0  0  0  0  0  0  0  0  0  0  0  0
   80.5142   17.2293   27.8481 H   0  0  0  0  0  0  0  0  0  0  0  0
   79.8293   18.5792   28.7587 H   0  0  0  0  0  0  0  0  0  0  0  0
   81.2193   20.1811   27.4294 H   0  0  0  0  0  0  0  0  0  0  0  0
   81.9031   18.8321   26.5178 H   0  0  0  0  0  0  0  0  0  0  0  0
   82.7858   17.8445   28.6424 H   0  0  0  0  0  0  0  0  0  0  0  0
   82.1033   19.1947   29.5531 H   0  0  0  0  0  0  0  0  0  0  0  0
   83.4966   20.7946   28.2243 H   0  0  0  0  0  0  0  0  0  0  0  0
   84.1788   19.4446   27.3139 H   0  0  0  0  0  0  0  0  0  0  0  0
   85.0644   18.4587   29.4388 H   0  0  0  0  0  0  0  0  0  0  0  0
   84.3820   19.8091   30.3495 H   0  0  0  0  0  0  0  0  0  0  0  0
   85.7766   21.4093   29.0214 H   0  0  0  0  0  0  0  0  0  0  0  0
   86.4589   20.0592   28.1109 H   0  0  0  0  0  0  0  0  0  0  0  0
   87.3663   19.0846   30.2355 H   0  0  0  0  0  0  0  0  0  0  0  0
   86.6839   20.4350   31.1462 H   0  0  0  0  0  0  0  0  0  0  0  0
   88.7736   20.6791   28.9189 H   0  0  0  0  0  0  0  0  0  0  0  0
   89.0826   20.8210   30.6589 H   0  0  0  0  0  0  0  0  0  0  0  0
   88.0885   22.0349   29.8332 H   0  0  0  0  0  0  0  0  0  0  0  0
  1  2  1  0  0  0  0
  1 80  1  0  0  0  0
  1 81  1  0  0  0  0
  1 82  1  0  0  0  0
  2  3  1  0  0  0  0
  3  4  1  0  0  0  0
  3  5  1  0  0  0  0
  3 83  1  0  0  0  0
  4  5  1  0  0  0  0
  4 84  1  0  0  0  0
  4 85  1  0  0  0  0
  5  6  1  0  0  0  0
  6  7  1  0  0  0  0
  6 86  1  0  0  0  0
  6 87  1  0  0  0  0
  7  8  1  0  0  0  0
  7 88  1  0  0  0  0
  7 89  1  0  0  0  0
  8  9  1  0  0  0  0
  8 90  1  0  0  0  0
  8 91  1  0  0  0  0
  9 10  1  0  0  0  0
  9 92  1  0  0  0  0
  9 93  1  0  0  0  0
 10 11  1  0  0  0  0
 10 94  1  0  0  0  0
 10 95  1  0  0  0  0
 11 12  1  0  0  0  0
 11 96  1  0  0  0  0
 11 97  1  0  0  0  0
 12 13  1  0  0  0  0
 12 98  1  0  0  0  0
 12 99  1  0  0  0  0
 13 14  1  0  0  0  0
 13100  1  0  0  0  0
 13101  1  0  0  0  0
 14 15  1  0  0  0  0
 14102  1  0  0  0  0
 14103  1  0  0  0  0
 15 16  1  0  0  0  0
 15104  1  0  0  0  0
 15105  1  0  0  0  0
 16 17  1  0  0  0  0
 16106  1  0  0  0  0
 16107  1  0  0  0  0
 17 18  1  0  0  0  0
 17108  1  0  0  0  0
 17109  1  0  0  0  0
 18 19  1  0  0  0  0
 18110  1  0  0  0  0
 18111  1  0  0  0  0
 19 20  1  0  0  0  0
 19112  1  0  0  0  0
 19113  1  0  0  0  0
 20 21  1  0  0  0  0
 20114  1  0  0  0  0
 20115  1  0  0  0  0
 21 22  1  0  0  0  0
 21116  1  0  0  0  0
 21117  1  0  0  0  0
 22 23  1  0  0  0  0
 22118  1  0  0  0  0
 22119  1  0  0  0  0
 23 24  1  0  0  0  0
 23120  1  0  0  0  0
 23121  1  0  0  0  0
 24 25  1  0  0  0  0
 24122  1  0  0  0  0
 24123  1  0  0  0  0
 25 26  1  0  0  0  0
 25124  1  0  0  0  0
 25125  1  0  0  0  0
 26 27  1  0  0  0  0
 26126  1  0  0  0  0
 26127  1  0  0  0  0
 27 28  1  0  0  0  0
 27128  1  0  0  0  0
 27129  1  0  0  0  0
 28 29  1  0  0  0  0
 28130  1  0  0  0  0
 28131  1  0  0  0  0
 29 30  1  0  0  0  0
 29132  1  0  0  0  0
 29133  1  0  0  0  0
 30 31  1  0  0  0  0
 30134  1  0  0  0  0
 30135  1  0  0  0  0
 31 32  1  0  0  0  0
 31136  1  0  0  0  0
 31137  1  0  0  0  0
 32 33  1  0  0  0  0
 32138  1  0  0  0  0
 32139  1  0  0  0  0
 33 34  1  0  0  0  0
 33140  1  0  0  0  0
 33141  1  0  0  0  0
 34 35  1  0  0  0  0
 34142  1  0  0  0  0
 34143  1  0  0  0  0
 35 36  1  0  0  0  0
 35144  1  0  0  0  0
 35145  1  0  0  0  0
 36 37  1  0  0  0  0
 36146  1  0  0  0  0
 36147  1  0  0  0  0
 37 38  1  0  0  0  0
 37148  1  0  0  0  0
 37149  1  0  0  0  0
 38 39  1  0  0  0  0
 38150  1  0  0  0  0
 38151  1  0  0  0  0
 39 40  1  0  0  0  0
 39152  1  0  0  0  0
 39153  1  0  0  0  0
 40 41  1  0  0  0  0
 40154  1  0  0  0  0
 40155  1  0  0  0  0
 41 42  1  0  0  0  0
 41156  1  0  0  0  0
 41157  1  0  0  0  0
 42 43  1  0  0  0  0
 42158  1  0  0  0  0
 42159  1  0  0  0  0
 43 44  1  0  0  0  0
 43160  1  0  0  0  0
 43161  1  0  0  0  0
 44 45  1  0  0  0  0
 44162  1  0  0  0  0
 44163  1  0  0  0  0
 45 46  1  0  0  0  0
 45164  1  0  0  0  0
 45165  1  0  0  0  0
 46 47  1  0  0  0  0
 46166  1  0  0  0  0
 46167  1  0  0  0  0
 47 48  1  0  0  0  0
 47168  1  0  0  0  0
 47169  1  0  0  0  0
 48 49  1  0  0  0  0
 48170  1  0  0  0  0
 48171  1  0  0  0  0
 49 50  1  0  0  0  0
 49172  1  0  0  0  0
 49173  1  0  0  0  0
 50 51  1  0  0  0  0
 50174  1  0  0  0  0
 50175  1  0  0  0  0
 51 52  1  0  0  0  0
 51176  1  0  0  0  0
 51177  1  0  0  0  0
 52 53  1  0  0  0  0
 52178  1  0  0  0  0
 52179  1  0  0  0  0
 53 54  1  0  0  0  0
 53180  1  0  0  0  0
 53181  1  0  0  0  0
 54 55  1  0  0  0  0
 54182  1  0  0  0  0
 54183  1  0  0  0  0
 55 56  1  0  0  0  0
 55184  1  0  0  0  0
 55185  1  0  0  0  0
 56 57  1  0  0  0  0
 56186  1  0  0  0  0
 56187  1  0  0  0  0
 57 58  1  0  0  0  0
 57188  1  0  0  0  0
 57189  1  0  0  0  0
 58 59  1  0  0  0  0
 58190  1  0  0  0  0
 58191  1  0  0  0  0
 59 60  1  0  0  0  0
 59192  1  0  0  0  0
 59193  1  0  0  0  0
 60 61  1  0  0  0  0
 60194  1  0  0  0  0
 60195  1  0  0  0  0
 61 62  1  0  0  0  0
 61196  1  0  0  0  0
 61197  1  0  0  0  0
 62 63  1  0  0  0  0
 62198  1  0  0  0  0
 62199  1  0  0  0  0
 63 64  1  0  0  0  0
 63200  1  0  0  0  0
 63201  1  0  0  0  0
 64 65  1  0  0  0  0
 64202  1  0  0  0  0
 64203  1  0  0  0  0
 65 66  1  0  0  0  0
 65204  1  0  0  0  0
 65205  1  0  0  0  0
 66 67  1  0  0  0  0
 66206  1  0  0  0  0
 66207  1  0  0  0  0
 67 68  1  0  0  0  0
 67208  1  0  0  0  0
 67209  1  0  0  0  0
 68 69  1  0  0  0  0
 68210  1  0  0  0  0
 68211  1  0  0  0  0
 69 70  1  0  0  0  0
 69212  1  0  0  0  0
 69213  1  0  0  0  0
 70 71  1  0  0  0  0
 70214  1  0  0  0  0
 70215  1  0  0  0  0
 71 72  1  0  0  0  0
 71216  1  0  0  0  0
 71217  1  0  0  0  0
 72 73  1  0  0  0  0
 72218  1  0  0  0  0
 72219  1  0  0  0  0
 73 74  1  0  0  0  0
 73220  1  0  0  0  0
 73221  1  0  0  0  0
 74 75  1  0  0  0  0
 74222  1  0  0  0  0
 74223  1  0  0  0  0
 75 76  1  0  0  0  0
 75224  1  0  0  0  0
 75225  1  0  0  0  0
 76 77  1  0  0  0  0
 76226  1  0  0  0  0
 76227  1  0  0  0  0
 77 78  1  0  0  0  0
 77228  1  0  0  0  0
 77229  1  0  0  0  0
 78 79  1  0  0  0  0
 78230  1  0  0  0  0
 78231  1  0  0  0  0
 79232  1  0  0  0  0
 79233  1  0  0  0  0
 79234  1  0  0  0  0
M  END
$$$$
