
 OpenBabel04232216503D

 57 59  0  0  0  0  0  0  0  0999 V2000
    3.3802   -1.7643   -0.0765 C   0  0  0  0  0  0  0  0  0  0  0  0
    4.7547   -1.2642   -0.4643 C   0  0  0  0  0  0  0  0  0  0  0  0
    4.6354   -0.1677   -1.2092 N   0  0  0  0  0  2  0  0  0  0  0  0
    5.0401    1.0172   -0.6478 C   0  0  0  0  0  0  0  0  0  0  0  0
    5.1081    1.0712    0.8954 C   0  0  0  0  0  0  0  0  0  0  0  0
    5.6914    2.2112    1.7620 C   0  0  0  0  0  0  0  0  0  0  0  0
    5.7285    1.8583    3.3032 C   0  0  0  0  0  0  0  0  0  0  0  0
    6.7486    0.7915    3.7720 C   0  0  0  0  0  0  0  0  0  0  0  0
    8.1158    1.2432    4.3065 C   0  0  0  0  0  0  0  0  0  0  0  0
    8.1832    2.6082    4.9787 C   0  0  0  0  0  0  0  0  0  0  0  0
    7.2254    3.6411    4.4130 C   0  0  0  0  0  0  0  0  0  0  0  0
    5.8192    3.1131    4.1841 C   0  0  0  0  0  0  0  0  0  0  0  0
    5.5999    1.9708   -1.6949 C   0  0  0  0  0  0  0  0  0  0  0  0
    5.3580    1.4894   -3.1720 C   0  0  0  0  0  0  0  0  0  0  0  0
    5.2253    3.4602   -1.6327 C   0  0  0  0  0  0  0  0  0  0  0  0
    3.9335    4.1918   -1.9211 C   0  0  0  0  0  0  0  0  0  0  0  0
    6.5289    3.8543   -1.6850 C   0  0  0  0  0  0  0  0  0  0  0  0
    7.0146    2.5176   -1.4433 C   0  0  0  0  0  0  0  0  0  0  0  0
    8.2228    2.0178   -1.1198 C   0  0  0  0  0  0  0  0  0  0  0  0
    8.3490    0.6762   -0.6183 C   0  0  0  0  0  0  0  0  0  0  0  0
    9.3958    0.0257   -0.0767 C   0  0  0  0  0  0  0  0  0  0  0  0
    8.9650   -1.0856    0.7874 C   0  0  0  0  0  0  0  0  0  0  0  0
    8.6371   -2.2973    0.3107 C   0  0  0  0  0  0  0  0  0  0  0  0
    7.4228   -3.0063    0.8524 C   0  0  0  0  0  0  0  0  0  0  0  0
    6.1506   -2.8031    0.6194 N   0  0  0  0  0  0  0  0  0  0  0  0
    5.9549   -1.7345   -0.2348 N   0  0  0  0  0  0  0  0  0  0  0  0
    2.5902   -1.1253   -0.5168 H   0  0  0  0  0  0  0  0  0  0  0  0
    3.2399   -1.7227    1.0049 H   0  0  0  0  0  0  0  0  0  0  0  0
    3.1922   -2.7724   -0.4498 H   0  0  0  0  0  0  0  0  0  0  0  0
    5.6277    0.1759    1.2454 H   0  0  0  0  0  0  0  0  0  0  0  0
    4.0660    0.9376    1.2305 H   0  0  0  0  0  0  0  0  0  0  0  0
    5.0285    3.0746    1.6272 H   0  0  0  0  0  0  0  0  0  0  0  0
    6.6913    2.4920    1.4297 H   0  0  0  0  0  0  0  0  0  0  0  0
    4.7398    1.4194    3.5119 H   0  0  0  0  0  0  0  0  0  0  0  0
    6.9119    0.0420    2.9942 H   0  0  0  0  0  0  0  0  0  0  0  0
    6.2726    0.2341    4.5921 H   0  0  0  0  0  0  0  0  0  0  0  0
    8.8551    1.2051    3.4976 H   0  0  0  0  0  0  0  0  0  0  0  0
    8.4637    0.4954    5.0394 H   0  0  0  0  0  0  0  0  0  0  0  0
    9.2107    2.9916    4.8998 H   0  0  0  0  0  0  0  0  0  0  0  0
    8.0054    2.4942    6.0559 H   0  0  0  0  0  0  0  0  0  0  0  0
    7.6261    4.0419    3.4786 H   0  0  0  0  0  0  0  0  0  0  0  0
    7.1729    4.4795    5.1192 H   0  0  0  0  0  0  0  0  0  0  0  0
    5.2024    3.9112    3.7586 H   0  0  0  0  0  0  0  0  0  0  0  0
    5.3719    2.8819    5.1623 H   0  0  0  0  0  0  0  0  0  0  0  0
    4.2825    1.3640   -3.3666 H   0  0  0  0  0  0  0  0  0  0  0  0
    5.8652    0.5425   -3.3867 H   0  0  0  0  0  0  0  0  0  0  0  0
    5.7178    2.2190   -3.9090 H   0  0  0  0  0  0  0  0  0  0  0  0
    3.0530    3.6130   -1.6395 H   0  0  0  0  0  0  0  0  0  0  0  0
    3.8717    4.3211   -3.0119 H   0  0  0  0  0  0  0  0  0  0  0  0
    3.9377    5.2073   -1.5195 H   0  0  0  0  0  0  0  0  0  0  0  0
    7.0330    4.8023   -1.8231 H   0  0  0  0  0  0  0  0  0  0  0  0
    9.0779    2.6747   -1.0510 H   0  0  0  0  0  0  0  0  0  0  0  0
    7.3859    0.1835   -0.5030 H   0  0  0  0  0  0  0  0  0  0  0  0
   10.4058    0.4072   -0.0568 H   0  0  0  0  0  0  0  0  0  0  0  0
    8.4914   -0.7245    1.6974 H   0  0  0  0  0  0  0  0  0  0  0  0
    9.0479   -2.7020   -0.6013 H   0  0  0  0  0  0  0  0  0  0  0  0
    7.6695   -3.8543    1.5119 H   0  0  0  0  0  0  0  0  0  0  0  0
  1  2  1  0  0  0  0
  1 27  1  0  0  0  0
  1 28  1  0  0  0  0
  1 29  1  0  0  0  0
  2  3  1  0  0  0  0
  2 26  2  3  0  0  0
  3  4  1  0  0  0  0
  4  5  1  0  0  0  0
  4 13  2  0  0  0  0
  5  6  1  0  0  0  0
  5 30  1  0  0  0  0
  5 31  1  0  0  0  0
  6  7  1  0  0  0  0
  6 32  1  0  0  0  0
  6 33  1  0  0  0  0
  7  8  1  0  0  0  0
  7 12  1  0  0  0  0
  7 34  1  0  0  0  0
  8  9  1  0  0  0  0
  8 35  1  0  0  0  0
  8 36  1  0  0  0  0
  9 10  1  0  0  0  0
  9 37  1  0  0  0  0
  9 38  1  0  0  0  0
 10 11  1  0  0  0  0
 10 39  1  0  0  0  0
 10 40  1  0  0  0  0
 11 12  1  0  0  0  0
 11 41  1  0  0  0  0
 11 42  1  0  0  0  0
 12 43  1  0  0  0  0
 12 44  1  0  0  0  0
 13 14  1  0  0  0  0
 13 15  1  0  0  0  0
 13 18  1  0  0  0  0
 14 45  1  0  0  0  0
 14 46  1  0  0  0  0
 14 47  1  0  0  0  0
 15 16  1  0  0  0  0
 15 17  2  0  0  0  0
 16 48  1  0  0  0  0
 16 49  1  0  0  0  0
 16 50  1  0  0  0  0
 17 18  1  0  0  0  0
 17 51  1  0  0  0  0
 18 19  2  3  0  0  0
 19 20  1  0  0  0  0
 19 52  1  0  0  0  0
 20 21  2  3  0  0  0
 20 53  1  0  0  0  0
 21 22  1  0  0  0  0
 21 54  1  0  0  0  0
 22 23  2  3  0  0  0
 22 55  1  0  0  0  0
 23 24  1  0  0  0  0
 23 56  1  0  0  0  0
 24 25  2  3  0  0  0
 24 57  1  0  0  0  0
 25 26  1  0  0  0  0
M  END
$$$$
