
 OpenBabel04232216413D

216215  0  0  0  0  0  0  0  0999 V2000
    1.3921   -0.7177   -0.4978 C   0  0  0  0  0  0  0  0  0  0  0  0
    2.2605    0.1258    0.0790 C   0  0  0  0  0  0  0  0  0  0  0  0
    3.0475    1.1463   -0.6946 C   0  0  0  0  0  0  0  0  0  0  0  0
    4.4865    0.9378   -0.5200 N   0  0  0  0  0  0  0  0  0  0  0  0
    5.1974    1.9268   -1.2713 N   0  0  0  0  0  0  0  0  0  0  0  0
    6.5798    1.7191   -1.1102 N   0  0  0  0  0  0  0  0  0  0  0  0
    7.2951    2.6875   -1.8512 N   0  0  0  0  0  0  0  0  0  0  0  0
    8.6891    2.5062   -1.6928 N   0  0  0  0  0  0  0  0  0  0  0  0
    9.3949    3.4760   -2.4322 N   0  0  0  0  0  0  0  0  0  0  0  0
   10.7771    3.2746   -2.2742 N   0  0  0  0  0  0  0  0  0  0  0  0
   11.4892    4.2462   -3.0121 N   0  0  0  0  0  0  0  0  0  0  0  0
   12.8673    4.0389   -2.8521 N   0  0  0  0  0  0  0  0  0  0  0  0
   13.5905    5.0188   -3.5927 N   0  0  0  0  0  0  0  0  0  0  0  0
   14.9959    4.8281   -3.4437 N   0  0  0  0  0  0  0  0  0  0  0  0
   15.7217    5.7991   -4.1868 N   0  0  0  0  0  0  0  0  0  0  0  0
   17.1027    5.5904   -4.0287 N   0  0  0  0  0  0  0  0  0  0  0  0
   17.8190    6.5636   -4.7695 N   0  0  0  0  0  0  0  0  0  0  0  0
   19.2012    6.3577   -4.6163 N   0  0  0  0  0  0  0  0  0  0  0  0
   19.9164    7.3394   -5.3569 N   0  0  0  0  0  0  0  0  0  0  0  0
   21.3135    7.1373   -5.2123 N   0  0  0  0  0  0  0  0  0  0  0  0
   22.0321    8.1165   -5.9527 N   0  0  0  0  0  0  0  0  0  0  0  0
   23.4219    7.9108   -5.8009 N   0  0  0  0  0  0  0  0  0  0  0  0
   24.1520    8.8891   -6.5360 N   0  0  0  0  0  0  0  0  0  0  0  0
   25.5431    8.6813   -6.3850 N   0  0  0  0  0  0  0  0  0  0  0  0
   26.2487    9.6568   -7.1186 N   0  0  0  0  0  0  0  0  0  0  0  0
   27.6464    9.4594   -6.9746 N   0  0  0  0  0  0  0  0  0  0  0  0
   28.3501   10.4477   -7.7191 N   0  0  0  0  0  0  0  0  0  0  0  0
   29.7788   10.2161   -7.5465 C   0  0  0  0  0  0  0  0  0  0  0  0
   30.5476   11.2654   -8.3356 C   0  0  0  0  0  0  0  0  0  0  0  0
   32.0438   11.0502   -8.1776 C   0  0  0  0  0  0  0  0  0  0  0  0
   32.8101   12.0965   -8.9646 C   0  0  0  0  0  0  0  0  0  0  0  0
   34.3020   11.8793   -8.8048 C   0  0  0  0  0  0  0  0  0  0  0  0
   35.0661   12.9242   -9.5932 C   0  0  0  0  0  0  0  0  0  0  0  0
   36.5571   12.7066   -9.4331 C   0  0  0  0  0  0  0  0  0  0  0  0
   37.3207   13.7514  -10.2214 C   0  0  0  0  0  0  0  0  0  0  0  0
   38.8116   13.5338  -10.0613 C   0  0  0  0  0  0  0  0  0  0  0  0
   39.5751   14.5797  -10.8480 C   0  0  0  0  0  0  0  0  0  0  0  0
   41.0660   14.3609  -10.6895 C   0  0  0  0  0  0  0  0  0  0  0  0
   41.8295   15.4081  -11.4746 C   0  0  0  0  0  0  0  0  0  0  0  0
   43.3204   15.1904  -11.3145 C   0  0  0  0  0  0  0  0  0  0  0  0
   44.0839   16.2388  -12.0980 C   0  0  0  0  0  0  0  0  0  0  0  0
   45.5748   16.0224  -11.9362 C   0  0  0  0  0  0  0  0  0  0  0  0
   46.3383   17.0707  -12.7197 C   0  0  0  0  0  0  0  0  0  0  0  0
   47.8292   16.8543  -12.5580 C   0  0  0  0  0  0  0  0  0  0  0  0
   48.5927   17.9027  -13.3415 C   0  0  0  0  0  0  0  0  0  0  0  0
   50.0836   17.6863  -13.1797 C   0  0  0  0  0  0  0  0  0  0  0  0
   50.8471   18.7346  -13.9632 C   0  0  0  0  0  0  0  0  0  0  0  0
   52.3380   18.5170  -13.8031 C   0  0  0  0  0  0  0  0  0  0  0  0
   53.1015   19.5665  -14.5850 C   0  0  0  0  0  0  0  0  0  0  0  0
   54.5925   19.3501  -14.4233 C   0  0  0  0  0  0  0  0  0  0  0  0
   55.3559   20.3997  -15.2051 C   0  0  0  0  0  0  0  0  0  0  0  0
   56.8469   20.1845  -15.0418 C   0  0  0  0  0  0  0  0  0  0  0  0
   57.6103   21.2352  -15.8220 C   0  0  0  0  0  0  0  0  0  0  0  0
   59.1013   21.0212  -15.6571 C   0  0  0  0  0  0  0  0  0  0  0  0
   59.8647   22.0732  -16.4357 C   0  0  0  0  0  0  0  0  0  0  0  0
   61.3557   21.8580  -16.2724 C   0  0  0  0  0  0  0  0  0  0  0  0
   62.1191   22.9087  -17.0526 C   0  0  0  0  0  0  0  0  0  0  0  0
   63.6101   22.6935  -16.8893 C   0  0  0  0  0  0  0  0  0  0  0  0
   64.3735   23.7431  -17.6712 C   0  0  0  0  0  0  0  0  0  0  0  0
   65.8645   23.5278  -17.5078 C   0  0  0  0  0  0  0  0  0  0  0  0
   66.6280   24.5774  -18.2897 C   0  0  0  0  0  0  0  0  0  0  0  0
   68.1189   24.3622  -18.1264 C   0  0  0  0  0  0  0  0  0  0  0  0
   68.8824   25.4117  -18.9083 C   0  0  0  0  0  0  0  0  0  0  0  0
   70.3733   25.1965  -18.7449 C   0  0  0  0  0  0  0  0  0  0  0  0
   71.1368   26.2461  -19.5268 C   0  0  0  0  0  0  0  0  0  0  0  0
   72.6277   26.0309  -19.3634 C   0  0  0  0  0  0  0  0  0  0  0  0
   73.3912   27.0804  -20.1453 C   0  0  0  0  0  0  0  0  0  0  0  0
   74.8821   26.8652  -19.9820 C   0  0  0  0  0  0  0  0  0  0  0  0
   75.6456   27.9136  -20.7655 C   0  0  0  0  0  0  0  0  0  0  0  0
   77.1365   27.6983  -20.6021 C   0  0  0  0  0  0  0  0  0  0  0  0
   77.9000   28.7467  -21.3856 C   0  0  0  0  0  0  0  0  0  0  0  0
   79.3909   28.5315  -21.2222 C   0  0  0  0  0  0  0  0  0  0  0  0
   80.1544   29.5798  -22.0057 C   0  0  0  0  0  0  0  0  0  0  0  0
   81.6453   29.3646  -21.8424 C   0  0  0  0  0  0  0  0  0  0  0  0
   82.4088   30.4118  -22.6275 C   0  0  0  0  0  0  0  0  0  0  0  0
   83.8997   30.1966  -22.4642 C   0  0  0  0  0  0  0  0  0  0  0  0
   84.6632   31.2441  -23.2495 C   0  0  0  0  0  0  0  0  0  0  0  0
   86.1547   31.0285  -23.0884 C   0  0  0  0  0  0  0  0  0  0  0  0
   86.9220   32.0773  -23.8722 C   0  0  0  0  0  0  0  0  0  0  0  0
   88.4092   31.8582  -23.7085 C   0  0  0  0  0  0  0  0  0  0  0  0
    0.8498   -1.4464    0.0892 H   0  0  0  0  0  0  0  0  0  0  0  0
    1.2503   -0.6928   -1.5714 H   0  0  0  0  0  0  0  0  0  0  0  0
    2.3951    0.0823    1.1561 H   0  0  0  0  0  0  0  0  0  0  0  0
    2.7639    2.1428   -0.3296 H   0  0  0  0  0  0  0  0  0  0  0  0
    2.7738    1.0840   -1.7557 H   0  0  0  0  0  0  0  0  0  0  0  0
    4.7349    0.0173   -0.8835 H   0  0  0  0  0  0  0  0  0  0  0  0
    4.9472    2.8527   -0.9298 H   0  0  0  0  0  0  0  0  0  0  0  0
    6.7867    0.7696   -1.4307 H   0  0  0  0  0  0  0  0  0  0  0  0
    7.0503    3.6193   -1.5098 H   0  0  0  0  0  0  0  0  0  0  0  0
    8.9694    1.5971   -2.0496 H   0  0  0  0  0  0  0  0  0  0  0  0
    9.1596    4.4045   -2.0880 H   0  0  0  0  0  0  0  0  0  0  0  0
   11.0520    2.3577   -2.6168 H   0  0  0  0  0  0  0  0  0  0  0  0
   11.2528    5.1768   -2.6727 H   0  0  0  0  0  0  0  0  0  0  0  0
   13.1127    3.1132   -3.1920 H   0  0  0  0  0  0  0  0  0  0  0  0
   13.2983    5.9379   -3.2469 H   0  0  0  0  0  0  0  0  0  0  0  0
   15.2569    3.8991   -3.7867 H   0  0  0  0  0  0  0  0  0  0  0  0
   15.5063    6.7354   -3.8467 H   0  0  0  0  0  0  0  0  0  0  0  0
   17.3607    4.6683   -4.3783 H   0  0  0  0  0  0  0  0  0  0  0  0
   17.5911    7.4975   -4.4302 H   0  0  0  0  0  0  0  0  0  0  0  0
   19.4570    5.4361   -4.9656 H   0  0  0  0  0  0  0  0  0  0  0  0
   19.6364    8.2598   -5.0111 H   0  0  0  0  0  0  0  0  0  0  0  0
   21.5403    6.1919   -5.5404 H   0  0  0  0  0  0  0  0  0  0  0  0
   21.7773    9.0493   -5.6054 H   0  0  0  0  0  0  0  0  0  0  0  0
   23.7077    6.9913   -6.1502 H   0  0  0  0  0  0  0  0  0  0  0  0
   23.9389    9.8290   -6.2011 H   0  0  0  0  0  0  0  0  0  0  0  0
   25.7988    7.7598   -6.7397 H   0  0  0  0  0  0  0  0  0  0  0  0
   26.0172   10.5895   -6.7781 H   0  0  0  0  0  0  0  0  0  0  0  0
   27.8872    8.5330   -7.3268 H   0  0  0  0  0  0  0  0  0  0  0  0
   28.1108   11.3700   -7.3560 H   0  0  0  0  0  0  0  0  0  0  0  0
   30.0543    9.2211   -7.9168 H   0  0  0  0  0  0  0  0  0  0  0  0
   30.0608   10.2836   -6.4886 H   0  0  0  0  0  0  0  0  0  0  0  0
   30.2868   12.2698   -7.9802 H   0  0  0  0  0  0  0  0  0  0  0  0
   30.2829   11.2051   -9.3985 H   0  0  0  0  0  0  0  0  0  0  0  0
   32.3153   10.0500   -8.5353 H   0  0  0  0  0  0  0  0  0  0  0  0
   32.3183   11.1139   -7.1180 H   0  0  0  0  0  0  0  0  0  0  0  0
   32.5429   13.0981   -8.6076 H   0  0  0  0  0  0  0  0  0  0  0  0
   32.5398   12.0341  -10.0253 H   0  0  0  0  0  0  0  0  0  0  0  0
   34.5710   10.8778   -9.1608 H   0  0  0  0  0  0  0  0  0  0  0  0
   34.5744   11.9438   -7.7447 H   0  0  0  0  0  0  0  0  0  0  0  0
   34.7979   13.9260   -9.2373 H   0  0  0  0  0  0  0  0  0  0  0  0
   34.7944   12.8599  -10.6535 H   0  0  0  0  0  0  0  0  0  0  0  0
   36.8256   11.7049   -9.7891 H   0  0  0  0  0  0  0  0  0  0  0  0
   36.8290   12.7710   -8.3729 H   0  0  0  0  0  0  0  0  0  0  0  0
   37.0523   14.7531   -9.8655 H   0  0  0  0  0  0  0  0  0  0  0  0
   37.0489   13.6871  -11.2817 H   0  0  0  0  0  0  0  0  0  0  0  0
   39.0801   12.5326  -10.4186 H   0  0  0  0  0  0  0  0  0  0  0  0
   39.0833   13.5967   -9.0009 H   0  0  0  0  0  0  0  0  0  0  0  0
   39.3076   15.5808  -10.4898 H   0  0  0  0  0  0  0  0  0  0  0  0
   39.3024   14.5178  -11.9082 H   0  0  0  0  0  0  0  0  0  0  0  0
   41.3337   13.3603  -11.0491 H   0  0  0  0  0  0  0  0  0  0  0  0
   41.3385   14.4214   -9.6292 H   0  0  0  0  0  0  0  0  0  0  0  0
   41.5607   16.4087  -11.1160 H   0  0  0  0  0  0  0  0  0  0  0  0
   41.5581   15.3466  -12.5351 H   0  0  0  0  0  0  0  0  0  0  0  0
   43.5894   14.1903  -11.6744 H   0  0  0  0  0  0  0  0  0  0  0  0
   43.5916   15.2505  -10.2538 H   0  0  0  0  0  0  0  0  0  0  0  0
   43.8138   17.2390  -11.7390 H   0  0  0  0  0  0  0  0  0  0  0  0
   43.8138   16.1778  -13.1589 H   0  0  0  0  0  0  0  0  0  0  0  0
   45.8449   15.0222  -12.2952 H   0  0  0  0  0  0  0  0  0  0  0  0
   45.8449   16.0834  -10.8753 H   0  0  0  0  0  0  0  0  0  0  0  0
   46.0682   18.0709  -12.3607 H   0  0  0  0  0  0  0  0  0  0  0  0
   46.0682   17.0098  -13.7806 H   0  0  0  0  0  0  0  0  0  0  0  0
   48.0993   15.8542  -12.9170 H   0  0  0  0  0  0  0  0  0  0  0  0
   48.0993   16.9153  -11.4971 H   0  0  0  0  0  0  0  0  0  0  0  0
   48.3226   18.9029  -12.9825 H   0  0  0  0  0  0  0  0  0  0  0  0
   48.3226   17.8417  -14.4024 H   0  0  0  0  0  0  0  0  0  0  0  0
   50.3537   16.6861  -13.5387 H   0  0  0  0  0  0  0  0  0  0  0  0
   50.3537   17.7472  -12.1189 H   0  0  0  0  0  0  0  0  0  0  0  0
   50.5781   19.7347  -13.6033 H   0  0  0  0  0  0  0  0  0  0  0  0
   50.5760   18.6746  -15.0239 H   0  0  0  0  0  0  0  0  0  0  0  0
   52.6073   17.5174  -14.1644 H   0  0  0  0  0  0  0  0  0  0  0  0
   52.6090   18.5756  -12.7423 H   0  0  0  0  0  0  0  0  0  0  0  0
   52.8313   20.5662  -14.2247 H   0  0  0  0  0  0  0  0  0  0  0  0
   52.8316   19.5070  -15.6460 H   0  0  0  0  0  0  0  0  0  0  0  0
   54.8628   18.3505  -14.7836 H   0  0  0  0  0  0  0  0  0  0  0  0
   54.8623   19.4097  -13.3622 H   0  0  0  0  0  0  0  0  0  0  0  0
   55.0846   21.3994  -14.8458 H   0  0  0  0  0  0  0  0  0  0  0  0
   55.0872   20.3392  -16.2664 H   0  0  0  0  0  0  0  0  0  0  0  0
   57.1185   19.1853  -15.4024 H   0  0  0  0  0  0  0  0  0  0  0  0
   57.1154   20.2435  -13.9804 H   0  0  0  0  0  0  0  0  0  0  0  0
   57.3377   22.2344  -15.4623 H   0  0  0  0  0  0  0  0  0  0  0  0
   57.3429   21.1752  -16.8836 H   0  0  0  0  0  0  0  0  0  0  0  0
   59.3741   20.0225  -16.0181 H   0  0  0  0  0  0  0  0  0  0  0  0
   59.3686   21.0798  -14.5953 H   0  0  0  0  0  0  0  0  0  0  0  0
   59.5929   23.0718  -16.0738 H   0  0  0  0  0  0  0  0  0  0  0  0
   59.5964   22.0155  -17.4973 H   0  0  0  0  0  0  0  0  0  0  0  0
   61.6273   20.8588  -16.6331 H   0  0  0  0  0  0  0  0  0  0  0  0
   61.6242   21.9170  -15.2110 H   0  0  0  0  0  0  0  0  0  0  0  0
   61.8475   23.9079  -16.6920 H   0  0  0  0  0  0  0  0  0  0  0  0
   61.8506   22.8496  -18.1140 H   0  0  0  0  0  0  0  0  0  0  0  0
   63.8815   21.6938  -17.2487 H   0  0  0  0  0  0  0  0  0  0  0  0
   63.8788   22.7540  -15.8280 H   0  0  0  0  0  0  0  0  0  0  0  0
   64.1022   24.7428  -17.3119 H   0  0  0  0  0  0  0  0  0  0  0  0
   64.1048   23.6826  -18.7324 H   0  0  0  0  0  0  0  0  0  0  0  0
   66.1359   22.5282  -17.8672 H   0  0  0  0  0  0  0  0  0  0  0  0
   66.1332   23.5883  -16.4466 H   0  0  0  0  0  0  0  0  0  0  0  0
   66.3566   25.5771  -17.9304 H   0  0  0  0  0  0  0  0  0  0  0  0
   66.3592   24.5169  -19.3510 H   0  0  0  0  0  0  0  0  0  0  0  0
   68.3903   23.3625  -18.4857 H   0  0  0  0  0  0  0  0  0  0  0  0
   68.3877   24.4227  -17.0651 H   0  0  0  0  0  0  0  0  0  0  0  0
   68.6110   26.4114  -18.5489 H   0  0  0  0  0  0  0  0  0  0  0  0
   68.6136   25.3513  -19.9695 H   0  0  0  0  0  0  0  0  0  0  0  0
   70.6447   24.1968  -19.1042 H   0  0  0  0  0  0  0  0  0  0  0  0
   70.6421   25.2570  -17.6837 H   0  0  0  0  0  0  0  0  0  0  0  0
   70.8654   27.2458  -19.1675 H   0  0  0  0  0  0  0  0  0  0  0  0
   70.8680   26.1856  -20.5880 H   0  0  0  0  0  0  0  0  0  0  0  0
   72.8991   25.0312  -19.7228 H   0  0  0  0  0  0  0  0  0  0  0  0
   72.8965   26.0914  -18.3022 H   0  0  0  0  0  0  0  0  0  0  0  0
   73.1198   28.0801  -19.7860 H   0  0  0  0  0  0  0  0  0  0  0  0
   73.1224   27.0199  -21.2066 H   0  0  0  0  0  0  0  0  0  0  0  0
   75.1533   25.8650  -20.3400 H   0  0  0  0  0  0  0  0  0  0  0  0
   75.1511   26.9271  -18.9208 H   0  0  0  0  0  0  0  0  0  0  0  0
   75.3744   28.9138  -20.4075 H   0  0  0  0  0  0  0  0  0  0  0  0
   75.3766   27.8516  -21.8266 H   0  0  0  0  0  0  0  0  0  0  0  0
   77.4077   26.6981  -20.9601 H   0  0  0  0  0  0  0  0  0  0  0  0
   77.4055   27.7603  -19.5410 H   0  0  0  0  0  0  0  0  0  0  0  0
   77.6288   29.7469  -21.0276 H   0  0  0  0  0  0  0  0  0  0  0  0
   77.6310   28.6848  -22.4467 H   0  0  0  0  0  0  0  0  0  0  0  0
   79.6621   27.5313  -21.5802 H   0  0  0  0  0  0  0  0  0  0  0  0
   79.6599   28.5934  -20.1611 H   0  0  0  0  0  0  0  0  0  0  0  0
   79.8832   30.5801  -21.6478 H   0  0  0  0  0  0  0  0  0  0  0  0
   79.8854   29.5179  -23.0668 H   0  0  0  0  0  0  0  0  0  0  0  0
   81.9163   28.3639  -22.1991 H   0  0  0  0  0  0  0  0  0  0  0  0
   81.9145   29.4280  -20.7814 H   0  0  0  0  0  0  0  0  0  0  0  0
   82.1378   31.4125  -22.2708 H   0  0  0  0  0  0  0  0  0  0  0  0
   82.1396   30.3484  -23.6884 H   0  0  0  0  0  0  0  0  0  0  0  0
   84.1707   29.1958  -22.8208 H   0  0  0  0  0  0  0  0  0  0  0  0
   84.1690   30.2599  -21.4032 H   0  0  0  0  0  0  0  0  0  0  0  0
   84.3932   32.2446  -22.8916 H   0  0  0  0  0  0  0  0  0  0  0  0
   84.3928   31.1814  -24.3101 H   0  0  0  0  0  0  0  0  0  0  0  0
   86.4239   30.0276  -23.4466 H   0  0  0  0  0  0  0  0  0  0  0  0
   86.4239   31.0885  -22.0271 H   0  0  0  0  0  0  0  0  0  0  0  0
   86.6555   33.0774  -23.5131 H   0  0  0  0  0  0  0  0  0  0  0  0
   86.6555   32.0161  -24.9331 H   0  0  0  0  0  0  0  0  0  0  0  0
   88.6906   31.9310  -22.6533 H   0  0  0  0  0  0  0  0  0  0  0  0
   88.9637   32.6119  -24.2718 H   0  0  0  0  0  0  0  0  0  0  0  0
   88.6906   30.8669  -24.0771 H   0  0  0  0  0  0  0  0  0  0  0  0
  1  2  2  0  0  0  0
  1 81  1  0  0  0  0
  1 82  1  0  0  0  0
  2  3  1  0  0  0  0
  2 83  1  0  0  0  0
  3  4  1  0  0  0  0
  3 84  1  0  0  0  0
  3 85  1  0  0  0  0
  4  5  1  0  0  0  0
  4 86  1  0  0  0  0
  5  6  1  0  0  0  0
  5 87  1  0  0  0  0
  6  7  1  0  0  0  0
  6 88  1  0  0  0  0
  7  8  1  0  0  0  0
  7 89  1  0  0  0  0
  8  9  1  0  0  0  0
  8 90  1  0  0  0  0
  9 10  1  0  0  0  0
  9 91  1  0  0  0  0
 10 11  1  0  0  0  0
 10 92  1  0  0  0  0
 11 12  1  0  0  0  0
 11 93  1  0  0  0  0
 12 13  1  0  0  0  0
 12 94  1  0  0  0  0
 13 14  1  0  0  0  0
 13 95  1  0  0  0  0
 14 15  1  0  0  0  0
 14 96  1  0  0  0  0
 15 16  1  0  0  0  0
 15 97  1  0  0  0  0
 16 17  1  0  0  0  0
 16 98  1  0  0  0  0
 17 18  1  0  0  0  0
 17 99  1  0  0  0  0
 18 19  1  0  0  0  0
 18100  1  0  0  0  0
 19 20  1  0  0  0  0
 19101  1  0  0  0  0
 20 21  1  0  0  0  0
 20102  1  0  0  0  0
 21 22  1  0  0  0  0
 21103  1  0  0  0  0
 22 23  1  0  0  0  0
 22104  1  0  0  0  0
 23 24  1  0  0  0  0
 23105  1  0  0  0  0
 24 25  1  0  0  0  0
 24106  1  0  0  0  0
 25 26  1  0  0  0  0
 25107  1  0  0  0  0
 26 27  1  0  0  0  0
 26108  1  0  0  0  0
 27 28  1  0  0  0  0
 27109  1  0  0  0  0
 28 29  1  0  0  0  0
 28110  1  0  0  0  0
 28111  1  0  0  0  0
 29 30  1  0  0  0  0
 29112  1  0  0  0  0
 29113  1  0  0  0  0
 30 31  1  0  0  0  0
 30114  1  0  0  0  0
 30115  1  0  0  0  0
 31 32  1  0  0  0  0
 31116  1  0  0  0  0
 31117  1  0  0  0  0
 32 33  1  0  0  0  0
 32118  1  0  0  0  0
 32119  1  0  0  0  0
 33 34  1  0  0  0  0
 33120  1  0  0  0  0
 33121  1  0  0  0  0
 34 35  1  0  0  0  0
 34122  1  0  0  0  0
 34123  1  0  0  0  0
 35 36  1  0  0  0  0
 35124  1  0  0  0  0
 35125  1  0  0  0  0
 36 37  1  0  0  0  0
 36126  1  0  0  0  0
 36127  1  0  0  0  0
 37 38  1  0  0  0  0
 37128  1  0  0  0  0
 37129  1  0  0  0  0
 38 39  1  0  0  0  0
 38130  1  0  0  0  0
 38131  1  0  0  0  0
 39 40  1  0  0  0  0
 39132  1  0  0  0  0
 39133  1  0  0  0  0
 40 41  1  0  0  0  0
 40134  1  0  0  0  0
 40135  1  0  0  0  0
 41 42  1  0  0  0  0
 41136  1  0  0  0  0
 41137  1  0  0  0  0
 42 43  1  0  0  0  0
 42138  1  0  0  0  0
 42139  1  0  0  0  0
 43 44  1  0  0  0  0
 43140  1  0  0  0  0
 43141  1  0  0  0  0
 44 45  1  0  0  0  0
 44142  1  0  0  0  0
 44143  1  0  0  0  0
 45 46  1  0  0  0  0
 45144  1  0  0  0  0
 45145  1  0  0  0  0
 46 47  1  0  0  0  0
 46146  1  0  0  0  0
 46147  1  0  0  0  0
 47 48  1  0  0  0  0
 47148  1  0  0  0  0
 47149  1  0  0  0  0
 48 49  1  0  0  0  0
 48150  1  0  0  0  0
 48151  1  0  0  0  0
 49 50  1  0  0  0  0
 49152  1  0  0  0  0
 49153  1  0  0  0  0
 50 51  1  0  0  0  0
 50154  1  0  0  0  0
 50155  1  0  0  0  0
 51 52  1  0  0  0  0
 51156  1  0  0  0  0
 51157  1  0  0  0  0
 52 53  1  0  0  0  0
 52158  1  0  0  0  0
 52159  1  0  0  0  0
 53 54  1  0  0  0  0
 53160  1  0  0  0  0
 53161  1  0  0  0  0
 54 55  1  0  0  0  0
 54162  1  0  0  0  0
 54163  1  0  0  0  0
 55 56  1  0  0  0  0
 55164  1  0  0  0  0
 55165  1  0  0  0  0
 56 57  1  0  0  0  0
 56166  1  0  0  0  0
 56167  1  0  0  0  0
 57 58  1  0  0  0  0
 57168  1  0  0  0  0
 57169  1  0  0  0  0
 58 59  1  0  0  0  0
 58170  1  0  0  0  0
 58171  1  0  0  0  0
 59 60  1  0  0  0  0
 59172  1  0  0  0  0
 59173  1  0  0  0  0
 60 61  1  0  0  0  0
 60174  1  0  0  0  0
 60175  1  0  0  0  0
 61 62  1  0  0  0  0
 61176  1  0  0  0  0
 61177  1  0  0  0  0
 62 63  1  0  0  0  0
 62178  1  0  0  0  0
 62179  1  0  0  0  0
 63 64  1  0  0  0  0
 63180  1  0  0  0  0
 63181  1  0  0  0  0
 64 65  1  0  0  0  0
 64182  1  0  0  0  0
 64183  1  0  0  0  0
 65 66  1  0  0  0  0
 65184  1  0  0  0  0
 65185  1  0  0  0  0
 66 67  1  0  0  0  0
 66186  1  0  0  0  0
 66187  1  0  0  0  0
 67 68  1  0  0  0  0
 67188  1  0  0  0  0
 67189  1  0  0  0  0
 68 69  1  0  0  0  0
 68190  1  0  0  0  0
 68191  1  0  0  0  0
 69 70  1  0  0  0  0
 69192  1  0  0  0  0
 69193  1  0  0  0  0
 70 71  1  0  0  0  0
 70194  1  0  0  0  0
 70195  1  0  0  0  0
 71 72  1  0  0  0  0
 71196  1  0  0  0  0
 71197  1  0  0  0  0
 72 73  1  0  0  0  0
 72198  1  0  0  0  0
 72199  1  0  0  0  0
 73 74  1  0  0  0  0
 73200  1  0  0  0  0
 73201  1  0  0  0  0
 74 75  1  0  0  0  0
 74202  1  0  0  0  0
 74203  1  0  0  0  0
 75 76  1  0  0  0  0
 75204  1  0  0  0  0
 75205  1  0  0  0  0
 76 77  1  0  0  0  0
 76206  1  0  0  0  0
 76207  1  0  0  0  0
 77 78  1  0  0  0  0
 77208  1  0  0  0  0
 77209  1  0  0  0  0
 78 79  1  0  0  0  0
 78210  1  0  0  0  0
 78211  1  0  0  0  0
 79 80  1  0  0  0  0
 79212  1  0  0  0  0
 79213  1  0  0  0  0
 80214  1  0  0  0  0
 80215  1  0  0  0  0
 80216  1  0  0  0  0
M  END
$$$$
