
 OpenBabel04232216493D

233233  0  0  1  0  0  0  0  0999 V2000
    0.7681    0.0226    0.0173 C   0  0  0  0  0  0  0  0  0  0  0  0
    2.2924    0.0207    0.0152 C   0  0  3  0  0  0  0  0  0  0  0  0
    2.8519    1.1920   -0.7496 C   0  0  0  0  0  0  0  0  0  0  0  0
    3.5810    0.7608   -1.7884 C   0  0  0  0  0  0  0  0  0  0  0  0
    3.5846   -0.6786   -1.7983 C   0  0  0  0  0  0  0  0  0  0  0  0
    2.8606   -1.1412   -0.7645 C   0  0  0  0  0  0  0  0  0  0  0  0
    2.5949   -2.5509   -0.3467 C   0  0  0  0  0  0  0  0  0  0  0  0
    3.2467   -3.5743   -1.2642 C   0  0  0  0  0  0  0  0  0  0  0  0
    2.9491   -4.9914   -0.8091 C   0  0  0  0  0  0  0  0  0  0  0  0
    3.6183   -5.9639   -1.7648 C   0  0  0  0  0  0  0  0  0  0  0  0
    3.3429   -7.3920   -1.3415 C   0  0  0  0  0  0  0  0  0  0  0  0
    4.0189   -8.3477   -2.3064 C   0  0  0  0  0  0  0  0  0  0  0  0
    3.7439   -9.7776   -1.8859 C   0  0  0  0  0  0  0  0  0  0  0  0
    4.4180  -10.7364   -2.8476 C   0  0  0  0  0  0  0  0  0  0  0  0
    4.1396  -12.1649   -2.4225 C   0  0  0  0  0  0  0  0  0  0  0  0
    4.8119  -13.1275   -3.3816 C   0  0  0  0  0  0  0  0  0  0  0  0
    4.5329  -14.5551   -2.9539 C   0  0  0  0  0  0  0  0  0  0  0  0
    5.2043  -15.5179   -3.9136 C   0  0  0  0  0  0  0  0  0  0  0  0
    4.9237  -16.9459   -3.4881 C   0  0  0  0  0  0  0  0  0  0  0  0
    5.5958  -17.9087   -4.4475 C   0  0  0  0  0  0  0  0  0  0  0  0
    5.3153  -19.3371   -4.0226 C   0  0  0  0  0  0  0  0  0  0  0  0
    5.9878  -20.3000   -4.9819 C   0  0  0  0  0  0  0  0  0  0  0  0
    5.7075  -21.7285   -4.5571 C   0  0  0  0  0  0  0  0  0  0  0  0
    6.3797  -22.6916   -5.5165 C   0  0  0  0  0  0  0  0  0  0  0  0
    6.0991  -24.1201   -5.0915 C   0  0  0  0  0  0  0  0  0  0  0  0
    6.7714  -25.0834   -6.0506 C   0  0  0  0  0  0  0  0  0  0  0  0
    6.4907  -26.5119   -5.6258 C   0  0  0  0  0  0  0  0  0  0  0  0
    7.1632  -27.4751   -6.5850 C   0  0  0  0  0  0  0  0  0  0  0  0
    6.8814  -28.9038   -6.1612 C   0  0  0  0  0  0  0  0  0  0  0  0
    7.5538  -29.8672   -7.1204 C   0  0  0  0  0  0  0  0  0  0  0  0
    7.2728  -31.2961   -6.6963 C   0  0  0  0  0  0  0  0  0  0  0  0
    7.9448  -32.2593   -7.6560 C   0  0  0  0  0  0  0  0  0  0  0  0
    7.6643  -33.6884   -7.2323 C   0  0  0  0  0  0  0  0  0  0  0  0
    8.3369  -34.6517   -8.1916 C   0  0  0  0  0  0  0  0  0  0  0  0
    8.0532  -36.0805   -7.7691 C   0  0  0  0  0  0  0  0  0  0  0  0
    8.7263  -37.0442   -8.7275 C   0  0  0  0  0  0  0  0  0  0  0  0
    8.4408  -38.4728   -8.3058 C   0  0  0  0  0  0  0  0  0  0  0  0
    9.1148  -39.4361   -9.2639 C   0  0  0  0  0  0  0  0  0  0  0  0
    8.8294  -40.8648   -8.8428 C   0  0  0  0  0  0  0  0  0  0  0  0
    9.5027  -41.8278   -9.8010 C   0  0  0  0  0  0  0  0  0  0  0  0
    9.2174  -43.2565   -9.3794 C   0  0  0  0  0  0  0  0  0  0  0  0
    9.8920  -44.2196  -10.3373 C   0  0  0  0  0  0  0  0  0  0  0  0
    9.6058  -45.6478   -9.9151 C   0  0  0  0  0  0  0  0  0  0  0  0
   10.2814  -46.6113  -10.8728 C   0  0  0  0  0  0  0  0  0  0  0  0
    9.9980  -48.0398  -10.4496 C   0  0  0  0  0  0  0  0  0  0  0  0
   10.6732  -49.0033  -11.4083 C   0  0  0  0  0  0  0  0  0  0  0  0
   10.3900  -50.4321  -10.9847 C   0  0  0  0  0  0  0  0  0  0  0  0
   11.0624  -51.3954  -11.9440 C   0  0  0  0  0  0  0  0  0  0  0  0
   10.7800  -52.8237  -11.5209 C   0  0  0  0  0  0  0  0  0  0  0  0
   11.4529  -53.7875  -12.4797 C   0  0  0  0  0  0  0  0  0  0  0  0
   11.1710  -55.2162  -12.0560 C   0  0  0  0  0  0  0  0  0  0  0  0
   11.8448  -56.1795  -13.0142 C   0  0  0  0  0  0  0  0  0  0  0  0
   11.5625  -57.6082  -12.5906 C   0  0  0  0  0  0  0  0  0  0  0  0
   12.2349  -58.5716  -13.5498 C   0  0  0  0  0  0  0  0  0  0  0  0
   11.9528  -60.0003  -13.1262 C   0  0  0  0  0  0  0  0  0  0  0  0
   12.6235  -60.9636  -14.0866 C   0  0  0  0  0  0  0  0  0  0  0  0
   12.3414  -62.3924  -13.6630 C   0  0  0  0  0  0  0  0  0  0  0  0
   13.0105  -63.3558  -14.6245 C   0  0  0  0  0  0  0  0  0  0  0  0
   12.7298  -64.7844  -14.1999 C   0  0  0  0  0  0  0  0  0  0  0  0
   13.3972  -65.7480  -15.1623 C   0  0  0  0  0  0  0  0  0  0  0  0
   13.1149  -67.1767  -14.7385 C   0  0  0  0  0  0  0  0  0  0  0  0
   13.7839  -68.1403  -15.6999 C   0  0  0  0  0  0  0  0  0  0  0  0
   13.5000  -69.5690  -15.2775 C   0  0  0  0  0  0  0  0  0  0  0  0
   14.1708  -70.5324  -16.2379 C   0  0  0  0  0  0  0  0  0  0  0  0
   13.8858  -71.9614  -15.8170 C   0  0  0  0  0  0  0  0  0  0  0  0
   14.5583  -72.9246  -16.7767 C   0  0  0  0  0  0  0  0  0  0  0  0
   14.2734  -74.3540  -16.3564 C   0  0  0  0  0  0  0  0  0  0  0  0
   14.9445  -75.3178  -17.3169 C   0  0  0  0  0  0  0  0  0  0  0  0
   14.6579  -76.7476  -16.8974 C   0  0  0  0  0  0  0  0  0  0  0  0
   15.3299  -77.7129  -17.8564 C   0  0  0  0  0  0  0  0  0  0  0  0
   15.0417  -79.1434  -17.4380 C   0  0  0  0  0  0  0  0  0  0  0  0
   15.7119  -80.1104  -18.3978 C   0  0  0  0  0  0  0  0  0  0  0  0
   15.4247  -81.5427  -17.9811 C   0  0  0  0  0  0  0  0  0  0  0  0
   16.0938  -82.5111  -18.9427 C   0  0  0  0  0  0  0  0  0  0  0  0
   15.8101  -83.9462  -18.5278 C   0  0  0  0  0  0  0  0  0  0  0  0
   16.4793  -84.9186  -19.4891 C   0  0  0  0  0  0  0  0  0  0  0  0
   16.1956  -86.3563  -19.0739 C   0  0  0  0  0  0  0  0  0  0  0  0
   16.8625  -87.3394  -20.0288 C   0  0  0  0  0  0  0  0  0  0  0  0
   16.5789  -88.7716  -19.6136 C   0  0  0  0  0  0  0  0  0  0  0  0
    0.3799    0.9244    0.5011 H   0  0  0  0  0  0  0  0  0  0  0  0
    0.3756   -0.8429    0.5622 H   0  0  0  0  0  0  0  0  0  0  0  0
    0.3622   -0.0162   -1.0006 H   0  0  0  0  0  0  0  0  0  0  0  0
    2.6815    0.0171    1.0404 H   0  0  0  0  0  0  0  0  0  0  0  0
    2.6849    2.2298   -0.4895 H   0  0  0  0  0  0  0  0  0  0  0  0
    4.1000    1.3713   -2.5108 H   0  0  0  0  0  0  0  0  0  0  0  0
    4.1109   -1.2635   -2.5374 H   0  0  0  0  0  0  0  0  0  0  0  0
    1.5129   -2.7276   -0.3335 H   0  0  0  0  0  0  0  0  0  0  0  0
    2.9580   -2.6942    0.6783 H   0  0  0  0  0  0  0  0  0  0  0  0
    4.3337   -3.4235   -1.2840 H   0  0  0  0  0  0  0  0  0  0  0  0
    2.8789   -3.4431   -2.2901 H   0  0  0  0  0  0  0  0  0  0  0  0
    1.8664   -5.1656   -0.7932 H   0  0  0  0  0  0  0  0  0  0  0  0
    3.3216   -5.1488    0.2102 H   0  0  0  0  0  0  0  0  0  0  0  0
    4.7006   -5.7835   -1.7837 H   0  0  0  0  0  0  0  0  0  0  0  0
    3.2471   -5.8003   -2.7845 H   0  0  0  0  0  0  0  0  0  0  0  0
    2.2619   -7.5766   -1.3270 H   0  0  0  0  0  0  0  0  0  0  0  0
    3.7170   -7.5599   -0.3243 H   0  0  0  0  0  0  0  0  0  0  0  0
    5.1003   -8.1629   -2.3218 H   0  0  0  0  0  0  0  0  0  0  0  0
    3.6472   -8.1784   -3.3247 H   0  0  0  0  0  0  0  0  0  0  0  0
    2.6624   -9.9609   -1.8711 H   0  0  0  0  0  0  0  0  0  0  0  0
    4.1160   -9.9454   -0.8677 H   0  0  0  0  0  0  0  0  0  0  0  0
    5.4996  -10.5539   -2.8626 H   0  0  0  0  0  0  0  0  0  0  0  0
    4.0463  -10.5692   -3.8661 H   0  0  0  0  0  0  0  0  0  0  0  0
    3.0578  -12.3465   -2.4070 H   0  0  0  0  0  0  0  0  0  0  0  0
    4.5108  -12.3309   -1.4036 H   0  0  0  0  0  0  0  0  0  0  0  0
    5.8938  -12.9464   -3.3978 H   0  0  0  0  0  0  0  0  0  0  0  0
    4.4399  -12.9624   -4.4003 H   0  0  0  0  0  0  0  0  0  0  0  0
    3.4510  -14.7363   -2.9372 H   0  0  0  0  0  0  0  0  0  0  0  0
    4.9056  -14.7205   -1.9355 H   0  0  0  0  0  0  0  0  0  0  0  0
    6.2863  -15.3373   -3.9287 H   0  0  0  0  0  0  0  0  0  0  0  0
    4.8330  -15.3509   -4.9322 H   0  0  0  0  0  0  0  0  0  0  0  0
    3.8417  -17.1261   -3.4734 H   0  0  0  0  0  0  0  0  0  0  0  0
    5.2944  -17.1125   -2.4692 H   0  0  0  0  0  0  0  0  0  0  0  0
    6.6777  -17.7281   -4.4620 H   0  0  0  0  0  0  0  0  0  0  0  0
    5.2251  -17.7415   -5.4663 H   0  0  0  0  0  0  0  0  0  0  0  0
    4.2333  -19.5175   -4.0083 H   0  0  0  0  0  0  0  0  0  0  0  0
    5.6857  -19.5039   -3.0036 H   0  0  0  0  0  0  0  0  0  0  0  0
    7.0698  -20.1193   -4.9961 H   0  0  0  0  0  0  0  0  0  0  0  0
    5.6173  -20.1329   -6.0008 H   0  0  0  0  0  0  0  0  0  0  0  0
    4.6255  -21.9090   -4.5425 H   0  0  0  0  0  0  0  0  0  0  0  0
    6.0782  -21.8955   -3.5383 H   0  0  0  0  0  0  0  0  0  0  0  0
    7.4616  -22.5111   -5.5312 H   0  0  0  0  0  0  0  0  0  0  0  0
    6.0089  -22.5246   -6.5354 H   0  0  0  0  0  0  0  0  0  0  0  0
    5.0171  -24.3005   -5.0771 H   0  0  0  0  0  0  0  0  0  0  0  0
    6.4696  -24.2869   -4.0725 H   0  0  0  0  0  0  0  0  0  0  0  0
    7.8534  -24.9030   -6.0650 H   0  0  0  0  0  0  0  0  0  0  0  0
    6.4009  -24.9164   -7.0696 H   0  0  0  0  0  0  0  0  0  0  0  0
    5.4087  -26.6922   -5.6116 H   0  0  0  0  0  0  0  0  0  0  0  0
    6.8610  -26.6790   -4.6067 H   0  0  0  0  0  0  0  0  0  0  0  0
    8.2453  -27.2953   -6.5984 H   0  0  0  0  0  0  0  0  0  0  0  0
    6.7936  -27.3073   -7.6041 H   0  0  0  0  0  0  0  0  0  0  0  0
    5.7992  -29.0834   -6.1479 H   0  0  0  0  0  0  0  0  0  0  0  0
    7.2508  -29.0715   -5.1420 H   0  0  0  0  0  0  0  0  0  0  0  0
    8.6358  -29.6870   -7.1343 H   0  0  0  0  0  0  0  0  0  0  0  0
    7.1837  -29.6996   -8.1394 H   0  0  0  0  0  0  0  0  0  0  0  0
    6.1907  -31.4761   -6.6819 H   0  0  0  0  0  0  0  0  0  0  0  0
    7.6432  -31.4635   -5.6774 H   0  0  0  0  0  0  0  0  0  0  0  0
    9.0268  -32.0788   -7.6702 H   0  0  0  0  0  0  0  0  0  0  0  0
    7.5743  -32.0918   -8.6748 H   0  0  0  0  0  0  0  0  0  0  0  0
    6.5823  -33.8688   -7.2183 H   0  0  0  0  0  0  0  0  0  0  0  0
    8.0343  -33.8558   -6.2132 H   0  0  0  0  0  0  0  0  0  0  0  0
    9.4191  -34.4730   -8.2039 H   0  0  0  0  0  0  0  0  0  0  0  0
    7.9690  -34.4834   -9.2113 H   0  0  0  0  0  0  0  0  0  0  0  0
    6.9709  -36.2594   -7.7573 H   0  0  0  0  0  0  0  0  0  0  0  0
    8.4210  -36.2491   -6.7495 H   0  0  0  0  0  0  0  0  0  0  0  0
    9.8088  -36.8666   -8.7377 H   0  0  0  0  0  0  0  0  0  0  0  0
    8.3596  -36.8751   -9.7475 H   0  0  0  0  0  0  0  0  0  0  0  0
    7.3583  -38.6509   -8.2959 H   0  0  0  0  0  0  0  0  0  0  0  0
    8.8069  -38.6423   -7.2857 H   0  0  0  0  0  0  0  0  0  0  0  0
   10.1973  -39.2578   -9.2735 H   0  0  0  0  0  0  0  0  0  0  0  0
    8.7487  -39.2664  -10.2841 H   0  0  0  0  0  0  0  0  0  0  0  0
    7.7470  -41.0428   -8.8325 H   0  0  0  0  0  0  0  0  0  0  0  0
    9.1957  -41.0344   -7.8228 H   0  0  0  0  0  0  0  0  0  0  0  0
   10.5853  -41.6507   -9.8113 H   0  0  0  0  0  0  0  0  0  0  0  0
    9.1353  -41.6597  -10.8211 H   0  0  0  0  0  0  0  0  0  0  0  0
    8.1351  -43.4345   -9.3697 H   0  0  0  0  0  0  0  0  0  0  0  0
    9.5833  -43.4257   -8.3590 H   0  0  0  0  0  0  0  0  0  0  0  0
   10.9744  -44.0409  -10.3462 H   0  0  0  0  0  0  0  0  0  0  0  0
    9.5270  -44.0510  -11.3579 H   0  0  0  0  0  0  0  0  0  0  0  0
    8.5236  -45.8266   -9.9057 H   0  0  0  0  0  0  0  0  0  0  0  0
    9.9714  -45.8168   -8.8950 H   0  0  0  0  0  0  0  0  0  0  0  0
   11.3624  -46.4327  -10.8829 H   0  0  0  0  0  0  0  0  0  0  0  0
    9.9153  -46.4434  -11.8931 H   0  0  0  0  0  0  0  0  0  0  0  0
    8.9151  -48.2189  -10.4372 H   0  0  0  0  0  0  0  0  0  0  0  0
   10.3650  -48.2084   -9.4302 H   0  0  0  0  0  0  0  0  0  0  0  0
   11.7538  -48.8235  -11.4195 H   0  0  0  0  0  0  0  0  0  0  0  0
   10.3040  -48.8357  -12.4277 H   0  0  0  0  0  0  0  0  0  0  0  0
    9.3075  -50.6118  -10.9724 H   0  0  0  0  0  0  0  0  0  0  0  0
   10.7592  -50.6003   -9.9657 H   0  0  0  0  0  0  0  0  0  0  0  0
   12.1446  -51.2158  -11.9572 H   0  0  0  0  0  0  0  0  0  0  0  0
   10.6932  -51.2275  -12.9632 H   0  0  0  0  0  0  0  0  0  0  0  0
    9.6983  -53.0038  -11.5071 H   0  0  0  0  0  0  0  0  0  0  0  0
   11.1499  -52.9922  -10.5013 H   0  0  0  0  0  0  0  0  0  0  0  0
   12.5349  -53.6078  -12.4930 H   0  0  0  0  0  0  0  0  0  0  0  0
   11.0833  -53.6197  -13.4989 H   0  0  0  0  0  0  0  0  0  0  0  0
   10.0889  -55.3962  -12.0437 H   0  0  0  0  0  0  0  0  0  0  0  0
   11.5394  -55.3837  -11.0364 H   0  0  0  0  0  0  0  0  0  0  0  0
   12.9269  -55.9998  -13.0261 H   0  0  0  0  0  0  0  0  0  0  0  0
   11.4766  -56.0118  -14.0338 H   0  0  0  0  0  0  0  0  0  0  0  0
   10.4804  -57.7877  -12.5775 H   0  0  0  0  0  0  0  0  0  0  0  0
   11.9318  -57.7762  -11.5714 H   0  0  0  0  0  0  0  0  0  0  0  0
   13.3170  -58.3921  -13.5631 H   0  0  0  0  0  0  0  0  0  0  0  0
   11.8654  -58.4036  -14.5690 H   0  0  0  0  0  0  0  0  0  0  0  0
   10.8706  -60.1794  -13.1116 H   0  0  0  0  0  0  0  0  0  0  0  0
   12.3234  -60.1686  -12.1076 H   0  0  0  0  0  0  0  0  0  0  0  0
   13.7057  -60.7845  -14.1014 H   0  0  0  0  0  0  0  0  0  0  0  0
   12.2527  -60.7953  -15.1052 H   0  0  0  0  0  0  0  0  0  0  0  0
   11.2592  -62.5711  -13.6470 H   0  0  0  0  0  0  0  0  0  0  0  0
   12.7134  -62.5610  -12.6449 H   0  0  0  0  0  0  0  0  0  0  0  0
   14.0926  -63.1763  -14.6417 H   0  0  0  0  0  0  0  0  0  0  0  0
   12.6374  -63.1878  -15.6424 H   0  0  0  0  0  0  0  0  0  0  0  0
   11.6476  -64.9635  -14.1815 H   0  0  0  0  0  0  0  0  0  0  0  0
   13.1039  -64.9526  -13.1825 H   0  0  0  0  0  0  0  0  0  0  0  0
   14.4795  -65.5697  -15.1797 H   0  0  0  0  0  0  0  0  0  0  0  0
   13.0240  -65.5790  -16.1799 H   0  0  0  0  0  0  0  0  0  0  0  0
   12.0326  -67.3551  -14.7224 H   0  0  0  0  0  0  0  0  0  0  0  0
   13.4869  -67.3454  -13.7204 H   0  0  0  0  0  0  0  0  0  0  0  0
   14.8663  -67.9625  -15.7149 H   0  0  0  0  0  0  0  0  0  0  0  0
   13.4129  -67.9706  -16.7183 H   0  0  0  0  0  0  0  0  0  0  0  0
   12.4177  -69.7470  -15.2639 H   0  0  0  0  0  0  0  0  0  0  0  0
   13.8697  -69.7384  -14.2586 H   0  0  0  0  0  0  0  0  0  0  0  0
   15.2533  -70.3549  -16.2504 H   0  0  0  0  0  0  0  0  0  0  0  0
   13.8022  -70.3620  -17.2570 H   0  0  0  0  0  0  0  0  0  0  0  0
   12.8033  -72.1391  -15.8059 H   0  0  0  0  0  0  0  0  0  0  0  0
   14.2532  -72.1315  -14.7975 H   0  0  0  0  0  0  0  0  0  0  0  0
   15.6407  -72.7467  -16.7878 H   0  0  0  0  0  0  0  0  0  0  0  0
   14.1908  -72.7541  -17.7962 H   0  0  0  0  0  0  0  0  0  0  0  0
   13.1909  -74.5312  -16.3440 H   0  0  0  0  0  0  0  0  0  0  0  0
   14.6418  -74.5244  -15.3372 H   0  0  0  0  0  0  0  0  0  0  0  0
   16.0271  -75.1408  -17.3281 H   0  0  0  0  0  0  0  0  0  0  0  0
   14.5769  -75.1461  -18.3361 H   0  0  0  0  0  0  0  0  0  0  0  0
   13.5751  -76.9234  -16.8872 H   0  0  0  0  0  0  0  0  0  0  0  0
   15.0240  -76.9180  -15.8775 H   0  0  0  0  0  0  0  0  0  0  0  0
   16.4126  -77.5367  -17.8654 H   0  0  0  0  0  0  0  0  0  0  0  0
   14.9646  -77.5406  -18.8763 H   0  0  0  0  0  0  0  0  0  0  0  0
   13.9587  -79.3176  -17.4273 H   0  0  0  0  0  0  0  0  0  0  0  0
   15.4079  -79.3144  -16.4182 H   0  0  0  0  0  0  0  0  0  0  0  0
   16.7946  -79.9341  -18.4081 H   0  0  0  0  0  0  0  0  0  0  0  0
   15.3454  -79.9371  -19.4171 H   0  0  0  0  0  0  0  0  0  0  0  0
   14.3416  -81.7163  -17.9689 H   0  0  0  0  0  0  0  0  0  0  0  0
   15.7921  -81.7140  -16.9618 H   0  0  0  0  0  0  0  0  0  0  0  0
   17.1761  -82.3330  -18.9552 H   0  0  0  0  0  0  0  0  0  0  0  0
   15.7247  -82.3369  -19.9609 H   0  0  0  0  0  0  0  0  0  0  0  0
   14.7271  -84.1203  -18.5144 H   0  0  0  0  0  0  0  0  0  0  0  0
   16.1780  -84.1163  -17.5085 H   0  0  0  0  0  0  0  0  0  0  0  0
   17.5615  -84.7400  -19.5013 H   0  0  0  0  0  0  0  0  0  0  0  0
   16.1103  -84.7443  -20.5073 H   0  0  0  0  0  0  0  0  0  0  0  0
   15.1123  -86.5279  -19.0606 H   0  0  0  0  0  0  0  0  0  0  0  0
   16.5617  -86.5231  -18.0534 H   0  0  0  0  0  0  0  0  0  0  0  0
   17.9456  -87.1706  -20.0412 H   0  0  0  0  0  0  0  0  0  0  0  0
   16.4958  -87.1755  -21.0488 H   0  0  0  0  0  0  0  0  0  0  0  0
   16.9597  -88.9673  -18.6061 H   0  0  0  0  0  0  0  0  0  0  0  0
   17.0613  -89.4688  -20.3042 H   0  0  0  0  0  0  0  0  0  0  0  0
   15.5028  -88.9724  -19.6187 H   0  0  0  0  0  0  0  0  0  0  0  0
  1  2  1  0  0  0  0
  1 80  1  0  0  0  0
  1 81  1  0  0  0  0
  1 82  1  0  0  0  0
  2  3  1  0  0  0  0
  2  6  1  0  0  0  0
  2 83  1  0  0  0  0
  3  4  2  0  0  0  0
  3 84  1  0  0  0  0
  4  5  1  0  0  0  0
  4 85  1  0  0  0  0
  5  6  2  0  0  0  0
  5 86  1  0  0  0  0
  6  7  1  0  0  0  0
  7  8  1  0  0  0  0
  7 87  1  0  0  0  0
  7 88  1  0  0  0  0
  8  9  1  0  0  0  0
  8 89  1  0  0  0  0
  8 90  1  0  0  0  0
  9 10  1  0  0  0  0
  9 91  1  0  0  0  0
  9 92  1  0  0  0  0
 10 11  1  0  0  0  0
 10 93  1  0  0  0  0
 10 94  1  0  0  0  0
 11 12  1  0  0  0  0
 11 95  1  0  0  0  0
 11 96  1  0  0  0  0
 12 13  1  0  0  0  0
 12 97  1  0  0  0  0
 12 98  1  0  0  0  0
 13 14  1  0  0  0  0
 13 99  1  0  0  0  0
 13100  1  0  0  0  0
 14 15  1  0  0  0  0
 14101  1  0  0  0  0
 14102  1  0  0  0  0
 15 16  1  0  0  0  0
 15103  1  0  0  0  0
 15104  1  0  0  0  0
 16 17  1  0  0  0  0
 16105  1  0  0  0  0
 16106  1  0  0  0  0
 17 18  1  0  0  0  0
 17107  1  0  0  0  0
 17108  1  0  0  0  0
 18 19  1  0  0  0  0
 18109  1  0  0  0  0
 18110  1  0  0  0  0
 19 20  1  0  0  0  0
 19111  1  0  0  0  0
 19112  1  0  0  0  0
 20 21  1  0  0  0  0
 20113  1  0  0  0  0
 20114  1  0  0  0  0
 21 22  1  0  0  0  0
 21115  1  0  0  0  0
 21116  1  0  0  0  0
 22 23  1  0  0  0  0
 22117  1  0  0  0  0
 22118  1  0  0  0  0
 23 24  1  0  0  0  0
 23119  1  0  0  0  0
 23120  1  0  0  0  0
 24 25  1  0  0  0  0
 24121  1  0  0  0  0
 24122  1  0  0  0  0
 25 26  1  0  0  0  0
 25123  1  0  0  0  0
 25124  1  0  0  0  0
 26 27  1  0  0  0  0
 26125  1  0  0  0  0
 26126  1  0  0  0  0
 27 28  1  0  0  0  0
 27127  1  0  0  0  0
 27128  1  0  0  0  0
 28 29  1  0  0  0  0
 28129  1  0  0  0  0
 28130  1  0  0  0  0
 29 30  1  0  0  0  0
 29131  1  0  0  0  0
 29132  1  0  0  0  0
 30 31  1  0  0  0  0
 30133  1  0  0  0  0
 30134  1  0  0  0  0
 31 32  1  0  0  0  0
 31135  1  0  0  0  0
 31136  1  0  0  0  0
 32 33  1  0  0  0  0
 32137  1  0  0  0  0
 32138  1  0  0  0  0
 33 34  1  0  0  0  0
 33139  1  0  0  0  0
 33140  1  0  0  0  0
 34 35  1  0  0  0  0
 34141  1  0  0  0  0
 34142  1  0  0  0  0
 35 36  1  0  0  0  0
 35143  1  0  0  0  0
 35144  1  0  0  0  0
 36 37  1  0  0  0  0
 36145  1  0  0  0  0
 36146  1  0  0  0  0
 37 38  1  0  0  0  0
 37147  1  0  0  0  0
 37148  1  0  0  0  0
 38 39  1  0  0  0  0
 38149  1  0  0  0  0
 38150  1  0  0  0  0
 39 40  1  0  0  0  0
 39151  1  0  0  0  0
 39152  1  0  0  0  0
 40 41  1  0  0  0  0
 40153  1  0  0  0  0
 40154  1  0  0  0  0
 41 42  1  0  0  0  0
 41155  1  0  0  0  0
 41156  1  0  0  0  0
 42 43  1  0  0  0  0
 42157  1  0  0  0  0
 42158  1  0  0  0  0
 43 44  1  0  0  0  0
 43159  1  0  0  0  0
 43160  1  0  0  0  0
 44 45  1  0  0  0  0
 44161  1  0  0  0  0
 44162  1  0  0  0  0
 45 46  1  0  0  0  0
 45163  1  0  0  0  0
 45164  1  0  0  0  0
 46 47  1  0  0  0  0
 46165  1  0  0  0  0
 46166  1  0  0  0  0
 47 48  1  0  0  0  0
 47167  1  0  0  0  0
 47168  1  0  0  0  0
 48 49  1  0  0  0  0
 48169  1  0  0  0  0
 48170  1  0  0  0  0
 49 50  1  0  0  0  0
 49171  1  0  0  0  0
 49172  1  0  0  0  0
 50 51  1  0  0  0  0
 50173  1  0  0  0  0
 50174  1  0  0  0  0
 51 52  1  0  0  0  0
 51175  1  0  0  0  0
 51176  1  0  0  0  0
 52 53  1  0  0  0  0
 52177  1  0  0  0  0
 52178  1  0  0  0  0
 53 54  1  0  0  0  0
 53179  1  0  0  0  0
 53180  1  0  0  0  0
 54 55  1  0  0  0  0
 54181  1  0  0  0  0
 54182  1  0  0  0  0
 55 56  1  0  0  0  0
 55183  1  0  0  0  0
 55184  1  0  0  0  0
 56 57  1  0  0  0  0
 56185  1  0  0  0  0
 56186  1  0  0  0  0
 57 58  1  0  0  0  0
 57187  1  0  0  0  0
 57188  1  0  0  0  0
 58 59  1  0  0  0  0
 58189  1  0  0  0  0
 58190  1  0  0  0  0
 59 60  1  0  0  0  0
 59191  1  0  0  0  0
 59192  1  0  0  0  0
 60 61  1  0  0  0  0
 60193  1  0  0  0  0
 60194  1  0  0  0  0
 61 62  1  0  0  0  0
 61195  1  0  0  0  0
 61196  1  0  0  0  0
 62 63  1  0  0  0  0
 62197  1  0  0  0  0
 62198  1  0  0  0  0
 63 64  1  0  0  0  0
 63199  1  0  0  0  0
 63200  1  0  0  0  0
 64 65  1  0  0  0  0
 64201  1  0  0  0  0
 64202  1  0  0  0  0
 65 66  1  0  0  0  0
 65203  1  0  0  0  0
 65204  1  0  0  0  0
 66 67  1  0  0  0  0
 66205  1  0  0  0  0
 66206  1  0  0  0  0
 67 68  1  0  0  0  0
 67207  1  0  0  0  0
 67208  1  0  0  0  0
 68 69  1  0  0  0  0
 68209  1  0  0  0  0
 68210  1  0  0  0  0
 69 70  1  0  0  0  0
 69211  1  0  0  0  0
 69212  1  0  0  0  0
 70 71  1  0  0  0  0
 70213  1  0  0  0  0
 70214  1  0  0  0  0
 71 72  1  0  0  0  0
 71215  1  0  0  0  0
 71216  1  0  0  0  0
 72 73  1  0  0  0  0
 72217  1  0  0  0  0
 72218  1  0  0  0  0
 73 74  1  0  0  0  0
 73219  1  0  0  0  0
 73220  1  0  0  0  0
 74 75  1  0  0  0  0
 74221  1  0  0  0  0
 74222  1  0  0  0  0
 75 76  1  0  0  0  0
 75223  1  0  0  0  0
 75224  1  0  0  0  0
 76 77  1  0  0  0  0
 76225  1  0  0  0  0
 76226  1  0  0  0  0
 77 78  1  0  0  0  0
 77227  1  0  0  0  0
 77228  1  0  0  0  0
 78 79  1  0  0  0  0
 78229  1  0  0  0  0
 78230  1  0  0  0  0
 79231  1  0  0  0  0
 79232  1  0  0  0  0
 79233  1  0  0  0  0
M  END
$$$$
