
 OpenBabel04232216563D

156156  0  0  1  0  0  0  0  0999 V2000
    1.2492   -0.0719   -0.0644 C   0  0  0  0  0  0  0  0  0  0  0  0
    2.6923   -0.0182   -0.0379 N   0  0  0  0  0  0  0  0  0  0  0  0
    3.5463   -1.0683    0.1793 C   0  0  0  0  0  0  0  0  0  0  0  0
    4.7542   -0.6502    0.5637 C   0  0  0  0  0  0  0  0  0  0  0  0
    4.7411    0.8412    0.7265 C   0  0  0  0  0  0  0  0  0  0  0  0
    3.4256    1.2551    0.0051 C   0  0  3  0  0  0  0  0  0  0  0  0
    3.7057    1.7258   -1.4318 C   0  0  0  0  0  0  0  0  0  0  0  0
    4.6384    2.9330   -1.4647 C   0  0  0  0  0  0  0  0  0  0  0  0
    4.9023    3.3762   -2.8913 C   0  0  0  0  0  0  0  0  0  0  0  0
    5.8347    4.5764   -2.8901 C   0  0  0  0  0  0  0  0  0  0  0  0
    6.0997    5.0243   -4.3140 C   0  0  0  0  0  0  0  0  0  0  0  0
    7.0289    6.2220   -4.3144 C   0  0  0  0  0  0  0  0  0  0  0  0
    7.2866    6.6641   -5.7398 C   0  0  0  0  0  0  0  0  0  0  0  0
    8.2136    7.8592   -5.7392 C   0  0  0  0  0  0  0  0  0  0  0  0
    8.4649    8.2932   -7.1632 C   0  0  0  0  0  0  0  0  0  0  0  0
    9.3882    9.4831   -7.1571 C   0  0  0  0  0  0  0  0  0  0  0  0
    9.6262    9.8999   -8.5801 C   0  0  0  0  0  0  0  0  0  0  0  0
   10.5414   11.0781   -8.5596 C   0  0  0  0  0  0  0  0  0  0  0  0
   10.7714   11.4802   -9.9676 C   0  0  0  0  0  0  0  0  0  0  0  0
   11.6231   12.5670   -9.8210 O   0  0  0  0  0  0  0  0  0  0  0  0
   11.8303   12.9342  -11.1539 O   0  0  0  0  0  0  0  0  0  0  0  0
   12.6810   14.0298  -11.1424 O   0  0  0  0  0  0  0  0  0  0  0  0
   12.8838   14.3905  -12.4658 O   0  0  0  0  0  0  0  0  0  0  0  0
   13.7309   15.4830  -12.4351 O   0  0  0  0  0  0  0  0  0  0  0  0
   13.9430   15.8522  -13.7478 O   0  0  0  0  0  0  0  0  0  0  0  0
   14.7884   16.9403  -13.6966 O   0  0  0  0  0  0  0  0  0  0  0  0
   15.0011   17.3107  -15.0044 O   0  0  0  0  0  0  0  0  0  0  0  0
   15.8439   18.3952  -14.9489 O   0  0  0  0  0  0  0  0  0  0  0  0
   16.0516   18.7589  -16.2559 O   0  0  0  0  0  0  0  0  0  0  0  0
   16.8914   19.8397  -16.2028 O   0  0  0  0  0  0  0  0  0  0  0  0
   17.0931   20.1957  -17.5102 O   0  0  0  0  0  0  0  0  0  0  0  0
   17.9317   21.2753  -17.4617 O   0  0  0  0  0  0  0  0  0  0  0  0
   18.1295   21.6262  -18.7677 O   0  0  0  0  0  0  0  0  0  0  0  0
   18.9662   22.7033  -18.7190 O   0  0  0  0  0  0  0  0  0  0  0  0
   19.1624   23.0521  -20.0235 O   0  0  0  0  0  0  0  0  0  0  0  0
   20.0039   24.1351  -19.9719 O   0  0  0  0  0  0  0  0  0  0  0  0
   20.1978   24.4807  -21.2740 O   0  0  0  0  0  0  0  0  0  0  0  0
   21.0390   25.5634  -21.2232 O   0  0  0  0  0  0  0  0  0  0  0  0
   21.2337   25.9096  -22.5186 O   0  0  0  0  0  0  0  0  0  0  0  0
   22.0782   26.9964  -22.4645 O   0  0  0  0  0  0  0  0  0  0  0  0
   22.2720   27.3410  -23.7552 O   0  0  0  0  0  0  0  0  0  0  0  0
   23.1163   28.4274  -23.7003 O   0  0  0  0  0  0  0  0  0  0  0  0
   23.3146   28.7786  -25.0004 O   0  0  0  0  0  0  0  0  0  0  0  0
   24.1514   29.8553  -24.9451 O   0  0  0  0  0  0  0  0  0  0  0  0
   24.3516   30.2091  -26.2493 O   0  0  0  0  0  0  0  0  0  0  0  0
   25.1898   31.2876  -26.1929 O   0  0  0  0  0  0  0  0  0  0  0  0
   25.3911   31.6430  -27.4987 O   0  0  0  0  0  0  0  0  0  0  0  0
   26.2266   32.7186  -27.4493 O   0  0  0  0  0  0  0  0  0  0  0  0
   26.4315   33.0786  -28.7546 O   0  0  0  0  0  0  0  0  0  0  0  0
   27.2716   34.1603  -28.7084 O   0  0  0  0  0  0  0  0  0  0  0  0
   27.4758   34.5195  -30.0165 O   0  0  0  0  0  0  0  0  0  0  0  0
   28.3183   35.6048  -29.9763 O   0  0  0  0  0  0  0  0  0  0  0  0
   28.5254   35.9681  -31.2893 O   0  0  0  0  0  0  0  0  0  0  0  0
   29.3708   37.0572  -31.2499 O   0  0  0  0  0  0  0  0  0  0  0  0
   29.5879   37.4336  -32.5630 O   0  0  0  0  0  0  0  0  0  0  0  0
   30.4379   38.5277  -32.5099 O   0  0  0  0  0  0  0  0  0  0  0  0
   30.6668   38.9191  -33.8209 O   0  0  0  0  0  0  0  0  0  0  0  0
   31.5253   40.0211  -33.7711 O   0  0  0  0  0  0  0  0  0  0  0  0
   31.6758   40.3110  -35.1203 C   0  0  0  0  0  0  0  0  0  0  0  0
   32.5842   41.4817  -35.0825 C   0  0  0  0  0  0  0  0  0  0  0  0
   32.8299   41.8960  -36.4946 C   0  0  0  0  0  0  0  0  0  0  0  0
   33.7485   43.0837  -36.4679 C   0  0  0  0  0  0  0  0  0  0  0  0
   34.0031   43.5134  -37.8888 C   0  0  0  0  0  0  0  0  0  0  0  0
   34.9274   44.7067  -37.8827 C   0  0  0  0  0  0  0  0  0  0  0  0
   35.1846   45.1433  -39.3076 C   0  0  0  0  0  0  0  0  0  0  0  0
   36.1129   46.3392  -39.3095 C   0  0  0  0  0  0  0  0  0  0  0  0
   36.3728   46.7793  -40.7358 C   0  0  0  0  0  0  0  0  0  0  0  0
   37.3006   47.9779  -40.7400 C   0  0  0  0  0  0  0  0  0  0  0  0
   37.5600   48.4208  -42.1666 C   0  0  0  0  0  0  0  0  0  0  0  0
   38.4898   49.6188  -42.1716 C   0  0  0  0  0  0  0  0  0  0  0  0
   38.7510   50.0607  -43.5989 C   0  0  0  0  0  0  0  0  0  0  0  0
   39.6794   51.2603  -43.6055 C   0  0  0  0  0  0  0  0  0  0  0  0
   39.9412   51.7031  -45.0331 C   0  0  0  0  0  0  0  0  0  0  0  0
   40.8687   52.9046  -45.0383 C   0  0  0  0  0  0  0  0  0  0  0  0
   41.1346   53.3493  -46.4654 C   0  0  0  0  0  0  0  0  0  0  0  0
   42.0632   54.5524  -46.4722 C   0  0  0  0  0  0  0  0  0  0  0  0
   42.3306   54.9992  -47.9006 C   0  0  0  0  0  0  0  0  0  0  0  0
   43.2619   56.2033  -47.9190 C   0  0  0  0  0  0  0  0  0  0  0  0
   43.5261   56.6458  -49.3451 C   0  0  0  0  0  0  0  0  0  0  0  0
    0.8919   -1.1062   -0.0004 H   0  0  0  0  0  0  0  0  0  0  0  0
    0.8598    0.3605   -0.9905 H   0  0  0  0  0  0  0  0  0  0  0  0
    0.8215    0.4754    0.7830 H   0  0  0  0  0  0  0  0  0  0  0  0
    3.2239   -2.0851    0.0200 H   0  0  0  0  0  0  0  0  0  0  0  0
    5.6048   -1.2788    0.7583 H   0  0  0  0  0  0  0  0  0  0  0  0
    5.6452    1.2800    0.3064 H   0  0  0  0  0  0  0  0  0  0  0  0
    4.6996    1.1046    1.7884 H   0  0  0  0  0  0  0  0  0  0  0  0
    2.8888    2.0291    0.5678 H   0  0  0  0  0  0  0  0  0  0  0  0
    2.7617    1.9782   -1.9312 H   0  0  0  0  0  0  0  0  0  0  0  0
    4.1495    0.9087   -2.0175 H   0  0  0  0  0  0  0  0  0  0  0  0
    5.6058    2.7011   -1.0100 H   0  0  0  0  0  0  0  0  0  0  0  0
    4.2047    3.7538   -0.8831 H   0  0  0  0  0  0  0  0  0  0  0  0
    3.9582    3.6322   -3.3844 H   0  0  0  0  0  0  0  0  0  0  0  0
    5.3592    2.5565   -3.4602 H   0  0  0  0  0  0  0  0  0  0  0  0
    6.7823    4.3189   -2.3997 H   0  0  0  0  0  0  0  0  0  0  0  0
    5.3877    5.3977   -2.3166 H   0  0  0  0  0  0  0  0  0  0  0  0
    5.1545    5.2856   -4.8052 H   0  0  0  0  0  0  0  0  0  0  0  0
    6.5488    4.2042   -4.8877 H   0  0  0  0  0  0  0  0  0  0  0  0
    7.9771    5.9644   -3.8264 H   0  0  0  0  0  0  0  0  0  0  0  0
    6.5827    7.0454   -3.7433 H   0  0  0  0  0  0  0  0  0  0  0  0
    6.3410    6.9257   -6.2308 H   0  0  0  0  0  0  0  0  0  0  0  0
    7.7349    5.8443   -6.3145 H   0  0  0  0  0  0  0  0  0  0  0  0
    9.1635    7.6034   -5.2538 H   0  0  0  0  0  0  0  0  0  0  0  0
    7.7691    8.6851   -5.1702 H   0  0  0  0  0  0  0  0  0  0  0  0
    7.5207    8.5570   -7.6556 H   0  0  0  0  0  0  0  0  0  0  0  0
    8.9152    7.4753   -7.7393 H   0  0  0  0  0  0  0  0  0  0  0  0
   10.3420    9.2320   -6.6761 H   0  0  0  0  0  0  0  0  0  0  0  0
    8.9471   10.3140   -6.5924 H   0  0  0  0  0  0  0  0  0  0  0  0
    8.6843   10.1683   -9.0745 H   0  0  0  0  0  0  0  0  0  0  0  0
   10.0803    9.0854   -9.1582 H   0  0  0  0  0  0  0  0  0  0  0  0
   11.5026   10.8482   -8.0804 H   0  0  0  0  0  0  0  0  0  0  0  0
   10.1174   11.9227   -7.9998 H   0  0  0  0  0  0  0  0  0  0  0  0
    9.8516   11.7951  -10.4760 H   0  0  0  0  0  0  0  0  0  0  0  0
   11.2651   10.6985  -10.5583 H   0  0  0  0  0  0  0  0  0  0  0  0
   30.6988   40.5447  -35.5614 H   0  0  0  0  0  0  0  0  0  0  0  0
   32.1136   39.4492  -35.6390 H   0  0  0  0  0  0  0  0  0  0  0  0
   33.5131   41.2112  -34.5623 H   0  0  0  0  0  0  0  0  0  0  0  0
   32.1267   42.2845  -34.4886 H   0  0  0  0  0  0  0  0  0  0  0  0
   31.8784   42.1451  -36.9807 H   0  0  0  0  0  0  0  0  0  0  0  0
   33.2772   41.0650  -37.0541 H   0  0  0  0  0  0  0  0  0  0  0  0
   34.6886   42.8189  -35.9679 H   0  0  0  0  0  0  0  0  0  0  0  0
   33.2910   43.8981  -35.8921 H   0  0  0  0  0  0  0  0  0  0  0  0
   33.0538   43.7664  -38.3772 H   0  0  0  0  0  0  0  0  0  0  0  0
   34.4496   42.6858  -38.4539 H   0  0  0  0  0  0  0  0  0  0  0  0
   35.8714   44.4454  -37.3887 H   0  0  0  0  0  0  0  0  0  0  0  0
   34.4758   45.5259  -37.3096 H   0  0  0  0  0  0  0  0  0  0  0  0
   34.2367   45.4001  -39.7965 H   0  0  0  0  0  0  0  0  0  0  0  0
   35.6304   44.3180  -39.8765 H   0  0  0  0  0  0  0  0  0  0  0  0
   37.0584   46.0790  -38.8177 H   0  0  0  0  0  0  0  0  0  0  0  0
   35.6646   47.1610  -38.7377 H   0  0  0  0  0  0  0  0  0  0  0  0
   35.4257   47.0360  -41.2263 H   0  0  0  0  0  0  0  0  0  0  0  0
   36.8208   45.9558  -41.3054 H   0  0  0  0  0  0  0  0  0  0  0  0
   38.2473   47.7196  -40.2496 H   0  0  0  0  0  0  0  0  0  0  0  0
   36.8523   48.7997  -40.1680 H   0  0  0  0  0  0  0  0  0  0  0  0
   36.6130   48.6798  -42.6559 H   0  0  0  0  0  0  0  0  0  0  0  0
   38.0065   47.5979  -42.7384 H   0  0  0  0  0  0  0  0  0  0  0  0
   39.4360   49.3598  -41.6806 H   0  0  0  0  0  0  0  0  0  0  0  0
   38.0424   50.4417  -41.6006 H   0  0  0  0  0  0  0  0  0  0  0  0
   37.8042   50.3178  -44.0896 H   0  0  0  0  0  0  0  0  0  0  0  0
   39.1993   49.2375  -44.1688 H   0  0  0  0  0  0  0  0  0  0  0  0
   40.6256   51.0029  -43.1138 H   0  0  0  0  0  0  0  0  0  0  0  0
   39.2306   52.0828  -43.0350 H   0  0  0  0  0  0  0  0  0  0  0  0
   38.9943   51.9587  -45.5246 H   0  0  0  0  0  0  0  0  0  0  0  0
   40.3902   50.8804  -45.6034 H   0  0  0  0  0  0  0  0  0  0  0  0
   41.8139   52.6481  -44.5442 H   0  0  0  0  0  0  0  0  0  0  0  0
   40.4172   53.7261  -44.4685 H   0  0  0  0  0  0  0  0  0  0  0  0
   40.1879   53.6039  -46.9578 H   0  0  0  0  0  0  0  0  0  0  0  0
   41.5843   52.5257  -47.0336 H   0  0  0  0  0  0  0  0  0  0  0  0
   43.0076   54.2946  -45.9776 H   0  0  0  0  0  0  0  0  0  0  0  0
   41.6110   55.3730  -45.9018 H   0  0  0  0  0  0  0  0  0  0  0  0
   41.3827   55.2526  -48.3912 H   0  0  0  0  0  0  0  0  0  0  0  0
   42.7770   54.1731  -48.4678 H   0  0  0  0  0  0  0  0  0  0  0  0
   44.2098   55.9495  -47.4304 H   0  0  0  0  0  0  0  0  0  0  0  0
   42.8150   57.0295  -47.3537 H   0  0  0  0  0  0  0  0  0  0  0  0
   43.9934   55.8398  -49.9198 H   0  0  0  0  0  0  0  0  0  0  0  0
   44.1949   57.5104  -49.3565 H   0  0  0  0  0  0  0  0  0  0  0  0
   42.5919   56.9248  -49.8428 H   0  0  0  0  0  0  0  0  0  0  0  0
  1  2  1  0  0  0  0
  1 80  1  0  0  0  0
  1 81  1  0  0  0  0
  1 82  1  0  0  0  0
  2  3  1  0  0  0  0
  2  6  1  0  0  0  0
  3  4  2  0  0  0  0
  3 83  1  0  0  0  0
  4  5  1  0  0  0  0
  4 84  1  0  0  0  0
  5  6  1  0  0  0  0
  5 85  1  0  0  0  0
  5 86  1  0  0  0  0
  6  7  1  0  0  0  0
  6 87  1  0  0  0  0
  7  8  1  0  0  0  0
  7 88  1  0  0  0  0
  7 89  1  0  0  0  0
  8  9  1  0  0  0  0
  8 90  1  0  0  0  0
  8 91  1  0  0  0  0
  9 10  1  0  0  0  0
  9 92  1  0  0  0  0
  9 93  1  0  0  0  0
 10 11  1  0  0  0  0
 10 94  1  0  0  0  0
 10 95  1  0  0  0  0
 11 12  1  0  0  0  0
 11 96  1  0  0  0  0
 11 97  1  0  0  0  0
 12 13  1  0  0  0  0
 12 98  1  0  0  0  0
 12 99  1  0  0  0  0
 13 14  1  0  0  0  0
 13100  1  0  0  0  0
 13101  1  0  0  0  0
 14 15  1  0  0  0  0
 14102  1  0  0  0  0
 14103  1  0  0  0  0
 15 16  1  0  0  0  0
 15104  1  0  0  0  0
 15105  1  0  0  0  0
 16 17  1  0  0  0  0
 16106  1  0  0  0  0
 16107  1  0  0  0  0
 17 18  1  0  0  0  0
 17108  1  0  0  0  0
 17109  1  0  0  0  0
 18 19  1  0  0  0  0
 18110  1  0  0  0  0
 18111  1  0  0  0  0
 19 20  1  0  0  0  0
 19112  1  0  0  0  0
 19113  1  0  0  0  0
 20 21  1  0  0  0  0
 21 22  1  0  0  0  0
 22 23  1  0  0  0  0
 23 24  1  0  0  0  0
 24 25  1  0  0  0  0
 25 26  1  0  0  0  0
 26 27  1  0  0  0  0
 27 28  1  0  0  0  0
 28 29  1  0  0  0  0
 29 30  1  0  0  0  0
 30 31  1  0  0  0  0
 31 32  1  0  0  0  0
 32 33  1  0  0  0  0
 33 34  1  0  0  0  0
 34 35  1  0  0  0  0
 35 36  1  0  0  0  0
 36 37  1  0  0  0  0
 37 38  1  0  0  0  0
 38 39  1  0  0  0  0
 39 40  1  0  0  0  0
 40 41  1  0  0  0  0
 41 42  1  0  0  0  0
 42 43  1  0  0  0  0
 43 44  1  0  0  0  0
 44 45  1  0  0  0  0
 45 46  1  0  0  0  0
 46 47  1  0  0  0  0
 47 48  1  0  0  0  0
 48 49  1  0  0  0  0
 49 50  1  0  0  0  0
 50 51  1  0  0  0  0
 51 52  1  0  0  0  0
 52 53  1  0  0  0  0
 53 54  1  0  0  0  0
 54 55  1  0  0  0  0
 55 56  1  0  0  0  0
 56 57  1  0  0  0  0
 57 58  1  0  0  0  0
 58 59  1  0  0  0  0
 59 60  1  0  0  0  0
 59114  1  0  0  0  0
 59115  1  0  0  0  0
 60 61  1  0  0  0  0
 60116  1  0  0  0  0
 60117  1  0  0  0  0
 61 62  1  0  0  0  0
 61118  1  0  0  0  0
 61119  1  0  0  0  0
 62 63  1  0  0  0  0
 62120  1  0  0  0  0
 62121  1  0  0  0  0
 63 64  1  0  0  0  0
 63122  1  0  0  0  0
 63123  1  0  0  0  0
 64 65  1  0  0  0  0
 64124  1  0  0  0  0
 64125  1  0  0  0  0
 65 66  1  0  0  0  0
 65126  1  0  0  0  0
 65127  1  0  0  0  0
 66 67  1  0  0  0  0
 66128  1  0  0  0  0
 66129  1  0  0  0  0
 67 68  1  0  0  0  0
 67130  1  0  0  0  0
 67131  1  0  0  0  0
 68 69  1  0  0  0  0
 68132  1  0  0  0  0
 68133  1  0  0  0  0
 69 70  1  0  0  0  0
 69134  1  0  0  0  0
 69135  1  0  0  0  0
 70 71  1  0  0  0  0
 70136  1  0  0  0  0
 70137  1  0  0  0  0
 71 72  1  0  0  0  0
 71138  1  0  0  0  0
 71139  1  0  0  0  0
 72 73  1  0  0  0  0
 72140  1  0  0  0  0
 72141  1  0  0  0  0
 73 74  1  0  0  0  0
 73142  1  0  0  0  0
 73143  1  0  0  0  0
 74 75  1  0  0  0  0
 74144  1  0  0  0  0
 74145  1  0  0  0  0
 75 76  1  0  0  0  0
 75146  1  0  0  0  0
 75147  1  0  0  0  0
 76 77  1  0  0  0  0
 76148  1  0  0  0  0
 76149  1  0  0  0  0
 77 78  1  0  0  0  0
 77150  1  0  0  0  0
 77151  1  0  0  0  0
 78 79  1  0  0  0  0
 78152  1  0  0  0  0
 78153  1  0  0  0  0
 79154  1  0  0  0  0
 79155  1  0  0  0  0
 79156  1  0  0  0  0
M  END
$$$$
