
 OpenBabel04232216523D

 59 60  0  0  1  0  0  0  0  0999 V2000
    8.3084    2.6150   -2.4013 C   0  0  0  0  0  0  0  0  0  0  0  0
    7.7197    1.2468   -2.0629 C   0  0  0  0  0  0  0  0  0  0  0  0
    7.6531    0.9996   -0.5541 C   0  0  0  0  0  0  0  0  0  0  0  0
    7.0094   -0.3734   -0.1819 C   0  0  0  0  0  0  0  0  0  0  0  0
    6.8247   -0.5754    1.3607 C   0  0  3  0  0  0  0  0  0  0  0  0
    6.1901   -1.9795    1.8850 C   0  0  3  0  0  0  0  0  0  0  0  0
    6.9806   -3.2832    1.5769 C   0  0  0  0  0  0  0  0  0  0  0  0
    5.9758   -4.4647    1.5418 C   0  0  0  0  0  0  0  0  0  0  0  0
    4.5838   -3.9161    1.8218 C   0  0  3  0  0  0  0  0  0  0  0  0
    4.0415   -4.0652    3.2562 C   0  0  0  0  0  0  0  0  0  0  0  0
    2.6341   -3.4573    3.4123 C   0  0  0  0  0  0  0  0  0  0  0  0
    2.1541   -3.5812    4.8247 C   0  0  0  0  0  0  0  0  0  0  0  0
    1.1299   -4.1762    5.1390 O   0  0  0  0  0  0  0  0  0  0  0  0
    4.7853   -2.4635    1.5474 C   0  0  0  0  0  0  0  0  0  0  0  0
    3.7414   -1.7694    1.1002 C   0  0  0  0  0  0  0  0  0  0  0  0
    3.9241   -0.3977    0.9941 C   0  0  0  0  0  0  0  0  0  0  0  0
    4.0289    0.8962    0.8426 C   0  0  0  0  0  0  0  0  0  0  0  0
    3.1014    1.4986   -0.1705 C   0  0  0  0  0  0  0  0  0  0  0  0
    2.4394    2.8278    0.0910 C   0  0  0  0  0  0  0  0  0  0  0  0
    2.1821    3.2315    1.2241 O   0  0  0  0  0  0  0  0  0  0  0  0
    2.0634    3.6433   -1.1402 C   0  0  0  0  0  0  0  0  0  0  0  0
    1.0594    3.0222   -2.1157 C   0  0  0  0  0  0  0  0  0  0  0  0
   -0.3175    2.7404   -1.5329 C   0  0  0  0  0  0  0  0  0  0  0  0
    5.1170    1.4491    1.6568 C   0  0  0  0  0  0  0  0  0  0  0  0
    6.2536    0.7581    1.9659 C   0  0  0  0  0  0  0  0  0  0  0  0
    8.4323    2.7132   -3.4852 H   0  0  0  0  0  0  0  0  0  0  0  0
    9.2887    2.7589   -1.9356 H   0  0  0  0  0  0  0  0  0  0  0  0
    7.6511    3.4267   -2.0694 H   0  0  0  0  0  0  0  0  0  0  0  0
    8.3247    0.4680   -2.5356 H   0  0  0  0  0  0  0  0  0  0  0  0
    6.7113    1.1923   -2.4896 H   0  0  0  0  0  0  0  0  0  0  0  0
    7.0802    1.8327   -0.1333 H   0  0  0  0  0  0  0  0  0  0  0  0
    8.6574    1.0626   -0.1178 H   0  0  0  0  0  0  0  0  0  0  0  0
    7.6365   -1.1746   -0.5877 H   0  0  0  0  0  0  0  0  0  0  0  0
    6.0499   -0.4482   -0.6983 H   0  0  0  0  0  0  0  0  0  0  0  0
    7.8591   -0.6159    1.7453 H   0  0  0  0  0  0  0  0  0  0  0  0
    6.2192   -1.8911    2.9821 H   0  0  0  0  0  0  0  0  0  0  0  0
    7.7258   -3.4857    2.3563 H   0  0  0  0  0  0  0  0  0  0  0  0
    7.5202   -3.2353    0.6250 H   0  0  0  0  0  0  0  0  0  0  0  0
    6.2436   -5.2831    2.2177 H   0  0  0  0  0  0  0  0  0  0  0  0
    5.9849   -4.8939    0.5281 H   0  0  0  0  0  0  0  0  0  0  0  0
    3.8697   -4.3691    1.1237 H   0  0  0  0  0  0  0  0  0  0  0  0
    4.7145   -3.5766    3.9719 H   0  0  0  0  0  0  0  0  0  0  0  0
    4.0058   -5.1244    3.5333 H   0  0  0  0  0  0  0  0  0  0  0  0
    1.9177   -3.9249    2.7265 H   0  0  0  0  0  0  0  0  0  0  0  0
    2.6210   -2.3793    3.2246 H   0  0  0  0  0  0  0  0  0  0  0  0
    2.7659   -3.0515    5.5750 H   0  0  0  0  0  0  0  0  0  0  0  0
    2.7657   -2.1816    0.8907 H   0  0  0  0  0  0  0  0  0  0  0  0
    3.8543   -0.6113   -0.1038 H   0  0  0  0  0  0  0  0  0  0  0  0
    2.2420    0.8075   -0.2764 H   0  0  0  0  0  0  0  0  0  0  0  0
    3.6016    1.5083   -1.1420 H   0  0  0  0  0  0  0  0  0  0  0  0
    2.9990    3.8359   -1.6797 H   0  0  0  0  0  0  0  0  0  0  0  0
    1.6918    4.6118   -0.7935 H   0  0  0  0  0  0  0  0  0  0  0  0
    1.4581    2.0972   -2.5470 H   0  0  0  0  0  0  0  0  0  0  0  0
    0.9294    3.7225   -2.9520 H   0  0  0  0  0  0  0  0  0  0  0  0
   -0.2664    2.0188   -0.7134 H   0  0  0  0  0  0  0  0  0  0  0  0
   -0.9687    2.3179   -2.3081 H   0  0  0  0  0  0  0  0  0  0  0  0
   -0.7934    3.6560   -1.1683 H   0  0  0  0  0  0  0  0  0  0  0  0
    4.9642    2.4392    2.0647 H   0  0  0  0  0  0  0  0  0  0  0  0
    6.9766    1.2739    2.6072 H   0  0  0  0  0  0  0  0  0  0  0  0
  1  2  1  0  0  0  0
  1 26  1  0  0  0  0
  1 27  1  0  0  0  0
  1 28  1  0  0  0  0
  2  3  1  0  0  0  0
  2 29  1  0  0  0  0
  2 30  1  0  0  0  0
  3  4  1  0  0  0  0
  3 31  1  0  0  0  0
  3 32  1  0  0  0  0
  4  5  1  0  0  0  0
  4 33  1  0  0  0  0
  4 34  1  0  0  0  0
  5  6  1  0  0  0  0
  5 25  1  0  0  0  0
  5 35  1  0  0  0  0
  6  7  1  0  0  0  0
  6 14  1  0  0  0  0
  6 36  1  0  0  0  0
  7  8  1  0  0  0  0
  7 37  1  0  0  0  0
  7 38  1  0  0  0  0
  8  9  1  0  0  0  0
  8 39  1  0  0  0  0
  8 40  1  0  0  0  0
  9 10  1  0  0  0  0
  9 14  1  0  0  0  0
  9 41  1  0  0  0  0
 10 11  1  0  0  0  0
 10 42  1  0  0  0  0
 10 43  1  0  0  0  0
 11 12  1  0  0  0  0
 11 44  1  0  0  0  0
 11 45  1  0  0  0  0
 12 13  2  0  0  0  0
 12 46  1  0  0  0  0
 14 15  2  0  0  0  0
 15 16  1  0  0  0  0
 15 47  1  0  0  0  0
 16 17  2  0  0  0  0
 16 48  1  0  0  0  0
 17 18  1  0  0  0  0
 17 24  1  0  0  0  0
 18 19  1  0  0  0  0
 18 49  1  0  0  0  0
 18 50  1  0  0  0  0
 19 20  2  0  0  0  0
 19 21  1  0  0  0  0
 21 22  1  0  0  0  0
 21 51  1  0  0  0  0
 21 52  1  0  0  0  0
 22 23  1  0  0  0  0
 22 53  1  0  0  0  0
 22 54  1  0  0  0  0
 23 55  1  0  0  0  0
 23 56  1  0  0  0  0
 23 57  1  0  0  0  0
 24 25  2  0  0  0  0
 24 58  1  0  0  0  0
 25 59  1  0  0  0  0
M  END
$$$$
