
 OpenBabel04232216563D

228227  0  0  0  0  0  0  0  0999 V2000
    1.0592  -39.2829   -5.8817 C   0  0  0  0  0  0  0  0  0  0  0  0
    2.5137  -39.2798   -5.8755 N   0  0  0  0  0  0  0  0  0  0  0  0
    3.0000  -38.2977   -4.9112 C   0  0  0  0  0  0  0  0  0  0  0  0
    4.5208  -38.2963   -4.9031 C   0  0  0  0  0  0  0  0  0  0  0  0
    5.0323  -37.2731   -3.8991 C   0  0  0  0  0  0  0  0  0  0  0  0
    6.5505  -37.2666   -3.8858 C   0  0  0  0  0  0  0  0  0  0  0  0
    7.0581  -36.2439   -2.8855 C   0  0  0  0  0  0  0  0  0  0  0  0
    8.5754  -36.2417   -2.8736 C   0  0  0  0  0  0  0  0  0  0  0  0
    9.0825  -35.2197   -1.8740 C   0  0  0  0  0  0  0  0  0  0  0  0
   10.5987  -35.2190   -1.8609 C   0  0  0  0  0  0  0  0  0  0  0  0
   11.1060  -34.1961   -0.8629 C   0  0  0  0  0  0  0  0  0  0  0  0
   12.6234  -34.1985   -0.8501 C   0  0  0  0  0  0  0  0  0  0  0  0
   13.1278  -33.1744    0.1515 C   0  0  0  0  0  0  0  0  0  0  0  0
   14.6464  -33.1768    0.1624 C   0  0  0  0  0  0  0  0  0  0  0  0
   15.1508  -32.1527    1.1639 C   0  0  0  0  0  0  0  0  0  0  0  0
   16.6694  -32.1562    1.1757 C   0  0  0  0  0  0  0  0  0  0  0  0
   17.1738  -31.1309    2.1762 C   0  0  0  0  0  0  0  0  0  0  0  0
   18.6923  -31.1331    2.1868 C   0  0  0  0  0  0  0  0  0  0  0  0
   19.1967  -30.1089    3.1882 C   0  0  0  0  0  0  0  0  0  0  0  0
   20.7156  -30.1095    3.1975 C   0  0  0  0  0  0  0  0  0  0  0  0
   21.2221  -29.0852    4.1971 C   0  0  0  0  0  0  0  0  0  0  0  0
   22.7384  -29.0833    4.2077 C   0  0  0  0  0  0  0  0  0  0  0  0
   23.2449  -28.0596    5.2066 C   0  0  0  0  0  0  0  0  0  0  0  0
   24.7611  -28.0560    5.2143 C   0  0  0  0  0  0  0  0  0  0  0  0
   25.2687  -27.0341    6.2138 C   0  0  0  0  0  0  0  0  0  0  0  0
   26.7863  -27.0285    6.2207 C   0  0  0  0  0  0  0  0  0  0  0  0
   27.2962  -26.0072    7.2195 C   0  0  0  0  0  0  0  0  0  0  0  0
   28.8145  -25.9960    7.2322 C   0  0  0  0  0  0  0  0  0  0  0  0
   29.3046  -24.9736    8.2344 C   0  0  0  0  0  0  0  0  0  0  0  0
   30.7245  -24.9762    8.2489 O   0  0  0  0  0  0  0  0  0  0  0  0
   31.2022  -24.0126    9.1848 C   0  0  0  0  0  0  0  0  0  0  0  0
   32.7192  -24.0123    9.1772 C   0  0  0  0  0  0  0  0  0  0  0  0
   33.2282  -23.6566    7.7903 C   0  0  0  0  0  0  0  0  0  0  0  0
   34.6487  -23.6469    7.7911 O   0  0  0  0  0  0  0  0  0  0  0  0
   35.1328  -23.3131    6.4911 C   0  0  0  0  0  0  0  0  0  0  0  0
   36.6498  -23.3196    6.5034 C   0  0  0  0  0  0  0  0  0  0  0  0
   37.1555  -24.6959    6.8921 C   0  0  0  0  0  0  0  0  0  0  0  0
   38.5792  -24.7004    6.8881 O   0  0  0  0  0  0  0  0  0  0  0  0
   39.0420  -25.9916    7.2482 C   0  0  0  0  0  0  0  0  0  0  0  0
   40.5468  -25.9935    7.2536 C   0  0  0  0  0  0  0  0  0  0  0  0
   40.9507  -27.3019    7.6157 O   0  0  0  0  0  0  0  0  0  0  0  0
   42.3847  -27.2398    7.5984 O   0  0  0  0  0  0  0  0  0  0  0  0
   42.8247  -28.5290    7.9557 C   0  0  0  0  0  0  0  0  0  0  0  0
   44.2300  -28.4816    7.9425 O   0  0  0  0  0  0  0  0  0  0  0  0
   44.6850  -29.7933    8.3059 O   0  0  0  0  0  0  0  0  0  0  0  0
   46.1225  -29.7778    8.3021 O   0  0  0  0  0  0  0  0  0  0  0  0
   46.5087  -31.0847    8.6637 C   0  0  0  0  0  0  0  0  0  0  0  0
   48.0167  -31.0742    8.6608 C   0  0  0  0  0  0  0  0  0  0  0  0
   48.5285  -32.4412    9.0396 C   0  0  0  0  0  0  0  0  0  0  0  0
   50.0425  -32.4453    9.0387 C   0  0  0  0  0  0  0  0  0  0  0  0
   50.5497  -33.8201    9.4196 C   0  0  0  0  0  0  0  0  0  0  0  0
   52.0641  -33.8266    9.4212 C   0  0  0  0  0  0  0  0  0  0  0  0
   52.5738  -35.2033    9.8006 C   0  0  0  0  0  0  0  0  0  0  0  0
   54.0899  -35.2086    9.7999 C   0  0  0  0  0  0  0  0  0  0  0  0
   54.6004  -36.5854   10.1814 C   0  0  0  0  0  0  0  0  0  0  0  0
   56.1178  -36.5893   10.1783 C   0  0  0  0  0  0  0  0  0  0  0  0
   56.6260  -37.9678   10.5621 C   0  0  0  0  0  0  0  0  0  0  0  0
   58.1445  -37.9711   10.5569 C   0  0  0  0  0  0  0  0  0  0  0  0
   58.6522  -39.3497   10.9409 C   0  0  0  0  0  0  0  0  0  0  0  0
   60.1709  -39.3526   10.9374 C   0  0  0  0  0  0  0  0  0  0  0  0
   60.6788  -40.7313   11.3215 C   0  0  0  0  0  0  0  0  0  0  0  0
   62.1976  -40.7341   11.3182 C   0  0  0  0  0  0  0  0  0  0  0  0
   62.7055  -42.1129   11.7022 C   0  0  0  0  0  0  0  0  0  0  0  0
   64.2242  -42.1157   11.6988 C   0  0  0  0  0  0  0  0  0  0  0  0
   64.7322  -43.4945   12.0829 C   0  0  0  0  0  0  0  0  0  0  0  0
   66.2509  -43.4973   12.0794 C   0  0  0  0  0  0  0  0  0  0  0  0
   66.7588  -44.8761   12.4634 C   0  0  0  0  0  0  0  0  0  0  0  0
   68.2775  -44.8789   12.4601 C   0  0  0  0  0  0  0  0  0  0  0  0
   68.7855  -46.2576   12.8442 C   0  0  0  0  0  0  0  0  0  0  0  0
   70.3042  -46.2600   12.8426 C   0  0  0  0  0  0  0  0  0  0  0  0
   70.8123  -47.6388   13.2268 C   0  0  0  0  0  0  0  0  0  0  0  0
   72.3311  -47.6411   13.2254 C   0  0  0  0  0  0  0  0  0  0  0  0
   72.8393  -49.0191   13.6092 C   0  0  0  0  0  0  0  0  0  0  0  0
   74.3563  -49.0231   13.6083 C   0  0  0  0  0  0  0  0  0  0  0  0
   74.8670  -50.3994   13.9917 C   0  0  0  0  0  0  0  0  0  0  0  0
   76.3833  -50.4046   13.9931 C   0  0  0  0  0  0  0  0  0  0  0  0
   76.8950  -51.7804   14.3763 C   0  0  0  0  0  0  0  0  0  0  0  0
   78.4131  -51.7857   14.3778 C   0  0  0  0  0  0  0  0  0  0  0  0
   78.9270  -53.1629   14.7594 C   0  0  0  0  0  0  0  0  0  0  0  0
   80.4476  -53.1756   14.7649 C   0  0  0  0  0  0  0  0  0  0  0  0
   80.9571  -54.5503   15.1458 C   0  0  0  0  0  0  0  0  0  0  0  0
    0.6948  -40.0188   -6.6026 H   0  0  0  0  0  0  0  0  0  0  0  0
    0.6629  -38.3019   -6.1618 H   0  0  0  0  0  0  0  0  0  0  0  0
    0.6680  -39.5582   -4.8957 H   0  0  0  0  0  0  0  0  0  0  0  0
    2.8585  -39.0429   -6.8057 H   0  0  0  0  0  0  0  0  0  0  0  0
    2.6342  -38.5427   -3.9069 H   0  0  0  0  0  0  0  0  0  0  0  0
    2.6364  -37.2961   -5.1714 H   0  0  0  0  0  0  0  0  0  0  0  0
    4.9062  -38.0542   -5.9015 H   0  0  0  0  0  0  0  0  0  0  0  0
    4.8989  -39.2917   -4.6381 H   0  0  0  0  0  0  0  0  0  0  0  0
    4.6540  -37.5095   -2.8968 H   0  0  0  0  0  0  0  0  0  0  0  0
    4.6599  -36.2743   -4.1593 H   0  0  0  0  0  0  0  0  0  0  0  0
    6.9317  -37.0286   -4.8864 H   0  0  0  0  0  0  0  0  0  0  0  0
    6.9256  -38.2628   -3.6216 H   0  0  0  0  0  0  0  0  0  0  0  0
    6.6781  -36.4796   -1.8839 H   0  0  0  0  0  0  0  0  0  0  0  0
    6.6863  -35.2462   -3.1491 H   0  0  0  0  0  0  0  0  0  0  0  0
    8.9567  -36.0053   -3.8745 H   0  0  0  0  0  0  0  0  0  0  0  0
    8.9484  -37.2388   -2.6092 H   0  0  0  0  0  0  0  0  0  0  0  0
    8.7009  -35.4548   -0.8729 H   0  0  0  0  0  0  0  0  0  0  0  0
    8.7114  -34.2221   -2.1387 H   0  0  0  0  0  0  0  0  0  0  0  0
   10.9814  -34.9855   -2.8623 H   0  0  0  0  0  0  0  0  0  0  0  0
   10.9706  -36.2166   -1.5949 H   0  0  0  0  0  0  0  0  0  0  0  0
   10.7228  -34.4293    0.1381 H   0  0  0  0  0  0  0  0  0  0  0  0
   10.7357  -33.1987   -1.1301 H   0  0  0  0  0  0  0  0  0  0  0  0
   13.0056  -33.9631   -1.8499 H   0  0  0  0  0  0  0  0  0  0  0  0
   12.9928  -35.1954   -0.5831 H   0  0  0  0  0  0  0  0  0  0  0  0
   12.7467  -33.4108    1.1519 H   0  0  0  0  0  0  0  0  0  0  0  0
   12.7573  -32.1776   -0.1142 H   0  0  0  0  0  0  0  0  0  0  0  0
   15.0275  -32.9404   -0.8379 H   0  0  0  0  0  0  0  0  0  0  0  0
   15.0169  -34.1736    0.4281 H   0  0  0  0  0  0  0  0  0  0  0  0
   14.7686  -32.3881    2.1640 H   0  0  0  0  0  0  0  0  0  0  0  0
   14.7813  -31.1557    0.8972 H   0  0  0  0  0  0  0  0  0  0  0  0
   17.0517  -31.9221    0.1754 H   0  0  0  0  0  0  0  0  0  0  0  0
   17.0387  -33.1529    1.4438 H   0  0  0  0  0  0  0  0  0  0  0  0
   16.7925  -31.3657    3.1767 H   0  0  0  0  0  0  0  0  0  0  0  0
   16.8034  -30.1343    1.9088 H   0  0  0  0  0  0  0  0  0  0  0  0
   19.0733  -30.8967    1.1863 H   0  0  0  0  0  0  0  0  0  0  0  0
   19.0630  -32.1298    2.4524 H   0  0  0  0  0  0  0  0  0  0  0  0
   18.8168  -30.3460    4.1887 H   0  0  0  0  0  0  0  0  0  0  0  0
   18.8250  -29.1123    2.9231 H   0  0  0  0  0  0  0  0  0  0  0  0
   21.0952  -29.8738    2.1964 H   0  0  0  0  0  0  0  0  0  0  0  0
   21.0870  -31.1059    3.4636 H   0  0  0  0  0  0  0  0  0  0  0  0
   20.8413  -29.3210    5.1983 H   0  0  0  0  0  0  0  0  0  0  0  0
   20.8475  -28.0886    3.9317 H   0  0  0  0  0  0  0  0  0  0  0  0
   23.1172  -28.8457    3.2045 H   0  0  0  0  0  0  0  0  0  0  0  0
   23.1121  -30.0797    4.4682 H   0  0  0  0  0  0  0  0  0  0  0  0
   22.8656  -28.2984    6.2074 H   0  0  0  0  0  0  0  0  0  0  0  0
   22.8692  -27.0638    4.9432 H   0  0  0  0  0  0  0  0  0  0  0  0
   25.1389  -27.8184    4.2123 H   0  0  0  0  0  0  0  0  0  0  0  0
   25.1355  -29.0531    5.4765 H   0  0  0  0  0  0  0  0  0  0  0  0
   24.8906  -27.2729    7.2156 H   0  0  0  0  0  0  0  0  0  0  0  0
   24.8918  -26.0376    5.9521 H   0  0  0  0  0  0  0  0  0  0  0  0
   27.1622  -26.7901    5.2181 H   0  0  0  0  0  0  0  0  0  0  0  0
   27.1610  -28.0257    6.4820 H   0  0  0  0  0  0  0  0  0  0  0  0
   26.9161  -26.2454    8.2213 H   0  0  0  0  0  0  0  0  0  0  0  0
   26.9174  -25.0107    6.9585 H   0  0  0  0  0  0  0  0  0  0  0  0
   29.2056  -25.7621    6.2338 H   0  0  0  0  0  0  0  0  0  0  0  0
   29.2042  -26.9894    7.4884 H   0  0  0  0  0  0  0  0  0  0  0  0
   28.9371  -25.2250    9.2353 H   0  0  0  0  0  0  0  0  0  0  0  0
   28.9427  -23.9765    7.9575 H   0  0  0  0  0  0  0  0  0  0  0  0
   30.8340  -24.2662   10.1830 H   0  0  0  0  0  0  0  0  0  0  0  0
   30.8288  -23.0201    8.9043 H   0  0  0  0  0  0  0  0  0  0  0  0
   33.1039  -24.9974    9.4687 H   0  0  0  0  0  0  0  0  0  0  0  0
   33.0994  -23.2958    9.9142 H   0  0  0  0  0  0  0  0  0  0  0  0
   32.8631  -22.6641    7.5038 H   0  0  0  0  0  0  0  0  0  0  0  0
   32.8762  -24.3905    7.0565 H   0  0  0  0  0  0  0  0  0  0  0  0
   34.7673  -22.3207    6.2106 H   0  0  0  0  0  0  0  0  0  0  0  0
   34.7629  -24.0498    5.7673 H   0  0  0  0  0  0  0  0  0  0  0  0
   37.0310  -22.5765    7.2136 H   0  0  0  0  0  0  0  0  0  0  0  0
   37.0373  -23.0411    5.5173 H   0  0  0  0  0  0  0  0  0  0  0  0
   36.7920  -25.4420    6.1746 H   0  0  0  0  0  0  0  0  0  0  0  0
   36.7987  -24.9677    7.8923 H   0  0  0  0  0  0  0  0  0  0  0  0
   38.6758  -26.7398    6.5416 H   0  0  0  0  0  0  0  0  0  0  0  0
   38.6747  -26.2633    8.2496 H   0  0  0  0  0  0  0  0  0  0  0  0
   40.9402  -25.2634    7.9711 H   0  0  0  0  0  0  0  0  0  0  0  0
   40.9400  -25.7368    6.2624 H   0  0  0  0  0  0  0  0  0  0  0  0
   42.4699  -29.2716    7.2280 H   0  0  0  0  0  0  0  0  0  0  0  0
   42.4699  -28.7913    8.9619 H   0  0  0  0  0  0  0  0  0  0  0  0
   46.1188  -31.8007    7.9345 H   0  0  0  0  0  0  0  0  0  0  0  0
   46.1188  -31.3235    9.6574 H   0  0  0  0  0  0  0  0  0  0  0  0
   48.3865  -30.3100    9.3577 H   0  0  0  0  0  0  0  0  0  0  0  0
   48.3864  -30.7775    7.6700 H   0  0  0  0  0  0  0  0  0  0  0  0
   48.1511  -33.1903    8.3313 H   0  0  0  0  0  0  0  0  0  0  0  0
   48.1533  -32.7179   10.0334 H   0  0  0  0  0  0  0  0  0  0  0  0
   50.4172  -31.6971    9.7480 H   0  0  0  0  0  0  0  0  0  0  0  0
   50.4148  -32.1701    8.0444 H   0  0  0  0  0  0  0  0  0  0  0  0
   50.1722  -34.5686    8.7103 H   0  0  0  0  0  0  0  0  0  0  0  0
   50.1723  -34.0971   10.4128 H   0  0  0  0  0  0  0  0  0  0  0  0
   52.4392  -33.0801   10.1320 H   0  0  0  0  0  0  0  0  0  0  0  0
   52.4392  -33.5495    8.4283 H   0  0  0  0  0  0  0  0  0  0  0  0
   52.1972  -35.9498    9.0905 H   0  0  0  0  0  0  0  0  0  0  0  0
   52.1994  -35.4795   10.7939 H   0  0  0  0  0  0  0  0  0  0  0  0
   54.4665  -34.4607   10.5088 H   0  0  0  0  0  0  0  0  0  0  0  0
   54.4640  -34.9332    8.8061 H   0  0  0  0  0  0  0  0  0  0  0  0
   54.2224  -37.3324    9.4730 H   0  0  0  0  0  0  0  0  0  0  0  0
   54.2270  -36.8589   11.1756 H   0  0  0  0  0  0  0  0  0  0  0  0
   56.4944  -35.8414   10.8857 H   0  0  0  0  0  0  0  0  0  0  0  0
   56.4896  -36.3171    9.1836 H   0  0  0  0  0  0  0  0  0  0  0  0
   56.2477  -38.7155    9.8554 H   0  0  0  0  0  0  0  0  0  0  0  0
   56.2547  -38.2387   11.5573 H   0  0  0  0  0  0  0  0  0  0  0  0
   58.5222  -37.2230   11.2636 H   0  0  0  0  0  0  0  0  0  0  0  0
   58.5152  -37.6998    9.5616 H   0  0  0  0  0  0  0  0  0  0  0  0
   58.2753  -40.0974   10.2334 H   0  0  0  0  0  0  0  0  0  0  0  0
   58.2802  -39.6215   11.9356 H   0  0  0  0  0  0  0  0  0  0  0  0
   60.5477  -38.6049   11.6450 H   0  0  0  0  0  0  0  0  0  0  0  0
   60.5430  -39.0807    9.9428 H   0  0  0  0  0  0  0  0  0  0  0  0
   60.3020  -41.4790   10.6140 H   0  0  0  0  0  0  0  0  0  0  0  0
   60.3068  -41.0030   12.3162 H   0  0  0  0  0  0  0  0  0  0  0  0
   62.5744  -39.9864   12.0257 H   0  0  0  0  0  0  0  0  0  0  0  0
   62.5697  -40.4623   10.3235 H   0  0  0  0  0  0  0  0  0  0  0  0
   62.3287  -42.8606   10.9947 H   0  0  0  0  0  0  0  0  0  0  0  0
   62.3334  -42.3846   12.6969 H   0  0  0  0  0  0  0  0  0  0  0  0
   64.6010  -41.3680   12.4064 H   0  0  0  0  0  0  0  0  0  0  0  0
   64.5963  -41.8439   10.7042 H   0  0  0  0  0  0  0  0  0  0  0  0
   64.3554  -44.2421   11.3754 H   0  0  0  0  0  0  0  0  0  0  0  0
   64.3601  -43.7662   13.0776 H   0  0  0  0  0  0  0  0  0  0  0  0
   66.6277  -42.7496   12.7870 H   0  0  0  0  0  0  0  0  0  0  0  0
   66.6230  -43.2255   11.0848 H   0  0  0  0  0  0  0  0  0  0  0  0
   66.3820  -45.6238   11.7560 H   0  0  0  0  0  0  0  0  0  0  0  0
   66.3868  -45.1478   13.4582 H   0  0  0  0  0  0  0  0  0  0  0  0
   68.6543  -44.1312   13.1677 H   0  0  0  0  0  0  0  0  0  0  0  0
   68.6497  -44.6071   11.4655 H   0  0  0  0  0  0  0  0  0  0  0  0
   68.4098  -47.0051   12.1359 H   0  0  0  0  0  0  0  0  0  0  0  0
   68.4123  -46.5300   13.8383 H   0  0  0  0  0  0  0  0  0  0  0  0
   70.6798  -45.5125   13.5511 H   0  0  0  0  0  0  0  0  0  0  0  0
   70.6775  -45.9875   11.8487 H   0  0  0  0  0  0  0  0  0  0  0  0
   70.4365  -48.3862   12.5184 H   0  0  0  0  0  0  0  0  0  0  0  0
   70.4389  -47.9110   14.2209 H   0  0  0  0  0  0  0  0  0  0  0  0
   72.7065  -46.8935   13.9337 H   0  0  0  0  0  0  0  0  0  0  0  0
   72.7041  -47.3686   12.2313 H   0  0  0  0  0  0  0  0  0  0  0  0
   72.4634  -49.7670   12.9010 H   0  0  0  0  0  0  0  0  0  0  0  0
   72.4657  -49.2919   14.6033 H   0  0  0  0  0  0  0  0  0  0  0  0
   74.7330  -48.2749   14.3164 H   0  0  0  0  0  0  0  0  0  0  0  0
   74.7307  -48.7500   12.6142 H   0  0  0  0  0  0  0  0  0  0  0  0
   74.4912  -51.1478   13.2829 H   0  0  0  0  0  0  0  0  0  0  0  0
   74.4912  -50.6736   14.9853 H   0  0  0  0  0  0  0  0  0  0  0  0
   76.7584  -49.6559   14.7016 H   0  0  0  0  0  0  0  0  0  0  0  0
   76.7584  -50.1300   12.9995 H   0  0  0  0  0  0  0  0  0  0  0  0
   76.5189  -52.5284   13.6675 H   0  0  0  0  0  0  0  0  0  0  0  0
   76.5189  -52.0543   15.3697 H   0  0  0  0  0  0  0  0  0  0  0  0
   78.7866  -51.0375   15.0874 H   0  0  0  0  0  0  0  0  0  0  0  0
   78.7867  -51.5094   13.3844 H   0  0  0  0  0  0  0  0  0  0  0  0
   78.5492  -53.9085   14.0488 H   0  0  0  0  0  0  0  0  0  0  0  0
   78.5469  -53.4378   15.7511 H   0  0  0  0  0  0  0  0  0  0  0  0
   80.8243  -52.4314   15.4764 H   0  0  0  0  0  0  0  0  0  0  0  0
   80.8266  -52.9023   13.7732 H   0  0  0  0  0  0  0  0  0  0  0  0
   80.6025  -54.8296   16.1431 H   0  0  0  0  0  0  0  0  0  0  0  0
   82.0497  -54.5608   15.1502 H   0  0  0  0  0  0  0  0  0  0  0  0
   80.6048  -55.3026   14.4328 H   0  0  0  0  0  0  0  0  0  0  0  0
  1  2  1  0  0  0  0
  1 82  1  0  0  0  0
  1 83  1  0  0  0  0
  1 84  1  0  0  0  0
  2  3  1  0  0  0  0
  2 85  1  0  0  0  0
  3  4  1  0  0  0  0
  3 86  1  0  0  0  0
  3 87  1  0  0  0  0
  4  5  1  0  0  0  0
  4 88  1  0  0  0  0
  4 89  1  0  0  0  0
  5  6  1  0  0  0  0
  5 90  1  0  0  0  0
  5 91  1  0  0  0  0
  6  7  1  0  0  0  0
  6 92  1  0  0  0  0
  6 93  1  0  0  0  0
  7  8  1  0  0  0  0
  7 94  1  0  0  0  0
  7 95  1  0  0  0  0
  8  9  1  0  0  0  0
  8 96  1  0  0  0  0
  8 97  1  0  0  0  0
  9 10  1  0  0  0  0
  9 98  1  0  0  0  0
  9 99  1  0  0  0  0
 10 11  1  0  0  0  0
 10100  1  0  0  0  0
 10101  1  0  0  0  0
 11 12  1  0  0  0  0
 11102  1  0  0  0  0
 11103  1  0  0  0  0
 12 13  1  0  0  0  0
 12104  1  0  0  0  0
 12105  1  0  0  0  0
 13 14  1  0  0  0  0
 13106  1  0  0  0  0
 13107  1  0  0  0  0
 14 15  1  0  0  0  0
 14108  1  0  0  0  0
 14109  1  0  0  0  0
 15 16  1  0  0  0  0
 15110  1  0  0  0  0
 15111  1  0  0  0  0
 16 17  1  0  0  0  0
 16112  1  0  0  0  0
 16113  1  0  0  0  0
 17 18  1  0  0  0  0
 17114  1  0  0  0  0
 17115  1  0  0  0  0
 18 19  1  0  0  0  0
 18116  1  0  0  0  0
 18117  1  0  0  0  0
 19 20  1  0  0  0  0
 19118  1  0  0  0  0
 19119  1  0  0  0  0
 20 21  1  0  0  0  0
 20120  1  0  0  0  0
 20121  1  0  0  0  0
 21 22  1  0  0  0  0
 21122  1  0  0  0  0
 21123  1  0  0  0  0
 22 23  1  0  0  0  0
 22124  1  0  0  0  0
 22125  1  0  0  0  0
 23 24  1  0  0  0  0
 23126  1  0  0  0  0
 23127  1  0  0  0  0
 24 25  1  0  0  0  0
 24128  1  0  0  0  0
 24129  1  0  0  0  0
 25 26  1  0  0  0  0
 25130  1  0  0  0  0
 25131  1  0  0  0  0
 26 27  1  0  0  0  0
 26132  1  0  0  0  0
 26133  1  0  0  0  0
 27 28  1  0  0  0  0
 27134  1  0  0  0  0
 27135  1  0  0  0  0
 28 29  1  0  0  0  0
 28136  1  0  0  0  0
 28137  1  0  0  0  0
 29 30  1  0  0  0  0
 29138  1  0  0  0  0
 29139  1  0  0  0  0
 30 31  1  0  0  0  0
 31 32  1  0  0  0  0
 31140  1  0  0  0  0
 31141  1  0  0  0  0
 32 33  1  0  0  0  0
 32142  1  0  0  0  0
 32143  1  0  0  0  0
 33 34  1  0  0  0  0
 33144  1  0  0  0  0
 33145  1  0  0  0  0
 34 35  1  0  0  0  0
 35 36  1  0  0  0  0
 35146  1  0  0  0  0
 35147  1  0  0  0  0
 36 37  1  0  0  0  0
 36148  1  0  0  0  0
 36149  1  0  0  0  0
 37 38  1  0  0  0  0
 37150  1  0  0  0  0
 37151  1  0  0  0  0
 38 39  1  0  0  0  0
 39 40  1  0  0  0  0
 39152  1  0  0  0  0
 39153  1  0  0  0  0
 40 41  1  0  0  0  0
 40154  1  0  0  0  0
 40155  1  0  0  0  0
 41 42  1  0  0  0  0
 42 43  1  0  0  0  0
 43 44  1  0  0  0  0
 43156  1  0  0  0  0
 43157  1  0  0  0  0
 44 45  1  0  0  0  0
 45 46  1  0  0  0  0
 46 47  1  0  0  0  0
 47 48  1  0  0  0  0
 47158  1  0  0  0  0
 47159  1  0  0  0  0
 48 49  1  0  0  0  0
 48160  1  0  0  0  0
 48161  1  0  0  0  0
 49 50  1  0  0  0  0
 49162  1  0  0  0  0
 49163  1  0  0  0  0
 50 51  1  0  0  0  0
 50164  1  0  0  0  0
 50165  1  0  0  0  0
 51 52  1  0  0  0  0
 51166  1  0  0  0  0
 51167  1  0  0  0  0
 52 53  1  0  0  0  0
 52168  1  0  0  0  0
 52169  1  0  0  0  0
 53 54  1  0  0  0  0
 53170  1  0  0  0  0
 53171  1  0  0  0  0
 54 55  1  0  0  0  0
 54172  1  0  0  0  0
 54173  1  0  0  0  0
 55 56  1  0  0  0  0
 55174  1  0  0  0  0
 55175  1  0  0  0  0
 56 57  1  0  0  0  0
 56176  1  0  0  0  0
 56177  1  0  0  0  0
 57 58  1  0  0  0  0
 57178  1  0  0  0  0
 57179  1  0  0  0  0
 58 59  1  0  0  0  0
 58180  1  0  0  0  0
 58181  1  0  0  0  0
 59 60  1  0  0  0  0
 59182  1  0  0  0  0
 59183  1  0  0  0  0
 60 61  1  0  0  0  0
 60184  1  0  0  0  0
 60185  1  0  0  0  0
 61 62  1  0  0  0  0
 61186  1  0  0  0  0
 61187  1  0  0  0  0
 62 63  1  0  0  0  0
 62188  1  0  0  0  0
 62189  1  0  0  0  0
 63 64  1  0  0  0  0
 63190  1  0  0  0  0
 63191  1  0  0  0  0
 64 65  1  0  0  0  0
 64192  1  0  0  0  0
 64193  1  0  0  0  0
 65 66  1  0  0  0  0
 65194  1  0  0  0  0
 65195  1  0  0  0  0
 66 67  1  0  0  0  0
 66196  1  0  0  0  0
 66197  1  0  0  0  0
 67 68  1  0  0  0  0
 67198  1  0  0  0  0
 67199  1  0  0  0  0
 68 69  1  0  0  0  0
 68200  1  0  0  0  0
 68201  1  0  0  0  0
 69 70  1  0  0  0  0
 69202  1  0  0  0  0
 69203  1  0  0  0  0
 70 71  1  0  0  0  0
 70204  1  0  0  0  0
 70205  1  0  0  0  0
 71 72  1  0  0  0  0
 71206  1  0  0  0  0
 71207  1  0  0  0  0
 72 73  1  0  0  0  0
 72208  1  0  0  0  0
 72209  1  0  0  0  0
 73 74  1  0  0  0  0
 73210  1  0  0  0  0
 73211  1  0  0  0  0
 74 75  1  0  0  0  0
 74212  1  0  0  0  0
 74213  1  0  0  0  0
 75 76  1  0  0  0  0
 75214  1  0  0  0  0
 75215  1  0  0  0  0
 76 77  1  0  0  0  0
 76216  1  0  0  0  0
 76217  1  0  0  0  0
 77 78  1  0  0  0  0
 77218  1  0  0  0  0
 77219  1  0  0  0  0
 78 79  1  0  0  0  0
 78220  1  0  0  0  0
 78221  1  0  0  0  0
 79 80  1  0  0  0  0
 79222  1  0  0  0  0
 79223  1  0  0  0  0
 80 81  1  0  0  0  0
 80224  1  0  0  0  0
 80225  1  0  0  0  0
 81226  1  0  0  0  0
 81227  1  0  0  0  0
 81228  1  0  0  0  0
M  END
$$$$
