
 OpenBabel04232216393D

 31 31  0  0  0  0  0  0  0  0999 V2000
    6.5557   -0.7288   -0.1077 C   0  0  0  0  0  0  0  0  0  0  0  0
    7.2368    0.0099    0.7948 C   0  0  0  0  0  0  0  0  0  0  0  0
    6.3016    0.6280    1.7281 C   0  0  0  0  0  0  0  0  0  0  0  0
    5.7894    1.8494    1.4803 C   0  0  0  0  0  0  0  0  0  0  0  0
    5.4095    2.7541    2.5556 C   0  0  0  0  0  0  0  0  0  0  0  0
    6.2081    2.7453    3.6335 C   0  0  0  0  0  0  0  0  0  0  0  0
    6.8423    3.9645    4.2580 C   0  0  0  0  0  0  0  0  0  0  0  0
    8.1269    4.1936    3.5176 C   0  0  0  0  0  0  0  0  0  0  0  0
    9.3820    4.3557    3.9669 C   0  0  0  0  0  0  0  0  0  0  0  0
   10.3944    3.9137    3.0246 C   0  0  0  0  0  0  0  0  0  0  0  0
   11.2223    2.9503    3.4112 C   0  0  0  0  0  0  0  0  0  0  0  0
   11.4371    1.7403    2.5591 C   0  0  0  0  0  0  0  0  0  0  0  0
   10.3618    0.9470    2.2723 C   0  0  0  0  0  0  0  0  0  0  0  0
    9.6539    1.0842    0.9853 C   0  0  0  0  0  0  0  0  0  0  0  0
    8.5021    0.6659    0.4071 C   0  0  0  0  0  0  0  0  0  0  0  0
    6.5901   -0.4211   -1.1511 H   0  0  0  0  0  0  0  0  0  0  0  0
    5.6594   -1.2825    0.1697 H   0  0  0  0  0  0  0  0  0  0  0  0
    6.1110    0.1161    2.6608 H   0  0  0  0  0  0  0  0  0  0  0  0
    5.9387    2.3419    0.5174 H   0  0  0  0  0  0  0  0  0  0  0  0
    4.8489    3.6447    2.2733 H   0  0  0  0  0  0  0  0  0  0  0  0
    6.8524    1.8730    3.7889 H   0  0  0  0  0  0  0  0  0  0  0  0
    7.0008    3.7458    5.3355 H   0  0  0  0  0  0  0  0  0  0  0  0
    6.2073    4.8397    4.1598 H   0  0  0  0  0  0  0  0  0  0  0  0
    8.0309    3.9303    2.4619 H   0  0  0  0  0  0  0  0  0  0  0  0
    9.6232    4.4787    5.0167 H   0  0  0  0  0  0  0  0  0  0  0  0
   10.1258    3.9838    1.9776 H   0  0  0  0  0  0  0  0  0  0  0  0
   11.5734    2.8476    4.4179 H   0  0  0  0  0  0  0  0  0  0  0  0
   12.3312    1.2386    2.9267 H   0  0  0  0  0  0  0  0  0  0  0  0
   10.4975   -0.1178    2.4966 H   0  0  0  0  0  0  0  0  0  0  0  0
   10.3525    1.5048    0.2623 H   0  0  0  0  0  0  0  0  0  0  0  0
    8.5178    0.8063   -0.6758 H   0  0  0  0  0  0  0  0  0  0  0  0
  1  2  2  0  0  0  0
  1 16  1  0  0  0  0
  1 17  1  0  0  0  0
  2  3  1  0  0  0  0
  2 15  1  0  0  0  0
  3  4  2  3  0  0  0
  3 18  1  0  0  0  0
  4  5  1  0  0  0  0
  4 19  1  0  0  0  0
  5  6  2  3  0  0  0
  5 20  1  0  0  0  0
  6  7  1  0  0  0  0
  6 21  1  0  0  0  0
  7  8  1  0  0  0  0
  7 22  1  0  0  0  0
  7 23  1  0  0  0  0
  8  9  2  3  0  0  0
  8 24  1  0  0  0  0
  9 10  1  0  0  0  0
  9 25  1  0  0  0  0
 10 11  2  3  0  0  0
 10 26  1  0  0  0  0
 11 12  1  0  0  0  0
 11 27  1  0  0  0  0
 12 13  2  3  0  0  0
 12 28  1  0  0  0  0
 13 14  1  0  0  0  0
 13 29  1  0  0  0  0
 14 15  2  3  0  0  0
 14 30  1  0  0  0  0
 15 31  1  0  0  0  0
M  END
$$$$
