
 OpenBabel04232216483D

 77 78  0  0  0  0  0  0  0  0999 V2000
    8.0297    5.1765    6.1254 C   0  0  0  0  0  0  0  0  0  0  0  0
    7.2368    4.0741    6.7868 C   0  0  0  0  0  0  0  0  0  0  0  0
    7.0832    2.8790    5.9020 C   0  0  0  0  0  0  0  0  0  0  0  0
    6.3522    1.8081    6.2861 C   0  0  0  0  0  0  0  0  0  0  0  0
    4.8448    1.8916    6.3298 C   0  0  0  0  0  0  0  0  0  0  0  0
    4.2495    2.8582    5.5161 N   0  0  0  0  0  0  0  0  0  0  0  0
    2.8495    3.1943    5.3380 C   0  0  0  0  0  0  0  0  0  0  0  0
    2.5628    3.4865    3.8659 C   0  0  0  0  0  0  0  0  0  0  0  0
    1.0781    3.7764    3.6075 C   0  0  0  0  0  0  0  0  0  0  0  0
    0.5378    5.0646    4.2436 C   0  0  0  0  0  0  0  0  0  0  0  0
    1.2547    6.3448    3.8114 C   0  0  0  0  0  0  0  0  0  0  0  0
    1.1398    6.5905    2.3098 C   0  0  0  0  0  0  0  0  0  0  0  0
    1.9028    7.8407    1.8972 C   0  0  0  0  0  0  0  0  0  0  0  0
    1.7773    8.0637    0.3951 C   0  0  0  0  0  0  0  0  0  0  0  0
    2.5544    9.3036   -0.0183 C   0  0  0  0  0  0  0  0  0  0  0  0
    2.4310    9.5435   -1.5162 C   0  0  0  0  0  0  0  0  0  0  0  0
    3.2070   10.7918   -1.9140 C   0  0  0  0  0  0  0  0  0  0  0  0
    3.0910   11.0461   -3.4116 C   0  0  0  0  0  0  0  0  0  0  0  0
    3.8704   12.2958   -3.8046 C   0  0  0  0  0  0  0  0  0  0  0  0
    3.7654   12.5608   -5.3017 C   0  0  0  0  0  0  0  0  0  0  0  0
    4.5419   13.8072   -5.6895 C   0  0  0  0  0  0  0  0  0  0  0  0
    4.2987    1.1608    7.3342 C   0  0  0  0  0  0  0  0  0  0  0  0
    4.8338    0.0264    7.9102 N   0  0  0  0  0  0  0  0  0  0  0  0
    4.0008   -0.2858    8.8633 C   0  0  0  0  0  0  0  0  0  0  0  0
    4.2102   -1.4176    9.8055 C   0  0  0  0  0  0  0  0  0  0  0  0
    2.9285    0.5598    9.0591 N   0  0  0  0  0  0  0  0  0  0  0  0
    3.1601    1.5207    8.1996 C   0  0  0  0  0  0  0  0  0  0  0  0
    2.6011    2.8999    8.3472 C   0  0  0  0  0  0  0  0  0  0  0  0
    3.5382    3.6455    8.9623 C   0  0  0  0  0  0  0  0  0  0  0  0
    4.0817    4.8898    8.3785 C   0  0  0  0  0  0  0  0  0  0  0  0
    5.3310    5.1638    7.9465 C   0  0  0  0  0  0  0  0  0  0  0  0
    6.4256    4.1919    7.8678 C   0  0  0  0  0  0  0  0  0  0  0  0
    7.4151    6.0191    5.8064 H   0  0  0  0  0  0  0  0  0  0  0  0
    8.5617    4.8008    5.2391 H   0  0  0  0  0  0  0  0  0  0  0  0
    8.8167    5.5288    6.8025 H   0  0  0  0  0  0  0  0  0  0  0  0
    6.8920    3.2316    4.8832 H   0  0  0  0  0  0  0  0  0  0  0  0
    6.7168    1.3465    7.2108 H   0  0  0  0  0  0  0  0  0  0  0  0
    4.8708    3.6308    5.2947 H   0  0  0  0  0  0  0  0  0  0  0  0
    2.6239    4.0900    5.9247 H   0  0  0  0  0  0  0  0  0  0  0  0
    2.1979    2.3808    5.6687 H   0  0  0  0  0  0  0  0  0  0  0  0
    2.8516    2.6134    3.2679 H   0  0  0  0  0  0  0  0  0  0  0  0
    3.1873    4.3137    3.5079 H   0  0  0  0  0  0  0  0  0  0  0  0
    0.4813    2.9333    3.9763 H   0  0  0  0  0  0  0  0  0  0  0  0
    0.9093    3.8039    2.5249 H   0  0  0  0  0  0  0  0  0  0  0  0
    0.5818    4.9875    5.3355 H   0  0  0  0  0  0  0  0  0  0  0  0
   -0.5263    5.1561    3.9898 H   0  0  0  0  0  0  0  0  0  0  0  0
    2.3082    6.3098    4.1105 H   0  0  0  0  0  0  0  0  0  0  0  0
    0.8127    7.1940    4.3477 H   0  0  0  0  0  0  0  0  0  0  0  0
    0.0831    6.6917    2.0334 H   0  0  0  0  0  0  0  0  0  0  0  0
    1.5420    5.7409    1.7483 H   0  0  0  0  0  0  0  0  0  0  0  0
    2.9609    7.7330    2.1661 H   0  0  0  0  0  0  0  0  0  0  0  0
    1.5158    8.7125    2.4376 H   0  0  0  0  0  0  0  0  0  0  0  0
    0.7209    8.1762    0.1218 H   0  0  0  0  0  0  0  0  0  0  0  0
    2.1592    7.1888   -0.1465 H   0  0  0  0  0  0  0  0  0  0  0  0
    3.6109    9.1843    0.2520 H   0  0  0  0  0  0  0  0  0  0  0  0
    2.1762   10.1753    0.5295 H   0  0  0  0  0  0  0  0  0  0  0  0
    1.3745    9.6593   -1.7882 H   0  0  0  0  0  0  0  0  0  0  0  0
    2.8142    8.6747   -2.0651 H   0  0  0  0  0  0  0  0  0  0  0  0
    4.2626   10.6731   -1.6379 H   0  0  0  0  0  0  0  0  0  0  0  0
    2.8237   11.6568   -1.3593 H   0  0  0  0  0  0  0  0  0  0  0  0
    2.0354   11.1648   -3.6848 H   0  0  0  0  0  0  0  0  0  0  0  0
    3.4740   10.1794   -3.9640 H   0  0  0  0  0  0  0  0  0  0  0  0
    4.9244   12.1752   -3.5222 H   0  0  0  0  0  0  0  0  0  0  0  0
    3.4853   13.1592   -3.2469 H   0  0  0  0  0  0  0  0  0  0  0  0
    2.7137   12.6849   -5.5852 H   0  0  0  0  0  0  0  0  0  0  0  0
    4.1539   11.7015   -5.8606 H   0  0  0  0  0  0  0  0  0  0  0  0
    4.1558   14.6861   -5.1634 H   0  0  0  0  0  0  0  0  0  0  0  0
    4.4572   13.9869   -6.7647 H   0  0  0  0  0  0  0  0  0  0  0  0
    5.6028   13.6980   -5.4424 H   0  0  0  0  0  0  0  0  0  0  0  0
    5.2383   -1.7856    9.7354 H   0  0  0  0  0  0  0  0  0  0  0  0
    3.5163   -2.2302    9.5735 H   0  0  0  0  0  0  0  0  0  0  0  0
    4.0298   -1.0760   10.8314 H   0  0  0  0  0  0  0  0  0  0  0  0
    1.6751    2.7343    8.9090 H   0  0  0  0  0  0  0  0  0  0  0  0
    3.3999    3.7877   10.0369 H   0  0  0  0  0  0  0  0  0  0  0  0
    3.3335    5.6847    8.3073 H   0  0  0  0  0  0  0  0  0  0  0  0
    5.5207    6.1468    7.5166 H   0  0  0  0  0  0  0  0  0  0  0  0
    6.1371    3.2790    8.3914 H   0  0  0  0  0  0  0  0  0  0  0  0
  1  2  1  0  0  0  0
  1 33  1  0  0  0  0
  1 34  1  0  0  0  0
  1 35  1  0  0  0  0
  2  3  1  0  0  0  0
  2 32  2  0  0  0  0
  3  4  2  0  0  0  0
  3 36  1  0  0  0  0
  4  5  1  0  0  0  0
  4 37  1  0  0  0  0
  5  6  1  0  0  0  0
  5 22  2  0  0  0  0
  6  7  1  0  0  0  0
  6 38  1  0  0  0  0
  7  8  1  0  0  0  0
  7 39  1  0  0  0  0
  7 40  1  0  0  0  0
  8  9  1  0  0  0  0
  8 41  1  0  0  0  0
  8 42  1  0  0  0  0
  9 10  1  0  0  0  0
  9 43  1  0  0  0  0
  9 44  1  0  0  0  0
 10 11  1  0  0  0  0
 10 45  1  0  0  0  0
 10 46  1  0  0  0  0
 11 12  1  0  0  0  0
 11 47  1  0  0  0  0
 11 48  1  0  0  0  0
 12 13  1  0  0  0  0
 12 49  1  0  0  0  0
 12 50  1  0  0  0  0
 13 14  1  0  0  0  0
 13 51  1  0  0  0  0
 13 52  1  0  0  0  0
 14 15  1  0  0  0  0
 14 53  1  0  0  0  0
 14 54  1  0  0  0  0
 15 16  1  0  0  0  0
 15 55  1  0  0  0  0
 15 56  1  0  0  0  0
 16 17  1  0  0  0  0
 16 57  1  0  0  0  0
 16 58  1  0  0  0  0
 17 18  1  0  0  0  0
 17 59  1  0  0  0  0
 17 60  1  0  0  0  0
 18 19  1  0  0  0  0
 18 61  1  0  0  0  0
 18 62  1  0  0  0  0
 19 20  1  0  0  0  0
 19 63  1  0  0  0  0
 19 64  1  0  0  0  0
 20 21  1  0  0  0  0
 20 65  1  0  0  0  0
 20 66  1  0  0  0  0
 21 67  1  0  0  0  0
 21 68  1  0  0  0  0
 21 69  1  0  0  0  0
 22 23  1  0  0  0  0
 22 27  1  0  0  0  0
 23 24  2  0  0  0  0
 24 25  1  0  0  0  0
 24 26  1  0  0  0  0
 25 70  1  0  0  0  0
 25 71  1  0  0  0  0
 25 72  1  0  0  0  0
 26 27  2  0  0  0  0
 27 28  1  0  0  0  0
 28 29  2  0  0  0  0
 28 73  1  0  0  0  0
 29 30  1  0  0  0  0
 29 74  1  0  0  0  0
 30 31  2  0  0  0  0
 30 75  1  0  0  0  0
 31 32  1  0  0  0  0
 31 76  1  0  0  0  0
 32 77  1  0  0  0  0
M  END
$$$$
