
 OpenBabel04232216543D

197196  0  0  0  0  0  0  0  0999 V2000
   27.3458  -27.3166  -20.8940 C   0  0  0  0  0  0  0  0  0  0  0  0
   26.9524  -27.7606  -19.5008 C   0  0  0  0  0  0  0  0  0  0  0  0
   27.2280  -26.6508  -18.4956 C   0  0  0  0  0  0  0  0  0  0  0  0
   26.8318  -27.0944  -17.0935 C   0  0  0  0  0  0  0  0  0  0  0  0
   27.1027  -26.0226  -16.1654 N   0  0  0  0  0  0  0  0  0  0  0  0
   26.7321  -26.4474  -14.8006 C   0  0  0  0  0  0  0  0  0  0  0  0
   26.9930  -25.3548  -13.9050 N   0  0  0  0  0  0  0  0  0  0  0  0
   26.5997  -25.7898  -12.5936 N   0  0  0  0  0  0  0  0  0  0  0  0
   26.8198  -24.7489  -11.6619 N   0  0  0  0  0  0  0  0  0  0  0  0
   26.4838  -25.1747  -10.3342 N   0  0  0  0  0  0  0  0  0  0  0  0
   27.2202  -26.3348   -9.9584 N   0  0  0  0  0  0  0  0  0  0  0  0
   28.6249  -26.0418   -9.9443 N   0  0  0  0  0  0  0  0  0  0  0  0
   28.9194  -24.9639   -9.0458 N   0  0  0  0  0  0  0  0  0  0  0  0
   28.5751  -25.3334   -7.6903 N   0  0  0  0  0  0  0  0  0  0  0  0
   29.2769  -26.5200   -7.3025 N   0  0  0  0  0  0  0  0  0  0  0  0
   30.6807  -26.2655   -7.3474 N   0  0  0  0  0  0  0  0  0  0  0  0
   30.9869  -25.1758   -6.4705 N   0  0  0  0  0  0  0  0  0  0  0  0
   30.5831  -25.5137   -5.1485 N   0  0  0  0  0  0  0  0  0  0  0  0
   31.2705  -26.6984   -4.7377 N   0  0  0  0  0  0  0  0  0  0  0  0
   32.6815  -26.4644   -4.8077 N   0  0  0  0  0  0  0  0  0  0  0  0
   33.0405  -25.3811   -3.9027 N   0  0  0  0  0  0  0  0  0  0  0  0
   32.6563  -25.6785   -2.5566 N   0  0  0  0  0  0  0  0  0  0  0  0
   33.3049  -26.8592   -2.1131 N   0  0  0  0  0  0  0  0  0  0  0  0
   34.7089  -26.6533   -2.1908 N   0  0  0  0  0  0  0  0  0  0  0  0
   35.0471  -25.5262   -1.3773 N   0  0  0  0  0  0  0  0  0  0  0  0
   34.6706  -25.8035   -0.0066 N   0  0  0  0  0  0  0  0  0  0  0  0
   35.3226  -26.9880    0.4977 N   0  0  0  0  0  0  0  0  0  0  0  0
   36.7388  -26.8394    0.4499 N   0  0  0  0  0  0  0  0  0  0  0  0
   37.0959  -25.7130    1.2347 N   0  0  0  0  0  0  0  0  0  0  0  0
   36.6606  -25.9447    2.5881 N   0  0  0  0  0  0  0  0  0  0  0  0
   37.2825  -27.1599    3.1427 N   0  0  0  0  0  0  0  0  0  0  0  0
   38.7181  -27.0553    3.1065 N   0  0  0  0  0  0  0  0  0  0  0  0
   39.1087  -25.9270    3.8774 N   0  0  0  0  0  0  0  0  0  0  0  0
   38.6573  -26.1215    5.2372 N   0  0  0  0  0  0  0  0  0  0  0  0
   39.2141  -27.3186    5.7872 N   0  0  0  0  0  0  0  0  0  0  0  0
   40.6235  -27.2479    5.7526 N   0  0  0  0  0  0  0  0  0  0  0  0
   41.0300  -26.1132    6.5247 N   0  0  0  0  0  0  0  0  0  0  0  0
   40.5686  -26.2693    7.8858 N   0  0  0  0  0  0  0  0  0  0  0  0
   41.0717  -27.4757    8.4522 N   0  0  0  0  0  0  0  0  0  0  0  0
   42.4992  -27.4286    8.4484 N   0  0  0  0  0  0  0  0  0  0  0  0
   42.9383  -26.2969    9.2150 N   0  0  0  0  0  0  0  0  0  0  0  0
   42.4275  -26.3976   10.5471 N   0  0  0  0  0  0  0  0  0  0  0  0
   42.9546  -27.6137   11.1374 N   0  0  0  0  0  0  0  0  0  0  0  0
   44.3966  -27.5870   11.1489 N   0  0  0  0  0  0  0  0  0  0  0  0
   44.8655  -26.4672   11.8959 N   0  0  0  0  0  0  0  0  0  0  0  0
   44.4116  -26.5568   13.2640 N   0  0  0  0  0  0  0  0  0  0  0  0
   44.8436  -27.7756   13.8409 N   0  0  0  0  0  0  0  0  0  0  0  0
   46.2739  -27.7842   13.8414 N   0  0  0  0  0  0  0  0  0  0  0  0
   46.7814  -26.6453   14.5533 N   0  0  0  0  0  0  0  0  0  0  0  0
   46.3129  -26.6907   15.8938 N   0  0  0  0  0  0  0  0  0  0  0  0
   46.7631  -27.9032   16.5039 N   0  0  0  0  0  0  0  0  0  0  0  0
   48.2072  -27.9746   16.5173 N   0  0  0  0  0  0  0  0  0  0  0  0
   48.7501  -26.8343   17.2164 N   0  0  0  0  0  0  0  0  0  0  0  0
   48.2431  -26.8862   18.5881 C   0  0  0  0  0  0  0  0  0  0  0  0
   48.7884  -25.7011   19.3537 C   0  0  0  0  0  0  0  0  0  0  0  0
   48.2922  -25.7387   20.7883 C   0  0  0  0  0  0  0  0  0  0  0  0
   48.8434  -24.5554   21.5594 C   0  0  0  0  0  0  0  0  0  0  0  0
   48.3517  -24.5934   22.9930 C   0  0  0  0  0  0  0  0  0  0  0  0
   48.9041  -23.4095   23.7620 C   0  0  0  0  0  0  0  0  0  0  0  0
   48.4137  -23.4493   25.1956 C   0  0  0  0  0  0  0  0  0  0  0  0
   48.9662  -22.2656   25.9642 C   0  0  0  0  0  0  0  0  0  0  0  0
   48.4758  -22.3054   27.3978 C   0  0  0  0  0  0  0  0  0  0  0  0
   49.0283  -21.1217   28.1662 C   0  0  0  0  0  0  0  0  0  0  0  0
   48.5379  -21.1616   29.5998 C   0  0  0  0  0  0  0  0  0  0  0  0
   49.0904  -19.9778   30.3682 C   0  0  0  0  0  0  0  0  0  0  0  0
   48.5999  -20.0177   31.8018 C   0  0  0  0  0  0  0  0  0  0  0  0
   49.1525  -18.8340   32.5702 C   0  0  0  0  0  0  0  0  0  0  0  0
   48.6620  -18.8739   34.0038 C   0  0  0  0  0  0  0  0  0  0  0  0
   49.2145  -17.6901   34.7722 C   0  0  0  0  0  0  0  0  0  0  0  0
   48.7225  -17.7289   36.2052 C   0  0  0  0  0  0  0  0  0  0  0  0
   49.2750  -16.5452   36.9737 C   0  0  0  0  0  0  0  0  0  0  0  0
   48.7830  -16.5840   38.4067 C   0  0  0  0  0  0  0  0  0  0  0  0
   49.3355  -15.4002   39.1752 C   0  0  0  0  0  0  0  0  0  0  0  0
   48.8434  -15.4390   40.6082 C   0  0  0  0  0  0  0  0  0  0  0  0
   49.3960  -14.2553   41.3766 C   0  0  0  0  0  0  0  0  0  0  0  0
   48.9055  -14.2953   42.8100 C   0  0  0  0  0  0  0  0  0  0  0  0
   49.4580  -13.1116   43.5786 C   0  0  0  0  0  0  0  0  0  0  0  0
   48.9674  -13.1515   45.0123 C   0  0  0  0  0  0  0  0  0  0  0  0
   49.5177  -11.9670   45.7817 C   0  0  0  0  0  0  0  0  0  0  0  0
   49.0299  -12.0051   47.2183 C   0  0  0  0  0  0  0  0  0  0  0  0
   49.5808  -10.8222   47.9824 C   0  0  0  0  0  0  0  0  0  0  0  0
   27.1479  -28.1135  -21.6155 H   0  0  0  0  0  0  0  0  0  0  0  0
   28.4119  -27.0709  -20.9286 H   0  0  0  0  0  0  0  0  0  0  0  0
   26.7744  -26.4302  -21.1869 H   0  0  0  0  0  0  0  0  0  0  0  0
   27.5208  -28.6576  -19.2306 H   0  0  0  0  0  0  0  0  0  0  0  0
   25.8874  -28.0185  -19.4883 H   0  0  0  0  0  0  0  0  0  0  0  0
   26.6622  -25.7551  -18.7827 H   0  0  0  0  0  0  0  0  0  0  0  0
   28.2952  -26.3952  -18.5224 H   0  0  0  0  0  0  0  0  0  0  0  0
   27.4070  -27.9873  -16.8285 H   0  0  0  0  0  0  0  0  0  0  0  0
   25.7669  -27.3482  -17.0888 H   0  0  0  0  0  0  0  0  0  0  0  0
   26.5623  -25.1913  -16.4015 H   0  0  0  0  0  0  0  0  0  0  0  0
   27.3053  -27.3382  -14.5230 H   0  0  0  0  0  0  0  0  0  0  0  0
   25.6600  -26.7007  -14.7811 H   0  0  0  0  0  0  0  0  0  0  0  0
   26.4352  -24.5461  -14.1922 H   0  0  0  0  0  0  0  0  0  0  0  0
   27.1691  -26.5924  -12.2832 H   0  0  0  0  0  0  0  0  0  0  0  0
   26.3220  -23.8929  -11.9025 H   0  0  0  0  0  0  0  0  0  0  0  0
   25.5044  -25.4124  -10.2630 H   0  0  0  0  0  0  0  0  0  0  0  0
   27.0176  -27.1209  -10.5822 H   0  0  0  0  0  0  0  0  0  0  0  0
   28.9515  -25.7499  -10.8618 H   0  0  0  0  0  0  0  0  0  0  0  0
   28.4180  -24.1161   -9.3415 H   0  0  0  0  0  0  0  0  0  0  0  0
   27.5731  -25.5379   -7.6654 H   0  0  0  0  0  0  0  0  0  0  0  0
   29.0126  -27.2879   -7.9466 H   0  0  0  0  0  0  0  0  0  0  0  0
   30.9563  -25.9915   -8.2858 H   0  0  0  0  0  0  0  0  0  0  0  0
   30.4600  -24.3555   -6.7481 H   0  0  0  0  0  0  0  0  0  0  0  0
   29.5877  -25.7035   -5.1268 H   0  0  0  0  0  0  0  0  0  0  0  0
   31.0265  -27.4580   -5.3784 H   0  0  0  0  0  0  0  0  0  0  0  0
   32.9478  -26.2230   -5.7717 H   0  0  0  0  0  0  0  0  0  0  0  0
   32.5438  -24.5312   -4.1861 H   0  0  0  0  0  0  0  0  0  0  0  0
   31.6480  -25.8184   -2.4977 H   0  0  0  0  0  0  0  0  0  0  0  0
   33.0446  -27.6348   -2.7180 H   0  0  0  0  0  0  0  0  0  0  0  0
   34.9677  -26.4068   -3.1382 H   0  0  0  0  0  0  0  0  0  0  0  0
   34.5406  -24.7002   -1.7353 H   0  0  0  0  0  0  0  0  0  0  0  0
   33.6534  -25.9363    0.0452 H   0  0  0  0  0  0  0  0  0  0  0  0
   35.0731  -27.7948   -0.0760 H   0  0  0  0  0  0  0  0  0  0  0  0
   37.0072  -26.6605   -0.5140 H   0  0  0  0  0  0  0  0  0  0  0  0
   36.6118  -24.8884    0.8656 H   0  0  0  0  0  0  0  0  0  0  0  0
   35.6530  -26.0929    2.5997 H   0  0  0  0  0  0  0  0  0  0  0  0
   36.9622  -27.9383    2.5371 H   0  0  0  0  0  0  0  0  0  0  0  0
   38.9953  -26.9294    2.1196 H   0  0  0  0  0  0  0  0  0  0  0  0
   38.6725  -25.0775    3.5300 H   0  0  0  0  0  0  0  0  0  0  0  0
   37.6402  -26.2367    5.2278 H   0  0  0  0  0  0  0  0  0  0  0  0
   38.9230  -28.0953    5.1975 H   0  0  0  0  0  0  0  0  0  0  0  0
   40.9267  -27.0951    4.7990 H   0  0  0  0  0  0  0  0  0  0  0  0
   40.6019  -25.2815    6.0937 H   0  0  0  0  0  0  0  0  0  0  0  0
   39.5493  -26.3414    7.8677 H   0  0  0  0  0  0  0  0  0  0  0  0
   40.7864  -28.2716    7.8941 H   0  0  0  0  0  0  0  0  0  0  0  0
   42.8093  -27.3184    7.4827 H   0  0  0  0  0  0  0  0  0  0  0  0
   42.5531  -25.4597    8.7569 H   0  0  0  0  0  0  0  0  0  0  0  0
   41.3967  -26.4373   10.5197 H   0  0  0  0  0  0  0  0  0  0  0  0
   42.6180  -28.4220   10.5802 H   0  0  0  0  0  0  0  0  0  0  0  0
   44.7639  -27.5200   10.1891 H   0  0  0  0  0  0  0  0  0  0  0  0
   44.5191  -25.5974   11.5080 H   0  0  0  0  0  0  0  0  0  0  0  0
   43.3941  -26.5728   13.2431 H   0  0  0  0  0  0  0  0  0  0  0  0
   44.5112  -28.5582   13.2827 H   0  0  0  0  0  0  0  0  0  0  0  0
   46.5710  -27.7016   12.8697 H   0  0  0  0  0  0  0  0  0  0  0  0
   46.4066  -25.8077   14.1140 H   0  0  0  0  0  0  0  0  0  0  0  0
   45.2928  -26.6915   15.8730 H   0  0  0  0  0  0  0  0  0  0  0  0
   46.3921  -28.6916   15.9726 H   0  0  0  0  0  0  0  0  0  0  0  0
   48.4932  -27.9194   15.5341 H   0  0  0  0  0  0  0  0  0  0  0  0
   48.3727  -26.0038   16.7510 H   0  0  0  0  0  0  0  0  0  0  0  0
   48.5639  -27.8195   19.0643 H   0  0  0  0  0  0  0  0  0  0  0  0
   47.1437  -26.8486   18.6255 H   0  0  0  0  0  0  0  0  0  0  0  0
   48.4654  -24.7664   18.8803 H   0  0  0  0  0  0  0  0  0  0  0  0
   49.8826  -25.7290   19.3428 H   0  0  0  0  0  0  0  0  0  0  0  0
   48.6112  -26.6719   21.2682 H   0  0  0  0  0  0  0  0  0  0  0  0
   47.1957  -25.7107   20.8055 H   0  0  0  0  0  0  0  0  0  0  0  0
   48.5225  -23.6211   21.0836 H   0  0  0  0  0  0  0  0  0  0  0  0
   49.9394  -24.5815   21.5442 H   0  0  0  0  0  0  0  0  0  0  0  0
   48.6728  -25.5268   23.4702 H   0  0  0  0  0  0  0  0  0  0  0  0
   47.2557  -24.5663   23.0097 H   0  0  0  0  0  0  0  0  0  0  0  0
   48.5817  -22.4759   23.2863 H   0  0  0  0  0  0  0  0  0  0  0  0
   50.0000  -23.4355   23.7449 H   0  0  0  0  0  0  0  0  0  0  0  0
   48.7361  -24.3829   25.6716 H   0  0  0  0  0  0  0  0  0  0  0  0
   47.3178  -23.4232   25.2131 H   0  0  0  0  0  0  0  0  0  0  0  0
   48.6438  -21.3320   25.4884 H   0  0  0  0  0  0  0  0  0  0  0  0
   50.0621  -22.2916   25.9469 H   0  0  0  0  0  0  0  0  0  0  0  0
   48.7982  -23.2390   27.8736 H   0  0  0  0  0  0  0  0  0  0  0  0
   47.3799  -22.2793   27.4151 H   0  0  0  0  0  0  0  0  0  0  0  0
   48.7059  -20.1881   27.6904 H   0  0  0  0  0  0  0  0  0  0  0  0
   50.1242  -21.1478   28.1489 H   0  0  0  0  0  0  0  0  0  0  0  0
   48.8602  -22.0952   30.0756 H   0  0  0  0  0  0  0  0  0  0  0  0
   47.4419  -21.1355   29.6171 H   0  0  0  0  0  0  0  0  0  0  0  0
   48.7680  -19.0442   29.8924 H   0  0  0  0  0  0  0  0  0  0  0  0
   50.1863  -20.0039   30.3509 H   0  0  0  0  0  0  0  0  0  0  0  0
   48.9223  -20.9513   32.2776 H   0  0  0  0  0  0  0  0  0  0  0  0
   47.5040  -19.9916   31.8191 H   0  0  0  0  0  0  0  0  0  0  0  0
   48.8301  -17.9004   32.0944 H   0  0  0  0  0  0  0  0  0  0  0  0
   50.2484  -18.8601   32.5529 H   0  0  0  0  0  0  0  0  0  0  0  0
   48.9844  -19.8074   34.4797 H   0  0  0  0  0  0  0  0  0  0  0  0
   47.5661  -18.8478   34.0211 H   0  0  0  0  0  0  0  0  0  0  0  0
   48.8933  -16.7565   34.2955 H   0  0  0  0  0  0  0  0  0  0  0  0
   50.3104  -17.7170   34.7561 H   0  0  0  0  0  0  0  0  0  0  0  0
   49.0437  -18.6625   36.6819 H   0  0  0  0  0  0  0  0  0  0  0  0
   47.6266  -17.7020   36.2214 H   0  0  0  0  0  0  0  0  0  0  0  0
   48.9538  -15.6116   36.4970 H   0  0  0  0  0  0  0  0  0  0  0  0
   50.3709  -16.5721   36.9576 H   0  0  0  0  0  0  0  0  0  0  0  0
   49.1042  -17.5175   38.8834 H   0  0  0  0  0  0  0  0  0  0  0  0
   47.6871  -16.5571   38.4228 H   0  0  0  0  0  0  0  0  0  0  0  0
   49.0143  -14.4666   38.6985 H   0  0  0  0  0  0  0  0  0  0  0  0
   50.4314  -15.4271   39.1591 H   0  0  0  0  0  0  0  0  0  0  0  0
   49.1646  -16.3726   41.0849 H   0  0  0  0  0  0  0  0  0  0  0  0
   47.7475  -15.4121   40.6243 H   0  0  0  0  0  0  0  0  0  0  0  0
   49.0736  -13.3217   40.9007 H   0  0  0  0  0  0  0  0  0  0  0  0
   50.4919  -14.2814   41.3593 H   0  0  0  0  0  0  0  0  0  0  0  0
   49.2279  -15.2288   43.2860 H   0  0  0  0  0  0  0  0  0  0  0  0
   47.8096  -14.2691   42.8275 H   0  0  0  0  0  0  0  0  0  0  0  0
   49.1356  -12.1779   43.1027 H   0  0  0  0  0  0  0  0  0  0  0  0
   50.5539  -13.1375   43.5613 H   0  0  0  0  0  0  0  0  0  0  0  0
   49.2911  -14.0847   45.4882 H   0  0  0  0  0  0  0  0  0  0  0  0
   47.8714  -13.1270   45.0293 H   0  0  0  0  0  0  0  0  0  0  0  0
   49.1935  -11.0343   45.3048 H   0  0  0  0  0  0  0  0  0  0  0  0
   50.6138  -11.9907   45.7616 H   0  0  0  0  0  0  0  0  0  0  0  0
   49.3557  -12.9358   47.6962 H   0  0  0  0  0  0  0  0  0  0  0  0
   47.9347  -11.9788   47.2391 H   0  0  0  0  0  0  0  0  0  0  0  0
   50.6752  -10.8445   47.9806 H   0  0  0  0  0  0  0  0  0  0  0  0
   49.2313  -10.8470   49.0170 H   0  0  0  0  0  0  0  0  0  0  0  0
   49.2508   -9.8853   47.5225 H   0  0  0  0  0  0  0  0  0  0  0  0
  1  2  1  0  0  0  0
  1 82  1  0  0  0  0
  1 83  1  0  0  0  0
  1 84  1  0  0  0  0
  2  3  1  0  0  0  0
  2 85  1  0  0  0  0
  2 86  1  0  0  0  0
  3  4  1  0  0  0  0
  3 87  1  0  0  0  0
  3 88  1  0  0  0  0
  4  5  1  0  0  0  0
  4 89  1  0  0  0  0
  4 90  1  0  0  0  0
  5  6  1  0  0  0  0
  5 91  1  0  0  0  0
  6  7  1  0  0  0  0
  6 92  1  0  0  0  0
  6 93  1  0  0  0  0
  7  8  1  0  0  0  0
  7 94  1  0  0  0  0
  8  9  1  0  0  0  0
  8 95  1  0  0  0  0
  9 10  1  0  0  0  0
  9 96  1  0  0  0  0
 10 11  1  0  0  0  0
 10 97  1  0  0  0  0
 11 12  1  0  0  0  0
 11 98  1  0  0  0  0
 12 13  1  0  0  0  0
 12 99  1  0  0  0  0
 13 14  1  0  0  0  0
 13100  1  0  0  0  0
 14 15  1  0  0  0  0
 14101  1  0  0  0  0
 15 16  1  0  0  0  0
 15102  1  0  0  0  0
 16 17  1  0  0  0  0
 16103  1  0  0  0  0
 17 18  1  0  0  0  0
 17104  1  0  0  0  0
 18 19  1  0  0  0  0
 18105  1  0  0  0  0
 19 20  1  0  0  0  0
 19106  1  0  0  0  0
 20 21  1  0  0  0  0
 20107  1  0  0  0  0
 21 22  1  0  0  0  0
 21108  1  0  0  0  0
 22 23  1  0  0  0  0
 22109  1  0  0  0  0
 23 24  1  0  0  0  0
 23110  1  0  0  0  0
 24 25  1  0  0  0  0
 24111  1  0  0  0  0
 25 26  1  0  0  0  0
 25112  1  0  0  0  0
 26 27  1  0  0  0  0
 26113  1  0  0  0  0
 27 28  1  0  0  0  0
 27114  1  0  0  0  0
 28 29  1  0  0  0  0
 28115  1  0  0  0  0
 29 30  1  0  0  0  0
 29116  1  0  0  0  0
 30 31  1  0  0  0  0
 30117  1  0  0  0  0
 31 32  1  0  0  0  0
 31118  1  0  0  0  0
 32 33  1  0  0  0  0
 32119  1  0  0  0  0
 33 34  1  0  0  0  0
 33120  1  0  0  0  0
 34 35  1  0  0  0  0
 34121  1  0  0  0  0
 35 36  1  0  0  0  0
 35122  1  0  0  0  0
 36 37  1  0  0  0  0
 36123  1  0  0  0  0
 37 38  1  0  0  0  0
 37124  1  0  0  0  0
 38 39  1  0  0  0  0
 38125  1  0  0  0  0
 39 40  1  0  0  0  0
 39126  1  0  0  0  0
 40 41  1  0  0  0  0
 40127  1  0  0  0  0
 41 42  1  0  0  0  0
 41128  1  0  0  0  0
 42 43  1  0  0  0  0
 42129  1  0  0  0  0
 43 44  1  0  0  0  0
 43130  1  0  0  0  0
 44 45  1  0  0  0  0
 44131  1  0  0  0  0
 45 46  1  0  0  0  0
 45132  1  0  0  0  0
 46 47  1  0  0  0  0
 46133  1  0  0  0  0
 47 48  1  0  0  0  0
 47134  1  0  0  0  0
 48 49  1  0  0  0  0
 48135  1  0  0  0  0
 49 50  1  0  0  0  0
 49136  1  0  0  0  0
 50 51  1  0  0  0  0
 50137  1  0  0  0  0
 51 52  1  0  0  0  0
 51138  1  0  0  0  0
 52 53  1  0  0  0  0
 52139  1  0  0  0  0
 53 54  1  0  0  0  0
 53140  1  0  0  0  0
 54 55  1  0  0  0  0
 54141  1  0  0  0  0
 54142  1  0  0  0  0
 55 56  1  0  0  0  0
 55143  1  0  0  0  0
 55144  1  0  0  0  0
 56 57  1  0  0  0  0
 56145  1  0  0  0  0
 56146  1  0  0  0  0
 57 58  1  0  0  0  0
 57147  1  0  0  0  0
 57148  1  0  0  0  0
 58 59  1  0  0  0  0
 58149  1  0  0  0  0
 58150  1  0  0  0  0
 59 60  1  0  0  0  0
 59151  1  0  0  0  0
 59152  1  0  0  0  0
 60 61  1  0  0  0  0
 60153  1  0  0  0  0
 60154  1  0  0  0  0
 61 62  1  0  0  0  0
 61155  1  0  0  0  0
 61156  1  0  0  0  0
 62 63  1  0  0  0  0
 62157  1  0  0  0  0
 62158  1  0  0  0  0
 63 64  1  0  0  0  0
 63159  1  0  0  0  0
 63160  1  0  0  0  0
 64 65  1  0  0  0  0
 64161  1  0  0  0  0
 64162  1  0  0  0  0
 65 66  1  0  0  0  0
 65163  1  0  0  0  0
 65164  1  0  0  0  0
 66 67  1  0  0  0  0
 66165  1  0  0  0  0
 66166  1  0  0  0  0
 67 68  1  0  0  0  0
 67167  1  0  0  0  0
 67168  1  0  0  0  0
 68 69  1  0  0  0  0
 68169  1  0  0  0  0
 68170  1  0  0  0  0
 69 70  1  0  0  0  0
 69171  1  0  0  0  0
 69172  1  0  0  0  0
 70 71  1  0  0  0  0
 70173  1  0  0  0  0
 70174  1  0  0  0  0
 71 72  1  0  0  0  0
 71175  1  0  0  0  0
 71176  1  0  0  0  0
 72 73  1  0  0  0  0
 72177  1  0  0  0  0
 72178  1  0  0  0  0
 73 74  1  0  0  0  0
 73179  1  0  0  0  0
 73180  1  0  0  0  0
 74 75  1  0  0  0  0
 74181  1  0  0  0  0
 74182  1  0  0  0  0
 75 76  1  0  0  0  0
 75183  1  0  0  0  0
 75184  1  0  0  0  0
 76 77  1  0  0  0  0
 76185  1  0  0  0  0
 76186  1  0  0  0  0
 77 78  1  0  0  0  0
 77187  1  0  0  0  0
 77188  1  0  0  0  0
 78 79  1  0  0  0  0
 78189  1  0  0  0  0
 78190  1  0  0  0  0
 79 80  1  0  0  0  0
 79191  1  0  0  0  0
 79192  1  0  0  0  0
 80 81  1  0  0  0  0
 80193  1  0  0  0  0
 80194  1  0  0  0  0
 81195  1  0  0  0  0
 81196  1  0  0  0  0
 81197  1  0  0  0  0
M  END
$$$$
