
 OpenBabel04232217023D

 85 84  0  0  0  0  0  0  0  0999 V2000
   10.1663   -2.8119    2.5801 O   0  0  0  0  0  0  0  0  0  0  0  0
    9.8454   -3.8786    3.5124 O   0  0  0  0  0  0  0  0  0  0  0  0
    8.2172   -3.9145    3.8477 S   0  0  0  0  0  0  0  0  0  0  0  0
    7.4549   -4.3167    1.9687 S   0  0  0  0  0  0  0  0  0  0  0  0
    8.0946   -5.9455    1.4986 C   0  0  0  0  0  0  0  0  0  0  0  0
    7.4647   -6.4787   -0.1628 S   0  0  0  0  0  0  0  0  0  0  0  0
    8.0862   -5.0536   -1.5240 S   0  0  0  0  0  0  0  0  0  0  0  0
   10.1552   -5.0492   -1.5298 S   0  0  0  0  0  0  0  0  0  0  0  0
   10.8385   -6.9089   -2.1507 S   0  0  0  0  0  0  0  0  0  0  0  0
   12.9394   -6.8875   -2.1236 S   0  0  0  0  0  0  0  0  0  0  0  0
   13.6290   -8.7920   -2.7043 S   0  0  0  0  0  0  0  0  0  0  0  0
   15.7374   -8.7792   -2.7010 S   0  0  0  0  0  0  0  0  0  0  0  0
   16.4281  -10.6859   -3.2819 S   0  0  0  0  0  0  0  0  0  0  0  0
   18.5374  -10.6732   -3.2780 S   0  0  0  0  0  0  0  0  0  0  0  0
   19.2281  -12.5798   -3.8590 S   0  0  0  0  0  0  0  0  0  0  0  0
   21.3374  -12.5671   -3.8551 S   0  0  0  0  0  0  0  0  0  0  0  0
   22.0280  -14.4737   -4.4361 S   0  0  0  0  0  0  0  0  0  0  0  0
   24.1374  -14.4611   -4.4323 S   0  0  0  0  0  0  0  0  0  0  0  0
   24.8280  -16.3677   -5.0132 S   0  0  0  0  0  0  0  0  0  0  0  0
   26.9374  -16.3550   -5.0094 S   0  0  0  0  0  0  0  0  0  0  0  0
   27.6280  -18.2616   -5.5903 S   0  0  0  0  0  0  0  0  0  0  0  0
   29.7374  -18.2489   -5.5865 S   0  0  0  0  0  0  0  0  0  0  0  0
   30.4280  -20.1555   -6.1674 S   0  0  0  0  0  0  0  0  0  0  0  0
   32.5374  -20.1428   -6.1636 S   0  0  0  0  0  0  0  0  0  0  0  0
   33.2280  -22.0494   -6.7445 S   0  0  0  0  0  0  0  0  0  0  0  0
   35.3374  -22.0368   -6.7407 S   0  0  0  0  0  0  0  0  0  0  0  0
   36.0280  -23.9434   -7.3216 S   0  0  0  0  0  0  0  0  0  0  0  0
   38.1374  -23.9307   -7.3178 S   0  0  0  0  0  0  0  0  0  0  0  0
   38.8280  -25.8373   -7.8987 S   0  0  0  0  0  0  0  0  0  0  0  0
   40.9374  -25.8246   -7.8949 S   0  0  0  0  0  0  0  0  0  0  0  0
   41.6280  -27.7312   -8.4759 S   0  0  0  0  0  0  0  0  0  0  0  0
   43.7374  -27.7185   -8.4720 S   0  0  0  0  0  0  0  0  0  0  0  0
   44.4280  -29.6251   -9.0530 S   0  0  0  0  0  0  0  0  0  0  0  0
   46.5374  -29.6125   -9.0491 S   0  0  0  0  0  0  0  0  0  0  0  0
   47.2280  -31.5191   -9.6301 S   0  0  0  0  0  0  0  0  0  0  0  0
   49.3373  -31.5064   -9.6262 S   0  0  0  0  0  0  0  0  0  0  0  0
   50.0280  -33.4130  -10.2072 S   0  0  0  0  0  0  0  0  0  0  0  0
   52.1373  -33.4003  -10.2033 S   0  0  0  0  0  0  0  0  0  0  0  0
   52.8280  -35.3069  -10.7843 S   0  0  0  0  0  0  0  0  0  0  0  0
   54.9373  -35.2943  -10.7804 S   0  0  0  0  0  0  0  0  0  0  0  0
   55.6280  -37.2009  -11.3614 S   0  0  0  0  0  0  0  0  0  0  0  0
   57.7373  -37.1882  -11.3575 S   0  0  0  0  0  0  0  0  0  0  0  0
   58.4280  -39.0948  -11.9385 S   0  0  0  0  0  0  0  0  0  0  0  0
   60.5373  -39.0821  -11.9346 S   0  0  0  0  0  0  0  0  0  0  0  0
   61.2279  -40.9887  -12.5156 S   0  0  0  0  0  0  0  0  0  0  0  0
   63.3373  -40.9760  -12.5117 S   0  0  0  0  0  0  0  0  0  0  0  0
   64.0279  -42.8826  -13.0927 S   0  0  0  0  0  0  0  0  0  0  0  0
   66.1373  -42.8700  -13.0888 S   0  0  0  0  0  0  0  0  0  0  0  0
   66.8279  -44.7766  -13.6698 S   0  0  0  0  0  0  0  0  0  0  0  0
   68.9373  -44.7639  -13.6659 S   0  0  0  0  0  0  0  0  0  0  0  0
   69.6279  -46.6705  -14.2469 S   0  0  0  0  0  0  0  0  0  0  0  0
   71.7373  -46.6578  -14.2430 S   0  0  0  0  0  0  0  0  0  0  0  0
   72.4279  -48.5644  -14.8240 S   0  0  0  0  0  0  0  0  0  0  0  0
   74.5373  -48.5517  -14.8202 S   0  0  0  0  0  0  0  0  0  0  0  0
   75.2279  -50.4583  -15.4011 S   0  0  0  0  0  0  0  0  0  0  0  0
   77.3373  -50.4457  -15.3973 S   0  0  0  0  0  0  0  0  0  0  0  0
   78.0279  -52.3523  -15.9782 S   0  0  0  0  0  0  0  0  0  0  0  0
   80.1373  -52.3396  -15.9744 S   0  0  0  0  0  0  0  0  0  0  0  0
   80.8279  -54.2462  -16.5553 S   0  0  0  0  0  0  0  0  0  0  0  0
   82.9373  -54.2335  -16.5515 S   0  0  0  0  0  0  0  0  0  0  0  0
   83.6279  -56.1401  -17.1324 S   0  0  0  0  0  0  0  0  0  0  0  0
   85.7372  -56.1275  -17.1286 S   0  0  0  0  0  0  0  0  0  0  0  0
   86.4279  -58.0341  -17.7095 S   0  0  0  0  0  0  0  0  0  0  0  0
   88.5372  -58.0214  -17.7057 S   0  0  0  0  0  0  0  0  0  0  0  0
   89.2279  -59.9280  -18.2866 S   0  0  0  0  0  0  0  0  0  0  0  0
   91.3372  -59.9153  -18.2828 S   0  0  0  0  0  0  0  0  0  0  0  0
   92.0279  -61.8219  -18.8637 S   0  0  0  0  0  0  0  0  0  0  0  0
   94.1372  -61.8092  -18.8599 S   0  0  0  0  0  0  0  0  0  0  0  0
   94.8279  -63.7158  -19.4409 S   0  0  0  0  0  0  0  0  0  0  0  0
   96.9372  -63.7032  -19.4370 S   0  0  0  0  0  0  0  0  0  0  0  0
   97.6278  -65.6098  -20.0180 S   0  0  0  0  0  0  0  0  0  0  0  0
   99.7372  -65.5971  -20.0141 S   0  0  0  0  0  0  0  0  0  0  0  0
  100.4278  -67.5037  -20.5951 S   0  0  0  0  0  0  0  0  0  0  0  0
  102.5372  -67.4910  -20.5912 S   0  0  0  0  0  0  0  0  0  0  0  0
  103.2278  -69.3975  -21.1723 S   0  0  0  0  0  0  0  0  0  0  0  0
  105.3362  -69.3849  -21.1678 S   0  0  0  0  0  0  0  0  0  0  0  0
  106.0253  -71.2899  -21.7487 S   0  0  0  0  0  0  0  0  0  0  0  0
  108.1254  -71.2599  -21.7592 S   0  0  0  0  0  0  0  0  0  0  0  0
  108.8194  -73.1584  -22.2706 S   0  0  0  0  0  0  0  0  0  0  0  0
  110.9054  -73.1054  -22.3018 S   0  0  0  0  0  0  0  0  0  0  0  0
  111.5241  -72.7277  -20.3746 S   0  0  0  0  0  0  0  0  0  0  0  0
   11.1649   -3.0044    2.5716 H   0  0  0  0  0  0  0  0  0  0  0  0
    7.7983   -6.7173    2.2135 H   0  0  0  0  0  0  0  0  0  0  0  0
    9.1823   -5.9393    1.4379 H   0  0  0  0  0  0  0  0  0  0  0  0
  112.8729  -72.7160  -20.4541 H   0  0  0  0  0  0  0  0  0  0  0  0
  1  2  1  0  0  0  0
  1 82  1  0  0  0  0
  2  3  1  0  0  0  0
  3  4  1  0  0  0  0
  4  5  1  0  0  0  0
  5  6  1  0  0  0  0
  5 83  1  0  0  0  0
  5 84  1  0  0  0  0
  6  7  1  0  0  0  0
  7  8  1  0  0  0  0
  8  9  1  0  0  0  0
  9 10  1  0  0  0  0
 10 11  1  0  0  0  0
 11 12  1  0  0  0  0
 12 13  1  0  0  0  0
 13 14  1  0  0  0  0
 14 15  1  0  0  0  0
 15 16  1  0  0  0  0
 16 17  1  0  0  0  0
 17 18  1  0  0  0  0
 18 19  1  0  0  0  0
 19 20  1  0  0  0  0
 20 21  1  0  0  0  0
 21 22  1  0  0  0  0
 22 23  1  0  0  0  0
 23 24  1  0  0  0  0
 24 25  1  0  0  0  0
 25 26  1  0  0  0  0
 26 27  1  0  0  0  0
 27 28  1  0  0  0  0
 28 29  1  0  0  0  0
 29 30  1  0  0  0  0
 30 31  1  0  0  0  0
 31 32  1  0  0  0  0
 32 33  1  0  0  0  0
 33 34  1  0  0  0  0
 34 35  1  0  0  0  0
 35 36  1  0  0  0  0
 36 37  1  0  0  0  0
 37 38  1  0  0  0  0
 38 39  1  0  0  0  0
 39 40  1  0  0  0  0
 40 41  1  0  0  0  0
 41 42  1  0  0  0  0
 42 43  1  0  0  0  0
 43 44  1  0  0  0  0
 44 45  1  0  0  0  0
 45 46  1  0  0  0  0
 46 47  1  0  0  0  0
 47 48  1  0  0  0  0
 48 49  1  0  0  0  0
 49 50  1  0  0  0  0
 50 51  1  0  0  0  0
 51 52  1  0  0  0  0
 52 53  1  0  0  0  0
 53 54  1  0  0  0  0
 54 55  1  0  0  0  0
 55 56  1  0  0  0  0
 56 57  1  0  0  0  0
 57 58  1  0  0  0  0
 58 59  1  0  0  0  0
 59 60  1  0  0  0  0
 60 61  1  0  0  0  0
 61 62  1  0  0  0  0
 62 63  1  0  0  0  0
 63 64  1  0  0  0  0
 64 65  1  0  0  0  0
 65 66  1  0  0  0  0
 66 67  1  0  0  0  0
 67 68  1  0  0  0  0
 68 69  1  0  0  0  0
 69 70  1  0  0  0  0
 70 71  1  0  0  0  0
 71 72  1  0  0  0  0
 72 73  1  0  0  0  0
 73 74  1  0  0  0  0
 74 75  1  0  0  0  0
 75 76  1  0  0  0  0
 76 77  1  0  0  0  0
 77 78  1  0  0  0  0
 78 79  1  0  0  0  0
 79 80  1  0  0  0  0
 80 81  1  0  0  0  0
 81 85  1  0  0  0  0
M  END
$$$$
