
 OpenBabel04232216593D

230230  0  0  1  0  0  0  0  0999 V2000
    1.9840    0.0311   -0.0432 O   0  0  0  0  0  0  0  0  0  0  0  0
    0.7679    0.0670    0.0238 C   0  0  0  0  0  0  0  0  0  0  0  0
    0.0091    1.3539    0.0240 C   0  0  0  0  0  0  0  0  0  0  0  0
   -1.4388    0.9276    0.1793 C   0  0  0  0  0  0  0  0  0  0  0  0
   -1.5324   -0.5755   -0.0368 C   0  0  0  0  0  0  0  0  0  0  0  0
   -0.1282   -1.1550    0.0982 C   0  0  3  0  0  0  0  0  0  0  0  0
    0.0273   -1.9128    1.4076 C   0  0  0  0  0  0  0  0  0  0  0  0
    1.4248   -2.4934    1.5339 C   0  0  0  0  0  0  0  0  0  0  0  0
    1.5703   -3.2471    2.8374 C   0  0  0  0  0  0  0  0  0  0  0  0
    2.9762   -3.8086    2.9350 C   0  0  0  0  0  0  0  0  0  0  0  0
    3.1317   -4.5642    4.2383 C   0  0  0  0  0  0  0  0  0  0  0  0
    4.5345   -5.1287    4.3406 C   0  0  0  0  0  0  0  0  0  0  0  0
    4.6881   -5.8828    5.6468 C   0  0  0  0  0  0  0  0  0  0  0  0
    6.0909   -6.4486    5.7514 C   0  0  0  0  0  0  0  0  0  0  0  0
    6.2448   -7.2031    7.0578 C   0  0  0  0  0  0  0  0  0  0  0  0
    7.6478   -7.7691    7.1625 C   0  0  0  0  0  0  0  0  0  0  0  0
    7.8018   -8.5235    8.4688 C   0  0  0  0  0  0  0  0  0  0  0  0
    9.2048   -9.0896    8.5737 C   0  0  0  0  0  0  0  0  0  0  0  0
    9.3586   -9.8458    9.8792 C   0  0  0  0  0  0  0  0  0  0  0  0
   10.7621  -10.4104    9.9853 C   0  0  0  0  0  0  0  0  0  0  0  0
   10.9166  -11.1649   11.2914 C   0  0  0  0  0  0  0  0  0  0  0  0
   12.3193  -11.7310   11.3966 C   0  0  0  0  0  0  0  0  0  0  0  0
   12.4744  -12.4838   12.7036 C   0  0  0  0  0  0  0  0  0  0  0  0
   13.8777  -13.0483   12.8097 C   0  0  0  0  0  0  0  0  0  0  0  0
   14.0322  -13.8028   14.1159 C   0  0  0  0  0  0  0  0  0  0  0  0
   15.4350  -14.3689   14.2210 C   0  0  0  0  0  0  0  0  0  0  0  0
   15.5895  -15.1235   15.5272 C   0  0  0  0  0  0  0  0  0  0  0  0
   16.9922  -15.6896   15.6324 C   0  0  0  0  0  0  0  0  0  0  0  0
   17.1467  -16.4441   16.9385 C   0  0  0  0  0  0  0  0  0  0  0  0
   18.5495  -17.0103   17.0437 C   0  0  0  0  0  0  0  0  0  0  0  0
   18.7046  -17.7631   18.3508 C   0  0  0  0  0  0  0  0  0  0  0  0
   20.1073  -18.3293   18.4559 C   0  0  0  0  0  0  0  0  0  0  0  0
   20.2631  -19.0804   19.7639 C   0  0  0  0  0  0  0  0  0  0  0  0
   21.6664  -19.6449   19.8700 C   0  0  0  0  0  0  0  0  0  0  0  0
   21.8222  -20.3960   21.1780 C   0  0  0  0  0  0  0  0  0  0  0  0
   23.2255  -20.9604   21.2840 C   0  0  0  0  0  0  0  0  0  0  0  0
   23.3813  -21.7116   22.5920 C   0  0  0  0  0  0  0  0  0  0  0  0
   24.7846  -22.2761   22.6980 C   0  0  0  0  0  0  0  0  0  0  0  0
   24.9403  -23.0272   24.0060 C   0  0  0  0  0  0  0  0  0  0  0  0
   26.3437  -23.5916   24.1121 C   0  0  0  0  0  0  0  0  0  0  0  0
   26.5000  -24.3411   25.4210 C   0  0  0  0  0  0  0  0  0  0  0  0
   27.9040  -24.9038   25.5279 C   0  0  0  0  0  0  0  0  0  0  0  0
   28.0598  -25.6550   26.8359 C   0  0  0  0  0  0  0  0  0  0  0  0
   29.4637  -26.2177   26.9429 C   0  0  0  0  0  0  0  0  0  0  0  0
   29.6189  -26.9705   28.2499 C   0  0  0  0  0  0  0  0  0  0  0  0
   31.0234  -27.5317   28.3578 C   0  0  0  0  0  0  0  0  0  0  0  0
   31.1779  -28.2862   29.6640 C   0  0  0  0  0  0  0  0  0  0  0  0
   32.5819  -28.8489   29.7709 C   0  0  0  0  0  0  0  0  0  0  0  0
   32.7370  -29.6018   31.0780 C   0  0  0  0  0  0  0  0  0  0  0  0
   34.1416  -30.1628   31.1858 C   0  0  0  0  0  0  0  0  0  0  0  0
   34.2968  -30.9157   32.4929 C   0  0  0  0  0  0  0  0  0  0  0  0
   35.7013  -31.4767   32.6008 C   0  0  0  0  0  0  0  0  0  0  0  0
   35.8559  -32.2312   33.9070 C   0  0  0  0  0  0  0  0  0  0  0  0
   37.2604  -32.7923   34.0148 C   0  0  0  0  0  0  0  0  0  0  0  0
   37.4156  -33.5452   35.3219 C   0  0  0  0  0  0  0  0  0  0  0  0
   38.8195  -34.1079   35.4288 C   0  0  0  0  0  0  0  0  0  0  0  0
   38.9741  -34.8624   36.7350 C   0  0  0  0  0  0  0  0  0  0  0  0
   40.3786  -35.4235   36.8429 C   0  0  0  0  0  0  0  0  0  0  0  0
   40.5332  -36.1780   38.1490 C   0  0  0  0  0  0  0  0  0  0  0  0
   41.9377  -36.7391   38.2569 C   0  0  0  0  0  0  0  0  0  0  0  0
   42.0923  -37.4936   39.5631 C   0  0  0  0  0  0  0  0  0  0  0  0
   43.4968  -38.0547   39.6709 C   0  0  0  0  0  0  0  0  0  0  0  0
   43.6514  -38.8092   40.9771 C   0  0  0  0  0  0  0  0  0  0  0  0
   45.0559  -39.3703   41.0849 C   0  0  0  0  0  0  0  0  0  0  0  0
   45.2105  -40.1248   42.3911 C   0  0  0  0  0  0  0  0  0  0  0  0
   46.6151  -40.6859   42.4990 C   0  0  0  0  0  0  0  0  0  0  0  0
   46.7702  -41.4388   43.8061 C   0  0  0  0  0  0  0  0  0  0  0  0
   48.1753  -41.9980   43.9147 C   0  0  0  0  0  0  0  0  0  0  0  0
   48.3297  -42.7526   45.2211 C   0  0  0  0  0  0  0  0  0  0  0  0
   49.7347  -43.3135   45.3285 C   0  0  0  0  0  0  0  0  0  0  0  0
   49.8898  -44.0668   46.6363 C   0  0  0  0  0  0  0  0  0  0  0  0
   51.2950  -44.6280   46.7441 C   0  0  0  0  0  0  0  0  0  0  0  0
   51.4509  -45.3796   48.0527 C   0  0  0  0  0  0  0  0  0  0  0  0
   52.8554  -45.9432   48.1610 C   0  0  0  0  0  0  0  0  0  0  0  0
   53.0120  -46.6957   49.4710 C   0  0  0  0  0  0  0  0  0  0  0  0
   54.4175  -47.2609   49.5815 C   0  0  0  0  0  0  0  0  0  0  0  0
   54.5835  -48.0148   50.8921 C   0  0  0  0  0  0  0  0  0  0  0  0
   55.9863  -48.5773   50.9995 C   0  0  0  0  0  0  0  0  0  0  0  0
    0.1827    1.8689   -0.9217 H   0  0  0  0  0  0  0  0  0  0  0  0
    0.3260    1.9782    0.8646 H   0  0  0  0  0  0  0  0  0  0  0  0
   -2.0689    1.4560   -0.5426 H   0  0  0  0  0  0  0  0  0  0  0  0
   -1.7967    1.1842    1.1818 H   0  0  0  0  0  0  0  0  0  0  0  0
   -1.9312   -0.7922   -1.0335 H   0  0  0  0  0  0  0  0  0  0  0  0
   -2.2345   -1.0137    0.6827 H   0  0  0  0  0  0  0  0  0  0  0  0
    0.0889   -1.8085   -0.7544 H   0  0  0  0  0  0  0  0  0  0  0  0
   -0.7040   -2.7327    1.4418 H   0  0  0  0  0  0  0  0  0  0  0  0
   -0.1852   -1.2595    2.2627 H   0  0  0  0  0  0  0  0  0  0  0  0
    2.1752   -1.6983    1.5191 H   0  0  0  0  0  0  0  0  0  0  0  0
    1.6335   -3.1554    0.6849 H   0  0  0  0  0  0  0  0  0  0  0  0
    0.8334   -4.0560    2.8890 H   0  0  0  0  0  0  0  0  0  0  0  0
    1.3793   -2.5711    3.6802 H   0  0  0  0  0  0  0  0  0  0  0  0
    3.7115   -2.9954    2.8832 H   0  0  0  0  0  0  0  0  0  0  0  0
    3.1727   -4.4759    2.0866 H   0  0  0  0  0  0  0  0  0  0  0  0
    2.3958   -5.3761    4.2877 H   0  0  0  0  0  0  0  0  0  0  0  0
    2.9344   -3.8938    5.0838 H   0  0  0  0  0  0  0  0  0  0  0  0
    5.2699   -4.3163    4.2881 H   0  0  0  0  0  0  0  0  0  0  0  0
    4.7305   -5.7996    3.4951 H   0  0  0  0  0  0  0  0  0  0  0  0
    3.9520   -6.6946    5.6987 H   0  0  0  0  0  0  0  0  0  0  0  0
    4.4912   -5.2114    6.4917 H   0  0  0  0  0  0  0  0  0  0  0  0
    6.8265   -5.6365    5.6991 H   0  0  0  0  0  0  0  0  0  0  0  0
    6.2873   -7.1198    4.9061 H   0  0  0  0  0  0  0  0  0  0  0  0
    5.5087   -8.0149    7.1097 H   0  0  0  0  0  0  0  0  0  0  0  0
    6.0480   -6.5316    7.9028 H   0  0  0  0  0  0  0  0  0  0  0  0
    8.3835   -6.9570    7.1103 H   0  0  0  0  0  0  0  0  0  0  0  0
    7.8443   -8.4402    6.3173 H   0  0  0  0  0  0  0  0  0  0  0  0
    7.0661   -9.3356    8.5211 H   0  0  0  0  0  0  0  0  0  0  0  0
    7.6053   -7.8524    9.3141 H   0  0  0  0  0  0  0  0  0  0  0  0
    9.9408   -8.2776    8.5231 H   0  0  0  0  0  0  0  0  0  0  0  0
    9.4023   -9.7598    7.7279 H   0  0  0  0  0  0  0  0  0  0  0  0
    8.6237  -10.6589    9.9294 H   0  0  0  0  0  0  0  0  0  0  0  0
    9.1599   -9.1762   10.7252 H   0  0  0  0  0  0  0  0  0  0  0  0
   11.4971   -9.5975    9.9336 H   0  0  0  0  0  0  0  0  0  0  0  0
   10.9603  -11.0811    9.1399 H   0  0  0  0  0  0  0  0  0  0  0  0
   10.1805  -11.9769   11.3437 H   0  0  0  0  0  0  0  0  0  0  0  0
   10.7196  -10.4936   12.1366 H   0  0  0  0  0  0  0  0  0  0  0  0
   13.0553  -10.9191   11.3428 H   0  0  0  0  0  0  0  0  0  0  0  0
   12.5156  -12.4033   10.5520 H   0  0  0  0  0  0  0  0  0  0  0  0
   11.7392  -13.2965   12.7567 H   0  0  0  0  0  0  0  0  0  0  0  0
   12.2766  -11.8119   13.5481 H   0  0  0  0  0  0  0  0  0  0  0  0
   14.6128  -12.2354   12.7580 H   0  0  0  0  0  0  0  0  0  0  0  0
   14.0760  -13.7191   11.9644 H   0  0  0  0  0  0  0  0  0  0  0  0
   13.2962  -14.6148   14.1682 H   0  0  0  0  0  0  0  0  0  0  0  0
   13.8353  -13.1316   14.9611 H   0  0  0  0  0  0  0  0  0  0  0  0
   16.1710  -13.5570   14.1687 H   0  0  0  0  0  0  0  0  0  0  0  0
   15.6319  -15.0401   13.3758 H   0  0  0  0  0  0  0  0  0  0  0  0
   14.8535  -15.9354   15.5795 H   0  0  0  0  0  0  0  0  0  0  0  0
   15.3926  -14.4523   16.3725 H   0  0  0  0  0  0  0  0  0  0  0  0
   17.7282  -14.8776   15.5801 H   0  0  0  0  0  0  0  0  0  0  0  0
   17.1891  -16.3608   14.7871 H   0  0  0  0  0  0  0  0  0  0  0  0
   16.4107  -17.2561   16.9909 H   0  0  0  0  0  0  0  0  0  0  0  0
   16.9499  -15.7729   17.7838 H   0  0  0  0  0  0  0  0  0  0  0  0
   19.2855  -16.1985   16.9900 H   0  0  0  0  0  0  0  0  0  0  0  0
   18.7458  -17.6826   16.1992 H   0  0  0  0  0  0  0  0  0  0  0  0
   17.9685  -18.5750   18.4046 H   0  0  0  0  0  0  0  0  0  0  0  0
   18.5082  -17.0908   19.1953 H   0  0  0  0  0  0  0  0  0  0  0  0
   20.8434  -17.5176   18.4008 H   0  0  0  0  0  0  0  0  0  0  0  0
   20.3032  -19.0027   17.6122 H   0  0  0  0  0  0  0  0  0  0  0  0
   19.5279  -19.8930   19.8185 H   0  0  0  0  0  0  0  0  0  0  0  0
   20.0658  -18.4073   20.6076 H   0  0  0  0  0  0  0  0  0  0  0  0
   22.4016  -18.8323   19.8154 H   0  0  0  0  0  0  0  0  0  0  0  0
   21.8637  -20.3179   19.0263 H   0  0  0  0  0  0  0  0  0  0  0  0
   21.0870  -21.2086   21.2325 H   0  0  0  0  0  0  0  0  0  0  0  0
   21.6249  -19.7229   22.0217 H   0  0  0  0  0  0  0  0  0  0  0  0
   23.9607  -20.1478   21.2294 H   0  0  0  0  0  0  0  0  0  0  0  0
   23.4228  -21.6335   20.4403 H   0  0  0  0  0  0  0  0  0  0  0  0
   22.6461  -22.5242   22.6466 H   0  0  0  0  0  0  0  0  0  0  0  0
   23.1840  -21.0385   23.4357 H   0  0  0  0  0  0  0  0  0  0  0  0
   25.5198  -21.4634   22.6435 H   0  0  0  0  0  0  0  0  0  0  0  0
   24.9819  -22.9491   21.8543 H   0  0  0  0  0  0  0  0  0  0  0  0
   24.2052  -23.8398   24.0606 H   0  0  0  0  0  0  0  0  0  0  0  0
   24.7431  -22.3541   24.8497 H   0  0  0  0  0  0  0  0  0  0  0  0
   27.0789  -22.7792   24.0561 H   0  0  0  0  0  0  0  0  0  0  0  0
   26.5405  -24.2658   23.2692 H   0  0  0  0  0  0  0  0  0  0  0  0
   25.7657  -25.1544   25.4763 H   0  0  0  0  0  0  0  0  0  0  0  0
   26.3019  -23.6673   26.2639 H   0  0  0  0  0  0  0  0  0  0  0  0
   28.6382  -24.0903   25.4740 H   0  0  0  0  0  0  0  0  0  0  0  0
   28.1027  -25.5765   24.6843 H   0  0  0  0  0  0  0  0  0  0  0  0
   27.3255  -26.4685   26.8898 H   0  0  0  0  0  0  0  0  0  0  0  0
   27.8611  -24.9823   27.6796 H   0  0  0  0  0  0  0  0  0  0  0  0
   30.1979  -25.4041   26.8903 H   0  0  0  0  0  0  0  0  0  0  0  0
   29.6629  -26.8893   26.0984 H   0  0  0  0  0  0  0  0  0  0  0  0
   28.8856  -27.7851   28.3017 H   0  0  0  0  0  0  0  0  0  0  0  0
   29.4183  -26.2994   29.0944 H   0  0  0  0  0  0  0  0  0  0  0  0
   31.7566  -26.7170   28.3074 H   0  0  0  0  0  0  0  0  0  0  0  0
   31.2245  -28.2017   27.5126 H   0  0  0  0  0  0  0  0  0  0  0  0
   30.4439  -29.1000   29.7150 H   0  0  0  0  0  0  0  0  0  0  0  0
   30.9782  -27.6157   30.5091 H   0  0  0  0  0  0  0  0  0  0  0  0
   33.3161  -28.0352   29.7184 H   0  0  0  0  0  0  0  0  0  0  0  0
   32.7811  -29.5205   28.9265 H   0  0  0  0  0  0  0  0  0  0  0  0
   32.0038  -30.4163   31.1298 H   0  0  0  0  0  0  0  0  0  0  0  0
   32.5365  -28.9306   31.9224 H   0  0  0  0  0  0  0  0  0  0  0  0
   34.8748  -29.3483   31.1340 H   0  0  0  0  0  0  0  0  0  0  0  0
   34.3422  -30.8340   30.3414 H   0  0  0  0  0  0  0  0  0  0  0  0
   33.5635  -31.7302   32.5447 H   0  0  0  0  0  0  0  0  0  0  0  0
   34.0962  -30.2445   33.3373 H   0  0  0  0  0  0  0  0  0  0  0  0
   36.4345  -30.6620   32.5504 H   0  0  0  0  0  0  0  0  0  0  0  0
   35.9024  -32.1468   31.7556 H   0  0  0  0  0  0  0  0  0  0  0  0
   35.1227  -33.0459   33.9574 H   0  0  0  0  0  0  0  0  0  0  0  0
   35.6547  -31.5611   34.7521 H   0  0  0  0  0  0  0  0  0  0  0  0
   37.9937  -31.9778   33.9630 H   0  0  0  0  0  0  0  0  0  0  0  0
   37.4610  -33.4635   33.1704 H   0  0  0  0  0  0  0  0  0  0  0  0
   36.6814  -34.3588   35.3743 H   0  0  0  0  0  0  0  0  0  0  0  0
   37.2164  -32.8736   36.1663 H   0  0  0  0  0  0  0  0  0  0  0  0
   39.5536  -33.2941   35.3778 H   0  0  0  0  0  0  0  0  0  0  0  0
   39.0193  -34.7784   34.5837 H   0  0  0  0  0  0  0  0  0  0  0  0
   38.2409  -35.6771   36.7854 H   0  0  0  0  0  0  0  0  0  0  0  0
   38.7730  -34.1923   37.5802 H   0  0  0  0  0  0  0  0  0  0  0  0
   41.1118  -34.6088   36.7925 H   0  0  0  0  0  0  0  0  0  0  0  0
   40.5797  -36.0936   35.9977 H   0  0  0  0  0  0  0  0  0  0  0  0
   39.8000  -36.9927   38.1994 H   0  0  0  0  0  0  0  0  0  0  0  0
   40.3321  -35.5079   38.9942 H   0  0  0  0  0  0  0  0  0  0  0  0
   42.6709  -35.9244   38.2065 H   0  0  0  0  0  0  0  0  0  0  0  0
   42.1388  -37.4092   37.4117 H   0  0  0  0  0  0  0  0  0  0  0  0
   41.3591  -38.3083   39.6135 H   0  0  0  0  0  0  0  0  0  0  0  0
   41.8912  -36.8235   40.4082 H   0  0  0  0  0  0  0  0  0  0  0  0
   44.2300  -37.2400   39.6205 H   0  0  0  0  0  0  0  0  0  0  0  0
   43.6979  -38.7247   38.8258 H   0  0  0  0  0  0  0  0  0  0  0  0
   42.9182  -39.6239   41.0275 H   0  0  0  0  0  0  0  0  0  0  0  0
   43.4503  -38.1391   41.8223 H   0  0  0  0  0  0  0  0  0  0  0  0
   45.7891  -38.5556   41.0346 H   0  0  0  0  0  0  0  0  0  0  0  0
   45.2570  -40.0403   40.2398 H   0  0  0  0  0  0  0  0  0  0  0  0
   44.4773  -40.9395   42.4415 H   0  0  0  0  0  0  0  0  0  0  0  0
   45.0093  -39.4547   43.2363 H   0  0  0  0  0  0  0  0  0  0  0  0
   47.3482  -39.8713   42.4472 H   0  0  0  0  0  0  0  0  0  0  0  0
   46.8156  -41.3570   41.6546 H   0  0  0  0  0  0  0  0  0  0  0  0
   46.0379  -42.2541   43.8572 H   0  0  0  0  0  0  0  0  0  0  0  0
   46.5682  -40.7679   44.6505 H   0  0  0  0  0  0  0  0  0  0  0  0
   48.9076  -41.1825   43.8651 H   0  0  0  0  0  0  0  0  0  0  0  0
   48.3779  -42.6678   43.0698 H   0  0  0  0  0  0  0  0  0  0  0  0
   47.5968  -43.5674   45.2715 H   0  0  0  0  0  0  0  0  0  0  0  0
   48.1288  -42.0825   46.0662 H   0  0  0  0  0  0  0  0  0  0  0  0
   50.4678  -42.4992   45.2771 H   0  0  0  0  0  0  0  0  0  0  0  0
   49.9352  -43.9849   44.4845 H   0  0  0  0  0  0  0  0  0  0  0  0
   49.1566  -44.8811   46.6878 H   0  0  0  0  0  0  0  0  0  0  0  0
   49.6892  -43.3954   47.4804 H   0  0  0  0  0  0  0  0  0  0  0  0
   52.0277  -43.8132   46.6907 H   0  0  0  0  0  0  0  0  0  0  0  0
   51.4944  -45.3001   45.9002 H   0  0  0  0  0  0  0  0  0  0  0  0
   50.7163  -46.1925   48.1059 H   0  0  0  0  0  0  0  0  0  0  0  0
   51.2518  -44.7063   48.8955 H   0  0  0  0  0  0  0  0  0  0  0  0
   53.5891  -45.1294   48.1066 H   0  0  0  0  0  0  0  0  0  0  0  0
   53.0536  -46.6155   47.3169 H   0  0  0  0  0  0  0  0  0  0  0  0
   52.2770  -47.5081   49.5232 H   0  0  0  0  0  0  0  0  0  0  0  0
   52.8126  -46.0217   50.3129 H   0  0  0  0  0  0  0  0  0  0  0  0
   55.1498  -46.4458   49.5234 H   0  0  0  0  0  0  0  0  0  0  0  0
   54.6138  -47.9324   48.7361 H   0  0  0  0  0  0  0  0  0  0  0  0
   53.8530  -48.8303   50.9489 H   0  0  0  0  0  0  0  0  0  0  0  0
   54.3892  -47.3430   51.7365 H   0  0  0  0  0  0  0  0  0  0  0  0
   56.1894  -49.2668   50.1737 H   0  0  0  0  0  0  0  0  0  0  0  0
   56.1062  -49.1191   51.9409 H   0  0  0  0  0  0  0  0  0  0  0  0
   56.7280  -47.7728   50.9648 H   0  0  0  0  0  0  0  0  0  0  0  0
  1  2  2  0  0  0  0
  2  3  1  0  0  0  0
  2  6  1  0  0  0  0
  3  4  1  0  0  0  0
  3 79  1  0  0  0  0
  3 80  1  0  0  0  0
  4  5  1  0  0  0  0
  4 81  1  0  0  0  0
  4 82  1  0  0  0  0
  5  6  1  0  0  0  0
  5 83  1  0  0  0  0
  5 84  1  0  0  0  0
  6  7  1  0  0  0  0
  6 85  1  0  0  0  0
  7  8  1  0  0  0  0
  7 86  1  0  0  0  0
  7 87  1  0  0  0  0
  8  9  1  0  0  0  0
  8 88  1  0  0  0  0
  8 89  1  0  0  0  0
  9 10  1  0  0  0  0
  9 90  1  0  0  0  0
  9 91  1  0  0  0  0
 10 11  1  0  0  0  0
 10 92  1  0  0  0  0
 10 93  1  0  0  0  0
 11 12  1  0  0  0  0
 11 94  1  0  0  0  0
 11 95  1  0  0  0  0
 12 13  1  0  0  0  0
 12 96  1  0  0  0  0
 12 97  1  0  0  0  0
 13 14  1  0  0  0  0
 13 98  1  0  0  0  0
 13 99  1  0  0  0  0
 14 15  1  0  0  0  0
 14100  1  0  0  0  0
 14101  1  0  0  0  0
 15 16  1  0  0  0  0
 15102  1  0  0  0  0
 15103  1  0  0  0  0
 16 17  1  0  0  0  0
 16104  1  0  0  0  0
 16105  1  0  0  0  0
 17 18  1  0  0  0  0
 17106  1  0  0  0  0
 17107  1  0  0  0  0
 18 19  1  0  0  0  0
 18108  1  0  0  0  0
 18109  1  0  0  0  0
 19 20  1  0  0  0  0
 19110  1  0  0  0  0
 19111  1  0  0  0  0
 20 21  1  0  0  0  0
 20112  1  0  0  0  0
 20113  1  0  0  0  0
 21 22  1  0  0  0  0
 21114  1  0  0  0  0
 21115  1  0  0  0  0
 22 23  1  0  0  0  0
 22116  1  0  0  0  0
 22117  1  0  0  0  0
 23 24  1  0  0  0  0
 23118  1  0  0  0  0
 23119  1  0  0  0  0
 24 25  1  0  0  0  0
 24120  1  0  0  0  0
 24121  1  0  0  0  0
 25 26  1  0  0  0  0
 25122  1  0  0  0  0
 25123  1  0  0  0  0
 26 27  1  0  0  0  0
 26124  1  0  0  0  0
 26125  1  0  0  0  0
 27 28  1  0  0  0  0
 27126  1  0  0  0  0
 27127  1  0  0  0  0
 28 29  1  0  0  0  0
 28128  1  0  0  0  0
 28129  1  0  0  0  0
 29 30  1  0  0  0  0
 29130  1  0  0  0  0
 29131  1  0  0  0  0
 30 31  1  0  0  0  0
 30132  1  0  0  0  0
 30133  1  0  0  0  0
 31 32  1  0  0  0  0
 31134  1  0  0  0  0
 31135  1  0  0  0  0
 32 33  1  0  0  0  0
 32136  1  0  0  0  0
 32137  1  0  0  0  0
 33 34  1  0  0  0  0
 33138  1  0  0  0  0
 33139  1  0  0  0  0
 34 35  1  0  0  0  0
 34140  1  0  0  0  0
 34141  1  0  0  0  0
 35 36  1  0  0  0  0
 35142  1  0  0  0  0
 35143  1  0  0  0  0
 36 37  1  0  0  0  0
 36144  1  0  0  0  0
 36145  1  0  0  0  0
 37 38  1  0  0  0  0
 37146  1  0  0  0  0
 37147  1  0  0  0  0
 38 39  1  0  0  0  0
 38148  1  0  0  0  0
 38149  1  0  0  0  0
 39 40  1  0  0  0  0
 39150  1  0  0  0  0
 39151  1  0  0  0  0
 40 41  1  0  0  0  0
 40152  1  0  0  0  0
 40153  1  0  0  0  0
 41 42  1  0  0  0  0
 41154  1  0  0  0  0
 41155  1  0  0  0  0
 42 43  1  0  0  0  0
 42156  1  0  0  0  0
 42157  1  0  0  0  0
 43 44  1  0  0  0  0
 43158  1  0  0  0  0
 43159  1  0  0  0  0
 44 45  1  0  0  0  0
 44160  1  0  0  0  0
 44161  1  0  0  0  0
 45 46  1  0  0  0  0
 45162  1  0  0  0  0
 45163  1  0  0  0  0
 46 47  1  0  0  0  0
 46164  1  0  0  0  0
 46165  1  0  0  0  0
 47 48  1  0  0  0  0
 47166  1  0  0  0  0
 47167  1  0  0  0  0
 48 49  1  0  0  0  0
 48168  1  0  0  0  0
 48169  1  0  0  0  0
 49 50  1  0  0  0  0
 49170  1  0  0  0  0
 49171  1  0  0  0  0
 50 51  1  0  0  0  0
 50172  1  0  0  0  0
 50173  1  0  0  0  0
 51 52  1  0  0  0  0
 51174  1  0  0  0  0
 51175  1  0  0  0  0
 52 53  1  0  0  0  0
 52176  1  0  0  0  0
 52177  1  0  0  0  0
 53 54  1  0  0  0  0
 53178  1  0  0  0  0
 53179  1  0  0  0  0
 54 55  1  0  0  0  0
 54180  1  0  0  0  0
 54181  1  0  0  0  0
 55 56  1  0  0  0  0
 55182  1  0  0  0  0
 55183  1  0  0  0  0
 56 57  1  0  0  0  0
 56184  1  0  0  0  0
 56185  1  0  0  0  0
 57 58  1  0  0  0  0
 57186  1  0  0  0  0
 57187  1  0  0  0  0
 58 59  1  0  0  0  0
 58188  1  0  0  0  0
 58189  1  0  0  0  0
 59 60  1  0  0  0  0
 59190  1  0  0  0  0
 59191  1  0  0  0  0
 60 61  1  0  0  0  0
 60192  1  0  0  0  0
 60193  1  0  0  0  0
 61 62  1  0  0  0  0
 61194  1  0  0  0  0
 61195  1  0  0  0  0
 62 63  1  0  0  0  0
 62196  1  0  0  0  0
 62197  1  0  0  0  0
 63 64  1  0  0  0  0
 63198  1  0  0  0  0
 63199  1  0  0  0  0
 64 65  1  0  0  0  0
 64200  1  0  0  0  0
 64201  1  0  0  0  0
 65 66  1  0  0  0  0
 65202  1  0  0  0  0
 65203  1  0  0  0  0
 66 67  1  0  0  0  0
 66204  1  0  0  0  0
 66205  1  0  0  0  0
 67 68  1  0  0  0  0
 67206  1  0  0  0  0
 67207  1  0  0  0  0
 68 69  1  0  0  0  0
 68208  1  0  0  0  0
 68209  1  0  0  0  0
 69 70  1  0  0  0  0
 69210  1  0  0  0  0
 69211  1  0  0  0  0
 70 71  1  0  0  0  0
 70212  1  0  0  0  0
 70213  1  0  0  0  0
 71 72  1  0  0  0  0
 71214  1  0  0  0  0
 71215  1  0  0  0  0
 72 73  1  0  0  0  0
 72216  1  0  0  0  0
 72217  1  0  0  0  0
 73 74  1  0  0  0  0
 73218  1  0  0  0  0
 73219  1  0  0  0  0
 74 75  1  0  0  0  0
 74220  1  0  0  0  0
 74221  1  0  0  0  0
 75 76  1  0  0  0  0
 75222  1  0  0  0  0
 75223  1  0  0  0  0
 76 77  1  0  0  0  0
 76224  1  0  0  0  0
 76225  1  0  0  0  0
 77 78  1  0  0  0  0
 77226  1  0  0  0  0
 77227  1  0  0  0  0
 78228  1  0  0  0  0
 78229  1  0  0  0  0
 78230  1  0  0  0  0
M  END
$$$$
