
 OpenBabel04232216473D

 65 66  0  0  0  0  0  0  0  0999 V2000
    4.7461   -1.2021    1.5163 C   0  0  0  0  0  0  0  0  0  0  0  0
    4.2199    0.1755    1.8197 C   0  0  0  0  0  0  0  0  0  0  0  0
    4.7082    1.2146    0.9287 C   0  0  0  0  0  0  0  0  0  0  0  0
    3.9806    1.9302    0.0357 C   0  0  0  0  0  0  0  0  0  0  0  0
    4.5538    2.8680   -0.8601 N   0  0  0  0  0  0  0  0  0  0  0  0
    3.7450    3.6614   -1.8184 C   0  0  0  0  0  0  0  0  0  0  0  0
    3.0722    2.7602   -2.8617 C   0  0  0  0  0  0  0  0  0  0  0  0
    3.3099    3.1501   -4.3235 C   0  0  0  0  0  0  0  0  0  0  0  0
    3.6965    1.9357   -5.1887 C   0  0  0  0  0  0  0  0  0  0  0  0
    5.1229    2.0329   -5.7559 C   0  0  0  0  0  0  0  0  0  0  0  0
    6.0981    1.0234   -5.1343 C   0  0  0  0  0  0  0  0  0  0  0  0
    7.4222    1.6544   -4.6727 C   0  0  0  0  0  0  0  0  0  0  0  0
    7.7863    1.2816   -3.2281 C   0  0  0  0  0  0  0  0  0  0  0  0
    7.7898    2.4929   -2.2881 C   0  0  0  0  0  0  0  0  0  0  0  0
    6.9888    2.2598   -1.0064 C   0  0  0  0  0  0  0  0  0  0  0  0
    5.9494    3.3518   -0.6866 C   0  0  0  0  0  0  0  0  0  0  0  0
    2.5384    1.6428   -0.0271 C   0  0  0  0  0  0  0  0  0  0  0  0
    1.6402    1.8380    0.9664 C   0  0  0  0  0  0  0  0  0  0  0  0
    0.2187    1.3662    0.8407 C   0  0  0  0  0  0  0  0  0  0  0  0
    2.0262    2.4527    2.2468 C   0  0  0  0  0  0  0  0  0  0  0  0
    1.4169    3.8175    2.4875 C   0  0  0  0  0  0  0  0  0  0  0  0
    1.8389    4.7587    1.5063 O   0  0  0  0  0  0  0  0  0  0  0  0
    2.8879    1.8240    3.0913 C   0  0  0  0  0  0  0  0  0  0  0  0
    3.5351    2.4514    4.2965 C   0  0  0  0  0  0  0  0  0  0  0  0
    3.3760    0.4549    2.8372 C   0  0  0  0  0  0  0  0  0  0  0  0
    2.8800   -0.6041    3.7822 C   0  0  0  0  0  0  0  0  0  0  0  0
    5.3985   -1.2088    0.6347 H   0  0  0  0  0  0  0  0  0  0  0  0
    3.9218   -1.8932    1.3054 H   0  0  0  0  0  0  0  0  0  0  0  0
    5.3307   -1.5897    2.3564 H   0  0  0  0  0  0  0  0  0  0  0  0
    5.7744    1.3584    1.0253 H   0  0  0  0  0  0  0  0  0  0  0  0
    4.3647    4.4147   -2.3215 H   0  0  0  0  0  0  0  0  0  0  0  0
    2.9884    4.2337   -1.2641 H   0  0  0  0  0  0  0  0  0  0  0  0
    1.9886    2.7894   -2.6857 H   0  0  0  0  0  0  0  0  0  0  0  0
    3.3862    1.7223   -2.7115 H   0  0  0  0  0  0  0  0  0  0  0  0
    4.0385    3.9611   -4.4153 H   0  0  0  0  0  0  0  0  0  0  0  0
    2.3670    3.5543   -4.7168 H   0  0  0  0  0  0  0  0  0  0  0  0
    2.9989    1.8955   -6.0359 H   0  0  0  0  0  0  0  0  0  0  0  0
    3.5466    0.9908   -4.6563 H   0  0  0  0  0  0  0  0  0  0  0  0
    5.4996    3.0583   -5.6831 H   0  0  0  0  0  0  0  0  0  0  0  0
    5.0652    1.8187   -6.8310 H   0  0  0  0  0  0  0  0  0  0  0  0
    6.3398    0.2776   -5.9046 H   0  0  0  0  0  0  0  0  0  0  0  0
    5.6205    0.4612   -4.3254 H   0  0  0  0  0  0  0  0  0  0  0  0
    7.4175    2.7405   -4.8070 H   0  0  0  0  0  0  0  0  0  0  0  0
    8.2209    1.2832   -5.3278 H   0  0  0  0  0  0  0  0  0  0  0  0
    8.7955    0.8502   -3.2263 H   0  0  0  0  0  0  0  0  0  0  0  0
    7.1388    0.4805   -2.8570 H   0  0  0  0  0  0  0  0  0  0  0  0
    7.4489    3.4047   -2.7981 H   0  0  0  0  0  0  0  0  0  0  0  0
    8.8318    2.6905   -2.0011 H   0  0  0  0  0  0  0  0  0  0  0  0
    7.7048    2.2352   -0.1735 H   0  0  0  0  0  0  0  0  0  0  0  0
    6.5259    1.2695   -1.0349 H   0  0  0  0  0  0  0  0  0  0  0  0
    6.1419    4.2529   -1.2789 H   0  0  0  0  0  0  0  0  0  0  0  0
    6.0670    3.6741    0.3560 H   0  0  0  0  0  0  0  0  0  0  0  0
    2.2095    1.1500   -0.9385 H   0  0  0  0  0  0  0  0  0  0  0  0
    0.0513    0.8124   -0.0903 H   0  0  0  0  0  0  0  0  0  0  0  0
   -0.4821    2.2056    0.8533 H   0  0  0  0  0  0  0  0  0  0  0  0
   -0.0293    0.6882    1.6652 H   0  0  0  0  0  0  0  0  0  0  0  0
    1.6701    4.2318    3.4645 H   0  0  0  0  0  0  0  0  0  0  0  0
    0.3226    3.7609    2.4585 H   0  0  0  0  0  0  0  0  0  0  0  0
    2.7670    4.5444    1.3022 H   0  0  0  0  0  0  0  0  0  0  0  0
    3.4217    3.5372    4.3307 H   0  0  0  0  0  0  0  0  0  0  0  0
    4.6183    2.2702    4.2755 H   0  0  0  0  0  0  0  0  0  0  0  0
    3.1347    2.0293    5.2217 H   0  0  0  0  0  0  0  0  0  0  0  0
    2.1576   -0.2083    4.5040 H   0  0  0  0  0  0  0  0  0  0  0  0
    3.7154   -1.0286    4.3485 H   0  0  0  0  0  0  0  0  0  0  0  0
    2.3785   -1.4087    3.2342 H   0  0  0  0  0  0  0  0  0  0  0  0
  1  2  1  0  0  0  0
  1 27  1  0  0  0  0
  1 28  1  0  0  0  0
  1 29  1  0  0  0  0
  2  3  1  0  0  0  0
  2 25  2  0  0  0  0
  3  4  2  0  0  0  0
  3 30  1  0  0  0  0
  4  5  1  0  0  0  0
  4 17  1  0  0  0  0
  5  6  1  0  0  0  0
  5 16  1  0  0  0  0
  6  7  1  0  0  0  0
  6 31  1  0  0  0  0
  6 32  1  0  0  0  0
  7  8  1  0  0  0  0
  7 33  1  0  0  0  0
  7 34  1  0  0  0  0
  8  9  1  0  0  0  0
  8 35  1  0  0  0  0
  8 36  1  0  0  0  0
  9 10  1  0  0  0  0
  9 37  1  0  0  0  0
  9 38  1  0  0  0  0
 10 11  1  0  0  0  0
 10 39  1  0  0  0  0
 10 40  1  0  0  0  0
 11 12  1  0  0  0  0
 11 41  1  0  0  0  0
 11 42  1  0  0  0  0
 12 13  1  0  0  0  0
 12 43  1  0  0  0  0
 12 44  1  0  0  0  0
 13 14  1  0  0  0  0
 13 45  1  0  0  0  0
 13 46  1  0  0  0  0
 14 15  1  0  0  0  0
 14 47  1  0  0  0  0
 14 48  1  0  0  0  0
 15 16  1  0  0  0  0
 15 49  1  0  0  0  0
 15 50  1  0  0  0  0
 16 51  1  0  0  0  0
 16 52  1  0  0  0  0
 17 18  2  0  0  0  0
 17 53  1  0  0  0  0
 18 19  1  0  0  0  0
 18 20  1  0  0  0  0
 19 54  1  0  0  0  0
 19 55  1  0  0  0  0
 19 56  1  0  0  0  0
 20 21  1  0  0  0  0
 20 23  2  0  0  0  0
 21 22  1  0  0  0  0
 21 57  1  0  0  0  0
 21 58  1  0  0  0  0
 22 59  1  0  0  0  0
 23 24  1  0  0  0  0
 23 25  1  0  0  0  0
 24 60  1  0  0  0  0
 24 61  1  0  0  0  0
 24 62  1  0  0  0  0
 25 26  1  0  0  0  0
 26 63  1  0  0  0  0
 26 64  1  0  0  0  0
 26 65  1  0  0  0  0
M  END
$$$$
