
 OpenBabel04232216513D

 64 65  0  0  1  0  0  0  0  0999 V2000
    4.6010   -0.9324   -5.8647 C   0  0  0  0  0  0  0  0  0  0  0  0
    5.3309   -0.7212   -4.5493 C   0  0  0  0  0  0  0  0  0  0  0  0
    5.0471   -1.8628   -3.5737 C   0  0  0  0  0  0  0  0  0  0  0  0
    5.7718   -1.6667   -2.2755 C   0  0  3  0  0  0  0  0  0  0  0  0
    5.6461   -2.6569   -1.1408 C   0  0  3  0  0  0  0  0  0  0  0  0
    4.8057   -3.8928   -1.2510 C   0  0  0  0  0  0  0  0  0  0  0  0
    4.8833   -4.6995    0.0424 C   0  0  0  0  0  0  0  0  0  0  0  0
    4.0254   -5.9526   -0.0364 C   0  0  0  0  0  0  0  0  0  0  0  0
    4.1165   -6.7447    1.2634 C   0  0  0  0  0  0  0  0  0  0  0  0
    3.2551   -7.9972    1.1742 C   0  0  0  0  0  0  0  0  0  0  0  0
    3.3371   -8.8211    2.4558 C   0  0  0  0  0  0  0  0  0  0  0  0
    2.5223  -10.0798    2.3043 C   0  0  0  0  0  0  0  0  0  0  0  0
    1.4804  -10.1284    1.6699 O   0  0  0  0  0  0  0  0  0  0  0  0
    3.0317  -11.3227    2.9421 C   0  0  0  0  0  0  0  0  0  0  0  0
    3.8429  -11.4153    4.0100 C   0  0  0  0  0  0  0  0  0  0  0  0
    4.0181  -12.8075    4.3286 C   0  0  0  0  0  0  0  0  0  0  0  0
    3.3196  -13.5781    3.4817 C   0  0  0  0  0  0  0  0  0  0  0  0
    2.6419  -12.6916    2.4476 C   0  0  3  0  0  0  0  0  0  0  0  0
    3.1930  -12.9358    1.0299 C   0  0  0  0  0  0  0  0  0  0  0  0
    2.9358  -14.3441    0.4805 C   0  0  0  0  0  0  0  0  0  0  0  0
    1.4655  -14.7428    0.5155 C   0  0  0  0  0  0  0  0  0  0  0  0
    0.6987  -13.8411   -0.4409 C   0  0  0  0  0  0  0  0  0  0  0  0
   -0.7687  -14.1857   -0.4721 C   0  0  0  0  0  0  0  0  0  0  0  0
    3.1779  -15.0586    3.5472 C   0  0  0  0  0  0  0  0  0  0  0  0
    6.8740   -2.5299   -1.8999 C   0  0  0  0  0  3  0  0  0  0  0  0
    4.8019   -0.1034   -6.5496 H   0  0  0  0  0  0  0  0  0  0  0  0
    3.5193   -0.9887   -5.7052 H   0  0  0  0  0  0  0  0  0  0  0  0
    4.9253   -1.8606   -6.3459 H   0  0  0  0  0  0  0  0  0  0  0  0
    5.0129    0.2317   -4.1088 H   0  0  0  0  0  0  0  0  0  0  0  0
    6.4089   -0.6420   -4.7332 H   0  0  0  0  0  0  0  0  0  0  0  0
    5.3252   -2.8175   -4.0381 H   0  0  0  0  0  0  0  0  0  0  0  0
    3.9686   -1.9046   -3.3789 H   0  0  0  0  0  0  0  0  0  0  0  0
    5.8697   -0.6234   -1.9968 H   0  0  0  0  0  0  0  0  0  0  0  0
    5.6792   -2.2586   -0.1328 H   0  0  0  0  0  0  0  0  0  0  0  0
    5.1271   -4.5197   -2.0929 H   0  0  0  0  0  0  0  0  0  0  0  0
    3.7625   -3.6124   -1.4431 H   0  0  0  0  0  0  0  0  0  0  0  0
    4.5502   -4.0800    0.8850 H   0  0  0  0  0  0  0  0  0  0  0  0
    5.9269   -4.9716    0.2431 H   0  0  0  0  0  0  0  0  0  0  0  0
    4.3565   -6.5759   -0.8761 H   0  0  0  0  0  0  0  0  0  0  0  0
    2.9815   -5.6766   -0.2291 H   0  0  0  0  0  0  0  0  0  0  0  0
    3.7832   -6.1231    2.1031 H   0  0  0  0  0  0  0  0  0  0  0  0
    5.1601   -7.0204    1.4577 H   0  0  0  0  0  0  0  0  0  0  0  0
    3.5815   -8.6096    0.3252 H   0  0  0  0  0  0  0  0  0  0  0  0
    2.2141   -7.7125    0.9764 H   0  0  0  0  0  0  0  0  0  0  0  0
    2.9697   -8.2507    3.3159 H   0  0  0  0  0  0  0  0  0  0  0  0
    4.3855   -9.0802    2.6349 H   0  0  0  0  0  0  0  0  0  0  0  0
    4.2514  -10.6045    4.5931 H   0  0  0  0  0  0  0  0  0  0  0  0
    4.6062  -13.1669    5.1665 H   0  0  0  0  0  0  0  0  0  0  0  0
    1.5500  -12.7947    2.4998 H   0  0  0  0  0  0  0  0  0  0  0  0
    4.2735  -12.7450    1.0068 H   0  0  0  0  0  0  0  0  0  0  0  0
    2.7654  -12.2003    0.3350 H   0  0  0  0  0  0  0  0  0  0  0  0
    3.5283  -15.0840    1.0074 H   0  0  0  0  0  0  0  0  0  0  0  0
    3.3243  -14.4158   -0.5382 H   0  0  0  0  0  0  0  0  0  0  0  0
    1.0382  -14.6815    1.5205 H   0  0  0  0  0  0  0  0  0  0  0  0
    1.3689  -15.7922    0.2154 H   0  0  0  0  0  0  0  0  0  0  0  0
    1.1332  -13.9339   -1.4426 H   0  0  0  0  0  0  0  0  0  0  0  0
    0.7916  -12.7926   -0.1405 H   0  0  0  0  0  0  0  0  0  0  0  0
   -0.9136  -15.2177   -0.7995 H   0  0  0  0  0  0  0  0  0  0  0  0
   -1.2821  -13.5158   -1.1660 H   0  0  0  0  0  0  0  0  0  0  0  0
   -1.2102  -14.0626    0.5214 H   0  0  0  0  0  0  0  0  0  0  0  0
    3.6403  -15.4696    4.4423 H   0  0  0  0  0  0  0  0  0  0  0  0
    3.6933  -15.5700    2.7377 H   0  0  0  0  0  0  0  0  0  0  0  0
    2.1237  -15.3447    3.5252 H   0  0  0  0  0  0  0  0  0  0  0  0
    7.2631   -3.3194   -2.5317 H   0  0  0  0  0  0  0  0  0  0  0  0
  1  2  1  0  0  0  0
  1 26  1  0  0  0  0
  1 27  1  0  0  0  0
  1 28  1  0  0  0  0
  2  3  1  0  0  0  0
  2 29  1  0  0  0  0
  2 30  1  0  0  0  0
  3  4  1  0  0  0  0
  3 31  1  0  0  0  0
  3 32  1  0  0  0  0
  4  5  1  0  0  0  0
  4 25  1  0  0  0  0
  4 33  1  0  0  0  0
  5  6  1  0  0  0  0
  5 25  1  0  0  0  0
  5 34  1  0  0  0  0
  6  7  1  0  0  0  0
  6 35  1  0  0  0  0
  6 36  1  0  0  0  0
  7  8  1  0  0  0  0
  7 37  1  0  0  0  0
  7 38  1  0  0  0  0
  8  9  1  0  0  0  0
  8 39  1  0  0  0  0
  8 40  1  0  0  0  0
  9 10  1  0  0  0  0
  9 41  1  0  0  0  0
  9 42  1  0  0  0  0
 10 11  1  0  0  0  0
 10 43  1  0  0  0  0
 10 44  1  0  0  0  0
 11 12  1  0  0  0  0
 11 45  1  0  0  0  0
 11 46  1  0  0  0  0
 12 13  2  0  0  0  0
 12 14  1  0  0  0  0
 14 15  2  0  0  0  0
 14 18  1  0  0  0  0
 15 16  1  0  0  0  0
 15 47  1  0  0  0  0
 16 17  2  0  0  0  0
 16 48  1  0  0  0  0
 17 18  1  0  0  0  0
 17 24  1  0  0  0  0
 18 19  1  0  0  0  0
 18 49  1  0  0  0  0
 19 20  1  0  0  0  0
 19 50  1  0  0  0  0
 19 51  1  0  0  0  0
 20 21  1  0  0  0  0
 20 52  1  0  0  0  0
 20 53  1  0  0  0  0
 21 22  1  0  0  0  0
 21 54  1  0  0  0  0
 21 55  1  0  0  0  0
 22 23  1  0  0  0  0
 22 56  1  0  0  0  0
 22 57  1  0  0  0  0
 23 58  1  0  0  0  0
 23 59  1  0  0  0  0
 23 60  1  0  0  0  0
 24 61  1  0  0  0  0
 24 62  1  0  0  0  0
 24 63  1  0  0  0  0
 25 64  1  0  0  0  0
M  END
$$$$
