
 OpenBabel04232216433D

 32 32  0  0  0  0  0  0  0  0999 V2000
    4.1950    1.1200   -2.5762 C   0  0  0  0  0  0  0  0  0  0  0  0
    3.6053    0.8553   -1.2074 C   0  0  0  0  0  0  0  0  0  0  0  0
    3.7424    1.8030   -0.2489 C   0  0  0  0  0  0  0  0  0  0  0  0
    5.1379    1.9417    0.2024 C   0  0  0  0  0  0  0  0  0  0  0  0
    5.9022    2.7510   -0.5443 C   0  0  0  0  0  0  0  0  0  0  0  0
    7.3244    2.6770   -0.7195 C   0  0  0  0  0  0  0  0  0  0  0  0
    7.8437    3.4398   -1.6926 C   0  0  0  0  0  0  0  0  0  0  0  0
    9.0330    3.0569   -2.4108 C   0  0  0  0  0  0  0  0  0  0  0  0
    9.0150    3.3827   -3.7124 C   0  0  0  0  0  0  0  0  0  0  0  0
    9.2092    2.3653   -4.7060 C   0  0  0  0  0  0  0  0  0  0  0  0
    8.3507    1.3630   -4.9753 C   0  0  0  0  0  0  0  0  0  0  0  0
    7.1308    0.8355   -4.3011 C   0  0  0  0  0  0  0  0  0  0  0  0
    6.2631    0.1101   -3.5370 C   0  0  0  0  0  0  0  0  0  0  0  0
    4.7855    0.1345   -3.2979 C   0  0  0  0  0  0  0  0  0  0  0  0
    4.1310   -1.2560   -3.2439 C   0  0  0  0  0  0  0  0  0  0  0  0
    2.8317   -1.1942   -3.8419 O   0  0  0  0  0  0  0  0  0  0  0  0
    3.3650    1.5980   -3.1188 H   0  0  0  0  0  0  0  0  0  0  0  0
    3.8627   -0.1405   -0.8442 H   0  0  0  0  0  0  0  0  0  0  0  0
    3.3413    2.7941   -0.4855 H   0  0  0  0  0  0  0  0  0  0  0  0
    5.5417    1.2112    0.8962 H   0  0  0  0  0  0  0  0  0  0  0  0
    5.3904    3.3590   -1.2958 H   0  0  0  0  0  0  0  0  0  0  0  0
    7.8722    1.8436   -0.2901 H   0  0  0  0  0  0  0  0  0  0  0  0
    7.1925    4.1501   -2.2070 H   0  0  0  0  0  0  0  0  0  0  0  0
    9.5796    2.1884   -2.0558 H   0  0  0  0  0  0  0  0  0  0  0  0
    8.4461    4.2403   -4.0801 H   0  0  0  0  0  0  0  0  0  0  0  0
   10.1027    2.5080   -5.3331 H   0  0  0  0  0  0  0  0  0  0  0  0
    8.6344    0.7581   -5.8492 H   0  0  0  0  0  0  0  0  0  0  0  0
    7.8744    0.0165   -4.1556 H   0  0  0  0  0  0  0  0  0  0  0  0
    6.6678   -0.7842   -3.0373 H   0  0  0  0  0  0  0  0  0  0  0  0
    4.0134   -1.6130   -2.2228 H   0  0  0  0  0  0  0  0  0  0  0  0
    4.7106   -2.0315   -3.7679 H   0  0  0  0  0  0  0  0  0  0  0  0
    2.2325   -1.7200   -3.2814 H   0  0  0  0  0  0  0  0  0  0  0  0
  1  2  1  0  0  0  0
  1 14  2  0  0  0  0
  1 17  1  0  0  0  0
  2  3  2  0  0  0  0
  2 18  1  0  0  0  0
  3  4  1  0  0  0  0
  3 19  1  0  0  0  0
  4  5  2  0  0  0  0
  4 20  1  0  0  0  0
  5  6  1  0  0  0  0
  5 21  1  0  0  0  0
  6  7  2  0  0  0  0
  6 22  1  0  0  0  0
  7  8  1  0  0  0  0
  7 23  1  0  0  0  0
  8  9  2  0  0  0  0
  8 24  1  0  0  0  0
  9 10  1  0  0  0  0
  9 25  1  0  0  0  0
 10 11  2  0  0  0  0
 10 26  1  0  0  0  0
 11 12  1  0  0  0  0
 11 27  1  0  0  0  0
 12 13  2  0  0  0  0
 12 28  1  0  0  0  0
 13 14  1  0  0  0  0
 13 29  1  0  0  0  0
 14 15  1  0  0  0  0
 15 16  1  0  0  0  0
 15 30  1  0  0  0  0
 15 31  1  0  0  0  0
 16 32  1  0  0  0  0
M  END
$$$$
