
 OpenBabel04232217003D

111110  0  0  0  0  0  0  0  0999 V2000
   23.9426   -9.1329   10.8983 O   0  0  0  0  0  0  0  0  0  0  0  0
   23.2250   -8.3133   11.3759 C   0  0  0  0  0  0  0  0  0  0  0  0
   22.0132   -7.8870   10.8293 N   0  0  0  0  0  0  0  0  0  0  0  0
   21.5206   -8.4248    9.5820 C   0  0  0  0  0  0  0  0  0  0  0  0
   21.9925   -7.6169    8.3854 C   0  0  0  0  0  0  0  0  0  0  0  0
   21.4522   -8.1584    7.1714 O   0  0  0  0  0  0  0  0  0  0  0  0
   20.0356   -8.1003    7.1936 C   0  0  0  0  0  0  0  0  0  0  0  0
   19.5640   -6.7660    7.3415 O   0  0  0  0  0  0  0  0  0  0  0  0
   20.0203   -5.9781    6.2427 C   0  0  0  0  0  0  0  0  0  0  0  0
   19.5089   -4.5683    6.4098 C   0  0  0  0  0  0  0  0  0  0  0  0
   20.0132   -4.0301    7.6298 O   0  0  0  0  0  0  0  0  0  0  0  0
   19.5443   -2.7115    7.8261 C   0  0  0  0  0  0  0  0  0  0  0  0
   20.1051   -2.1546    9.1173 C   0  0  0  0  0  0  0  0  0  0  0  0
   21.5349   -2.1660    9.0700 O   0  0  0  0  0  0  0  0  0  0  0  0
   21.9966   -1.3529    7.9912 C   0  0  0  0  0  0  0  0  0  0  0  0
   21.5779    0.0015    8.1125 O   0  0  0  0  0  0  0  0  0  0  0  0
   22.0763    0.5384    9.3351 C   0  0  0  0  0  0  0  0  0  0  0  0
   21.5962    1.9604    9.4837 C   0  0  0  0  0  0  0  0  0  0  0  0
   22.1117    2.5079   10.6885 O   0  0  0  0  0  0  0  0  0  0  0  0
   21.6699    3.8515   10.8299 C   0  0  0  0  0  0  0  0  0  0  0  0
   22.2240    4.4067   12.1162 C   0  0  0  0  0  0  0  0  0  0  0  0
   21.7643    5.7433   12.2514 O   0  0  0  0  0  0  0  0  0  0  0  0
   22.2905    6.3131   13.4417 C   0  0  0  0  0  0  0  0  0  0  0  0
   23.6952    6.2978   13.3767 O   0  0  0  0  0  0  0  0  0  0  0  0
   24.0922    6.8663   14.6184 O   0  0  0  0  0  0  0  0  0  0  0  0
   25.4841    6.8441   14.5708 C   0  0  0  0  0  0  0  0  0  0  0  0
   25.8568    7.4169   15.7751 O   0  0  0  0  0  0  0  0  0  0  0  0
   27.2541    7.3851   15.7080 O   0  0  0  0  0  0  0  0  0  0  0  0
   27.7022    7.9506   16.8972 O   0  0  0  0  0  0  0  0  0  0  0  0
   29.0827    7.9314   16.8563 O   0  0  0  0  0  0  0  0  0  0  0  0
   29.4939    8.5007   18.0487 O   0  0  0  0  0  0  0  0  0  0  0  0
   30.8635    8.4806   18.0120 O   0  0  0  0  0  0  0  0  0  0  0  0
   31.2740    9.0466   19.1929 O   0  0  0  0  0  0  0  0  0  0  0  0
   32.6411    9.0235   19.1436 O   0  0  0  0  0  0  0  0  0  0  0  0
   33.0470    9.5887   20.3188 O   0  0  0  0  0  0  0  0  0  0  0  0
   34.4112    9.5621   20.2683 O   0  0  0  0  0  0  0  0  0  0  0  0
   34.8112   10.1296   21.4431 O   0  0  0  0  0  0  0  0  0  0  0  0
   36.1739   10.1047   21.3909 O   0  0  0  0  0  0  0  0  0  0  0  0
   36.5728   10.6700   22.5664 O   0  0  0  0  0  0  0  0  0  0  0  0
   37.9352   10.6467   22.5122 O   0  0  0  0  0  0  0  0  0  0  0  0
   38.3336   11.2097   23.6881 O   0  0  0  0  0  0  0  0  0  0  0  0
   39.6955   11.1843   23.6348 O   0  0  0  0  0  0  0  0  0  0  0  0
   40.0937   11.7497   24.8095 O   0  0  0  0  0  0  0  0  0  0  0  0
   41.4555   11.7222   24.7571 O   0  0  0  0  0  0  0  0  0  0  0  0
   41.8537   12.2856   25.9327 O   0  0  0  0  0  0  0  0  0  0  0  0
   43.2155   12.2605   25.8791 O   0  0  0  0  0  0  0  0  0  0  0  0
   43.6137   12.8218   27.0558 O   0  0  0  0  0  0  0  0  0  0  0  0
   44.9755   12.7943   27.0033 O   0  0  0  0  0  0  0  0  0  0  0  0
   45.3737   13.3577   28.1790 O   0  0  0  0  0  0  0  0  0  0  0  0
   46.7355   13.3323   28.1256 O   0  0  0  0  0  0  0  0  0  0  0  0
   47.1337   13.8973   29.3004 O   0  0  0  0  0  0  0  0  0  0  0  0
   48.4955   13.8738   29.2460 O   0  0  0  0  0  0  0  0  0  0  0  0
   48.8937   14.4409   30.4199 O   0  0  0  0  0  0  0  0  0  0  0  0
   50.2555   14.4151   30.3667 O   0  0  0  0  0  0  0  0  0  0  0  0
   50.6537   14.9798   31.5417 O   0  0  0  0  0  0  0  0  0  0  0  0
   52.0155   14.9564   31.4873 O   0  0  0  0  0  0  0  0  0  0  0  0
   52.4137   15.5231   32.6614 O   0  0  0  0  0  0  0  0  0  0  0  0
   53.7755   15.4973   32.6081 O   0  0  0  0  0  0  0  0  0  0  0  0
   54.1737   16.0660   33.7812 O   0  0  0  0  0  0  0  0  0  0  0  0
   55.5355   16.0423   33.7270 O   0  0  0  0  0  0  0  0  0  0  0  0
   55.9337   16.6086   34.9012 O   0  0  0  0  0  0  0  0  0  0  0  0
   57.2945   16.5894   34.8513 O   0  0  0  0  0  0  0  0  0  0  0  0
   57.6946   17.1670   36.0239 O   0  0  0  0  0  0  0  0  0  0  0  0
   59.0553   17.1313   35.9647 O   0  0  0  0  0  0  0  0  0  0  0  0
   59.4562   17.6990   37.1407 O   0  0  0  0  0  0  0  0  0  0  0  0
   60.8222   17.6749   37.0809 O   0  0  0  0  0  0  0  0  0  0  0  0
   61.2169   18.2381   38.2519 O   0  0  0  0  0  0  0  0  0  0  0  0
   62.5864   18.2177   38.2052 O   0  0  0  0  0  0  0  0  0  0  0  0
   62.9714   18.7795   39.3784 O   0  0  0  0  0  0  0  0  0  0  0  0
   64.3416   18.7592   39.3262 O   0  0  0  0  0  0  0  0  0  0  0  0
   64.7364   19.3261   40.5040 O   0  0  0  0  0  0  0  0  0  0  0  0
   66.1005   19.3024   40.4506 O   0  0  0  0  0  0  0  0  0  0  0  0
   66.5095   19.8671   41.6289 O   0  0  0  0  0  0  0  0  0  0  0  0
   67.8791   19.8490   41.5811 O   0  0  0  0  0  0  0  0  0  0  0  0
   68.2920   20.4167   42.7717 O   0  0  0  0  0  0  0  0  0  0  0  0
   69.6711   20.3982   42.7299 O   0  0  0  0  0  0  0  0  0  0  0  0
   70.1111   20.9786   43.9042 O   0  0  0  0  0  0  0  0  0  0  0  0
   71.5266   20.9887   43.8629 O   0  0  0  0  0  0  0  0  0  0  0  0
   71.9727   21.5256   45.0875 O   0  0  0  0  0  0  0  0  0  0  0  0
   71.4690   20.7324   46.1781 O   0  0  0  0  0  0  0  0  0  0  0  0
   23.4344   -7.7744   12.3278 H   0  0  0  0  0  0  0  0  0  0  0  0
   21.4881   -7.1844   11.2960 H   0  0  0  0  0  0  0  0  0  0  0  0
   20.4344   -8.4028    9.6694 H   0  0  0  0  0  0  0  0  0  0  0  0
   21.8099   -9.4703    9.4565 H   0  0  0  0  0  0  0  0  0  0  0  0
   23.0838   -7.6310    8.3193 H   0  0  0  0  0  0  0  0  0  0  0  0
   21.6914   -6.5655    8.4901 H   0  0  0  0  0  0  0  0  0  0  0  0
   19.6341   -8.7140    8.0012 H   0  0  0  0  0  0  0  0  0  0  0  0
   19.6363   -8.5333    6.2733 H   0  0  0  0  0  0  0  0  0  0  0  0
   19.6396   -6.3959    5.3061 H   0  0  0  0  0  0  0  0  0  0  0  0
   21.1166   -5.9701    6.2112 H   0  0  0  0  0  0  0  0  0  0  0  0
   18.4180   -4.5610    6.4532 H   0  0  0  0  0  0  0  0  0  0  0  0
   19.8531   -3.9448    5.5789 H   0  0  0  0  0  0  0  0  0  0  0  0
   18.4489   -2.6887    7.8506 H   0  0  0  0  0  0  0  0  0  0  0  0
   19.8364   -2.0893    6.9712 H   0  0  0  0  0  0  0  0  0  0  0  0
   19.7817   -2.7656    9.9666 H   0  0  0  0  0  0  0  0  0  0  0  0
   19.7448   -1.1319    9.2818 H   0  0  0  0  0  0  0  0  0  0  0  0
   21.6535   -1.7424    7.0287 H   0  0  0  0  0  0  0  0  0  0  0  0
   23.0870   -1.3917    7.9399 H   0  0  0  0  0  0  0  0  0  0  0  0
   23.1705    0.4983    9.3238 H   0  0  0  0  0  0  0  0  0  0  0  0
   21.7319   -0.0553   10.1960 H   0  0  0  0  0  0  0  0  0  0  0  0
   20.4995    1.9838    9.5008 H   0  0  0  0  0  0  0  0  0  0  0  0
   21.9394    2.5508    8.6265 H   0  0  0  0  0  0  0  0  0  0  0  0
   20.5755    3.8859   10.8513 H   0  0  0  0  0  0  0  0  0  0  0  0
   22.0186    4.4502    9.9808 H   0  0  0  0  0  0  0  0  0  0  0  0
   23.3214    4.3634   12.0909 H   0  0  0  0  0  0  0  0  0  0  0  0
   21.8864    3.8061   12.9701 H   0  0  0  0  0  0  0  0  0  0  0  0
   21.9369    5.7394   14.3136 H   0  0  0  0  0  0  0  0  0  0  0  0
   21.9385    7.3443   13.5363 H   0  0  0  0  0  0  0  0  0  0  0  0
   25.8773    7.4436   13.7394 H   0  0  0  0  0  0  0  0  0  0  0  0
   25.8771    5.8210   14.5111 H   0  0  0  0  0  0  0  0  0  0  0  0
   71.8704   21.2769   46.8493 H   0  0  0  0  0  0  0  0  0  0  0  0
  1  2  2  0  0  0  0
  2  3  1  0  0  0  0
  2 81  1  0  0  0  0
  3  4  1  0  0  0  0
  3 82  1  0  0  0  0
  4  5  1  0  0  0  0
  4 83  1  0  0  0  0
  4 84  1  0  0  0  0
  5  6  1  0  0  0  0
  5 85  1  0  0  0  0
  5 86  1  0  0  0  0
  6  7  1  0  0  0  0
  7  8  1  0  0  0  0
  7 87  1  0  0  0  0
  7 88  1  0  0  0  0
  8  9  1  0  0  0  0
  9 10  1  0  0  0  0
  9 89  1  0  0  0  0
  9 90  1  0  0  0  0
 10 11  1  0  0  0  0
 10 91  1  0  0  0  0
 10 92  1  0  0  0  0
 11 12  1  0  0  0  0
 12 13  1  0  0  0  0
 12 93  1  0  0  0  0
 12 94  1  0  0  0  0
 13 14  1  0  0  0  0
 13 95  1  0  0  0  0
 13 96  1  0  0  0  0
 14 15  1  0  0  0  0
 15 16  1  0  0  0  0
 15 97  1  0  0  0  0
 15 98  1  0  0  0  0
 16 17  1  0  0  0  0
 17 18  1  0  0  0  0
 17 99  1  0  0  0  0
 17100  1  0  0  0  0
 18 19  1  0  0  0  0
 18101  1  0  0  0  0
 18102  1  0  0  0  0
 19 20  1  0  0  0  0
 20 21  1  0  0  0  0
 20103  1  0  0  0  0
 20104  1  0  0  0  0
 21 22  1  0  0  0  0
 21105  1  0  0  0  0
 21106  1  0  0  0  0
 22 23  1  0  0  0  0
 23 24  1  0  0  0  0
 23107  1  0  0  0  0
 23108  1  0  0  0  0
 24 25  1  0  0  0  0
 25 26  1  0  0  0  0
 26 27  1  0  0  0  0
 26109  1  0  0  0  0
 26110  1  0  0  0  0
 27 28  1  0  0  0  0
 28 29  1  0  0  0  0
 29 30  1  0  0  0  0
 30 31  1  0  0  0  0
 31 32  1  0  0  0  0
 32 33  1  0  0  0  0
 33 34  1  0  0  0  0
 34 35  1  0  0  0  0
 35 36  1  0  0  0  0
 36 37  1  0  0  0  0
 37 38  1  0  0  0  0
 38 39  1  0  0  0  0
 39 40  1  0  0  0  0
 40 41  1  0  0  0  0
 41 42  1  0  0  0  0
 42 43  1  0  0  0  0
 43 44  1  0  0  0  0
 44 45  1  0  0  0  0
 45 46  1  0  0  0  0
 46 47  1  0  0  0  0
 47 48  1  0  0  0  0
 48 49  1  0  0  0  0
 49 50  1  0  0  0  0
 50 51  1  0  0  0  0
 51 52  1  0  0  0  0
 52 53  1  0  0  0  0
 53 54  1  0  0  0  0
 54 55  1  0  0  0  0
 55 56  1  0  0  0  0
 56 57  1  0  0  0  0
 57 58  1  0  0  0  0
 58 59  1  0  0  0  0
 59 60  1  0  0  0  0
 60 61  1  0  0  0  0
 61 62  1  0  0  0  0
 62 63  1  0  0  0  0
 63 64  1  0  0  0  0
 64 65  1  0  0  0  0
 65 66  1  0  0  0  0
 66 67  1  0  0  0  0
 67 68  1  0  0  0  0
 68 69  1  0  0  0  0
 69 70  1  0  0  0  0
 70 71  1  0  0  0  0
 71 72  1  0  0  0  0
 72 73  1  0  0  0  0
 73 74  1  0  0  0  0
 74 75  1  0  0  0  0
 75 76  1  0  0  0  0
 76 77  1  0  0  0  0
 77 78  1  0  0  0  0
 78 79  1  0  0  0  0
 79 80  1  0  0  0  0
 80111  1  0  0  0  0
M  END
$$$$
