
 OpenBabel04232216423D

 47 48  0  0  0  0  0  0  0  0999 V2000
    0.8231   -1.0087    0.5079 C   0  0  0  0  0  0  0  0  0  0  0  0
   -0.1262   -1.0327   -0.5318 C   0  0  0  0  0  0  0  0  0  0  0  0
    0.3792   -1.6809   -1.5895 C   0  0  0  0  0  0  0  0  0  0  0  0
    1.7765   -2.3433   -1.7345 C   0  0  0  0  0  0  0  0  0  0  0  0
    1.8823   -2.8200   -3.1312 C   0  0  0  0  0  0  0  0  0  0  0  0
    2.8233   -2.3913   -0.7235 C   0  0  0  0  0  0  0  0  0  0  0  0
    4.5135   -3.2439   -0.6365 C   0  0  0  0  0  0  0  0  0  0  0  0
    6.0923   -4.1423   -1.4572 C   0  0  0  0  0  0  0  0  0  0  0  0
    7.4121   -5.6002   -1.1588 C   0  0  0  0  0  0  0  0  0  0  0  0
    6.9989   -6.5467   -0.3515 N   0  0  0  0  0  0  0  0  0  0  0  0
    6.1551   -5.9698    0.5767 C   0  0  0  0  0  0  0  0  0  0  0  0
    6.7627   -5.1030    1.4350 C   0  0  0  0  0  0  0  0  0  0  0  0
    7.9812   -5.6112    1.9953 C   0  0  0  0  0  0  0  0  0  0  0  0
    9.2431   -5.4565    1.5532 C   0  0  0  0  0  0  0  0  0  0  0  0
    9.8380   -6.7614    1.5858 C   0  0  0  0  0  0  0  0  0  0  0  0
   11.0571   -7.2372    1.7836 C   0  0  0  0  0  0  0  0  0  0  0  0
   11.1109   -8.5556    1.5001 N   0  0  0  0  0  0  0  0  0  0  0  0
   12.1984   -9.1772    1.2924 C   0  0  0  0  0  0  0  0  0  0  0  0
   11.8999  -10.6452    0.3899 S   0  0  0  0  0  0  0  0  0  0  0  0
   11.8607  -10.0311   -1.1526 N   0  0  0  0  0  0  0  0  0  0  0  0
   11.2254   -9.0821   -1.7026 N   0  0  0  0  0  0  0  0  0  0  0  0
    9.9271   -8.3648   -1.2988 N   0  0  0  0  0  0  0  0  0  0  0  0
   10.0684   -7.0266   -1.3921 C   0  0  0  0  0  0  0  0  0  0  0  0
   11.7797   -6.5641   -1.2986 C   0  0  0  0  0  0  0  0  0  0  0  0
    8.9775   -5.7368   -1.5927 O   0  0  0  0  0  0  0  0  0  0  0  0
    2.2103   -1.6669    0.4177 C   0  0  0  0  0  0  0  0  0  0  0  0
    0.4800   -0.4599    1.4131 H   0  0  0  0  0  0  0  0  0  0  0  0
   -1.1224   -0.5429   -0.4612 H   0  0  0  0  0  0  0  0  0  0  0  0
   -0.3352   -1.7274   -2.4387 H   0  0  0  0  0  0  0  0  0  0  0  0
    0.9262   -2.6938   -3.6669 H   0  0  0  0  0  0  0  0  0  0  0  0
    2.1067   -3.8795   -3.1424 H   0  0  0  0  0  0  0  0  0  0  0  0
    2.5948   -2.1752   -3.6393 H   0  0  0  0  0  0  0  0  0  0  0  0
    4.2984   -3.8615    0.2382 H   0  0  0  0  0  0  0  0  0  0  0  0
    5.0230   -2.3393   -0.2597 H   0  0  0  0  0  0  0  0  0  0  0  0
    6.6878   -3.2878   -1.8003 H   0  0  0  0  0  0  0  0  0  0  0  0
    5.5712   -4.5695   -2.3203 H   0  0  0  0  0  0  0  0  0  0  0  0
    5.1418   -5.8517    0.2110 H   0  0  0  0  0  0  0  0  0  0  0  0
    6.7102   -4.0414    1.2064 H   0  0  0  0  0  0  0  0  0  0  0  0
    7.7566   -6.5622    2.5004 H   0  0  0  0  0  0  0  0  0  0  0  0
    9.6015   -4.7059    0.8576 H   0  0  0  0  0  0  0  0  0  0  0  0
    9.1443   -7.5417    1.2154 H   0  0  0  0  0  0  0  0  0  0  0  0
   11.9495   -6.6244    1.8722 H   0  0  0  0  0  0  0  0  0  0  0  0
   13.2337   -8.8047    1.4861 H   0  0  0  0  0  0  0  0  0  0  0  0
   12.3789   -7.4312   -0.9097 H   0  0  0  0  0  0  0  0  0  0  0  0
   12.1007   -5.8497   -0.5242 H   0  0  0  0  0  0  0  0  0  0  0  0
   12.3199   -6.4228   -2.2485 H   0  0  0  0  0  0  0  0  0  0  0  0
    2.7137   -1.5053    1.3736 H   0  0  0  0  0  0  0  0  0  0  0  0
  1  2  1  0  0  0  0
  1 26  2  0  0  0  0
  1 27  1  0  0  0  0
  2  3  2  0  0  0  0
  2 28  1  0  0  0  0
  3  4  1  0  0  0  0
  3 29  1  0  0  0  0
  4  5  1  0  0  0  0
  4  6  2  0  0  0  0
  5 30  1  0  0  0  0
  5 31  1  0  0  0  0
  5 32  1  0  0  0  0
  6  7  1  0  0  0  0
  6 26  1  0  0  0  0
  7  8  1  0  0  0  0
  7 33  1  0  0  0  0
  7 34  1  0  0  0  0
  8  9  1  0  0  0  0
  8 35  1  0  0  0  0
  8 36  1  0  0  0  0
  9 10  2  3  0  0  0
  9 25  1  0  0  0  0
 10 11  1  0  0  0  0
 11 12  2  3  0  0  0
 11 37  1  0  0  0  0
 12 13  1  0  0  0  0
 12 38  1  0  0  0  0
 13 14  2  3  0  0  0
 13 39  1  0  0  0  0
 14 15  1  0  0  0  0
 14 40  1  0  0  0  0
 15 16  2  3  0  0  0
 15 41  1  0  0  0  0
 16 17  1  0  0  0  0
 16 42  1  0  0  0  0
 17 18  2  3  0  0  0
 18 19  1  0  0  0  0
 18 43  1  0  0  0  0
 19 20  1  0  0  0  0
 20 21  2  3  0  0  0
 21 22  1  0  0  0  0
 22 23  2  3  0  0  0
 23 24  1  0  0  0  0
 23 25  1  0  0  0  0
 24 44  1  0  0  0  0
 24 45  1  0  0  0  0
 24 46  1  0  0  0  0
 26 47  1  0  0  0  0
M  END
$$$$
