
 OpenBabel04232217023D

144143  0  0  0  0  0  0  0  0999 V2000
   46.8291   26.8898   23.0529 O   0  0  0  0  0  0  0  0  0  0  0  0
   46.3498   25.9022   24.0017 N   0  0  0  0  0  0  0  0  0  0  0  0
   45.0580   25.4454   23.4875 C   0  0  0  0  0  0  0  0  0  0  0  0
   45.1581   24.6411   22.1861 C   0  0  0  0  0  0  0  0  0  0  0  0
   46.0003   23.3662   22.3255 C   0  0  0  0  0  0  0  0  0  0  0  0
   45.9558   22.6091   21.0689 N   0  0  0  0  0  0  0  0  0  0  0  0
   46.7222   21.4255   21.2135 N   0  0  0  0  0  0  0  0  0  0  0  0
   47.0365   20.9153   19.9257 N   0  0  0  0  0  0  0  0  0  0  0  0
   47.8090   19.7373   20.0152 N   0  0  0  0  0  0  0  0  0  0  0  0
   47.2959   18.7168   20.8821 N   0  0  0  0  0  0  0  0  0  0  0  0
   45.9793   18.2640   20.6707 N   0  0  0  0  0  0  0  0  0  0  0  0
   45.9124   17.5012   19.4845 N   0  0  0  0  0  0  0  0  0  0  0  0
   44.4064   16.9125   19.1787 S   0  0  0  0  0  0  0  0  0  0  0  0
   43.4134   18.2231   19.2759 N   0  0  0  0  0  0  0  0  0  0  0  0
   41.8913   17.8755   18.7115 S   0  0  0  0  0  0  0  0  0  0  0  0
   41.2264   16.7655   19.7664 N   0  0  0  0  0  0  0  0  0  0  0  0
   40.8987   17.4868   21.2227 S   0  0  0  0  0  0  0  0  0  0  0  0
   40.4985   16.3206   22.3092 N   0  0  0  0  0  0  0  0  0  0  0  0
   41.4043   14.9534   22.2997 S   0  0  0  0  0  0  0  0  0  0  0  0
   42.9026   15.5269   22.6406 N   0  0  0  0  0  0  0  0  0  0  0  0
   43.7157   14.6169   23.7242 S   0  0  0  0  0  0  0  0  0  0  0  0
   42.9713   14.7639   25.2078 N   0  0  0  0  0  0  0  0  0  0  0  0
   43.1217   13.3428   26.0536 S   0  0  0  0  0  0  0  0  0  0  0  0
   44.7218   13.3178   26.4416 N   0  0  0  0  0  0  0  0  0  0  0  0
   45.1527   12.6843   27.8944 S   0  0  0  0  0  0  0  0  0  0  0  0
   43.9791   12.9254   29.0359 N   0  0  0  0  0  0  0  0  0  0  0  0
   44.4387   13.9594   30.2491 S   0  0  0  0  0  0  0  0  0  0  0  0
   43.8155   15.4657   29.9821 N   0  0  0  0  0  0  0  0  0  0  0  0
   42.1929   15.5230   30.2051 S   0  0  0  0  0  0  0  0  0  0  0  0
   41.7323   15.7110   28.6395 N   0  0  0  0  0  0  0  0  0  0  0  0
   40.1593   15.3152   28.4080 S   0  0  0  0  0  0  0  0  0  0  0  0
   39.3498   16.7504   28.5488 N   0  0  0  0  0  0  0  0  0  0  0  0
   39.8159   17.9297   27.4847 S   0  0  0  0  0  0  0  0  0  0  0  0
   40.0718   17.2527   25.9977 N   0  0  0  0  0  0  0  0  0  0  0  0
   40.7059   18.4001   24.9820 S   0  0  0  0  0  0  0  0  0  0  0  0
   42.2527   18.4207   25.5171 N   0  0  0  0  0  0  0  0  0  0  0  0
   43.3402   18.7378   24.3591 S   0  0  0  0  0  0  0  0  0  0  0  0
   44.6644   17.9035   24.8774 N   0  0  0  0  0  0  0  0  0  0  0  0
   45.2926   18.4959   26.2811 S   0  0  0  0  0  0  0  0  0  0  0  0
   44.8672   17.4251   27.4776 N   0  0  0  0  0  0  0  0  0  0  0  0
   45.8777   16.1257   27.5731 S   0  0  0  0  0  0  0  0  0  0  0  0
   47.4903   16.4876   27.6806 N   0  0  0  0  0  0  0  0  0  0  0  0
   48.1741   16.4579   29.1867 S   0  0  0  0  0  0  0  0  0  0  0  0
   47.5242   15.3013   30.1572 N   0  0  0  0  0  0  0  0  0  0  0  0
   48.0347   13.7555   29.9036 S   0  0  0  0  0  0  0  0  0  0  0  0
   49.5934   13.5557   30.3870 N   0  0  0  0  0  0  0  0  0  0  0  0
   49.9617   11.9408   30.4051 S   0  0  0  0  0  0  0  0  0  0  0  0
   51.6162   11.8797   30.3892 N   0  0  0  0  0  0  0  0  0  0  0  0
   52.3368   12.6525   31.6601 S   0  0  0  0  0  0  0  0  0  0  0  0
   51.8725   11.8893   33.0393 N   0  0  0  0  0  0  0  0  0  0  0  0
   52.1173   10.4777   33.0620 N   0  0  0  0  0  0  0  0  0  0  0  0
   53.5015   10.1283   33.1394 N   0  0  0  0  0  0  0  0  0  0  0  0
   54.1237   10.6716   34.3182 N   0  0  0  0  0  0  0  0  0  0  0  0
   53.6458   10.0916   35.5314 N   0  0  0  0  0  0  0  0  0  0  0  0
   53.9855    8.7125   35.6479 N   0  0  0  0  0  0  0  0  0  0  0  0
   55.3963    8.5238   35.4906 N   0  0  0  0  0  0  0  0  0  0  0  0
   56.1091    9.1852   36.5410 N   0  0  0  0  0  0  0  0  0  0  0  0
   55.5182    8.8009   37.7951 N   0  0  0  0  0  0  0  0  0  0  0  0
   55.5423    7.3641   37.9538 N   0  0  0  0  0  0  0  0  0  0  0  0
   56.8845    6.8711   37.9418 N   0  0  0  0  0  0  0  0  0  0  0  0
   57.6535    7.4739   38.9800 N   0  0  0  0  0  0  0  0  0  0  0  0
   57.1673    7.0579   40.2652 N   0  0  0  0  0  0  0  0  0  0  0  0
   57.3141    5.6353   40.4494 N   0  0  0  0  0  0  0  0  0  0  0  0
   58.6767    5.2430   40.2424 N   0  0  0  0  0  0  0  0  0  0  0  0
   59.4591    5.9128   41.2424 N   0  0  0  0  0  0  0  0  0  0  0  0
   59.0133    5.5411   42.6041 N   0  0  0  0  0  0  0  0  0  0  0  0
   59.0590    4.1368   42.8583 N   0  0  0  0  0  0  0  0  0  0  0  0
   60.4094    3.7058   42.7722 N   0  0  0  0  0  0  0  0  0  0  0  0
   61.1769    4.4306   43.7850 N   0  0  0  0  0  0  0  0  0  0  0  0
   60.5982    4.2221   45.1002 N   0  0  0  0  0  0  0  0  0  0  0  0
   60.4907    2.8125   45.3375 N   0  0  0  0  0  0  0  0  0  0  0  0
   61.8063    2.2368   45.1921 N   0  0  0  0  0  0  0  0  0  0  0  0
   62.7649    2.7564   46.1521 N   0  0  0  0  0  0  0  0  0  0  0  0
   62.4366    2.4194   47.5055 N   0  0  0  0  0  0  0  0  0  0  0  0
   62.6618    1.0304   47.7273 N   0  0  0  0  0  0  0  0  0  0  0  0
   62.2663    0.6439   49.0186 N   0  0  0  0  0  0  0  0  0  0  0  0
   62.2109   -1.0026   49.0612 S   0  0  0  0  0  0  0  0  0  0  0  0
   61.6231   -1.3276   50.5559 N   0  0  0  0  0  0  0  0  0  0  0  0
   61.4013   -2.9494   50.7474 S   0  0  0  0  0  0  0  0  0  0  0  0
   61.1258   -3.1119   52.3656 N   0  0  0  0  0  0  0  0  0  0  0  0
   59.5391   -2.8158   52.7297 S   0  0  0  0  0  0  0  0  0  0  0  0
   47.7430   26.5763   22.9392 H   0  0  0  0  0  0  0  0  0  0  0  0
   46.1945   26.4846   24.8214 H   0  0  0  0  0  0  0  0  0  0  0  0
   44.3919   26.3044   23.3367 H   0  0  0  0  0  0  0  0  0  0  0  0
   44.5874   24.8214   24.2572 H   0  0  0  0  0  0  0  0  0  0  0  0
   45.5631   25.2747   21.3868 H   0  0  0  0  0  0  0  0  0  0  0  0
   44.1388   24.3689   21.8817 H   0  0  0  0  0  0  0  0  0  0  0  0
   45.5920   22.7559   23.1406 H   0  0  0  0  0  0  0  0  0  0  0  0
   47.0342   23.6282   22.5832 H   0  0  0  0  0  0  0  0  0  0  0  0
   46.3959   23.1406   20.3261 H   0  0  0  0  0  0  0  0  0  0  0  0
   46.1603   20.6991   21.6833 H   0  0  0  0  0  0  0  0  0  0  0  0
   47.4924   21.6216   19.3419 H   0  0  0  0  0  0  0  0  0  0  0  0
   48.8108   19.9120   20.1701 H   0  0  0  0  0  0  0  0  0  0  0  0
   47.4824   18.8415   21.8712 H   0  0  0  0  0  0  0  0  0  0  0  0
   45.2452   18.9683   20.6958 H   0  0  0  0  0  0  0  0  0  0  0  0
   46.5355   16.7095   19.6163 H   0  0  0  0  0  0  0  0  0  0  0  0
   43.8525   18.9859   18.7559 H   0  0  0  0  0  0  0  0  0  0  0  0
   41.9238   16.0315   19.9186 H   0  0  0  0  0  0  0  0  0  0  0  0
   39.5126   16.1647   22.4397 H   0  0  0  0  0  0  0  0  0  0  0  0
   43.4073   15.8573   21.8067 H   0  0  0  0  0  0  0  0  0  0  0  0
   42.0039   15.1014   25.1742 H   0  0  0  0  0  0  0  0  0  0  0  0
   45.1468   14.2202   26.2179 H   0  0  0  0  0  0  0  0  0  0  0  0
   43.7819   12.0164   29.4613 H   0  0  0  0  0  0  0  0  0  0  0  0
   44.0073   15.8840   29.0640 H   0  0  0  0  0  0  0  0  0  0  0  0
   42.3460   15.1534   28.0446 H   0  0  0  0  0  0  0  0  0  0  0  0
   39.5232   17.0985   29.4923 H   0  0  0  0  0  0  0  0  0  0  0  0
   39.2129   16.8804   25.6152 H   0  0  0  0  0  0  0  0  0  0  0  0
   42.4312   17.5183   25.9523 H   0  0  0  0  0  0  0  0  0  0  0  0
   45.3318   17.8138   24.1212 H   0  0  0  0  0  0  0  0  0  0  0  0
   43.8998   17.0916   27.3857 H   0  0  0  0  0  0  0  0  0  0  0  0
   47.9644   15.8357   27.0872 H   0  0  0  0  0  0  0  0  0  0  0  0
   46.5025   15.3666   30.1298 H   0  0  0  0  0  0  0  0  0  0  0  0
   49.8108   13.9019   31.3226 H   0  0  0  0  0  0  0  0  0  0  0  0
   51.9011   12.3504   29.5269 H   0  0  0  0  0  0  0  0  0  0  0  0
   50.8833   12.0139   33.2163 H   0  0  0  0  0  0  0  0  0  0  0  0
   51.6773   10.0556   32.2392 H   0  0  0  0  0  0  0  0  0  0  0  0
   53.9784   10.5611   32.3557 H   0  0  0  0  0  0  0  0  0  0  0  0
   53.8855   11.6723   34.2899 H   0  0  0  0  0  0  0  0  0  0  0  0
   52.6319   10.1696   35.5675 H   0  0  0  0  0  0  0  0  0  0  0  0
   53.4741    8.2017   34.9235 H   0  0  0  0  0  0  0  0  0  0  0  0
   55.6611    9.0075   34.6387 H   0  0  0  0  0  0  0  0  0  0  0  0
   55.9180   10.1844   36.4013 H   0  0  0  0  0  0  0  0  0  0  0  0
   54.5270    9.0045   37.6775 H   0  0  0  0  0  0  0  0  0  0  0  0
   55.0294    7.0123   37.1277 H   0  0  0  0  0  0  0  0  0  0  0  0
   57.2978    7.2233   37.0810 H   0  0  0  0  0  0  0  0  0  0  0  0
   57.4872    8.4833   38.8511 H   0  0  0  0  0  0  0  0  0  0  0  0
   56.1789    7.2708   40.2768 H   0  0  0  0  0  0  0  0  0  0  0  0
   56.7666    5.1379   39.7582 H   0  0  0  0  0  0  0  0  0  0  0  0
   58.9011    5.6196   39.3097 H   0  0  0  0  0  0  0  0  0  0  0  0
   59.1695    6.8849   41.1730 H   0  0  0  0  0  0  0  0  0  0  0  0
   58.0267    5.8053   42.6014 H   0  0  0  0  0  0  0  0  0  0  0  0
   58.4422    3.6855   42.1633 H   0  0  0  0  0  0  0  0  0  0  0  0
   60.7414    3.9795   41.8336 H   0  0  0  0  0  0  0  0  0  0  0  0
   60.9983    5.4181   43.5969 H   0  0  0  0  0  0  0  0  0  0  0  0
   59.6428    4.5596   45.0021 H   0  0  0  0  0  0  0  0  0  0  0  0
   59.9659    2.5243   44.4976 H   0  0  0  0  0  0  0  0  0  0  0  0
   62.0595    2.6079   44.2571 H   0  0  0  0  0  0  0  0  0  0  0  0
   62.8196    3.7789   46.0241 H   0  0  0  0  0  0  0  0  0  0  0  0
   61.4498    2.6438   47.6755 H   0  0  0  0  0  0  0  0  0  0  0  0
   63.6460    0.7888   47.5568 H   0  0  0  0  0  0  0  0  0  0  0  0
   61.3279    1.0158   49.1598 H   0  0  0  0  0  0  0  0  0  0  0  0
   60.7498   -0.8301   50.7101 H   0  0  0  0  0  0  0  0  0  0  0  0
   61.7321   -2.4516   52.8481 H   0  0  0  0  0  0  0  0  0  0  0  0
   59.0169   -3.2467   51.5723 H   0  0  0  0  0  0  0  0  0  0  0  0
  1  2  1  0  0  0  0
  1 82  1  0  0  0  0
  2  3  1  0  0  0  0
  2 83  1  0  0  0  0
  3  4  1  0  0  0  0
  3 84  1  0  0  0  0
  3 85  1  0  0  0  0
  4  5  1  0  0  0  0
  4 86  1  0  0  0  0
  4 87  1  0  0  0  0
  5  6  1  0  0  0  0
  5 88  1  0  0  0  0
  5 89  1  0  0  0  0
  6  7  1  0  0  0  0
  6 90  1  0  0  0  0
  7  8  1  0  0  0  0
  7 91  1  0  0  0  0
  8  9  1  0  0  0  0
  8 92  1  0  0  0  0
  9 10  1  0  0  0  0
  9 93  1  0  0  0  0
 10 11  1  0  0  0  0
 10 94  1  0  0  0  0
 11 12  1  0  0  0  0
 11 95  1  0  0  0  0
 12 13  1  0  0  0  0
 12 96  1  0  0  0  0
 13 14  1  0  0  0  0
 14 15  1  0  0  0  0
 14 97  1  0  0  0  0
 15 16  1  0  0  0  0
 16 17  1  0  0  0  0
 16 98  1  0  0  0  0
 17 18  1  0  0  0  0
 18 19  1  0  0  0  0
 18 99  1  0  0  0  0
 19 20  1  0  0  0  0
 20 21  1  0  0  0  0
 20100  1  0  0  0  0
 21 22  1  0  0  0  0
 22 23  1  0  0  0  0
 22101  1  0  0  0  0
 23 24  1  0  0  0  0
 24 25  1  0  0  0  0
 24102  1  0  0  0  0
 25 26  1  0  0  0  0
 26 27  1  0  0  0  0
 26103  1  0  0  0  0
 27 28  1  0  0  0  0
 28 29  1  0  0  0  0
 28104  1  0  0  0  0
 29 30  1  0  0  0  0
 30 31  1  0  0  0  0
 30105  1  0  0  0  0
 31 32  1  0  0  0  0
 32 33  1  0  0  0  0
 32106  1  0  0  0  0
 33 34  1  0  0  0  0
 34 35  1  0  0  0  0
 34107  1  0  0  0  0
 35 36  1  0  0  0  0
 36 37  1  0  0  0  0
 36108  1  0  0  0  0
 37 38  1  0  0  0  0
 38 39  1  0  0  0  0
 38109  1  0  0  0  0
 39 40  1  0  0  0  0
 40 41  1  0  0  0  0
 40110  1  0  0  0  0
 41 42  1  0  0  0  0
 42 43  1  0  0  0  0
 42111  1  0  0  0  0
 43 44  1  0  0  0  0
 44 45  1  0  0  0  0
 44112  1  0  0  0  0
 45 46  1  0  0  0  0
 46 47  1  0  0  0  0
 46113  1  0  0  0  0
 47 48  1  0  0  0  0
 48 49  1  0  0  0  0
 48114  1  0  0  0  0
 49 50  1  0  0  0  0
 50 51  1  0  0  0  0
 50115  1  0  0  0  0
 51 52  1  0  0  0  0
 51116  1  0  0  0  0
 52 53  1  0  0  0  0
 52117  1  0  0  0  0
 53 54  1  0  0  0  0
 53118  1  0  0  0  0
 54 55  1  0  0  0  0
 54119  1  0  0  0  0
 55 56  1  0  0  0  0
 55120  1  0  0  0  0
 56 57  1  0  0  0  0
 56121  1  0  0  0  0
 57 58  1  0  0  0  0
 57122  1  0  0  0  0
 58 59  1  0  0  0  0
 58123  1  0  0  0  0
 59 60  1  0  0  0  0
 59124  1  0  0  0  0
 60 61  1  0  0  0  0
 60125  1  0  0  0  0
 61 62  1  0  0  0  0
 61126  1  0  0  0  0
 62 63  1  0  0  0  0
 62127  1  0  0  0  0
 63 64  1  0  0  0  0
 63128  1  0  0  0  0
 64 65  1  0  0  0  0
 64129  1  0  0  0  0
 65 66  1  0  0  0  0
 65130  1  0  0  0  0
 66 67  1  0  0  0  0
 66131  1  0  0  0  0
 67 68  1  0  0  0  0
 67132  1  0  0  0  0
 68 69  1  0  0  0  0
 68133  1  0  0  0  0
 69 70  1  0  0  0  0
 69134  1  0  0  0  0
 70 71  1  0  0  0  0
 70135  1  0  0  0  0
 71 72  1  0  0  0  0
 71136  1  0  0  0  0
 72 73  1  0  0  0  0
 72137  1  0  0  0  0
 73 74  1  0  0  0  0
 73138  1  0  0  0  0
 74 75  1  0  0  0  0
 74139  1  0  0  0  0
 75 76  1  0  0  0  0
 75140  1  0  0  0  0
 76 77  1  0  0  0  0
 76141  1  0  0  0  0
 77 78  1  0  0  0  0
 78 79  1  0  0  0  0
 78142  1  0  0  0  0
 79 80  1  0  0  0  0
 80 81  1  0  0  0  0
 80143  1  0  0  0  0
 81144  1  0  0  0  0
M  END
$$$$
