
 OpenBabel04232216453D

 60 61  0  0  1  0  0  0  0  0999 V2000
    4.1619   -2.0503    0.7631 C   0  0  0  0  0  0  0  0  0  0  0  0
    5.2583   -2.1674   -0.3236 C   0  0  0  0  0  0  0  0  0  0  0  0
    4.7062   -1.5748   -1.4822 C   0  0  0  0  0  0  0  0  0  0  0  0
    4.8559   -0.2835   -1.7930 C   0  0  0  0  0  0  0  0  0  0  0  0
    5.2719    0.8097   -0.8178 C   0  0  0  0  0  0  0  0  0  0  0  0
    5.3394   -0.2101   -3.2182 C   0  0  3  0  0  0  0  0  0  0  0  0
    4.5704    0.4626   -4.3313 C   0  0  0  0  0  0  0  0  0  0  0  0
    6.7944    0.1984   -3.0749 C   0  0  0  0  0  0  0  0  0  0  0  0
    7.5788   -0.5066   -4.1083 C   0  0  0  0  0  0  0  0  0  0  0  0
    8.9576   -0.7330   -3.5476 C   0  0  0  0  0  0  0  0  0  0  0  0
    9.6614    0.0904   -2.9928 O   0  0  0  0  0  0  0  0  0  0  0  0
    9.4187   -2.0648   -3.9571 C   0  0  0  0  0  0  0  0  0  0  0  0
    8.9157   -3.0676   -3.1933 C   0  0  0  0  0  0  0  0  0  0  0  0
    8.8466   -3.1125   -1.7173 C   0  0  0  0  0  0  0  0  0  0  0  0
   10.3026   -3.6276   -1.2909 C   0  0  0  0  0  0  0  0  0  0  0  0
   11.4364   -3.9766   -2.3638 C   0  0  0  0  0  0  0  0  0  0  0  0
   12.3683   -3.1906   -2.5660 O   0  0  0  0  0  0  0  0  0  0  0  0
   11.4294   -5.3581   -3.0731 C   0  0  0  0  0  0  0  0  0  0  0  0
   12.0904   -5.4233   -4.4873 C   0  0  0  0  0  0  0  0  0  0  0  0
   11.2807   -6.1846   -5.5748 C   0  0  0  0  0  0  0  0  0  0  0  0
   10.7169   -5.3717   -6.7575 C   0  0  0  0  0  0  0  0  0  0  0  0
    9.8195   -4.2339   -6.3122 C   0  0  0  0  0  0  0  0  0  0  0  0
   10.5916   -2.9352   -6.2136 C   0  0  0  0  0  0  0  0  0  0  0  0
    9.8988   -1.8757   -5.3910 C   0  0  0  0  0  0  0  0  0  0  0  0
    7.9056   -2.9301   -0.7179 C   0  0  0  0  0  0  0  0  0  0  0  0
    6.4959   -2.6785   -0.1478 C   0  0  0  0  0  0  0  0  0  0  0  0
    3.1839   -2.3519    0.3649 H   0  0  0  0  0  0  0  0  0  0  0  0
    4.0402   -0.9992    1.0776 H   0  0  0  0  0  0  0  0  0  0  0  0
    4.3494   -2.6400    1.6611 H   0  0  0  0  0  0  0  0  0  0  0  0
    4.3266   -2.2964   -2.2019 H   0  0  0  0  0  0  0  0  0  0  0  0
    4.4623    1.0720   -0.1295 H   0  0  0  0  0  0  0  0  0  0  0  0
    5.5608    1.7387   -1.3242 H   0  0  0  0  0  0  0  0  0  0  0  0
    6.1327    0.4970   -0.2144 H   0  0  0  0  0  0  0  0  0  0  0  0
    5.3378   -1.2518   -3.5840 H   0  0  0  0  0  0  0  0  0  0  0  0
    4.7244    1.5395   -4.3592 H   0  0  0  0  0  0  0  0  0  0  0  0
    3.5048    0.2264   -4.2703 H   0  0  0  0  0  0  0  0  0  0  0  0
    4.9278    0.0470   -5.2863 H   0  0  0  0  0  0  0  0  0  0  0  0
    7.1963   -0.1341   -2.1021 H   0  0  0  0  0  0  0  0  0  0  0  0
    6.9526    1.2770   -3.1194 H   0  0  0  0  0  0  0  0  0  0  0  0
    7.5814   -0.0057   -5.0749 H   0  0  0  0  0  0  0  0  0  0  0  0
    7.1458   -1.5069   -4.2771 H   0  0  0  0  0  0  0  0  0  0  0  0
    8.9484   -4.0753   -3.5839 H   0  0  0  0  0  0  0  0  0  0  0  0
   10.2031   -4.5140   -0.6498 H   0  0  0  0  0  0  0  0  0  0  0  0
   10.7465   -2.8405   -0.6619 H   0  0  0  0  0  0  0  0  0  0  0  0
   10.4059   -5.7330   -3.1074 H   0  0  0  0  0  0  0  0  0  0  0  0
   12.0019   -6.0339   -2.4236 H   0  0  0  0  0  0  0  0  0  0  0  0
   13.0328   -5.9816   -4.3822 H   0  0  0  0  0  0  0  0  0  0  0  0
   12.4172   -4.4462   -4.8345 H   0  0  0  0  0  0  0  0  0  0  0  0
   10.4553   -6.7371   -5.1112 H   0  0  0  0  0  0  0  0  0  0  0  0
   11.9308   -6.9471   -6.0251 H   0  0  0  0  0  0  0  0  0  0  0  0
   10.1119   -6.0478   -7.3767 H   0  0  0  0  0  0  0  0  0  0  0  0
   11.5219   -5.0066   -7.4072 H   0  0  0  0  0  0  0  0  0  0  0  0
    9.3580   -4.5235   -5.3767 H   0  0  0  0  0  0  0  0  0  0  0  0
    8.9904   -4.0905   -7.0156 H   0  0  0  0  0  0  0  0  0  0  0  0
   10.7087   -2.5376   -7.2341 H   0  0  0  0  0  0  0  0  0  0  0  0
   11.6139   -3.0490   -5.8566 H   0  0  0  0  0  0  0  0  0  0  0  0
    9.0489   -1.5315   -5.9937 H   0  0  0  0  0  0  0  0  0  0  0  0
   10.6016   -1.0247   -5.3838 H   0  0  0  0  0  0  0  0  0  0  0  0
    8.4447   -3.1075    0.2325 H   0  0  0  0  0  0  0  0  0  0  0  0
    6.5839   -3.0156    0.8898 H   0  0  0  0  0  0  0  0  0  0  0  0
  1  2  1  0  0  0  0
  1 27  1  0  0  0  0
  1 28  1  0  0  0  0
  1 29  1  0  0  0  0
  2  3  1  0  0  0  0
  2 26  2  3  0  0  0
  3  4  2  3  0  0  0
  3 30  1  0  0  0  0
  4  5  1  0  0  0  0
  4  6  1  0  0  0  0
  5 31  1  0  0  0  0
  5 32  1  0  0  0  0
  5 33  1  0  0  0  0
  6  7  1  0  0  0  0
  6  8  1  0  0  0  0
  6 34  1  0  0  0  0
  7 35  1  0  0  0  0
  7 36  1  0  0  0  0
  7 37  1  0  0  0  0
  8  9  1  0  0  0  0
  8 38  1  0  0  0  0
  8 39  1  0  0  0  0
  9 10  1  0  0  0  0
  9 40  1  0  0  0  0
  9 41  1  0  0  0  0
 10 11  2  0  0  0  0
 10 12  1  0  0  0  0
 12 13  2  3  0  0  0
 12 24  1  0  0  0  0
 13 14  1  0  0  0  0
 13 42  1  0  0  0  0
 14 15  1  0  0  0  0
 14 25  2  3  0  0  0
 15 16  1  0  0  0  0
 15 43  1  0  0  0  0
 15 44  1  0  0  0  0
 16 17  2  0  0  0  0
 16 18  1  0  0  0  0
 18 19  1  0  0  0  0
 18 45  1  0  0  0  0
 18 46  1  0  0  0  0
 19 20  1  0  0  0  0
 19 47  1  0  0  0  0
 19 48  1  0  0  0  0
 20 21  1  0  0  0  0
 20 49  1  0  0  0  0
 20 50  1  0  0  0  0
 21 22  1  0  0  0  0
 21 51  1  0  0  0  0
 21 52  1  0  0  0  0
 22 23  1  0  0  0  0
 22 53  1  0  0  0  0
 22 54  1  0  0  0  0
 23 24  1  0  0  0  0
 23 55  1  0  0  0  0
 23 56  1  0  0  0  0
 24 57  1  0  0  0  0
 24 58  1  0  0  0  0
 25 26  1  0  0  0  0
 25 59  1  0  0  0  0
 26 60  1  0  0  0  0
M  END
$$$$
