
 OpenBabel04232216473D

 64 66  0  0  0  0  0  0  0  0999 V2000
    1.4073    0.1290   -0.2526 C   0  0  0  0  0  0  0  0  0  0  0  0
    2.4226    0.1809    0.8655 C   0  0  0  0  0  0  0  0  0  0  0  0
    3.6052    1.0437    0.6152 C   0  0  0  0  0  0  0  0  0  0  0  0
    4.8888    0.5659    0.6246 C   0  0  0  0  0  0  0  0  0  0  0  0
    5.4650   -0.0954   -0.4629 N   0  0  0  0  0  0  0  0  0  0  0  0
    6.3036    0.6633   -1.4036 C   0  0  0  0  0  0  0  0  0  0  0  0
    5.4687    1.1667   -2.5844 C   0  0  0  0  0  0  0  0  0  0  0  0
    5.0781    0.0954   -3.6024 C   0  0  0  0  0  0  0  0  0  0  0  0
    4.3963   -1.1389   -3.0132 C   0  0  0  0  0  0  0  0  0  0  0  0
    5.3362   -1.9611   -2.1325 C   0  0  0  0  0  0  0  0  0  0  0  0
    5.3236   -1.5355   -0.6623 C   0  0  0  0  0  0  0  0  0  0  0  0
    5.8252    0.9621    1.7577 C   0  0  0  0  0  0  0  0  0  0  0  0
    7.1364    0.6001    2.1555 C   0  0  0  0  0  0  0  0  0  0  0  0
    8.1719   -0.4090    1.7480 C   0  0  0  0  0  0  0  0  0  0  0  0
    7.0592    1.4863    3.1973 C   0  0  0  0  0  0  0  0  0  0  0  0
    8.1457    1.8599    4.2153 C   0  0  0  0  0  0  0  0  0  0  0  0
    9.1767    2.8407    3.5716 C   0  0  0  0  0  0  0  0  0  0  0  0
   10.5979    2.8098    4.1877 C   0  0  0  0  0  0  0  0  0  0  0  0
   11.4888    3.9347    3.6152 C   0  0  0  0  0  0  0  0  0  0  0  0
   12.9087    3.9740    4.2015 C   0  0  0  0  0  0  0  0  0  0  0  0
   13.7164    5.1387    3.6301 C   0  0  0  0  0  0  0  0  0  0  0  0
    5.6420    1.4737    2.9921 C   0  0  0  0  0  0  0  0  0  0  0  0
    4.3268    1.5482    3.6109 C   0  0  0  0  0  0  0  0  0  0  0  0
    3.3948    1.8196    4.4999 C   0  0  0  0  0  0  0  0  0  0  0  0
    1.9962    1.4296    4.1482 C   0  0  0  0  0  0  0  0  0  0  0  0
    1.4822    0.6326    3.1926 C   0  0  0  0  0  0  0  0  0  0  0  0
    1.9871   -0.2415    2.0880 C   0  0  0  0  0  0  0  0  0  0  0  0
    0.4206    0.4281    0.1346 H   0  0  0  0  0  0  0  0  0  0  0  0
    1.3124   -0.8763   -0.6696 H   0  0  0  0  0  0  0  0  0  0  0  0
    1.6366    0.8341   -1.0575 H   0  0  0  0  0  0  0  0  0  0  0  0
    3.4193    1.9761    1.1522 H   0  0  0  0  0  0  0  0  0  0  0  0
    7.1605    0.0713   -1.7454 H   0  0  0  0  0  0  0  0  0  0  0  0
    6.7345    1.5377   -0.8980 H   0  0  0  0  0  0  0  0  0  0  0  0
    6.0438    1.9359   -3.1154 H   0  0  0  0  0  0  0  0  0  0  0  0
    4.5596    1.6596   -2.2197 H   0  0  0  0  0  0  0  0  0  0  0  0
    5.9696   -0.2142   -4.1627 H   0  0  0  0  0  0  0  0  0  0  0  0
    4.4019    0.5502   -4.3374 H   0  0  0  0  0  0  0  0  0  0  0  0
    4.0688   -1.7691   -3.8490 H   0  0  0  0  0  0  0  0  0  0  0  0
    3.4923   -0.8537   -2.4633 H   0  0  0  0  0  0  0  0  0  0  0  0
    6.3577   -1.9233   -2.5338 H   0  0  0  0  0  0  0  0  0  0  0  0
    5.0409   -3.0150   -2.1799 H   0  0  0  0  0  0  0  0  0  0  0  0
    6.1362   -2.0574   -0.1449 H   0  0  0  0  0  0  0  0  0  0  0  0
    4.3900   -1.8859   -0.2078 H   0  0  0  0  0  0  0  0  0  0  0  0
    7.8231   -1.1090    0.9930 H   0  0  0  0  0  0  0  0  0  0  0  0
    8.4982   -0.9512    2.6472 H   0  0  0  0  0  0  0  0  0  0  0  0
    9.0822    0.0970    1.4213 H   0  0  0  0  0  0  0  0  0  0  0  0
    8.7174    0.9486    4.4318 H   0  0  0  0  0  0  0  0  0  0  0  0
    7.7366    2.2822    5.1368 H   0  0  0  0  0  0  0  0  0  0  0  0
    8.7724    3.8573    3.6479 H   0  0  0  0  0  0  0  0  0  0  0  0
    9.2802    2.6332    2.4980 H   0  0  0  0  0  0  0  0  0  0  0  0
   11.0666    1.8407    3.9732 H   0  0  0  0  0  0  0  0  0  0  0  0
   10.5376    2.9092    5.2767 H   0  0  0  0  0  0  0  0  0  0  0  0
   11.0069    4.9012    3.8049 H   0  0  0  0  0  0  0  0  0  0  0  0
   11.5626    3.8215    2.5265 H   0  0  0  0  0  0  0  0  0  0  0  0
   13.4364    3.0381    3.9839 H   0  0  0  0  0  0  0  0  0  0  0  0
   12.8658    4.0779    5.2917 H   0  0  0  0  0  0  0  0  0  0  0  0
   13.8150    5.0564    2.5425 H   0  0  0  0  0  0  0  0  0  0  0  0
   14.7254    5.1587    4.0569 H   0  0  0  0  0  0  0  0  0  0  0  0
   13.2395    6.0981    3.8571 H   0  0  0  0  0  0  0  0  0  0  0  0
    3.8174    0.9565    2.8863 H   0  0  0  0  0  0  0  0  0  0  0  0
    3.5603    2.3823    5.4039 H   0  0  0  0  0  0  0  0  0  0  0  0
    1.2632    1.9065    4.8043 H   0  0  0  0  0  0  0  0  0  0  0  0
    0.3880    0.5179    3.2326 H   0  0  0  0  0  0  0  0  0  0  0  0
    1.2822   -1.0806    2.0369 H   0  0  0  0  0  0  0  0  0  0  0  0
  1  2  1  0  0  0  0
  1 28  1  0  0  0  0
  1 29  1  0  0  0  0
  1 30  1  0  0  0  0
  2  3  1  0  0  0  0
  2 27  2  0  0  0  0
  3  4  2  0  0  0  0
  3 31  1  0  0  0  0
  4  5  1  0  0  0  0
  4 12  1  0  0  0  0
  5  6  1  0  0  0  0
  5 11  1  0  0  0  0
  6  7  1  0  0  0  0
  6 32  1  0  0  0  0
  6 33  1  0  0  0  0
  7  8  1  0  0  0  0
  7 34  1  0  0  0  0
  7 35  1  0  0  0  0
  8  9  1  0  0  0  0
  8 36  1  0  0  0  0
  8 37  1  0  0  0  0
  9 10  1  0  0  0  0
  9 38  1  0  0  0  0
  9 39  1  0  0  0  0
 10 11  1  0  0  0  0
 10 40  1  0  0  0  0
 10 41  1  0  0  0  0
 11 42  1  0  0  0  0
 11 43  1  0  0  0  0
 12 13  1  0  0  0  0
 12 22  2  0  0  0  0
 13 14  1  0  0  0  0
 13 15  2  0  0  0  0
 14 44  1  0  0  0  0
 14 45  1  0  0  0  0
 14 46  1  0  0  0  0
 15 16  1  0  0  0  0
 15 22  1  0  0  0  0
 16 17  1  0  0  0  0
 16 47  1  0  0  0  0
 16 48  1  0  0  0  0
 17 18  1  0  0  0  0
 17 49  1  0  0  0  0
 17 50  1  0  0  0  0
 18 19  1  0  0  0  0
 18 51  1  0  0  0  0
 18 52  1  0  0  0  0
 19 20  1  0  0  0  0
 19 53  1  0  0  0  0
 19 54  1  0  0  0  0
 20 21  1  0  0  0  0
 20 55  1  0  0  0  0
 20 56  1  0  0  0  0
 21 57  1  0  0  0  0
 21 58  1  0  0  0  0
 21 59  1  0  0  0  0
 22 23  1  0  0  0  0
 23 24  2  0  0  0  0
 23 60  1  0  0  0  0
 24 25  1  0  0  0  0
 24 61  1  0  0  0  0
 25 26  2  0  0  0  0
 25 62  1  0  0  0  0
 26 27  1  0  0  0  0
 26 63  1  0  0  0  0
 27 64  1  0  0  0  0
M  END
$$$$
