
 OpenBabel04232216503D

143143  0  0  0  0  0  0  0  0999 V2000
  174.2282   20.9525  -39.8994 C   0  0  0  0  0  0  0  0  0  0  0  0
  172.0602   20.1675  -38.0041 C   0  0  0  0  0  0  0  0  0  0  0  0
  174.4902   20.8881  -39.7370 C   0  0  0  0  0  0  0  0  0  0  0  0
  177.1889   21.8792  -41.7260 C   0  0  0  0  0  0  0  0  0  0  0  0
  179.4208   22.7727  -43.3599 C   0  0  0  0  0  0  0  0  0  0  0  0
  181.9493   24.0489  -45.2377 C   0  0  0  0  0  0  0  0  0  0  0  0
  183.6458   24.9415  -47.0836 N   0  0  0  0  0  0  0  0  0  0  0  0
  182.6234   25.1514  -47.4498 C   0  0  0  0  0  0  0  0  0  0  0  0
  181.8409   25.4670  -46.2458 C   0  0  0  0  0  0  0  0  0  0  0  0
  181.8887   25.0356  -44.1644 C   0  0  0  0  0  0  0  0  0  0  0  0
  180.2726   24.5152  -44.7281 C   0  0  0  0  0  0  0  0  0  0  0  0
  180.6515   23.9579  -42.7522 C   0  0  0  0  0  0  0  0  0  0  0  0
  178.7235   24.2242  -43.2965 C   0  0  0  0  0  0  0  0  0  0  0  0
  177.5457   24.1897  -42.5544 C   0  0  0  0  0  0  0  0  0  0  0  0
  176.4083   23.4615  -42.1809 C   0  0  0  0  0  0  0  0  0  0  0  0
  176.5069   22.9449  -40.3075 C   0  0  0  0  0  0  0  0  0  0  0  0
  174.6186   22.7642  -40.8607 C   0  0  0  0  0  0  0  0  0  0  0  0
  173.5092   22.3908  -39.3367 C   0  0  0  0  0  0  0  0  0  0  0  0
  174.3564   22.5016  -38.5100 C   0  0  0  0  0  0  0  0  0  0  0  0
  172.6295   21.7855  -37.8437 C   0  0  0  0  0  0  0  0  0  0  0  0
  170.5482   21.0546  -38.0647 C   0  0  0  0  0  0  0  0  0  0  0  0
  171.1698   21.9323  -38.4700 C   0  0  0  0  0  0  0  0  0  0  0  0
  169.3265   21.2204  -37.3382 C   0  0  0  0  0  0  0  0  0  0  0  0
  168.2488   20.7929  -35.5765 C   0  0  0  0  0  0  0  0  0  0  0  0
  166.8893   20.3921  -35.5770 C   0  0  0  0  0  0  0  0  0  0  0  0
  166.6667   20.1839  -34.2853 C   0  0  0  0  0  0  0  0  0  0  0  0
  165.2075   20.2079  -34.6015 C   0  0  0  0  0  0  0  0  0  0  0  0
  163.9432   20.0018  -33.9117 C   0  0  0  0  0  0  0  0  0  0  0  0
  162.7731   19.4698  -32.9691 C   0  0  0  0  0  0  0  0  0  0  0  0
  161.6891   18.8827  -32.0605 C   0  0  0  0  0  0  0  0  0  0  0  0
  159.7996   19.2599  -32.3333 C   0  0  0  0  0  0  0  0  0  0  0  0
  160.1051   18.7912  -30.5839 C   0  0  0  0  0  0  0  0  0  0  0  0
  158.5809   18.5150  -30.3914 C   0  0  0  0  0  0  0  0  0  0  0  0
  158.0924   18.5021  -28.9718 C   0  0  0  0  0  0  0  0  0  0  0  0
  156.7650   17.9648  -28.9680 C   0  0  0  0  0  0  0  0  0  0  0  0
  156.8983   18.2561  -27.3553 C   0  0  0  0  0  0  0  0  0  0  0  0
  154.9789   17.5222  -27.6376 C   0  0  0  0  0  0  0  0  0  0  0  0
  154.3407   17.4385  -26.3114 C   0  0  0  0  0  0  0  0  0  0  0  0
  152.7499   16.7998  -26.5241 C   0  0  0  0  0  0  0  0  0  0  0  0
  152.0719   16.7764  -25.4548 C   0  0  0  0  0  0  0  0  0  0  0  0
  150.6708   16.3907  -25.3092 C   0  0  0  0  0  0  0  0  0  0  0  0
  150.2353   17.0048  -24.0360 C   0  0  0  0  0  3  0  0  0  0  0  0
  148.9851   16.4877  -24.5913 C   0  0  0  0  0  0  0  0  0  0  0  0
  147.8369   15.5893  -23.6944 C   0  0  0  0  0  0  0  0  0  0  0  0
  147.4383   15.5344  -22.5776 C   0  0  0  0  0  0  0  0  0  0  0  0
  149.8494   15.6258  -23.5849 C   0  0  0  0  0  0  0  0  0  0  0  0
  152.1503   15.5909  -24.6711 C   0  0  0  0  0  0  0  0  0  0  0  0
  155.0170   15.9793  -26.5429 C   0  0  0  0  0  0  0  0  0  0  0  0
  157.5138   16.4866  -28.1556 C   0  0  0  0  0  0  0  0  0  0  0  0
  160.4844   17.1712  -30.0660 C   0  0  0  0  0  0  0  0  0  0  0  0
  163.1247   17.7478  -31.7441 C   0  0  0  0  0  0  0  0  0  0  0  0
  166.1742   18.5461  -33.9740 C   0  0  0  0  0  0  0  0  0  0  0  0
  168.8416   19.2724  -35.9601 C   0  0  0  0  0  0  0  0  0  0  0  0
  175.8183   21.6517  -41.1707 H   0  0  0  0  0  0  0  0  0  0  0  0
  175.7922   21.5666  -41.2448 H   0  0  0  0  0  0  0  0  0  0  0  0
  175.8504   21.7169  -41.0893 H   0  0  0  0  0  0  0  0  0  0  0  0
  176.4864   20.9350  -40.5095 H   0  0  0  0  0  0  0  0  0  0  0  0
  179.0089   22.2976  -42.9437 H   0  0  0  0  0  0  0  0  0  0  0  0
  181.3168   23.2680  -44.6671 H   0  0  0  0  0  0  0  0  0  0  0  0
  183.6022   25.2117  -46.3393 H   0  0  0  0  0  0  0  0  0  0  0  0
  183.5307   25.5529  -45.8877 H   0  0  0  0  0  0  0  0  0  0  0  0
  184.2046   24.3792  -48.0819 H   0  0  0  0  0  0  0  0  0  0  0  0
  182.3743   24.0949  -48.1966 H   0  0  0  0  0  0  0  0  0  0  0  0
  181.8589   25.6824  -48.3204 H   0  0  0  0  0  0  0  0  0  0  0  0
  182.8675   25.3427  -44.9627 H   0  0  0  0  0  0  0  0  0  0  0  0
  182.1278   25.2259  -47.1682 H   0  0  0  0  0  0  0  0  0  0  0  0
  181.8703   25.9764  -44.0908 H   0  0  0  0  0  0  0  0  0  0  0  0
  183.2900   25.0910  -43.6031 H   0  0  0  0  0  0  0  0  0  0  0  0
  179.9221   23.3768  -45.3476 H   0  0  0  0  0  0  0  0  0  0  0  0
  180.8557   24.9818  -45.2953 H   0  0  0  0  0  0  0  0  0  0  0  0
  181.4077   24.3381  -42.5011 H   0  0  0  0  0  0  0  0  0  0  0  0
  180.8141   22.4127  -42.6877 H   0  0  0  0  0  0  0  0  0  0  0  0
  178.4830   23.6582  -42.2556 H   0  0  0  0  0  0  0  0  0  0  0  0
  178.5180   23.5215  -44.2358 H   0  0  0  0  0  0  0  0  0  0  0  0
  176.6161   23.7829  -43.2809 H   0  0  0  0  0  0  0  0  0  0  0  0
  176.8613   25.2157  -42.6898 H   0  0  0  0  0  0  0  0  0  0  0  0
  176.8090   23.4836  -41.1943 H   0  0  0  0  0  0  0  0  0  0  0  0
  176.6223   22.4788  -43.1114 H   0  0  0  0  0  0  0  0  0  0  0  0
  175.6161   23.1651  -40.1357 H   0  0  0  0  0  0  0  0  0  0  0  0
  177.0946   23.8715  -39.6963 H   0  0  0  0  0  0  0  0  0  0  0  0
  174.6049   22.7765  -41.9091 H   0  0  0  0  0  0  0  0  0  0  0  0
  174.3593   23.4988  -40.3756 H   0  0  0  0  0  0  0  0  0  0  0  0
  173.8058   23.3904  -39.2866 H   0  0  0  0  0  0  0  0  0  0  0  0
  174.8850   22.7642  -38.3663 H   0  0  0  0  0  0  0  0  0  0  0  0
  172.8370   23.1149  -38.7886 H   0  0  0  0  0  0  0  0  0  0  0  0
  173.8577   22.5688  -37.6584 H   0  0  0  0  0  0  0  0  0  0  0  0
  172.3557   22.6878  -37.6026 H   0  0  0  0  0  0  0  0  0  0  0  0
  173.0263   20.8494  -37.0991 H   0  0  0  0  0  0  0  0  0  0  0  0
  170.3062   22.0606  -38.5308 H   0  0  0  0  0  0  0  0  0  0  0  0
  170.7935   21.4695  -37.0640 H   0  0  0  0  0  0  0  0  0  0  0  0
  171.2308   21.2217  -39.7546 H   0  0  0  0  0  0  0  0  0  0  0  0
  170.9442   22.7349  -39.4419 H   0  0  0  0  0  0  0  0  0  0  0  0
  168.3573   21.0391  -38.0083 H   0  0  0  0  0  0  0  0  0  0  0  0
  168.9251   21.6333  -36.3959 H   0  0  0  0  0  0  0  0  0  0  0  0
  167.9872   21.4100  -34.8916 H   0  0  0  0  0  0  0  0  0  0  0  0
  169.0904   20.1318  -34.6061 H   0  0  0  0  0  0  0  0  0  0  0  0
  166.5045   19.6545  -36.2185 H   0  0  0  0  0  0  0  0  0  0  0  0
  166.5351   21.3712  -35.7301 H   0  0  0  0  0  0  0  0  0  0  0  0
  165.6779   19.9665  -34.0448 H   0  0  0  0  0  0  0  0  0  0  0  0
  166.9522   20.2971  -33.3021 H   0  0  0  0  0  0  0  0  0  0  0  0
  164.7854   20.4505  -35.4746 H   0  0  0  0  0  0  0  0  0  0  0  0
  164.4022   20.1110  -33.6593 H   0  0  0  0  0  0  0  0  0  0  0  0
  163.4227   18.8443  -34.4375 H   0  0  0  0  0  0  0  0  0  0  0  0
  164.1104   21.4223  -34.4951 H   0  0  0  0  0  0  0  0  0  0  0  0
  162.2124   19.0891  -33.7388 H   0  0  0  0  0  0  0  0  0  0  0  0
  162.6802   20.3696  -32.5371 H   0  0  0  0  0  0  0  0  0  0  0  0
  162.6330   19.0341  -30.8010 H   0  0  0  0  0  0  0  0  0  0  0  0
  162.2763   17.5024  -32.8358 H   0  0  0  0  0  0  0  0  0  0  0  0
  160.5908   19.6834  -33.0349 H   0  0  0  0  0  0  0  0  0  0  0  0
  160.1042   18.2820  -32.1443 H   0  0  0  0  0  0  0  0  0  0  0  0
  161.4593   18.3408  -29.9198 H   0  0  0  0  0  0  0  0  0  0  0  0
  159.8982   18.5225  -29.0936 H   0  0  0  0  0  0  0  0  0  0  0  0
  158.3549   19.4543  -30.2212 H   0  0  0  0  0  0  0  0  0  0  0  0
  158.8300   17.9102  -29.7277 H   0  0  0  0  0  0  0  0  0  0  0  0
  157.4891   17.7121  -28.8023 H   0  0  0  0  0  0  0  0  0  0  0  0
  157.8605   19.6924  -28.7253 H   0  0  0  0  0  0  0  0  0  0  0  0
  156.2239   17.6945  -29.8513 H   0  0  0  0  0  0  0  0  0  0  0  0
  156.3008   18.6131  -28.3194 H   0  0  0  0  0  0  0  0  0  0  0  0
  157.6697   17.6078  -26.8165 H   0  0  0  0  0  0  0  0  0  0  0  0
  158.1973   19.1818  -27.2111 H   0  0  0  0  0  0  0  0  0  0  0  0
  154.4574   16.3951  -27.9128 H   0  0  0  0  0  0  0  0  0  0  0  0
  154.4022   18.0177  -28.3455 H   0  0  0  0  0  0  0  0  0  0  0  0
  154.0190   17.8489  -25.5036 H   0  0  0  0  0  0  0  0  0  0  0  0
  155.6087   16.4588  -25.5300 H   0  0  0  0  0  0  0  0  0  0  0  0
  152.4118   15.8165  -26.5353 H   0  0  0  0  0  0  0  0  0  0  0  0
  152.2924   17.3151  -27.1572 H   0  0  0  0  0  0  0  0  0  0  0  0
  152.4888   16.8858  -23.9966 H   0  0  0  0  0  0  0  0  0  0  0  0
  152.4826   14.9690  -25.6906 H   0  0  0  0  0  0  0  0  0  0  0  0
  150.6941   15.1072  -25.3990 H   0  0  0  0  0  0  0  0  0  0  0  0
  150.2037   16.7428  -25.9465 H   0  0  0  0  0  0  0  0  0  0  0  0
  150.4983   16.7024  -22.7705 H   0  0  0  0  0  0  0  0  0  0  0  0
  148.1122   15.6647  -24.7579 H   0  0  0  0  0  0  0  0  0  0  0  0
  148.8719   16.7327  -22.8450 H   0  0  0  0  0  0  0  0  0  0  0  0
  148.6600   14.3558  -23.9422 H   0  0  0  0  0  0  0  0  0  0  0  0
  145.7265   15.3733  -22.6909 H   0  0  0  0  0  0  0  0  0  0  0  0
  147.8964   16.7153  -23.0320 H   0  0  0  0  0  0  0  0  0  0  0  0
  150.2814   15.1126  -23.5890 H   0  0  0  0  0  0  0  0  0  0  0  0
  153.2660   15.6665  -25.0373 H   0  0  0  0  0  0  0  0  0  0  0  0
  155.7185   16.0702  -26.8806 H   0  0  0  0  0  0  0  0  0  0  0  0
  158.7402   16.7212  -28.9577 H   0  0  0  0  0  0  0  0  0  0  0  0
  161.5114   17.3673  -30.8848 H   0  0  0  0  0  0  0  0  0  0  0  0
  164.6859   18.3868  -33.0938 H   0  0  0  0  0  0  0  0  0  0  0  0
  170.5035   19.5942  -36.5622 H   0  0  0  0  0  0  0  0  0  0  0  0
  1  2  1  0  0  0  0
  1 54  1  0  0  0  0
  1 55  1  0  0  0  0
  1 56  1  0  0  0  0
  2  3  2  3  0  0  0
  2 53  1  0  0  0  0
  3  4  1  0  0  0  0
  3 57  1  0  0  0  0
  4  5  2  3  0  0  0
  4 58  1  0  0  0  0
  5  6  1  0  0  0  0
  5 59  1  0  0  0  0
  6  7  1  0  0  0  0
  6 60  1  0  0  0  0
  6 61  1  0  0  0  0
  7  8  1  0  0  0  0
  7 62  1  0  0  0  0
  8  9  1  0  0  0  0
  8 63  1  0  0  0  0
  8 64  1  0  0  0  0
  9 10  1  0  0  0  0
  9 65  1  0  0  0  0
  9 66  1  0  0  0  0
 10 11  1  0  0  0  0
 10 67  1  0  0  0  0
 10 68  1  0  0  0  0
 11 12  1  0  0  0  0
 11 69  1  0  0  0  0
 11 70  1  0  0  0  0
 12 13  1  0  0  0  0
 12 71  1  0  0  0  0
 12 72  1  0  0  0  0
 13 14  1  0  0  0  0
 13 73  1  0  0  0  0
 13 74  1  0  0  0  0
 14 15  1  0  0  0  0
 14 75  1  0  0  0  0
 14 76  1  0  0  0  0
 15 16  1  0  0  0  0
 15 77  1  0  0  0  0
 15 78  1  0  0  0  0
 16 17  1  0  0  0  0
 16 79  1  0  0  0  0
 16 80  1  0  0  0  0
 17 18  1  0  0  0  0
 17 81  1  0  0  0  0
 17 82  1  0  0  0  0
 18 19  1  0  0  0  0
 18 83  1  0  0  0  0
 18 84  1  0  0  0  0
 19 20  1  0  0  0  0
 19 85  1  0  0  0  0
 19 86  1  0  0  0  0
 20 21  1  0  0  0  0
 20 87  1  0  0  0  0
 20 88  1  0  0  0  0
 21 22  1  0  0  0  0
 21 89  1  0  0  0  0
 21 90  1  0  0  0  0
 22 23  1  0  0  0  0
 22 91  1  0  0  0  0
 22 92  1  0  0  0  0
 23 24  1  0  0  0  0
 23 93  1  0  0  0  0
 23 94  1  0  0  0  0
 24 25  1  0  0  0  0
 24 95  1  0  0  0  0
 24 96  1  0  0  0  0
 25 26  1  0  0  0  0
 25 97  1  0  0  0  0
 25 98  1  0  0  0  0
 26 27  1  0  0  0  0
 26 99  1  0  0  0  0
 26100  1  0  0  0  0
 27 28  1  0  0  0  0
 27101  1  0  0  0  0
 27102  1  0  0  0  0
 28 29  1  0  0  0  0
 28103  1  0  0  0  0
 28104  1  0  0  0  0
 29 30  1  0  0  0  0
 29105  1  0  0  0  0
 29106  1  0  0  0  0
 30 31  1  0  0  0  0
 30107  1  0  0  0  0
 30108  1  0  0  0  0
 31 32  1  0  0  0  0
 31109  1  0  0  0  0
 31110  1  0  0  0  0
 32 33  1  0  0  0  0
 32111  1  0  0  0  0
 32112  1  0  0  0  0
 33 34  1  0  0  0  0
 33113  1  0  0  0  0
 33114  1  0  0  0  0
 34 35  1  0  0  0  0
 34115  1  0  0  0  0
 34116  1  0  0  0  0
 35 36  1  0  0  0  0
 35117  1  0  0  0  0
 35118  1  0  0  0  0
 36 37  1  0  0  0  0
 36119  1  0  0  0  0
 36120  1  0  0  0  0
 37 38  1  0  0  0  0
 37121  1  0  0  0  0
 37122  1  0  0  0  0
 38 39  1  0  0  0  0
 38123  1  0  0  0  0
 38124  1  0  0  0  0
 39 40  1  0  0  0  0
 39125  1  0  0  0  0
 39126  1  0  0  0  0
 40 41  1  0  0  0  0
 40127  1  0  0  0  0
 40128  1  0  0  0  0
 41 42  1  0  0  0  0
 41129  1  0  0  0  0
 41130  1  0  0  0  0
 42 43  1  0  0  0  0
 42131  1  0  0  0  0
 43 44  1  0  0  0  0
 43132  1  0  0  0  0
 43133  1  0  0  0  0
 44 45  2  3  0  0  0
 44134  1  0  0  0  0
 45 46  1  0  0  0  0
 45135  1  0  0  0  0
 46 47  2  3  0  0  0
 46136  1  0  0  0  0
 47 48  1  0  0  0  0
 47137  1  0  0  0  0
 48 49  2  3  0  0  0
 48138  1  0  0  0  0
 49 50  1  0  0  0  0
 49139  1  0  0  0  0
 50 51  2  3  0  0  0
 50140  1  0  0  0  0
 51 52  1  0  0  0  0
 51141  1  0  0  0  0
 52 53  2  3  0  0  0
 52142  1  0  0  0  0
 53143  1  0  0  0  0
M  END
$$$$
