
 OpenBabel04232216593D

 59 60  0  0  0  0  0  0  0  0999 V2000
   13.5154    3.4451   -4.4916 O   0  0  0  0  0  0  0  0  0  0  0  0
   14.0936    2.5239   -3.7546 C   0  0  0  0  0  0  0  0  0  0  0  0
   12.1910    1.8051   -2.8073 C   0  0  0  0  0  0  0  0  0  0  0  0
   10.1509    1.7025   -2.0489 C   0  0  0  0  0  0  0  0  0  0  0  0
    8.1684    1.3545   -2.1524 C   0  0  0  0  0  0  0  0  0  0  0  0
    7.6661    0.5626   -3.3375 C   0  0  0  0  0  0  0  0  0  0  0  0
    8.0859    0.6168   -4.7376 C   0  0  0  0  0  0  0  0  0  0  0  0
    9.5453    0.6043   -4.3253 C   0  0  0  0  0  0  0  0  0  0  0  0
   10.8195    0.4461   -5.1465 C   0  0  0  0  0  0  0  0  0  0  0  0
   12.4970    0.1486   -4.7495 C   0  0  0  0  0  0  0  0  0  0  0  0
   13.3408    0.9259   -5.4672 C   0  0  0  0  0  0  0  0  0  0  0  0
   14.8874    1.5096   -5.5339 C   0  0  0  0  0  0  0  0  0  0  0  0
   15.0923    1.0948   -6.8528 C   0  0  0  0  0  0  0  0  0  0  0  0
   16.1716    0.3772   -6.7728 C   0  0  0  0  0  0  0  0  0  0  0  0
   17.1749    0.8633   -7.5896 C   0  0  0  0  0  0  0  0  0  0  0  0
   18.3117    0.6319   -6.9598 C   0  0  0  0  0  0  0  0  0  0  0  0
   19.4960    0.7349   -7.6302 C   0  0  0  0  0  0  0  0  0  0  0  0
   20.6862    0.5779   -7.0599 C   0  0  0  0  0  0  0  0  0  0  0  0
   21.6014    0.6781   -8.1058 C   0  0  0  0  0  0  0  0  0  0  0  0
   22.8584    0.3217   -8.1935 C   0  0  0  0  0  0  0  0  0  0  0  0
   23.2086    0.8183   -9.5307 C   0  0  0  0  0  0  0  0  0  0  0  0
   23.0831    0.8194  -10.8205 N   0  0  0  0  0  0  0  0  0  0  0  0
   24.1978    1.6107  -11.3386 N   0  0  0  0  0  0  0  0  0  0  0  0
   25.1941    1.2997  -10.6600 N   0  0  0  0  0  0  0  0  0  0  0  0
   25.4525    2.3328   -9.6882 C   0  0  0  0  0  0  0  0  0  0  0  0
   24.6335    2.9301   -8.4175 C   0  0  0  0  0  0  0  0  0  0  0  0
   22.7759    3.1527   -7.8999 N   0  0  0  0  0  0  0  0  0  0  0  0
   21.4282    3.0596   -6.6470 N   0  0  0  0  0  0  0  0  0  0  0  0
   19.4571    2.9788   -6.3318 C   0  0  0  0  0  0  0  0  0  0  0  0
   17.9528    2.6104   -5.2248 N   0  0  0  0  0  0  0  0  0  0  0  0
   15.9976    2.3657   -4.8165 C   0  0  0  0  0  0  0  0  0  0  0  0
   11.5748    1.2097   -3.4465 H   0  0  0  0  0  0  0  0  0  0  0  0
   12.4874    0.8791   -2.2622 H   0  0  0  0  0  0  0  0  0  0  0  0
   10.1239    0.5838   -1.7877 H   0  0  0  0  0  0  0  0  0  0  0  0
    9.9419    2.1370   -1.0443 H   0  0  0  0  0  0  0  0  0  0  0  0
    7.1918    2.1975   -2.0032 H   0  0  0  0  0  0  0  0  0  0  0  0
    7.2941    0.6322   -1.5796 H   0  0  0  0  0  0  0  0  0  0  0  0
    7.6083   -0.4775   -2.9355 H   0  0  0  0  0  0  0  0  0  0  0  0
    7.3528    1.5692   -3.4549 H   0  0  0  0  0  0  0  0  0  0  0  0
    7.6037    1.5807   -5.0771 H   0  0  0  0  0  0  0  0  0  0  0  0
    7.5006   -0.2110   -5.1404 H   0  0  0  0  0  0  0  0  0  0  0  0
    9.6304   -0.1645   -3.5435 H   0  0  0  0  0  0  0  0  0  0  0  0
    9.5617    1.6698   -4.0063 H   0  0  0  0  0  0  0  0  0  0  0  0
   10.8373    1.4965   -5.4838 H   0  0  0  0  0  0  0  0  0  0  0  0
   10.4939   -0.3345   -5.7974 H   0  0  0  0  0  0  0  0  0  0  0  0
   12.9415   -0.1886   -3.7915 H   0  0  0  0  0  0  0  0  0  0  0  0
   12.7578    1.2360   -6.3353 H   0  0  0  0  0  0  0  0  0  0  0  0
   14.5129    1.5658   -7.6419 H   0  0  0  0  0  0  0  0  0  0  0  0
   16.4823    0.0371   -5.7689 H   0  0  0  0  0  0  0  0  0  0  0  0
   16.9407    1.3972   -8.5061 H   0  0  0  0  0  0  0  0  0  0  0  0
   18.3759    0.4263   -5.8890 H   0  0  0  0  0  0  0  0  0  0  0  0
   19.3634    1.1361   -8.6360 H   0  0  0  0  0  0  0  0  0  0  0  0
   20.9189    0.6296   -5.9931 H   0  0  0  0  0  0  0  0  0  0  0  0
   21.2053    1.2682   -8.9354 H   0  0  0  0  0  0  0  0  0  0  0  0
   23.4577    0.2422   -7.2786 H   0  0  0  0  0  0  0  0  0  0  0  0
   23.4985    1.7986   -9.3878 H   0  0  0  0  0  0  0  0  0  0  0  0
   26.6690    2.3709  -10.1780 H   0  0  0  0  0  0  0  0  0  0  0  0
   25.7739    3.1505   -8.0746 H   0  0  0  0  0  0  0  0  0  0  0  0
   19.3599    3.0542   -7.3658 H   0  0  0  0  0  0  0  0  0  0  0  0
  1  2  2  0  0  0  0
  2  3  1  0  0  0  0
  2 31  1  0  0  0  0
  3  4  1  0  0  0  0
  3 32  1  0  0  0  0
  3 33  1  0  0  0  0
  4  5  1  0  0  0  0
  4 34  1  0  0  0  0
  4 35  1  0  0  0  0
  5  6  1  0  0  0  0
  5 36  1  0  0  0  0
  5 37  1  0  0  0  0
  6  7  1  0  0  0  0
  6 38  1  0  0  0  0
  6 39  1  0  0  0  0
  7  8  1  0  0  0  0
  7 40  1  0  0  0  0
  7 41  1  0  0  0  0
  8  9  1  0  0  0  0
  8 42  1  0  0  0  0
  8 43  1  0  0  0  0
  9 10  1  0  0  0  0
  9 44  1  0  0  0  0
  9 45  1  0  0  0  0
 10 11  2  3  0  0  0
 10 46  1  0  0  0  0
 11 12  1  0  0  0  0
 11 47  1  0  0  0  0
 12 13  1  0  0  0  0
 12 31  2  3  0  0  0
 13 14  2  3  0  0  0
 13 48  1  0  0  0  0
 14 15  1  0  0  0  0
 14 49  1  0  0  0  0
 15 16  2  3  0  0  0
 15 50  1  0  0  0  0
 16 17  1  0  0  0  0
 16 51  1  0  0  0  0
 17 18  2  3  0  0  0
 17 52  1  0  0  0  0
 18 19  1  0  0  0  0
 18 53  1  0  0  0  0
 19 20  2  3  0  0  0
 19 54  1  0  0  0  0
 20 21  1  0  0  0  0
 20 55  1  0  0  0  0
 21 22  2  3  0  0  0
 21 56  1  0  0  0  0
 22 23  1  0  0  0  0
 23 24  2  3  0  0  0
 24 25  1  0  0  0  0
 25 26  2  3  0  0  0
 25 57  1  0  0  0  0
 26 27  1  0  0  0  0
 26 58  1  0  0  0  0
 27 28  2  3  0  0  0
 28 29  1  0  0  0  0
 29 30  2  3  0  0  0
 29 59  1  0  0  0  0
 30 31  1  0  0  0  0
M  END
$$$$
