
 OpenBabel04232216503D

 63 63  0  0  0  0  0  0  0  0999 V2000
   10.5669   -0.5716    4.1350 C   0  0  0  0  0  0  0  0  0  0  0  0
   12.4439   -1.0713    4.1831 C   0  0  0  0  0  0  0  0  0  0  0  0
   11.2896   -1.1945    2.7605 C   0  0  0  0  0  0  0  0  0  0  0  0
    9.2069   -0.9882    2.1526 C   0  0  0  0  0  0  0  0  0  0  0  0
    7.7048   -0.7726    2.5721 C   0  0  0  0  0  0  0  0  0  0  0  0
    7.0917   -0.3803    3.8293 C   0  0  0  0  0  0  0  0  0  0  0  0
    7.0921   -0.3736    5.3011 C   0  0  0  0  0  0  0  0  0  0  0  0
    8.5420   -0.2462    5.3699 C   0  0  0  0  0  0  0  0  0  0  0  0
    9.4713   -0.1316    6.3861 C   0  0  0  0  0  0  0  0  0  0  0  0
   10.7728    0.1461    6.3657 C   0  0  0  0  0  0  0  0  0  0  0  0
   11.1021   -0.4764    7.5500 C   0  0  0  0  0  0  0  0  0  0  0  0
   12.3388   -0.6751    7.8215 C   0  0  0  0  0  0  0  0  0  0  0  0
   12.8471   -0.8075    9.1245 C   0  0  0  0  0  0  0  0  0  0  0  0
   14.2363   -0.4752    8.9236 C   0  0  0  0  0  0  0  0  0  0  0  0
   14.9544   -0.7024    9.9793 C   0  0  0  0  0  0  0  0  0  0  0  0
   16.2713   -0.3266    9.9773 C   0  0  0  0  0  0  0  0  0  0  0  0
   16.8561   -0.7167   11.0907 C   0  0  0  0  0  0  0  0  0  0  0  0
   18.1613   -0.3290   11.2524 C   0  0  0  0  0  0  0  0  0  0  0  0
   18.9094   -0.6213   12.2956 C   0  0  0  0  0  0  0  0  0  0  0  0
   20.1722   -0.0028   12.1083 C   0  0  0  0  0  0  0  0  0  0  0  0
   21.0874   -0.0350   13.0560 C   0  0  0  0  0  0  0  0  0  0  0  0
   22.4759   -0.0613   12.6032 C   0  0  0  0  0  0  0  0  0  0  0  0
   22.6062   -1.3808   12.7994 C   0  0  0  0  0  0  0  0  0  0  0  0
   21.9453   -2.1367   11.2328 C   0  0  0  0  0  0  0  0  0  0  0  0
   20.4232   -2.2160   10.4060 C   0  0  0  0  0  0  0  0  0  0  0  0
   18.9431   -2.2675    8.9488 C   0  0  0  0  0  0  0  0  0  0  0  0
   17.4879   -1.8165    7.8086 C   0  0  0  0  0  0  0  0  0  0  0  0
   15.7508   -1.7214    6.5006 C   0  0  0  0  0  0  0  0  0  0  0  0
   14.1874   -1.3249    5.2928 C   0  0  0  0  0  0  0  0  0  0  0  0
    9.6089    0.0403    3.6567 H   0  0  0  0  0  0  0  0  0  0  0  0
    9.8360   -1.6637    3.9147 H   0  0  0  0  0  0  0  0  0  0  0  0
   10.4907    0.5747    3.5265 H   0  0  0  0  0  0  0  0  0  0  0  0
   10.9077   -0.2318    1.9771 H   0  0  0  0  0  0  0  0  0  0  0  0
    8.6866   -0.4513    1.1688 H   0  0  0  0  0  0  0  0  0  0  0  0
    6.4639   -0.5698    2.2672 H   0  0  0  0  0  0  0  0  0  0  0  0
    7.4436    0.6771    3.6866 H   0  0  0  0  0  0  0  0  0  0  0  0
    7.4819   -1.4134    3.8956 H   0  0  0  0  0  0  0  0  0  0  0  0
    6.5967   -1.3353    5.4981 H   0  0  0  0  0  0  0  0  0  0  0  0
    6.5395    0.5256    5.5280 H   0  0  0  0  0  0  0  0  0  0  0  0
    8.8139    0.7156    4.9156 H   0  0  0  0  0  0  0  0  0  0  0  0
    8.8233   -1.2844    5.0964 H   0  0  0  0  0  0  0  0  0  0  0  0
    8.9304   -0.6536    7.1283 H   0  0  0  0  0  0  0  0  0  0  0  0
   11.5240    0.5088    5.6170 H   0  0  0  0  0  0  0  0  0  0  0  0
   10.3298   -0.7427    8.2409 H   0  0  0  0  0  0  0  0  0  0  0  0
   13.0539   -0.4455    7.1120 H   0  0  0  0  0  0  0  0  0  0  0  0
   12.6778   -1.8340    9.4453 H   0  0  0  0  0  0  0  0  0  0  0  0
   12.4696    0.0345    9.7064 H   0  0  0  0  0  0  0  0  0  0  0  0
   14.6517   -0.0299    8.0143 H   0  0  0  0  0  0  0  0  0  0  0  0
   14.5100   -1.1032   10.8697 H   0  0  0  0  0  0  0  0  0  0  0  0
   16.6876    0.2009    9.1127 H   0  0  0  0  0  0  0  0  0  0  0  0
   16.3560   -1.2480   11.8853 H   0  0  0  0  0  0  0  0  0  0  0  0
   18.5478    0.2634   10.4284 H   0  0  0  0  0  0  0  0  0  0  0  0
   18.6609   -1.2819   13.1278 H   0  0  0  0  0  0  0  0  0  0  0  0
   20.5053    0.1908   11.0846 H   0  0  0  0  0  0  0  0  0  0  0  0
   20.7799   -0.6976   13.8949 H   0  0  0  0  0  0  0  0  0  0  0  0
   22.8221    0.1298   11.5730 H   0  0  0  0  0  0  0  0  0  0  0  0
   22.5815   -1.3921   13.9890 H   0  0  0  0  0  0  0  0  0  0  0  0
   23.2223   -2.0733   11.3505 H   0  0  0  0  0  0  0  0  0  0  0  0
   20.2894   -2.5764   11.5675 H   0  0  0  0  0  0  0  0  0  0  0  0
   19.6204   -1.3308    9.2901 H   0  0  0  0  0  0  0  0  0  0  0  0
   17.7511   -0.8543    8.3942 H   0  0  0  0  0  0  0  0  0  0  0  0
   15.5227   -1.5614    7.5589 H   0  0  0  0  0  0  0  0  0  0  0  0
   13.8527   -0.3707    5.7052 H   0  0  0  0  0  0  0  0  0  0  0  0
  1  2  1  0  0  0  0
  1 30  1  0  0  0  0
  1 31  1  0  0  0  0
  1 32  1  0  0  0  0
  2  3  2  3  0  0  0
  2 29  1  0  0  0  0
  3  4  1  0  0  0  0
  3 33  1  0  0  0  0
  4  5  2  3  0  0  0
  4 34  1  0  0  0  0
  5  6  1  0  0  0  0
  5 35  1  0  0  0  0
  6  7  1  0  0  0  0
  6 36  1  0  0  0  0
  6 37  1  0  0  0  0
  7  8  1  0  0  0  0
  7 38  1  0  0  0  0
  7 39  1  0  0  0  0
  8  9  1  0  0  0  0
  8 40  1  0  0  0  0
  8 41  1  0  0  0  0
  9 10  2  3  0  0  0
  9 42  1  0  0  0  0
 10 11  1  0  0  0  0
 10 43  1  0  0  0  0
 11 12  2  3  0  0  0
 11 44  1  0  0  0  0
 12 13  1  0  0  0  0
 12 45  1  0  0  0  0
 13 14  1  0  0  0  0
 13 46  1  0  0  0  0
 13 47  1  0  0  0  0
 14 15  2  3  0  0  0
 14 48  1  0  0  0  0
 15 16  1  0  0  0  0
 15 49  1  0  0  0  0
 16 17  2  3  0  0  0
 16 50  1  0  0  0  0
 17 18  1  0  0  0  0
 17 51  1  0  0  0  0
 18 19  2  3  0  0  0
 18 52  1  0  0  0  0
 19 20  1  0  0  0  0
 19 53  1  0  0  0  0
 20 21  2  3  0  0  0
 20 54  1  0  0  0  0
 21 22  1  0  0  0  0
 21 55  1  0  0  0  0
 22 23  2  3  0  0  0
 22 56  1  0  0  0  0
 23 24  1  0  0  0  0
 23 57  1  0  0  0  0
 24 25  2  3  0  0  0
 24 58  1  0  0  0  0
 25 26  1  0  0  0  0
 25 59  1  0  0  0  0
 26 27  2  3  0  0  0
 26 60  1  0  0  0  0
 27 28  1  0  0  0  0
 27 61  1  0  0  0  0
 28 29  2  3  0  0  0
 28 62  1  0  0  0  0
 29 63  1  0  0  0  0
M  END
$$$$
