
 OpenBabel04232216473D

 59 60  0  0  0  0  0  0  0  0999 V2000
    0.8749   -0.7560    1.2360 C   0  0  0  0  0  0  0  0  0  0  0  0
    1.7089    0.1327    0.3327 C   0  0  0  0  0  0  0  0  0  0  0  0
    2.8290    0.8445    0.9770 C   0  0  0  0  0  0  0  0  0  0  0  0
    4.1771    0.8008    0.7718 C   0  0  0  0  0  0  0  0  0  0  0  0
    5.0297    1.5402    1.6161 N   0  0  0  0  0  0  0  0  0  0  0  0
    5.7245    2.7712    1.1805 C   0  0  0  0  0  0  0  0  0  0  0  0
    6.9634    2.5308    0.2827 C   0  0  0  0  0  0  0  0  0  0  0  0
    7.1621    3.6398   -0.7832 C   0  0  0  0  0  0  0  0  0  0  0  0
    8.4086    3.4480   -1.6764 C   0  0  0  0  0  0  0  0  0  0  0  0
    8.1560    3.2776   -3.1938 C   0  0  0  0  0  0  0  0  0  0  0  0
    8.0176    1.8152   -3.6583 C   0  0  0  0  0  0  0  0  0  0  0  0
    6.6317    1.2989   -3.3286 C   0  0  0  0  0  0  0  0  0  0  0  0
    6.4043   -0.2127   -3.4029 C   0  0  0  0  0  0  0  0  0  0  0  0
    5.8510   -0.8068   -2.0942 C   0  0  0  0  0  0  0  0  0  0  0  0
    4.8322   -0.0842   -0.0468 N   0  0  0  0  0  0  0  0  0  0  0  0
    4.8172    0.0400   -1.3357 C   0  0  0  0  0  0  0  0  0  0  0  0
    3.8946    0.8808   -2.1461 C   0  0  0  0  0  0  0  0  0  0  0  0
    3.7634    2.2076   -1.9640 C   0  0  0  0  0  0  0  0  0  0  0  0
    2.5279    2.8727   -2.3592 C   0  0  0  0  0  0  0  0  0  0  0  0
    1.9962    2.5153   -3.7290 C   0  0  0  0  0  0  0  0  0  0  0  0
    1.7367    3.3452   -1.3594 C   0  0  0  0  0  0  0  0  0  0  0  0
    2.1398    3.9117   -0.0172 C   0  0  0  0  0  0  0  0  0  0  0  0
    0.3795    2.8323   -1.2762 C   0  0  0  0  0  0  0  0  0  0  0  0
    0.1433    1.5401   -0.9850 C   0  0  0  0  0  0  0  0  0  0  0  0
    1.1370    0.4477   -0.8547 C   0  0  0  0  0  0  0  0  0  0  0  0
    0.5557   -0.2033    2.1223 H   0  0  0  0  0  0  0  0  0  0  0  0
    1.4258   -1.6519    1.5337 H   0  0  0  0  0  0  0  0  0  0  0  0
   -0.0393   -1.0862    0.7283 H   0  0  0  0  0  0  0  0  0  0  0  0
    2.4988    1.4705    1.8047 H   0  0  0  0  0  0  0  0  0  0  0  0
    5.7593    0.8654    1.8576 H   0  0  0  0  0  0  0  0  0  0  0  0
    6.0678    3.2854    2.0865 H   0  0  0  0  0  0  0  0  0  0  0  0
    5.0292    3.4622    0.6981 H   0  0  0  0  0  0  0  0  0  0  0  0
    6.9220    1.5562   -0.2099 H   0  0  0  0  0  0  0  0  0  0  0  0
    7.8571    2.5013    0.9207 H   0  0  0  0  0  0  0  0  0  0  0  0
    7.2653    4.5957   -0.2540 H   0  0  0  0  0  0  0  0  0  0  0  0
    6.2693    3.7453   -1.4043 H   0  0  0  0  0  0  0  0  0  0  0  0
    9.0366    2.6310   -1.3052 H   0  0  0  0  0  0  0  0  0  0  0  0
    9.0084    4.3612   -1.5716 H   0  0  0  0  0  0  0  0  0  0  0  0
    9.0162    3.7001   -3.7251 H   0  0  0  0  0  0  0  0  0  0  0  0
    7.2835    3.8667   -3.5120 H   0  0  0  0  0  0  0  0  0  0  0  0
    8.7935    1.1958   -3.1940 H   0  0  0  0  0  0  0  0  0  0  0  0
    8.1666    1.7602   -4.7462 H   0  0  0  0  0  0  0  0  0  0  0  0
    5.9114    1.7936   -3.9931 H   0  0  0  0  0  0  0  0  0  0  0  0
    6.4179    1.6390   -2.3225 H   0  0  0  0  0  0  0  0  0  0  0  0
    7.3270   -0.7396   -3.6730 H   0  0  0  0  0  0  0  0  0  0  0  0
    5.6850   -0.4234   -4.2044 H   0  0  0  0  0  0  0  0  0  0  0  0
    6.7045   -0.9546   -1.4156 H   0  0  0  0  0  0  0  0  0  0  0  0
    5.4214   -1.7980   -2.2743 H   0  0  0  0  0  0  0  0  0  0  0  0
    3.2235    0.2965   -2.7644 H   0  0  0  0  0  0  0  0  0  0  0  0
    4.3995    2.7232   -1.2660 H   0  0  0  0  0  0  0  0  0  0  0  0
    2.7243    1.9564   -4.3260 H   0  0  0  0  0  0  0  0  0  0  0  0
    1.7863    3.4379   -4.2817 H   0  0  0  0  0  0  0  0  0  0  0  0
    1.0822    1.9166   -3.6909 H   0  0  0  0  0  0  0  0  0  0  0  0
    3.1329    3.6137    0.2877 H   0  0  0  0  0  0  0  0  0  0  0  0
    1.4660    3.6000    0.7992 H   0  0  0  0  0  0  0  0  0  0  0  0
    2.1164    5.0063   -0.0485 H   0  0  0  0  0  0  0  0  0  0  0  0
   -0.4331    3.5444   -1.3564 H   0  0  0  0  0  0  0  0  0  0  0  0
   -0.8931    1.2146   -0.9169 H   0  0  0  0  0  0  0  0  0  0  0  0
    0.6414   -0.3919   -1.3555 H   0  0  0  0  0  0  0  0  0  0  0  0
  1  2  1  0  0  0  0
  1 26  1  0  0  0  0
  1 27  1  0  0  0  0
  1 28  1  0  0  0  0
  2  3  1  0  0  0  0
  2 25  2  3  0  0  0
  3  4  2  3  0  0  0
  3 29  1  0  0  0  0
  4  5  1  0  0  0  0
  4 15  1  0  0  0  0
  5  6  1  0  0  0  0
  5 30  1  0  0  0  0
  6  7  1  0  0  0  0
  6 31  1  0  0  0  0
  6 32  1  0  0  0  0
  7  8  1  0  0  0  0
  7 33  1  0  0  0  0
  7 34  1  0  0  0  0
  8  9  1  0  0  0  0
  8 35  1  0  0  0  0
  8 36  1  0  0  0  0
  9 10  1  0  0  0  0
  9 37  1  0  0  0  0
  9 38  1  0  0  0  0
 10 11  1  0  0  0  0
 10 39  1  0  0  0  0
 10 40  1  0  0  0  0
 11 12  1  0  0  0  0
 11 41  1  0  0  0  0
 11 42  1  0  0  0  0
 12 13  1  0  0  0  0
 12 43  1  0  0  0  0
 12 44  1  0  0  0  0
 13 14  1  0  0  0  0
 13 45  1  0  0  0  0
 13 46  1  0  0  0  0
 14 16  1  0  0  0  0
 14 47  1  0  0  0  0
 14 48  1  0  0  0  0
 15 16  2  3  0  0  0
 16 17  1  0  0  0  0
 17 18  2  3  0  0  0
 17 49  1  0  0  0  0
 18 19  1  0  0  0  0
 18 50  1  0  0  0  0
 19 20  1  0  0  0  0
 19 21  2  3  0  0  0
 20 51  1  0  0  0  0
 20 52  1  0  0  0  0
 20 53  1  0  0  0  0
 21 22  1  0  0  0  0
 21 23  1  0  0  0  0
 22 54  1  0  0  0  0
 22 55  1  0  0  0  0
 22 56  1  0  0  0  0
 23 24  2  3  0  0  0
 23 57  1  0  0  0  0
 24 25  1  0  0  0  0
 24 58  1  0  0  0  0
 25 59  1  0  0  0  0
M  END
$$$$
