
 OpenBabel04232216433D

 87 87  0  0  0  0  0  0  0  0999 V2000
   11.6616    3.0443   -6.4932 C   0  0  0  0  0  0  0  0  0  0  0  0
    9.6638    2.9131   -5.3619 C   0  0  0  0  0  0  0  0  0  0  0  0
    7.6843    2.4007   -4.5093 C   0  0  0  0  0  0  0  0  0  0  0  0
    6.3008    1.4293   -3.2298 C   0  0  0  0  0  0  0  0  0  0  0  0
    6.8338    0.3366   -2.4079 C   0  0  0  0  0  0  0  0  0  0  0  0
    7.8778   -0.0526   -3.3206 C   0  0  0  0  0  0  0  0  0  0  0  0
    7.3378   -0.1811   -5.0012 C   0  0  0  0  0  0  0  0  0  0  0  0
    8.4421    0.4056   -5.7840 C   0  0  0  0  0  0  0  0  0  0  0  0
    9.3153   -0.1424   -6.7775 C   0  0  0  0  0  0  0  0  0  0  0  0
   10.7692   -0.1369   -6.2077 C   0  0  0  0  0  0  0  0  0  0  0  0
   11.4297    0.2062   -7.4929 C   0  0  0  0  0  0  0  0  0  0  0  0
   12.8865    0.2535   -7.3340 C   0  0  0  0  0  0  0  0  0  0  0  0
   13.2969    0.4951   -8.7536 C   0  0  0  0  0  0  0  0  0  0  0  0
   14.7518    0.6418   -8.6407 C   0  0  0  0  0  0  0  0  0  0  0  0
   15.1703    0.6656  -10.0500 C   0  0  0  0  0  0  0  0  0  0  0  0
   16.6661    0.6206   -9.9643 C   0  0  0  0  0  0  0  0  0  0  0  0
   17.0219    0.7697  -11.3775 C   0  0  0  0  0  0  0  0  0  0  0  0
   18.4961    0.7070  -11.5830 C   0  0  0  0  0  0  0  0  0  0  0  0
   18.4189    0.9217  -13.1232 C   0  0  0  0  0  0  0  0  0  0  0  0
   19.5242    1.6461  -13.6744 C   0  0  0  0  0  0  0  0  0  0  0  0
   20.7349    1.1972  -14.4080 C   0  0  0  0  0  0  0  0  0  0  0  0
   22.0841    1.3716  -13.2421 C   0  0  0  0  0  0  0  0  0  0  0  0
   23.2191    2.0201  -13.8280 C   0  0  0  0  0  0  0  0  0  0  0  0
   22.4672    3.0735  -14.5114 C   0  0  0  0  0  0  0  0  0  0  0  0
   20.7156    3.7795  -13.5524 C   0  0  0  0  0  0  0  0  0  0  0  0
   19.2357    3.6804  -11.9108 C   0  0  0  0  0  0  0  0  0  0  0  0
   17.3869    3.7194  -10.4880 C   0  0  0  0  0  0  0  0  0  0  0  0
   15.5039    3.2471   -9.2343 C   0  0  0  0  0  0  0  0  0  0  0  0
   13.6039    3.2249   -7.8697 C   0  0  0  0  0  0  0  0  0  0  0  0
   12.0979    2.7488   -5.4853 H   0  0  0  0  0  0  0  0  0  0  0  0
   11.2618    2.0825   -6.7819 H   0  0  0  0  0  0  0  0  0  0  0  0
    9.8446    1.8877   -4.7809 H   0  0  0  0  0  0  0  0  0  0  0  0
    9.6682    3.4350   -4.4170 H   0  0  0  0  0  0  0  0  0  0  0  0
    6.8706    3.2066   -4.3704 H   0  0  0  0  0  0  0  0  0  0  0  0
    6.7529    1.9148   -5.0404 H   0  0  0  0  0  0  0  0  0  0  0  0
    5.2904    0.6683   -3.4672 H   0  0  0  0  0  0  0  0  0  0  0  0
    5.4308    1.8075   -2.3756 H   0  0  0  0  0  0  0  0  0  0  0  0
    6.9443    1.0709   -1.5881 H   0  0  0  0  0  0  0  0  0  0  0  0
    6.2012   -0.5614   -2.4669 H   0  0  0  0  0  0  0  0  0  0  0  0
    8.1467   -1.0315   -2.9266 H   0  0  0  0  0  0  0  0  0  0  0  0
    8.5774    0.7477   -2.9740 H   0  0  0  0  0  0  0  0  0  0  0  0
    6.5837    0.4200   -5.5605 H   0  0  0  0  0  0  0  0  0  0  0  0
    6.6941   -1.0333   -5.1738 H   0  0  0  0  0  0  0  0  0  0  0  0
    9.1225    0.3276   -4.9702 H   0  0  0  0  0  0  0  0  0  0  0  0
    8.2067    1.4089   -6.2208 H   0  0  0  0  0  0  0  0  0  0  0  0
    9.1956    0.5797   -7.6229 H   0  0  0  0  0  0  0  0  0  0  0  0
    8.8933   -1.0887   -7.0502 H   0  0  0  0  0  0  0  0  0  0  0  0
   11.1363   -1.0701   -5.7660 H   0  0  0  0  0  0  0  0  0  0  0  0
   11.0570    0.5592   -5.3716 H   0  0  0  0  0  0  0  0  0  0  0  0
   11.0535    1.1313   -7.9635 H   0  0  0  0  0  0  0  0  0  0  0  0
   11.0944   -0.4420   -8.2890 H   0  0  0  0  0  0  0  0  0  0  0  0
   13.2740   -0.6766   -6.9159 H   0  0  0  0  0  0  0  0  0  0  0  0
   13.2554    0.9928   -6.6049 H   0  0  0  0  0  0  0  0  0  0  0  0
   12.8605    1.3287   -9.3370 H   0  0  0  0  0  0  0  0  0  0  0  0
   12.9592   -0.2894   -9.4278 H   0  0  0  0  0  0  0  0  0  0  0  0
   15.2274   -0.1491   -8.0746 H   0  0  0  0  0  0  0  0  0  0  0  0
   15.0345    1.5134   -8.0529 H   0  0  0  0  0  0  0  0  0  0  0  0
   14.6518    1.4612  -10.6152 H   0  0  0  0  0  0  0  0  0  0  0  0
   14.7676   -0.1392  -10.6638 H   0  0  0  0  0  0  0  0  0  0  0  0
   17.0448   -0.3149   -9.5535 H   0  0  0  0  0  0  0  0  0  0  0  0
   17.1296    1.3600   -9.2957 H   0  0  0  0  0  0  0  0  0  0  0  0
   16.5289    1.6568  -11.8002 H   0  0  0  0  0  0  0  0  0  0  0  0
   16.5184    0.0650  -12.0308 H   0  0  0  0  0  0  0  0  0  0  0  0
   18.8972   -0.2389  -11.1993 H   0  0  0  0  0  0  0  0  0  0  0  0
   19.0847    1.4025  -10.9402 H   0  0  0  0  0  0  0  0  0  0  0  0
   17.5964    1.6322  -13.3685 H   0  0  0  0  0  0  0  0  0  0  0  0
   18.3629    0.0272  -13.7078 H   0  0  0  0  0  0  0  0  0  0  0  0
   20.0677    1.6190  -12.7690 H   0  0  0  0  0  0  0  0  0  0  0  0
   19.0950    2.6541  -13.9623 H   0  0  0  0  0  0  0  0  0  0  0  0
   20.4708    1.8503  -15.2818 H   0  0  0  0  0  0  0  0  0  0  0  0
   20.9121    0.4321  -15.1562 H   0  0  0  0  0  0  0  0  0  0  0  0
   22.4938    0.4005  -12.9625 H   0  0  0  0  0  0  0  0  0  0  0  0
   22.0761    2.0871  -12.3839 H   0  0  0  0  0  0  0  0  0  0  0  0
   23.8829    2.7975  -13.3961 H   0  0  0  0  0  0  0  0  0  0  0  0
   23.5330    1.1517  -14.4633 H   0  0  0  0  0  0  0  0  0  0  0  0
   22.9245    2.3463  -15.5717 H   0  0  0  0  0  0  0  0  0  0  0  0
   23.4761    3.6974  -15.0356 H   0  0  0  0  0  0  0  0  0  0  0  0
   20.9308    4.6634  -14.1216 H   0  0  0  0  0  0  0  0  0  0  0  0
   20.5903    3.3149  -14.5727 H   0  0  0  0  0  0  0  0  0  0  0  0
   19.9208    2.8547  -11.5299 H   0  0  0  0  0  0  0  0  0  0  0  0
   19.8958    4.5461  -11.6346 H   0  0  0  0  0  0  0  0  0  0  0  0
   17.3272    2.8573  -11.1449 H   0  0  0  0  0  0  0  0  0  0  0  0
   18.1902    3.2896   -9.7803 H   0  0  0  0  0  0  0  0  0  0  0  0
   16.1786    2.8924   -8.4897 H   0  0  0  0  0  0  0  0  0  0  0  0
   15.1376    2.9245  -10.0891 H   0  0  0  0  0  0  0  0  0  0  0  0
   14.0742    2.8405   -6.9730 H   0  0  0  0  0  0  0  0  0  0  0  0
   12.9883    2.6391   -8.4290 H   0  0  0  0  0  0  0  0  0  0  0  0
  1  2  1  0  0  0  0
  1 29  1  0  0  0  0
  1 30  1  0  0  0  0
  1 31  1  0  0  0  0
  2  3  1  0  0  0  0
  2 32  1  0  0  0  0
  2 33  1  0  0  0  0
  3  4  1  0  0  0  0
  3 34  1  0  0  0  0
  3 35  1  0  0  0  0
  4  5  1  0  0  0  0
  4 36  1  0  0  0  0
  4 37  1  0  0  0  0
  5  6  1  0  0  0  0
  5 38  1  0  0  0  0
  5 39  1  0  0  0  0
  6  7  1  0  0  0  0
  6 40  1  0  0  0  0
  6 41  1  0  0  0  0
  7  8  1  0  0  0  0
  7 42  1  0  0  0  0
  7 43  1  0  0  0  0
  8  9  1  0  0  0  0
  8 44  1  0  0  0  0
  8 45  1  0  0  0  0
  9 10  1  0  0  0  0
  9 46  1  0  0  0  0
  9 47  1  0  0  0  0
 10 11  1  0  0  0  0
 10 48  1  0  0  0  0
 10 49  1  0  0  0  0
 11 12  1  0  0  0  0
 11 50  1  0  0  0  0
 11 51  1  0  0  0  0
 12 13  1  0  0  0  0
 12 52  1  0  0  0  0
 12 53  1  0  0  0  0
 13 14  1  0  0  0  0
 13 54  1  0  0  0  0
 13 55  1  0  0  0  0
 14 15  1  0  0  0  0
 14 56  1  0  0  0  0
 14 57  1  0  0  0  0
 15 16  1  0  0  0  0
 15 58  1  0  0  0  0
 15 59  1  0  0  0  0
 16 17  1  0  0  0  0
 16 60  1  0  0  0  0
 16 61  1  0  0  0  0
 17 18  1  0  0  0  0
 17 62  1  0  0  0  0
 17 63  1  0  0  0  0
 18 19  1  0  0  0  0
 18 64  1  0  0  0  0
 18 65  1  0  0  0  0
 19 20  1  0  0  0  0
 19 66  1  0  0  0  0
 19 67  1  0  0  0  0
 20 21  1  0  0  0  0
 20 68  1  0  0  0  0
 20 69  1  0  0  0  0
 21 22  1  0  0  0  0
 21 70  1  0  0  0  0
 21 71  1  0  0  0  0
 22 23  1  0  0  0  0
 22 72  1  0  0  0  0
 22 73  1  0  0  0  0
 23 24  1  0  0  0  0
 23 74  1  0  0  0  0
 23 75  1  0  0  0  0
 24 25  1  0  0  0  0
 24 76  1  0  0  0  0
 24 77  1  0  0  0  0
 25 26  1  0  0  0  0
 25 78  1  0  0  0  0
 25 79  1  0  0  0  0
 26 27  1  0  0  0  0
 26 80  1  0  0  0  0
 26 81  1  0  0  0  0
 27 28  1  0  0  0  0
 27 82  1  0  0  0  0
 27 83  1  0  0  0  0
 28 29  1  0  0  0  0
 28 84  1  0  0  0  0
 28 85  1  0  0  0  0
 29 86  1  0  0  0  0
 29 87  1  0  0  0  0
M  END
$$$$
