
 OpenBabel04232216413D

232231  0  0  0  0  0  0  0  0999 V2000
   11.0045    2.6868    6.8717 C   0  0  0  0  0  0  0  0  0  0  0  0
   10.3555    1.5342    7.0866 C   0  0  0  0  0  0  0  0  0  0  0  0
   11.0725    0.2292    7.2927 C   0  0  0  0  0  0  0  0  0  0  0  0
   10.6798   -0.7495    6.2758 N   0  0  0  0  0  0  0  0  0  0  0  0
   11.3857   -1.9707    6.5006 N   0  0  0  0  0  0  0  0  0  0  0  0
   11.0069   -2.8995    5.5300 N   0  0  0  0  0  0  0  0  0  0  0  0
   11.7067   -4.1055    5.7427 N   0  0  0  0  0  0  0  0  0  0  0  0
   11.3315   -5.0781    4.7777 N   0  0  0  0  0  0  0  0  0  0  0  0
   11.6504   -4.6247    3.4709 N   0  0  0  0  0  0  0  0  0  0  0  0
   11.2669   -5.5826    2.4907 N   0  0  0  0  0  0  0  0  0  0  0  0
   11.6373   -5.0542    1.1809 C   0  0  0  0  0  0  0  0  0  0  0  0
   13.0869   -4.8099    1.0691 N   0  0  0  0  0  0  0  0  0  0  0  0
   13.8077   -6.0569    1.3389 C   0  0  0  0  0  0  0  0  0  0  0  0
   15.2981   -5.7898    1.2848 C   0  0  0  0  0  0  0  0  0  0  0  0
   16.0627   -7.0793    1.5321 C   0  0  0  0  0  0  0  0  0  0  0  0
   17.5558   -6.8172    1.4739 C   0  0  0  0  0  0  0  0  0  0  0  0
   18.3198   -8.1041    1.7217 C   0  0  0  0  0  0  0  0  0  0  0  0
   19.8121   -7.8390    1.6650 C   0  0  0  0  0  0  0  0  0  0  0  0
   20.5753   -9.1261    1.9109 C   0  0  0  0  0  0  0  0  0  0  0  0
   22.0671   -8.8601    1.8559 C   0  0  0  0  0  0  0  0  0  0  0  0
   22.8300  -10.1475    2.0999 C   0  0  0  0  0  0  0  0  0  0  0  0
   24.3216   -9.8818    2.0430 C   0  0  0  0  0  0  0  0  0  0  0  0
   25.0844  -11.1688    2.2888 C   0  0  0  0  0  0  0  0  0  0  0  0
   26.5760  -10.9027    2.2339 C   0  0  0  0  0  0  0  0  0  0  0  0
   27.3388  -12.1897    2.4798 C   0  0  0  0  0  0  0  0  0  0  0  0
   28.8304  -11.9240    2.4229 C   0  0  0  0  0  0  0  0  0  0  0  0
   29.5932  -13.2110    2.6687 C   0  0  0  0  0  0  0  0  0  0  0  0
   31.0848  -12.9453    2.6118 C   0  0  0  0  0  0  0  0  0  0  0  0
   31.8476  -14.2323    2.8577 C   0  0  0  0  0  0  0  0  0  0  0  0
   33.3392  -13.9666    2.8008 C   0  0  0  0  0  0  0  0  0  0  0  0
   34.1020  -15.2536    3.0467 C   0  0  0  0  0  0  0  0  0  0  0  0
   35.5936  -14.9878    2.9897 C   0  0  0  0  0  0  0  0  0  0  0  0
   36.3564  -16.2752    3.2337 C   0  0  0  0  0  0  0  0  0  0  0  0
   37.8480  -16.0095    3.1768 C   0  0  0  0  0  0  0  0  0  0  0  0
   38.6108  -17.2969    3.4206 C   0  0  0  0  0  0  0  0  0  0  0  0
   40.1024  -17.0312    3.3637 C   0  0  0  0  0  0  0  0  0  0  0  0
   40.8652  -18.3189    3.6057 C   0  0  0  0  0  0  0  0  0  0  0  0
   42.3568  -18.0528    3.5507 C   0  0  0  0  0  0  0  0  0  0  0  0
   43.1196  -19.3402    3.7946 C   0  0  0  0  0  0  0  0  0  0  0  0
   44.6112  -19.0737    3.7416 C   0  0  0  0  0  0  0  0  0  0  0  0
   45.3740  -20.3607    3.9875 C   0  0  0  0  0  0  0  0  0  0  0  0
   46.8656  -20.0939    3.9365 C   0  0  0  0  0  0  0  0  0  0  0  0
   47.6284  -21.3809    4.1825 C   0  0  0  0  0  0  0  0  0  0  0  0
   49.1200  -21.1140    4.1315 C   0  0  0  0  0  0  0  0  0  0  0  0
   49.8828  -22.4010    4.3774 C   0  0  0  0  0  0  0  0  0  0  0  0
   51.3744  -22.1342    4.3264 C   0  0  0  0  0  0  0  0  0  0  0  0
   52.1372  -23.4212    4.5723 C   0  0  0  0  0  0  0  0  0  0  0  0
   53.6288  -23.1547    4.5193 C   0  0  0  0  0  0  0  0  0  0  0  0
   54.3916  -24.4421    4.7632 C   0  0  0  0  0  0  0  0  0  0  0  0
   55.8832  -24.1753    4.7122 C   0  0  0  0  0  0  0  0  0  0  0  0
   56.6460  -25.4626    4.9561 C   0  0  0  0  0  0  0  0  0  0  0  0
   58.1376  -25.1962    4.9032 C   0  0  0  0  0  0  0  0  0  0  0  0
   58.9004  -26.4832    5.1491 C   0  0  0  0  0  0  0  0  0  0  0  0
   60.3920  -26.2171    5.0942 C   0  0  0  0  0  0  0  0  0  0  0  0
   61.1548  -27.5037    5.3420 C   0  0  0  0  0  0  0  0  0  0  0  0
   62.6464  -27.2380    5.2851 C   0  0  0  0  0  0  0  0  0  0  0  0
   63.4092  -28.5250    5.5310 C   0  0  0  0  0  0  0  0  0  0  0  0
   64.9008  -28.2593    5.4740 C   0  0  0  0  0  0  0  0  0  0  0  0
   65.6636  -29.5467    5.7180 C   0  0  0  0  0  0  0  0  0  0  0  0
   67.1552  -29.2810    5.6610 C   0  0  0  0  0  0  0  0  0  0  0  0
   67.9180  -30.5684    5.9049 C   0  0  0  0  0  0  0  0  0  0  0  0
   69.4096  -30.3026    5.8480 C   0  0  0  0  0  0  0  0  0  0  0  0
   70.1724  -31.5900    6.0919 C   0  0  0  0  0  0  0  0  0  0  0  0
   71.6640  -31.3243    6.0350 C   0  0  0  0  0  0  0  0  0  0  0  0
   72.4268  -32.6117    6.2789 C   0  0  0  0  0  0  0  0  0  0  0  0
   73.9184  -32.3460    6.2220 C   0  0  0  0  0  0  0  0  0  0  0  0
   74.6812  -33.6334    6.4659 C   0  0  0  0  0  0  0  0  0  0  0  0
   76.1728  -33.3677    6.4090 C   0  0  0  0  0  0  0  0  0  0  0  0
   76.9355  -34.6547    6.6549 C   0  0  0  0  0  0  0  0  0  0  0  0
   78.4271  -34.3890    6.5980 C   0  0  0  0  0  0  0  0  0  0  0  0
   79.1899  -35.6760    6.8439 C   0  0  0  0  0  0  0  0  0  0  0  0
   80.6815  -35.4103    6.7869 C   0  0  0  0  0  0  0  0  0  0  0  0
   81.4443  -36.6973    7.0328 C   0  0  0  0  0  0  0  0  0  0  0  0
   82.9360  -36.4316    6.9759 C   0  0  0  0  0  0  0  0  0  0  0  0
   83.6988  -37.7182    7.2238 C   0  0  0  0  0  0  0  0  0  0  0  0
   85.1908  -37.4530    7.1669 C   0  0  0  0  0  0  0  0  0  0  0  0
   85.9540  -38.7401    7.4149 C   0  0  0  0  0  0  0  0  0  0  0  0
   87.4469  -38.4769    7.3564 C   0  0  0  0  0  0  0  0  0  0  0  0
   88.2163  -39.7632    7.6062 C   0  0  0  0  0  0  0  0  0  0  0  0
   89.7042  -39.4959    7.5470 C   0  0  0  0  0  0  0  0  0  0  0  0
   10.4545    3.6081    6.7195 H   0  0  0  0  0  0  0  0  0  0  0  0
   12.0884    2.7143    6.8321 H   0  0  0  0  0  0  0  0  0  0  0  0
    9.2690    1.5412    7.1175 H   0  0  0  0  0  0  0  0  0  0  0  0
   10.8169   -0.1458    8.2909 H   0  0  0  0  0  0  0  0  0  0  0  0
   12.1569    0.4006    7.2638 H   0  0  0  0  0  0  0  0  0  0  0  0
   10.9519   -0.4071    5.3567 H   0  0  0  0  0  0  0  0  0  0  0  0
   11.1430   -2.3335    7.4188 H   0  0  0  0  0  0  0  0  0  0  0  0
   11.2470   -2.5430    4.6067 H   0  0  0  0  0  0  0  0  0  0  0  0
   11.4545   -4.4513    6.6666 H   0  0  0  0  0  0  0  0  0  0  0  0
   10.3286   -5.2046    4.8431 H   0  0  0  0  0  0  0  0  0  0  0  0
   12.6470   -4.4358    3.4679 H   0  0  0  0  0  0  0  0  0  0  0  0
   10.2614   -5.6986    2.5565 H   0  0  0  0  0  0  0  0  0  0  0  0
   11.0993   -4.1203    0.9809 H   0  0  0  0  0  0  0  0  0  0  0  0
   11.3415   -5.7620    0.3970 H   0  0  0  0  0  0  0  0  0  0  0  0
   13.3198   -4.1345    1.8024 H   0  0  0  0  0  0  0  0  0  0  0  0
   13.5357   -6.8029    0.5837 H   0  0  0  0  0  0  0  0  0  0  0  0
   13.5583   -6.4724    2.3264 H   0  0  0  0  0  0  0  0  0  0  0  0
   15.5762   -5.0467    2.0421 H   0  0  0  0  0  0  0  0  0  0  0  0
   15.5666   -5.3840    0.3035 H   0  0  0  0  0  0  0  0  0  0  0  0
   15.7889   -7.8272    0.7776 H   0  0  0  0  0  0  0  0  0  0  0  0
   15.7975   -7.4901    2.5143 H   0  0  0  0  0  0  0  0  0  0  0  0
   17.8325   -6.0708    2.2283 H   0  0  0  0  0  0  0  0  0  0  0  0
   17.8243   -6.4102    0.4914 H   0  0  0  0  0  0  0  0  0  0  0  0
   18.0465   -8.8511    0.9666 H   0  0  0  0  0  0  0  0  0  0  0  0
   18.0526   -8.5129    2.7038 H   0  0  0  0  0  0  0  0  0  0  0  0
   20.0869   -7.0937    2.4212 H   0  0  0  0  0  0  0  0  0  0  0  0
   20.0804   -7.4296    0.6835 H   0  0  0  0  0  0  0  0  0  0  0  0
   20.3022   -9.8712    1.1538 H   0  0  0  0  0  0  0  0  0  0  0  0
   20.3066   -9.5366    2.8918 H   0  0  0  0  0  0  0  0  0  0  0  0
   22.3406   -8.1162    2.6140 H   0  0  0  0  0  0  0  0  0  0  0  0
   22.3359   -8.4484    0.8756 H   0  0  0  0  0  0  0  0  0  0  0  0
   22.5555  -10.8920    1.3427 H   0  0  0  0  0  0  0  0  0  0  0  0
   22.5623  -10.5585    3.0808 H   0  0  0  0  0  0  0  0  0  0  0  0
   24.5959   -9.1364    2.7992 H   0  0  0  0  0  0  0  0  0  0  0  0
   24.5894   -9.4722    1.0615 H   0  0  0  0  0  0  0  0  0  0  0  0
   24.8111  -11.9138    1.5318 H   0  0  0  0  0  0  0  0  0  0  0  0
   24.8155  -11.5792    3.2697 H   0  0  0  0  0  0  0  0  0  0  0  0
   26.8493  -10.1577    2.9909 H   0  0  0  0  0  0  0  0  0  0  0  0
   26.8449  -10.4923    1.2530 H   0  0  0  0  0  0  0  0  0  0  0  0
   27.0645  -12.9352    1.7235 H   0  0  0  0  0  0  0  0  0  0  0  0
   27.0709  -12.5993    3.4612 H   0  0  0  0  0  0  0  0  0  0  0  0
   29.1047  -11.1785    3.1791 H   0  0  0  0  0  0  0  0  0  0  0  0
   29.0982  -11.5144    1.4414 H   0  0  0  0  0  0  0  0  0  0  0  0
   29.3189  -13.9565    1.9125 H   0  0  0  0  0  0  0  0  0  0  0  0
   29.3254  -13.6206    3.6502 H   0  0  0  0  0  0  0  0  0  0  0  0
   31.3591  -12.1998    3.3680 H   0  0  0  0  0  0  0  0  0  0  0  0
   31.3526  -12.5357    1.6303 H   0  0  0  0  0  0  0  0  0  0  0  0
   31.5733  -14.9777    2.1015 H   0  0  0  0  0  0  0  0  0  0  0  0
   31.5798  -14.6419    3.8392 H   0  0  0  0  0  0  0  0  0  0  0  0
   33.6135  -13.2211    3.5570 H   0  0  0  0  0  0  0  0  0  0  0  0
   33.6070  -13.5569    1.8193 H   0  0  0  0  0  0  0  0  0  0  0  0
   33.8277  -15.9990    2.2904 H   0  0  0  0  0  0  0  0  0  0  0  0
   33.8342  -15.6632    4.0282 H   0  0  0  0  0  0  0  0  0  0  0  0
   35.8681  -14.2434    3.7469 H   0  0  0  0  0  0  0  0  0  0  0  0
   35.8612  -14.5769    2.0088 H   0  0  0  0  0  0  0  0  0  0  0  0
   36.0819  -17.0196    2.4765 H   0  0  0  0  0  0  0  0  0  0  0  0
   36.0888  -16.6862    4.2146 H   0  0  0  0  0  0  0  0  0  0  0  0
   38.1226  -15.2651    3.9339 H   0  0  0  0  0  0  0  0  0  0  0  0
   38.1156  -15.5985    2.1958 H   0  0  0  0  0  0  0  0  0  0  0  0
   38.3362  -18.0413    2.6634 H   0  0  0  0  0  0  0  0  0  0  0  0
   38.3432  -17.7079    4.4016 H   0  0  0  0  0  0  0  0  0  0  0  0
   40.3771  -16.2878    4.1219 H   0  0  0  0  0  0  0  0  0  0  0  0
   40.3698  -16.6189    2.3832 H   0  0  0  0  0  0  0  0  0  0  0  0
   40.5915  -19.0618    2.8467 H   0  0  0  0  0  0  0  0  0  0  0  0
   40.5967  -18.7320    4.5855 H   0  0  0  0  0  0  0  0  0  0  0  0
   42.6302  -17.3089    4.3088 H   0  0  0  0  0  0  0  0  0  0  0  0
   42.6255  -17.6411    2.5703 H   0  0  0  0  0  0  0  0  0  0  0  0
   42.8472  -20.0837    3.0357 H   0  0  0  0  0  0  0  0  0  0  0  0
   42.8498  -19.7527    4.7744 H   0  0  0  0  0  0  0  0  0  0  0  0
   44.8833  -18.3292    4.4996 H   0  0  0  0  0  0  0  0  0  0  0  0
   44.8812  -18.6626    2.7614 H   0  0  0  0  0  0  0  0  0  0  0  0
   45.1029  -21.1048    3.2288 H   0  0  0  0  0  0  0  0  0  0  0  0
   45.1029  -20.7726    4.9672 H   0  0  0  0  0  0  0  0  0  0  0  0
   47.1367  -19.3499    4.6954 H   0  0  0  0  0  0  0  0  0  0  0  0
   47.1367  -19.6820    2.9569 H   0  0  0  0  0  0  0  0  0  0  0  0
   47.3573  -22.1249    3.4237 H   0  0  0  0  0  0  0  0  0  0  0  0
   47.3573  -21.7928    5.1621 H   0  0  0  0  0  0  0  0  0  0  0  0
   49.3911  -20.3700    4.8903 H   0  0  0  0  0  0  0  0  0  0  0  0
   49.3911  -20.7021    3.1518 H   0  0  0  0  0  0  0  0  0  0  0  0
   49.6117  -23.1451    3.6186 H   0  0  0  0  0  0  0  0  0  0  0  0
   49.6117  -22.8129    5.3570 H   0  0  0  0  0  0  0  0  0  0  0  0
   51.6455  -21.3902    5.0852 H   0  0  0  0  0  0  0  0  0  0  0  0
   51.6455  -21.7223    3.3467 H   0  0  0  0  0  0  0  0  0  0  0  0
   51.8651  -24.1657    3.8143 H   0  0  0  0  0  0  0  0  0  0  0  0
   51.8672  -23.8324    5.5525 H   0  0  0  0  0  0  0  0  0  0  0  0
   53.9012  -22.4112    5.2782 H   0  0  0  0  0  0  0  0  0  0  0  0
   53.8986  -22.7423    3.5396 H   0  0  0  0  0  0  0  0  0  0  0  0
   54.1203  -25.1851    4.0035 H   0  0  0  0  0  0  0  0  0  0  0  0
   54.1208  -24.8554    5.7424 H   0  0  0  0  0  0  0  0  0  0  0  0
   56.1546  -23.4323    5.4720 H   0  0  0  0  0  0  0  0  0  0  0  0
   56.1541  -23.7620    3.7331 H   0  0  0  0  0  0  0  0  0  0  0  0
   56.3737  -26.2061    4.1972 H   0  0  0  0  0  0  0  0  0  0  0  0
   56.3762  -25.8751    5.9359 H   0  0  0  0  0  0  0  0  0  0  0  0
   58.4098  -24.4517    5.6611 H   0  0  0  0  0  0  0  0  0  0  0  0
   58.4076  -24.7850    3.9229 H   0  0  0  0  0  0  0  0  0  0  0  0
   58.6272  -27.2282    4.3920 H   0  0  0  0  0  0  0  0  0  0  0  0
   58.6315  -26.8935    6.1299 H   0  0  0  0  0  0  0  0  0  0  0  0
   60.6651  -25.4710    5.8502 H   0  0  0  0  0  0  0  0  0  0  0  0
   60.6611  -25.8080    4.1128 H   0  0  0  0  0  0  0  0  0  0  0  0
   60.8807  -28.2502    4.5867 H   0  0  0  0  0  0  0  0  0  0  0  0
   60.8868  -27.9120    6.3240 H   0  0  0  0  0  0  0  0  0  0  0  0
   62.9207  -26.4925    6.0413 H   0  0  0  0  0  0  0  0  0  0  0  0
   62.9143  -26.8284    4.3036 H   0  0  0  0  0  0  0  0  0  0  0  0
   63.1349  -29.2704    4.7747 H   0  0  0  0  0  0  0  0  0  0  0  0
   63.1414  -28.9346    6.5124 H   0  0  0  0  0  0  0  0  0  0  0  0
   65.1754  -27.5149    6.2312 H   0  0  0  0  0  0  0  0  0  0  0  0
   65.1685  -27.8483    4.4931 H   0  0  0  0  0  0  0  0  0  0  0  0
   65.3891  -30.2911    4.9608 H   0  0  0  0  0  0  0  0  0  0  0  0
   65.3960  -29.9576    6.6989 H   0  0  0  0  0  0  0  0  0  0  0  0
   67.4298  -28.5366    6.4182 H   0  0  0  0  0  0  0  0  0  0  0  0
   67.4228  -28.8700    4.6801 H   0  0  0  0  0  0  0  0  0  0  0  0
   67.6434  -31.3127    5.1478 H   0  0  0  0  0  0  0  0  0  0  0  0
   67.6504  -30.9793    6.8859 H   0  0  0  0  0  0  0  0  0  0  0  0
   69.6841  -29.5582    6.6052 H   0  0  0  0  0  0  0  0  0  0  0  0
   69.6772  -29.8917    4.8670 H   0  0  0  0  0  0  0  0  0  0  0  0
   69.8978  -32.3344    5.3347 H   0  0  0  0  0  0  0  0  0  0  0  0
   69.9048  -32.0010    7.0729 H   0  0  0  0  0  0  0  0  0  0  0  0
   71.9385  -30.5799    6.7922 H   0  0  0  0  0  0  0  0  0  0  0  0
   71.9316  -30.9133    5.0540 H   0  0  0  0  0  0  0  0  0  0  0  0
   72.1522  -33.3561    5.5217 H   0  0  0  0  0  0  0  0  0  0  0  0
   72.1591  -33.0227    7.2599 H   0  0  0  0  0  0  0  0  0  0  0  0
   74.1929  -31.6016    6.9792 H   0  0  0  0  0  0  0  0  0  0  0  0
   74.1860  -31.9350    5.2410 H   0  0  0  0  0  0  0  0  0  0  0  0
   74.4066  -34.3778    5.7087 H   0  0  0  0  0  0  0  0  0  0  0  0
   74.4135  -34.0443    7.4469 H   0  0  0  0  0  0  0  0  0  0  0  0
   76.4471  -32.6222    7.1652 H   0  0  0  0  0  0  0  0  0  0  0  0
   76.4406  -32.9580    5.4275 H   0  0  0  0  0  0  0  0  0  0  0  0
   76.6612  -35.4001    5.8987 H   0  0  0  0  0  0  0  0  0  0  0  0
   76.6677  -35.0643    7.6364 H   0  0  0  0  0  0  0  0  0  0  0  0
   78.7015  -33.6435    7.3542 H   0  0  0  0  0  0  0  0  0  0  0  0
   78.6950  -33.9794    5.6165 H   0  0  0  0  0  0  0  0  0  0  0  0
   78.9156  -36.4214    6.0876 H   0  0  0  0  0  0  0  0  0  0  0  0
   78.9221  -36.0856    7.8253 H   0  0  0  0  0  0  0  0  0  0  0  0
   80.9559  -34.6648    7.5432 H   0  0  0  0  0  0  0  0  0  0  0  0
   80.9494  -35.0006    5.8054 H   0  0  0  0  0  0  0  0  0  0  0  0
   81.1700  -37.4428    6.2766 H   0  0  0  0  0  0  0  0  0  0  0  0
   81.1765  -37.1069    8.0143 H   0  0  0  0  0  0  0  0  0  0  0  0
   83.2101  -35.6850    7.7312 H   0  0  0  0  0  0  0  0  0  0  0  0
   83.2040  -36.0233    5.9939 H   0  0  0  0  0  0  0  0  0  0  0  0
   83.4246  -38.4647    6.4685 H   0  0  0  0  0  0  0  0  0  0  0  0
   83.4307  -38.1265    8.2058 H   0  0  0  0  0  0  0  0  0  0  0  0
   85.4646  -36.7061    7.9221 H   0  0  0  0  0  0  0  0  0  0  0  0
   85.4585  -37.0444    6.1849 H   0  0  0  0  0  0  0  0  0  0  0  0
   85.6779  -39.4866    6.6604 H   0  0  0  0  0  0  0  0  0  0  0  0
   85.6860  -39.1471    8.3975 H   0  0  0  0  0  0  0  0  0  0  0  0
   87.7199  -37.7269    8.1090 H   0  0  0  0  0  0  0  0  0  0  0  0
   87.7121  -38.0686    6.3734 H   0  0  0  0  0  0  0  0  0  0  0  0
   87.9444  -40.5116    6.8529 H   0  0  0  0  0  0  0  0  0  0  0  0
   87.9521  -40.1697    8.5894 H   0  0  0  0  0  0  0  0  0  0  0  0
   89.9844  -39.1047    6.5639 H   0  0  0  0  0  0  0  0  0  0  0  0
   90.2608  -40.4190    7.7262 H   0  0  0  0  0  0  0  0  0  0  0  0
   89.9922  -38.7617    8.3059 H   0  0  0  0  0  0  0  0  0  0  0  0
  1  2  2  0  0  0  0
  1 81  1  0  0  0  0
  1 82  1  0  0  0  0
  2  3  1  0  0  0  0
  2 83  1  0  0  0  0
  3  4  1  0  0  0  0
  3 84  1  0  0  0  0
  3 85  1  0  0  0  0
  4  5  1  0  0  0  0
  4 86  1  0  0  0  0
  5  6  1  0  0  0  0
  5 87  1  0  0  0  0
  6  7  1  0  0  0  0
  6 88  1  0  0  0  0
  7  8  1  0  0  0  0
  7 89  1  0  0  0  0
  8  9  1  0  0  0  0
  8 90  1  0  0  0  0
  9 10  1  0  0  0  0
  9 91  1  0  0  0  0
 10 11  1  0  0  0  0
 10 92  1  0  0  0  0
 11 12  1  0  0  0  0
 11 93  1  0  0  0  0
 11 94  1  0  0  0  0
 12 13  1  0  0  0  0
 12 95  1  0  0  0  0
 13 14  1  0  0  0  0
 13 96  1  0  0  0  0
 13 97  1  0  0  0  0
 14 15  1  0  0  0  0
 14 98  1  0  0  0  0
 14 99  1  0  0  0  0
 15 16  1  0  0  0  0
 15100  1  0  0  0  0
 15101  1  0  0  0  0
 16 17  1  0  0  0  0
 16102  1  0  0  0  0
 16103  1  0  0  0  0
 17 18  1  0  0  0  0
 17104  1  0  0  0  0
 17105  1  0  0  0  0
 18 19  1  0  0  0  0
 18106  1  0  0  0  0
 18107  1  0  0  0  0
 19 20  1  0  0  0  0
 19108  1  0  0  0  0
 19109  1  0  0  0  0
 20 21  1  0  0  0  0
 20110  1  0  0  0  0
 20111  1  0  0  0  0
 21 22  1  0  0  0  0
 21112  1  0  0  0  0
 21113  1  0  0  0  0
 22 23  1  0  0  0  0
 22114  1  0  0  0  0
 22115  1  0  0  0  0
 23 24  1  0  0  0  0
 23116  1  0  0  0  0
 23117  1  0  0  0  0
 24 25  1  0  0  0  0
 24118  1  0  0  0  0
 24119  1  0  0  0  0
 25 26  1  0  0  0  0
 25120  1  0  0  0  0
 25121  1  0  0  0  0
 26 27  1  0  0  0  0
 26122  1  0  0  0  0
 26123  1  0  0  0  0
 27 28  1  0  0  0  0
 27124  1  0  0  0  0
 27125  1  0  0  0  0
 28 29  1  0  0  0  0
 28126  1  0  0  0  0
 28127  1  0  0  0  0
 29 30  1  0  0  0  0
 29128  1  0  0  0  0
 29129  1  0  0  0  0
 30 31  1  0  0  0  0
 30130  1  0  0  0  0
 30131  1  0  0  0  0
 31 32  1  0  0  0  0
 31132  1  0  0  0  0
 31133  1  0  0  0  0
 32 33  1  0  0  0  0
 32134  1  0  0  0  0
 32135  1  0  0  0  0
 33 34  1  0  0  0  0
 33136  1  0  0  0  0
 33137  1  0  0  0  0
 34 35  1  0  0  0  0
 34138  1  0  0  0  0
 34139  1  0  0  0  0
 35 36  1  0  0  0  0
 35140  1  0  0  0  0
 35141  1  0  0  0  0
 36 37  1  0  0  0  0
 36142  1  0  0  0  0
 36143  1  0  0  0  0
 37 38  1  0  0  0  0
 37144  1  0  0  0  0
 37145  1  0  0  0  0
 38 39  1  0  0  0  0
 38146  1  0  0  0  0
 38147  1  0  0  0  0
 39 40  1  0  0  0  0
 39148  1  0  0  0  0
 39149  1  0  0  0  0
 40 41  1  0  0  0  0
 40150  1  0  0  0  0
 40151  1  0  0  0  0
 41 42  1  0  0  0  0
 41152  1  0  0  0  0
 41153  1  0  0  0  0
 42 43  1  0  0  0  0
 42154  1  0  0  0  0
 42155  1  0  0  0  0
 43 44  1  0  0  0  0
 43156  1  0  0  0  0
 43157  1  0  0  0  0
 44 45  1  0  0  0  0
 44158  1  0  0  0  0
 44159  1  0  0  0  0
 45 46  1  0  0  0  0
 45160  1  0  0  0  0
 45161  1  0  0  0  0
 46 47  1  0  0  0  0
 46162  1  0  0  0  0
 46163  1  0  0  0  0
 47 48  1  0  0  0  0
 47164  1  0  0  0  0
 47165  1  0  0  0  0
 48 49  1  0  0  0  0
 48166  1  0  0  0  0
 48167  1  0  0  0  0
 49 50  1  0  0  0  0
 49168  1  0  0  0  0
 49169  1  0  0  0  0
 50 51  1  0  0  0  0
 50170  1  0  0  0  0
 50171  1  0  0  0  0
 51 52  1  0  0  0  0
 51172  1  0  0  0  0
 51173  1  0  0  0  0
 52 53  1  0  0  0  0
 52174  1  0  0  0  0
 52175  1  0  0  0  0
 53 54  1  0  0  0  0
 53176  1  0  0  0  0
 53177  1  0  0  0  0
 54 55  1  0  0  0  0
 54178  1  0  0  0  0
 54179  1  0  0  0  0
 55 56  1  0  0  0  0
 55180  1  0  0  0  0
 55181  1  0  0  0  0
 56 57  1  0  0  0  0
 56182  1  0  0  0  0
 56183  1  0  0  0  0
 57 58  1  0  0  0  0
 57184  1  0  0  0  0
 57185  1  0  0  0  0
 58 59  1  0  0  0  0
 58186  1  0  0  0  0
 58187  1  0  0  0  0
 59 60  1  0  0  0  0
 59188  1  0  0  0  0
 59189  1  0  0  0  0
 60 61  1  0  0  0  0
 60190  1  0  0  0  0
 60191  1  0  0  0  0
 61 62  1  0  0  0  0
 61192  1  0  0  0  0
 61193  1  0  0  0  0
 62 63  1  0  0  0  0
 62194  1  0  0  0  0
 62195  1  0  0  0  0
 63 64  1  0  0  0  0
 63196  1  0  0  0  0
 63197  1  0  0  0  0
 64 65  1  0  0  0  0
 64198  1  0  0  0  0
 64199  1  0  0  0  0
 65 66  1  0  0  0  0
 65200  1  0  0  0  0
 65201  1  0  0  0  0
 66 67  1  0  0  0  0
 66202  1  0  0  0  0
 66203  1  0  0  0  0
 67 68  1  0  0  0  0
 67204  1  0  0  0  0
 67205  1  0  0  0  0
 68 69  1  0  0  0  0
 68206  1  0  0  0  0
 68207  1  0  0  0  0
 69 70  1  0  0  0  0
 69208  1  0  0  0  0
 69209  1  0  0  0  0
 70 71  1  0  0  0  0
 70210  1  0  0  0  0
 70211  1  0  0  0  0
 71 72  1  0  0  0  0
 71212  1  0  0  0  0
 71213  1  0  0  0  0
 72 73  1  0  0  0  0
 72214  1  0  0  0  0
 72215  1  0  0  0  0
 73 74  1  0  0  0  0
 73216  1  0  0  0  0
 73217  1  0  0  0  0
 74 75  1  0  0  0  0
 74218  1  0  0  0  0
 74219  1  0  0  0  0
 75 76  1  0  0  0  0
 75220  1  0  0  0  0
 75221  1  0  0  0  0
 76 77  1  0  0  0  0
 76222  1  0  0  0  0
 76223  1  0  0  0  0
 77 78  1  0  0  0  0
 77224  1  0  0  0  0
 77225  1  0  0  0  0
 78 79  1  0  0  0  0
 78226  1  0  0  0  0
 78227  1  0  0  0  0
 79 80  1  0  0  0  0
 79228  1  0  0  0  0
 79229  1  0  0  0  0
 80230  1  0  0  0  0
 80231  1  0  0  0  0
 80232  1  0  0  0  0
M  END
$$$$
