
 OpenBabel04232216483D

 90 91  0  0  0  0  0  0  0  0999 V2000
    6.5735   -1.0834   -3.4299 C   0  0  0  0  0  0  0  0  0  0  0  0
    7.3403   -2.1199   -2.4952 C   0  0  0  0  0  0  0  0  0  0  0  0
    6.4062   -2.0991   -1.4602 C   0  0  0  0  0  0  0  0  0  0  0  0
    6.1454   -2.4463   -0.0937 C   0  0  0  0  0  0  0  0  0  0  0  0
    5.6070   -3.6591    0.1755 C   0  0  0  0  0  0  0  0  0  0  0  0
    4.6941   -4.3138   -0.8440 C   0  0  0  0  0  0  0  0  0  0  0  0
    4.1365   -5.7163   -0.6120 C   0  0  0  0  0  0  0  0  0  0  0  0
    3.3053   -6.1619   -1.8298 C   0  0  0  0  0  0  0  0  0  0  0  0
    4.0978   -6.1752   -3.1466 C   0  0  0  0  0  0  0  0  0  0  0  0
    3.2370   -6.6741   -4.3011 C   0  0  0  0  0  0  0  0  0  0  0  0
    4.0129   -6.6941   -5.6167 C   0  0  0  0  0  0  0  0  0  0  0  0
    3.1239   -7.1924   -6.7430 C   0  0  0  0  0  0  0  0  0  0  0  0
    6.6733   -4.4465    0.8002 C   0  0  0  0  0  0  0  0  0  0  0  0
    7.6555   -4.6912   -0.0825 C   0  0  0  0  0  0  0  0  0  0  0  0
    8.8787   -3.9645    0.1115 C   0  0  0  0  0  0  0  0  0  0  0  0
    9.8724   -4.5325    0.7970 C   0  0  0  0  0  0  0  0  0  0  0  0
   11.1368   -4.3161    0.1572 C   0  0  0  0  0  0  0  0  0  0  0  0
   11.7412   -2.9074    0.2343 C   0  0  0  0  0  0  0  0  0  0  0  0
   11.4008   -5.2203   -0.8399 C   0  0  0  0  0  0  0  0  0  0  0  0
   10.7457   -6.5466   -1.1990 C   0  0  0  0  0  0  0  0  0  0  0  0
   11.6229   -7.8148   -1.3641 C   0  0  0  0  0  0  0  0  0  0  0  0
   11.9838   -8.4888   -0.0481 C   0  0  0  0  0  0  0  0  0  0  0  0
   10.7083   -8.8269    0.6978 C   0  0  0  0  0  0  0  0  0  0  0  0
   10.9275   -9.3131    2.0963 C   0  0  0  0  0  0  0  0  0  0  0  0
    9.5859   -9.4305    2.7565 C   0  0  0  0  0  0  0  0  0  0  0  0
    9.7614   -9.8487    4.1939 C   0  0  0  0  0  0  0  0  0  0  0  0
    8.4066   -9.9723    4.8716 C   0  0  0  0  0  0  0  0  0  0  0  0
    8.6115  -10.4122    6.3062 C   0  0  0  0  0  0  0  0  0  0  0  0
   12.1819   -4.5868   -1.8481 C   0  0  0  0  0  0  0  0  0  0  0  0
   11.7091   -3.7515   -2.8467 C   0  0  0  0  0  0  0  0  0  0  0  0
   12.9043   -3.7396   -3.7543 C   0  0  0  0  0  0  0  0  0  0  0  0
   13.2951   -4.9004   -4.3642 C   0  0  0  0  0  0  0  0  0  0  0  0
   12.3767   -5.9944   -4.5563 C   0  0  0  0  0  0  0  0  0  0  0  0
   11.0263   -5.9708   -4.4334 C   0  0  0  0  0  0  0  0  0  0  0  0
    9.9925   -4.9601   -3.9295 C   0  0  0  0  0  0  0  0  0  0  0  0
   10.1685   -3.7986   -3.2321 C   0  0  0  0  0  0  0  0  0  0  0  0
    9.0345   -2.4382   -2.9886 C   0  0  0  0  0  0  0  0  0  0  0  0
    9.5340   -1.3694   -3.4120 O   0  0  0  0  0  0  0  0  0  0  0  0
    5.5909   -1.4993   -3.7422 H   0  0  0  0  0  0  0  0  0  0  0  0
    7.0758   -0.6843   -4.2987 H   0  0  0  0  0  0  0  0  0  0  0  0
    6.2823   -0.1888   -2.8246 H   0  0  0  0  0  0  0  0  0  0  0  0
    5.4248   -1.6554   -1.6792 H   0  0  0  0  0  0  0  0  0  0  0  0
    6.6483   -1.8665    0.6758 H   0  0  0  0  0  0  0  0  0  0  0  0
    5.2409   -4.3269   -1.7885 H   0  0  0  0  0  0  0  0  0  0  0  0
    3.8320   -3.6446   -0.9919 H   0  0  0  0  0  0  0  0  0  0  0  0
    3.4960   -5.7243    0.2783 H   0  0  0  0  0  0  0  0  0  0  0  0
    4.9462   -6.4320   -0.4393 H   0  0  0  0  0  0  0  0  0  0  0  0
    2.4420   -5.4928   -1.9410 H   0  0  0  0  0  0  0  0  0  0  0  0
    2.9054   -7.1636   -1.6359 H   0  0  0  0  0  0  0  0  0  0  0  0
    4.9913   -6.8007   -3.0358 H   0  0  0  0  0  0  0  0  0  0  0  0
    4.4365   -5.1669   -3.4087 H   0  0  0  0  0  0  0  0  0  0  0  0
    2.3633   -6.0194   -4.4072 H   0  0  0  0  0  0  0  0  0  0  0  0
    2.8674   -7.6804   -4.0752 H   0  0  0  0  0  0  0  0  0  0  0  0
    4.8915   -7.3436   -5.5275 H   0  0  0  0  0  0  0  0  0  0  0  0
    4.3783   -5.6878   -5.8589 H   0  0  0  0  0  0  0  0  0  0  0  0
    2.7575   -8.2012   -6.5276 H   0  0  0  0  0  0  0  0  0  0  0  0
    3.6759   -7.2219   -7.6866 H   0  0  0  0  0  0  0  0  0  0  0  0
    2.2580   -6.5349   -6.8725 H   0  0  0  0  0  0  0  0  0  0  0  0
    6.9617   -4.0834    1.7924 H   0  0  0  0  0  0  0  0  0  0  0  0
    7.4346   -4.8110   -1.1521 H   0  0  0  0  0  0  0  0  0  0  0  0
    9.0689   -3.1174   -0.5475 H   0  0  0  0  0  0  0  0  0  0  0  0
    9.6662   -5.4684    1.2884 H   0  0  0  0  0  0  0  0  0  0  0  0
   10.9823   -2.1317    0.3761 H   0  0  0  0  0  0  0  0  0  0  0  0
   12.2760   -2.5816   -0.6678 H   0  0  0  0  0  0  0  0  0  0  0  0
   12.4741   -2.8632    1.0388 H   0  0  0  0  0  0  0  0  0  0  0  0
   10.2184   -6.4681   -2.1433 H   0  0  0  0  0  0  0  0  0  0  0  0
    9.8925   -6.7386   -0.5520 H   0  0  0  0  0  0  0  0  0  0  0  0
   12.5279   -7.6146   -1.9466 H   0  0  0  0  0  0  0  0  0  0  0  0
   11.0504   -8.5497   -1.9545 H   0  0  0  0  0  0  0  0  0  0  0  0
   12.6265   -7.8308    0.5440 H   0  0  0  0  0  0  0  0  0  0  0  0
   12.5478   -9.4118   -0.2396 H   0  0  0  0  0  0  0  0  0  0  0  0
   10.1077   -9.5467    0.1264 H   0  0  0  0  0  0  0  0  0  0  0  0
   10.0945   -7.9365    0.8234 H   0  0  0  0  0  0  0  0  0  0  0  0
   11.5742   -8.6016    2.6410 H   0  0  0  0  0  0  0  0  0  0  0  0
   11.5007  -10.3287    2.0538 H   0  0  0  0  0  0  0  0  0  0  0  0
    8.9528  -10.1401    2.2129 H   0  0  0  0  0  0  0  0  0  0  0  0
    9.0671   -8.4551    2.7227 H   0  0  0  0  0  0  0  0  0  0  0  0
   10.3668   -9.0958    4.7157 H   0  0  0  0  0  0  0  0  0  0  0  0
   10.2997  -10.7985    4.2333 H   0  0  0  0  0  0  0  0  0  0  0  0
    7.7857  -10.7021    4.3379 H   0  0  0  0  0  0  0  0  0  0  0  0
    7.8729   -9.0139    4.8448 H   0  0  0  0  0  0  0  0  0  0  0  0
    9.1376  -11.3714    6.3343 H   0  0  0  0  0  0  0  0  0  0  0  0
    7.6506  -10.5259    6.8115 H   0  0  0  0  0  0  0  0  0  0  0  0
    9.2107   -9.6744    6.8496 H   0  0  0  0  0  0  0  0  0  0  0  0
   13.2383   -4.8428   -1.7031 H   0  0  0  0  0  0  0  0  0  0  0  0
   13.6976   -3.0381   -3.4710 H   0  0  0  0  0  0  0  0  0  0  0  0
   14.3696   -5.1121   -4.4448 H   0  0  0  0  0  0  0  0  0  0  0  0
   12.8887   -6.9380   -4.8117 H   0  0  0  0  0  0  0  0  0  0  0  0
   10.5798   -6.9196   -4.6697 H   0  0  0  0  0  0  0  0  0  0  0  0
    8.9914   -5.3766   -3.9604 H   0  0  0  0  0  0  0  0  0  0  0  0
  1  2  1  0  0  0  0
  1 39  1  0  0  0  0
  1 40  1  0  0  0  0
  1 41  1  0  0  0  0
  2  3  2  3  0  0  0
  2 37  1  0  0  0  0
  3  4  1  0  0  0  0
  3 42  1  0  0  0  0
  4  5  2  3  0  0  0
  4 43  1  0  0  0  0
  5  6  1  0  0  0  0
  5 13  1  0  0  0  0
  6  7  1  0  0  0  0
  6 44  1  0  0  0  0
  6 45  1  0  0  0  0
  7  8  1  0  0  0  0
  7 46  1  0  0  0  0
  7 47  1  0  0  0  0
  8  9  1  0  0  0  0
  8 48  1  0  0  0  0
  8 49  1  0  0  0  0
  9 10  1  0  0  0  0
  9 50  1  0  0  0  0
  9 51  1  0  0  0  0
 10 11  1  0  0  0  0
 10 52  1  0  0  0  0
 10 53  1  0  0  0  0
 11 12  1  0  0  0  0
 11 54  1  0  0  0  0
 11 55  1  0  0  0  0
 12 56  1  0  0  0  0
 12 57  1  0  0  0  0
 12 58  1  0  0  0  0
 13 14  2  3  0  0  0
 13 59  1  0  0  0  0
 14 15  1  0  0  0  0
 14 60  1  0  0  0  0
 15 16  2  3  0  0  0
 15 61  1  0  0  0  0
 16 17  1  0  0  0  0
 16 62  1  0  0  0  0
 17 18  1  0  0  0  0
 17 19  2  3  0  0  0
 18 63  1  0  0  0  0
 18 64  1  0  0  0  0
 18 65  1  0  0  0  0
 19 20  1  0  0  0  0
 19 29  1  0  0  0  0
 20 21  1  0  0  0  0
 20 66  1  0  0  0  0
 20 67  1  0  0  0  0
 21 22  1  0  0  0  0
 21 68  1  0  0  0  0
 21 69  1  0  0  0  0
 22 23  1  0  0  0  0
 22 70  1  0  0  0  0
 22 71  1  0  0  0  0
 23 24  1  0  0  0  0
 23 72  1  0  0  0  0
 23 73  1  0  0  0  0
 24 25  1  0  0  0  0
 24 74  1  0  0  0  0
 24 75  1  0  0  0  0
 25 26  1  0  0  0  0
 25 76  1  0  0  0  0
 25 77  1  0  0  0  0
 26 27  1  0  0  0  0
 26 78  1  0  0  0  0
 26 79  1  0  0  0  0
 27 28  1  0  0  0  0
 27 80  1  0  0  0  0
 27 81  1  0  0  0  0
 28 82  1  0  0  0  0
 28 83  1  0  0  0  0
 28 84  1  0  0  0  0
 29 30  2  3  0  0  0
 29 85  1  0  0  0  0
 30 31  1  0  0  0  0
 30 36  1  0  0  0  0
 31 32  2  0  0  0  0
 31 86  1  0  0  0  0
 32 33  1  0  0  0  0
 32 87  1  0  0  0  0
 33 34  2  0  0  0  0
 33 88  1  0  0  0  0
 34 35  1  0  0  0  0
 34 89  1  0  0  0  0
 35 36  2  0  0  0  0
 35 90  1  0  0  0  0
 36 37  1  0  0  0  0
 37 38  2  0  0  0  0
M  END
$$$$
