
 OpenBabel04232216523D

 58 59  0  0  1  0  0  0  0  0999 V2000
    8.9962    5.2309   -3.0950 C   0  0  0  0  0  0  0  0  0  0  0  0
    8.6728    4.3317   -1.9129 C   0  0  0  0  0  0  0  0  0  0  0  0
    7.2851    4.6289   -1.3481 C   0  0  0  0  0  0  0  0  0  0  0  0
    6.9611    3.7210   -0.1608 C   0  0  0  0  0  0  0  0  0  0  0  0
    5.5664    4.0334    0.3820 C   0  0  3  0  0  0  0  0  0  0  0  0
    5.1227    3.1647    1.5997 C   0  0  3  0  0  0  0  0  0  0  0  0
    4.6514    3.9680    2.8064 C   0  0  0  0  0  0  0  0  0  0  0  0
    4.1990    3.0384    3.9383 C   0  0  0  0  0  0  0  0  0  0  0  0
    3.6606    3.8152    5.1442 C   0  0  0  0  0  0  0  0  0  0  0  0
    2.4517    4.6484    4.7281 C   0  0  0  0  0  0  0  0  0  0  0  0
    1.8945    5.4278    5.7894 N   0  0  0  0  0  0  0  0  0  0  0  0
    0.7967    6.2294    5.5533 C   0  0  0  0  0  0  0  0  0  0  0  0
    0.2989    6.3620    4.4311 O   0  0  0  0  0  0  0  0  0  0  0  0
    0.2863    7.0233    6.7478 C   0  0  0  0  0  0  0  0  0  0  0  0
    0.4865    6.3191    8.0739 C   0  0  3  0  0  3  0  0  0  0  0  0
    1.8420    6.0400    8.4795 N   0  0  0  0  0  0  0  0  0  0  0  0
    2.1130    5.2583    9.6676 C   0  0  0  0  0  0  0  0  0  0  0  0
    1.5383    5.8740   10.9311 C   0  0  0  0  0  0  0  0  0  0  0  0
    0.1144    5.4079   11.2277 C   0  0  0  0  0  0  0  0  0  0  0  0
   -0.7766    5.1713   10.0101 C   0  0  0  0  0  0  0  0  0  0  0  0
   -0.7133    6.2936    8.9850 C   0  0  0  0  0  0  0  0  0  0  0  0
    4.0105    2.6584    0.6949 C   0  0  0  0  0  0  0  0  0  0  0  0
    4.4050    3.3915   -0.3608 C   0  0  0  0  0  0  0  0  0  0  0  0
    9.9930    5.0019   -3.4838 H   0  0  0  0  0  0  0  0  0  0  0  0
    8.9799    6.2855   -2.8016 H   0  0  0  0  0  0  0  0  0  0  0  0
    8.2742    5.0883   -3.9057 H   0  0  0  0  0  0  0  0  0  0  0  0
    9.4304    4.4748   -1.1337 H   0  0  0  0  0  0  0  0  0  0  0  0
    8.7288    3.2840   -2.2310 H   0  0  0  0  0  0  0  0  0  0  0  0
    6.5305    4.4997   -2.1332 H   0  0  0  0  0  0  0  0  0  0  0  0
    7.2331    5.6781   -1.0314 H   0  0  0  0  0  0  0  0  0  0  0  0
    7.7031    3.8807    0.6310 H   0  0  0  0  0  0  0  0  0  0  0  0
    7.0336    2.6677   -0.4601 H   0  0  0  0  0  0  0  0  0  0  0  0
    5.4528    5.1120    0.5632 H   0  0  0  0  0  0  0  0  0  0  0  0
    5.8650    2.4103    1.8917 H   0  0  0  0  0  0  0  0  0  0  0  0
    3.8362    4.6245    2.4850 H   0  0  0  0  0  0  0  0  0  0  0  0
    5.4542    4.6185    3.1712 H   0  0  0  0  0  0  0  0  0  0  0  0
    5.0386    2.4094    4.2566 H   0  0  0  0  0  0  0  0  0  0  0  0
    3.4201    2.3553    3.5765 H   0  0  0  0  0  0  0  0  0  0  0  0
    4.4481    4.4596    5.5547 H   0  0  0  0  0  0  0  0  0  0  0  0
    3.3805    3.1142    5.9360 H   0  0  0  0  0  0  0  0  0  0  0  0
    1.6655    4.0008    4.3303 H   0  0  0  0  0  0  0  0  0  0  0  0
    2.7153    5.3686    3.9534 H   0  0  0  0  0  0  0  0  0  0  0  0
    2.1822    5.2866    6.7596 H   0  0  0  0  0  0  0  0  0  0  0  0
   -0.7790    7.1942    6.5616 H   0  0  0  0  0  0  0  0  0  0  0  0
    0.7916    7.9927    6.7498 H   0  0  0  0  0  0  0  0  0  0  0  0
    2.4654    6.8445    8.3837 H   0  0  0  0  0  0  0  0  0  0  0  0
    3.2037    5.2017    9.7678 H   0  0  0  0  0  0  0  0  0  0  0  0
    1.7859    4.2205    9.5319 H   0  0  0  0  0  0  0  0  0  0  0  0
    1.5659    6.9695   10.8609 H   0  0  0  0  0  0  0  0  0  0  0  0
    2.1764    5.6154   11.7839 H   0  0  0  0  0  0  0  0  0  0  0  0
   -0.3567    6.1477   11.8855 H   0  0  0  0  0  0  0  0  0  0  0  0
    0.1583    4.4742   11.8010 H   0  0  0  0  0  0  0  0  0  0  0  0
   -1.8102    5.0806   10.3678 H   0  0  0  0  0  0  0  0  0  0  0  0
   -0.5390    4.2102    9.5374 H   0  0  0  0  0  0  0  0  0  0  0  0
   -0.7734    7.2644    9.4930 H   0  0  0  0  0  0  0  0  0  0  0  0
   -1.6167    6.2153    8.3671 H   0  0  0  0  0  0  0  0  0  0  0  0
    3.1896    1.9674    0.8621 H   0  0  0  0  0  0  0  0  0  0  0  0
    4.0278    3.5151   -1.3710 H   0  0  0  0  0  0  0  0  0  0  0  0
  1  2  1  0  0  0  0
  1 24  1  0  0  0  0
  1 25  1  0  0  0  0
  1 26  1  0  0  0  0
  2  3  1  0  0  0  0
  2 27  1  0  0  0  0
  2 28  1  0  0  0  0
  3  4  1  0  0  0  0
  3 29  1  0  0  0  0
  3 30  1  0  0  0  0
  4  5  1  0  0  0  0
  4 31  1  0  0  0  0
  4 32  1  0  0  0  0
  5  6  1  0  0  0  0
  5 23  1  0  0  0  0
  5 33  1  0  0  0  0
  6  7  1  0  0  0  0
  6 22  1  0  0  0  0
  6 34  1  0  0  0  0
  7  8  1  0  0  0  0
  7 35  1  0  0  0  0
  7 36  1  0  0  0  0
  8  9  1  0  0  0  0
  8 37  1  0  0  0  0
  8 38  1  0  0  0  0
  9 10  1  0  0  0  0
  9 39  1  0  0  0  0
  9 40  1  0  0  0  0
 10 11  1  0  0  0  0
 10 41  1  0  0  0  0
 10 42  1  0  0  0  0
 11 12  1  0  0  0  0
 11 43  1  0  0  0  0
 12 13  2  0  0  0  0
 12 14  1  0  0  0  0
 14 15  1  0  0  0  0
 14 44  1  0  0  0  0
 14 45  1  0  0  0  0
 15 16  1  0  0  0  0
 15 21  1  0  0  0  0
 16 17  1  0  0  0  0
 16 46  1  0  0  0  0
 17 18  1  0  0  0  0
 17 47  1  0  0  0  0
 17 48  1  0  0  0  0
 18 19  1  0  0  0  0
 18 49  1  0  0  0  0
 18 50  1  0  0  0  0
 19 20  1  0  0  0  0
 19 51  1  0  0  0  0
 19 52  1  0  0  0  0
 20 21  1  0  0  0  0
 20 53  1  0  0  0  0
 20 54  1  0  0  0  0
 21 55  1  0  0  0  0
 21 56  1  0  0  0  0
 22 23  2  0  0  0  0
 22 57  1  0  0  0  0
 23 58  1  0  0  0  0
M  END
$$$$
