
 OpenBabel04232216533D

243242  0  0  0  0  0  0  0  0999 V2000
    1.0236   -0.0723   -0.0222 C   0  0  0  0  0  0  0  0  0  0  0  0
    2.5419   -0.0811   -0.0168 C   0  0  0  0  0  0  0  0  0  0  0  0
    3.0741   -1.1265    0.9566 C   0  0  0  0  0  0  0  0  0  0  0  0
    4.5987   -1.1386    0.9681 C   0  0  0  0  0  0  0  0  0  0  0  0
    5.1111   -2.1894    1.9463 C   0  0  0  0  0  0  0  0  0  0  0  0
    6.5738   -2.1743    1.9311 N   0  0  0  0  0  0  0  0  0  0  0  0
    7.0426   -3.1687    2.8622 N   0  0  0  0  0  0  0  0  0  0  0  0
    8.5048   -3.1540    2.8447 C   0  0  0  0  0  0  0  0  0  0  0  0
    9.0116   -4.2024    3.8233 C   0  0  0  0  0  0  0  0  0  0  0  0
   10.5321   -4.2116    3.8322 C   0  0  0  0  0  0  0  0  0  0  0  0
   11.0462   -5.2548    4.8089 C   0  0  0  0  0  0  0  0  0  0  0  0
   12.5648   -5.2608    4.8120 C   0  0  0  0  0  0  0  0  0  0  0  0
   13.0782   -6.3021    5.7898 C   0  0  0  0  0  0  0  0  0  0  0  0
   14.5959   -6.3062    5.7938 C   0  0  0  0  0  0  0  0  0  0  0  0
   15.1074   -7.3475    6.7717 C   0  0  0  0  0  0  0  0  0  0  0  0
   16.6246   -7.3497    6.7763 C   0  0  0  0  0  0  0  0  0  0  0  0
   17.1356   -8.3923    7.7527 C   0  0  0  0  0  0  0  0  0  0  0  0
   18.6525   -8.3963    7.7564 C   0  0  0  0  0  0  0  0  0  0  0  0
   19.1626   -9.4376    8.7346 C   0  0  0  0  0  0  0  0  0  0  0  0
   20.6794   -9.4403    8.7394 C   0  0  0  0  0  0  0  0  0  0  0  0
   21.1897  -10.4800    9.7188 C   0  0  0  0  0  0  0  0  0  0  0  0
   22.7064  -10.4835    9.7221 C   0  0  0  0  0  0  0  0  0  0  0  0
   23.2166  -11.5247   10.6999 C   0  0  0  0  0  0  0  0  0  0  0  0
   24.7333  -11.5295   10.7017 C   0  0  0  0  0  0  0  0  0  0  0  0
   25.2434  -12.5707   11.6794 C   0  0  0  0  0  0  0  0  0  0  0  0
   26.7600  -12.5742   11.6827 C   0  0  0  0  0  0  0  0  0  0  0  0
   27.2700  -13.6154   12.6605 C   0  0  0  0  0  0  0  0  0  0  0  0
   28.7866  -13.6189   12.6637 C   0  0  0  0  0  0  0  0  0  0  0  0
   29.2967  -14.6600   13.6415 C   0  0  0  0  0  0  0  0  0  0  0  0
   30.8133  -14.6635   13.6447 C   0  0  0  0  0  0  0  0  0  0  0  0
   31.3233  -15.7047   14.6225 C   0  0  0  0  0  0  0  0  0  0  0  0
   32.8399  -15.7082   14.6258 C   0  0  0  0  0  0  0  0  0  0  0  0
   33.3500  -16.7493   15.6035 C   0  0  0  0  0  0  0  0  0  0  0  0
   34.8666  -16.7542   15.6053 C   0  0  0  0  0  0  0  0  0  0  0  0
   35.3766  -17.7954   16.5831 C   0  0  0  0  0  0  0  0  0  0  0  0
   36.8933  -17.7988   16.5864 C   0  0  0  0  0  0  0  0  0  0  0  0
   37.4033  -18.8414   17.5626 C   0  0  0  0  0  0  0  0  0  0  0  0
   38.9199  -18.8463   17.5644 C   0  0  0  0  0  0  0  0  0  0  0  0
   39.4299  -19.8874   18.5422 C   0  0  0  0  0  0  0  0  0  0  0  0
   40.9466  -19.8909   18.5455 C   0  0  0  0  0  0  0  0  0  0  0  0
   41.4566  -20.9334   19.5218 C   0  0  0  0  0  0  0  0  0  0  0  0
   42.9732  -20.9369   19.5250 C   0  0  0  0  0  0  0  0  0  0  0  0
   43.4833  -21.9795   20.5013 C   0  0  0  0  0  0  0  0  0  0  0  0
   44.9999  -21.9830   20.5046 C   0  0  0  0  0  0  0  0  0  0  0  0
   45.5099  -23.0255   21.4808 C   0  0  0  0  0  0  0  0  0  0  0  0
   47.0266  -23.0290   21.4841 C   0  0  0  0  0  0  0  0  0  0  0  0
   47.5366  -24.0715   22.4604 C   0  0  0  0  0  0  0  0  0  0  0  0
   49.0532  -24.0750   22.4636 C   0  0  0  0  0  0  0  0  0  0  0  0
   49.5634  -25.1174   23.4400 C   0  0  0  0  0  0  0  0  0  0  0  0
   51.0800  -25.1195   23.4446 C   0  0  0  0  0  0  0  0  0  0  0  0
   51.5894  -26.1624   24.4208 C   0  0  0  0  0  0  0  0  0  0  0  0
   53.1073  -26.1625   24.4285 C   0  0  0  0  0  0  0  0  0  0  0  0
   53.6151  -27.2089   25.4000 C   0  0  0  0  0  0  0  0  0  0  0  0
   55.1349  -27.2076   25.4070 C   0  0  0  0  0  0  0  0  0  0  0  0
   55.6428  -28.2519   26.3827 C   0  0  0  0  0  0  0  0  0  0  0  0
   57.1605  -28.2525   26.3892 C   0  0  0  0  0  0  0  0  0  0  0  0
   57.6699  -29.2933   27.3680 C   0  0  0  0  0  0  0  0  0  0  0  0
   59.1864  -29.2924   27.3755 C   0  0  0  0  0  0  0  0  0  0  0  0
   59.6965  -30.3353   28.3513 C   0  0  0  0  0  0  0  0  0  0  0  0
   61.2130  -30.3344   28.3590 C   0  0  0  0  0  0  0  0  0  0  0  0
   61.7231  -31.3758   29.3363 C   0  0  0  0  0  0  0  0  0  0  0  0
   63.2398  -31.3765   29.3426 C   0  0  0  0  0  0  0  0  0  0  0  0
   63.7498  -32.4176   30.3204 C   0  0  0  0  0  0  0  0  0  0  0  0
   65.2665  -32.4183   30.3266 C   0  0  0  0  0  0  0  0  0  0  0  0
   65.7766  -33.4594   31.3044 C   0  0  0  0  0  0  0  0  0  0  0  0
   67.2932  -33.4607   31.3107 C   0  0  0  0  0  0  0  0  0  0  0  0
   67.8029  -34.5017   32.2885 C   0  0  0  0  0  0  0  0  0  0  0  0
   69.3196  -34.5028   32.2950 C   0  0  0  0  0  0  0  0  0  0  0  0
   69.8296  -35.5438   33.2727 C   0  0  0  0  0  0  0  0  0  0  0  0
   71.3464  -35.5432   33.2805 C   0  0  0  0  0  0  0  0  0  0  0  0
   71.8571  -36.5844   34.2583 C   0  0  0  0  0  0  0  0  0  0  0  0
   73.3741  -36.5841   34.2662 C   0  0  0  0  0  0  0  0  0  0  0  0
   73.8853  -37.6255   35.2442 C   0  0  0  0  0  0  0  0  0  0  0  0
   75.4028  -37.6259   35.2529 C   0  0  0  0  0  0  0  0  0  0  0  0
   75.9153  -38.6677   36.2312 C   0  0  0  0  0  0  0  0  0  0  0  0
   77.4340  -38.6676   36.2422 C   0  0  0  0  0  0  0  0  0  0  0  0
   77.9501  -39.7095   37.2207 C   0  0  0  0  0  0  0  0  0  0  0  0
   79.4711  -39.7112   37.2334 C   0  0  0  0  0  0  0  0  0  0  0  0
   79.9902  -40.7553   38.2115 C   0  0  0  0  0  0  0  0  0  0  0  0
   81.5142  -40.7653   38.2343 C   0  0  0  0  0  0  0  0  0  0  0  0
   82.0271  -41.8063   39.2093 C   0  0  0  0  0  0  0  0  0  0  0  0
    0.6510    0.6803   -0.7227 H   0  0  0  0  0  0  0  0  0  0  0  0
    0.6322    0.1616    0.9731 H   0  0  0  0  0  0  0  0  0  0  0  0
    0.6298   -1.0479   -0.3251 H   0  0  0  0  0  0  0  0  0  0  0  0
    2.9112    0.9122    0.2635 H   0  0  0  0  0  0  0  0  0  0  0  0
    2.9090   -0.2916   -1.0280 H   0  0  0  0  0  0  0  0  0  0  0  0
    2.7012   -2.1190    0.6751 H   0  0  0  0  0  0  0  0  0  0  0  0
    2.7015   -0.9162    1.9667 H   0  0  0  0  0  0  0  0  0  0  0  0
    4.9741   -0.1468    1.2510 H   0  0  0  0  0  0  0  0  0  0  0  0
    4.9755   -1.3523   -0.0403 H   0  0  0  0  0  0  0  0  0  0  0  0
    4.7400   -3.1782    1.6486 H   0  0  0  0  0  0  0  0  0  0  0  0
    4.7363   -1.9741    2.9550 H   0  0  0  0  0  0  0  0  0  0  0  0
    6.8868   -1.2390    2.2130 H   0  0  0  0  0  0  0  0  0  0  0  0
    6.7307   -4.1053    2.5837 H   0  0  0  0  0  0  0  0  0  0  0  0
    8.8799   -2.1664    3.1410 H   0  0  0  0  0  0  0  0  0  0  0  0
    8.8806   -3.3736    1.8372 H   0  0  0  0  0  0  0  0  0  0  0  0
    8.6389   -5.1959    3.5428 H   0  0  0  0  0  0  0  0  0  0  0  0
    8.6372   -3.9887    4.8328 H   0  0  0  0  0  0  0  0  0  0  0  0
   10.9098   -3.2210    4.1141 H   0  0  0  0  0  0  0  0  0  0  0  0
   10.9094   -4.4280    2.8251 H   0  0  0  0  0  0  0  0  0  0  0  0
   10.6706   -6.2466    4.5291 H   0  0  0  0  0  0  0  0  0  0  0  0
   10.6726   -5.0391    5.8174 H   0  0  0  0  0  0  0  0  0  0  0  0
   12.9423   -4.2693    5.0911 H   0  0  0  0  0  0  0  0  0  0  0  0
   12.9401   -5.4787    3.8045 H   0  0  0  0  0  0  0  0  0  0  0  0
   12.7033   -7.2944    5.5104 H   0  0  0  0  0  0  0  0  0  0  0  0
   12.7034   -6.0854    6.7977 H   0  0  0  0  0  0  0  0  0  0  0  0
   14.9720   -5.3146    6.0739 H   0  0  0  0  0  0  0  0  0  0  0  0
   14.9722   -6.5234    4.7865 H   0  0  0  0  0  0  0  0  0  0  0  0
   14.7331   -8.3399    6.4913 H   0  0  0  0  0  0  0  0  0  0  0  0
   14.7311   -7.1316    7.7792 H   0  0  0  0  0  0  0  0  0  0  0  0
   16.9992   -6.3580    7.0584 H   0  0  0  0  0  0  0  0  0  0  0  0
   17.0015   -7.5645    5.7688 H   0  0  0  0  0  0  0  0  0  0  0  0
   16.7601   -9.3839    7.4715 H   0  0  0  0  0  0  0  0  0  0  0  0
   16.7599   -8.1766    8.7605 H   0  0  0  0  0  0  0  0  0  0  0  0
   19.0286   -7.4046    8.0365 H   0  0  0  0  0  0  0  0  0  0  0  0
   19.0287   -8.6134    6.7491 H   0  0  0  0  0  0  0  0  0  0  0  0
   18.7878  -10.4298    8.4542 H   0  0  0  0  0  0  0  0  0  0  0  0
   18.7858   -9.2211    9.7419 H   0  0  0  0  0  0  0  0  0  0  0  0
   21.0545   -8.4478    9.0186 H   0  0  0  0  0  0  0  0  0  0  0  0
   21.0564   -9.6582    7.7325 H   0  0  0  0  0  0  0  0  0  0  0  0
   20.8140  -11.4723    9.4405 H   0  0  0  0  0  0  0  0  0  0  0  0
   20.8140  -10.2615   10.7260 H   0  0  0  0  0  0  0  0  0  0  0  0
   23.0823   -9.4916   10.0020 H   0  0  0  0  0  0  0  0  0  0  0  0
   23.0823  -10.7007    8.7147 H   0  0  0  0  0  0  0  0  0  0  0  0
   22.8398  -12.5165   10.4209 H   0  0  0  0  0  0  0  0  0  0  0  0
   22.8420  -11.3068   11.7077 H   0  0  0  0  0  0  0  0  0  0  0  0
   25.1102  -10.5378   10.9807 H   0  0  0  0  0  0  0  0  0  0  0  0
   25.1080  -11.7475    9.6939 H   0  0  0  0  0  0  0  0  0  0  0  0
   24.8675  -13.5626   11.3996 H   0  0  0  0  0  0  0  0  0  0  0  0
   24.8676  -12.3536   12.6870 H   0  0  0  0  0  0  0  0  0  0  0  0
   27.1358  -11.5823   11.9626 H   0  0  0  0  0  0  0  0  0  0  0  0
   27.1358  -12.7913   10.6752 H   0  0  0  0  0  0  0  0  0  0  0  0
   26.8942  -14.6073   12.3806 H   0  0  0  0  0  0  0  0  0  0  0  0
   26.8942  -13.3983   13.6680 H   0  0  0  0  0  0  0  0  0  0  0  0
   29.1624  -12.6270   12.9436 H   0  0  0  0  0  0  0  0  0  0  0  0
   29.1624  -13.8360   11.6562 H   0  0  0  0  0  0  0  0  0  0  0  0
   28.9209  -15.6519   13.3616 H   0  0  0  0  0  0  0  0  0  0  0  0
   28.9209  -14.4429   14.6490 H   0  0  0  0  0  0  0  0  0  0  0  0
   31.1891  -13.6716   13.9246 H   0  0  0  0  0  0  0  0  0  0  0  0
   31.1891  -14.8806   12.6372 H   0  0  0  0  0  0  0  0  0  0  0  0
   30.9475  -16.6966   14.3426 H   0  0  0  0  0  0  0  0  0  0  0  0
   30.9475  -15.4876   15.6300 H   0  0  0  0  0  0  0  0  0  0  0  0
   33.2158  -14.7163   14.9056 H   0  0  0  0  0  0  0  0  0  0  0  0
   33.2157  -15.9253   13.6182 H   0  0  0  0  0  0  0  0  0  0  0  0
   32.9730  -17.7410   15.3245 H   0  0  0  0  0  0  0  0  0  0  0  0
   32.9753  -16.5314   16.6113 H   0  0  0  0  0  0  0  0  0  0  0  0
   35.2435  -15.7625   15.8844 H   0  0  0  0  0  0  0  0  0  0  0  0
   35.2412  -16.9721   14.5976 H   0  0  0  0  0  0  0  0  0  0  0  0
   35.0007  -18.7872   16.3032 H   0  0  0  0  0  0  0  0  0  0  0  0
   35.0009  -17.5783   17.5907 H   0  0  0  0  0  0  0  0  0  0  0  0
   37.2691  -16.8074   16.8676 H   0  0  0  0  0  0  0  0  0  0  0  0
   37.2690  -18.0146   15.5785 H   0  0  0  0  0  0  0  0  0  0  0  0
   37.0264  -19.8327   17.2823 H   0  0  0  0  0  0  0  0  0  0  0  0
   37.0286  -18.6248   18.5707 H   0  0  0  0  0  0  0  0  0  0  0  0
   39.2969  -17.8545   17.8435 H   0  0  0  0  0  0  0  0  0  0  0  0
   39.2945  -19.0641   16.5567 H   0  0  0  0  0  0  0  0  0  0  0  0
   39.0541  -20.8793   18.2623 H   0  0  0  0  0  0  0  0  0  0  0  0
   39.0542  -19.6704   19.5497 H   0  0  0  0  0  0  0  0  0  0  0  0
   41.3223  -18.8994   18.8267 H   0  0  0  0  0  0  0  0  0  0  0  0
   41.3224  -20.1066   17.5376 H   0  0  0  0  0  0  0  0  0  0  0  0
   41.0808  -21.9250   19.2405 H   0  0  0  0  0  0  0  0  0  0  0  0
   41.0808  -20.7178   20.5296 H   0  0  0  0  0  0  0  0  0  0  0  0
   43.3490  -19.9454   19.8063 H   0  0  0  0  0  0  0  0  0  0  0  0
   43.3490  -21.1526   18.5172 H   0  0  0  0  0  0  0  0  0  0  0  0
   43.1075  -22.9710   20.2200 H   0  0  0  0  0  0  0  0  0  0  0  0
   43.1075  -21.7638   21.5091 H   0  0  0  0  0  0  0  0  0  0  0  0
   45.3757  -20.9915   20.7858 H   0  0  0  0  0  0  0  0  0  0  0  0
   45.3757  -22.1986   19.4967 H   0  0  0  0  0  0  0  0  0  0  0  0
   45.1341  -24.0170   21.1996 H   0  0  0  0  0  0  0  0  0  0  0  0
   45.1341  -22.8098   22.4887 H   0  0  0  0  0  0  0  0  0  0  0  0
   47.4024  -22.0375   21.7654 H   0  0  0  0  0  0  0  0  0  0  0  0
   47.4023  -23.2447   20.4763 H   0  0  0  0  0  0  0  0  0  0  0  0
   47.1608  -25.0630   22.1791 H   0  0  0  0  0  0  0  0  0  0  0  0
   47.1608  -23.8559   23.4682 H   0  0  0  0  0  0  0  0  0  0  0  0
   49.4290  -23.0835   22.7449 H   0  0  0  0  0  0  0  0  0  0  0  0
   49.4291  -24.2907   21.4559 H   0  0  0  0  0  0  0  0  0  0  0  0
   49.1886  -26.1093   23.1578 H   0  0  0  0  0  0  0  0  0  0  0  0
   49.1863  -24.9027   24.4475 H   0  0  0  0  0  0  0  0  0  0  0  0
   51.4545  -24.1280   23.7269 H   0  0  0  0  0  0  0  0  0  0  0  0
   51.4569  -25.3345   22.4372 H   0  0  0  0  0  0  0  0  0  0  0  0
   51.2166  -27.1539   24.1379 H   0  0  0  0  0  0  0  0  0  0  0  0
   51.2119  -25.9484   25.4283 H   0  0  0  0  0  0  0  0  0  0  0  0
   53.4799  -25.1718   24.7121 H   0  0  0  0  0  0  0  0  0  0  0  0
   53.4850  -26.3751   23.4195 H   0  0  0  0  0  0  0  0  0  0  0  0
   53.2429  -28.1977   25.1176 H   0  0  0  0  0  0  0  0  0  0  0  0
   53.2391  -26.9946   26.4101 H   0  0  0  0  0  0  0  0  0  0  0  0
   55.5075  -26.2175   25.6893 H   0  0  0  0  0  0  0  0  0  0  0  0
   55.5105  -27.4233   24.3994 H   0  0  0  0  0  0  0  0  0  0  0  0
   55.2703  -29.2432   26.0999 H   0  0  0  0  0  0  0  0  0  0  0  0
   55.2651  -28.0378   27.3902 H   0  0  0  0  0  0  0  0  0  0  0  0
   57.5331  -27.2601   26.6713 H   0  0  0  0  0  0  0  0  0  0  0  0
   57.5384  -28.4675   25.3826 H   0  0  0  0  0  0  0  0  0  0  0  0
   57.2977  -30.2865   27.0857 H   0  0  0  0  0  0  0  0  0  0  0  0
   57.2909  -29.0785   28.3739 H   0  0  0  0  0  0  0  0  0  0  0  0
   59.5587  -28.3006   27.6579 H   0  0  0  0  0  0  0  0  0  0  0  0
   59.5660  -29.5068   26.3680 H   0  0  0  0  0  0  0  0  0  0  0  0
   59.3240  -31.3263   28.0690 H   0  0  0  0  0  0  0  0  0  0  0  0
   59.3168  -30.1212   29.3596 H   0  0  0  0  0  0  0  0  0  0  0  0
   61.5858  -29.3424   28.6406 H   0  0  0  0  0  0  0  0  0  0  0  0
   61.5915  -30.5498   27.3517 H   0  0  0  0  0  0  0  0  0  0  0  0
   61.3497  -32.3681   29.0549 H   0  0  0  0  0  0  0  0  0  0  0  0
   61.3451  -31.1604   30.3436 H   0  0  0  0  0  0  0  0  0  0  0  0
   63.6133  -30.3841   29.6241 H   0  0  0  0  0  0  0  0  0  0  0  0
   63.6179  -31.5919   28.3356 H   0  0  0  0  0  0  0  0  0  0  0  0
   63.3764  -33.4099   30.0388 H   0  0  0  0  0  0  0  0  0  0  0  0
   63.3717  -32.2022   31.3273 H   0  0  0  0  0  0  0  0  0  0  0  0
   65.6398  -31.4260   30.6083 H   0  0  0  0  0  0  0  0  0  0  0  0
   65.6447  -32.6335   29.3195 H   0  0  0  0  0  0  0  0  0  0  0  0
   65.4029  -34.4517   31.0230 H   0  0  0  0  0  0  0  0  0  0  0  0
   65.3985  -33.2439   32.3113 H   0  0  0  0  0  0  0  0  0  0  0  0
   67.6670  -32.4684   31.5919 H   0  0  0  0  0  0  0  0  0  0  0  0
   67.6713  -33.6763   30.3037 H   0  0  0  0  0  0  0  0  0  0  0  0
   67.4292  -35.4938   32.0073 H   0  0  0  0  0  0  0  0  0  0  0  0
   67.4247  -34.2858   33.2955 H   0  0  0  0  0  0  0  0  0  0  0  0
   69.6933  -33.5105   32.5755 H   0  0  0  0  0  0  0  0  0  0  0  0
   69.6975  -34.7190   31.2876 H   0  0  0  0  0  0  0  0  0  0  0  0
   69.4572  -36.5364   32.9905 H   0  0  0  0  0  0  0  0  0  0  0  0
   69.4502  -35.3291   34.2796 H   0  0  0  0  0  0  0  0  0  0  0  0
   71.7184  -34.5505   33.5628 H   0  0  0  0  0  0  0  0  0  0  0  0
   71.7255  -35.7575   32.2737 H   0  0  0  0  0  0  0  0  0  0  0  0
   71.4845  -37.5768   33.9757 H   0  0  0  0  0  0  0  0  0  0  0  0
   71.4775  -36.3697   35.2648 H   0  0  0  0  0  0  0  0  0  0  0  0
   73.7459  -35.5913   34.5484 H   0  0  0  0  0  0  0  0  0  0  0  0
   73.7530  -36.7985   33.2593 H   0  0  0  0  0  0  0  0  0  0  0  0
   73.5125  -38.6177   34.9616 H   0  0  0  0  0  0  0  0  0  0  0  0
   73.5054  -37.4106   36.2506 H   0  0  0  0  0  0  0  0  0  0  0  0
   75.7745  -36.6330   35.5348 H   0  0  0  0  0  0  0  0  0  0  0  0
   75.7816  -37.8401   34.2459 H   0  0  0  0  0  0  0  0  0  0  0  0
   75.5431  -39.6598   35.9475 H   0  0  0  0  0  0  0  0  0  0  0  0
   75.5337  -38.4535   37.2371 H   0  0  0  0  0  0  0  0  0  0  0  0
   77.8036  -37.6742   36.5246 H   0  0  0  0  0  0  0  0  0  0  0  0
   77.8130  -38.8806   35.2351 H   0  0  0  0  0  0  0  0  0  0  0  0
   77.5771  -40.7014   36.9370 H   0  0  0  0  0  0  0  0  0  0  0  0
   77.5677  -39.4952   38.2263 H   0  0  0  0  0  0  0  0  0  0  0  0
   79.8397  -38.7177   37.5167 H   0  0  0  0  0  0  0  0  0  0  0  0
   79.8492  -39.9225   36.2257 H   0  0  0  0  0  0  0  0  0  0  0  0
   79.6157  -41.7459   37.9250 H   0  0  0  0  0  0  0  0  0  0  0  0
   79.6042  -40.5424   39.2161 H   0  0  0  0  0  0  0  0  0  0  0  0
   81.8882  -39.7759   38.5225 H   0  0  0  0  0  0  0  0  0  0  0  0
   81.8999  -40.9796   37.2309 H   0  0  0  0  0  0  0  0  0  0  0  0
   81.6734  -41.5974   40.2240 H   0  0  0  0  0  0  0  0  0  0  0  0
   83.1220  -41.8089   39.2215 H   0  0  0  0  0  0  0  0  0  0  0  0
   81.6851  -42.8070   38.9262 H   0  0  0  0  0  0  0  0  0  0  0  0
  1  2  1  0  0  0  0
  1 82  1  0  0  0  0
  1 83  1  0  0  0  0
  1 84  1  0  0  0  0
  2  3  1  0  0  0  0
  2 85  1  0  0  0  0
  2 86  1  0  0  0  0
  3  4  1  0  0  0  0
  3 87  1  0  0  0  0
  3 88  1  0  0  0  0
  4  5  1  0  0  0  0
  4 89  1  0  0  0  0
  4 90  1  0  0  0  0
  5  6  1  0  0  0  0
  5 91  1  0  0  0  0
  5 92  1  0  0  0  0
  6  7  1  0  0  0  0
  6 93  1  0  0  0  0
  7  8  1  0  0  0  0
  7 94  1  0  0  0  0
  8  9  1  0  0  0  0
  8 95  1  0  0  0  0
  8 96  1  0  0  0  0
  9 10  1  0  0  0  0
  9 97  1  0  0  0  0
  9 98  1  0  0  0  0
 10 11  1  0  0  0  0
 10 99  1  0  0  0  0
 10100  1  0  0  0  0
 11 12  1  0  0  0  0
 11101  1  0  0  0  0
 11102  1  0  0  0  0
 12 13  1  0  0  0  0
 12103  1  0  0  0  0
 12104  1  0  0  0  0
 13 14  1  0  0  0  0
 13105  1  0  0  0  0
 13106  1  0  0  0  0
 14 15  1  0  0  0  0
 14107  1  0  0  0  0
 14108  1  0  0  0  0
 15 16  1  0  0  0  0
 15109  1  0  0  0  0
 15110  1  0  0  0  0
 16 17  1  0  0  0  0
 16111  1  0  0  0  0
 16112  1  0  0  0  0
 17 18  1  0  0  0  0
 17113  1  0  0  0  0
 17114  1  0  0  0  0
 18 19  1  0  0  0  0
 18115  1  0  0  0  0
 18116  1  0  0  0  0
 19 20  1  0  0  0  0
 19117  1  0  0  0  0
 19118  1  0  0  0  0
 20 21  1  0  0  0  0
 20119  1  0  0  0  0
 20120  1  0  0  0  0
 21 22  1  0  0  0  0
 21121  1  0  0  0  0
 21122  1  0  0  0  0
 22 23  1  0  0  0  0
 22123  1  0  0  0  0
 22124  1  0  0  0  0
 23 24  1  0  0  0  0
 23125  1  0  0  0  0
 23126  1  0  0  0  0
 24 25  1  0  0  0  0
 24127  1  0  0  0  0
 24128  1  0  0  0  0
 25 26  1  0  0  0  0
 25129  1  0  0  0  0
 25130  1  0  0  0  0
 26 27  1  0  0  0  0
 26131  1  0  0  0  0
 26132  1  0  0  0  0
 27 28  1  0  0  0  0
 27133  1  0  0  0  0
 27134  1  0  0  0  0
 28 29  1  0  0  0  0
 28135  1  0  0  0  0
 28136  1  0  0  0  0
 29 30  1  0  0  0  0
 29137  1  0  0  0  0
 29138  1  0  0  0  0
 30 31  1  0  0  0  0
 30139  1  0  0  0  0
 30140  1  0  0  0  0
 31 32  1  0  0  0  0
 31141  1  0  0  0  0
 31142  1  0  0  0  0
 32 33  1  0  0  0  0
 32143  1  0  0  0  0
 32144  1  0  0  0  0
 33 34  1  0  0  0  0
 33145  1  0  0  0  0
 33146  1  0  0  0  0
 34 35  1  0  0  0  0
 34147  1  0  0  0  0
 34148  1  0  0  0  0
 35 36  1  0  0  0  0
 35149  1  0  0  0  0
 35150  1  0  0  0  0
 36 37  1  0  0  0  0
 36151  1  0  0  0  0
 36152  1  0  0  0  0
 37 38  1  0  0  0  0
 37153  1  0  0  0  0
 37154  1  0  0  0  0
 38 39  1  0  0  0  0
 38155  1  0  0  0  0
 38156  1  0  0  0  0
 39 40  1  0  0  0  0
 39157  1  0  0  0  0
 39158  1  0  0  0  0
 40 41  1  0  0  0  0
 40159  1  0  0  0  0
 40160  1  0  0  0  0
 41 42  1  0  0  0  0
 41161  1  0  0  0  0
 41162  1  0  0  0  0
 42 43  1  0  0  0  0
 42163  1  0  0  0  0
 42164  1  0  0  0  0
 43 44  1  0  0  0  0
 43165  1  0  0  0  0
 43166  1  0  0  0  0
 44 45  1  0  0  0  0
 44167  1  0  0  0  0
 44168  1  0  0  0  0
 45 46  1  0  0  0  0
 45169  1  0  0  0  0
 45170  1  0  0  0  0
 46 47  1  0  0  0  0
 46171  1  0  0  0  0
 46172  1  0  0  0  0
 47 48  1  0  0  0  0
 47173  1  0  0  0  0
 47174  1  0  0  0  0
 48 49  1  0  0  0  0
 48175  1  0  0  0  0
 48176  1  0  0  0  0
 49 50  1  0  0  0  0
 49177  1  0  0  0  0
 49178  1  0  0  0  0
 50 51  1  0  0  0  0
 50179  1  0  0  0  0
 50180  1  0  0  0  0
 51 52  1  0  0  0  0
 51181  1  0  0  0  0
 51182  1  0  0  0  0
 52 53  1  0  0  0  0
 52183  1  0  0  0  0
 52184  1  0  0  0  0
 53 54  1  0  0  0  0
 53185  1  0  0  0  0
 53186  1  0  0  0  0
 54 55  1  0  0  0  0
 54187  1  0  0  0  0
 54188  1  0  0  0  0
 55 56  1  0  0  0  0
 55189  1  0  0  0  0
 55190  1  0  0  0  0
 56 57  1  0  0  0  0
 56191  1  0  0  0  0
 56192  1  0  0  0  0
 57 58  1  0  0  0  0
 57193  1  0  0  0  0
 57194  1  0  0  0  0
 58 59  1  0  0  0  0
 58195  1  0  0  0  0
 58196  1  0  0  0  0
 59 60  1  0  0  0  0
 59197  1  0  0  0  0
 59198  1  0  0  0  0
 60 61  1  0  0  0  0
 60199  1  0  0  0  0
 60200  1  0  0  0  0
 61 62  1  0  0  0  0
 61201  1  0  0  0  0
 61202  1  0  0  0  0
 62 63  1  0  0  0  0
 62203  1  0  0  0  0
 62204  1  0  0  0  0
 63 64  1  0  0  0  0
 63205  1  0  0  0  0
 63206  1  0  0  0  0
 64 65  1  0  0  0  0
 64207  1  0  0  0  0
 64208  1  0  0  0  0
 65 66  1  0  0  0  0
 65209  1  0  0  0  0
 65210  1  0  0  0  0
 66 67  1  0  0  0  0
 66211  1  0  0  0  0
 66212  1  0  0  0  0
 67 68  1  0  0  0  0
 67213  1  0  0  0  0
 67214  1  0  0  0  0
 68 69  1  0  0  0  0
 68215  1  0  0  0  0
 68216  1  0  0  0  0
 69 70  1  0  0  0  0
 69217  1  0  0  0  0
 69218  1  0  0  0  0
 70 71  1  0  0  0  0
 70219  1  0  0  0  0
 70220  1  0  0  0  0
 71 72  1  0  0  0  0
 71221  1  0  0  0  0
 71222  1  0  0  0  0
 72 73  1  0  0  0  0
 72223  1  0  0  0  0
 72224  1  0  0  0  0
 73 74  1  0  0  0  0
 73225  1  0  0  0  0
 73226  1  0  0  0  0
 74 75  1  0  0  0  0
 74227  1  0  0  0  0
 74228  1  0  0  0  0
 75 76  1  0  0  0  0
 75229  1  0  0  0  0
 75230  1  0  0  0  0
 76 77  1  0  0  0  0
 76231  1  0  0  0  0
 76232  1  0  0  0  0
 77 78  1  0  0  0  0
 77233  1  0  0  0  0
 77234  1  0  0  0  0
 78 79  1  0  0  0  0
 78235  1  0  0  0  0
 78236  1  0  0  0  0
 79 80  1  0  0  0  0
 79237  1  0  0  0  0
 79238  1  0  0  0  0
 80 81  1  0  0  0  0
 80239  1  0  0  0  0
 80240  1  0  0  0  0
 81241  1  0  0  0  0
 81242  1  0  0  0  0
 81243  1  0  0  0  0
M  END
$$$$
