
 OpenBabel04232216473D

 52 55  0  0  0  0  0  0  0  0999 V2000
    3.8555   -2.1366    0.6515 C   0  0  0  0  0  0  0  0  0  0  0  0
    4.5521   -3.2155    1.6075 C   0  0  0  0  0  0  0  0  0  0  0  0
    5.8931   -3.0579    1.4742 C   0  0  0  0  0  0  0  0  0  0  0  0
    6.3881   -1.8885    2.1150 C   0  0  0  0  0  0  0  0  0  0  0  0
    7.5180   -1.2486    2.3449 N   0  0  0  0  0  0  0  0  0  0  0  0
    8.0795   -0.5240    1.2028 C   0  0  0  0  0  0  0  0  0  0  0  0
    9.4973   -0.1278    1.5402 C   0  0  0  0  0  0  0  0  0  0  0  0
   10.1345    0.6833    0.4193 C   0  0  0  0  0  0  0  0  0  0  0  0
   11.5319    1.1095    0.8507 C   0  0  0  0  0  0  0  0  0  0  0  0
   12.2082    1.9482   -0.2127 C   0  0  0  0  0  0  0  0  0  0  0  0
    6.3231   -0.9036    2.9742 C   0  0  0  0  0  0  0  0  0  0  0  0
    5.4392   -1.0088    4.0214 N   0  0  0  0  0  0  0  0  0  0  0  0
    5.5862   -1.9688    4.8896 C   0  0  0  0  0  0  0  0  0  0  0  0
    6.8921   -2.8317    4.9611 C   0  0  0  0  0  0  0  0  0  0  0  0
    4.3784   -2.4161    5.7872 C   0  0  0  0  0  0  0  0  0  0  0  0
    4.5160   -3.7245    6.0729 C   0  0  0  0  0  0  0  0  0  0  0  0
    3.7910   -4.6578    5.1656 C   0  0  0  0  0  0  0  0  0  0  0  0
    4.1125   -4.6581    3.8295 C   0  0  0  0  0  0  0  0  0  0  0  0
    4.9069   -5.9417    3.5918 C   0  0  0  0  0  0  0  0  0  0  0  0
    3.8803   -3.5340    2.8636 N   0  0  0  0  0  0  0  0  0  0  0  0
    2.6474   -2.6737    3.0070 C   0  0  0  0  0  0  0  0  0  0  0  0
    2.2177   -2.3601    4.3850 C   0  0  0  0  0  0  0  0  0  0  0  0
    1.0352   -2.7201    5.0962 C   0  0  0  0  0  0  0  0  0  0  0  0
    1.7629   -2.7084    6.2272 C   0  0  0  0  0  0  0  0  0  0  0  0
    2.8871   -2.1024    5.5285 C   0  0  0  0  0  0  0  0  0  0  0  0
    2.7871   -2.3087    0.4958 H   0  0  0  0  0  0  0  0  0  0  0  0
    4.3180   -2.0513   -0.3381 H   0  0  0  0  0  0  0  0  0  0  0  0
    3.9577   -1.1236    1.0883 H   0  0  0  0  0  0  0  0  0  0  0  0
    6.2570   -2.9678    0.4502 H   0  0  0  0  0  0  0  0  0  0  0  0
    7.4722    0.3749    0.9744 H   0  0  0  0  0  0  0  0  0  0  0  0
    8.0835   -1.1487    0.3144 H   0  0  0  0  0  0  0  0  0  0  0  0
   10.0916   -1.0356    1.7166 H   0  0  0  0  0  0  0  0  0  0  0  0
    9.5113    0.4501    2.4712 H   0  0  0  0  0  0  0  0  0  0  0  0
    9.5227    1.5675    0.1987 H   0  0  0  0  0  0  0  0  0  0  0  0
   10.1847    0.0883   -0.5019 H   0  0  0  0  0  0  0  0  0  0  0  0
   12.1405    0.2217    1.0624 H   0  0  0  0  0  0  0  0  0  0  0  0
   11.4670    1.6864    1.7810 H   0  0  0  0  0  0  0  0  0  0  0  0
   12.3226    1.3802   -1.1409 H   0  0  0  0  0  0  0  0  0  0  0  0
   13.1999    2.2561    0.1294 H   0  0  0  0  0  0  0  0  0  0  0  0
   11.6228    2.8480   -0.4268 H   0  0  0  0  0  0  0  0  0  0  0  0
    7.7364   -2.4323    4.4003 H   0  0  0  0  0  0  0  0  0  0  0  0
    6.7142   -3.8320    4.5504 H   0  0  0  0  0  0  0  0  0  0  0  0
    7.2472   -2.9173    5.9902 H   0  0  0  0  0  0  0  0  0  0  0  0
    5.4586   -4.1718    6.3793 H   0  0  0  0  0  0  0  0  0  0  0  0
    3.6509   -5.5854    5.7192 H   0  0  0  0  0  0  0  0  0  0  0  0
    5.8989   -5.7962    3.1640 H   0  0  0  0  0  0  0  0  0  0  0  0
    4.3256   -6.7111    3.0836 H   0  0  0  0  0  0  0  0  0  0  0  0
    5.1516   -6.4133    4.5722 H   0  0  0  0  0  0  0  0  0  0  0  0
    1.8383   -3.0714    2.3871 H   0  0  0  0  0  0  0  0  0  0  0  0
    2.9119   -1.6644    2.6785 H   0  0  0  0  0  0  0  0  0  0  0  0
    0.0892   -3.1526    4.7809 H   0  0  0  0  0  0  0  0  0  0  0  0
    1.5997   -3.1447    7.2095 H   0  0  0  0  0  0  0  0  0  0  0  0
  1  2  1  0  0  0  0
  1 26  1  0  0  0  0
  1 27  1  0  0  0  0
  1 28  1  0  0  0  0
  2  3  2  0  0  0  0
  2 20  1  0  0  0  0
  3  4  1  0  0  0  0
  3 29  1  0  0  0  0
  4  5  1  0  0  0  0
  4 11  2  0  0  0  0
  5  6  1  0  0  0  0
  5 11  1  0  0  0  0
  6  7  1  0  0  0  0
  6 30  1  0  0  0  0
  6 31  1  0  0  0  0
  7  8  1  0  0  0  0
  7 32  1  0  0  0  0
  7 33  1  0  0  0  0
  8  9  1  0  0  0  0
  8 34  1  0  0  0  0
  8 35  1  0  0  0  0
  9 10  1  0  0  0  0
  9 36  1  0  0  0  0
  9 37  1  0  0  0  0
 10 38  1  0  0  0  0
 10 39  1  0  0  0  0
 10 40  1  0  0  0  0
 11 12  1  0  0  0  0
 12 13  2  0  0  0  0
 13 14  1  0  0  0  0
 13 15  1  0  0  0  0
 14 41  1  0  0  0  0
 14 42  1  0  0  0  0
 14 43  1  0  0  0  0
 15 16  2  0  0  0  0
 15 25  1  0  0  0  0
 16 17  1  0  0  0  0
 16 44  1  0  0  0  0
 17 18  2  0  0  0  0
 17 45  1  0  0  0  0
 18 19  1  0  0  0  0
 18 20  1  0  0  0  0
 19 46  1  0  0  0  0
 19 47  1  0  0  0  0
 19 48  1  0  0  0  0
 20 21  1  0  0  0  0
 21 22  1  0  0  0  0
 21 49  1  0  0  0  0
 21 50  1  0  0  0  0
 22 23  1  0  0  0  0
 22 25  2  0  0  0  0
 23 24  2  0  0  0  0
 23 51  1  0  0  0  0
 24 25  1  0  0  0  0
 24 52  1  0  0  0  0
M  END
$$$$
