
 OpenBabel04232216453D

 55 56  0  0  0  0  0  0  0  0999 V2000
    6.9290    1.8698    3.2667 C   0  0  0  0  0  0  0  0  0  0  0  0
    6.2005    0.9555    2.3235 C   0  0  0  0  0  0  0  0  0  0  0  0
    5.2565    0.0314    2.9339 C   0  0  0  0  0  0  0  0  0  0  0  0
    3.9241    0.0444    2.7296 C   0  0  0  0  0  0  0  0  0  0  0  0
    3.0201   -0.9932    3.3349 C   0  0  0  0  0  0  0  0  0  0  0  0
    3.2715    1.0571    1.8908 C   0  0  0  0  0  0  0  0  0  0  0  0
    2.4304    2.0870    2.6185 C   0  0  0  0  0  0  0  0  0  0  0  0
    3.2536    2.8752    3.6523 C   0  0  0  0  0  0  0  0  0  0  0  0
    2.4833    3.9279    4.4115 C   0  0  0  0  0  0  0  0  0  0  0  0
    2.8897    5.2059    4.1871 N   0  0  0  0  0  0  0  0  0  0  0  0
    2.3116    6.1960    4.9008 C   0  0  0  0  0  0  0  0  0  0  0  0
    1.3120    5.9937    5.8397 C   0  0  0  0  0  0  0  0  0  0  0  0
    0.7123    7.1399    6.6091 C   0  0  0  0  0  0  0  0  0  0  0  0
    0.9063    6.9925    8.1225 C   0  0  0  0  0  0  0  0  0  0  0  0
    0.3021    8.1719    8.8847 C   0  0  0  0  0  0  0  0  0  0  0  0
    0.4830    7.9984   10.3930 C   0  0  0  0  0  0  0  0  0  0  0  0
   -0.1161    9.1612   11.1663 C   0  0  0  0  0  0  0  0  0  0  0  0
    0.8857    4.6804    6.0339 C   0  0  0  0  0  0  0  0  0  0  0  0
    1.4853    3.6194    5.3435 C   0  0  0  0  0  0  0  0  0  0  0  0
    1.0385    2.2186    5.6450 C   0  0  0  0  0  0  0  0  0  0  0  0
    3.4473    1.1174    0.5565 C   0  0  0  0  0  0  0  0  0  0  0  0
    4.3591    0.2871   -0.2061 C   0  0  0  0  0  0  0  0  0  0  0  0
    5.6894    0.2493   -0.0112 C   0  0  0  0  0  0  0  0  0  0  0  0
    6.4017    1.0206    0.9921 C   0  0  0  0  0  0  0  0  0  0  0  0
    6.7173    1.6340    4.3155 H   0  0  0  0  0  0  0  0  0  0  0  0
    6.6165    2.9052    3.0992 H   0  0  0  0  0  0  0  0  0  0  0  0
    8.0133    1.8045    3.1210 H   0  0  0  0  0  0  0  0  0  0  0  0
    5.6996   -0.7142    3.5911 H   0  0  0  0  0  0  0  0  0  0  0  0
    3.5862   -1.7780    3.8487 H   0  0  0  0  0  0  0  0  0  0  0  0
    2.4258   -1.4818    2.5566 H   0  0  0  0  0  0  0  0  0  0  0  0
    2.3368   -0.5437    4.0650 H   0  0  0  0  0  0  0  0  0  0  0  0
    1.5886    1.5697    3.0808 H   0  0  0  0  0  0  0  0  0  0  0  0
    1.9871    2.7960    1.9080 H   0  0  0  0  0  0  0  0  0  0  0  0
    4.0834    3.3693    3.1271 H   0  0  0  0  0  0  0  0  0  0  0  0
    3.7231    2.2117    4.3887 H   0  0  0  0  0  0  0  0  0  0  0  0
    2.7017    7.1882    4.6916 H   0  0  0  0  0  0  0  0  0  0  0  0
   -0.3568    7.2005    6.3668 H   0  0  0  0  0  0  0  0  0  0  0  0
    1.1592    8.0861    6.2788 H   0  0  0  0  0  0  0  0  0  0  0  0
    1.9766    6.9133    8.3520 H   0  0  0  0  0  0  0  0  0  0  0  0
    0.4398    6.0646    8.4758 H   0  0  0  0  0  0  0  0  0  0  0  0
   -0.7659    8.2538    8.6493 H   0  0  0  0  0  0  0  0  0  0  0  0
    0.7792    9.1045    8.5602 H   0  0  0  0  0  0  0  0  0  0  0  0
    1.5493    7.9174   10.6328 H   0  0  0  0  0  0  0  0  0  0  0  0
    0.0058    7.0668   10.7200 H   0  0  0  0  0  0  0  0  0  0  0  0
    0.3616   10.1056   10.8870 H   0  0  0  0  0  0  0  0  0  0  0  0
    0.0260    9.0131   12.2413 H   0  0  0  0  0  0  0  0  0  0  0  0
   -1.1903    9.2483   10.9744 H   0  0  0  0  0  0  0  0  0  0  0  0
    0.0932    4.4767    6.7511 H   0  0  0  0  0  0  0  0  0  0  0  0
    0.3706    2.1924    6.5135 H   0  0  0  0  0  0  0  0  0  0  0  0
    1.8954    1.5803    5.8815 H   0  0  0  0  0  0  0  0  0  0  0  0
    0.4755    1.8003    4.8077 H   0  0  0  0  0  0  0  0  0  0  0  0
    2.9147    1.8629   -0.0289 H   0  0  0  0  0  0  0  0  0  0  0  0
    3.9177   -0.2857   -1.0171 H   0  0  0  0  0  0  0  0  0  0  0  0
    6.3072   -0.3545   -0.6700 H   0  0  0  0  0  0  0  0  0  0  0  0
    7.1411    1.7122    0.5948 H   0  0  0  0  0  0  0  0  0  0  0  0
  1  2  1  0  0  0  0
  1 25  1  0  0  0  0
  1 26  1  0  0  0  0
  1 27  1  0  0  0  0
  2  3  1  0  0  0  0
  2 24  2  0  0  0  0
  3  4  2  0  0  0  0
  3 28  1  0  0  0  0
  4  5  1  0  0  0  0
  4  6  1  0  0  0  0
  5 29  1  0  0  0  0
  5 30  1  0  0  0  0
  5 31  1  0  0  0  0
  6  7  1  0  0  0  0
  6 21  2  0  0  0  0
  7  8  1  0  0  0  0
  7 32  1  0  0  0  0
  7 33  1  0  0  0  0
  8  9  1  0  0  0  0
  8 34  1  0  0  0  0
  8 35  1  0  0  0  0
  9 10  1  0  0  0  0
  9 19  2  0  0  0  0
 10 11  2  0  0  0  0
 11 12  1  0  0  0  0
 11 36  1  0  0  0  0
 12 13  1  0  0  0  0
 12 18  2  0  0  0  0
 13 14  1  0  0  0  0
 13 37  1  0  0  0  0
 13 38  1  0  0  0  0
 14 15  1  0  0  0  0
 14 39  1  0  0  0  0
 14 40  1  0  0  0  0
 15 16  1  0  0  0  0
 15 41  1  0  0  0  0
 15 42  1  0  0  0  0
 16 17  1  0  0  0  0
 16 43  1  0  0  0  0
 16 44  1  0  0  0  0
 17 45  1  0  0  0  0
 17 46  1  0  0  0  0
 17 47  1  0  0  0  0
 18 19  1  0  0  0  0
 18 48  1  0  0  0  0
 19 20  1  0  0  0  0
 20 49  1  0  0  0  0
 20 50  1  0  0  0  0
 20 51  1  0  0  0  0
 21 22  1  0  0  0  0
 21 52  1  0  0  0  0
 22 23  2  0  0  0  0
 22 53  1  0  0  0  0
 23 24  1  0  0  0  0
 23 54  1  0  0  0  0
 24 55  1  0  0  0  0
M  END
$$$$
