
 OpenBabel04232216403D

 56 55  0  0  0  0  0  0  0  0999 V2000
    1.5448    1.0187    0.2302 C   0  0  0  0  0  0  0  0  0  0  0  0
    2.4099    0.0019    0.0767 C   0  0  0  0  0  0  0  0  0  0  0  0
    3.1913   -0.5849    1.2120 C   0  0  0  0  0  0  0  0  0  0  0  0
    4.6323   -0.4608    0.9648 N   0  0  0  0  0  0  0  0  0  0  0  0
    5.3324   -1.0379    2.0836 N   0  0  0  0  0  0  0  0  0  0  0  0
    6.7283   -0.9246    1.8701 N   0  0  0  0  0  0  0  0  0  0  0  0
    7.4541   -1.4881    2.9753 N   0  0  0  0  0  0  0  0  0  0  0  0
    8.8796   -1.3513    2.7000 C   0  0  0  0  0  0  0  0  0  0  0  0
    9.6455   -1.9563    3.8679 C   0  0  0  0  0  0  0  0  0  0  0  0
   11.1420   -1.8351    3.6313 C   0  0  0  0  0  0  0  0  0  0  0  0
   11.9073   -2.4396    4.7958 C   0  0  0  0  0  0  0  0  0  0  0  0
   13.4018   -2.3154    4.5566 C   0  0  0  0  0  0  0  0  0  0  0  0
   14.1670   -2.9193    5.7203 C   0  0  0  0  0  0  0  0  0  0  0  0
   15.6609   -2.7948    5.4807 C   0  0  0  0  0  0  0  0  0  0  0  0
   16.4267   -3.3995    6.6457 C   0  0  0  0  0  0  0  0  0  0  0  0
   17.9208   -3.2754    6.4070 C   0  0  0  0  0  0  0  0  0  0  0  0
   18.6895   -3.8801    7.5722 C   0  0  0  0  0  0  0  0  0  0  0  0
   20.1856   -3.7566    7.3345 C   0  0  0  0  0  0  0  0  0  0  0  0
   20.9677   -4.3597    8.4965 C   0  0  0  0  0  0  0  0  0  0  0  0
   22.4581   -4.2343    8.2552 C   0  0  0  0  0  0  0  0  0  0  0  0
    0.9884    1.4163   -0.6103 H   0  0  0  0  0  0  0  0  0  0  0  0
    1.3792    1.4738    1.2010 H   0  0  0  0  0  0  0  0  0  0  0  0
    2.5534   -0.4381   -0.9099 H   0  0  0  0  0  0  0  0  0  0  0  0
    2.9184   -1.6413    1.3087 H   0  0  0  0  0  0  0  0  0  0  0  0
    2.9291   -0.0808    2.1491 H   0  0  0  0  0  0  0  0  0  0  0  0
    4.8406    0.5370    0.8824 H   0  0  0  0  0  0  0  0  0  0  0  0
    5.0585   -2.0240    2.1949 H   0  0  0  0  0  0  0  0  0  0  0  0
    6.9755    0.0643    1.7538 H   0  0  0  0  0  0  0  0  0  0  0  0
    7.2352   -2.4823    3.0586 H   0  0  0  0  0  0  0  0  0  0  0  0
    9.1520   -0.2938    2.5941 H   0  0  0  0  0  0  0  0  0  0  0  0
    9.1503   -1.8689    1.7707 H   0  0  0  0  0  0  0  0  0  0  0  0
    9.3771   -3.0135    3.9917 H   0  0  0  0  0  0  0  0  0  0  0  0
    9.3769   -1.4432    4.8005 H   0  0  0  0  0  0  0  0  0  0  0  0
   11.4169   -0.7797    3.5137 H   0  0  0  0  0  0  0  0  0  0  0  0
   11.4153   -2.3477    2.7008 H   0  0  0  0  0  0  0  0  0  0  0  0
   11.6357   -3.4959    4.9141 H   0  0  0  0  0  0  0  0  0  0  0  0
   11.6356   -1.9287    5.7278 H   0  0  0  0  0  0  0  0  0  0  0  0
   13.6747   -1.2594    4.4389 H   0  0  0  0  0  0  0  0  0  0  0  0
   13.6749   -2.8267    3.6253 H   0  0  0  0  0  0  0  0  0  0  0  0
   13.8946   -3.9756    5.8384 H   0  0  0  0  0  0  0  0  0  0  0  0
   13.8944   -2.4082    6.6520 H   0  0  0  0  0  0  0  0  0  0  0  0
   15.9330   -1.7387    5.3627 H   0  0  0  0  0  0  0  0  0  0  0  0
   15.9332   -3.3060    4.5491 H   0  0  0  0  0  0  0  0  0  0  0  0
   16.1522   -4.4549    6.7624 H   0  0  0  0  0  0  0  0  0  0  0  0
   16.1520   -2.8876    7.5761 H   0  0  0  0  0  0  0  0  0  0  0  0
   18.1917   -2.2190    6.2882 H   0  0  0  0  0  0  0  0  0  0  0  0
   18.1919   -3.7860    5.4747 H   0  0  0  0  0  0  0  0  0  0  0  0
   18.4136   -4.9354    7.6883 H   0  0  0  0  0  0  0  0  0  0  0  0
   18.4134   -3.3680    8.5020 H   0  0  0  0  0  0  0  0  0  0  0  0
   20.4538   -2.6997    7.2141 H   0  0  0  0  0  0  0  0  0  0  0  0
   20.4540   -4.2662    6.4009 H   0  0  0  0  0  0  0  0  0  0  0  0
   20.6986   -5.4160    8.6152 H   0  0  0  0  0  0  0  0  0  0  0  0
   20.6984   -3.8489    9.4287 H   0  0  0  0  0  0  0  0  0  0  0  0
   22.7479   -4.7587    7.3397 H   0  0  0  0  0  0  0  0  0  0  0  0
   23.0130   -4.6683    9.0915 H   0  0  0  0  0  0  0  0  0  0  0  0
   22.7478   -3.1836    8.1573 H   0  0  0  0  0  0  0  0  0  0  0  0
  1  2  2  0  0  0  0
  1 21  1  0  0  0  0
  1 22  1  0  0  0  0
  2  3  1  0  0  0  0
  2 23  1  0  0  0  0
  3  4  1  0  0  0  0
  3 24  1  0  0  0  0
  3 25  1  0  0  0  0
  4  5  1  0  0  0  0
  4 26  1  0  0  0  0
  5  6  1  0  0  0  0
  5 27  1  0  0  0  0
  6  7  1  0  0  0  0
  6 28  1  0  0  0  0
  7  8  1  0  0  0  0
  7 29  1  0  0  0  0
  8  9  1  0  0  0  0
  8 30  1  0  0  0  0
  8 31  1  0  0  0  0
  9 10  1  0  0  0  0
  9 32  1  0  0  0  0
  9 33  1  0  0  0  0
 10 11  1  0  0  0  0
 10 34  1  0  0  0  0
 10 35  1  0  0  0  0
 11 12  1  0  0  0  0
 11 36  1  0  0  0  0
 11 37  1  0  0  0  0
 12 13  1  0  0  0  0
 12 38  1  0  0  0  0
 12 39  1  0  0  0  0
 13 14  1  0  0  0  0
 13 40  1  0  0  0  0
 13 41  1  0  0  0  0
 14 15  1  0  0  0  0
 14 42  1  0  0  0  0
 14 43  1  0  0  0  0
 15 16  1  0  0  0  0
 15 44  1  0  0  0  0
 15 45  1  0  0  0  0
 16 17  1  0  0  0  0
 16 46  1  0  0  0  0
 16 47  1  0  0  0  0
 17 18  1  0  0  0  0
 17 48  1  0  0  0  0
 17 49  1  0  0  0  0
 18 19  1  0  0  0  0
 18 50  1  0  0  0  0
 18 51  1  0  0  0  0
 19 20  1  0  0  0  0
 19 52  1  0  0  0  0
 19 53  1  0  0  0  0
 20 54  1  0  0  0  0
 20 55  1  0  0  0  0
 20 56  1  0  0  0  0
M  END
$$$$
