
 OpenBabel04232216583D

 45 44  0  0  0  0  0  0  0  0999 V2000
    8.9672   -2.4218    1.6077 N   0  0  0  0  0  0  0  0  0  0  0  0
    8.5321   -1.1747    2.1829 N   0  0  0  0  0  0  0  0  0  0  0  0
    8.9721   -0.0708    1.3140 C   0  0  0  0  0  0  0  0  0  0  0  0
    8.4759    1.2886    1.8481 C   0  0  0  0  0  0  0  0  0  0  0  0
    8.9148    2.4403    1.0378 N   0  0  0  0  0  0  0  0  0  0  0  0
    8.3136    2.3593   -0.2491 N   0  0  0  0  0  0  0  0  0  0  0  0
    8.7558    3.4469   -1.0464 N   0  0  0  0  0  0  0  0  0  0  0  0
    8.3245    3.2360   -2.4245 C   0  0  0  0  0  0  0  0  0  0  0  0
    8.8424    4.3386   -3.2299 N   0  0  0  0  0  0  0  0  0  0  0  0
   10.2655    4.2483   -3.3394 N   0  0  0  0  0  0  0  0  0  0  0  0
   10.7214    5.3716   -4.0814 N   0  0  0  0  0  0  0  0  0  0  0  0
   12.1860    5.3760   -4.0751 C   0  0  0  0  0  0  0  0  0  0  0  0
   12.6989    6.5461   -4.9133 C   0  0  0  0  0  0  0  0  0  0  0  0
   14.2271    6.5519   -4.9544 C   0  0  0  0  0  0  0  0  0  0  0  0
   14.7540    7.7098   -5.7999 C   0  0  0  0  0  0  0  0  0  0  0  0
   16.2810    7.7147   -5.8388 C   0  0  0  0  0  0  0  0  0  0  0  0
   16.8083    8.8666   -6.6781 C   0  0  0  0  0  0  0  0  0  0  0  0
    8.5545   -3.2234    2.0916 H   0  0  0  0  0  0  0  0  0  0  0  0
    9.9817   -2.5459    1.6458 H   0  0  0  0  0  0  0  0  0  0  0  0
    8.8788   -1.0271    3.1354 H   0  0  0  0  0  0  0  0  0  0  0  0
    8.5820   -0.2324    0.3014 H   0  0  0  0  0  0  0  0  0  0  0  0
   10.0680   -0.0575    1.2551 H   0  0  0  0  0  0  0  0  0  0  0  0
    8.8647    1.4380    2.8634 H   0  0  0  0  0  0  0  0  0  0  0  0
    7.3816    1.2898    1.9375 H   0  0  0  0  0  0  0  0  0  0  0  0
    9.9319    2.4244    0.9628 H   0  0  0  0  0  0  0  0  0  0  0  0
    7.2871    2.3735   -0.1674 H   0  0  0  0  0  0  0  0  0  0  0  0
    9.7737    3.5033   -1.0832 H   0  0  0  0  0  0  0  0  0  0  0  0
    7.2307    3.2517   -2.4839 H   0  0  0  0  0  0  0  0  0  0  0  0
    8.6643    2.2694   -2.8196 H   0  0  0  0  0  0  0  0  0  0  0  0
    8.5709    5.1918   -2.7428 H   0  0  0  0  0  0  0  0  0  0  0  0
   10.5276    3.3783   -3.8242 H   0  0  0  0  0  0  0  0  0  0  0  0
   10.3839    6.2418   -3.6678 H   0  0  0  0  0  0  0  0  0  0  0  0
   12.5674    4.4376   -4.4971 H   0  0  0  0  0  0  0  0  0  0  0  0
   12.5630    5.4636   -3.0482 H   0  0  0  0  0  0  0  0  0  0  0  0
   12.3378    7.4941   -4.4950 H   0  0  0  0  0  0  0  0  0  0  0  0
   12.3054    6.4721   -5.9351 H   0  0  0  0  0  0  0  0  0  0  0  0
   14.5867    5.6016   -5.3681 H   0  0  0  0  0  0  0  0  0  0  0  0
   14.6218    6.6300   -3.9340 H   0  0  0  0  0  0  0  0  0  0  0  0
   14.3925    8.6599   -5.3881 H   0  0  0  0  0  0  0  0  0  0  0  0
   14.3599    7.6286   -6.8202 H   0  0  0  0  0  0  0  0  0  0  0  0
   16.6464    6.7682   -6.2543 H   0  0  0  0  0  0  0  0  0  0  0  0
   16.6796    7.7977   -4.8210 H   0  0  0  0  0  0  0  0  0  0  0  0
   16.4524    8.7937   -7.7107 H   0  0  0  0  0  0  0  0  0  0  0  0
   17.9024    8.8547   -6.6934 H   0  0  0  0  0  0  0  0  0  0  0  0
   16.4836    9.8289   -6.2696 H   0  0  0  0  0  0  0  0  0  0  0  0
  1  2  1  0  0  0  0
  1 18  1  0  0  0  0
  1 19  1  0  0  0  0
  2  3  1  0  0  0  0
  2 20  1  0  0  0  0
  3  4  1  0  0  0  0
  3 21  1  0  0  0  0
  3 22  1  0  0  0  0
  4  5  1  0  0  0  0
  4 23  1  0  0  0  0
  4 24  1  0  0  0  0
  5  6  1  0  0  0  0
  5 25  1  0  0  0  0
  6  7  1  0  0  0  0
  6 26  1  0  0  0  0
  7  8  1  0  0  0  0
  7 27  1  0  0  0  0
  8  9  1  0  0  0  0
  8 28  1  0  0  0  0
  8 29  1  0  0  0  0
  9 10  1  0  0  0  0
  9 30  1  0  0  0  0
 10 11  1  0  0  0  0
 10 31  1  0  0  0  0
 11 12  1  0  0  0  0
 11 32  1  0  0  0  0
 12 13  1  0  0  0  0
 12 33  1  0  0  0  0
 12 34  1  0  0  0  0
 13 14  1  0  0  0  0
 13 35  1  0  0  0  0
 13 36  1  0  0  0  0
 14 15  1  0  0  0  0
 14 37  1  0  0  0  0
 14 38  1  0  0  0  0
 15 16  1  0  0  0  0
 15 39  1  0  0  0  0
 15 40  1  0  0  0  0
 16 17  1  0  0  0  0
 16 41  1  0  0  0  0
 16 42  1  0  0  0  0
 17 43  1  0  0  0  0
 17 44  1  0  0  0  0
 17 45  1  0  0  0  0
M  END
$$$$
