
 OpenBabel04232216413D

210209  0  0  0  0  0  0  0  0999 V2000
   16.7539   13.9786   11.2047 C   0  0  0  0  0  0  0  0  0  0  0  0
   17.6254   12.9508   11.2134 C   0  0  0  0  0  0  0  0  0  0  0  0
   18.1901   12.3636   12.4736 C   0  0  0  0  0  0  0  0  0  0  0  0
   19.6571   12.4537   12.4671 N   0  0  0  0  0  0  0  0  0  0  0  0
   20.1353   11.9104   13.6724 N   0  0  0  0  0  0  0  0  0  0  0  0
   21.5369   12.0067   13.6997 N   0  0  0  0  0  0  0  0  0  0  0  0
   22.0467   11.4486   14.8908 N   0  0  0  0  0  0  0  0  0  0  0  0
   21.6631   10.0870   15.0015 N   0  0  0  0  0  0  0  0  0  0  0  0
   22.1826    9.3368   13.8796 N   0  0  0  0  0  0  0  0  0  0  0  0
   23.6240    9.4224   13.8460 N   0  0  0  0  0  0  0  0  0  0  0  0
   24.1900    8.8704   15.0546 N   0  0  0  0  0  0  0  0  0  0  0  0
   23.7543    7.5222   15.2035 N   0  0  0  0  0  0  0  0  0  0  0  0
   24.2222    6.7926   14.0700 N   0  0  0  0  0  0  0  0  0  0  0  0
   25.6736    6.8688   13.9908 N   0  0  0  0  0  0  0  0  0  0  0  0
   26.2709    6.3251   15.1811 N   0  0  0  0  0  0  0  0  0  0  0  0
   25.8795    4.9738   15.3638 N   0  0  0  0  0  0  0  0  0  0  0  0
   26.3154    4.2268   14.2420 N   0  0  0  0  0  0  0  0  0  0  0  0
   27.7442    4.3446   14.1078 N   0  0  0  0  0  0  0  0  0  0  0  0
   28.3640    3.8350   15.3134 N   0  0  0  0  0  0  0  0  0  0  0  0
   27.9711    2.4672   15.4936 N   0  0  0  0  0  0  0  0  0  0  0  0
   28.4252    1.6765   14.3772 N   0  0  0  0  0  0  0  0  0  0  0  0
   29.8278    1.7853   14.2142 N   0  0  0  0  0  0  0  0  0  0  0  0
   30.4806    1.3100   15.4035 N   0  0  0  0  0  0  0  0  0  0  0  0
   30.1012   -0.0737   15.6406 N   0  0  0  0  0  0  0  0  0  0  0  0
   30.4698   -0.8588   14.4971 N   0  0  0  0  0  0  0  0  0  0  0  0
   31.9126   -0.7722   14.3341 N   0  0  0  0  0  0  0  0  0  0  0  0
   32.5762   -1.2244   15.5254 N   0  0  0  0  0  0  0  0  0  0  0  0
   32.2386   -2.5995   15.7819 N   0  0  0  0  0  0  0  0  0  0  0  0
   32.6049   -3.4118   14.6644 N   0  0  0  0  0  0  0  0  0  0  0  0
   34.0057   -3.2962   14.4477 N   0  0  0  0  0  0  0  0  0  0  0  0
   34.7153   -3.7485   15.6007 N   0  0  0  0  0  0  0  0  0  0  0  0
   34.3334   -5.0888   15.8685 N   0  0  0  0  0  0  0  0  0  0  0  0
   34.7209   -5.9126   14.7190 C   0  0  0  0  0  0  0  0  0  0  0  0
   36.1662   -5.8383   14.4664 N   0  0  0  0  0  0  0  0  0  0  0  0
   36.8922   -6.2966   15.6494 C   0  0  0  0  0  0  0  0  0  0  0  0
   38.3816   -6.1895   15.3984 C   0  0  0  0  0  0  0  0  0  0  0  0
   39.1475   -6.6838   16.6161 C   0  0  0  0  0  0  0  0  0  0  0  0
   40.6411   -6.5830   16.3681 C   0  0  0  0  0  0  0  0  0  0  0  0
   41.4053   -7.0786   17.5812 C   0  0  0  0  0  0  0  0  0  0  0  0
   42.8975   -6.9783   17.3295 C   0  0  0  0  0  0  0  0  0  0  0  0
   43.6607   -7.4720   18.5432 C   0  0  0  0  0  0  0  0  0  0  0  0
   45.1523   -7.3697   18.2917 C   0  0  0  0  0  0  0  0  0  0  0  0
   45.9152   -7.8633   19.5053 C   0  0  0  0  0  0  0  0  0  0  0  0
   47.4068   -7.7610   19.2538 C   0  0  0  0  0  0  0  0  0  0  0  0
   48.1697   -8.2546   20.4674 C   0  0  0  0  0  0  0  0  0  0  0  0
   49.6612   -8.1523   20.2159 C   0  0  0  0  0  0  0  0  0  0  0  0
   50.4241   -8.6459   21.4295 C   0  0  0  0  0  0  0  0  0  0  0  0
   51.9156   -8.5418   21.1787 C   0  0  0  0  0  0  0  0  0  0  0  0
   52.6785   -9.0372   22.3916 C   0  0  0  0  0  0  0  0  0  0  0  0
   54.1700   -8.9312   22.1415 C   0  0  0  0  0  0  0  0  0  0  0  0
   54.9329   -9.4267   23.3544 C   0  0  0  0  0  0  0  0  0  0  0  0
   56.4244   -9.3225   23.1036 C   0  0  0  0  0  0  0  0  0  0  0  0
   57.1873   -9.8198   24.3157 C   0  0  0  0  0  0  0  0  0  0  0  0
   58.6788   -9.7138   24.0657 C   0  0  0  0  0  0  0  0  0  0  0  0
   59.4417  -10.2093   25.2785 C   0  0  0  0  0  0  0  0  0  0  0  0
   60.9333  -10.1051   25.0277 C   0  0  0  0  0  0  0  0  0  0  0  0
   61.6961  -10.6024   26.2398 C   0  0  0  0  0  0  0  0  0  0  0  0
   63.1877  -10.4983   25.9890 C   0  0  0  0  0  0  0  0  0  0  0  0
   63.9505  -10.9938   27.2019 C   0  0  0  0  0  0  0  0  0  0  0  0
   65.4421  -10.8896   26.9511 C   0  0  0  0  0  0  0  0  0  0  0  0
   66.2049  -11.3851   28.1640 C   0  0  0  0  0  0  0  0  0  0  0  0
   67.6965  -11.2809   27.9132 C   0  0  0  0  0  0  0  0  0  0  0  0
   68.4593  -11.7764   29.1260 C   0  0  0  0  0  0  0  0  0  0  0  0
   69.9509  -11.6722   28.8753 C   0  0  0  0  0  0  0  0  0  0  0  0
   70.7137  -12.1677   30.0881 C   0  0  0  0  0  0  0  0  0  0  0  0
   72.2053  -12.0635   29.8373 C   0  0  0  0  0  0  0  0  0  0  0  0
   72.9681  -12.5590   31.0502 C   0  0  0  0  0  0  0  0  0  0  0  0
   74.4597  -12.4548   30.7994 C   0  0  0  0  0  0  0  0  0  0  0  0
   75.2225  -12.9521   32.0115 C   0  0  0  0  0  0  0  0  0  0  0  0
   76.7141  -12.8480   31.7607 C   0  0  0  0  0  0  0  0  0  0  0  0
   77.4769  -13.3453   32.9728 C   0  0  0  0  0  0  0  0  0  0  0  0
   78.9685  -13.2411   32.7220 C   0  0  0  0  0  0  0  0  0  0  0  0
   79.7314  -13.7385   33.9341 C   0  0  0  0  0  0  0  0  0  0  0  0
   81.2229  -13.6343   33.6833 C   0  0  0  0  0  0  0  0  0  0  0  0
   81.9858  -14.1298   34.8962 C   0  0  0  0  0  0  0  0  0  0  0  0
   83.4775  -14.0257   34.6457 C   0  0  0  0  0  0  0  0  0  0  0  0
   84.2407  -14.5214   35.8590 C   0  0  0  0  0  0  0  0  0  0  0  0
   85.7333  -14.4160   35.6107 C   0  0  0  0  0  0  0  0  0  0  0  0
   86.5016  -14.9134   36.8228 C   0  0  0  0  0  0  0  0  0  0  0  0
   87.9905  -14.8067   36.5713 C   0  0  0  0  0  0  0  0  0  0  0  0
   16.3688   14.3786   10.2773 H   0  0  0  0  0  0  0  0  0  0  0  0
   16.4529   14.4398   12.1389 H   0  0  0  0  0  0  0  0  0  0  0  0
   17.9161   12.4993   10.2691 H   0  0  0  0  0  0  0  0  0  0  0  0
   17.8643   11.3186   12.5431 H   0  0  0  0  0  0  0  0  0  0  0  0
   17.7747   12.9063   13.3340 H   0  0  0  0  0  0  0  0  0  0  0  0
   19.8558   13.4573   12.3650 H   0  0  0  0  0  0  0  0  0  0  0  0
   19.8811   10.9210   13.7255 H   0  0  0  0  0  0  0  0  0  0  0  0
   21.8335   12.9781   13.6273 H   0  0  0  0  0  0  0  0  0  0  0  0
   21.6580   11.9470   15.6861 H   0  0  0  0  0  0  0  0  0  0  0  0
   20.6438   10.0133   14.9903 H   0  0  0  0  0  0  0  0  0  0  0  0
   21.7973    9.7473   13.0162 H   0  0  0  0  0  0  0  0  0  0  0  0
   23.9078   10.3995   13.7756 H   0  0  0  0  0  0  0  0  0  0  0  0
   23.8131    9.4231   15.8259 H   0  0  0  0  0  0  0  0  0  0  0  0
   22.7207    7.5300   15.2372 H   0  0  0  0  0  0  0  0  0  0  0  0
   23.8638    7.2119   13.2093 H   0  0  0  0  0  0  0  0  0  0  0  0
   25.9357    7.8553   13.9217 H   0  0  0  0  0  0  0  0  0  0  0  0
   25.9462    6.8714   15.9743 H   0  0  0  0  0  0  0  0  0  0  0  0
   24.8656    4.9056   15.4119 H   0  0  0  0  0  0  0  0  0  0  0  0
   25.9044    4.6136   13.3966 H   0  0  0  0  0  0  0  0  0  0  0  0
   27.9482    5.3497   13.9847 H   0  0  0  0  0  0  0  0  0  0  0  0
   28.0145    4.3829   16.1132 H   0  0  0  0  0  0  0  0  0  0  0  0
   26.9508    2.3795   15.5496 H   0  0  0  0  0  0  0  0  0  0  0  0
   27.9773    2.0079   13.5251 H   0  0  0  0  0  0  0  0  0  0  0  0
   30.1178    2.7447   14.0792 H   0  0  0  0  0  0  0  0  0  0  0  0
   30.1639    1.9032   16.1773 H   0  0  0  0  0  0  0  0  0  0  0  0
   29.0735   -0.1029   15.7543 H   0  0  0  0  0  0  0  0  0  0  0  0
   29.9843   -0.5064   13.6481 H   0  0  0  0  0  0  0  0  0  0  0  0
   32.1745    0.2115   14.1584 H   0  0  0  0  0  0  0  0  0  0  0  0
   32.2993   -0.6770   16.3414 H   0  0  0  0  0  0  0  0  0  0  0  0
   31.2341   -2.6637   15.8985 H   0  0  0  0  0  0  0  0  0  0  0  0
   32.1315   -3.0791   13.8278 H   0  0  0  0  0  0  0  0  0  0  0  0
   34.2581   -2.3265   14.2678 H   0  0  0  0  0  0  0  0  0  0  0  0
   34.4339   -3.1628   16.3877 H   0  0  0  0  0  0  0  0  0  0  0  0
   33.3240   -5.1505   16.0163 H   0  0  0  0  0  0  0  0  0  0  0  0
   34.1880   -5.5955   13.8142 H   0  0  0  0  0  0  0  0  0  0  0  0
   34.4281   -6.9510   14.8860 H   0  0  0  0  0  0  0  0  0  0  0  0
   36.3671   -4.8518   14.3180 H   0  0  0  0  0  0  0  0  0  0  0  0
   36.6241   -7.3372   15.8569 H   0  0  0  0  0  0  0  0  0  0  0  0
   36.6404   -5.6992   16.5364 H   0  0  0  0  0  0  0  0  0  0  0  0
   38.6579   -5.1484   15.1919 H   0  0  0  0  0  0  0  0  0  0  0  0
   38.6560   -6.7906   14.5246 H   0  0  0  0  0  0  0  0  0  0  0  0
   38.8788   -7.7260   16.8295 H   0  0  0  0  0  0  0  0  0  0  0  0
   38.8789   -6.0863   17.4963 H   0  0  0  0  0  0  0  0  0  0  0  0
   40.9138   -5.5414   16.1591 H   0  0  0  0  0  0  0  0  0  0  0  0
   40.9134   -7.1807   15.4897 H   0  0  0  0  0  0  0  0  0  0  0  0
   41.1339   -8.1201   17.7922 H   0  0  0  0  0  0  0  0  0  0  0  0
   41.1364   -6.4804   18.4604 H   0  0  0  0  0  0  0  0  0  0  0  0
   43.1698   -5.9372   17.1177 H   0  0  0  0  0  0  0  0  0  0  0  0
   43.1676   -7.5779   16.4517 H   0  0  0  0  0  0  0  0  0  0  0  0
   43.3899   -8.5136   18.7543 H   0  0  0  0  0  0  0  0  0  0  0  0
   43.3900   -6.8734   19.4214 H   0  0  0  0  0  0  0  0  0  0  0  0
   45.4232   -6.3281   18.0807 H   0  0  0  0  0  0  0  0  0  0  0  0
   45.4232   -7.9683   17.4135 H   0  0  0  0  0  0  0  0  0  0  0  0
   45.6444   -8.9049   19.7164 H   0  0  0  0  0  0  0  0  0  0  0  0
   45.6444   -7.2647   20.3835 H   0  0  0  0  0  0  0  0  0  0  0  0
   47.6777   -6.7194   19.0427 H   0  0  0  0  0  0  0  0  0  0  0  0
   47.6777   -8.3596   18.3756 H   0  0  0  0  0  0  0  0  0  0  0  0
   47.8988   -9.2962   20.6785 H   0  0  0  0  0  0  0  0  0  0  0  0
   47.8988   -7.6560   21.3456 H   0  0  0  0  0  0  0  0  0  0  0  0
   49.9321   -7.1107   20.0048 H   0  0  0  0  0  0  0  0  0  0  0  0
   49.9321   -8.7509   19.3377 H   0  0  0  0  0  0  0  0  0  0  0  0
   50.1542   -9.6880   21.6396 H   0  0  0  0  0  0  0  0  0  0  0  0
   50.1522   -8.0483   22.3080 H   0  0  0  0  0  0  0  0  0  0  0  0
   52.1856   -7.4995   20.9699 H   0  0  0  0  0  0  0  0  0  0  0  0
   52.1874   -9.1383   20.2994 H   0  0  0  0  0  0  0  0  0  0  0  0
   52.4095  -10.0800   22.5994 H   0  0  0  0  0  0  0  0  0  0  0  0
   52.4057   -8.4417   23.2712 H   0  0  0  0  0  0  0  0  0  0  0  0
   54.4390   -7.8885   21.9336 H   0  0  0  0  0  0  0  0  0  0  0  0
   54.4428   -9.5268   21.2619 H   0  0  0  0  0  0  0  0  0  0  0  0
   54.6629  -10.4690   23.5631 H   0  0  0  0  0  0  0  0  0  0  0  0
   54.6612   -8.8302   24.2337 H   0  0  0  0  0  0  0  0  0  0  0  0
   56.6946   -8.2800   22.8962 H   0  0  0  0  0  0  0  0  0  0  0  0
   56.6960   -9.9178   22.2234 H   0  0  0  0  0  0  0  0  0  0  0  0
   56.9181  -10.8628   24.5222 H   0  0  0  0  0  0  0  0  0  0  0  0
   56.9147   -9.2254   25.1962 H   0  0  0  0  0  0  0  0  0  0  0  0
   58.9478   -8.6711   23.8578 H   0  0  0  0  0  0  0  0  0  0  0  0
   58.9516  -10.3093   23.1860 H   0  0  0  0  0  0  0  0  0  0  0  0
   59.1717  -11.2516   25.4873 H   0  0  0  0  0  0  0  0  0  0  0  0
   59.1700   -9.6128   26.1579 H   0  0  0  0  0  0  0  0  0  0  0  0
   61.2034   -9.0626   24.8204 H   0  0  0  0  0  0  0  0  0  0  0  0
   61.2048  -10.7005   24.1476 H   0  0  0  0  0  0  0  0  0  0  0  0
   61.4259  -11.6450   26.4472 H   0  0  0  0  0  0  0  0  0  0  0  0
   61.4246  -10.0071   27.1200 H   0  0  0  0  0  0  0  0  0  0  0  0
   63.4577   -9.4560   25.7803 H   0  0  0  0  0  0  0  0  0  0  0  0
   63.4594  -11.0947   25.1097 H   0  0  0  0  0  0  0  0  0  0  0  0
   63.6805  -12.0361   27.4107 H   0  0  0  0  0  0  0  0  0  0  0  0
   63.6788  -10.3973   28.0812 H   0  0  0  0  0  0  0  0  0  0  0  0
   65.7121   -9.8473   26.7424 H   0  0  0  0  0  0  0  0  0  0  0  0
   65.7138  -11.4861   26.0718 H   0  0  0  0  0  0  0  0  0  0  0  0
   65.9349  -12.4274   28.3727 H   0  0  0  0  0  0  0  0  0  0  0  0
   65.9332  -10.7886   29.0433 H   0  0  0  0  0  0  0  0  0  0  0  0
   67.9665  -10.2386   27.7044 H   0  0  0  0  0  0  0  0  0  0  0  0
   67.9682  -11.8774   27.0339 H   0  0  0  0  0  0  0  0  0  0  0  0
   68.1893  -12.8187   29.3348 H   0  0  0  0  0  0  0  0  0  0  0  0
   68.1876  -11.1799   30.0054 H   0  0  0  0  0  0  0  0  0  0  0  0
   70.2209  -10.6299   28.6665 H   0  0  0  0  0  0  0  0  0  0  0  0
   70.2226  -12.2687   27.9959 H   0  0  0  0  0  0  0  0  0  0  0  0
   70.4437  -13.2100   30.2969 H   0  0  0  0  0  0  0  0  0  0  0  0
   70.4420  -11.5712   30.9674 H   0  0  0  0  0  0  0  0  0  0  0  0
   72.4753  -11.0212   29.6286 H   0  0  0  0  0  0  0  0  0  0  0  0
   72.4770  -12.6600   28.9580 H   0  0  0  0  0  0  0  0  0  0  0  0
   72.6981  -13.6013   31.2589 H   0  0  0  0  0  0  0  0  0  0  0  0
   72.6964  -11.9625   31.9295 H   0  0  0  0  0  0  0  0  0  0  0  0
   74.7299  -11.4123   30.5921 H   0  0  0  0  0  0  0  0  0  0  0  0
   74.7312  -13.0501   29.9192 H   0  0  0  0  0  0  0  0  0  0  0  0
   74.9523  -13.9947   32.2188 H   0  0  0  0  0  0  0  0  0  0  0  0
   74.9510  -12.3568   32.8917 H   0  0  0  0  0  0  0  0  0  0  0  0
   76.9843  -11.8054   31.5534 H   0  0  0  0  0  0  0  0  0  0  0  0
   76.9856  -13.4433   30.8805 H   0  0  0  0  0  0  0  0  0  0  0  0
   77.2067  -14.3878   33.1801 H   0  0  0  0  0  0  0  0  0  0  0  0
   77.2055  -12.7500   33.8530 H   0  0  0  0  0  0  0  0  0  0  0  0
   79.2387  -12.1986   32.5147 H   0  0  0  0  0  0  0  0  0  0  0  0
   79.2400  -13.8365   31.8418 H   0  0  0  0  0  0  0  0  0  0  0  0
   79.4612  -14.7810   34.1415 H   0  0  0  0  0  0  0  0  0  0  0  0
   79.4598  -13.1431   34.8143 H   0  0  0  0  0  0  0  0  0  0  0  0
   81.4929  -12.5920   33.4746 H   0  0  0  0  0  0  0  0  0  0  0  0
   81.4946  -14.2308   32.8040 H   0  0  0  0  0  0  0  0  0  0  0  0
   81.7157  -15.1721   35.1049 H   0  0  0  0  0  0  0  0  0  0  0  0
   81.7140  -13.5333   35.7755 H   0  0  0  0  0  0  0  0  0  0  0  0
   83.7473  -12.9833   34.4367 H   0  0  0  0  0  0  0  0  0  0  0  0
   83.7491  -14.6221   33.7662 H   0  0  0  0  0  0  0  0  0  0  0  0
   83.9711  -15.5640   36.0664 H   0  0  0  0  0  0  0  0  0  0  0  0
   83.9673  -13.9255   36.7382 H   0  0  0  0  0  0  0  0  0  0  0  0
   86.0008  -13.3727   35.4025 H   0  0  0  0  0  0  0  0  0  0  0  0
   86.0043  -15.0095   34.7287 H   0  0  0  0  0  0  0  0  0  0  0  0
   86.2360  -15.9565   37.0294 H   0  0  0  0  0  0  0  0  0  0  0  0
   86.2326  -14.3189   37.7035 H   0  0  0  0  0  0  0  0  0  0  0  0
   88.2749  -15.4090   35.7026 H   0  0  0  0  0  0  0  0  0  0  0  0
   88.5452  -15.1637   37.4413 H   0  0  0  0  0  0  0  0  0  0  0  0
   88.2714  -13.7664   36.3787 H   0  0  0  0  0  0  0  0  0  0  0  0
  1  2  2  0  0  0  0
  1 81  1  0  0  0  0
  1 82  1  0  0  0  0
  2  3  1  0  0  0  0
  2 83  1  0  0  0  0
  3  4  1  0  0  0  0
  3 84  1  0  0  0  0
  3 85  1  0  0  0  0
  4  5  1  0  0  0  0
  4 86  1  0  0  0  0
  5  6  1  0  0  0  0
  5 87  1  0  0  0  0
  6  7  1  0  0  0  0
  6 88  1  0  0  0  0
  7  8  1  0  0  0  0
  7 89  1  0  0  0  0
  8  9  1  0  0  0  0
  8 90  1  0  0  0  0
  9 10  1  0  0  0  0
  9 91  1  0  0  0  0
 10 11  1  0  0  0  0
 10 92  1  0  0  0  0
 11 12  1  0  0  0  0
 11 93  1  0  0  0  0
 12 13  1  0  0  0  0
 12 94  1  0  0  0  0
 13 14  1  0  0  0  0
 13 95  1  0  0  0  0
 14 15  1  0  0  0  0
 14 96  1  0  0  0  0
 15 16  1  0  0  0  0
 15 97  1  0  0  0  0
 16 17  1  0  0  0  0
 16 98  1  0  0  0  0
 17 18  1  0  0  0  0
 17 99  1  0  0  0  0
 18 19  1  0  0  0  0
 18100  1  0  0  0  0
 19 20  1  0  0  0  0
 19101  1  0  0  0  0
 20 21  1  0  0  0  0
 20102  1  0  0  0  0
 21 22  1  0  0  0  0
 21103  1  0  0  0  0
 22 23  1  0  0  0  0
 22104  1  0  0  0  0
 23 24  1  0  0  0  0
 23105  1  0  0  0  0
 24 25  1  0  0  0  0
 24106  1  0  0  0  0
 25 26  1  0  0  0  0
 25107  1  0  0  0  0
 26 27  1  0  0  0  0
 26108  1  0  0  0  0
 27 28  1  0  0  0  0
 27109  1  0  0  0  0
 28 29  1  0  0  0  0
 28110  1  0  0  0  0
 29 30  1  0  0  0  0
 29111  1  0  0  0  0
 30 31  1  0  0  0  0
 30112  1  0  0  0  0
 31 32  1  0  0  0  0
 31113  1  0  0  0  0
 32 33  1  0  0  0  0
 32114  1  0  0  0  0
 33 34  1  0  0  0  0
 33115  1  0  0  0  0
 33116  1  0  0  0  0
 34 35  1  0  0  0  0
 34117  1  0  0  0  0
 35 36  1  0  0  0  0
 35118  1  0  0  0  0
 35119  1  0  0  0  0
 36 37  1  0  0  0  0
 36120  1  0  0  0  0
 36121  1  0  0  0  0
 37 38  1  0  0  0  0
 37122  1  0  0  0  0
 37123  1  0  0  0  0
 38 39  1  0  0  0  0
 38124  1  0  0  0  0
 38125  1  0  0  0  0
 39 40  1  0  0  0  0
 39126  1  0  0  0  0
 39127  1  0  0  0  0
 40 41  1  0  0  0  0
 40128  1  0  0  0  0
 40129  1  0  0  0  0
 41 42  1  0  0  0  0
 41130  1  0  0  0  0
 41131  1  0  0  0  0
 42 43  1  0  0  0  0
 42132  1  0  0  0  0
 42133  1  0  0  0  0
 43 44  1  0  0  0  0
 43134  1  0  0  0  0
 43135  1  0  0  0  0
 44 45  1  0  0  0  0
 44136  1  0  0  0  0
 44137  1  0  0  0  0
 45 46  1  0  0  0  0
 45138  1  0  0  0  0
 45139  1  0  0  0  0
 46 47  1  0  0  0  0
 46140  1  0  0  0  0
 46141  1  0  0  0  0
 47 48  1  0  0  0  0
 47142  1  0  0  0  0
 47143  1  0  0  0  0
 48 49  1  0  0  0  0
 48144  1  0  0  0  0
 48145  1  0  0  0  0
 49 50  1  0  0  0  0
 49146  1  0  0  0  0
 49147  1  0  0  0  0
 50 51  1  0  0  0  0
 50148  1  0  0  0  0
 50149  1  0  0  0  0
 51 52  1  0  0  0  0
 51150  1  0  0  0  0
 51151  1  0  0  0  0
 52 53  1  0  0  0  0
 52152  1  0  0  0  0
 52153  1  0  0  0  0
 53 54  1  0  0  0  0
 53154  1  0  0  0  0
 53155  1  0  0  0  0
 54 55  1  0  0  0  0
 54156  1  0  0  0  0
 54157  1  0  0  0  0
 55 56  1  0  0  0  0
 55158  1  0  0  0  0
 55159  1  0  0  0  0
 56 57  1  0  0  0  0
 56160  1  0  0  0  0
 56161  1  0  0  0  0
 57 58  1  0  0  0  0
 57162  1  0  0  0  0
 57163  1  0  0  0  0
 58 59  1  0  0  0  0
 58164  1  0  0  0  0
 58165  1  0  0  0  0
 59 60  1  0  0  0  0
 59166  1  0  0  0  0
 59167  1  0  0  0  0
 60 61  1  0  0  0  0
 60168  1  0  0  0  0
 60169  1  0  0  0  0
 61 62  1  0  0  0  0
 61170  1  0  0  0  0
 61171  1  0  0  0  0
 62 63  1  0  0  0  0
 62172  1  0  0  0  0
 62173  1  0  0  0  0
 63 64  1  0  0  0  0
 63174  1  0  0  0  0
 63175  1  0  0  0  0
 64 65  1  0  0  0  0
 64176  1  0  0  0  0
 64177  1  0  0  0  0
 65 66  1  0  0  0  0
 65178  1  0  0  0  0
 65179  1  0  0  0  0
 66 67  1  0  0  0  0
 66180  1  0  0  0  0
 66181  1  0  0  0  0
 67 68  1  0  0  0  0
 67182  1  0  0  0  0
 67183  1  0  0  0  0
 68 69  1  0  0  0  0
 68184  1  0  0  0  0
 68185  1  0  0  0  0
 69 70  1  0  0  0  0
 69186  1  0  0  0  0
 69187  1  0  0  0  0
 70 71  1  0  0  0  0
 70188  1  0  0  0  0
 70189  1  0  0  0  0
 71 72  1  0  0  0  0
 71190  1  0  0  0  0
 71191  1  0  0  0  0
 72 73  1  0  0  0  0
 72192  1  0  0  0  0
 72193  1  0  0  0  0
 73 74  1  0  0  0  0
 73194  1  0  0  0  0
 73195  1  0  0  0  0
 74 75  1  0  0  0  0
 74196  1  0  0  0  0
 74197  1  0  0  0  0
 75 76  1  0  0  0  0
 75198  1  0  0  0  0
 75199  1  0  0  0  0
 76 77  1  0  0  0  0
 76200  1  0  0  0  0
 76201  1  0  0  0  0
 77 78  1  0  0  0  0
 77202  1  0  0  0  0
 77203  1  0  0  0  0
 78 79  1  0  0  0  0
 78204  1  0  0  0  0
 78205  1  0  0  0  0
 79 80  1  0  0  0  0
 79206  1  0  0  0  0
 79207  1  0  0  0  0
 80208  1  0  0  0  0
 80209  1  0  0  0  0
 80210  1  0  0  0  0
M  END
$$$$
