
 OpenBabel04232216473D

 87 87  0  0  1  0  0  0  0  0999 V2000
   -1.7024   -2.6435   -4.1832 C   0  0  0  0  0  0  0  0  0  0  0  0
   -0.6514   -1.8237   -4.8351 C   0  0  3  0  0  0  0  0  0  0  0  0
   -0.3622   -1.9394   -6.1409 C   0  0  0  0  0  0  0  0  0  0  0  0
    0.5423   -2.5791   -5.4217 C   0  0  0  0  0  0  0  0  0  0  0  0
    1.2423   -3.0777   -4.1282 C   0  0  0  0  0  0  0  0  0  0  0  0
    2.6611   -3.1110   -4.2813 O   0  0  0  0  0  0  0  0  0  0  0  0
    3.1790   -3.5950   -2.9966 O   0  0  0  0  0  0  0  0  0  0  0  0
    2.6786   -4.9061   -2.7033 O   0  0  0  0  0  0  0  0  0  0  0  0
    2.9818   -5.7598   -3.7954 O   0  0  0  0  0  0  0  0  0  0  0  0
    2.3814   -6.9801   -3.5395 O   0  0  0  0  0  0  0  0  0  0  0  0
    2.7349   -7.8393   -4.5763 O   0  0  0  0  0  0  0  0  0  0  0  0
    2.1411   -9.0583   -4.2873 O   0  0  0  0  0  0  0  0  0  0  0  0
    2.4958   -9.8952   -5.3198 O   0  0  0  0  0  0  0  0  0  0  0  0
    1.9083  -11.1046   -5.0364 O   0  0  0  0  0  0  0  0  0  0  0  0
    2.2726  -11.9186   -6.0716 O   0  0  0  0  0  0  0  0  0  0  0  0
    1.6906  -13.1250   -5.7953 O   0  0  0  0  0  0  0  0  0  0  0  0
    2.0584  -13.9391   -6.8359 O   0  0  0  0  0  0  0  0  0  0  0  0
    1.4710  -15.1280   -6.5416 O   0  0  0  0  0  0  0  0  0  0  0  0
    1.8272  -15.9558   -7.5715 O   0  0  0  0  0  0  0  0  0  0  0  0
    1.2341  -17.1395   -7.2648 O   0  0  0  0  0  0  0  0  0  0  0  0
    1.5887  -17.9656   -8.2909 O   0  0  0  0  0  0  0  0  0  0  0  0
    1.0007  -19.1601   -7.9985 O   0  0  0  0  0  0  0  0  0  0  0  0
    1.3616  -19.9807   -9.0318 O   0  0  0  0  0  0  0  0  0  0  0  0
    0.7757  -21.1771   -8.7438 O   0  0  0  0  0  0  0  0  0  0  0  0
    1.1324  -22.0016   -9.7725 O   0  0  0  0  0  0  0  0  0  0  0  0
    0.5377  -23.1899   -9.4658 O   0  0  0  0  0  0  0  0  0  0  0  0
    0.8948  -24.0214  -10.4990 O   0  0  0  0  0  0  0  0  0  0  0  0
    0.3034  -25.2081  -10.1969 O   0  0  0  0  0  0  0  0  0  0  0  0
    0.6672  -26.0425  -11.2425 O   0  0  0  0  0  0  0  0  0  0  0  0
    0.0739  -27.2272  -10.9361 O   0  0  0  0  0  0  0  0  0  0  0  0
    0.4301  -28.0579  -11.9675 O   0  0  0  0  0  0  0  0  0  0  0  0
   -0.1624  -29.2559  -11.6697 O   0  0  0  0  0  0  0  0  0  0  0  0
    0.2098  -30.0573  -12.7106 O   0  0  0  0  0  0  0  0  0  0  0  0
   -0.3669  -31.2683  -12.4455 O   0  0  0  0  0  0  0  0  0  0  0  0
   -0.0012  -32.0664  -13.4742 O   0  0  0  0  0  0  0  0  0  0  0  0
   -0.5895  -33.2578  -13.1795 O   0  0  0  0  0  0  0  0  0  0  0  0
   -0.2361  -34.0835  -14.2037 O   0  0  0  0  0  0  0  0  0  0  0  0
   -0.8234  -35.2689  -13.9074 O   0  0  0  0  0  0  0  0  0  0  0  0
   -0.4642  -36.0864  -14.9362 O   0  0  0  0  0  0  0  0  0  0  0  0
   -1.0508  -37.2789  -14.6449 O   0  0  0  0  0  0  0  0  0  0  0  0
   -0.6897  -38.0968  -15.6772 O   0  0  0  0  0  0  0  0  0  0  0  0
   -1.2765  -39.2888  -15.3853 O   0  0  0  0  0  0  0  0  0  0  0  0
   -0.9157  -40.1093  -16.4184 O   0  0  0  0  0  0  0  0  0  0  0  0
   -1.5037  -41.3020  -16.1249 O   0  0  0  0  0  0  0  0  0  0  0  0
   -1.1441  -42.1206  -17.1551 O   0  0  0  0  0  0  0  0  0  0  0  0
   -1.7490  -43.3525  -16.8560 O   0  0  0  0  0  0  0  0  0  0  0  0
   -1.3720  -44.1324  -17.8928 O   0  0  0  0  0  0  0  0  0  0  0  0
   -1.9591  -45.3269  -17.6018 O   0  0  0  0  0  0  0  0  0  0  0  0
   -1.5991  -46.1440  -18.6319 O   0  0  0  0  0  0  0  0  0  0  0  0
   -2.1865  -47.3391  -18.3407 O   0  0  0  0  0  0  0  0  0  0  0  0
   -1.8265  -48.1561  -19.3707 O   0  0  0  0  0  0  0  0  0  0  0  0
   -2.4140  -49.3512  -19.0795 O   0  0  0  0  0  0  0  0  0  0  0  0
   -2.0539  -50.1683  -20.1095 O   0  0  0  0  0  0  0  0  0  0  0  0
   -2.6414  -51.3634  -19.8183 O   0  0  0  0  0  0  0  0  0  0  0  0
   -2.2813  -52.1805  -20.8483 O   0  0  0  0  0  0  0  0  0  0  0  0
   -2.8688  -53.3756  -20.5571 O   0  0  0  0  0  0  0  0  0  0  0  0
   -2.5087  -54.1927  -21.5871 O   0  0  0  0  0  0  0  0  0  0  0  0
   -3.0962  -55.3878  -21.2959 O   0  0  0  0  0  0  0  0  0  0  0  0
   -2.7361  -56.2048  -22.3259 O   0  0  0  0  0  0  0  0  0  0  0  0
   -3.3236  -57.3999  -22.0347 O   0  0  0  0  0  0  0  0  0  0  0  0
   -2.9635  -58.2170  -23.0647 O   0  0  0  0  0  0  0  0  0  0  0  0
   -3.5510  -59.4121  -22.7735 O   0  0  0  0  0  0  0  0  0  0  0  0
   -3.1909  -60.2293  -23.8035 O   0  0  0  0  0  0  0  0  0  0  0  0
   -3.7784  -61.4245  -23.5124 O   0  0  0  0  0  0  0  0  0  0  0  0
   -3.4183  -62.2418  -24.5426 O   0  0  0  0  0  0  0  0  0  0  0  0
   -4.0058  -63.4375  -24.2516 O   0  0  0  0  0  0  0  0  0  0  0  0
   -3.6461  -64.2556  -25.2817 O   0  0  0  0  0  0  0  0  0  0  0  0
   -4.2337  -65.4523  -24.9910 O   0  0  0  0  0  0  0  0  0  0  0  0
   -3.8742  -66.2722  -26.0218 O   0  0  0  0  0  0  0  0  0  0  0  0
   -4.4613  -67.4710  -25.7332 O   0  0  0  0  0  0  0  0  0  0  0  0
   -4.1021  -68.2954  -26.7658 O   0  0  0  0  0  0  0  0  0  0  0  0
   -4.6899  -69.4979  -26.4781 O   0  0  0  0  0  0  0  0  0  0  0  0
   -4.3355  -70.3324  -27.5084 O   0  0  0  0  0  0  0  0  0  0  0  0
   -4.9289  -71.5451  -27.2178 O   0  0  0  0  0  0  0  0  0  0  0  0
   -4.5756  -72.3975  -28.2579 O   0  0  0  0  0  0  0  0  0  0  0  0
   -5.1479  -73.6216  -27.9790 O   0  0  0  0  0  0  0  0  0  0  0  0
   -4.7683  -74.5019  -29.0355 O   0  0  0  0  0  0  0  0  0  0  0  0
   -5.3902  -75.7398  -28.7882 O   0  0  0  0  0  0  0  0  0  0  0  0
   -6.8268  -75.5700  -28.7308 O   0  0  0  0  0  0  0  0  0  0  0  0
   -2.6130   -2.0657   -4.1221 H   0  0  0  0  0  0  0  0  0  0  0  0
   -1.3553   -2.9102   -3.1841 H   0  0  0  0  0  0  0  0  0  0  0  0
   -1.8929   -3.5783   -4.7369 H   0  0  0  0  0  0  0  0  0  0  0  0
   -0.4045   -0.8943   -4.3235 H   0  0  0  0  0  0  0  0  0  0  0  0
   -0.8877   -1.5603   -7.0181 H   0  0  0  0  0  0  0  0  0  0  0  0
    0.9046   -4.0914   -3.8438 H   0  0  0  0  0  0  0  0  0  0  0  0
    1.0444   -2.4637   -3.2311 H   0  0  0  0  0  0  0  0  0  0  0  0
   -6.9950  -76.4804  -28.5493 H   0  0  0  0  0  0  0  0  0  0  0  0
  1  2  1  0  0  0  0
  1 80  1  0  0  0  0
  1 81  1  0  0  0  0
  1 82  1  0  0  0  0
  2  3  1  0  0  0  0
  2  4  1  0  0  0  0
  2 83  1  0  0  0  0
  3  4  2  0  0  0  0
  3 84  1  0  0  0  0
  4  5  1  0  0  0  0
  5  6  1  0  0  0  0
  5 85  1  0  0  0  0
  5 86  1  0  0  0  0
  6  7  1  0  0  0  0
  7  8  1  0  0  0  0
  8  9  1  0  0  0  0
  9 10  1  0  0  0  0
 10 11  1  0  0  0  0
 11 12  1  0  0  0  0
 12 13  1  0  0  0  0
 13 14  1  0  0  0  0
 14 15  1  0  0  0  0
 15 16  1  0  0  0  0
 16 17  1  0  0  0  0
 17 18  1  0  0  0  0
 18 19  1  0  0  0  0
 19 20  1  0  0  0  0
 20 21  1  0  0  0  0
 21 22  1  0  0  0  0
 22 23  1  0  0  0  0
 23 24  1  0  0  0  0
 24 25  1  0  0  0  0
 25 26  1  0  0  0  0
 26 27  1  0  0  0  0
 27 28  1  0  0  0  0
 28 29  1  0  0  0  0
 29 30  1  0  0  0  0
 30 31  1  0  0  0  0
 31 32  1  0  0  0  0
 32 33  1  0  0  0  0
 33 34  1  0  0  0  0
 34 35  1  0  0  0  0
 35 36  1  0  0  0  0
 36 37  1  0  0  0  0
 37 38  1  0  0  0  0
 38 39  1  0  0  0  0
 39 40  1  0  0  0  0
 40 41  1  0  0  0  0
 41 42  1  0  0  0  0
 42 43  1  0  0  0  0
 43 44  1  0  0  0  0
 44 45  1  0  0  0  0
 45 46  1  0  0  0  0
 46 47  1  0  0  0  0
 47 48  1  0  0  0  0
 48 49  1  0  0  0  0
 49 50  1  0  0  0  0
 50 51  1  0  0  0  0
 51 52  1  0  0  0  0
 52 53  1  0  0  0  0
 53 54  1  0  0  0  0
 54 55  1  0  0  0  0
 55 56  1  0  0  0  0
 56 57  1  0  0  0  0
 57 58  1  0  0  0  0
 58 59  1  0  0  0  0
 59 60  1  0  0  0  0
 60 61  1  0  0  0  0
 61 62  1  0  0  0  0
 62 63  1  0  0  0  0
 63 64  1  0  0  0  0
 64 65  1  0  0  0  0
 65 66  1  0  0  0  0
 66 67  1  0  0  0  0
 67 68  1  0  0  0  0
 68 69  1  0  0  0  0
 69 70  1  0  0  0  0
 70 71  1  0  0  0  0
 71 72  1  0  0  0  0
 72 73  1  0  0  0  0
 73 74  1  0  0  0  0
 74 75  1  0  0  0  0
 75 76  1  0  0  0  0
 76 77  1  0  0  0  0
 77 78  1  0  0  0  0
 78 79  1  0  0  0  0
 79 87  1  0  0  0  0
M  END
$$$$
