
 OpenBabel04232216593D

170169  0  0  0  0  0  0  0  0999 V2000
   36.2690  -23.7712   -2.1950 O   0  0  0  0  0  0  0  0  0  0  0  0
   36.7929  -22.8663   -2.8615 C   0  0  0  0  0  0  0  0  0  0  0  0
   37.1372  -21.4963   -2.3316 C   0  0  0  0  0  0  0  0  0  0  0  0
   36.7532  -21.3112   -0.8693 C   0  0  0  0  0  0  0  0  0  0  0  0
   37.1633  -19.9269   -0.3695 C   0  0  0  0  0  0  0  0  0  0  0  0
   36.7879  -19.7496    1.0969 C   0  0  0  0  0  0  0  0  0  0  0  0
   37.1817  -18.3656    1.5905 C   0  0  0  0  0  0  0  0  0  0  0  0
   36.8128  -18.1691    3.0683 C   0  0  0  0  0  0  0  0  0  0  0  0
   37.2054  -16.7574    3.4897 C   0  0  0  0  0  0  0  0  0  0  0  0
   36.8252  -16.4502    4.9364 C   0  0  0  0  0  0  0  0  0  0  0  0
   37.1577  -14.9715    5.2179 C   0  0  0  0  0  0  0  0  0  0  0  0
   36.7291  -14.5290    6.6099 C   0  0  0  0  0  0  0  0  0  0  0  0
   36.8782  -13.0105    6.9424 C   0  0  0  0  0  0  0  0  0  0  0  0
   36.0093  -12.5874    8.0435 O   0  0  0  0  0  0  0  0  0  0  0  0
   36.5398  -11.6916    9.0888 C   0  0  0  0  0  0  0  0  0  0  0  0
   36.2327  -11.9638   10.5063 O   0  0  0  0  0  0  0  0  0  0  0  0
   36.9318  -12.7666   11.5481 C   0  0  0  0  0  0  0  0  0  0  0  0
   38.3049  -13.1483   11.4276 O   0  0  0  0  0  0  0  0  0  0  0  0
   39.3020  -14.2579   11.3508 C   0  0  0  0  0  0  0  0  0  0  0  0
   39.8385  -15.0871   10.1952 O   0  0  0  0  0  0  0  0  0  0  0  0
   40.8164  -15.0779    9.1002 C   0  0  0  0  0  0  0  0  0  0  0  0
   42.2266  -15.5180    9.0987 O   0  0  0  0  0  0  0  0  0  0  0  0
   43.0382  -16.6520    9.6109 C   0  0  0  0  0  0  0  0  0  0  0  0
   42.6047  -18.0249    9.7878 O   0  0  0  0  0  0  0  0  0  0  0  0
   42.8276  -18.7269   11.1011 C   0  0  0  0  0  0  0  0  0  0  0  0
   42.3647  -18.2494   12.4365 O   0  0  0  0  0  0  0  0  0  0  0  0
   40.9279  -18.4472   12.8346 C   0  0  0  0  0  0  0  0  0  0  0  0
   39.9895  -17.2744   12.9903 O   0  0  0  0  0  0  0  0  0  0  0  0
   38.6527  -17.0338   12.3781 C   0  0  0  0  0  0  0  0  0  0  0  0
   38.3018  -16.2551   11.1984 O   0  0  0  0  0  0  0  0  0  0  0  0
   37.9499  -16.5343    9.8391 C   0  0  0  0  0  0  0  0  0  0  0  0
   37.1865  -15.6220    9.1082 O   0  0  0  0  0  0  0  0  0  0  0  0
   37.3896  -14.3205    9.5874 C   0  0  0  0  0  0  0  0  0  0  0  0
   38.5209  -13.4183    9.1014 O   0  0  0  0  0  0  0  0  0  0  0  0
   39.5451  -12.3032    9.7842 C   0  0  0  0  0  0  0  0  0  0  0  0
   39.5402  -11.4283   11.0494 O   0  0  0  0  0  0  0  0  0  0  0  0
   40.1257  -11.8795   12.3957 C   0  0  0  0  0  0  0  0  0  0  0  0
   41.4473  -12.4796   12.3521 O   0  0  0  0  0  0  0  0  0  0  0  0
   41.7406  -13.6171   13.2433 C   0  0  0  0  0  0  0  0  0  0  0  0
   41.1434  -14.9430   12.9821 O   0  0  0  0  0  0  0  0  0  0  0  0
   41.6964  -15.6492   11.8165 C   0  0  0  0  0  0  0  0  0  0  0  0
   41.1897  -16.9512   11.1578 O   0  0  0  0  0  0  0  0  0  0  0  0
   40.2464  -17.6916   10.2423 C   0  0  0  0  0  0  0  0  0  0  0  0
   39.9740  -19.1564    9.8872 O   0  0  0  0  0  0  0  0  0  0  0  0
   38.4796  -19.6043    9.9591 C   0  0  0  0  0  0  0  0  0  0  0  0
   37.4004  -19.0479    9.1523 O   0  0  0  0  0  0  0  0  0  0  0  0
   36.0425  -18.7609    9.8377 C   0  0  0  0  0  0  0  0  0  0  0  0
   36.0246  -18.3593   11.2793 O   0  0  0  0  0  0  0  0  0  0  0  0
   35.6247  -17.0191   11.7014 C   0  0  0  0  0  0  0  0  0  0  0  0
   35.6528  -16.6314   13.1298 O   0  0  0  0  0  0  0  0  0  0  0  0
   36.2844  -17.4785   14.1078 C   0  0  0  0  0  0  0  0  0  0  0  0
   37.5715  -17.2228   14.6591 O   0  0  0  0  0  0  0  0  0  0  0  0
   38.3126  -18.4082   15.0646 C   0  0  0  0  0  0  0  0  0  0  0  0
   37.9423  -19.7272   14.5568 O   0  0  0  0  0  0  0  0  0  0  0  0
   38.5470  -20.2423   13.3862 C   0  0  0  0  0  0  0  0  0  0  0  0
   38.1797  -21.4830   12.7720 O   0  0  0  0  0  0  0  0  0  0  0  0
   36.8432  -21.7836   12.3801 C   0  0  0  0  0  0  0  0  0  0  0  0
   36.1306  -20.8758   11.5776 O   0  0  0  0  0  0  0  0  0  0  0  0
   34.7030  -21.0200   11.7457 C   0  0  0  0  0  0  0  0  0  0  0  0
   34.2011  -20.8888   13.0903 O   0  0  0  0  0  0  0  0  0  0  0  0
   34.7605  -19.7719   13.7478 C   0  0  0  0  0  0  0  0  0  0  0  0
   34.3568  -19.3896   15.0659 O   0  0  0  0  0  0  0  0  0  0  0  0
   35.0261  -20.0513   16.1402 C   0  0  0  0  0  0  0  0  0  0  0  0
   36.3632  -19.7092   16.4209 O   0  0  0  0  0  0  0  0  0  0  0  0
   37.0969  -20.7384   17.1319 C   0  0  0  0  0  0  0  0  0  0  0  0
   36.8417  -22.1208   16.8060 O   0  0  0  0  0  0  0  0  0  0  0  0
   37.2375  -22.4063   15.4732 C   0  0  0  0  0  0  0  0  0  0  0  0
   36.8986  -23.6913   14.9513 O   0  0  0  0  0  0  0  0  0  0  0  0
   35.5061  -24.0225   14.8732 C   0  0  0  0  0  0  0  0  0  0  0  0
   34.7682  -23.2521   13.9455 O   0  0  0  0  0  0  0  0  0  0  0  0
   33.3731  -23.5518   13.8282 C   0  0  0  0  0  0  0  0  0  0  0  0
   32.5827  -23.4407   15.0113 O   0  0  0  0  0  0  0  0  0  0  0  0
   32.7053  -22.1612   15.6038 C   0  0  0  0  0  0  0  0  0  0  0  0
   32.2345  -21.0710   14.8399 O   0  0  0  0  0  0  0  0  0  0  0  0
   30.8356  -20.9709   14.8404 C   0  0  0  0  0  0  0  0  0  0  0  0
   30.3478  -19.9752   13.9470 O   0  0  0  0  0  0  0  0  0  0  0  0
   30.5220  -18.6450   14.4123 C   0  0  0  0  0  0  0  0  0  0  0  0
   31.7760  -18.0888   14.0859 O   0  0  0  0  0  0  0  0  0  0  0  0
   31.9966  -18.1215   12.6995 C   0  0  0  0  0  0  0  0  0  0  0  0
   32.8869  -17.0781   12.4106 O   0  0  0  0  0  0  0  0  0  0  0  0
   37.1011  -23.0503   -3.9008 H   0  0  0  0  0  0  0  0  0  0  0  0
   36.6214  -20.7621   -2.9630 H   0  0  0  0  0  0  0  0  0  0  0  0
   38.2194  -21.3477   -2.4657 H   0  0  0  0  0  0  0  0  0  0  0  0
   37.2365  -22.0789   -0.2563 H   0  0  0  0  0  0  0  0  0  0  0  0
   35.6729  -21.4554   -0.7592 H   0  0  0  0  0  0  0  0  0  0  0  0
   36.6625  -19.1568   -0.9748 H   0  0  0  0  0  0  0  0  0  0  0  0
   38.2490  -19.7871   -0.5055 H   0  0  0  0  0  0  0  0  0  0  0  0
   37.2934  -20.5035    1.7045 H   0  0  0  0  0  0  0  0  0  0  0  0
   35.7079  -19.8872    1.2258 H   0  0  0  0  0  0  0  0  0  0  0  0
   36.6731  -17.6228    0.9754 H   0  0  0  0  0  0  0  0  0  0  0  0
   38.2595  -18.2040    1.4498 H   0  0  0  0  0  0  0  0  0  0  0  0
   37.3386  -18.9179    3.6694 H   0  0  0  0  0  0  0  0  0  0  0  0
   35.7376  -18.3158    3.1974 H   0  0  0  0  0  0  0  0  0  0  0  0
   36.7121  -16.0313    2.8375 H   0  0  0  0  0  0  0  0  0  0  0  0
   38.2834  -16.6168    3.3591 H   0  0  0  0  0  0  0  0  0  0  0  0
   37.3674  -17.1203    5.6218 H   0  0  0  0  0  0  0  0  0  0  0  0
   35.7560  -16.6385    5.0920 H   0  0  0  0  0  0  0  0  0  0  0  0
   36.6750  -14.3373    4.4688 H   0  0  0  0  0  0  0  0  0  0  0  0
   38.2449  -14.8458    5.1254 H   0  0  0  0  0  0  0  0  0  0  0  0
   37.4416  -15.0926    7.2047 H   0  0  0  0  0  0  0  0  0  0  0  0
   35.7246  -14.8942    6.8559 H   0  0  0  0  0  0  0  0  0  0  0  0
   36.5747  -12.4462    6.0599 H   0  0  0  0  0  0  0  0  0  0  0  0
   37.9345  -12.7808    7.1057 H   0  0  0  0  0  0  0  0  0  0  0  0
   35.9829  -10.7712    8.8963 H   0  0  0  0  0  0  0  0  0  0  0  0
   37.5641  -11.3893    8.9117 H   0  0  0  0  0  0  0  0  0  0  0  0
   36.2648  -13.5801   11.8750 H   0  0  0  0  0  0  0  0  0  0  0  0
   36.9314  -12.0972   12.4145 H   0  0  0  0  0  0  0  0  0  0  0  0
   39.2033  -14.7714   12.3203 H   0  0  0  0  0  0  0  0  0  0  0  0
   40.2203  -13.7439   11.4217 H   0  0  0  0  0  0  0  0  0  0  0  0
   40.8187  -14.1158    8.6039 H   0  0  0  0  0  0  0  0  0  0  0  0
   40.3462  -15.6872    8.3193 H   0  0  0  0  0  0  0  0  0  0  0  0
   43.5849  -16.3183   10.4938 H   0  0  0  0  0  0  0  0  0  0  0  0
   43.8354  -16.7234    8.8665 H   0  0  0  0  0  0  0  0  0  0  0  0
   43.9094  -18.8489   11.1843 H   0  0  0  0  0  0  0  0  0  0  0  0
   42.3988  -19.7286   10.9759 H   0  0  0  0  0  0  0  0  0  0  0  0
   41.0576  -18.7770   13.8679 H   0  0  0  0  0  0  0  0  0  0  0  0
   40.5064  -19.2461   12.2354 H   0  0  0  0  0  0  0  0  0  0  0  0
   38.2573  -16.2988   13.0678 H   0  0  0  0  0  0  0  0  0  0  0  0
   38.0273  -17.8920   12.3815 H   0  0  0  0  0  0  0  0  0  0  0  0
   37.3188  -17.3190    9.9757 H   0  0  0  0  0  0  0  0  0  0  0  0
   38.6450  -16.8489    9.0767 H   0  0  0  0  0  0  0  0  0  0  0  0
   37.2894  -14.5440   10.6234 H   0  0  0  0  0  0  0  0  0  0  0  0
   36.4092  -13.9215    9.4071 H   0  0  0  0  0  0  0  0  0  0  0  0
   39.5600  -11.5645    8.9824 H   0  0  0  0  0  0  0  0  0  0  0  0
   40.5474  -12.7174    9.7615 H   0  0  0  0  0  0  0  0  0  0  0  0
   39.4424  -12.5098   12.9976 H   0  0  0  0  0  0  0  0  0  0  0  0
   40.1434  -10.9825   13.0262 H   0  0  0  0  0  0  0  0  0  0  0  0
   41.4987  -13.3404   14.2787 H   0  0  0  0  0  0  0  0  0  0  0  0
   42.8285  -13.7387   13.1984 H   0  0  0  0  0  0  0  0  0  0  0  0
   42.6753  -15.9377   12.2137 H   0  0  0  0  0  0  0  0  0  0  0  0
   41.9432  -14.8754   11.1009 H   0  0  0  0  0  0  0  0  0  0  0  0
   40.3096  -17.2888    9.2434 H   0  0  0  0  0  0  0  0  0  0  0  0
   39.4164  -17.7533   10.7998 H   0  0  0  0  0  0  0  0  0  0  0  0
   38.1773  -19.4288   10.9587 H   0  0  0  0  0  0  0  0  0  0  0  0
   38.4909  -20.6876    9.7963 H   0  0  0  0  0  0  0  0  0  0  0  0
   35.4237  -19.6421    9.6627 H   0  0  0  0  0  0  0  0  0  0  0  0
   35.5559  -17.9716    9.2398 H   0  0  0  0  0  0  0  0  0  0  0  0
   34.6854  -16.7221   11.2329 H   0  0  0  0  0  0  0  0  0  0  0  0
   36.2601  -16.2605   11.3077 H   0  0  0  0  0  0  0  0  0  0  0  0
   36.4383  -18.3807   13.5767 H   0  0  0  0  0  0  0  0  0  0  0  0
   35.6207  -17.5074   14.9671 H   0  0  0  0  0  0  0  0  0  0  0  0
   38.2143  -18.4210   16.1517 H   0  0  0  0  0  0  0  0  0  0  0  0
   39.3805  -18.2260   14.9547 H   0  0  0  0  0  0  0  0  0  0  0  0
   39.6031  -20.3755   13.6005 H   0  0  0  0  0  0  0  0  0  0  0  0
   38.4190  -19.5206   12.6349 H   0  0  0  0  0  0  0  0  0  0  0  0
   36.2766  -21.8841   13.2662 H   0  0  0  0  0  0  0  0  0  0  0  0
   36.8399  -22.7630   11.8971 H   0  0  0  0  0  0  0  0  0  0  0  0
   34.3893  -21.9857   11.3486 H   0  0  0  0  0  0  0  0  0  0  0  0
   34.1842  -20.2643   11.1447 H   0  0  0  0  0  0  0  0  0  0  0  0
   34.5069  -18.9248   13.1180 H   0  0  0  0  0  0  0  0  0  0  0  0
   35.8088  -19.9655   13.7817 H   0  0  0  0  0  0  0  0  0  0  0  0
   35.0671  -21.0769   15.8794 H   0  0  0  0  0  0  0  0  0  0  0  0
   34.4434  -19.8719   17.0417 H   0  0  0  0  0  0  0  0  0  0  0  0
   36.8850  -20.6041   18.1903 H   0  0  0  0  0  0  0  0  0  0  0  0
   38.1722  -20.5358   16.9996 H   0  0  0  0  0  0  0  0  0  0  0  0
   38.3235  -22.2901   15.3642 H   0  0  0  0  0  0  0  0  0  0  0  0
   36.7639  -21.6485   14.8817 H   0  0  0  0  0  0  0  0  0  0  0  0
   35.0742  -23.9458   15.8697 H   0  0  0  0  0  0  0  0  0  0  0  0
   35.4681  -25.0585   14.5282 H   0  0  0  0  0  0  0  0  0  0  0  0
   33.2597  -24.5650   13.4360 H   0  0  0  0  0  0  0  0  0  0  0  0
   32.9313  -22.8938   13.0678 H   0  0  0  0  0  0  0  0  0  0  0  0
   33.7539  -22.0612   15.7605 H   0  0  0  0  0  0  0  0  0  0  0  0
   32.2951  -22.1344   16.6179 H   0  0  0  0  0  0  0  0  0  0  0  0
   30.4679  -20.7897   15.8549 H   0  0  0  0  0  0  0  0  0  0  0  0
   30.4379  -21.9200   14.4778 H   0  0  0  0  0  0  0  0  0  0  0  0
   30.3873  -18.5775   15.4962 H   0  0  0  0  0  0  0  0  0  0  0  0
   29.7475  -18.0196   13.9518 H   0  0  0  0  0  0  0  0  0  0  0  0
   31.0796  -17.9370   12.1442 H   0  0  0  0  0  0  0  0  0  0  0  0
   32.4085  -19.0815   12.3862 H   0  0  0  0  0  0  0  0  0  0  0  0
   33.4615  -17.0414   13.2010 H   0  0  0  0  0  0  0  0  0  0  0  0
  1  2  2  0  0  0  0
  2  3  1  0  0  0  0
  2 81  1  0  0  0  0
  3  4  1  0  0  0  0
  3 82  1  0  0  0  0
  3 83  1  0  0  0  0
  4  5  1  0  0  0  0
  4 84  1  0  0  0  0
  4 85  1  0  0  0  0
  5  6  1  0  0  0  0
  5 86  1  0  0  0  0
  5 87  1  0  0  0  0
  6  7  1  0  0  0  0
  6 88  1  0  0  0  0
  6 89  1  0  0  0  0
  7  8  1  0  0  0  0
  7 90  1  0  0  0  0
  7 91  1  0  0  0  0
  8  9  1  0  0  0  0
  8 92  1  0  0  0  0
  8 93  1  0  0  0  0
  9 10  1  0  0  0  0
  9 94  1  0  0  0  0
  9 95  1  0  0  0  0
 10 11  1  0  0  0  0
 10 96  1  0  0  0  0
 10 97  1  0  0  0  0
 11 12  1  0  0  0  0
 11 98  1  0  0  0  0
 11 99  1  0  0  0  0
 12 13  1  0  0  0  0
 12100  1  0  0  0  0
 12101  1  0  0  0  0
 13 14  1  0  0  0  0
 13102  1  0  0  0  0
 13103  1  0  0  0  0
 14 15  1  0  0  0  0
 15 16  1  0  0  0  0
 15104  1  0  0  0  0
 15105  1  0  0  0  0
 16 17  1  0  0  0  0
 17 18  1  0  0  0  0
 17106  1  0  0  0  0
 17107  1  0  0  0  0
 18 19  1  0  0  0  0
 19 20  1  0  0  0  0
 19108  1  0  0  0  0
 19109  1  0  0  0  0
 20 21  1  0  0  0  0
 21 22  1  0  0  0  0
 21110  1  0  0  0  0
 21111  1  0  0  0  0
 22 23  1  0  0  0  0
 23 24  1  0  0  0  0
 23112  1  0  0  0  0
 23113  1  0  0  0  0
 24 25  1  0  0  0  0
 25 26  1  0  0  0  0
 25114  1  0  0  0  0
 25115  1  0  0  0  0
 26 27  1  0  0  0  0
 27 28  1  0  0  0  0
 27116  1  0  0  0  0
 27117  1  0  0  0  0
 28 29  1  0  0  0  0
 29 30  1  0  0  0  0
 29118  1  0  0  0  0
 29119  1  0  0  0  0
 30 31  1  0  0  0  0
 31 32  1  0  0  0  0
 31120  1  0  0  0  0
 31121  1  0  0  0  0
 32 33  1  0  0  0  0
 33 34  1  0  0  0  0
 33122  1  0  0  0  0
 33123  1  0  0  0  0
 34 35  1  0  0  0  0
 35 36  1  0  0  0  0
 35124  1  0  0  0  0
 35125  1  0  0  0  0
 36 37  1  0  0  0  0
 37 38  1  0  0  0  0
 37126  1  0  0  0  0
 37127  1  0  0  0  0
 38 39  1  0  0  0  0
 39 40  1  0  0  0  0
 39128  1  0  0  0  0
 39129  1  0  0  0  0
 40 41  1  0  0  0  0
 41 42  1  0  0  0  0
 41130  1  0  0  0  0
 41131  1  0  0  0  0
 42 43  1  0  0  0  0
 43 44  1  0  0  0  0
 43132  1  0  0  0  0
 43133  1  0  0  0  0
 44 45  1  0  0  0  0
 45 46  1  0  0  0  0
 45134  1  0  0  0  0
 45135  1  0  0  0  0
 46 47  1  0  0  0  0
 47 48  1  0  0  0  0
 47136  1  0  0  0  0
 47137  1  0  0  0  0
 48 49  1  0  0  0  0
 49 50  1  0  0  0  0
 49138  1  0  0  0  0
 49139  1  0  0  0  0
 50 51  1  0  0  0  0
 51 52  1  0  0  0  0
 51140  1  0  0  0  0
 51141  1  0  0  0  0
 52 53  1  0  0  0  0
 53 54  1  0  0  0  0
 53142  1  0  0  0  0
 53143  1  0  0  0  0
 54 55  1  0  0  0  0
 55 56  1  0  0  0  0
 55144  1  0  0  0  0
 55145  1  0  0  0  0
 56 57  1  0  0  0  0
 57 58  1  0  0  0  0
 57146  1  0  0  0  0
 57147  1  0  0  0  0
 58 59  1  0  0  0  0
 59 60  1  0  0  0  0
 59148  1  0  0  0  0
 59149  1  0  0  0  0
 60 61  1  0  0  0  0
 61 62  1  0  0  0  0
 61150  1  0  0  0  0
 61151  1  0  0  0  0
 62 63  1  0  0  0  0
 63 64  1  0  0  0  0
 63152  1  0  0  0  0
 63153  1  0  0  0  0
 64 65  1  0  0  0  0
 65 66  1  0  0  0  0
 65154  1  0  0  0  0
 65155  1  0  0  0  0
 66 67  1  0  0  0  0
 67 68  1  0  0  0  0
 67156  1  0  0  0  0
 67157  1  0  0  0  0
 68 69  1  0  0  0  0
 69 70  1  0  0  0  0
 69158  1  0  0  0  0
 69159  1  0  0  0  0
 70 71  1  0  0  0  0
 71 72  1  0  0  0  0
 71160  1  0  0  0  0
 71161  1  0  0  0  0
 72 73  1  0  0  0  0
 73 74  1  0  0  0  0
 73162  1  0  0  0  0
 73163  1  0  0  0  0
 74 75  1  0  0  0  0
 75 76  1  0  0  0  0
 75164  1  0  0  0  0
 75165  1  0  0  0  0
 76 77  1  0  0  0  0
 77 78  1  0  0  0  0
 77166  1  0  0  0  0
 77167  1  0  0  0  0
 78 79  1  0  0  0  0
 79 80  1  0  0  0  0
 79168  1  0  0  0  0
 79169  1  0  0  0  0
 80170  1  0  0  0  0
M  END
$$$$
