
 OpenBabel04232216503D

 40 42  0  0  0  0  0  0  0  0999 V2000
   10.4977   -8.6496    8.6015 C   0  0  0  0  0  0  0  0  0  0  0  0
   11.0860   -7.5193    7.7767 C   0  0  0  0  0  0  0  0  0  0  0  0
   12.2247   -7.5841    7.1826 N   0  0  0  0  0  0  0  0  0  0  0  0
   12.8294   -8.7972    6.9290 C   0  0  0  0  0  0  0  0  0  0  0  0
   13.2169   -9.6200    7.7455 O   0  0  0  0  0  0  0  0  0  0  0  0
   12.9245   -9.0024    5.5184 N   0  0  0  0  0  0  0  0  0  0  0  0
   11.7268   -9.6733    4.9939 C   0  0  0  0  0  0  0  0  0  0  0  0
   11.4006  -11.0412    5.5803 C   0  0  0  0  0  0  0  0  0  0  0  0
   13.4988   -7.8911    4.8201 C   0  0  0  0  0  0  0  0  0  0  0  0
   12.9127   -7.1871    3.8169 C   0  0  0  0  0  0  0  0  0  0  0  0
   11.9061   -6.0758    4.2558 C   0  0  0  0  0  0  0  0  0  0  0  0
   10.5279   -6.8330    4.0669 C   0  0  0  0  0  0  0  0  0  0  0  0
   12.5010   -5.2680    5.4657 C   0  0  0  0  0  3  0  0  0  0  0  0
   12.1092   -3.8425    5.5915 C   0  0  0  0  0  0  0  0  0  0  0  0
   12.8295   -2.8850    4.9437 C   0  0  0  0  0  0  0  0  0  0  0  0
   13.3168   -3.2220    3.5942 C   0  0  0  0  0  0  0  0  0  0  0  0
   12.6465   -4.1293    2.8429 C   0  0  0  0  0  0  0  0  0  0  0  0
   11.4765   -4.8847    3.4067 C   0  0  0  0  0  0  0  0  0  0  0  0
   10.4567   -3.7091    4.8359 S   0  0  3  0  0  0  0  0  0  0  0  0
    9.6919   -4.7063    5.7191 N   0  0  0  0  0  0  0  0  0  0  0  0
   10.1224   -5.6253    6.6064 C   0  0  0  0  0  0  0  0  0  0  0  0
   10.2477   -6.4131    7.6898 N   0  0  0  0  0  0  0  0  0  0  0  0
    9.5839   -9.0193    8.1281 H   0  0  0  0  0  0  0  0  0  0  0  0
   10.2451   -8.2658    9.5990 H   0  0  0  0  0  0  0  0  0  0  0  0
   11.1740   -9.4871    8.7534 H   0  0  0  0  0  0  0  0  0  0  0  0
   11.7813   -9.7439    3.9052 H   0  0  0  0  0  0  0  0  0  0  0  0
   10.8606   -9.0800    5.2715 H   0  0  0  0  0  0  0  0  0  0  0  0
   12.2668  -11.7016    5.5852 H   0  0  0  0  0  0  0  0  0  0  0  0
   10.5965  -11.5028    4.9937 H   0  0  0  0  0  0  0  0  0  0  0  0
   11.0188  -10.9524    6.6049 H   0  0  0  0  0  0  0  0  0  0  0  0
   14.0864   -7.2983    5.5279 H   0  0  0  0  0  0  0  0  0  0  0  0
   12.5334   -7.7590    2.9738 H   0  0  0  0  0  0  0  0  0  0  0  0
    9.6595   -6.2080    3.8096 H   0  0  0  0  0  0  0  0  0  0  0  0
   10.2223   -7.3987    4.9359 H   0  0  0  0  0  0  0  0  0  0  0  0
   10.5454   -7.5064    3.1962 H   0  0  0  0  0  0  0  0  0  0  0  0
   12.8779   -5.6664    6.3904 H   0  0  0  0  0  0  0  0  0  0  0  0
   12.4184   -1.8652    4.9364 H   0  0  0  0  0  0  0  0  0  0  0  0
   14.2077   -2.7173    3.2441 H   0  0  0  0  0  0  0  0  0  0  0  0
   13.0629   -4.4715    1.9020 H   0  0  0  0  0  0  0  0  0  0  0  0
    9.1886   -5.3367    7.1507 H   0  0  0  0  0  0  0  0  0  0  0  0
  1  2  1  0  0  0  0
  1 23  1  0  0  0  0
  1 24  1  0  0  0  0
  1 25  1  0  0  0  0
  2  3  2  3  0  0  0
  2 22  1  0  0  0  0
  3  4  1  0  0  0  0
  4  5  2  0  0  0  0
  4  6  1  0  0  0  0
  6  7  1  0  0  0  0
  6  9  1  0  0  0  0
  7  8  1  0  0  0  0
  7 26  1  0  0  0  0
  7 27  1  0  0  0  0
  8 28  1  0  0  0  0
  8 29  1  0  0  0  0
  8 30  1  0  0  0  0
  9 10  2  3  0  0  0
  9 31  1  0  0  0  0
 10 11  1  0  0  0  0
 10 32  1  0  0  0  0
 11 12  1  0  0  0  0
 11 13  1  0  0  0  0
 11 18  2  0  0  0  0
 12 33  1  0  0  0  0
 12 34  1  0  0  0  0
 12 35  1  0  0  0  0
 13 14  1  0  0  0  0
 13 36  1  0  0  0  0
 14 15  2  0  0  0  0
 14 19  1  0  0  0  0
 15 16  1  0  0  0  0
 15 37  1  0  0  0  0
 16 17  2  0  0  0  0
 16 38  1  0  0  0  0
 17 18  1  0  0  0  0
 17 39  1  0  0  0  0
 18 19  1  0  0  0  0
 19 20  2  3  0  0  0
 20 21  1  0  0  0  0
 21 22  2  3  0  0  0
 21 40  1  0  0  0  0
M  END
$$$$
