
 OpenBabel04232216403D

197196  0  0  0  0  0  0  0  0999 V2000
   11.7273   10.4153    5.3093 C   0  0  0  0  0  0  0  0  0  0  0  0
   12.6200   11.1291    6.0010 C   0  0  0  0  0  0  0  0  0  0  0  0
   13.5066   12.1436    5.3393 C   0  0  0  0  0  0  0  0  0  0  0  0
   14.9790   11.7976    5.5178 C   0  0  0  0  0  0  0  0  0  0  0  0
   15.8705   12.8342    4.8362 C   0  0  0  0  0  0  0  0  0  0  0  0
   17.2621   12.4836    5.0373 N   0  0  0  0  0  0  0  0  0  0  0  0
   18.0687   13.4672    4.4055 N   0  0  0  0  0  0  0  0  0  0  0  0
   19.4443   13.1301    4.5555 N   0  0  0  0  0  0  0  0  0  0  0  0
   19.7122   11.8608    3.9892 N   0  0  0  0  0  0  0  0  0  0  0  0
   19.3961   11.8800    2.5997 N   0  0  0  0  0  0  0  0  0  0  0  0
   20.2022   12.8597    1.9221 N   0  0  0  0  0  0  0  0  0  0  0  0
   21.5721   12.5693    2.1145 N   0  0  0  0  0  0  0  0  0  0  0  0
   21.8311   11.2841    1.5742 N   0  0  0  0  0  0  0  0  0  0  0  0
   21.4855   11.2840    0.1859 N   0  0  0  0  0  0  0  0  0  0  0  0
   22.2719   12.2668   -0.5056 N   0  0  0  0  0  0  0  0  0  0  0  0
   23.6726   11.9790   -0.3815 N   0  0  0  0  0  0  0  0  0  0  0  0
   23.9732   10.6867   -0.9075 N   0  0  0  0  0  0  0  0  0  0  0  0
   23.6308   10.6434   -2.2952 N   0  0  0  0  0  0  0  0  0  0  0  0
   24.3572   11.6494   -2.9825 N   0  0  0  0  0  0  0  0  0  0  0  0
   25.7638   11.3971   -2.8251 N   0  0  0  0  0  0  0  0  0  0  0  0
   26.0861   10.1057   -3.3522 N   0  0  0  0  0  0  0  0  0  0  0  0
   25.7503   10.0296   -4.7335 N   0  0  0  0  0  0  0  0  0  0  0  0
   26.4709   11.0209   -5.4504 N   0  0  0  0  0  0  0  0  0  0  0  0
   27.8672   10.8042   -5.2899 N   0  0  0  0  0  0  0  0  0  0  0  0
   28.1860    9.5171   -5.7739 N   0  0  0  0  0  0  0  0  0  0  0  0
   27.8581    9.4195   -7.1625 N   0  0  0  0  0  0  0  0  0  0  0  0
   28.5775   10.4208   -7.9357 N   0  0  0  0  0  0  0  0  0  0  0  0
   30.0058   10.1950   -7.7410 C   0  0  0  0  0  0  0  0  0  0  0  0
   30.7724   11.2433   -8.5224 C   0  0  0  0  0  0  0  0  0  0  0  0
   32.2671   11.0295   -8.3638 C   0  0  0  0  0  0  0  0  0  0  0  0
   33.0338   12.0751   -9.1489 C   0  0  0  0  0  0  0  0  0  0  0  0
   34.5248   11.8595   -8.9895 C   0  0  0  0  0  0  0  0  0  0  0  0
   35.2894   12.9038   -9.7759 C   0  0  0  0  0  0  0  0  0  0  0  0
   36.7797   12.6878   -9.6163 C   0  0  0  0  0  0  0  0  0  0  0  0
   37.5439   13.7320  -10.4027 C   0  0  0  0  0  0  0  0  0  0  0  0
   39.0341   13.5160  -10.2431 C   0  0  0  0  0  0  0  0  0  0  0  0
   39.7983   14.5590  -11.0311 C   0  0  0  0  0  0  0  0  0  0  0  0
   41.2885   14.3442  -10.8699 C   0  0  0  0  0  0  0  0  0  0  0  0
   42.0527   15.3884  -11.6563 C   0  0  0  0  0  0  0  0  0  0  0  0
   43.5429   15.1724  -11.4966 C   0  0  0  0  0  0  0  0  0  0  0  0
   44.3071   16.2178  -12.2814 C   0  0  0  0  0  0  0  0  0  0  0  0
   45.7973   16.0030  -12.1202 C   0  0  0  0  0  0  0  0  0  0  0  0
   46.5615   17.0484  -12.9049 C   0  0  0  0  0  0  0  0  0  0  0  0
   48.0517   16.8336  -12.7437 C   0  0  0  0  0  0  0  0  0  0  0  0
   48.8160   17.8790  -13.5285 C   0  0  0  0  0  0  0  0  0  0  0  0
   50.3061   17.6642  -13.3672 C   0  0  0  0  0  0  0  0  0  0  0  0
   51.0704   18.7096  -14.1520 C   0  0  0  0  0  0  0  0  0  0  0  0
   52.5605   18.4960  -13.9892 C   0  0  0  0  0  0  0  0  0  0  0  0
   53.3248   19.5426  -14.7724 C   0  0  0  0  0  0  0  0  0  0  0  0
   54.8149   19.3278  -14.6111 C   0  0  0  0  0  0  0  0  0  0  0  0
   55.5792   20.3744  -15.3943 C   0  0  0  0  0  0  0  0  0  0  0  0
   57.0693   20.1584  -15.2347 C   0  0  0  0  0  0  0  0  0  0  0  0
   57.8336   21.2062  -16.0163 C   0  0  0  0  0  0  0  0  0  0  0  0
   59.3239   20.9914  -15.8550 C   0  0  0  0  0  0  0  0  0  0  0  0
   60.0884   22.0381  -16.6383 C   0  0  0  0  0  0  0  0  0  0  0  0
   61.5794   21.8248  -16.4757 C   0  0  0  0  0  0  0  0  0  0  0  0
   62.3458   22.8702  -17.2605 C   0  0  0  0  0  0  0  0  0  0  0  0
   63.8396   22.6579  -17.0989 C   0  0  0  0  0  0  0  0  0  0  0  0
   64.5981   23.7037  -17.8873 C   0  0  0  0  0  0  0  0  0  0  0  0
   66.0253   23.4830  -17.7087 N   0  0  0  0  0  0  0  0  0  0  0  0
   66.7209   24.4717  -18.4643 N   0  0  0  0  0  0  0  0  0  0  0  0
   68.1121   24.2714  -18.3161 N   0  0  0  0  0  0  0  0  0  0  0  0
   68.5044   22.9739  -18.7874 N   0  0  0  0  0  0  0  0  0  0  0  0
   69.8864   22.7691  -18.6291 N   0  0  0  0  0  0  0  0  0  0  0  0
   70.2385   22.8643  -17.2519 N   0  0  0  0  0  0  0  0  0  0  0  0
   71.6366   22.6689  -17.0969 N   0  0  0  0  0  0  0  0  0  0  0  0
   71.9904   22.7739  -15.7254 N   0  0  0  0  0  0  0  0  0  0  0  0
   73.3921   22.5720  -15.5564 N   0  0  0  0  0  0  0  0  0  0  0  0
   73.7477   22.6713  -14.1904 N   0  0  0  0  0  0  0  0  0  0  0  0
   75.1373   22.4685  -14.0397 N   0  0  0  0  0  0  0  0  0  0  0  0
   75.4927   22.5698  -12.6775 N   0  0  0  0  0  0  0  0  0  0  0  0
   76.8766   22.3675  -12.5267 N   0  0  0  0  0  0  0  0  0  0  0  0
   77.2319   22.4670  -11.1586 N   0  0  0  0  0  0  0  0  0  0  0  0
   78.6121   22.2659  -11.0166 N   0  0  0  0  0  0  0  0  0  0  0  0
   78.9741   22.3657   -9.6449 N   0  0  0  0  0  0  0  0  0  0  0  0
   80.3672   22.1613   -9.4810 N   0  0  0  0  0  0  0  0  0  0  0  0
   80.7198   22.2599   -8.1135 N   0  0  0  0  0  0  0  0  0  0  0  0
   82.1221   22.0571   -7.9497 N   0  0  0  0  0  0  0  0  0  0  0  0
   82.4623   22.1568   -6.5853 N   0  0  0  0  0  0  0  0  0  0  0  0
   83.8647   21.9528   -6.4071 N   0  0  0  0  0  0  0  0  0  0  0  0
   11.1047    9.6829    5.7994 H   0  0  0  0  0  0  0  0  0  0  0  0
   11.6275   10.5588    4.2396 H   0  0  0  0  0  0  0  0  0  0  0  0
   12.7096   10.9638    7.0704 H   0  0  0  0  0  0  0  0  0  0  0  0
   13.3093   13.1320    5.7683 H   0  0  0  0  0  0  0  0  0  0  0  0
   13.2762   12.1913    4.2676 H   0  0  0  0  0  0  0  0  0  0  0  0
   15.1718   10.8080    5.0884 H   0  0  0  0  0  0  0  0  0  0  0  0
   15.2112   11.7550    6.5885 H   0  0  0  0  0  0  0  0  0  0  0  0
   15.6586   13.8161    5.2809 H   0  0  0  0  0  0  0  0  0  0  0  0
   15.6145   12.8767    3.7726 H   0  0  0  0  0  0  0  0  0  0  0  0
   17.4659   11.5888    4.5906 H   0  0  0  0  0  0  0  0  0  0  0  0
   17.9053   14.3771    4.8142 H   0  0  0  0  0  0  0  0  0  0  0  0
   19.6685   13.1073    5.5514 H   0  0  0  0  0  0  0  0  0  0  0  0
   19.1403   11.1637    4.4839 H   0  0  0  0  0  0  0  0  0  0  0  0
   18.4046   12.1133    2.4861 H   0  0  0  0  0  0  0  0  0  0  0  0
   20.0176   13.7768    2.3338 H   0  0  0  0  0  0  0  0  0  0  0  0
   21.7787   12.5906    3.1180 H   0  0  0  0  0  0  0  0  0  0  0  0
   21.2601   10.5845    2.0320 H   0  0  0  0  0  0  0  0  0  0  0  0
   20.4903   11.5046    0.0861 H   0  0  0  0  0  0  0  0  0  0  0  0
   22.0983   13.1969   -0.1285 H   0  0  0  0  0  0  0  0  0  0  0  0
   23.9353   11.9877    0.6046 H   0  0  0  0  0  0  0  0  0  0  0  0
   23.4418    9.9795   -0.3957 H   0  0  0  0  0  0  0  0  0  0  0  0
   22.6411   10.8410   -2.4079 H   0  0  0  0  0  0  0  0  0  0  0  0
   24.1137   12.5650   -2.5938 H   0  0  0  0  0  0  0  0  0  0  0  0
   26.0119   11.4247   -1.8288 H   0  0  0  0  0  0  0  0  0  0  0  0
   25.5600    9.3809   -2.8612 H   0  0  0  0  0  0  0  0  0  0  0  0
   24.7578   10.2001   -4.8547 H   0  0  0  0  0  0  0  0  0  0  0  0
   26.2545   11.9373   -5.0910 H   0  0  0  0  0  0  0  0  0  0  0  0
   28.1041   10.8423   -4.3045 H   0  0  0  0  0  0  0  0  0  0  0  0
   27.6858    8.8078   -5.2324 H   0  0  0  0  0  0  0  0  0  0  0  0
   26.8480    9.5708   -7.2795 H   0  0  0  0  0  0  0  0  0  0  0  0
   28.3435   11.3451   -7.5497 H   0  0  0  0  0  0  0  0  0  0  0  0
   30.2782    9.1997   -8.1054 H   0  0  0  0  0  0  0  0  0  0  0  0
   30.2936   10.2658   -6.6831 H   0  0  0  0  0  0  0  0  0  0  0  0
   30.5111   12.2458   -8.1643 H   0  0  0  0  0  0  0  0  0  0  0  0
   30.5084   11.1821   -9.5838 H   0  0  0  0  0  0  0  0  0  0  0  0
   32.5381   10.0305   -8.7232 H   0  0  0  0  0  0  0  0  0  0  0  0
   32.5402   11.0939   -7.3047 H   0  0  0  0  0  0  0  0  0  0  0  0
   32.7666   13.0752   -8.7902 H   0  0  0  0  0  0  0  0  0  0  0  0
   32.7644   12.0117  -10.2089 H   0  0  0  0  0  0  0  0  0  0  0  0
   34.7932   10.8594   -9.3472 H   0  0  0  0  0  0  0  0  0  0  0  0
   34.7958   11.9248   -7.9300 H   0  0  0  0  0  0  0  0  0  0  0  0
   35.0215   13.9040   -9.4183 H   0  0  0  0  0  0  0  0  0  0  0  0
   35.0189   12.8386  -10.8356 H   0  0  0  0  0  0  0  0  0  0  0  0
   37.0477   11.6876   -9.9740 H   0  0  0  0  0  0  0  0  0  0  0  0
   37.0503   12.7530   -8.5568 H   0  0  0  0  0  0  0  0  0  0  0  0
   37.2759   14.7322  -10.0451 H   0  0  0  0  0  0  0  0  0  0  0  0
   37.2733   13.6668  -11.4623 H   0  0  0  0  0  0  0  0  0  0  0  0
   39.3019   12.5152  -10.5994 H   0  0  0  0  0  0  0  0  0  0  0  0
   39.3049   13.5826   -9.1836 H   0  0  0  0  0  0  0  0  0  0  0  0
   39.5294   15.5598  -10.6758 H   0  0  0  0  0  0  0  0  0  0  0  0
   39.5286   14.4914  -12.0907 H   0  0  0  0  0  0  0  0  0  0  0  0
   41.5576   13.3439  -11.2265 H   0  0  0  0  0  0  0  0  0  0  0  0
   41.5581   14.4104   -9.8101 H   0  0  0  0  0  0  0  0  0  0  0  0
   41.7847   16.3886  -11.2986 H   0  0  0  0  0  0  0  0  0  0  0  0
   41.7821   15.3232  -12.7158 H   0  0  0  0  0  0  0  0  0  0  0  0
   43.8112   14.1727  -11.8556 H   0  0  0  0  0  0  0  0  0  0  0  0
   43.8133   15.2362  -10.4369 H   0  0  0  0  0  0  0  0  0  0  0  0
   44.0378   17.2175  -11.9234 H   0  0  0  0  0  0  0  0  0  0  0  0
   44.0378   16.1530  -13.3413 H   0  0  0  0  0  0  0  0  0  0  0  0
   46.0666   15.0032  -12.4782 H   0  0  0  0  0  0  0  0  0  0  0  0
   46.0666   16.0677  -11.0602 H   0  0  0  0  0  0  0  0  0  0  0  0
   46.2922   18.0481  -12.5469 H   0  0  0  0  0  0  0  0  0  0  0  0
   46.2922   16.9836  -13.9649 H   0  0  0  0  0  0  0  0  0  0  0  0
   48.3210   15.8338  -13.1017 H   0  0  0  0  0  0  0  0  0  0  0  0
   48.3210   16.8983  -11.6837 H   0  0  0  0  0  0  0  0  0  0  0  0
   48.5466   18.8787  -13.1705 H   0  0  0  0  0  0  0  0  0  0  0  0
   48.5466   17.8142  -14.5884 H   0  0  0  0  0  0  0  0  0  0  0  0
   50.5755   16.6644  -13.7252 H   0  0  0  0  0  0  0  0  0  0  0  0
   50.5754   17.7289  -12.3073 H   0  0  0  0  0  0  0  0  0  0  0  0
   50.8000   19.7094  -13.7950 H   0  0  0  0  0  0  0  0  0  0  0  0
   50.8021   18.6439  -15.2122 H   0  0  0  0  0  0  0  0  0  0  0  0
   52.8311   17.4967  -14.3475 H   0  0  0  0  0  0  0  0  0  0  0  0
   52.8286   18.5602  -12.9289 H   0  0  0  0  0  0  0  0  0  0  0  0
   53.0552   20.5418  -14.4130 H   0  0  0  0  0  0  0  0  0  0  0  0
   53.0557   19.4793  -15.8325 H   0  0  0  0  0  0  0  0  0  0  0  0
   55.0845   18.3286  -14.9705 H   0  0  0  0  0  0  0  0  0  0  0  0
   55.0841   19.3911  -13.5510 H   0  0  0  0  0  0  0  0  0  0  0  0
   55.3107   21.3735  -15.0340 H   0  0  0  0  0  0  0  0  0  0  0  0
   55.3090   20.3120  -16.4542 H   0  0  0  0  0  0  0  0  0  0  0  0
   57.3380   19.1598  -15.5963 H   0  0  0  0  0  0  0  0  0  0  0  0
   57.3393   20.2193  -14.1746 H   0  0  0  0  0  0  0  0  0  0  0  0
   57.5638   22.2049  -15.6556 H   0  0  0  0  0  0  0  0  0  0  0  0
   57.5647   21.1443  -17.0765 H   0  0  0  0  0  0  0  0  0  0  0  0
   59.5933   19.9922  -16.2144 H   0  0  0  0  0  0  0  0  0  0  0  0
   59.5929   21.0547  -14.7949 H   0  0  0  0  0  0  0  0  0  0  0  0
   59.8175   23.0373  -16.2798 H   0  0  0  0  0  0  0  0  0  0  0  0
   59.8200   21.9737  -17.6985 H   0  0  0  0  0  0  0  0  0  0  0  0
   61.8488   20.8247  -16.8324 H   0  0  0  0  0  0  0  0  0  0  0  0
   61.8466   21.8902  -15.4152 H   0  0  0  0  0  0  0  0  0  0  0  0
   62.0730   23.8696  -16.9033 H   0  0  0  0  0  0  0  0  0  0  0  0
   62.0752   22.8041  -18.3202 H   0  0  0  0  0  0  0  0  0  0  0  0
   64.1041   21.6556  -17.4537 H   0  0  0  0  0  0  0  0  0  0  0  0
   64.1029   22.7235  -16.0370 H   0  0  0  0  0  0  0  0  0  0  0  0
   64.3318   24.7008  -17.5201 H   0  0  0  0  0  0  0  0  0  0  0  0
   64.3293   23.6355  -18.9459 H   0  0  0  0  0  0  0  0  0  0  0  0
   66.2976   22.5681  -18.0745 H   0  0  0  0  0  0  0  0  0  0  0  0
   66.5061   25.4002  -18.1084 H   0  0  0  0  0  0  0  0  0  0  0  0
   68.3688   24.3505  -17.3192 H   0  0  0  0  0  0  0  0  0  0  0  0
   68.2640   22.8839  -19.7702 H   0  0  0  0  0  0  0  0  0  0  0  0
   70.4063   23.4781  -19.1425 H   0  0  0  0  0  0  0  0  0  0  0  0
   69.7026   22.1608  -16.7394 H   0  0  0  0  0  0  0  0  0  0  0  0
   72.1318   23.3730  -17.6569 H   0  0  0  0  0  0  0  0  0  0  0  0
   71.4600   22.0703  -15.1983 H   0  0  0  0  0  0  0  0  0  0  0  0
   73.9259   23.2743  -16.0788 H   0  0  0  0  0  0  0  0  0  0  0  0
   73.2771   21.9602  -13.6313 H   0  0  0  0  0  0  0  0  0  0  0  0
   75.6443   23.1787  -14.5631 H   0  0  0  0  0  0  0  0  0  0  0  0
   75.0062   21.8621  -12.1340 H   0  0  0  0  0  0  0  0  0  0  0  0
   77.3886   23.0773  -13.0449 H   0  0  0  0  0  0  0  0  0  0  0  0
   76.7130   21.7676  -10.6360 H   0  0  0  0  0  0  0  0  0  0  0  0
   79.0894   22.9776  -11.5736 H   0  0  0  0  0  0  0  0  0  0  0  0
   78.4513   21.6660   -9.1128 H   0  0  0  0  0  0  0  0  0  0  0  0
   80.9003   22.8690   -9.9877 H   0  0  0  0  0  0  0  0  0  0  0  0
   80.2235   21.5541   -7.5784 H   0  0  0  0  0  0  0  0  0  0  0  0
   82.6145   22.7732   -8.4794 H   0  0  0  0  0  0  0  0  0  0  0  0
   81.9543   21.4453   -6.0658 H   0  0  0  0  0  0  0  0  0  0  0  0
   84.3505   22.6463   -6.9733 H   0  0  0  0  0  0  0  0  0  0  0  0
   84.0989   21.0442   -6.8036 H   0  0  0  0  0  0  0  0  0  0  0  0
  1  2  2  0  0  0  0
  1 81  1  0  0  0  0
  1 82  1  0  0  0  0
  2  3  1  0  0  0  0
  2 83  1  0  0  0  0
  3  4  1  0  0  0  0
  3 84  1  0  0  0  0
  3 85  1  0  0  0  0
  4  5  1  0  0  0  0
  4 86  1  0  0  0  0
  4 87  1  0  0  0  0
  5  6  1  0  0  0  0
  5 88  1  0  0  0  0
  5 89  1  0  0  0  0
  6  7  1  0  0  0  0
  6 90  1  0  0  0  0
  7  8  1  0  0  0  0
  7 91  1  0  0  0  0
  8  9  1  0  0  0  0
  8 92  1  0  0  0  0
  9 10  1  0  0  0  0
  9 93  1  0  0  0  0
 10 11  1  0  0  0  0
 10 94  1  0  0  0  0
 11 12  1  0  0  0  0
 11 95  1  0  0  0  0
 12 13  1  0  0  0  0
 12 96  1  0  0  0  0
 13 14  1  0  0  0  0
 13 97  1  0  0  0  0
 14 15  1  0  0  0  0
 14 98  1  0  0  0  0
 15 16  1  0  0  0  0
 15 99  1  0  0  0  0
 16 17  1  0  0  0  0
 16100  1  0  0  0  0
 17 18  1  0  0  0  0
 17101  1  0  0  0  0
 18 19  1  0  0  0  0
 18102  1  0  0  0  0
 19 20  1  0  0  0  0
 19103  1  0  0  0  0
 20 21  1  0  0  0  0
 20104  1  0  0  0  0
 21 22  1  0  0  0  0
 21105  1  0  0  0  0
 22 23  1  0  0  0  0
 22106  1  0  0  0  0
 23 24  1  0  0  0  0
 23107  1  0  0  0  0
 24 25  1  0  0  0  0
 24108  1  0  0  0  0
 25 26  1  0  0  0  0
 25109  1  0  0  0  0
 26 27  1  0  0  0  0
 26110  1  0  0  0  0
 27 28  1  0  0  0  0
 27111  1  0  0  0  0
 28 29  1  0  0  0  0
 28112  1  0  0  0  0
 28113  1  0  0  0  0
 29 30  1  0  0  0  0
 29114  1  0  0  0  0
 29115  1  0  0  0  0
 30 31  1  0  0  0  0
 30116  1  0  0  0  0
 30117  1  0  0  0  0
 31 32  1  0  0  0  0
 31118  1  0  0  0  0
 31119  1  0  0  0  0
 32 33  1  0  0  0  0
 32120  1  0  0  0  0
 32121  1  0  0  0  0
 33 34  1  0  0  0  0
 33122  1  0  0  0  0
 33123  1  0  0  0  0
 34 35  1  0  0  0  0
 34124  1  0  0  0  0
 34125  1  0  0  0  0
 35 36  1  0  0  0  0
 35126  1  0  0  0  0
 35127  1  0  0  0  0
 36 37  1  0  0  0  0
 36128  1  0  0  0  0
 36129  1  0  0  0  0
 37 38  1  0  0  0  0
 37130  1  0  0  0  0
 37131  1  0  0  0  0
 38 39  1  0  0  0  0
 38132  1  0  0  0  0
 38133  1  0  0  0  0
 39 40  1  0  0  0  0
 39134  1  0  0  0  0
 39135  1  0  0  0  0
 40 41  1  0  0  0  0
 40136  1  0  0  0  0
 40137  1  0  0  0  0
 41 42  1  0  0  0  0
 41138  1  0  0  0  0
 41139  1  0  0  0  0
 42 43  1  0  0  0  0
 42140  1  0  0  0  0
 42141  1  0  0  0  0
 43 44  1  0  0  0  0
 43142  1  0  0  0  0
 43143  1  0  0  0  0
 44 45  1  0  0  0  0
 44144  1  0  0  0  0
 44145  1  0  0  0  0
 45 46  1  0  0  0  0
 45146  1  0  0  0  0
 45147  1  0  0  0  0
 46 47  1  0  0  0  0
 46148  1  0  0  0  0
 46149  1  0  0  0  0
 47 48  1  0  0  0  0
 47150  1  0  0  0  0
 47151  1  0  0  0  0
 48 49  1  0  0  0  0
 48152  1  0  0  0  0
 48153  1  0  0  0  0
 49 50  1  0  0  0  0
 49154  1  0  0  0  0
 49155  1  0  0  0  0
 50 51  1  0  0  0  0
 50156  1  0  0  0  0
 50157  1  0  0  0  0
 51 52  1  0  0  0  0
 51158  1  0  0  0  0
 51159  1  0  0  0  0
 52 53  1  0  0  0  0
 52160  1  0  0  0  0
 52161  1  0  0  0  0
 53 54  1  0  0  0  0
 53162  1  0  0  0  0
 53163  1  0  0  0  0
 54 55  1  0  0  0  0
 54164  1  0  0  0  0
 54165  1  0  0  0  0
 55 56  1  0  0  0  0
 55166  1  0  0  0  0
 55167  1  0  0  0  0
 56 57  1  0  0  0  0
 56168  1  0  0  0  0
 56169  1  0  0  0  0
 57 58  1  0  0  0  0
 57170  1  0  0  0  0
 57171  1  0  0  0  0
 58 59  1  0  0  0  0
 58172  1  0  0  0  0
 58173  1  0  0  0  0
 59 60  1  0  0  0  0
 59174  1  0  0  0  0
 59175  1  0  0  0  0
 60 61  1  0  0  0  0
 60176  1  0  0  0  0
 61 62  1  0  0  0  0
 61177  1  0  0  0  0
 62 63  1  0  0  0  0
 62178  1  0  0  0  0
 63 64  1  0  0  0  0
 63179  1  0  0  0  0
 64 65  1  0  0  0  0
 64180  1  0  0  0  0
 65 66  1  0  0  0  0
 65181  1  0  0  0  0
 66 67  1  0  0  0  0
 66182  1  0  0  0  0
 67 68  1  0  0  0  0
 67183  1  0  0  0  0
 68 69  1  0  0  0  0
 68184  1  0  0  0  0
 69 70  1  0  0  0  0
 69185  1  0  0  0  0
 70 71  1  0  0  0  0
 70186  1  0  0  0  0
 71 72  1  0  0  0  0
 71187  1  0  0  0  0
 72 73  1  0  0  0  0
 72188  1  0  0  0  0
 73 74  1  0  0  0  0
 73189  1  0  0  0  0
 74 75  1  0  0  0  0
 74190  1  0  0  0  0
 75 76  1  0  0  0  0
 75191  1  0  0  0  0
 76 77  1  0  0  0  0
 76192  1  0  0  0  0
 77 78  1  0  0  0  0
 77193  1  0  0  0  0
 78 79  1  0  0  0  0
 78194  1  0  0  0  0
 79 80  1  0  0  0  0
 79195  1  0  0  0  0
 80196  1  0  0  0  0
 80197  1  0  0  0  0
M  END
$$$$
