
 OpenBabel04232217023D

101100  0  0  0  0  0  0  0  0999 V2000
   32.6718   -7.3799   -7.5092 O   0  0  0  0  0  0  0  0  0  0  0  0
   31.9840   -7.9219   -6.1038 S   0  0  0  0  0  0  0  0  0  0  0  0
   32.4639   -9.6942   -6.1126 C   0  0  0  0  0  0  0  0  0  0  0  0
   31.8778  -10.3612   -4.8490 C   0  0  0  0  0  0  0  0  0  0  0  0
   32.2282  -11.8533   -4.7765 C   0  0  0  0  0  0  0  0  0  0  0  0
   31.6862  -12.4369   -3.5528 N   0  0  0  0  0  0  0  0  0  0  0  0
   32.0065  -13.8253   -3.5005 N   0  0  0  0  0  0  0  0  0  0  0  0
   31.4902  -14.4080   -2.3266 N   0  0  0  0  0  0  0  0  0  0  0  0
   31.8060  -15.7721   -2.2806 N   0  0  0  0  0  0  0  0  0  0  0  0
   31.2836  -16.3562   -1.1062 N   0  0  0  0  0  0  0  0  0  0  0  0
   29.8643  -16.2022   -1.0662 N   0  0  0  0  0  0  0  0  0  0  0  0
   29.3698  -16.7960    0.1414 N   0  0  0  0  0  0  0  0  0  0  0  0
   29.8540  -16.2586    1.3367 N   0  0  0  0  0  0  0  0  0  0  0  0
   29.1879  -16.9180    2.7113 S   0  0  0  0  0  0  0  0  0  0  0  0
   29.5703  -18.5394    2.8364 N   0  0  0  0  0  0  0  0  0  0  0  0
   28.9104  -19.2675    4.1926 S   0  0  0  0  0  0  0  0  0  0  0  0
   27.2518  -19.1547    4.2259 N   0  0  0  0  0  0  0  0  0  0  0  0
   26.4963  -19.9184    2.9696 S   0  0  0  0  0  0  0  0  0  0  0  0
   24.8537  -19.7465    3.0684 N   0  0  0  0  0  0  0  0  0  0  0  0
   24.2698  -18.1907    2.9678 S   0  0  0  0  0  0  0  0  0  0  0  0
   24.7110  -17.4018    1.5593 N   0  0  0  0  0  0  0  0  0  0  0  0
   24.1116  -18.1360    0.2004 S   0  0  0  0  0  0  0  0  0  0  0  0
   24.7909  -16.9927   -1.3685 S   0  0  0  0  0  0  0  0  0  0  0  0
   26.8410  -17.0487   -1.4721 S   0  0  0  0  0  0  0  0  0  0  0  0
   27.5568  -19.0176   -1.6691 S   0  0  0  0  0  0  0  0  0  0  0  0
   29.6587  -19.0788   -1.7529 S   0  0  0  0  0  0  0  0  0  0  0  0
   30.4180  -21.0016   -1.7975 S   0  0  0  0  0  0  0  0  0  0  0  0
   32.5170  -20.9128   -1.7936 S   0  0  0  0  0  0  0  0  0  0  0  0
   33.2110  -22.8964   -1.9594 S   0  0  0  0  0  0  0  0  0  0  0  0
   35.3201  -22.8854   -1.9572 S   0  0  0  0  0  0  0  0  0  0  0  0
   36.0110  -24.8722   -2.1215 S   0  0  0  0  0  0  0  0  0  0  0  0
   38.1205  -24.8590   -2.1204 S   0  0  0  0  0  0  0  0  0  0  0  0
   38.8111  -26.8454   -2.2847 S   0  0  0  0  0  0  0  0  0  0  0  0
   40.9205  -26.8322   -2.2836 S   0  0  0  0  0  0  0  0  0  0  0  0
   41.6111  -28.8186   -2.4478 S   0  0  0  0  0  0  0  0  0  0  0  0
   43.7205  -28.8054   -2.4467 S   0  0  0  0  0  0  0  0  0  0  0  0
   44.4111  -30.7918   -2.6109 S   0  0  0  0  0  0  0  0  0  0  0  0
   46.5205  -30.7786   -2.6098 S   0  0  0  0  0  0  0  0  0  0  0  0
   47.2111  -32.7649   -2.7741 S   0  0  0  0  0  0  0  0  0  0  0  0
   49.3205  -32.7517   -2.7730 S   0  0  0  0  0  0  0  0  0  0  0  0
   50.0111  -34.7381   -2.9372 S   0  0  0  0  0  0  0  0  0  0  0  0
   52.1205  -34.7249   -2.9361 S   0  0  0  0  0  0  0  0  0  0  0  0
   52.8111  -36.7113   -3.1003 S   0  0  0  0  0  0  0  0  0  0  0  0
   54.9205  -36.6981   -3.0992 S   0  0  0  0  0  0  0  0  0  0  0  0
   55.6111  -38.6845   -3.2634 S   0  0  0  0  0  0  0  0  0  0  0  0
   57.7205  -38.6713   -3.2624 S   0  0  0  0  0  0  0  0  0  0  0  0
   58.4111  -40.6576   -3.4266 S   0  0  0  0  0  0  0  0  0  0  0  0
   60.5205  -40.6444   -3.4255 S   0  0  0  0  0  0  0  0  0  0  0  0
   61.2111  -42.6308   -3.5897 S   0  0  0  0  0  0  0  0  0  0  0  0
   63.3204  -42.6176   -3.5886 S   0  0  0  0  0  0  0  0  0  0  0  0
   64.0111  -44.6040   -3.7528 S   0  0  0  0  0  0  0  0  0  0  0  0
   66.1204  -44.5908   -3.7517 S   0  0  0  0  0  0  0  0  0  0  0  0
   66.8111  -46.5771   -3.9160 S   0  0  0  0  0  0  0  0  0  0  0  0
   68.9204  -46.5639   -3.9149 S   0  0  0  0  0  0  0  0  0  0  0  0
   69.6111  -48.5503   -4.0791 S   0  0  0  0  0  0  0  0  0  0  0  0
   71.7204  -48.5371   -4.0780 S   0  0  0  0  0  0  0  0  0  0  0  0
   72.4110  -50.5235   -4.2422 S   0  0  0  0  0  0  0  0  0  0  0  0
   74.5204  -50.5103   -4.2411 S   0  0  0  0  0  0  0  0  0  0  0  0
   75.2110  -52.4966   -4.4054 S   0  0  0  0  0  0  0  0  0  0  0  0
   77.3204  -52.4834   -4.4043 S   0  0  0  0  0  0  0  0  0  0  0  0
   78.0110  -54.4698   -4.5685 S   0  0  0  0  0  0  0  0  0  0  0  0
   80.1204  -54.4566   -4.5674 S   0  0  0  0  0  0  0  0  0  0  0  0
   80.8110  -56.4430   -4.7316 S   0  0  0  0  0  0  0  0  0  0  0  0
   82.9204  -56.4298   -4.7305 S   0  0  0  0  0  0  0  0  0  0  0  0
   83.6110  -58.4162   -4.8947 S   0  0  0  0  0  0  0  0  0  0  0  0
   85.7204  -58.4030   -4.8936 S   0  0  0  0  0  0  0  0  0  0  0  0
   86.4110  -60.3893   -5.0579 S   0  0  0  0  0  0  0  0  0  0  0  0
   88.5204  -60.3761   -5.0568 S   0  0  0  0  0  0  0  0  0  0  0  0
   89.2110  -62.3625   -5.2210 S   0  0  0  0  0  0  0  0  0  0  0  0
   91.3204  -62.3493   -5.2199 S   0  0  0  0  0  0  0  0  0  0  0  0
   92.0110  -64.3357   -5.3841 S   0  0  0  0  0  0  0  0  0  0  0  0
   94.1203  -64.3225   -5.3830 S   0  0  0  0  0  0  0  0  0  0  0  0
   94.8109  -66.3088   -5.5473 S   0  0  0  0  0  0  0  0  0  0  0  0
   96.9200  -66.2954   -5.5462 S   0  0  0  0  0  0  0  0  0  0  0  0
   97.6100  -68.2813   -5.7104 S   0  0  0  0  0  0  0  0  0  0  0  0
   99.7171  -68.2667   -5.7088 S   0  0  0  0  0  0  0  0  0  0  0  0
  100.4035  -70.2494   -5.8730 S   0  0  0  0  0  0  0  0  0  0  0  0
  102.4996  -70.2177   -5.8911 S   0  0  0  0  0  0  0  0  0  0  0  0
  103.1846  -72.1828   -5.9857 S   0  0  0  0  0  0  0  0  0  0  0  0
  105.2647  -72.1353   -6.0353 S   0  0  0  0  0  0  0  0  0  0  0  0
  105.8773  -71.3625   -4.2276 S   0  0  0  0  0  0  0  0  0  0  0  0
   32.4830   -6.3842   -7.6387 H   0  0  0  0  0  0  0  0  0  0  0  0
   33.5488   -9.7925   -6.1180 H   0  0  0  0  0  0  0  0  0  0  0  0
   32.0642  -10.1934   -7.0018 H   0  0  0  0  0  0  0  0  0  0  0  0
   30.7916  -10.2519   -4.8327 H   0  0  0  0  0  0  0  0  0  0  0  0
   32.2778   -9.8597   -3.9510 H   0  0  0  0  0  0  0  0  0  0  0  0
   33.3247  -11.9654   -4.7969 H   0  0  0  0  0  0  0  0  0  0  0  0
   31.8341  -12.3725   -5.6514 H   0  0  0  0  0  0  0  0  0  0  0  0
   30.6538  -12.3465   -3.5674 H   0  0  0  0  0  0  0  0  0  0  0  0
   33.0287  -13.9718   -3.4509 H   0  0  0  0  0  0  0  0  0  0  0  0
   30.4597  -14.3581   -2.2833 H   0  0  0  0  0  0  0  0  0  0  0  0
   32.8277  -15.8947   -2.2461 H   0  0  0  0  0  0  0  0  0  0  0  0
   31.6495  -15.8999   -0.2739 H   0  0  0  0  0  0  0  0  0  0  0  0
   29.5037  -16.7065   -1.8526 H   0  0  0  0  0  0  0  0  0  0  0  0
   29.5889  -17.8285    0.1027 H   0  0  0  0  0  0  0  0  0  0  0  0
   29.5984  -15.2332    1.2545 H   0  0  0  0  0  0  0  0  0  0  0  0
   30.6044  -18.6667    2.8459 H   0  0  0  0  0  0  0  0  0  0  0  0
   26.9858  -18.1721    4.2972 H   0  0  0  0  0  0  0  0  0  0  0  0
   24.4631  -20.2548    3.8938 H   0  0  0  0  0  0  0  0  0  0  0  0
   25.7377  -17.3401    1.5239 H   0  0  0  0  0  0  0  0  0  0  0  0
  107.2230  -71.3763   -4.3281 H   0  0  0  0  0  0  0  0  0  0  0  0
  1  2  1  0  0  0  0
  1 82  1  0  0  0  0
  2  3  1  0  0  0  0
  3  4  1  0  0  0  0
  3 83  1  0  0  0  0
  3 84  1  0  0  0  0
  4  5  1  0  0  0  0
  4 85  1  0  0  0  0
  4 86  1  0  0  0  0
  5  6  1  0  0  0  0
  5 87  1  0  0  0  0
  5 88  1  0  0  0  0
  6  7  1  0  0  0  0
  6 89  1  0  0  0  0
  7  8  1  0  0  0  0
  7 90  1  0  0  0  0
  8  9  1  0  0  0  0
  8 91  1  0  0  0  0
  9 10  1  0  0  0  0
  9 92  1  0  0  0  0
 10 11  1  0  0  0  0
 10 93  1  0  0  0  0
 11 12  1  0  0  0  0
 11 94  1  0  0  0  0
 12 13  1  0  0  0  0
 12 95  1  0  0  0  0
 13 14  1  0  0  0  0
 13 96  1  0  0  0  0
 14 15  1  0  0  0  0
 15 16  1  0  0  0  0
 15 97  1  0  0  0  0
 16 17  1  0  0  0  0
 17 18  1  0  0  0  0
 17 98  1  0  0  0  0
 18 19  1  0  0  0  0
 19 20  1  0  0  0  0
 19 99  1  0  0  0  0
 20 21  1  0  0  0  0
 21 22  1  0  0  0  0
 21100  1  0  0  0  0
 22 23  1  0  0  0  0
 23 24  1  0  0  0  0
 24 25  1  0  0  0  0
 25 26  1  0  0  0  0
 26 27  1  0  0  0  0
 27 28  1  0  0  0  0
 28 29  1  0  0  0  0
 29 30  1  0  0  0  0
 30 31  1  0  0  0  0
 31 32  1  0  0  0  0
 32 33  1  0  0  0  0
 33 34  1  0  0  0  0
 34 35  1  0  0  0  0
 35 36  1  0  0  0  0
 36 37  1  0  0  0  0
 37 38  1  0  0  0  0
 38 39  1  0  0  0  0
 39 40  1  0  0  0  0
 40 41  1  0  0  0  0
 41 42  1  0  0  0  0
 42 43  1  0  0  0  0
 43 44  1  0  0  0  0
 44 45  1  0  0  0  0
 45 46  1  0  0  0  0
 46 47  1  0  0  0  0
 47 48  1  0  0  0  0
 48 49  1  0  0  0  0
 49 50  1  0  0  0  0
 50 51  1  0  0  0  0
 51 52  1  0  0  0  0
 52 53  1  0  0  0  0
 53 54  1  0  0  0  0
 54 55  1  0  0  0  0
 55 56  1  0  0  0  0
 56 57  1  0  0  0  0
 57 58  1  0  0  0  0
 58 59  1  0  0  0  0
 59 60  1  0  0  0  0
 60 61  1  0  0  0  0
 61 62  1  0  0  0  0
 62 63  1  0  0  0  0
 63 64  1  0  0  0  0
 64 65  1  0  0  0  0
 65 66  1  0  0  0  0
 66 67  1  0  0  0  0
 67 68  1  0  0  0  0
 68 69  1  0  0  0  0
 69 70  1  0  0  0  0
 70 71  1  0  0  0  0
 71 72  1  0  0  0  0
 72 73  1  0  0  0  0
 73 74  1  0  0  0  0
 74 75  1  0  0  0  0
 75 76  1  0  0  0  0
 76 77  1  0  0  0  0
 77 78  1  0  0  0  0
 78 79  1  0  0  0  0
 79 80  1  0  0  0  0
 80 81  1  0  0  0  0
 81101  1  0  0  0  0
M  END
$$$$
