
 OpenBabel04232216423D

166165  0  0  0  0  0  0  0  0999 V2000
   21.1989    7.3205  -26.2417 C   0  0  0  0  0  0  0  0  0  0  0  0
   22.1001    6.3916  -25.9034 C   0  0  0  0  0  0  0  0  0  0  0  0
   22.3662    6.0206  -24.4732 C   0  0  0  0  0  0  0  0  0  0  0  0
   23.7665    6.2785  -24.1383 N   0  0  0  0  0  0  0  0  0  0  0  0
   23.9573    5.9400  -22.7761 N   0  0  0  0  0  0  0  0  0  0  0  0
   25.3058    6.1661  -22.4080 N   0  0  0  0  0  0  0  0  0  0  0  0
   25.5225    5.7808  -21.0731 N   0  0  0  0  0  0  0  0  0  0  0  0
   25.2586    4.4067  -20.8892 N   0  0  0  0  0  0  0  0  0  0  0  0
   26.0846    3.6284  -21.7462 N   0  0  0  0  0  0  0  0  0  0  0  0
   27.4733    3.8635  -21.4012 N   0  0  0  0  0  0  0  0  0  0  0  0
   27.7216    3.5038  -20.0171 N   0  0  0  0  0  0  0  0  0  0  0  0
   27.4205    2.1160  -19.7993 N   0  0  0  0  0  0  0  0  0  0  0  0
   28.2429    1.3153  -20.6443 N   0  0  0  0  0  0  0  0  0  0  0  0
   29.6033    1.5836  -20.3621 N   0  0  0  0  0  0  0  0  0  0  0  0
   29.8613    1.2420  -18.9955 N   0  0  0  0  0  0  0  0  0  0  0  0
   29.5620   -0.1611  -18.7548 N   0  0  0  0  0  0  0  0  0  0  0  0
   30.3528   -0.9630  -19.6343 N   0  0  0  0  0  0  0  0  0  0  0  0
   31.7401   -0.7081  -19.3417 N   0  0  0  0  0  0  0  0  0  0  0  0
   31.9912   -1.0003  -17.9668 N   0  0  0  0  0  0  0  0  0  0  0  0
   31.6739   -2.3694  -17.7222 N   0  0  0  0  0  0  0  0  0  0  0  0
   32.4866   -3.2215  -18.5567 N   0  0  0  0  0  0  0  0  0  0  0  0
   33.8818   -2.9901  -18.3068 N   0  0  0  0  0  0  0  0  0  0  0  0
   34.1824   -3.2895  -16.9321 N   0  0  0  0  0  0  0  0  0  0  0  0
   33.8314   -4.6491  -16.6577 N   0  0  0  0  0  0  0  0  0  0  0  0
   34.6132   -5.4986  -17.4990 N   0  0  0  0  0  0  0  0  0  0  0  0
   36.0024   -5.2728  -17.2705 N   0  0  0  0  0  0  0  0  0  0  0  0
   36.3274   -5.5595  -15.8986 N   0  0  0  0  0  0  0  0  0  0  0  0
   36.0147   -6.9404  -15.5864 N   0  0  0  0  0  0  0  0  0  0  0  0
   36.7519   -7.7790  -16.4793 N   0  0  0  0  0  0  0  0  0  0  0  0
   38.1354   -7.5078  -16.2635 N   0  0  0  0  0  0  0  0  0  0  0  0
   38.4598   -7.7956  -14.8856 N   0  0  0  0  0  0  0  0  0  0  0  0
   38.1284   -9.1624  -14.5446 N   0  0  0  0  0  0  0  0  0  0  0  0
   38.8770  -10.0593  -15.3843 N   0  0  0  0  0  0  0  0  0  0  0  0
   40.2799   -9.8285  -15.1973 N   0  0  0  0  0  0  0  0  0  0  0  0
   40.6102  -10.0573  -13.8299 N   0  0  0  0  0  0  0  0  0  0  0  0
   40.2880  -11.4026  -13.4800 N   0  0  0  0  0  0  0  0  0  0  0  0
   41.0152  -12.3160  -14.3239 N   0  0  0  0  0  0  0  0  0  0  0  0
   42.4281  -12.1053  -14.1516 N   0  0  0  0  0  0  0  0  0  0  0  0
   42.7350  -12.2847  -12.7705 N   0  0  0  0  0  0  0  0  0  0  0  0
   42.3938  -13.6263  -12.4268 N   0  0  0  0  0  0  0  0  0  0  0  0
   43.1155  -14.5627  -13.2611 N   0  0  0  0  0  0  0  0  0  0  0  0
   44.5359  -14.3971  -13.1008 N   0  0  0  0  0  0  0  0  0  0  0  0
   44.8747  -14.5967  -11.7347 N   0  0  0  0  0  0  0  0  0  0  0  0
   44.5457  -15.9329  -11.3519 N   0  0  0  0  0  0  0  0  0  0  0  0
   45.2479  -16.8722  -12.1899 N   0  0  0  0  0  0  0  0  0  0  0  0
   46.6787  -16.7074  -12.0441 N   0  0  0  0  0  0  0  0  0  0  0  0
   47.0061  -16.8546  -10.6724 N   0  0  0  0  0  0  0  0  0  0  0  0
   46.6347  -18.1793  -10.2891 N   0  0  0  0  0  0  0  0  0  0  0  0
   47.3246  -19.1372  -11.1365 N   0  0  0  0  0  0  0  0  0  0  0  0
   48.7600  -18.9906  -11.0224 N   0  0  0  0  0  0  0  0  0  0  0  0
   49.1423  -19.1768   -9.6580 N   0  0  0  0  0  0  0  0  0  0  0  0
   48.7800  -20.4917   -9.2421 N   0  0  0  0  0  0  0  0  0  0  0  0
   49.4414  -21.4686  -10.0637 N   0  0  0  0  0  0  0  0  0  0  0  0
   50.8467  -21.2668   -9.9998 N   0  0  0  0  0  0  0  0  0  0  0  0
   51.2467  -21.4509   -8.6311 N   0  0  0  0  0  0  0  0  0  0  0  0
   50.8795  -22.7925   -8.1925 N   0  0  0  0  0  0  0  0  0  0  0  0
   51.5043  -23.8021   -9.0197 N   0  0  0  0  0  0  0  0  0  0  0  0
   52.9169  -23.6435   -8.9331 N   0  0  0  0  0  0  0  0  0  0  0  0
   53.3249  -23.8019   -7.5731 N   0  0  0  0  0  0  0  0  0  0  0  0
   52.9258  -25.0968   -7.1135 N   0  0  0  0  0  0  0  0  0  0  0  0
   53.5329  -26.0906   -7.9428 N   0  0  0  0  0  0  0  0  0  0  0  0
   54.9643  -25.9413   -7.8848 N   0  0  0  0  0  0  0  0  0  0  0  0
   55.4303  -26.1272   -6.5175 N   0  0  0  0  0  0  0  0  0  0  0  0
   55.0286  -27.4128   -6.0316 N   0  0  0  0  0  0  0  0  0  0  0  0
   55.6261  -28.4127   -6.8609 N   0  0  0  0  0  0  0  0  0  0  0  0
   57.0650  -28.2833   -6.8023 N   0  0  0  0  0  0  0  0  0  0  0  0
   57.5084  -28.4076   -5.4485 N   0  0  0  0  0  0  0  0  0  0  0  0
   57.1175  -29.7011   -4.9477 N   0  0  0  0  0  0  0  0  0  0  0  0
   57.6914  -30.7249   -5.7838 N   0  0  0  0  0  0  0  0  0  0  0  0
   59.1157  -30.5837   -5.7672 N   0  0  0  0  0  0  0  0  0  0  0  0
   59.5717  -30.7196   -4.4061 N   0  0  0  0  0  0  0  0  0  0  0  0
   59.1770  -32.0081   -3.8860 N   0  0  0  0  0  0  0  0  0  0  0  0
   59.7468  -33.0585   -4.6952 N   0  0  0  0  0  0  0  0  0  0  0  0
   61.1652  -32.9453   -4.6887 N   0  0  0  0  0  0  0  0  0  0  0  0
   61.6495  -33.0550   -3.3512 N   0  0  0  0  0  0  0  0  0  0  0  0
   61.2832  -34.3293   -2.7999 N   0  0  0  0  0  0  0  0  0  0  0  0
   61.8227  -35.4026   -3.6110 N   0  0  0  0  0  0  0  0  0  0  0  0
   63.2739  -35.2474   -3.6109 C   0  0  0  0  0  0  0  0  0  0  0  0
   63.8779  -36.3418   -4.4673 C   0  0  0  0  0  0  0  0  0  0  0  0
   65.3880  -36.2296   -4.4620 C   0  0  0  0  0  0  0  0  0  0  0  0
   21.0311    7.5803  -27.2771 H   0  0  0  0  0  0  0  0  0  0  0  0
   20.6352    7.8391  -25.4748 H   0  0  0  0  0  0  0  0  0  0  0  0
   22.6533    5.8870  -26.6956 H   0  0  0  0  0  0  0  0  0  0  0  0
   22.1255    4.9583  -24.3376 H   0  0  0  0  0  0  0  0  0  0  0  0
   21.7066    6.5967  -23.8091 H   0  0  0  0  0  0  0  0  0  0  0  0
   23.9369    7.2822  -24.2680 H   0  0  0  0  0  0  0  0  0  0  0  0
   23.7408    4.9509  -22.6222 H   0  0  0  0  0  0  0  0  0  0  0  0
   25.5646    7.1381  -22.5027 H   0  0  0  0  0  0  0  0  0  0  0  0
   24.9491    6.3261  -20.4375 H   0  0  0  0  0  0  0  0  0  0  0  0
   24.2812    4.2005  -21.0692 H   0  0  0  0  0  0  0  0  0  0  0  0
   25.9350    3.8865  -22.7267 H   0  0  0  0  0  0  0  0  0  0  0  0
   27.6438    4.8680  -21.4952 H   0  0  0  0  0  0  0  0  0  0  0  0
   27.1017    4.0566  -19.4314 H   0  0  0  0  0  0  0  0  0  0  0  0
   26.4477    1.9587  -20.0393 H   0  0  0  0  0  0  0  0  0  0  0  0
   28.0713    1.5716  -21.6126 H   0  0  0  0  0  0  0  0  0  0  0  0
   29.8004    2.5822  -20.5324 H   0  0  0  0  0  0  0  0  0  0  0  0
   29.2487    1.7990  -18.3940 H   0  0  0  0  0  0  0  0  0  0  0  0
   28.5824   -0.2978  -18.9991 H   0  0  0  0  0  0  0  0  0  0  0  0
   30.1141   -0.6643  -20.5900 H   0  0  0  0  0  0  0  0  0  0  0  0
   31.9217    0.2839  -19.4712 H   0  0  0  0  0  0  0  0  0  0  0  0
   31.4100   -0.4316  -17.3609 H   0  0  0  0  0  0  0  0  0  0  0  0
   30.6723   -2.5195  -17.9125 H   0  0  0  0  0  0  0  0  0  0  0  0
   32.3096   -2.9894  -19.5362 H   0  0  0  0  0  0  0  0  0  0  0  0
   34.0945   -2.0124  -18.4648 H   0  0  0  0  0  0  0  0  0  0  0  0
   33.5835   -2.7068  -16.3606 H   0  0  0  0  0  0  0  0  0  0  0  0
   32.8403   -4.7536  -16.8971 H   0  0  0  0  0  0  0  0  0  0  0  0
   34.4106   -5.2630  -18.4699 H   0  0  0  0  0  0  0  0  0  0  0  0
   36.2177   -4.2930  -17.4582 H   0  0  0  0  0  0  0  0  0  0  0  0
   35.7444   -4.9309  -15.3338 H   0  0  0  0  0  0  0  0  0  0  0  0
   35.0287   -7.0492  -15.8059 H   0  0  0  0  0  0  0  0  0  0  0  0
   36.4926   -7.4944  -17.4307 H   0  0  0  0  0  0  0  0  0  0  0  0
   38.3157   -6.5166  -16.4343 H   0  0  0  0  0  0  0  0  0  0  0  0
   37.9140   -7.1888  -14.2766 H   0  0  0  0  0  0  0  0  0  0  0  0
   37.1132   -9.2719  -14.7019 H   0  0  0  0  0  0  0  0  0  0  0  0
   38.6760   -9.8460  -16.3537 H   0  0  0  0  0  0  0  0  0  0  0  0
   40.4656   -8.8503  -15.3942 H   0  0  0  0  0  0  0  0  0  0  0  0
   40.0334   -9.4209  -13.2732 H   0  0  0  0  0  0  0  0  0  0  0  0
   39.2929  -11.5478  -13.6375 H   0  0  0  0  0  0  0  0  0  0  0  0
   40.7285  -12.0972  -15.2905 H   0  0  0  0  0  0  0  0  0  0  0  0
   42.6125  -11.1293  -14.3543 H   0  0  0  0  0  0  0  0  0  0  0  0
   42.1555  -11.6272  -12.2327 H   0  0  0  0  0  0  0  0  0  0  0  0
   41.4016  -13.7894  -12.5867 H   0  0  0  0  0  0  0  0  0  0  0  0
   42.8510  -14.4045  -14.2391 H   0  0  0  0  0  0  0  0  0  0  0  0
   44.7739  -13.4376  -13.3292 H   0  0  0  0  0  0  0  0  0  0  0  0
   44.3444  -13.9333  -11.1608 H   0  0  0  0  0  0  0  0  0  0  0  0
   43.5423  -16.0785  -11.4897 H   0  0  0  0  0  0  0  0  0  0  0  0
   44.9576  -16.6971  -13.1614 H   0  0  0  0  0  0  0  0  0  0  0  0
   46.9021  -15.7486  -12.2999 H   0  0  0  0  0  0  0  0  0  0  0  0
   46.4762  -16.1813  -10.1155 H   0  0  0  0  0  0  0  0  0  0  0  0
   45.6380  -18.3220  -10.4319 H   0  0  0  0  0  0  0  0  0  0  0  0
   47.0203  -18.9485  -12.1055 H   0  0  0  0  0  0  0  0  0  0  0  0
   49.0010  -18.0363  -11.2823 H   0  0  0  0  0  0  0  0  0  0  0  0
   48.6171  -18.4903   -9.1016 H   0  0  0  0  0  0  0  0  0  0  0  0
   47.7729  -20.5974   -9.3583 H   0  0  0  0  0  0  0  0  0  0  0  0
   49.1445  -21.2875  -11.0213 H   0  0  0  0  0  0  0  0  0  0  0  0
   51.0352  -20.3036  -10.2973 H   0  0  0  0  0  0  0  0  0  0  0  0
   50.7148  -20.8043   -8.0543 H   0  0  0  0  0  0  0  0  0  0  0  0
   49.8660  -22.8733   -8.3083 H   0  0  0  0  0  0  0  0  0  0  0  0
   51.1668  -23.6126   -9.9782 H   0  0  0  0  0  0  0  0  0  0  0  0
   53.1637  -22.6975   -9.2138 H   0  0  0  0  0  0  0  0  0  0  0  0
   52.8432  -23.1057   -7.0024 H   0  0  0  0  0  0  0  0  0  0  0  0
   51.8984  -25.1223   -7.2169 H   0  0  0  0  0  0  0  0  0  0  0  0
   53.2695  -25.9080   -8.9030 H   0  0  0  0  0  0  0  0  0  0  0  0
   55.1862  -24.9910   -8.1650 H   0  0  0  0  0  0  0  0  0  0  0  0
   54.9413  -25.4065   -5.9761 H   0  0  0  0  0  0  0  0  0  0  0  0
   53.9958  -27.4375   -6.1011 H   0  0  0  0  0  0  0  0  0  0  0  0
   55.3188  -28.2611   -7.8307 H   0  0  0  0  0  0  0  0  0  0  0  0
   57.3045  -27.3376   -7.1063 H   0  0  0  0  0  0  0  0  0  0  0  0
   57.0311  -27.6995   -4.9033 H   0  0  0  0  0  0  0  0  0  0  0  0
   56.1081  -29.7478   -5.0503 H   0  0  0  0  0  0  0  0  0  0  0  0
   57.3266  -30.5438   -6.7375 H   0  0  0  0  0  0  0  0  0  0  0  0
   59.3548  -29.6442   -6.1321 H   0  0  0  0  0  0  0  0  0  0  0  0
   59.1370  -29.9780   -3.8359 H   0  0  0  0  0  0  0  0  0  0  0  0
   58.1682  -32.0945   -3.9547 H   0  0  0  0  0  0  0  0  0  0  0  0
   59.4238  -32.9017   -5.6472 H   0  0  0  0  0  0  0  0  0  0  0  0
   61.4069  -32.0168   -5.0436 H   0  0  0  0  0  0  0  0  0  0  0  0
   61.2289  -32.3083   -2.7945 H   0  0  0  0  0  0  0  0  0  0  0  0
   60.2632  -34.3740   -2.8544 H   0  0  0  0  0  0  0  0  0  0  0  0
   61.4754  -35.2133   -4.5585 H   0  0  0  0  0  0  0  0  0  0  0  0
   63.6512  -35.3257   -2.5855 H   0  0  0  0  0  0  0  0  0  0  0  0
   63.5971  -34.2778   -4.0172 H   0  0  0  0  0  0  0  0  0  0  0  0
   63.5118  -36.2596   -5.4973 H   0  0  0  0  0  0  0  0  0  0  0  0
   63.5835  -37.3207   -4.0756 H   0  0  0  0  0  0  0  0  0  0  0  0
   65.7016  -35.2616   -4.8657 H   0  0  0  0  0  0  0  0  0  0  0  0
   65.8269  -37.0211   -5.0737 H   0  0  0  0  0  0  0  0  0  0  0  0
   65.7733  -36.3220   -3.4418 H   0  0  0  0  0  0  0  0  0  0  0  0
  1  2  2  0  0  0  0
  1 81  1  0  0  0  0
  1 82  1  0  0  0  0
  2  3  1  0  0  0  0
  2 83  1  0  0  0  0
  3  4  1  0  0  0  0
  3 84  1  0  0  0  0
  3 85  1  0  0  0  0
  4  5  1  0  0  0  0
  4 86  1  0  0  0  0
  5  6  1  0  0  0  0
  5 87  1  0  0  0  0
  6  7  1  0  0  0  0
  6 88  1  0  0  0  0
  7  8  1  0  0  0  0
  7 89  1  0  0  0  0
  8  9  1  0  0  0  0
  8 90  1  0  0  0  0
  9 10  1  0  0  0  0
  9 91  1  0  0  0  0
 10 11  1  0  0  0  0
 10 92  1  0  0  0  0
 11 12  1  0  0  0  0
 11 93  1  0  0  0  0
 12 13  1  0  0  0  0
 12 94  1  0  0  0  0
 13 14  1  0  0  0  0
 13 95  1  0  0  0  0
 14 15  1  0  0  0  0
 14 96  1  0  0  0  0
 15 16  1  0  0  0  0
 15 97  1  0  0  0  0
 16 17  1  0  0  0  0
 16 98  1  0  0  0  0
 17 18  1  0  0  0  0
 17 99  1  0  0  0  0
 18 19  1  0  0  0  0
 18100  1  0  0  0  0
 19 20  1  0  0  0  0
 19101  1  0  0  0  0
 20 21  1  0  0  0  0
 20102  1  0  0  0  0
 21 22  1  0  0  0  0
 21103  1  0  0  0  0
 22 23  1  0  0  0  0
 22104  1  0  0  0  0
 23 24  1  0  0  0  0
 23105  1  0  0  0  0
 24 25  1  0  0  0  0
 24106  1  0  0  0  0
 25 26  1  0  0  0  0
 25107  1  0  0  0  0
 26 27  1  0  0  0  0
 26108  1  0  0  0  0
 27 28  1  0  0  0  0
 27109  1  0  0  0  0
 28 29  1  0  0  0  0
 28110  1  0  0  0  0
 29 30  1  0  0  0  0
 29111  1  0  0  0  0
 30 31  1  0  0  0  0
 30112  1  0  0  0  0
 31 32  1  0  0  0  0
 31113  1  0  0  0  0
 32 33  1  0  0  0  0
 32114  1  0  0  0  0
 33 34  1  0  0  0  0
 33115  1  0  0  0  0
 34 35  1  0  0  0  0
 34116  1  0  0  0  0
 35 36  1  0  0  0  0
 35117  1  0  0  0  0
 36 37  1  0  0  0  0
 36118  1  0  0  0  0
 37 38  1  0  0  0  0
 37119  1  0  0  0  0
 38 39  1  0  0  0  0
 38120  1  0  0  0  0
 39 40  1  0  0  0  0
 39121  1  0  0  0  0
 40 41  1  0  0  0  0
 40122  1  0  0  0  0
 41 42  1  0  0  0  0
 41123  1  0  0  0  0
 42 43  1  0  0  0  0
 42124  1  0  0  0  0
 43 44  1  0  0  0  0
 43125  1  0  0  0  0
 44 45  1  0  0  0  0
 44126  1  0  0  0  0
 45 46  1  0  0  0  0
 45127  1  0  0  0  0
 46 47  1  0  0  0  0
 46128  1  0  0  0  0
 47 48  1  0  0  0  0
 47129  1  0  0  0  0
 48 49  1  0  0  0  0
 48130  1  0  0  0  0
 49 50  1  0  0  0  0
 49131  1  0  0  0  0
 50 51  1  0  0  0  0
 50132  1  0  0  0  0
 51 52  1  0  0  0  0
 51133  1  0  0  0  0
 52 53  1  0  0  0  0
 52134  1  0  0  0  0
 53 54  1  0  0  0  0
 53135  1  0  0  0  0
 54 55  1  0  0  0  0
 54136  1  0  0  0  0
 55 56  1  0  0  0  0
 55137  1  0  0  0  0
 56 57  1  0  0  0  0
 56138  1  0  0  0  0
 57 58  1  0  0  0  0
 57139  1  0  0  0  0
 58 59  1  0  0  0  0
 58140  1  0  0  0  0
 59 60  1  0  0  0  0
 59141  1  0  0  0  0
 60 61  1  0  0  0  0
 60142  1  0  0  0  0
 61 62  1  0  0  0  0
 61143  1  0  0  0  0
 62 63  1  0  0  0  0
 62144  1  0  0  0  0
 63 64  1  0  0  0  0
 63145  1  0  0  0  0
 64 65  1  0  0  0  0
 64146  1  0  0  0  0
 65 66  1  0  0  0  0
 65147  1  0  0  0  0
 66 67  1  0  0  0  0
 66148  1  0  0  0  0
 67 68  1  0  0  0  0
 67149  1  0  0  0  0
 68 69  1  0  0  0  0
 68150  1  0  0  0  0
 69 70  1  0  0  0  0
 69151  1  0  0  0  0
 70 71  1  0  0  0  0
 70152  1  0  0  0  0
 71 72  1  0  0  0  0
 71153  1  0  0  0  0
 72 73  1  0  0  0  0
 72154  1  0  0  0  0
 73 74  1  0  0  0  0
 73155  1  0  0  0  0
 74 75  1  0  0  0  0
 74156  1  0  0  0  0
 75 76  1  0  0  0  0
 75157  1  0  0  0  0
 76 77  1  0  0  0  0
 76158  1  0  0  0  0
 77 78  1  0  0  0  0
 77159  1  0  0  0  0
 78 79  1  0  0  0  0
 78160  1  0  0  0  0
 78161  1  0  0  0  0
 79 80  1  0  0  0  0
 79162  1  0  0  0  0
 79163  1  0  0  0  0
 80164  1  0  0  0  0
 80165  1  0  0  0  0
 80166  1  0  0  0  0
M  END
$$$$
