
 OpenBabel04232216453D

 56 57  0  0  1  0  0  0  0  0999 V2000
    5.4476    2.8900   -1.4018 C   0  0  0  0  0  0  0  0  0  0  0  0
    6.7158    3.1105   -0.5477 C   0  0  0  0  0  0  0  0  0  0  0  0
    6.4382    2.3738    0.8459 C   0  0  0  0  0  0  0  0  0  0  0  0
    7.2125    1.4418    1.4985 C   0  0  0  0  0  0  0  0  0  0  0  0
    6.9190   -0.0038    1.1756 C   0  0  0  0  0  0  0  0  0  0  0  0
    7.5843    1.9000    2.9663 C   0  0  0  0  0  0  0  0  0  0  0  0
    6.1052    2.1651    3.5950 C   0  0  0  0  0  0  0  0  0  0  0  0
    8.8035    2.6282    3.4422 C   0  0  0  0  0  0  0  0  0  0  0  0
   10.6030    3.0932    2.8197 C   0  0  3  0  0  0  0  0  0  0  0  0
   11.9570    2.1740    2.6503 C   0  0  0  0  0  0  0  0  0  0  0  0
   13.3704    2.9191    2.9463 C   0  0  0  0  0  0  0  0  0  0  0  0
   14.6044    2.3951    2.1314 C   0  0  0  0  0  0  0  0  0  0  0  0
   15.9961    2.9574    2.5011 C   0  0  0  0  0  0  0  0  0  0  0  0
   16.3242    2.6078    3.7727 F   0  0  0  0  0  0  0  0  0  0  0  0
    8.1617    3.8031    4.1665 C   0  0  0  0  0  0  0  0  0  0  0  0
    7.4360    4.6679    3.4127 C   0  0  0  0  0  0  0  0  0  0  0  0
    8.3389    5.5468    2.7436 C   0  0  0  0  0  0  0  0  0  0  0  0
    8.5228    6.8386    3.5113 C   0  0  0  0  0  0  0  0  0  0  0  0
    9.1902    4.8841    1.9570 C   0  0  0  0  0  0  0  0  0  0  0  0
    9.1136    3.1604    1.1024 C   0  0  0  0  0  0  0  0  0  0  0  0
   10.0653    2.5185    0.1291 O   0  0  0  0  0  0  0  0  0  0  0  0
   10.5381    5.4080    2.0561 C   0  0  0  0  0  0  0  0  0  0  0  0
   10.9543    4.3507    1.4006 C   0  0  0  0  0  0  0  0  0  0  0  0
   10.2011    4.7839   -0.1921 C   0  0  0  0  0  0  0  0  0  0  0  0
    8.9710    4.6230   -0.9574 C   0  0  0  0  0  0  0  0  0  0  0  0
    9.0438    5.4590   -2.0412 F   0  0  0  0  0  0  0  0  0  0  0  0
    7.6806    3.9267   -1.0775 N   0  0  0  0  0  0  0  0  0  0  0  0
    4.6487    3.5271   -1.0259 H   0  0  0  0  0  0  0  0  0  0  0  0
    5.0925    1.8423   -1.2363 H   0  0  0  0  0  0  0  0  0  0  0  0
    5.6052    3.0082   -2.4571 H   0  0  0  0  0  0  0  0  0  0  0  0
    5.3836    2.0707    0.8214 H   0  0  0  0  0  0  0  0  0  0  0  0
    5.8448   -0.2250    1.2281 H   0  0  0  0  0  0  0  0  0  0  0  0
    7.4548   -0.7246    1.7961 H   0  0  0  0  0  0  0  0  0  0  0  0
    7.2147   -0.1914    0.1320 H   0  0  0  0  0  0  0  0  0  0  0  0
    5.4242    1.3172    3.4694 H   0  0  0  0  0  0  0  0  0  0  0  0
    5.5766    2.9741    3.0489 H   0  0  0  0  0  0  0  0  0  0  0  0
    6.0897    2.4845    4.6389 H   0  0  0  0  0  0  0  0  0  0  0  0
   10.8838    3.6446    3.7377 H   0  0  0  0  0  0  0  0  0  0  0  0
   11.9087    1.2572    3.2555 H   0  0  0  0  0  0  0  0  0  0  0  0
   12.0082    1.8652    1.6000 H   0  0  0  0  0  0  0  0  0  0  0  0
   13.6009    2.8232    4.0150 H   0  0  0  0  0  0  0  0  0  0  0  0
   13.2912    3.9950    2.7471 H   0  0  0  0  0  0  0  0  0  0  0  0
   14.4520    2.6230    1.0697 H   0  0  0  0  0  0  0  0  0  0  0  0
   14.6656    1.3079    2.2366 H   0  0  0  0  0  0  0  0  0  0  0  0
   16.0728    4.0461    2.4131 H   0  0  0  0  0  0  0  0  0  0  0  0
   16.7701    2.5288    1.8465 H   0  0  0  0  0  0  0  0  0  0  0  0
    8.6392    4.1589    5.0658 H   0  0  0  0  0  0  0  0  0  0  0  0
    6.8344    4.3757    2.5217 H   0  0  0  0  0  0  0  0  0  0  0  0
    7.5605    7.1812    3.9080 H   0  0  0  0  0  0  0  0  0  0  0  0
    8.9128    7.6489    2.8846 H   0  0  0  0  0  0  0  0  0  0  0  0
    9.2013    6.6955    4.3578 H   0  0  0  0  0  0  0  0  0  0  0  0
    8.2181    3.2613    0.7056 H   0  0  0  0  0  0  0  0  0  0  0  0
    9.2071    2.2363    1.6312 H   0  0  0  0  0  0  0  0  0  0  0  0
    9.5856    2.3795   -0.7021 H   0  0  0  0  0  0  0  0  0  0  0  0
   10.6544    6.4576    1.8228 H   0  0  0  0  0  0  0  0  0  0  0  0
   10.8836    5.5324   -0.6052 H   0  0  0  0  0  0  0  0  0  0  0  0
  1  2  1  0  0  0  0
  1 28  1  0  0  0  0
  1 29  1  0  0  0  0
  1 30  1  0  0  0  0
  2  3  1  0  0  0  0
  2 27  2  0  0  0  0
  3  4  2  0  0  0  0
  3 31  1  0  0  0  0
  4  5  1  0  0  0  0
  4  6  1  0  0  0  0
  5 32  1  0  0  0  0
  5 33  1  0  0  0  0
  5 34  1  0  0  0  0
  6  7  1  0  0  0  0
  6  8  2  0  0  0  0
  7 35  1  0  0  0  0
  7 36  1  0  0  0  0
  7 37  1  0  0  0  0
  8  9  1  0  0  0  0
  8 15  1  0  0  0  0
  9 10  1  0  0  0  0
  9 23  1  0  0  0  0
  9 38  1  0  0  0  0
 10 11  1  0  0  0  0
 10 39  1  0  0  0  0
 10 40  1  0  0  0  0
 11 12  1  0  0  0  0
 11 41  1  0  0  0  0
 11 42  1  0  0  0  0
 12 13  1  0  0  0  0
 12 43  1  0  0  0  0
 12 44  1  0  0  0  0
 13 14  1  0  0  0  0
 13 45  1  0  0  0  0
 13 46  1  0  0  0  0
 15 16  2  0  0  0  0
 15 47  1  0  0  0  0
 16 17  1  0  0  0  0
 16 48  1  0  0  0  0
 17 18  1  0  0  0  0
 17 19  2  0  0  0  0
 18 49  1  0  0  0  0
 18 50  1  0  0  0  0
 18 51  1  0  0  0  0
 19 20  1  0  0  0  0
 19 22  1  0  0  0  0
 20 21  1  0  0  0  0
 20 52  1  0  0  0  0
 20 53  1  0  0  0  0
 21 54  1  0  0  0  0
 22 23  2  0  0  0  0
 22 55  1  0  0  0  0
 23 24  1  0  0  0  0
 24 25  2  0  0  0  0
 24 56  1  0  0  0  0
 25 26  1  0  0  0  0
 25 27  1  0  0  0  0
M  END
$$$$
