
 OpenBabel04232216433D

 34 34  0  0  0  0  0  0  0  0999 V2000
   -0.0555    1.2798    1.0431 C   0  0  0  0  0  0  0  0  0  0  0  0
    0.5878    0.1220    1.5981 C   0  0  0  0  0  0  0  0  0  0  0  0
    0.7057   -1.1618    1.2593 C   0  0  0  0  0  0  0  0  0  0  0  0
    0.2608   -1.9582    0.1610 C   0  0  0  0  0  0  0  0  0  0  0  0
   -0.4281   -1.7087   -0.9484 C   0  0  0  0  0  0  0  0  0  0  0  0
   -1.0135   -0.5414   -1.5251 C   0  0  0  0  0  0  0  0  0  0  0  0
   -1.1458    0.7378   -1.1778 C   0  0  0  0  0  0  0  0  0  0  0  0
   -0.7812    1.5597   -0.0473 C   0  0  0  0  0  0  0  0  0  0  0  0
   -1.3156    2.9946   -0.1773 C   0  0  0  0  0  0  0  0  0  0  0  0
   -2.8464    3.1192   -0.2299 C   0  0  0  0  0  0  0  0  0  0  0  0
   -3.5649    2.5684    1.0039 C   0  0  0  0  0  0  0  0  0  0  0  0
   -5.0760    2.7239    0.8283 C   0  0  0  0  0  0  0  0  0  0  0  0
   -5.8541    2.1948    2.0292 C   0  0  0  0  0  0  0  0  0  0  0  0
   -7.3500    2.3664    1.8177 C   0  0  0  0  0  0  0  0  0  0  0  0
    0.1043    2.1216    1.7242 H   0  0  0  0  0  0  0  0  0  0  0  0
    1.0743    0.3713    2.5464 H   0  0  0  0  0  0  0  0  0  0  0  0
    1.2623   -1.7669    1.9792 H   0  0  0  0  0  0  0  0  0  0  0  0
    0.5765   -2.9994    0.2739 H   0  0  0  0  0  0  0  0  0  0  0  0
   -0.5797   -2.5823   -1.5916 H   0  0  0  0  0  0  0  0  0  0  0  0
   -1.4659   -0.7824   -2.4927 H   0  0  0  0  0  0  0  0  0  0  0  0
   -1.6656    1.3114   -1.9466 H   0  0  0  0  0  0  0  0  0  0  0  0
   -0.8967    3.4429   -1.0882 H   0  0  0  0  0  0  0  0  0  0  0  0
   -0.9562    3.6268    0.6454 H   0  0  0  0  0  0  0  0  0  0  0  0
   -3.2370    2.6210   -1.1251 H   0  0  0  0  0  0  0  0  0  0  0  0
   -3.0982    4.1811   -0.3455 H   0  0  0  0  0  0  0  0  0  0  0  0
   -3.2319    3.1060    1.8995 H   0  0  0  0  0  0  0  0  0  0  0  0
   -3.3248    1.5089    1.1498 H   0  0  0  0  0  0  0  0  0  0  0  0
   -5.3933    2.1866   -0.0741 H   0  0  0  0  0  0  0  0  0  0  0  0
   -5.3180    3.7824    0.6732 H   0  0  0  0  0  0  0  0  0  0  0  0
   -5.5512    2.7292    2.9364 H   0  0  0  0  0  0  0  0  0  0  0  0
   -5.6288    1.1335    2.1838 H   0  0  0  0  0  0  0  0  0  0  0  0
   -7.6068    3.4228    1.6834 H   0  0  0  0  0  0  0  0  0  0  0  0
   -7.9039    1.9877    2.6813 H   0  0  0  0  0  0  0  0  0  0  0  0
   -7.6847    1.8189    0.9298 H   0  0  0  0  0  0  0  0  0  0  0  0
  1  2  1  0  0  0  0
  1  8  2  0  0  0  0
  1 15  1  0  0  0  0
  2  3  2  0  0  0  0
  2 16  1  0  0  0  0
  3  4  1  0  0  0  0
  3 17  1  0  0  0  0
  4  5  2  0  0  0  0
  4 18  1  0  0  0  0
  5  6  1  0  0  0  0
  5 19  1  0  0  0  0
  6  7  2  0  0  0  0
  6 20  1  0  0  0  0
  7  8  1  0  0  0  0
  7 21  1  0  0  0  0
  8  9  1  0  0  0  0
  9 10  1  0  0  0  0
  9 22  1  0  0  0  0
  9 23  1  0  0  0  0
 10 11  1  0  0  0  0
 10 24  1  0  0  0  0
 10 25  1  0  0  0  0
 11 12  1  0  0  0  0
 11 26  1  0  0  0  0
 11 27  1  0  0  0  0
 12 13  1  0  0  0  0
 12 28  1  0  0  0  0
 12 29  1  0  0  0  0
 13 14  1  0  0  0  0
 13 30  1  0  0  0  0
 13 31  1  0  0  0  0
 14 32  1  0  0  0  0
 14 33  1  0  0  0  0
 14 34  1  0  0  0  0
M  END
$$$$
