
 OpenBabel04232216453D

 70 71  0  0  1  0  0  0  0  0999 V2000
    8.0732   -3.2303    0.2655 C   0  0  0  0  0  0  0  0  0  0  0  0
    9.3924   -2.4636   -0.8265 C   0  0  0  0  0  0  0  0  0  0  0  0
    8.2198   -1.0269   -1.0572 C   0  0  0  0  0  0  0  0  0  0  0  0
    6.9039   -0.5550   -1.6065 C   0  0  0  0  0  0  0  0  0  0  0  0
    6.0177    0.4494   -0.7478 C   0  0  0  0  0  0  0  0  0  0  0  0
    5.9264   -1.4423   -2.5275 C   0  0  0  0  0  0  0  0  0  0  0  0
    6.8589   -2.4810   -2.8345 C   0  0  0  0  0  0  0  0  0  0  0  0
    6.9015   -3.7739   -3.5778 C   0  0  0  0  0  0  0  0  0  0  0  0
    8.3103   -4.1283   -3.2159 C   0  0  0  0  0  0  0  0  0  0  0  0
    9.0618   -4.7813   -4.3283 C   0  0  0  0  0  0  0  0  0  0  0  0
   10.3135   -4.0579   -4.0981 C   0  0  0  0  0  0  0  0  0  0  0  0
   11.5078   -4.2371   -4.9342 C   0  0  0  0  0  0  0  0  0  0  0  0
   12.4478   -3.4755   -4.0039 C   0  0  0  0  0  0  0  0  0  0  0  0
   12.4492   -4.4502   -2.8141 C   0  0  0  0  0  0  0  0  0  0  0  0
   12.4158   -3.9307   -1.4757 C   0  0  3  0  0  0  0  0  0  0  0  0
   14.3708   -4.4451   -1.8314 C   0  0  0  0  0  0  0  0  0  0  0  0
   15.4273   -3.9608   -2.7210 C   0  0  0  0  0  0  0  0  0  0  0  0
   17.0391   -4.2886   -3.3094 C   0  0  0  0  0  0  0  0  0  0  0  0
   17.9606   -5.1809   -3.9341 C   0  0  0  0  0  0  0  0  0  0  0  0
   19.6471   -4.9841   -4.2606 C   0  0  0  0  0  0  0  0  0  0  0  0
   20.4547   -3.7313   -3.8701 C   0  0  0  0  0  0  0  0  0  0  0  0
   22.0067   -3.7196   -4.0229 C   0  0  0  0  0  0  0  0  0  0  0  0
   17.7882   -6.6544   -4.3515 C   0  0  0  0  0  0  0  0  0  0  0  0
   17.5102   -7.3914   -3.0704 C   0  0  0  0  0  0  0  0  0  0  0  0
   16.1330   -7.1944   -2.2762 C   0  0  0  0  0  0  0  0  0  0  0  0
   14.7835   -6.1741   -2.3522 C   0  0  0  0  0  0  0  0  0  0  0  0
   10.8812   -2.8024   -1.3057 N   0  0  0  0  0  0  0  0  0  0  0  0
    7.3904   -4.0267   -0.1006 H   0  0  0  0  0  0  0  0  0  0  0  0
    7.1417   -2.5466    0.2791 H   0  0  0  0  0  0  0  0  0  0  0  0
    8.1096   -3.0854    1.3881 H   0  0  0  0  0  0  0  0  0  0  0  0
    7.9008   -0.8706   -0.0121 H   0  0  0  0  0  0  0  0  0  0  0  0
    6.5684    1.2924   -0.3366 H   0  0  0  0  0  0  0  0  0  0  0  0
    5.1378    0.8891   -1.2809 H   0  0  0  0  0  0  0  0  0  0  0  0
    5.5689   -0.0892    0.0985 H   0  0  0  0  0  0  0  0  0  0  0  0
    5.5521   -0.9603   -3.4574 H   0  0  0  0  0  0  0  0  0  0  0  0
    5.0680   -1.8376   -1.9665 H   0  0  0  0  0  0  0  0  0  0  0  0
    7.0557   -2.8645   -1.8470 H   0  0  0  0  0  0  0  0  0  0  0  0
    7.6684   -1.8915   -3.2874 H   0  0  0  0  0  0  0  0  0  0  0  0
    6.7930   -3.6260   -4.6518 H   0  0  0  0  0  0  0  0  0  0  0  0
    6.2758   -4.5726   -3.1809 H   0  0  0  0  0  0  0  0  0  0  0  0
    8.4407   -4.6178   -2.2386 H   0  0  0  0  0  0  0  0  0  0  0  0
    8.8235   -3.1782   -2.9849 H   0  0  0  0  0  0  0  0  0  0  0  0
    8.7175   -4.5655   -5.3328 H   0  0  0  0  0  0  0  0  0  0  0  0
    9.1388   -5.8488   -4.1146 H   0  0  0  0  0  0  0  0  0  0  0  0
   10.4589   -4.3589   -3.0581 H   0  0  0  0  0  0  0  0  0  0  0  0
   10.2060   -2.9620   -4.0465 H   0  0  0  0  0  0  0  0  0  0  0  0
   11.3993   -3.8000   -5.9286 H   0  0  0  0  0  0  0  0  0  0  0  0
   11.8075   -5.2853   -5.0322 H   0  0  0  0  0  0  0  0  0  0  0  0
   12.1367   -2.4710   -3.6770 H   0  0  0  0  0  0  0  0  0  0  0  0
   13.3909   -3.3234   -4.5399 H   0  0  0  0  0  0  0  0  0  0  0  0
   13.2260   -5.0697   -3.3073 H   0  0  0  0  0  0  0  0  0  0  0  0
   11.8236   -5.3772   -2.8107 H   0  0  0  0  0  0  0  0  0  0  0  0
   12.9775   -3.0096   -1.0184 H   0  0  0  0  0  0  0  0  0  0  0  0
   15.0566   -3.3782   -3.5455 H   0  0  0  0  0  0  0  0  0  0  0  0
   17.5002   -3.3373   -3.2014 H   0  0  0  0  0  0  0  0  0  0  0  0
   19.8392   -5.1873   -5.3360 H   0  0  0  0  0  0  0  0  0  0  0  0
   20.1708   -5.8248   -3.7591 H   0  0  0  0  0  0  0  0  0  0  0  0
   20.2578   -3.5483   -2.8146 H   0  0  0  0  0  0  0  0  0  0  0  0
   20.0838   -2.9012   -4.4715 H   0  0  0  0  0  0  0  0  0  0  0  0
   22.5260   -4.4763   -3.4205 H   0  0  0  0  0  0  0  0  0  0  0  0
   22.3781   -2.7472   -3.6611 H   0  0  0  0  0  0  0  0  0  0  0  0
   22.3656   -3.8074   -5.0567 H   0  0  0  0  0  0  0  0  0  0  0  0
   18.7662   -7.0659   -4.7208 H   0  0  0  0  0  0  0  0  0  0  0  0
   17.1682   -6.8835   -5.2256 H   0  0  0  0  0  0  0  0  0  0  0  0
   18.3621   -7.1678   -2.4031 H   0  0  0  0  0  0  0  0  0  0  0  0
   17.6983   -8.4671   -3.2748 H   0  0  0  0  0  0  0  0  0  0  0  0
   16.4032   -7.3282   -1.2333 H   0  0  0  0  0  0  0  0  0  0  0  0
   15.6616   -8.1316   -2.6108 H   0  0  0  0  0  0  0  0  0  0  0  0
   13.9015   -6.7720   -2.1226 H   0  0  0  0  0  0  0  0  0  0  0  0
   14.7302   -6.0851   -3.4468 H   0  0  0  0  0  0  0  0  0  0  0  0
  1  2  1  0  0  0  0
  1 28  1  0  0  0  0
  1 29  1  0  0  0  0
  1 30  1  0  0  0  0
  2  3  1  0  0  0  0
  2 27  2  3  0  0  0
  3  4  2  3  0  0  0
  3 31  1  0  0  0  0
  4  5  1  0  0  0  0
  4  6  1  0  0  0  0
  5 32  1  0  0  0  0
  5 33  1  0  0  0  0
  5 34  1  0  0  0  0
  6  7  1  0  0  0  0
  6 35  1  0  0  0  0
  6 36  1  0  0  0  0
  7  8  1  0  0  0  0
  7 37  1  0  0  0  0
  7 38  1  0  0  0  0
  8  9  1  0  0  0  0
  8 39  1  0  0  0  0
  8 40  1  0  0  0  0
  9 10  1  0  0  0  0
  9 41  1  0  0  0  0
  9 42  1  0  0  0  0
 10 11  1  0  0  0  0
 10 43  1  0  0  0  0
 10 44  1  0  0  0  0
 11 12  1  0  0  0  0
 11 45  1  0  0  0  0
 11 46  1  0  0  0  0
 12 13  1  0  0  0  0
 12 47  1  0  0  0  0
 12 48  1  0  0  0  0
 13 14  1  0  0  0  0
 13 49  1  0  0  0  0
 13 50  1  0  0  0  0
 14 15  1  0  0  0  0
 14 51  1  0  0  0  0
 14 52  1  0  0  0  0
 15 16  1  0  0  0  0
 15 27  1  0  0  0  0
 15 53  1  0  0  0  0
 16 17  2  0  0  0  0
 16 26  1  0  0  0  0
 17 18  1  0  0  0  0
 17 54  1  0  0  0  0
 18 19  2  0  0  0  0
 18 55  1  0  0  0  0
 19 20  1  0  0  0  0
 19 23  1  0  0  0  0
 20 21  1  0  0  0  0
 20 56  1  0  0  0  0
 20 57  1  0  0  0  0
 21 22  1  0  0  0  0
 21 58  1  0  0  0  0
 21 59  1  0  0  0  0
 22 60  1  0  0  0  0
 22 61  1  0  0  0  0
 22 62  1  0  0  0  0
 23 24  1  0  0  0  0
 23 63  1  0  0  0  0
 23 64  1  0  0  0  0
 24 25  1  0  0  0  0
 24 65  1  0  0  0  0
 24 66  1  0  0  0  0
 25 26  1  0  0  0  0
 25 67  1  0  0  0  0
 25 68  1  0  0  0  0
 26 69  1  0  0  0  0
 26 70  1  0  0  0  0
M  END
$$$$
