
 OpenBabel04232216563D

 94 94  0  0  1  0  0  0  0  0999 V2000
    1.2061   -0.1778   -0.1617 C   0  0  0  0  0  0  0  0  0  0  0  0
    2.6271   -0.1481   -0.0252 N   0  0  0  0  0  0  0  0  0  0  0  0
    3.5318   -1.1607    0.1236 C   0  0  0  0  0  0  0  0  0  0  0  0
    4.6806   -0.6410    0.4540 C   0  0  0  0  0  0  0  0  0  0  0  0
    4.6880    0.7540    0.5603 O   0  0  0  0  0  0  0  0  0  0  0  0
    3.3916    1.0726   -0.0387 C   0  0  3  0  0  0  0  0  0  0  0  0
    3.5510    1.4277   -1.3918 O   0  0  0  0  0  0  0  0  0  0  0  0
    4.4337    2.5299   -1.3437 O   0  0  0  0  0  0  0  0  0  0  0  0
    4.6700    2.9216   -2.6622 O   0  0  0  0  0  0  0  0  0  0  0  0
    5.5233    4.0220   -2.6248 O   0  0  0  0  0  0  0  0  0  0  0  0
    5.7370    4.3943   -3.9439 O   0  0  0  0  0  0  0  0  0  0  0  0
    6.5818    5.4782   -3.8977 O   0  0  0  0  0  0  0  0  0  0  0  0
    6.7997    5.8534   -5.2060 O   0  0  0  0  0  0  0  0  0  0  0  0
    7.6407    6.9350   -5.1436 O   0  0  0  0  0  0  0  0  0  0  0  0
    7.8453    7.2949   -6.4491 O   0  0  0  0  0  0  0  0  0  0  0  0
    8.6821    8.3717   -6.3923 O   0  0  0  0  0  0  0  0  0  0  0  0
    8.8808    8.7235   -7.6964 O   0  0  0  0  0  0  0  0  0  0  0  0
    9.7164    9.7990   -7.6446 O   0  0  0  0  0  0  0  0  0  0  0  0
    9.9147   10.1499   -8.9427 O   0  0  0  0  0  0  0  0  0  0  0  0
   10.7517   11.2265   -8.8820 O   0  0  0  0  0  0  0  0  0  0  0  0
   10.9480   11.5752  -10.1844 O   0  0  0  0  0  0  0  0  0  0  0  0
   11.7837   12.6508  -10.1327 O   0  0  0  0  0  0  0  0  0  0  0  0
   11.9791   12.9982  -11.4336 O   0  0  0  0  0  0  0  0  0  0  0  0
   12.8155   14.0744  -11.3765 O   0  0  0  0  0  0  0  0  0  0  0  0
   13.0155   14.4278  -12.6780 O   0  0  0  0  0  0  0  0  0  0  0  0
   13.8513   15.5028  -12.6168 O   0  0  0  0  0  0  0  0  0  0  0  0
   14.0487   15.8529  -13.9203 O   0  0  0  0  0  0  0  0  0  0  0  0
   14.8847   16.9285  -13.8618 O   0  0  0  0  0  0  0  0  0  0  0  0
   15.0810   17.2773  -15.1653 O   0  0  0  0  0  0  0  0  0  0  0  0
   15.9173   18.3531  -15.1073 O   0  0  0  0  0  0  0  0  0  0  0  0
   16.1105   18.6981  -16.4125 O   0  0  0  0  0  0  0  0  0  0  0  0
   16.9494   19.7771  -16.3513 O   0  0  0  0  0  0  0  0  0  0  0  0
   17.1480   20.1287  -17.6530 O   0  0  0  0  0  0  0  0  0  0  0  0
   17.9838   21.2039  -17.5940 O   0  0  0  0  0  0  0  0  0  0  0  0
   18.1814   21.5543  -18.8965 O   0  0  0  0  0  0  0  0  0  0  0  0
   19.0172   22.6295  -18.8375 O   0  0  0  0  0  0  0  0  0  0  0  0
   19.2148   22.9798  -20.1400 O   0  0  0  0  0  0  0  0  0  0  0  0
   20.0506   24.0550  -20.0810 O   0  0  0  0  0  0  0  0  0  0  0  0
   20.2482   24.4054  -21.3835 O   0  0  0  0  0  0  0  0  0  0  0  0
   21.0840   25.4806  -21.3245 O   0  0  0  0  0  0  0  0  0  0  0  0
   21.2816   25.8309  -22.6270 O   0  0  0  0  0  0  0  0  0  0  0  0
   22.1174   26.9062  -22.5680 O   0  0  0  0  0  0  0  0  0  0  0  0
   22.3149   27.2565  -23.8705 O   0  0  0  0  0  0  0  0  0  0  0  0
   23.1508   28.3317  -23.8115 O   0  0  0  0  0  0  0  0  0  0  0  0
   23.3483   28.6820  -25.1140 O   0  0  0  0  0  0  0  0  0  0  0  0
   24.1841   29.7573  -25.0551 O   0  0  0  0  0  0  0  0  0  0  0  0
   24.3817   30.1076  -26.3575 O   0  0  0  0  0  0  0  0  0  0  0  0
   25.2175   31.1828  -26.2986 O   0  0  0  0  0  0  0  0  0  0  0  0
   25.4151   31.5331  -27.6010 O   0  0  0  0  0  0  0  0  0  0  0  0
   26.2509   32.6084  -27.5421 O   0  0  0  0  0  0  0  0  0  0  0  0
   26.4507   32.9614  -28.8432 O   0  0  0  0  0  0  0  0  0  0  0  0
   27.2935   34.0452  -28.7777 O   0  0  0  0  0  0  0  0  0  0  0  0
   27.4814   34.3836  -30.0875 O   0  0  0  0  0  0  0  0  0  0  0  0
   28.3180   35.4600  -30.0305 O   0  0  0  0  0  0  0  0  0  0  0  0
   28.5126   35.8066  -31.3345 O   0  0  0  0  0  0  0  0  0  0  0  0
   29.3488   36.8824  -31.2766 O   0  0  0  0  0  0  0  0  0  0  0  0
   29.5462   37.2326  -32.5798 O   0  0  0  0  0  0  0  0  0  0  0  0
   30.3821   38.3077  -32.5172 O   0  0  0  0  0  0  0  0  0  0  0  0
   30.5813   38.6601  -33.8204 O   0  0  0  0  0  0  0  0  0  0  0  0
   31.4188   39.7374  -33.7593 O   0  0  0  0  0  0  0  0  0  0  0  0
   31.6149   40.0858  -35.0611 O   0  0  0  0  0  0  0  0  0  0  0  0
   32.4514   41.1620  -35.0032 O   0  0  0  0  0  0  0  0  0  0  0  0
   32.6488   41.5120  -36.3055 O   0  0  0  0  0  0  0  0  0  0  0  0
   33.4848   42.5875  -36.2472 O   0  0  0  0  0  0  0  0  0  0  0  0
   33.6832   42.9391  -37.5520 O   0  0  0  0  0  0  0  0  0  0  0  0
   34.5225   44.0186  -37.4905 O   0  0  0  0  0  0  0  0  0  0  0  0
   34.7211   44.3705  -38.7950 O   0  0  0  0  0  0  0  0  0  0  0  0
   35.5620   45.4537  -38.7550 O   0  0  0  0  0  0  0  0  0  0  0  0
   35.7573   45.8011  -40.0576 O   0  0  0  0  0  0  0  0  0  0  0  0
   36.6005   46.8872  -40.0171 O   0  0  0  0  0  0  0  0  0  0  0  0
   36.8075   47.2503  -41.3278 O   0  0  0  0  0  0  0  0  0  0  0  0
   37.6530   48.3390  -41.2822 O   0  0  0  0  0  0  0  0  0  0  0  0
   37.8665   48.7108  -42.6008 O   0  0  0  0  0  0  0  0  0  0  0  0
   38.7160   49.8065  -42.5786 O   0  0  0  0  0  0  0  0  0  0  0  0
   38.9245   50.1768  -43.9149 O   0  0  0  0  0  0  0  0  0  0  0  0
   39.7764   51.2669  -43.7787 C   0  0  0  0  0  0  0  0  0  0  0  0
   40.0122   51.6778  -45.1915 C   0  0  0  0  0  0  0  0  0  0  0  0
   40.9335   52.8642  -45.1855 C   0  0  0  0  0  0  0  0  0  0  0  0
   41.1877   53.2994  -46.6046 C   0  0  0  0  0  0  0  0  0  0  0  0
    0.8474   -1.2120   -0.1015 H   0  0  0  0  0  0  0  0  0  0  0  0
    0.8585    0.2409   -1.1118 H   0  0  0  0  0  0  0  0  0  0  0  0
    0.7323    0.3784    0.6538 H   0  0  0  0  0  0  0  0  0  0  0  0
    3.2490   -2.2065   -0.0357 H   0  0  0  0  0  0  0  0  0  0  0  0
    5.6131   -1.1347    0.6886 H   0  0  0  0  0  0  0  0  0  0  0  0
    2.9336    1.9226    0.4861 H   0  0  0  0  0  0  0  0  0  0  0  0
   40.6953   50.9510  -43.2702 H   0  0  0  0  0  0  0  0  0  0  0  0
   39.2806   52.0463  -43.1876 H   0  0  0  0  0  0  0  0  0  0  0  0
   39.0492   51.9031  -45.6698 H   0  0  0  0  0  0  0  0  0  0  0  0
   40.4310   50.8304  -45.7513 H   0  0  0  0  0  0  0  0  0  0  0  0
   41.8739   52.5951  -44.6913 H   0  0  0  0  0  0  0  0  0  0  0  0
   40.4792   53.6779  -44.6090 H   0  0  0  0  0  0  0  0  0  0  0  0
   41.6477   52.4863  -47.1757 H   0  0  0  0  0  0  0  0  0  0  0  0
   41.8559   54.1604  -46.6099 H   0  0  0  0  0  0  0  0  0  0  0  0
   40.2470   53.5737  -47.0931 H   0  0  0  0  0  0  0  0  0  0  0  0
  1  2  1  0  0  0  0
  1 80  1  0  0  0  0
  1 81  1  0  0  0  0
  1 82  1  0  0  0  0
  2  3  1  0  0  0  0
  2  6  1  0  0  0  0
  3  4  2  0  0  0  0
  3 83  1  0  0  0  0
  4  5  1  0  0  0  0
  4 84  1  0  0  0  0
  5  6  1  0  0  0  0
  6  7  1  0  0  0  0
  6 85  1  0  0  0  0
  7  8  1  0  0  0  0
  8  9  1  0  0  0  0
  9 10  1  0  0  0  0
 10 11  1  0  0  0  0
 11 12  1  0  0  0  0
 12 13  1  0  0  0  0
 13 14  1  0  0  0  0
 14 15  1  0  0  0  0
 15 16  1  0  0  0  0
 16 17  1  0  0  0  0
 17 18  1  0  0  0  0
 18 19  1  0  0  0  0
 19 20  1  0  0  0  0
 20 21  1  0  0  0  0
 21 22  1  0  0  0  0
 22 23  1  0  0  0  0
 23 24  1  0  0  0  0
 24 25  1  0  0  0  0
 25 26  1  0  0  0  0
 26 27  1  0  0  0  0
 27 28  1  0  0  0  0
 28 29  1  0  0  0  0
 29 30  1  0  0  0  0
 30 31  1  0  0  0  0
 31 32  1  0  0  0  0
 32 33  1  0  0  0  0
 33 34  1  0  0  0  0
 34 35  1  0  0  0  0
 35 36  1  0  0  0  0
 36 37  1  0  0  0  0
 37 38  1  0  0  0  0
 38 39  1  0  0  0  0
 39 40  1  0  0  0  0
 40 41  1  0  0  0  0
 41 42  1  0  0  0  0
 42 43  1  0  0  0  0
 43 44  1  0  0  0  0
 44 45  1  0  0  0  0
 45 46  1  0  0  0  0
 46 47  1  0  0  0  0
 47 48  1  0  0  0  0
 48 49  1  0  0  0  0
 49 50  1  0  0  0  0
 50 51  1  0  0  0  0
 51 52  1  0  0  0  0
 52 53  1  0  0  0  0
 53 54  1  0  0  0  0
 54 55  1  0  0  0  0
 55 56  1  0  0  0  0
 56 57  1  0  0  0  0
 57 58  1  0  0  0  0
 58 59  1  0  0  0  0
 59 60  1  0  0  0  0
 60 61  1  0  0  0  0
 61 62  1  0  0  0  0
 62 63  1  0  0  0  0
 63 64  1  0  0  0  0
 64 65  1  0  0  0  0
 65 66  1  0  0  0  0
 66 67  1  0  0  0  0
 67 68  1  0  0  0  0
 68 69  1  0  0  0  0
 69 70  1  0  0  0  0
 70 71  1  0  0  0  0
 71 72  1  0  0  0  0
 72 73  1  0  0  0  0
 73 74  1  0  0  0  0
 74 75  1  0  0  0  0
 75 76  1  0  0  0  0
 76 77  1  0  0  0  0
 76 86  1  0  0  0  0
 76 87  1  0  0  0  0
 77 78  1  0  0  0  0
 77 88  1  0  0  0  0
 77 89  1  0  0  0  0
 78 79  1  0  0  0  0
 78 90  1  0  0  0  0
 78 91  1  0  0  0  0
 79 92  1  0  0  0  0
 79 93  1  0  0  0  0
 79 94  1  0  0  0  0
M  END
$$$$
