
 OpenBabel04232216443D

 60 62  0  0  0  0  0  0  0  0999 V2000
    4.0109    0.2273   -4.5779 C   0  0  0  0  0  0  0  0  0  0  0  0
    3.1797    0.0821   -3.3027 C   0  0  0  0  0  0  0  0  0  0  0  0
    3.3300    1.1838   -2.2379 C   0  0  0  0  0  0  0  0  0  0  0  0
    3.6457    2.4999   -2.6047 C   0  0  0  0  0  0  0  0  0  0  0  0
    3.5904    3.2982   -3.9153 C   0  0  0  0  0  0  0  0  0  0  0  0
    4.6730    4.4130   -4.1515 C   0  0  0  0  0  0  0  0  0  0  0  0
    6.0807    3.9540   -4.5611 C   0  0  0  0  0  0  0  0  0  0  0  0
    6.9811    3.3866   -3.4502 C   0  0  0  0  0  0  0  0  0  0  0  0
    7.8047    2.1833   -3.9298 C   0  0  0  0  0  0  0  0  0  0  0  0
    8.4974    1.4248   -2.7783 C   0  0  0  0  0  0  0  0  0  0  0  0
    8.0702   -0.0521   -2.6224 C   0  0  0  0  0  0  0  0  0  0  0  0
    7.2265   -0.3171   -1.3565 C   0  0  0  0  0  0  0  0  0  0  0  0
    5.8281    0.2398   -1.5324 C   0  0  0  0  0  0  0  0  0  0  0  0
    4.9854    0.5567   -0.2667 C   0  0  0  0  0  0  0  0  0  0  0  0
    4.2561    3.3305   -1.5816 C   0  0  0  0  0  0  0  0  0  0  0  0
    3.6430    4.3254   -0.9361 C   0  0  0  0  0  0  0  0  0  0  0  0
    3.6762    4.1750    0.5013 C   0  0  0  0  0  0  0  0  0  0  0  0
    3.1369    3.0541    1.0201 C   0  0  0  0  0  0  0  0  0  0  0  0
    2.6509    1.9370    0.2133 C   0  0  0  0  0  3  0  0  0  0  0  0
    3.4317    0.8136   -0.5855 C   0  0  0  0  0  0  0  0  0  0  0  0
    2.7153   -0.4019    0.0750 C   0  0  0  0  0  0  0  0  0  0  0  0
    2.5962   -1.7294   -0.4352 C   0  0  0  0  0  0  0  0  0  0  0  0
    3.7040   -2.4543   -0.6282 C   0  0  0  0  0  0  0  0  0  0  0  0
    3.9314   -3.0248   -1.9291 C   0  0  0  0  0  0  0  0  0  0  0  0
    3.5248   -2.4038   -3.0644 C   0  0  0  0  0  0  0  0  0  0  0  0
    2.6773   -1.1741   -3.1468 C   0  0  0  0  0  0  0  0  0  0  0  0
    4.7536    1.0229   -4.5269 H   0  0  0  0  0  0  0  0  0  0  0  0
    3.3600    0.3842   -5.4448 H   0  0  0  0  0  0  0  0  0  0  0  0
    4.6075   -0.6728   -4.7760 H   0  0  0  0  0  0  0  0  0  0  0  0
    2.6279    3.8333   -3.8854 H   0  0  0  0  0  0  0  0  0  0  0  0
    3.5190    2.6835   -4.8128 H   0  0  0  0  0  0  0  0  0  0  0  0
    4.7504    5.0986   -3.2974 H   0  0  0  0  0  0  0  0  0  0  0  0
    4.2936    5.0511   -4.9632 H   0  0  0  0  0  0  0  0  0  0  0  0
    6.6046    4.8344   -4.9639 H   0  0  0  0  0  0  0  0  0  0  0  0
    5.9852    3.2518   -5.3943 H   0  0  0  0  0  0  0  0  0  0  0  0
    6.4079    3.0731   -2.5950 H   0  0  0  0  0  0  0  0  0  0  0  0
    7.6478    4.1696   -3.0734 H   0  0  0  0  0  0  0  0  0  0  0  0
    8.5697    2.5565   -4.6212 H   0  0  0  0  0  0  0  0  0  0  0  0
    7.1640    1.5051   -4.5041 H   0  0  0  0  0  0  0  0  0  0  0  0
    8.3790    1.9575   -1.8257 H   0  0  0  0  0  0  0  0  0  0  0  0
    9.5730    1.4288   -2.9922 H   0  0  0  0  0  0  0  0  0  0  0  0
    8.9754   -0.6657   -2.5458 H   0  0  0  0  0  0  0  0  0  0  0  0
    7.5396   -0.4095   -3.5155 H   0  0  0  0  0  0  0  0  0  0  0  0
    7.7175    0.1004   -0.4706 H   0  0  0  0  0  0  0  0  0  0  0  0
    7.1421   -1.4022   -1.2150 H   0  0  0  0  0  0  0  0  0  0  0  0
    5.3181   -0.4972   -2.1481 H   0  0  0  0  0  0  0  0  0  0  0  0
    5.9052    1.1365   -2.1372 H   0  0  0  0  0  0  0  0  0  0  0  0
    5.4264    1.4020    0.2697 H   0  0  0  0  0  0  0  0  0  0  0  0
    5.1118   -0.2787    0.4283 H   0  0  0  0  0  0  0  0  0  0  0  0
    5.0897    2.8729   -1.0652 H   0  0  0  0  0  0  0  0  0  0  0  0
    2.7838    4.8468   -1.3363 H   0  0  0  0  0  0  0  0  0  0  0  0
    4.0223    5.0027    1.1089 H   0  0  0  0  0  0  0  0  0  0  0  0
    2.8821    3.0502    2.0746 H   0  0  0  0  0  0  0  0  0  0  0  0
    1.5623    1.8910    0.1305 H   0  0  0  0  0  0  0  0  0  0  0  0
    2.6284   -0.3558    1.1607 H   0  0  0  0  0  0  0  0  0  0  0  0
    1.7011   -1.8762   -1.0368 H   0  0  0  0  0  0  0  0  0  0  0  0
    4.5943   -2.3430   -0.0171 H   0  0  0  0  0  0  0  0  0  0  0  0
    4.5412   -3.9206   -1.9679 H   0  0  0  0  0  0  0  0  0  0  0  0
    3.7912   -2.8884   -4.0077 H   0  0  0  0  0  0  0  0  0  0  0  0
    2.0617   -1.4729   -4.0107 H   0  0  0  0  0  0  0  0  0  0  0  0
  1  2  1  0  0  0  0
  1 27  1  0  0  0  0
  1 28  1  0  0  0  0
  1 29  1  0  0  0  0
  2  3  1  0  0  0  0
  2 26  2  3  0  0  0
  3  4  2  0  0  0  0
  3 20  1  0  0  0  0
  4  5  1  0  0  0  0
  4 15  1  0  0  0  0
  5  6  1  0  0  0  0
  5 30  1  0  0  0  0
  5 31  1  0  0  0  0
  6  7  1  0  0  0  0
  6 32  1  0  0  0  0
  6 33  1  0  0  0  0
  7  8  1  0  0  0  0
  7 34  1  0  0  0  0
  7 35  1  0  0  0  0
  8  9  1  0  0  0  0
  8 36  1  0  0  0  0
  8 37  1  0  0  0  0
  9 10  1  0  0  0  0
  9 38  1  0  0  0  0
  9 39  1  0  0  0  0
 10 11  1  0  0  0  0
 10 40  1  0  0  0  0
 10 41  1  0  0  0  0
 11 12  1  0  0  0  0
 11 42  1  0  0  0  0
 11 43  1  0  0  0  0
 12 13  1  0  0  0  0
 12 44  1  0  0  0  0
 12 45  1  0  0  0  0
 13 14  1  0  0  0  0
 13 46  1  0  0  0  0
 13 47  1  0  0  0  0
 14 20  1  0  0  0  0
 14 48  1  0  0  0  0
 14 49  1  0  0  0  0
 15 16  2  0  0  0  0
 15 50  1  0  0  0  0
 16 17  1  0  0  0  0
 16 51  1  0  0  0  0
 17 18  2  0  0  0  0
 17 52  1  0  0  0  0
 18 19  1  0  0  0  0
 18 53  1  0  0  0  0
 19 20  1  0  0  0  0
 19 54  1  0  0  0  0
 20 21  2  0  0  0  0
 21 22  1  0  0  0  0
 21 55  1  0  0  0  0
 22 23  2  3  0  0  0
 22 56  1  0  0  0  0
 23 24  1  0  0  0  0
 23 57  1  0  0  0  0
 24 25  2  3  0  0  0
 24 58  1  0  0  0  0
 25 26  1  0  0  0  0
 25 59  1  0  0  0  0
 26 60  1  0  0  0  0
M  END
$$$$
