
 OpenBabel04232216473D

 47 48  0  0  1  0  0  0  0  0999 V2000
    1.4392    1.1391   -0.0715 C   0  0  0  0  0  0  0  0  0  0  0  0
    2.8665    1.5150   -0.4171 C   0  0  0  0  0  0  0  0  0  0  0  0
    3.6341    0.5556   -0.9575 C   0  0  0  0  0  0  0  0  0  0  0  0
    5.0337    0.6420   -1.2645 C   0  0  0  0  0  0  0  0  0  0  0  0
    5.6414    1.3088   -2.2690 C   0  0  0  0  0  0  0  0  0  0  0  0
    7.1886    1.2709   -2.2520 C   0  0  3  0  0  0  0  0  0  0  0  0
    7.8651    1.9217   -3.4596 C   0  0  0  0  0  0  0  0  0  0  0  0
    4.9402    2.0223   -3.4439 C   0  0  0  0  0  0  0  0  0  0  0  0
    3.4019    1.9434   -3.6271 C   0  0  0  0  0  0  0  0  0  0  0  0
    2.7394    3.0918   -4.2239 N   0  0  0  0  0  0  0  0  0  0  0  0
    2.3913    4.1398   -3.3944 C   0  0  0  0  0  0  0  0  0  0  0  0
    1.2857    4.6611   -3.4120 O   0  0  0  0  0  0  0  0  0  0  0  0
    3.5564    4.7911   -2.7886 C   0  0  0  0  0  0  0  0  0  0  0  0
    4.1809    4.6936   -1.6003 C   0  0  0  0  0  0  0  0  0  0  0  0
    5.4145    5.6167   -1.5214 C   0  0  0  0  0  0  0  0  0  0  0  0
    6.6643    5.3142   -0.6902 C   0  0  0  0  0  0  0  0  0  0  0  0
    7.5071    6.1966   -0.5007 O   0  0  0  0  0  0  0  0  0  0  0  0
    6.8960    3.9261   -0.1554 C   0  0  0  0  0  0  0  0  0  0  0  0
    8.1224    3.2394   -0.7283 C   0  0  0  0  0  0  0  0  0  0  0  0
    7.8627    1.7325   -0.9132 C   0  0  0  0  0  0  0  0  0  0  0  0
    3.7483    4.0164   -0.3751 C   0  0  0  0  0  0  0  0  0  0  0  0
    3.2669    2.8343    0.0736 C   0  0  0  0  0  0  0  0  0  0  0  0
    0.7350    1.6037   -0.7625 H   0  0  0  0  0  0  0  0  0  0  0  0
    1.1827    1.4433    0.9557 H   0  0  0  0  0  0  0  0  0  0  0  0
    1.2787    0.0582   -0.1152 H   0  0  0  0  0  0  0  0  0  0  0  0
    3.2150   -0.4295   -1.1639 H   0  0  0  0  0  0  0  0  0  0  0  0
    5.6351    0.0466   -0.5739 H   0  0  0  0  0  0  0  0  0  0  0  0
    7.4337    0.1996   -2.3308 H   0  0  0  0  0  0  0  0  0  0  0  0
    7.5852    2.9740   -3.5688 H   0  0  0  0  0  0  0  0  0  0  0  0
    7.5954    1.4014   -4.3839 H   0  0  0  0  0  0  0  0  0  0  0  0
    8.9547    1.8679   -3.3649 H   0  0  0  0  0  0  0  0  0  0  0  0
    5.3481    1.6004   -4.3698 H   0  0  0  0  0  0  0  0  0  0  0  0
    5.2757    3.0591   -3.4368 H   0  0  0  0  0  0  0  0  0  0  0  0
    2.8584    1.8355   -2.7063 H   0  0  0  0  0  0  0  0  0  0  0  0
    3.1464    1.0696   -4.2346 H   0  0  0  0  0  0  0  0  0  0  0  0
    1.9223    2.8380   -4.7664 H   0  0  0  0  0  0  0  0  0  0  0  0
    3.9671    5.4705   -3.5377 H   0  0  0  0  0  0  0  0  0  0  0  0
    5.0672    6.6118   -1.2087 H   0  0  0  0  0  0  0  0  0  0  0  0
    5.8297    5.7341   -2.5370 H   0  0  0  0  0  0  0  0  0  0  0  0
    6.0318    3.3109   -0.3617 H   0  0  0  0  0  0  0  0  0  0  0  0
    6.9664    4.0073    0.9356 H   0  0  0  0  0  0  0  0  0  0  0  0
    8.9377    3.3589   -0.0118 H   0  0  0  0  0  0  0  0  0  0  0  0
    8.4729    3.7078   -1.6531 H   0  0  0  0  0  0  0  0  0  0  0  0
    7.2999    1.3705   -0.0432 H   0  0  0  0  0  0  0  0  0  0  0  0
    8.8329    1.2232   -0.8466 H   0  0  0  0  0  0  0  0  0  0  0  0
    3.9188    4.7084    0.4602 H   0  0  0  0  0  0  0  0  0  0  0  0
    3.1308    2.8247    1.1568 H   0  0  0  0  0  0  0  0  0  0  0  0
  1  2  1  0  0  0  0
  1 23  1  0  0  0  0
  1 24  1  0  0  0  0
  1 25  1  0  0  0  0
  2  3  2  3  0  0  0
  2 22  1  0  0  0  0
  3  4  1  0  0  0  0
  3 26  1  0  0  0  0
  4  5  2  3  0  0  0
  4 27  1  0  0  0  0
  5  6  1  0  0  0  0
  5  8  1  0  0  0  0
  6  7  1  0  0  0  0
  6 20  1  0  0  0  0
  6 28  1  0  0  0  0
  7 29  1  0  0  0  0
  7 30  1  0  0  0  0
  7 31  1  0  0  0  0
  8  9  1  0  0  0  0
  8 32  1  0  0  0  0
  8 33  1  0  0  0  0
  9 10  1  0  0  0  0
  9 34  1  0  0  0  0
  9 35  1  0  0  0  0
 10 11  1  0  0  0  0
 10 36  1  0  0  0  0
 11 12  2  0  0  0  0
 11 13  1  0  0  0  0
 13 14  2  3  0  0  0
 13 37  1  0  0  0  0
 14 15  1  0  0  0  0
 14 21  1  0  0  0  0
 15 16  1  0  0  0  0
 15 38  1  0  0  0  0
 15 39  1  0  0  0  0
 16 17  2  0  0  0  0
 16 18  1  0  0  0  0
 18 19  1  0  0  0  0
 18 40  1  0  0  0  0
 18 41  1  0  0  0  0
 19 20  1  0  0  0  0
 19 42  1  0  0  0  0
 19 43  1  0  0  0  0
 20 44  1  0  0  0  0
 20 45  1  0  0  0  0
 21 22  2  3  0  0  0
 21 46  1  0  0  0  0
 22 47  1  0  0  0  0
M  END
$$$$
