
 OpenBabel04232216543D

 81 81  0  0  0  0  0  0  0  0999 V2000
    1.1184   -0.4698    0.3776 C   0  0  0  0  0  0  0  0  0  0  0  0
    2.5987   -0.2087    0.1580 C   0  0  0  0  0  0  0  0  0  0  0  0
    3.1187   -1.0685   -0.9778 C   0  0  0  0  0  0  0  0  0  0  0  0
    4.6114   -0.8351   -1.2150 C   0  0  0  0  0  0  0  0  0  0  0  0
    5.0833   -1.6646   -2.3126 N   0  0  0  0  0  0  0  0  0  0  0  0
    5.6514   -1.2649   -3.5008 C   0  0  0  0  0  0  0  0  0  0  0  0
    6.0792    0.3947   -3.8121 S   0  0  0  0  0  0  0  0  0  0  0  0
    5.9017    0.5663   -5.6121 C   0  0  0  0  0  0  0  0  0  0  0  0
    6.2359    2.0022   -6.0133 C   0  0  0  0  0  0  0  0  0  0  0  0
    6.1003    2.1953   -7.5230 C   0  0  0  0  0  0  0  0  0  0  0  0
    6.4385    3.6282   -7.9157 C   0  0  0  0  0  0  0  0  0  0  0  0
    6.3034    3.8135   -9.4203 C   0  0  0  0  0  0  0  0  0  0  0  0
    6.6435    5.2445   -9.8095 C   0  0  0  0  0  0  0  0  0  0  0  0
    6.5077    5.4264  -11.3130 C   0  0  0  0  0  0  0  0  0  0  0  0
    6.8477    6.8571  -11.7025 C   0  0  0  0  0  0  0  0  0  0  0  0
    6.7140    7.0476  -13.2066 C   0  0  0  0  0  0  0  0  0  0  0  0
    7.0518    8.4753  -13.5913 C   0  0  0  0  0  0  0  0  0  0  0  0
    5.7975   -2.3971   -4.2882 C   0  0  0  0  0  0  0  0  0  0  0  0
    5.2977   -3.4872   -3.5486 C   0  0  0  0  0  0  0  0  0  0  0  0
    5.1920   -4.7702   -3.9606 N   0  0  0  0  0  0  0  0  0  0  0  0
    6.1329   -5.3417   -4.8982 C   0  0  0  0  0  0  0  0  0  0  0  0
    5.8243   -6.8071   -5.1625 C   0  0  0  0  0  0  0  0  0  0  0  0
    6.8148   -7.3793   -6.1747 C   0  0  0  0  0  0  0  0  0  0  0  0
    6.5156   -8.8475   -6.4549 C   0  0  0  0  0  0  0  0  0  0  0  0
    7.4928   -9.4090   -7.4491 C   0  0  0  0  0  0  0  0  0  0  0  0
    8.2946  -10.4367   -7.1653 C   0  0  0  0  0  0  0  0  0  0  0  0
    9.2692  -11.0025   -8.1599 C   0  0  0  0  0  0  0  0  0  0  0  0
    8.9721  -12.4714   -8.4379 C   0  0  0  0  0  0  0  0  0  0  0  0
    9.9611  -13.0306   -9.4482 C   0  0  0  0  0  0  0  0  0  0  0  0
    9.6737  -14.3980   -9.7012 O   0  0  0  0  0  0  0  0  0  0  0  0
    4.8846   -3.0362   -2.3322 C   0  0  0  0  0  0  0  0  0  0  0  0
    0.7408    0.1488    1.1914 H   0  0  0  0  0  0  0  0  0  0  0  0
    0.9444   -1.5223    0.6316 H   0  0  0  0  0  0  0  0  0  0  0  0
    0.5477   -0.2418   -0.5291 H   0  0  0  0  0  0  0  0  0  0  0  0
    3.1506   -0.4329    1.0782 H   0  0  0  0  0  0  0  0  0  0  0  0
    2.7561    0.8509   -0.0730 H   0  0  0  0  0  0  0  0  0  0  0  0
    2.5640   -0.8605   -1.9016 H   0  0  0  0  0  0  0  0  0  0  0  0
    2.9332   -2.1209   -0.7348 H   0  0  0  0  0  0  0  0  0  0  0  0
    5.2047   -1.0996   -0.3307 H   0  0  0  0  0  0  0  0  0  0  0  0
    4.7939    0.2155   -1.4357 H   0  0  0  0  0  0  0  0  0  0  0  0
    4.8737    0.3267   -5.9055 H   0  0  0  0  0  0  0  0  0  0  0  0
    6.5788   -0.1264   -6.1225 H   0  0  0  0  0  0  0  0  0  0  0  0
    7.2623    2.2528   -5.7157 H   0  0  0  0  0  0  0  0  0  0  0  0
    5.5666    2.7078   -5.5049 H   0  0  0  0  0  0  0  0  0  0  0  0
    5.0764    1.9607   -7.8387 H   0  0  0  0  0  0  0  0  0  0  0  0
    6.7694    1.5035   -8.0494 H   0  0  0  0  0  0  0  0  0  0  0  0
    7.4626    3.8702   -7.6053 H   0  0  0  0  0  0  0  0  0  0  0  0
    5.7700    4.3267   -7.3971 H   0  0  0  0  0  0  0  0  0  0  0  0
    5.2795    3.5777   -9.7349 H   0  0  0  0  0  0  0  0  0  0  0  0
    6.9719    3.1189   -9.9435 H   0  0  0  0  0  0  0  0  0  0  0  0
    7.6676    5.4820   -9.4966 H   0  0  0  0  0  0  0  0  0  0  0  0
    5.9754    5.9409   -9.2882 H   0  0  0  0  0  0  0  0  0  0  0  0
    5.4833    5.1887  -11.6253 H   0  0  0  0  0  0  0  0  0  0  0  0
    7.1760    4.7297  -11.8338 H   0  0  0  0  0  0  0  0  0  0  0  0
    7.8714    7.0925  -11.3857 H   0  0  0  0  0  0  0  0  0  0  0  0
    6.1797    7.5511  -11.1773 H   0  0  0  0  0  0  0  0  0  0  0  0
    5.6911    6.8134  -13.5234 H   0  0  0  0  0  0  0  0  0  0  0  0
    7.3840    6.3568  -13.7316 H   0  0  0  0  0  0  0  0  0  0  0  0
    6.3777    9.1793  -13.0928 H   0  0  0  0  0  0  0  0  0  0  0  0
    6.9552    8.6098  -14.6713 H   0  0  0  0  0  0  0  0  0  0  0  0
    8.0787    8.7206  -13.3020 H   0  0  0  0  0  0  0  0  0  0  0  0
    6.1826   -2.4167   -5.2947 H   0  0  0  0  0  0  0  0  0  0  0  0
    4.5215   -5.4078   -3.5279 H   0  0  0  0  0  0  0  0  0  0  0  0
    7.1552   -5.2535   -4.5050 H   0  0  0  0  0  0  0  0  0  0  0  0
    6.0887   -4.7888   -5.8454 H   0  0  0  0  0  0  0  0  0  0  0  0
    4.7999   -6.9117   -5.5434 H   0  0  0  0  0  0  0  0  0  0  0  0
    5.8740   -7.3796   -4.2267 H   0  0  0  0  0  0  0  0  0  0  0  0
    7.8379   -7.2742   -5.7888 H   0  0  0  0  0  0  0  0  0  0  0  0
    6.7648   -6.8009   -7.1063 H   0  0  0  0  0  0  0  0  0  0  0  0
    5.5032   -8.9550   -6.8567 H   0  0  0  0  0  0  0  0  0  0  0  0
    6.5579   -9.4144   -5.5201 H   0  0  0  0  0  0  0  0  0  0  0  0
    7.5244   -8.9457   -8.4318 H   0  0  0  0  0  0  0  0  0  0  0  0
    8.2609  -10.8996   -6.1817 H   0  0  0  0  0  0  0  0  0  0  0  0
   10.2820  -10.8933   -7.7569 H   0  0  0  0  0  0  0  0  0  0  0  0
    9.2287  -10.4349   -9.0936 H   0  0  0  0  0  0  0  0  0  0  0  0
    7.9496  -12.5932   -8.8187 H   0  0  0  0  0  0  0  0  0  0  0  0
    9.0183  -13.0584   -7.5113 H   0  0  0  0  0  0  0  0  0  0  0  0
   10.9892  -12.9525   -9.0812 H   0  0  0  0  0  0  0  0  0  0  0  0
    9.8939  -12.4888  -10.3966 H   0  0  0  0  0  0  0  0  0  0  0  0
    9.7483  -14.8741   -8.8564 H   0  0  0  0  0  0  0  0  0  0  0  0
    4.4707   -3.5522   -1.4797 H   0  0  0  0  0  0  0  0  0  0  0  0
  1  2  1  0  0  0  0
  1 32  1  0  0  0  0
  1 33  1  0  0  0  0
  1 34  1  0  0  0  0
  2  3  1  0  0  0  0
  2 35  1  0  0  0  0
  2 36  1  0  0  0  0
  3  4  1  0  0  0  0
  3 37  1  0  0  0  0
  3 38  1  0  0  0  0
  4  5  1  0  0  0  0
  4 39  1  0  0  0  0
  4 40  1  0  0  0  0
  5  6  1  0  0  0  0
  5 31  1  0  0  0  0
  6  7  1  0  0  0  0
  6 18  2  0  0  0  0
  7  8  1  0  0  0  0
  8  9  1  0  0  0  0
  8 41  1  0  0  0  0
  8 42  1  0  0  0  0
  9 10  1  0  0  0  0
  9 43  1  0  0  0  0
  9 44  1  0  0  0  0
 10 11  1  0  0  0  0
 10 45  1  0  0  0  0
 10 46  1  0  0  0  0
 11 12  1  0  0  0  0
 11 47  1  0  0  0  0
 11 48  1  0  0  0  0
 12 13  1  0  0  0  0
 12 49  1  0  0  0  0
 12 50  1  0  0  0  0
 13 14  1  0  0  0  0
 13 51  1  0  0  0  0
 13 52  1  0  0  0  0
 14 15  1  0  0  0  0
 14 53  1  0  0  0  0
 14 54  1  0  0  0  0
 15 16  1  0  0  0  0
 15 55  1  0  0  0  0
 15 56  1  0  0  0  0
 16 17  1  0  0  0  0
 16 57  1  0  0  0  0
 16 58  1  0  0  0  0
 17 59  1  0  0  0  0
 17 60  1  0  0  0  0
 17 61  1  0  0  0  0
 18 19  1  0  0  0  0
 18 62  1  0  0  0  0
 19 20  1  0  0  0  0
 19 31  2  0  0  0  0
 20 21  1  0  0  0  0
 20 63  1  0  0  0  0
 21 22  1  0  0  0  0
 21 64  1  0  0  0  0
 21 65  1  0  0  0  0
 22 23  1  0  0  0  0
 22 66  1  0  0  0  0
 22 67  1  0  0  0  0
 23 24  1  0  0  0  0
 23 68  1  0  0  0  0
 23 69  1  0  0  0  0
 24 25  1  0  0  0  0
 24 70  1  0  0  0  0
 24 71  1  0  0  0  0
 25 26  2  3  0  0  0
 25 72  1  0  0  0  0
 26 27  1  0  0  0  0
 26 73  1  0  0  0  0
 27 28  1  0  0  0  0
 27 74  1  0  0  0  0
 27 75  1  0  0  0  0
 28 29  1  0  0  0  0
 28 76  1  0  0  0  0
 28 77  1  0  0  0  0
 29 30  1  0  0  0  0
 29 78  1  0  0  0  0
 29 79  1  0  0  0  0
 30 80  1  0  0  0  0
 31 81  1  0  0  0  0
M  END
$$$$
