
 OpenBabel04232216443D

 56 57  0  0  1  0  0  0  0  0999 V2000
    4.0356   -4.1018   -1.6226 C   0  0  0  0  0  0  0  0  0  0  0  0
    4.7083   -3.6283   -2.9555 C   0  0  3  0  0  0  0  0  0  0  0  0
    4.3582   -1.9867   -2.9248 C   0  0  3  0  0  3  0  0  0  0  0  0
    3.0908   -1.3312   -3.5344 C   0  0  0  0  0  0  0  0  0  0  0  0
    1.7094   -1.4245   -2.8509 C   0  0  0  0  0  0  0  0  0  0  0  0
    4.8587   -1.0607   -1.7638 C   0  0  0  0  0  0  0  0  0  0  0  0
    6.1924   -1.6315   -1.5312 C   0  0  0  0  0  0  0  0  0  0  0  0
    7.4604   -0.9941   -1.0029 C   0  0  0  0  0  0  0  0  0  0  0  0
    8.3878   -2.0967   -1.4592 C   0  0  0  0  0  0  0  0  0  0  0  0
    9.9080   -2.0559   -1.5157 C   0  0  0  0  0  0  0  0  0  0  0  0
   10.1821   -3.2429   -2.4129 C   0  0  0  0  0  0  0  0  0  0  0  0
   10.7645   -3.6157   -3.7371 C   0  0  0  0  0  0  0  0  0  0  0  0
   11.7670   -3.1404   -4.2411 O   0  0  0  0  0  0  0  0  0  0  0  0
    9.9559   -4.8416   -4.2960 C   0  0  0  0  0  0  0  0  0  0  0  0
    8.5868   -4.5208   -4.2315 C   0  0  0  0  0  0  0  0  0  0  0  0
    7.1163   -5.0872   -3.8194 C   0  0  0  0  0  0  0  0  0  0  0  0
    7.0908   -6.6234   -4.1654 C   0  0  0  0  0  0  0  0  0  0  0  0
    8.3990   -7.3834   -4.5035 C   0  0  0  0  0  0  0  0  0  0  0  0
    8.8080   -7.4024   -5.6748 O   0  0  0  0  0  0  0  0  0  0  0  0
    9.1908   -8.1914   -3.4599 C   0  0  0  0  0  0  0  0  0  0  0  0
    9.8865   -7.4050   -2.3551 C   0  0  0  0  0  0  0  0  0  0  0  0
   11.1655   -6.7200   -2.8130 C   0  0  0  0  0  0  0  0  0  0  0  0
   11.0237   -5.9603   -4.1360 C   0  0  0  0  0  0  0  0  0  0  0  0
    5.9753   -4.5120   -3.4288 N   0  0  0  0  0  0  0  0  0  0  0  0
    3.1422   -3.4868   -1.4045 H   0  0  0  0  0  0  0  0  0  0  0  0
    4.6568   -3.9856   -0.7296 H   0  0  0  0  0  0  0  0  0  0  0  0
    3.6663   -5.1277   -1.6558 H   0  0  0  0  0  0  0  0  0  0  0  0
    3.9984   -3.9432   -3.7316 H   0  0  0  0  0  0  0  0  0  0  0  0
    2.9974   -1.6192   -4.5809 H   0  0  0  0  0  0  0  0  0  0  0  0
    3.2793   -0.2426   -3.5619 H   0  0  0  0  0  0  0  0  0  0  0  0
    1.4371   -2.4368   -2.5488 H   0  0  0  0  0  0  0  0  0  0  0  0
    0.9355   -1.0766   -3.5531 H   0  0  0  0  0  0  0  0  0  0  0  0
    1.6206   -0.7623   -1.9775 H   0  0  0  0  0  0  0  0  0  0  0  0
    4.2185   -1.1096   -0.8748 H   0  0  0  0  0  0  0  0  0  0  0  0
    4.9252   -0.0123   -2.0807 H   0  0  0  0  0  0  0  0  0  0  0  0
    6.4406   -1.8810   -2.5690 H   0  0  0  0  0  0  0  0  0  0  0  0
    6.0513   -2.5534   -0.9643 H   0  0  0  0  0  0  0  0  0  0  0  0
    7.4693   -0.8801    0.0792 H   0  0  0  0  0  0  0  0  0  0  0  0
    7.6923   -0.0554   -1.5112 H   0  0  0  0  0  0  0  0  0  0  0  0
    8.0973   -2.1577   -2.5168 H   0  0  0  0  0  0  0  0  0  0  0  0
    8.0713   -3.0665   -1.0307 H   0  0  0  0  0  0  0  0  0  0  0  0
   10.3071   -2.2302   -0.5166 H   0  0  0  0  0  0  0  0  0  0  0  0
   10.2758   -1.1261   -1.9422 H   0  0  0  0  0  0  0  0  0  0  0  0
    9.3874   -2.9403   -3.0741 H   0  0  0  0  0  0  0  0  0  0  0  0
    9.8765   -4.1650   -1.8939 H   0  0  0  0  0  0  0  0  0  0  0  0
    8.3662   -3.5500   -4.6864 H   0  0  0  0  0  0  0  0  0  0  0  0
    6.5640   -6.6461   -5.1350 H   0  0  0  0  0  0  0  0  0  0  0  0
    6.4858   -7.2171   -3.4839 H   0  0  0  0  0  0  0  0  0  0  0  0
    9.9698   -8.7586   -4.0002 H   0  0  0  0  0  0  0  0  0  0  0  0
    8.5314   -8.9494   -3.0314 H   0  0  0  0  0  0  0  0  0  0  0  0
   10.1700   -8.0964   -1.5479 H   0  0  0  0  0  0  0  0  0  0  0  0
    9.2130   -6.6646   -1.9214 H   0  0  0  0  0  0  0  0  0  0  0  0
   11.9649   -7.4733   -2.9270 H   0  0  0  0  0  0  0  0  0  0  0  0
   11.5388   -6.0578   -2.0181 H   0  0  0  0  0  0  0  0  0  0  0  0
   11.0198   -6.6549   -4.9826 H   0  0  0  0  0  0  0  0  0  0  0  0
   12.0289   -5.5126   -4.2643 H   0  0  0  0  0  0  0  0  0  0  0  0
  1  2  1  0  0  0  0
  1 25  1  0  0  0  0
  1 26  1  0  0  0  0
  1 27  1  0  0  0  0
  2  3  1  0  0  0  0
  2 24  1  0  0  0  0
  2 28  1  0  0  0  0
  3  4  1  0  0  0  0
  3  6  1  0  0  0  0
  4  5  1  0  0  0  0
  4 29  1  0  0  0  0
  4 30  1  0  0  0  0
  5 31  1  0  0  0  0
  5 32  1  0  0  0  0
  5 33  1  0  0  0  0
  6  7  1  0  0  0  0
  6 34  1  0  0  0  0
  6 35  1  0  0  0  0
  7  8  1  0  0  0  0
  7 36  1  0  0  0  0
  7 37  1  0  0  0  0
  8  9  1  0  0  0  0
  8 38  1  0  0  0  0
  8 39  1  0  0  0  0
  9 10  1  0  0  0  0
  9 40  1  0  0  0  0
  9 41  1  0  0  0  0
 10 11  1  0  0  0  0
 10 42  1  0  0  0  0
 10 43  1  0  0  0  0
 11 12  1  0  0  0  0
 11 44  1  0  0  0  0
 11 45  1  0  0  0  0
 12 13  2  0  0  0  0
 12 14  1  0  0  0  0
 14 15  2  3  0  0  0
 14 23  1  0  0  0  0
 15 16  1  0  0  0  0
 15 46  1  0  0  0  0
 16 17  1  0  0  0  0
 16 24  2  3  0  0  0
 17 18  1  0  0  0  0
 17 47  1  0  0  0  0
 17 48  1  0  0  0  0
 18 19  2  0  0  0  0
 18 20  1  0  0  0  0
 20 21  1  0  0  0  0
 20 49  1  0  0  0  0
 20 50  1  0  0  0  0
 21 22  1  0  0  0  0
 21 51  1  0  0  0  0
 21 52  1  0  0  0  0
 22 23  1  0  0  0  0
 22 53  1  0  0  0  0
 22 54  1  0  0  0  0
 23 55  1  0  0  0  0
 23 56  1  0  0  0  0
M  END
$$$$
