
 OpenBabel04232216493D

 57 58  0  0  1  0  0  0  0  0999 V2000
    0.7120   -0.5719    0.3759 C   0  0  0  0  0  0  0  0  0  0  0  0
    2.1899   -0.4264    0.0494 C   0  0  3  0  0  0  0  0  0  0  0  0
    2.6839    1.0383    0.2491 C   0  0  0  0  0  0  0  0  0  0  0  0
    1.6423    2.1774    0.2995 C   0  0  0  0  0  0  0  0  0  0  0  0
    0.9446    2.6921   -0.9869 C   0  0  0  0  0  0  0  0  0  0  0  0
    1.4105    2.2949   -2.4020 C   0  0  0  0  0  0  0  0  0  0  0  0
    1.3845    0.8024   -2.9934 C   0  0  3  0  0  0  0  0  0  0  0  0
    2.6080    0.8196   -3.9893 C   0  0  0  0  0  0  0  0  0  0  0  0
    0.7045   -0.7554   -2.9907 C   0  0  0  0  0  0  0  0  0  0  0  0
    1.6654   -1.5778   -2.4171 C   0  0  0  0  0  0  0  0  0  0  0  0
    1.9847   -2.9560   -2.9681 C   0  0  0  0  0  0  0  0  0  0  0  0
    2.1986   -3.1868   -4.1471 O   0  0  0  0  0  0  0  0  0  0  0  0
    1.9593   -3.8019   -1.9069 N   0  0  0  0  0  0  0  0  0  0  0  0
    0.8371   -4.4723   -1.8431 C   0  0  0  0  0  0  0  0  0  0  0  0
   -0.0056   -4.2199   -0.8121 N   0  0  0  0  0  0  0  0  0  0  0  0
   -1.2282   -3.4167   -0.9651 C   0  0  0  0  0  0  0  0  0  0  0  0
   -2.4433   -4.2196   -0.5137 C   0  0  0  0  0  0  0  0  0  0  0  0
   -3.4208   -4.4232   -1.6465 C   0  0  0  0  0  0  0  0  0  0  0  0
   -2.7441   -5.1071   -2.8257 C   0  0  0  0  0  0  0  0  0  0  0  0
   -2.2087   -4.2197   -4.0421 C   0  0  0  0  0  0  0  0  0  0  0  0
   -1.0002   -3.0634   -4.1791 C   0  0  0  0  0  0  0  0  0  0  0  0
   -0.6712   -1.3879   -3.8130 C   0  0  0  0  0  0  0  0  0  0  0  0
    2.6822   -1.1691   -1.2778 C   0  0  0  0  0  0  0  0  0  0  0  0
    0.4998   -0.2382    1.3984 H   0  0  0  0  0  0  0  0  0  0  0  0
    0.4346   -1.6156    0.3318 H   0  0  0  0  0  0  0  0  0  0  0  0
    0.0705    0.0033   -0.3013 H   0  0  0  0  0  0  0  0  0  0  0  0
    2.7062   -0.9887    0.8462 H   0  0  0  0  0  0  0  0  0  0  0  0
    3.5108    1.2939   -0.4283 H   0  0  0  0  0  0  0  0  0  0  0  0
    3.1531    1.0539    1.2500 H   0  0  0  0  0  0  0  0  0  0  0  0
    2.1698    3.0438    0.7380 H   0  0  0  0  0  0  0  0  0  0  0  0
    0.8788    1.9479    1.0559 H   0  0  0  0  0  0  0  0  0  0  0  0
    1.0980    3.7850   -0.9400 H   0  0  0  0  0  0  0  0  0  0  0  0
   -0.1380    2.5650   -0.9054 H   0  0  0  0  0  0  0  0  0  0  0  0
    2.4850    2.5730   -2.3469 H   0  0  0  0  0  0  0  0  0  0  0  0
    1.0175    3.0076   -3.1402 H   0  0  0  0  0  0  0  0  0  0  0  0
    1.8480    0.5935   -2.0514 H   0  0  0  0  0  0  0  0  0  0  0  0
    2.5337    1.6418   -4.7047 H   0  0  0  0  0  0  0  0  0  0  0  0
    2.7345   -0.1149   -4.5323 H   0  0  0  0  0  0  0  0  0  0  0  0
    3.5545    0.9896   -3.4357 H   0  0  0  0  0  0  0  0  0  0  0  0
    0.3662   -4.9610   -2.7266 H   0  0  0  0  0  0  0  0  0  0  0  0
    0.5765   -3.7090   -0.1263 H   0  0  0  0  0  0  0  0  0  0  0  0
   -1.3848   -3.0143   -1.9197 H   0  0  0  0  0  0  0  0  0  0  0  0
   -1.1892   -2.5101   -0.3476 H   0  0  0  0  0  0  0  0  0  0  0  0
   -2.9284   -3.7020    0.3107 H   0  0  0  0  0  0  0  0  0  0  0  0
   -2.0965   -5.1823   -0.1292 H   0  0  0  0  0  0  0  0  0  0  0  0
   -3.8946   -3.4921   -1.9575 H   0  0  0  0  0  0  0  0  0  0  0  0
   -4.2235   -5.0591   -1.2367 H   0  0  0  0  0  0  0  0  0  0  0  0
   -3.5044   -5.7999   -3.2245 H   0  0  0  0  0  0  0  0  0  0  0  0
   -1.9713   -5.7990   -2.4585 H   0  0  0  0  0  0  0  0  0  0  0  0
   -1.7281   -5.0640   -4.5875 H   0  0  0  0  0  0  0  0  0  0  0  0
   -3.0720   -4.0027   -4.6838 H   0  0  0  0  0  0  0  0  0  0  0  0
   -0.7720   -3.1363   -5.2540 H   0  0  0  0  0  0  0  0  0  0  0  0
   -0.1857   -3.5535   -3.7095 H   0  0  0  0  0  0  0  0  0  0  0  0
   -1.5577   -1.0100   -3.2835 H   0  0  0  0  0  0  0  0  0  0  0  0
   -0.6610   -0.9050   -4.8015 H   0  0  0  0  0  0  0  0  0  0  0  0
    3.5113   -0.6026   -1.7232 H   0  0  0  0  0  0  0  0  0  0  0  0
    3.1788   -2.0675   -0.9068 H   0  0  0  0  0  0  0  0  0  0  0  0
  1  2  1  0  0  0  0
  1 24  1  0  0  0  0
  1 25  1  0  0  0  0
  1 26  1  0  0  0  0
  2  3  1  0  0  0  0
  2 23  1  0  0  0  0
  2 27  1  0  0  0  0
  3  4  1  0  0  0  0
  3 28  1  0  0  0  0
  3 29  1  0  0  0  0
  4  5  1  0  0  0  0
  4 30  1  0  0  0  0
  4 31  1  0  0  0  0
  5  6  1  0  0  0  0
  5 32  1  0  0  0  0
  5 33  1  0  0  0  0
  6  7  1  0  0  0  0
  6 34  1  0  0  0  0
  6 35  1  0  0  0  0
  7  8  1  0  0  0  0
  7  9  1  0  0  0  0
  7 36  1  0  0  0  0
  8 37  1  0  0  0  0
  8 38  1  0  0  0  0
  8 39  1  0  0  0  0
  9 10  2  3  0  0  0
  9 22  1  0  0  0  0
 10 11  1  0  0  0  0
 10 23  1  0  0  0  0
 11 12  2  0  0  0  0
 11 13  1  0  0  0  0
 13 14  2  3  0  0  0
 14 15  1  0  0  0  0
 14 40  1  0  0  0  0
 15 16  1  0  0  0  0
 15 41  1  0  0  0  0
 16 17  1  0  0  0  0
 16 42  1  0  0  0  0
 16 43  1  0  0  0  0
 17 18  1  0  0  0  0
 17 44  1  0  0  0  0
 17 45  1  0  0  0  0
 18 19  1  0  0  0  0
 18 46  1  0  0  0  0
 18 47  1  0  0  0  0
 19 20  1  0  0  0  0
 19 48  1  0  0  0  0
 19 49  1  0  0  0  0
 20 21  1  0  0  0  0
 20 50  1  0  0  0  0
 20 51  1  0  0  0  0
 21 22  1  0  0  0  0
 21 52  1  0  0  0  0
 21 53  1  0  0  0  0
 22 54  1  0  0  0  0
 22 55  1  0  0  0  0
 23 56  1  0  0  0  0
 23 57  1  0  0  0  0
M  END
$$$$
