
 OpenBabel04232216423D

 63 64  0  0  0  0  0  0  0  0999 V2000
    5.2829    0.9884    2.6206 C   0  0  0  0  0  0  0  0  0  0  0  0
    4.4245    0.9135    1.2709 C   0  0  0  0  0  0  0  0  0  0  0  0
    3.3932   -0.1912    1.0142 C   0  0  0  0  0  0  0  0  0  0  0  0
    4.6782    1.5901    0.1212 C   0  0  0  0  0  0  0  0  0  0  0  0
    5.8590    1.0118   -0.5383 C   0  0  0  0  0  0  0  0  0  0  0  0
    5.4927   -0.2220   -1.3343 C   0  0  0  0  0  0  0  0  0  0  0  0
    7.1098    1.4233   -0.2131 C   0  0  0  0  0  0  0  0  0  0  0  0
    7.1096    2.7927    0.4574 C   0  0  0  0  0  0  0  0  0  0  0  0
    8.2707    0.4765   -0.4601 C   0  0  0  0  0  0  0  0  0  0  0  0
    7.8901   -0.9740   -0.0934 C   0  0  0  0  0  0  0  0  0  0  0  0
    9.6380    0.6536   -0.6854 C   0  0  0  0  0  0  0  0  0  0  0  0
   10.4007   -0.6919   -1.1741 C   0  0  0  0  0  0  0  0  0  0  0  0
   11.9510   -1.0389   -1.4499 C   0  0  0  0  0  0  0  0  0  0  0  0
   12.6921   -0.3144   -0.3790 C   0  0  0  0  0  0  0  0  0  0  0  0
   14.0980    0.0036    0.2171 C   0  0  0  0  0  0  0  0  0  0  0  0
   13.5792    1.0424    1.2565 C   0  0  0  0  0  0  0  0  0  0  0  0
   13.6495    1.8313    2.5861 C   0  0  0  0  0  0  0  0  0  0  0  0
   12.0671    2.1872    2.7974 C   0  0  0  0  0  0  0  0  0  0  0  0
   10.9316    2.3645    3.8883 C   0  0  0  0  0  0  0  0  0  0  0  0
   10.2478    1.7947    0.0141 C   0  0  0  0  0  0  0  0  0  0  0  0
    9.9010    3.0954    0.0011 C   0  0  0  0  0  0  0  0  0  0  0  0
    9.9407    4.0351    1.1491 C   0  0  0  0  0  0  0  0  0  0  0  0
    9.5612    3.8188    2.4297 C   0  0  0  0  0  0  0  0  0  0  0  0
    9.3858    2.5589    3.1823 C   0  0  0  0  0  0  0  0  0  0  0  0
    8.1520    1.9826    3.5395 C   0  0  0  0  0  0  0  0  0  0  0  0
    6.4709    2.0722    3.3581 C   0  0  0  0  0  0  0  0  0  0  0  0
    5.9670    2.8876    4.1622 O   0  0  0  0  0  0  0  0  0  0  0  0
    5.4571   -0.0365    2.9777 H   0  0  0  0  0  0  0  0  0  0  0  0
    4.4249    1.3004    3.2560 H   0  0  0  0  0  0  0  0  0  0  0  0
    2.4628   -0.0655    1.5694 H   0  0  0  0  0  0  0  0  0  0  0  0
    3.8042   -1.1841    1.1702 H   0  0  0  0  0  0  0  0  0  0  0  0
    3.0578   -0.1822   -0.0503 H   0  0  0  0  0  0  0  0  0  0  0  0
    4.6600    2.6766    0.2014 H   0  0  0  0  0  0  0  0  0  0  0  0
    4.5073   -0.1409   -1.7861 H   0  0  0  0  0  0  0  0  0  0  0  0
    5.4617   -1.1169   -0.6942 H   0  0  0  0  0  0  0  0  0  0  0  0
    6.1887   -0.3794   -2.1586 H   0  0  0  0  0  0  0  0  0  0  0  0
    6.2608    3.0148    1.1067 H   0  0  0  0  0  0  0  0  0  0  0  0
    7.1043    3.6098   -0.2656 H   0  0  0  0  0  0  0  0  0  0  0  0
    7.8720    2.8958    1.1794 H   0  0  0  0  0  0  0  0  0  0  0  0
    8.6628   -1.5854    0.3778 H   0  0  0  0  0  0  0  0  0  0  0  0
    7.1297   -0.9988    0.6971 H   0  0  0  0  0  0  0  0  0  0  0  0
    7.5843   -1.5089   -0.9879 H   0  0  0  0  0  0  0  0  0  0  0  0
    9.8594   -1.0890   -2.0769 H   0  0  0  0  0  0  0  0  0  0  0  0
   10.2443   -1.4391   -0.3608 H   0  0  0  0  0  0  0  0  0  0  0  0
   12.2537   -0.7870   -2.4712 H   0  0  0  0  0  0  0  0  0  0  0  0
   12.0657   -2.1289   -1.3326 H   0  0  0  0  0  0  0  0  0  0  0  0
   12.1559   -0.7341    0.4835 H   0  0  0  0  0  0  0  0  0  0  0  0
   12.3605    0.6795   -0.6628 H   0  0  0  0  0  0  0  0  0  0  0  0
   14.7665    0.4276   -0.5385 H   0  0  0  0  0  0  0  0  0  0  0  0
   14.5593   -0.8759    0.6780 H   0  0  0  0  0  0  0  0  0  0  0  0
   12.8790    0.3335    1.6950 H   0  0  0  0  0  0  0  0  0  0  0  0
   13.1503    1.8140    0.6030 H   0  0  0  0  0  0  0  0  0  0  0  0
   14.2395    2.7447    2.3947 H   0  0  0  0  0  0  0  0  0  0  0  0
   14.1087    1.2535    3.3772 H   0  0  0  0  0  0  0  0  0  0  0  0
   11.5997    1.2906    2.4105 H   0  0  0  0  0  0  0  0  0  0  0  0
   11.9651    3.0233    2.1059 H   0  0  0  0  0  0  0  0  0  0  0  0
   11.1475    3.2672    4.4738 H   0  0  0  0  0  0  0  0  0  0  0  0
   10.9200    1.4999    4.5573 H   0  0  0  0  0  0  0  0  0  0  0  0
   10.8457    1.4192    0.8156 H   0  0  0  0  0  0  0  0  0  0  0  0
    9.2834    3.4818   -0.8015 H   0  0  0  0  0  0  0  0  0  0  0  0
   10.1448    5.0722    0.8803 H   0  0  0  0  0  0  0  0  0  0  0  0
    9.5699    4.6681    3.1211 H   0  0  0  0  0  0  0  0  0  0  0  0
    8.1945    1.8884    4.6367 H   0  0  0  0  0  0  0  0  0  0  0  0
  1  2  1  0  0  0  0
  1 26  1  0  0  0  0
  1 28  1  0  0  0  0
  1 29  1  0  0  0  0
  2  3  1  0  0  0  0
  2  4  2  3  0  0  0
  3 30  1  0  0  0  0
  3 31  1  0  0  0  0
  3 32  1  0  0  0  0
  4  5  1  0  0  0  0
  4 33  1  0  0  0  0
  5  6  1  0  0  0  0
  5  7  2  3  0  0  0
  6 34  1  0  0  0  0
  6 35  1  0  0  0  0
  6 36  1  0  0  0  0
  7  8  1  0  0  0  0
  7  9  1  0  0  0  0
  8 37  1  0  0  0  0
  8 38  1  0  0  0  0
  8 39  1  0  0  0  0
  9 10  1  0  0  0  0
  9 11  2  3  0  0  0
 10 40  1  0  0  0  0
 10 41  1  0  0  0  0
 10 42  1  0  0  0  0
 11 12  1  0  0  0  0
 11 20  1  0  0  0  0
 12 13  1  0  0  0  0
 12 43  1  0  0  0  0
 12 44  1  0  0  0  0
 13 14  1  0  0  0  0
 13 45  1  0  0  0  0
 13 46  1  0  0  0  0
 14 15  1  0  0  0  0
 14 47  1  0  0  0  0
 14 48  1  0  0  0  0
 15 16  1  0  0  0  0
 15 49  1  0  0  0  0
 15 50  1  0  0  0  0
 16 17  1  0  0  0  0
 16 51  1  0  0  0  0
 16 52  1  0  0  0  0
 17 18  1  0  0  0  0
 17 53  1  0  0  0  0
 17 54  1  0  0  0  0
 18 19  1  0  0  0  0
 18 55  1  0  0  0  0
 18 56  1  0  0  0  0
 19 24  1  0  0  0  0
 19 57  1  0  0  0  0
 19 58  1  0  0  0  0
 20 21  2  3  0  0  0
 20 59  1  0  0  0  0
 21 22  1  0  0  0  0
 21 60  1  0  0  0  0
 22 23  2  3  0  0  0
 22 61  1  0  0  0  0
 23 24  1  0  0  0  0
 23 62  1  0  0  0  0
 24 25  2  3  0  0  0
 25 26  1  0  0  0  0
 25 63  1  0  0  0  0
 26 27  2  0  0  0  0
M  END
$$$$
