
 OpenBabel04232216523D

237237  0  0  1  0  0  0  0  0999 V2000
   15.6737   -2.2858   -0.3278 C   0  0  0  0  0  0  0  0  0  0  0  0
   15.0253   -1.9837    0.9977 C   0  0  0  0  0  0  0  0  0  0  0  0
   13.5443   -1.6898    0.8061 C   0  0  0  0  0  0  0  0  0  0  0  0
   12.8929   -1.3770    2.1424 C   0  0  0  0  0  0  0  0  0  0  0  0
   11.4202   -1.0947    1.9230 C   0  0  0  0  0  0  0  0  0  0  0  0
   10.7331   -0.7885    3.2472 C   0  0  0  0  0  0  0  0  0  0  0  0
    9.2233   -0.5389    3.0601 C   0  0  3  0  0  0  0  0  0  0  0  0
    8.5131   -1.7498    2.4403 C   0  0  0  0  0  0  0  0  0  0  0  0
    8.4107   -2.9284    3.3976 C   0  0  0  0  0  0  0  0  0  0  0  0
    7.0702   -2.9394    4.1121 C   0  0  0  0  0  0  0  0  0  0  0  0
    6.8488   -1.8041    5.1023 C   0  0  0  0  0  0  0  0  0  0  0  0
    7.0982   -0.3964    4.5686 C   0  0  0  0  0  0  0  0  0  0  0  0
    8.5937   -0.0539    4.4013 C   0  0  3  0  0  0  0  0  0  0  0  0
    8.7851    1.4694    4.5678 C   0  0  0  0  0  0  0  0  0  0  0  0
    7.9755    2.2562    3.5427 C   0  0  0  0  0  0  0  0  0  0  0  0
    8.1638    3.7436    3.7075 C   0  0  0  0  0  0  0  0  0  0  0  0
    7.3615    4.4459    2.6268 C   0  0  0  0  0  0  0  0  0  0  0  0
    7.5243    5.9429    2.7772 C   0  0  0  0  0  0  0  0  0  0  0  0
    6.7211    6.6503    1.7037 C   0  0  0  0  0  0  0  0  0  0  0  0
    6.8919    8.1477    1.8705 C   0  0  0  0  0  0  0  0  0  0  0  0
    6.0899    8.8656    0.8019 C   0  0  0  0  0  0  0  0  0  0  0  0
    6.2630   10.3638    0.9700 C   0  0  0  0  0  0  0  0  0  0  0  0
    5.4642   11.0895   -0.0931 C   0  0  0  0  0  0  0  0  0  0  0  0
    5.6321   12.5861    0.0744 C   0  0  0  0  0  0  0  0  0  0  0  0
    4.8341   13.3096   -0.9914 C   0  0  0  0  0  0  0  0  0  0  0  0
    5.0066   14.8083   -0.8249 C   0  0  0  0  0  0  0  0  0  0  0  0
    4.2123   15.5391   -1.8895 C   0  0  0  0  0  0  0  0  0  0  0  0
    4.3802   17.0375   -1.7234 C   0  0  0  0  0  0  0  0  0  0  0  0
    3.5838   17.7669   -2.7885 C   0  0  0  0  0  0  0  0  0  0  0  0
    3.7524   19.2651   -2.6228 C   0  0  0  0  0  0  0  0  0  0  0  0
    2.9539   19.9937   -3.6868 C   0  0  0  0  0  0  0  0  0  0  0  0
    3.1239   21.4918   -3.5222 C   0  0  0  0  0  0  0  0  0  0  0  0
    2.3235   22.2203   -4.5848 C   0  0  0  0  0  0  0  0  0  0  0  0
    2.4920   23.7184   -4.4191 C   0  0  0  0  0  0  0  0  0  0  0  0
    1.6905   24.4469   -5.4808 C   0  0  0  0  0  0  0  0  0  0  0  0
    1.8605   25.9450   -5.3162 C   0  0  0  0  0  0  0  0  0  0  0  0
    1.0603   26.6734   -6.3788 C   0  0  0  0  0  0  0  0  0  0  0  0
    1.2289   28.1715   -6.2132 C   0  0  0  0  0  0  0  0  0  0  0  0
    0.4287   28.9000   -7.2758 C   0  0  0  0  0  0  0  0  0  0  0  0
    0.5974   30.3981   -7.1102 C   0  0  0  0  0  0  0  0  0  0  0  0
   -0.2028   31.1265   -8.1729 C   0  0  0  0  0  0  0  0  0  0  0  0
   -0.0342   32.6245   -8.0072 C   0  0  0  0  0  0  0  0  0  0  0  0
   -0.8345   33.3530   -9.0697 C   0  0  0  0  0  0  0  0  0  0  0  0
   -0.6658   34.8511   -8.9041 C   0  0  0  0  0  0  0  0  0  0  0  0
   -1.4676   35.5796   -9.9655 C   0  0  0  0  0  0  0  0  0  0  0  0
   -1.2976   37.0777   -9.8010 C   0  0  0  0  0  0  0  0  0  0  0  0
   -2.1008   37.8062  -10.8612 C   0  0  0  0  0  0  0  0  0  0  0  0
   -1.9322   39.3042  -10.6956 C   0  0  0  0  0  0  0  0  0  0  0  0
   -2.7342   40.0329  -11.7567 C   0  0  0  0  0  0  0  0  0  0  0  0
   -2.5653   41.5312  -11.5914 C   0  0  0  0  0  0  0  0  0  0  0  0
   -3.3669   42.2600  -12.6517 C   0  0  0  0  0  0  0  0  0  0  0  0
   -3.1983   43.7575  -12.4866 C   0  0  0  0  0  0  0  0  0  0  0  0
   -3.9999   44.4859  -13.5492 C   0  0  0  0  0  0  0  0  0  0  0  0
   -3.8321   45.9839  -13.3830 C   0  0  0  0  0  0  0  0  0  0  0  0
   -4.6341   46.7126  -14.4443 C   0  0  0  0  0  0  0  0  0  0  0  0
   -4.4652   48.2106  -14.2786 C   0  0  0  0  0  0  0  0  0  0  0  0
   -5.2671   48.9392  -15.3398 C   0  0  0  0  0  0  0  0  0  0  0  0
   -5.0968   50.4373  -15.1754 C   0  0  0  0  0  0  0  0  0  0  0  0
   -5.8986   51.1658  -16.2368 C   0  0  0  0  0  0  0  0  0  0  0  0
   -5.7268   52.6638  -16.0736 C   0  0  0  0  0  0  0  0  0  0  0  0
   -6.5286   53.3923  -17.1350 C   0  0  0  0  0  0  0  0  0  0  0  0
   -6.3552   54.8903  -16.9731 C   0  0  0  0  0  0  0  0  0  0  0  0
   -7.1555   55.6187  -18.0357 C   0  0  0  0  0  0  0  0  0  0  0  0
   -6.9805   57.1167  -17.8750 C   0  0  0  0  0  0  0  0  0  0  0  0
   -7.7791   57.8451  -18.9389 C   0  0  0  0  0  0  0  0  0  0  0  0
   -7.6025   59.3431  -18.7795 C   0  0  0  0  0  0  0  0  0  0  0  0
   -8.3994   60.0715  -19.8446 C   0  0  0  0  0  0  0  0  0  0  0  0
   -8.2214   61.5694  -19.6864 C   0  0  0  0  0  0  0  0  0  0  0  0
   -9.0182   62.2980  -20.7517 C   0  0  0  0  0  0  0  0  0  0  0  0
   -8.8416   63.7961  -20.5924 C   0  0  0  0  0  0  0  0  0  0  0  0
   -9.6373   64.5250  -21.6586 C   0  0  0  0  0  0  0  0  0  0  0  0
   -9.4597   66.0236  -21.5010 C   0  0  0  0  0  0  0  0  0  0  0  0
  -10.2563   66.7532  -22.5667 C   0  0  0  0  0  0  0  0  0  0  0  0
  -10.0791   68.2529  -22.4097 C   0  0  0  0  0  0  0  0  0  0  0  0
  -10.8762   68.9848  -23.4749 C   0  0  0  0  0  0  0  0  0  0  0  0
  -10.7006   70.4871  -23.3196 C   0  0  0  0  0  0  0  0  0  0  0  0
  -11.4968   71.2214  -24.3870 C   0  0  0  0  0  0  0  0  0  0  0  0
  -11.3299   72.7286  -24.2403 C   0  0  0  0  0  0  0  0  0  0  0  0
  -12.1243   73.4575  -25.3060 C   0  0  0  0  0  0  0  0  0  0  0  0
   16.7403   -2.4948   -0.1942 H   0  0  0  0  0  0  0  0  0  0  0  0
   15.5767   -1.4352   -1.0146 H   0  0  0  0  0  0  0  0  0  0  0  0
   15.2117   -3.1606   -0.8015 H   0  0  0  0  0  0  0  0  0  0  0  0
   15.5116   -1.1211    1.4679 H   0  0  0  0  0  0  0  0  0  0  0  0
   15.1450   -2.8362    1.6781 H   0  0  0  0  0  0  0  0  0  0  0  0
   13.0494   -2.5529    0.3423 H   0  0  0  0  0  0  0  0  0  0  0  0
   13.4136   -0.8410    0.1234 H   0  0  0  0  0  0  0  0  0  0  0  0
   13.3743   -0.5144    2.6138 H   0  0  0  0  0  0  0  0  0  0  0  0
   13.0030   -2.2321    2.8207 H   0  0  0  0  0  0  0  0  0  0  0  0
   10.9896   -1.9789    1.4459 H   0  0  0  0  0  0  0  0  0  0  0  0
   11.2877   -0.2539    1.2312 H   0  0  0  0  0  0  0  0  0  0  0  0
   11.2111    0.0918    3.6936 H   0  0  0  0  0  0  0  0  0  0  0  0
   10.9031   -1.6135    3.9478 H   0  0  0  0  0  0  0  0  0  0  0  0
    9.1484    0.2499    2.3061 H   0  0  0  0  0  0  0  0  0  0  0  0
    9.0253   -2.0703    1.5283 H   0  0  0  0  0  0  0  0  0  0  0  0
    7.5250   -1.4485    2.0722 H   0  0  0  0  0  0  0  0  0  0  0  0
    9.2269   -2.9454    4.1257 H   0  0  0  0  0  0  0  0  0  0  0  0
    8.5047   -3.8518    2.8128 H   0  0  0  0  0  0  0  0  0  0  0  0
    6.9739   -3.8904    4.6516 H   0  0  0  0  0  0  0  0  0  0  0  0
    6.2691   -2.9275    3.3642 H   0  0  0  0  0  0  0  0  0  0  0  0
    7.4600   -1.9656    5.9988 H   0  0  0  0  0  0  0  0  0  0  0  0
    5.8035   -1.8561    5.4332 H   0  0  0  0  0  0  0  0  0  0  0  0
    6.6557    0.2941    5.3000 H   0  0  0  0  0  0  0  0  0  0  0  0
    6.5456   -0.2371    3.6362 H   0  0  0  0  0  0  0  0  0  0  0  0
    9.1404   -0.5221    5.2322 H   0  0  0  0  0  0  0  0  0  0  0  0
    9.8464    1.7343    4.4943 H   0  0  0  0  0  0  0  0  0  0  0  0
    8.4693    1.7636    5.5780 H   0  0  0  0  0  0  0  0  0  0  0  0
    6.9089    2.0261    3.6365 H   0  0  0  0  0  0  0  0  0  0  0  0
    8.2648    1.9908    2.5222 H   0  0  0  0  0  0  0  0  0  0  0  0
    9.2245    4.0053    3.6207 H   0  0  0  0  0  0  0  0  0  0  0  0
    7.8215    4.0588    4.7008 H   0  0  0  0  0  0  0  0  0  0  0  0
    6.3014    4.1708    2.7036 H   0  0  0  0  0  0  0  0  0  0  0  0
    7.7031    4.1274    1.6333 H   0  0  0  0  0  0  0  0  0  0  0  0
    8.5835    6.2085    2.6935 H   0  0  0  0  0  0  0  0  0  0  0  0
    7.1827    6.2522    3.7704 H   0  0  0  0  0  0  0  0  0  0  0  0
    5.6634    6.3775    1.7843 H   0  0  0  0  0  0  0  0  0  0  0  0
    7.0647    6.3392    0.7106 H   0  0  0  0  0  0  0  0  0  0  0  0
    7.9446    8.4184    1.7934 H   0  0  0  0  0  0  0  0  0  0  0  0
    6.5456    8.4550    2.8624 H   0  0  0  0  0  0  0  0  0  0  0  0
    5.0333    8.6016    0.8801 H   0  0  0  0  0  0  0  0  0  0  0  0
    6.4343    8.5654   -0.1941 H   0  0  0  0  0  0  0  0  0  0  0  0
    7.3227   10.6329    0.8940 H   0  0  0  0  0  0  0  0  0  0  0  0
    5.9213   10.6699    1.9693 H   0  0  0  0  0  0  0  0  0  0  0  0
    4.4035   10.8201   -0.0153 H   0  0  0  0  0  0  0  0  0  0  0  0
    5.8036   10.7832   -1.0910 H   0  0  0  0  0  0  0  0  0  0  0  0
    6.6932   12.8541   -0.0024 H   0  0  0  0  0  0  0  0  0  0  0  0
    5.2915   12.8909    1.0726 H   0  0  0  0  0  0  0  0  0  0  0  0
    3.7733   13.0444   -0.9097 H   0  0  0  0  0  0  0  0  0  0  0  0
    5.1711   12.9968   -1.9855 H   0  0  0  0  0  0  0  0  0  0  0  0
    6.0684   15.0750   -0.9005 H   0  0  0  0  0  0  0  0  0  0  0  0
    4.6670   15.1151    0.1720 H   0  0  0  0  0  0  0  0  0  0  0  0
    3.1513   15.2719   -1.8128 H   0  0  0  0  0  0  0  0  0  0  0  0
    4.5537   15.2326   -2.8854 H   0  0  0  0  0  0  0  0  0  0  0  0
    5.4413   17.3061   -1.7998 H   0  0  0  0  0  0  0  0  0  0  0  0
    4.0384   17.3438   -0.7269 H   0  0  0  0  0  0  0  0  0  0  0  0
    2.5230   17.4991   -2.7103 H   0  0  0  0  0  0  0  0  0  0  0  0
    3.9236   17.4600   -3.7853 H   0  0  0  0  0  0  0  0  0  0  0  0
    4.8132   19.5333   -2.7020 H   0  0  0  0  0  0  0  0  0  0  0  0
    3.4137   19.5719   -1.6255 H   0  0  0  0  0  0  0  0  0  0  0  0
    1.8929   19.7267   -3.6065 H   0  0  0  0  0  0  0  0  0  0  0  0
    3.2914   19.6864   -4.6842 H   0  0  0  0  0  0  0  0  0  0  0  0
    4.1847   21.7593   -3.6040 H   0  0  0  0  0  0  0  0  0  0  0  0
    2.7878   21.7993   -2.5242 H   0  0  0  0  0  0  0  0  0  0  0  0
    1.2628   21.9520   -4.5039 H   0  0  0  0  0  0  0  0  0  0  0  0
    2.6606   21.9139   -5.5827 H   0  0  0  0  0  0  0  0  0  0  0  0
    3.5526   23.9867   -4.5012 H   0  0  0  0  0  0  0  0  0  0  0  0
    2.1560   24.0248   -3.4208 H   0  0  0  0  0  0  0  0  0  0  0  0
    0.6297   24.1795   -5.3977 H   0  0  0  0  0  0  0  0  0  0  0  0
    2.0255   24.1398   -6.4791 H   0  0  0  0  0  0  0  0  0  0  0  0
    2.9213   26.2124   -5.3978 H   0  0  0  0  0  0  0  0  0  0  0  0
    1.5242   26.2522   -4.3182 H   0  0  0  0  0  0  0  0  0  0  0  0
   -0.0004   26.4052   -6.2980 H   0  0  0  0  0  0  0  0  0  0  0  0
    1.3975   26.3670   -7.3767 H   0  0  0  0  0  0  0  0  0  0  0  0
    2.2896   28.4398   -6.2940 H   0  0  0  0  0  0  0  0  0  0  0  0
    0.8917   28.4779   -5.2153 H   0  0  0  0  0  0  0  0  0  0  0  0
   -0.6319   28.6317   -7.1950 H   0  0  0  0  0  0  0  0  0  0  0  0
    0.7659   28.5936   -8.2737 H   0  0  0  0  0  0  0  0  0  0  0  0
    1.6580   30.6663   -7.1909 H   0  0  0  0  0  0  0  0  0  0  0  0
    0.2601   30.7044   -6.1123 H   0  0  0  0  0  0  0  0  0  0  0  0
   -1.2634   30.8582   -8.0920 H   0  0  0  0  0  0  0  0  0  0  0  0
    0.1343   30.8201   -9.1708 H   0  0  0  0  0  0  0  0  0  0  0  0
    1.0264   32.8929   -8.0880 H   0  0  0  0  0  0  0  0  0  0  0  0
   -0.3714   32.9309   -7.0092 H   0  0  0  0  0  0  0  0  0  0  0  0
   -1.8951   33.0847   -8.9887 H   0  0  0  0  0  0  0  0  0  0  0  0
   -0.4974   33.0467  -10.0677 H   0  0  0  0  0  0  0  0  0  0  0  0
    0.3947   35.1195   -8.9863 H   0  0  0  0  0  0  0  0  0  0  0  0
   -1.0017   35.1574   -7.9058 H   0  0  0  0  0  0  0  0  0  0  0  0
   -2.5282   35.3121   -9.8824 H   0  0  0  0  0  0  0  0  0  0  0  0
   -1.1327   35.2726  -10.9640 H   0  0  0  0  0  0  0  0  0  0  0  0
   -0.2371   37.3454   -9.8854 H   0  0  0  0  0  0  0  0  0  0  0  0
   -1.6314   37.3846   -8.8020 H   0  0  0  0  0  0  0  0  0  0  0  0
   -3.1612   37.5377  -10.7777 H   0  0  0  0  0  0  0  0  0  0  0  0
   -1.7662   37.5002  -11.8601 H   0  0  0  0  0  0  0  0  0  0  0  0
   -0.8718   39.5728  -10.7778 H   0  0  0  0  0  0  0  0  0  0  0  0
   -2.2680   39.6104   -9.6970 H   0  0  0  0  0  0  0  0  0  0  0  0
   -3.7946   39.7645  -11.6746 H   0  0  0  0  0  0  0  0  0  0  0  0
   -2.3985   39.7267  -12.7555 H   0  0  0  0  0  0  0  0  0  0  0  0
   -1.5048   41.7992  -11.6731 H   0  0  0  0  0  0  0  0  0  0  0  0
   -2.9009   41.8370  -10.5919 H   0  0  0  0  0  0  0  0  0  0  0  0
   -4.4267   41.9916  -12.5705 H   0  0  0  0  0  0  0  0  0  0  0  0
   -3.0294   41.9539  -13.6502 H   0  0  0  0  0  0  0  0  0  0  0  0
   -2.1380   44.0266  -12.5686 H   0  0  0  0  0  0  0  0  0  0  0  0
   -3.5344   44.0646  -11.4884 H   0  0  0  0  0  0  0  0  0  0  0  0
   -5.0603   44.2170  -13.4672 H   0  0  0  0  0  0  0  0  0  0  0  0
   -3.6632   44.1796  -14.5468 H   0  0  0  0  0  0  0  0  0  0  0  0
   -2.7716   46.2528  -13.4652 H   0  0  0  0  0  0  0  0  0  0  0  0
   -4.1682   46.2901  -12.3847 H   0  0  0  0  0  0  0  0  0  0  0  0
   -5.6944   46.4441  -14.3620 H   0  0  0  0  0  0  0  0  0  0  0  0
   -4.2982   46.4064  -15.4428 H   0  0  0  0  0  0  0  0  0  0  0  0
   -3.4047   48.4789  -14.3609 H   0  0  0  0  0  0  0  0  0  0  0  0
   -4.8009   48.5168  -13.2801 H   0  0  0  0  0  0  0  0  0  0  0  0
   -6.3277   48.6718  -15.2568 H   0  0  0  0  0  0  0  0  0  0  0  0
   -4.9321   48.6321  -16.3383 H   0  0  0  0  0  0  0  0  0  0  0  0
   -4.0362   50.7046  -15.2585 H   0  0  0  0  0  0  0  0  0  0  0  0
   -5.4316   50.7446  -14.1769 H   0  0  0  0  0  0  0  0  0  0  0  0
   -6.9594   50.8995  -16.1528 H   0  0  0  0  0  0  0  0  0  0  0  0
   -5.5646   50.8576  -17.2352 H   0  0  0  0  0  0  0  0  0  0  0  0
   -4.6659   52.9300  -16.1577 H   0  0  0  0  0  0  0  0  0  0  0  0
   -6.0607   52.9722  -15.0752 H   0  0  0  0  0  0  0  0  0  0  0  0
   -7.5896   53.1271  -17.0502 H   0  0  0  0  0  0  0  0  0  0  0  0
   -6.1955   53.0830  -18.1334 H   0  0  0  0  0  0  0  0  0  0  0  0
   -5.2940   55.1553  -17.0567 H   0  0  0  0  0  0  0  0  0  0  0  0
   -6.6894   55.1999  -15.9751 H   0  0  0  0  0  0  0  0  0  0  0  0
   -8.2169   55.3548  -17.9514 H   0  0  0  0  0  0  0  0  0  0  0  0
   -6.8220   55.3081  -19.0336 H   0  0  0  0  0  0  0  0  0  0  0  0
   -5.9189   57.3803  -17.9582 H   0  0  0  0  0  0  0  0  0  0  0  0
   -7.3150   57.4276  -16.8776 H   0  0  0  0  0  0  0  0  0  0  0  0
   -8.8409   57.5825  -18.8551 H   0  0  0  0  0  0  0  0  0  0  0  0
   -7.4453   57.5332  -19.9362 H   0  0  0  0  0  0  0  0  0  0  0  0
   -6.5405   59.6053  -18.8620 H   0  0  0  0  0  0  0  0  0  0  0  0
   -7.9374   59.6552  -17.7825 H   0  0  0  0  0  0  0  0  0  0  0  0
   -9.4615   59.8102  -19.7613 H   0  0  0  0  0  0  0  0  0  0  0  0
   -8.0653   59.7584  -20.8415 H   0  0  0  0  0  0  0  0  0  0  0  0
   -7.1592   61.8307  -19.7696 H   0  0  0  0  0  0  0  0  0  0  0  0
   -8.5555   61.8825  -18.6895 H   0  0  0  0  0  0  0  0  0  0  0  0
  -10.0802   62.0357  -20.6694 H   0  0  0  0  0  0  0  0  0  0  0  0
   -8.6831   61.9856  -21.7485 H   0  0  0  0  0  0  0  0  0  0  0  0
   -7.7794   64.0581  -20.6735 H   0  0  0  0  0  0  0  0  0  0  0  0
   -9.1776   64.1082  -19.5958 H   0  0  0  0  0  0  0  0  0  0  0  0
  -10.6995   64.2633  -21.5763 H   0  0  0  0  0  0  0  0  0  0  0  0
   -9.3020   64.2113  -22.6549 H   0  0  0  0  0  0  0  0  0  0  0  0
   -8.3974   66.2841  -21.5839 H   0  0  0  0  0  0  0  0  0  0  0  0
   -9.7937   66.3363  -20.5040 H   0  0  0  0  0  0  0  0  0  0  0  0
  -11.3183   66.4916  -22.4838 H   0  0  0  0  0  0  0  0  0  0  0  0
   -9.9217   66.4393  -23.5631 H   0  0  0  0  0  0  0  0  0  0  0  0
   -9.0164   68.5128  -22.4924 H   0  0  0  0  0  0  0  0  0  0  0  0
  -10.4126   68.5647  -21.4122 H   0  0  0  0  0  0  0  0  0  0  0  0
  -11.9378   68.7215  -23.3909 H   0  0  0  0  0  0  0  0  0  0  0  0
  -10.5421   68.6697  -24.4710 H   0  0  0  0  0  0  0  0  0  0  0  0
   -9.6378   70.7458  -23.4008 H   0  0  0  0  0  0  0  0  0  0  0  0
  -11.0354   70.7976  -22.3223 H   0  0  0  0  0  0  0  0  0  0  0  0
  -12.5578   70.9538  -24.3048 H   0  0  0  0  0  0  0  0  0  0  0  0
  -11.1600   70.9038  -25.3816 H   0  0  0  0  0  0  0  0  0  0  0  0
  -10.2701   72.9955  -24.3242 H   0  0  0  0  0  0  0  0  0  0  0  0
  -11.6683   73.0456  -23.2472 H   0  0  0  0  0  0  0  0  0  0  0  0
  -11.7851   73.1714  -26.3069 H   0  0  0  0  0  0  0  0  0  0  0  0
  -12.0016   74.5397  -25.1977 H   0  0  0  0  0  0  0  0  0  0  0  0
  -13.1905   73.2221  -25.2247 H   0  0  0  0  0  0  0  0  0  0  0  0
  1  2  1  0  0  0  0
  1 80  1  0  0  0  0
  1 81  1  0  0  0  0
  1 82  1  0  0  0  0
  2  3  1  0  0  0  0
  2 83  1  0  0  0  0
  2 84  1  0  0  0  0
  3  4  1  0  0  0  0
  3 85  1  0  0  0  0
  3 86  1  0  0  0  0
  4  5  1  0  0  0  0
  4 87  1  0  0  0  0
  4 88  1  0  0  0  0
  5  6  1  0  0  0  0
  5 89  1  0  0  0  0
  5 90  1  0  0  0  0
  6  7  1  0  0  0  0
  6 91  1  0  0  0  0
  6 92  1  0  0  0  0
  7  8  1  0  0  0  0
  7 13  1  0  0  0  0
  7 93  1  0  0  0  0
  8  9  1  0  0  0  0
  8 94  1  0  0  0  0
  8 95  1  0  0  0  0
  9 10  1  0  0  0  0
  9 96  1  0  0  0  0
  9 97  1  0  0  0  0
 10 11  1  0  0  0  0
 10 98  1  0  0  0  0
 10 99  1  0  0  0  0
 11 12  1  0  0  0  0
 11100  1  0  0  0  0
 11101  1  0  0  0  0
 12 13  1  0  0  0  0
 12102  1  0  0  0  0
 12103  1  0  0  0  0
 13 14  1  0  0  0  0
 13104  1  0  0  0  0
 14 15  1  0  0  0  0
 14105  1  0  0  0  0
 14106  1  0  0  0  0
 15 16  1  0  0  0  0
 15107  1  0  0  0  0
 15108  1  0  0  0  0
 16 17  1  0  0  0  0
 16109  1  0  0  0  0
 16110  1  0  0  0  0
 17 18  1  0  0  0  0
 17111  1  0  0  0  0
 17112  1  0  0  0  0
 18 19  1  0  0  0  0
 18113  1  0  0  0  0
 18114  1  0  0  0  0
 19 20  1  0  0  0  0
 19115  1  0  0  0  0
 19116  1  0  0  0  0
 20 21  1  0  0  0  0
 20117  1  0  0  0  0
 20118  1  0  0  0  0
 21 22  1  0  0  0  0
 21119  1  0  0  0  0
 21120  1  0  0  0  0
 22 23  1  0  0  0  0
 22121  1  0  0  0  0
 22122  1  0  0  0  0
 23 24  1  0  0  0  0
 23123  1  0  0  0  0
 23124  1  0  0  0  0
 24 25  1  0  0  0  0
 24125  1  0  0  0  0
 24126  1  0  0  0  0
 25 26  1  0  0  0  0
 25127  1  0  0  0  0
 25128  1  0  0  0  0
 26 27  1  0  0  0  0
 26129  1  0  0  0  0
 26130  1  0  0  0  0
 27 28  1  0  0  0  0
 27131  1  0  0  0  0
 27132  1  0  0  0  0
 28 29  1  0  0  0  0
 28133  1  0  0  0  0
 28134  1  0  0  0  0
 29 30  1  0  0  0  0
 29135  1  0  0  0  0
 29136  1  0  0  0  0
 30 31  1  0  0  0  0
 30137  1  0  0  0  0
 30138  1  0  0  0  0
 31 32  1  0  0  0  0
 31139  1  0  0  0  0
 31140  1  0  0  0  0
 32 33  1  0  0  0  0
 32141  1  0  0  0  0
 32142  1  0  0  0  0
 33 34  1  0  0  0  0
 33143  1  0  0  0  0
 33144  1  0  0  0  0
 34 35  1  0  0  0  0
 34145  1  0  0  0  0
 34146  1  0  0  0  0
 35 36  1  0  0  0  0
 35147  1  0  0  0  0
 35148  1  0  0  0  0
 36 37  1  0  0  0  0
 36149  1  0  0  0  0
 36150  1  0  0  0  0
 37 38  1  0  0  0  0
 37151  1  0  0  0  0
 37152  1  0  0  0  0
 38 39  1  0  0  0  0
 38153  1  0  0  0  0
 38154  1  0  0  0  0
 39 40  1  0  0  0  0
 39155  1  0  0  0  0
 39156  1  0  0  0  0
 40 41  1  0  0  0  0
 40157  1  0  0  0  0
 40158  1  0  0  0  0
 41 42  1  0  0  0  0
 41159  1  0  0  0  0
 41160  1  0  0  0  0
 42 43  1  0  0  0  0
 42161  1  0  0  0  0
 42162  1  0  0  0  0
 43 44  1  0  0  0  0
 43163  1  0  0  0  0
 43164  1  0  0  0  0
 44 45  1  0  0  0  0
 44165  1  0  0  0  0
 44166  1  0  0  0  0
 45 46  1  0  0  0  0
 45167  1  0  0  0  0
 45168  1  0  0  0  0
 46 47  1  0  0  0  0
 46169  1  0  0  0  0
 46170  1  0  0  0  0
 47 48  1  0  0  0  0
 47171  1  0  0  0  0
 47172  1  0  0  0  0
 48 49  1  0  0  0  0
 48173  1  0  0  0  0
 48174  1  0  0  0  0
 49 50  1  0  0  0  0
 49175  1  0  0  0  0
 49176  1  0  0  0  0
 50 51  1  0  0  0  0
 50177  1  0  0  0  0
 50178  1  0  0  0  0
 51 52  1  0  0  0  0
 51179  1  0  0  0  0
 51180  1  0  0  0  0
 52 53  1  0  0  0  0
 52181  1  0  0  0  0
 52182  1  0  0  0  0
 53 54  1  0  0  0  0
 53183  1  0  0  0  0
 53184  1  0  0  0  0
 54 55  1  0  0  0  0
 54185  1  0  0  0  0
 54186  1  0  0  0  0
 55 56  1  0  0  0  0
 55187  1  0  0  0  0
 55188  1  0  0  0  0
 56 57  1  0  0  0  0
 56189  1  0  0  0  0
 56190  1  0  0  0  0
 57 58  1  0  0  0  0
 57191  1  0  0  0  0
 57192  1  0  0  0  0
 58 59  1  0  0  0  0
 58193  1  0  0  0  0
 58194  1  0  0  0  0
 59 60  1  0  0  0  0
 59195  1  0  0  0  0
 59196  1  0  0  0  0
 60 61  1  0  0  0  0
 60197  1  0  0  0  0
 60198  1  0  0  0  0
 61 62  1  0  0  0  0
 61199  1  0  0  0  0
 61200  1  0  0  0  0
 62 63  1  0  0  0  0
 62201  1  0  0  0  0
 62202  1  0  0  0  0
 63 64  1  0  0  0  0
 63203  1  0  0  0  0
 63204  1  0  0  0  0
 64 65  1  0  0  0  0
 64205  1  0  0  0  0
 64206  1  0  0  0  0
 65 66  1  0  0  0  0
 65207  1  0  0  0  0
 65208  1  0  0  0  0
 66 67  1  0  0  0  0
 66209  1  0  0  0  0
 66210  1  0  0  0  0
 67 68  1  0  0  0  0
 67211  1  0  0  0  0
 67212  1  0  0  0  0
 68 69  1  0  0  0  0
 68213  1  0  0  0  0
 68214  1  0  0  0  0
 69 70  1  0  0  0  0
 69215  1  0  0  0  0
 69216  1  0  0  0  0
 70 71  1  0  0  0  0
 70217  1  0  0  0  0
 70218  1  0  0  0  0
 71 72  1  0  0  0  0
 71219  1  0  0  0  0
 71220  1  0  0  0  0
 72 73  1  0  0  0  0
 72221  1  0  0  0  0
 72222  1  0  0  0  0
 73 74  1  0  0  0  0
 73223  1  0  0  0  0
 73224  1  0  0  0  0
 74 75  1  0  0  0  0
 74225  1  0  0  0  0
 74226  1  0  0  0  0
 75 76  1  0  0  0  0
 75227  1  0  0  0  0
 75228  1  0  0  0  0
 76 77  1  0  0  0  0
 76229  1  0  0  0  0
 76230  1  0  0  0  0
 77 78  1  0  0  0  0
 77231  1  0  0  0  0
 77232  1  0  0  0  0
 78 79  1  0  0  0  0
 78233  1  0  0  0  0
 78234  1  0  0  0  0
 79235  1  0  0  0  0
 79236  1  0  0  0  0
 79237  1  0  0  0  0
M  END
$$$$
