
 OpenBabel04232216553D

 50 52  0  0  0  0  0  0  0  0999 V2000
    5.4834   -1.5894   -0.4643 C   0  0  0  0  0  0  0  0  0  0  0  0
    5.6982   -2.0449    0.9248 N   0  0  0  0  0  0  0  0  0  0  0  0
    4.7055   -1.5296    1.7981 C   0  0  0  0  0  0  0  0  0  0  0  0
    3.2797   -2.2237    2.0956 C   0  0  0  0  0  0  0  0  0  0  0  0
    2.2542   -2.6485    1.0017 C   0  0  0  0  0  0  0  0  0  0  0  0
    0.9431   -3.3379    1.5223 C   0  0  0  0  0  0  0  0  0  0  0  0
    0.9522   -4.7351    2.1915 C   0  0  0  0  0  0  0  0  0  0  0  0
    1.9592   -5.7562    1.6676 C   0  0  0  0  0  0  0  0  0  0  0  0
    3.3069   -5.8023    2.3953 C   0  0  0  0  0  0  0  0  0  0  0  0
    4.1423   -4.5425    2.3092 C   0  0  0  0  0  0  0  0  0  0  0  0
    3.5600   -3.3569    3.0641 C   0  0  0  0  0  0  0  0  0  0  0  0
    4.7875   -0.3030    2.2738 N   0  0  0  0  0  0  0  0  0  0  0  0
    5.3387   -0.3209    3.5202 C   0  0  0  0  0  0  0  0  0  0  0  0
    6.5118    0.2903    3.7311 C   0  0  0  0  0  0  0  0  0  0  0  0
    7.3641   -0.6543    4.4865 C   0  0  0  0  0  0  0  0  0  0  0  0
    7.0609   -1.0316    5.6167 O   0  0  0  0  0  0  0  0  0  0  0  0
    8.1917   -1.3226    3.5905 N   0  0  0  0  0  0  0  0  0  0  0  0
    9.1629   -0.6559    2.7137 C   0  0  0  0  0  0  0  0  0  0  0  0
    8.0844   -2.6838    3.5615 N   0  0  0  0  0  0  0  0  0  0  0  0
    7.6719   -3.1909    2.4386 C   0  0  0  0  0  0  0  0  0  0  0  0
    8.5304   -4.3396    2.0405 C   0  0  0  0  0  0  0  0  0  0  0  0
    8.9018   -3.9350    0.8237 C   0  0  0  0  0  0  0  0  0  0  0  0
    7.9334   -3.0044    0.2994 C   0  0  0  0  0  0  0  0  0  0  0  0
    6.9807   -2.6531    1.1832 C   0  0  0  0  0  0  0  0  0  0  0  0
    6.4011   -1.1721   -0.8956 H   0  0  0  0  0  0  0  0  0  0  0  0
    4.7372   -0.7910   -0.5140 H   0  0  0  0  0  0  0  0  0  0  0  0
    5.1419   -2.4278   -1.0787 H   0  0  0  0  0  0  0  0  0  0  0  0
    2.7294   -1.4537    2.6612 H   0  0  0  0  0  0  0  0  0  0  0  0
    2.7043   -3.2691    0.2220 H   0  0  0  0  0  0  0  0  0  0  0  0
    1.9240   -1.7387    0.4781 H   0  0  0  0  0  0  0  0  0  0  0  0
    0.2616   -3.4232    0.6629 H   0  0  0  0  0  0  0  0  0  0  0  0
    0.4315   -2.6535    2.2140 H   0  0  0  0  0  0  0  0  0  0  0  0
   -0.0513   -5.1637    2.0417 H   0  0  0  0  0  0  0  0  0  0  0  0
    1.0186   -4.6555    3.2831 H   0  0  0  0  0  0  0  0  0  0  0  0
    2.1001   -5.6304    0.5892 H   0  0  0  0  0  0  0  0  0  0  0  0
    1.5175   -6.7542    1.7993 H   0  0  0  0  0  0  0  0  0  0  0  0
    3.8991   -6.6060    1.9411 H   0  0  0  0  0  0  0  0  0  0  0  0
    3.1645   -6.0737    3.4469 H   0  0  0  0  0  0  0  0  0  0  0  0
    4.3080   -4.3182    1.2498 H   0  0  0  0  0  0  0  0  0  0  0  0
    5.1348   -4.7394    2.7249 H   0  0  0  0  0  0  0  0  0  0  0  0
    4.2695   -3.0316    3.8293 H   0  0  0  0  0  0  0  0  0  0  0  0
    2.6619   -3.5887    3.6372 H   0  0  0  0  0  0  0  0  0  0  0  0
    4.9456   -1.0339    4.2446 H   0  0  0  0  0  0  0  0  0  0  0  0
    6.9621    0.8968    2.9623 H   0  0  0  0  0  0  0  0  0  0  0  0
    8.6452   -0.0411    1.9757 H   0  0  0  0  0  0  0  0  0  0  0  0
    9.7942   -1.3790    2.1899 H   0  0  0  0  0  0  0  0  0  0  0  0
    9.8070   -0.0122    3.3200 H   0  0  0  0  0  0  0  0  0  0  0  0
    9.0962   -4.9648    2.7142 H   0  0  0  0  0  0  0  0  0  0  0  0
    9.7916   -4.2627    0.3023 H   0  0  0  0  0  0  0  0  0  0  0  0
    7.9470   -2.7841   -0.7589 H   0  0  0  0  0  0  0  0  0  0  0  0
  1  2  1  0  0  0  0
  1 25  1  0  0  0  0
  1 26  1  0  0  0  0
  1 27  1  0  0  0  0
  2  3  1  0  0  0  0
  2 24  1  0  0  0  0
  3  4  1  0  0  0  0
  3 12  2  0  0  0  0
  4  5  1  0  0  0  0
  4 11  1  0  0  0  0
  4 28  1  0  0  0  0
  5  6  1  0  0  0  0
  5 29  1  0  0  0  0
  5 30  1  0  0  0  0
  6  7  1  0  0  0  0
  6 31  1  0  0  0  0
  6 32  1  0  0  0  0
  7  8  1  0  0  0  0
  7 33  1  0  0  0  0
  7 34  1  0  0  0  0
  8  9  1  0  0  0  0
  8 35  1  0  0  0  0
  8 36  1  0  0  0  0
  9 10  1  0  0  0  0
  9 37  1  0  0  0  0
  9 38  1  0  0  0  0
 10 11  1  0  0  0  0
 10 39  1  0  0  0  0
 10 40  1  0  0  0  0
 11 41  1  0  0  0  0
 11 42  1  0  0  0  0
 12 13  1  0  0  0  0
 13 14  2  0  0  0  0
 13 43  1  0  0  0  0
 14 15  1  0  0  0  0
 14 44  1  0  0  0  0
 15 16  2  0  0  0  0
 15 17  1  0  0  0  0
 17 18  1  0  0  0  0
 17 19  1  0  0  0  0
 18 45  1  0  0  0  0
 18 46  1  0  0  0  0
 18 47  1  0  0  0  0
 19 20  2  0  0  0  0
 20 21  1  0  0  0  0
 20 24  1  0  0  0  0
 21 22  2  0  0  0  0
 21 48  1  0  0  0  0
 22 23  1  0  0  0  0
 22 49  1  0  0  0  0
 23 24  2  0  0  0  0
 23 50  1  0  0  0  0
M  END
$$$$
