
 OpenBabel04232217003D

210210  0  0  1  0  0  0  0  0999 V2000
  383.7040 -272.0892  146.0626 O   0  0  0  0  0  0  0  0  0  0  0  0
  382.9193 -269.3372  147.5226 C   0  0  0  0  0  0  0  0  0  0  0  0
  381.8725 -266.2902  149.2450 C   0  0  3  0  0  0  0  0  0  0  0  0
  382.4997 -269.9895  147.3620 C   0  0  0  0  0  0  0  0  0  0  0  0
  383.0193 -273.7122  145.3822 C   0  0  0  0  0  0  0  0  0  0  0  0
  383.5649 -276.8600  143.3102 C   0  0  0  0  0  0  0  0  0  0  0  0
  384.1897 -279.6378  142.2346 C   0  0  0  0  0  0  0  0  0  0  0  0
  385.2158 -278.9534  140.4926 C   0  0  0  0  0  0  0  0  0  0  0  0
  384.2094 -277.5774  141.0629 C   0  0  0  0  0  0  0  0  0  0  0  0
  384.9174 -276.8211  141.7892 C   0  0  0  0  0  0  0  0  0  0  0  0
  383.4767 -275.3936  142.5974 C   0  0  0  0  0  0  0  0  0  0  0  0
  384.7307 -275.0477  142.6334 C   0  0  0  0  0  0  0  0  0  0  0  0
  384.2024 -273.9684  143.5032 C   0  0  0  0  0  0  0  0  0  0  0  0
  383.4601 -272.7973  144.2766 C   0  0  0  0  0  0  0  0  0  0  0  0
  383.4323 -271.5073  144.4371 C   0  0  0  0  0  0  0  0  0  0  0  0
  383.8504 -270.3417  145.3398 C   0  0  0  0  0  0  0  0  0  0  0  0
  382.5143 -269.0200  146.3025 C   0  0  0  0  0  0  0  0  0  0  0  0
  383.2691 -268.2698  146.0196 C   0  0  0  0  0  0  0  0  0  0  0  0
  382.4504 -267.4965  147.0044 C   0  0  0  0  0  0  0  0  0  0  0  0
  382.3910 -266.2942  147.3636 C   0  0  0  0  0  0  0  0  0  0  0  0
  381.8807 -265.0977  148.4584 C   0  0  0  0  0  0  0  0  0  0  0  0
  382.3031 -264.1477  148.4913 C   0  0  0  0  0  0  0  0  0  0  0  0
  381.0979 -263.2426  149.3090 C   0  0  0  0  0  0  0  0  0  0  0  0
  382.0409 -261.7832  149.4902 C   0  0  0  0  0  0  0  0  0  0  0  0
  381.5148 -260.8388  150.3738 C   0  0  0  0  0  0  0  0  0  0  0  0
  381.7489 -259.6474  150.5080 C   0  0  0  0  0  0  0  0  0  0  0  0
  380.9019 -259.0207  151.6189 C   0  0  0  0  0  0  0  0  0  0  0  0
  381.3563 -257.6051  151.5716 C   0  0  0  0  0  0  0  0  0  0  0  0
  380.7471 -257.0537  152.5336 O   0  0  0  0  0  0  0  0  0  0  0  0
  380.7610 -255.6933  152.1960 O   0  0  0  0  0  0  0  0  0  0  0  0
  378.9214 -255.6450  152.2432 O   0  0  0  0  0  0  0  0  0  0  0  0
  379.9739 -254.0768  152.7633 O   0  0  0  0  0  0  0  0  0  0  0  0
  379.8483 -253.0392  154.0966 O   0  0  0  0  0  0  0  0  0  0  0  0
  379.9861 -251.4141  154.0932 C   0  0  0  0  0  0  0  0  0  0  0  0
  378.6473 -250.2556  155.1571 C   0  0  0  0  0  0  0  0  0  0  0  0
  379.9708 -249.2338  154.9961 C   0  0  0  0  0  0  0  0  0  0  0  0
  379.0265 -248.6784  156.1683 C   0  0  0  0  0  0  0  0  0  0  0  0
  378.4871 -247.1443  155.9028 C   0  0  0  0  0  0  0  0  0  0  0  0
  378.2561 -246.5204  158.1384 C   0  0  0  0  0  0  0  0  0  0  0  0
  379.2878 -245.0129  156.8921 C   0  0  0  0  0  0  0  0  0  0  0  0
  377.9986 -245.4918  157.7317 C   0  0  0  0  0  0  0  0  0  0  0  0
  378.6390 -243.2690  157.4653 C   0  0  0  0  0  0  0  0  0  0  0  0
  380.2770 -241.9487  158.3571 C   0  0  0  0  0  0  0  0  0  0  0  0
  379.3970 -240.4435  158.5408 C   0  0  0  0  0  0  0  0  0  0  0  0
  379.4170 -239.0589  158.3434 C   0  0  0  0  0  0  0  0  0  0  0  0
  378.6401 -238.0888  159.2035 C   0  0  0  0  0  0  0  0  0  0  0  0
  377.0802 -237.9457  160.6392 C   0  0  0  0  0  0  0  0  0  0  0  0
  378.8940 -238.2323  159.7778 C   0  0  0  0  0  0  0  0  0  0  0  0
  378.6352 -241.0139  159.7952 C   0  0  0  0  0  0  0  0  0  0  0  0
  379.1317 -244.4985  158.6328 C   0  0  0  0  0  0  0  0  0  0  0  0
  379.8540 -248.2821  157.2248 C   0  0  0  0  0  0  0  0  0  0  0  0
  380.2968 -252.6611  155.6619 C   0  0  0  0  0  0  0  0  0  0  0  0
  380.8461 -256.6620  153.9064 C   0  0  3  0  0  0  0  0  0  0  0  0
  380.5886 -252.2120  156.7177 C   0  0  0  0  0  0  0  0  0  0  0  0
  380.3699 -247.5955  159.4577 C   0  0  0  0  0  0  0  0  0  0  0  0
  380.1993 -243.0010  161.8476 C   0  0  0  0  0  0  0  0  0  0  0  0
  380.1622 -238.8495  164.5311 C   0  0  0  0  0  0  0  0  0  0  0  0
  380.1806 -235.0702  167.2695 C   0  0  0  0  0  0  0  0  0  0  0  0
  380.3925 -231.4076  169.5775 C   0  0  0  0  0  0  0  0  0  0  0  0
  380.3007 -228.4808  171.7908 C   0  0  0  0  0  0  0  0  0  0  0  0
  379.8285 -226.8948  174.2747 C   0  0  0  0  0  0  0  0  0  0  0  0
  379.3301 -225.2829  175.9230 C   0  0  0  0  0  0  0  0  0  0  0  0
  378.7151 -225.7261  177.1620 O   0  0  0  0  0  0  0  0  0  0  0  0
  378.4072 -224.6173  177.9999 C   0  0  0  0  0  0  0  0  0  0  0  0
  377.7652 -225.1002  179.2731 C   0  0  0  0  0  0  0  0  0  0  0  0
  381.1476 -262.0312  151.7423 C   0  0  3  0  0  3  0  0  0  0  0  0
  380.9018 -266.3599  149.2754 C   0  0  0  0  0  0  0  0  0  0  0  0
  380.6222 -270.7388  147.1151 C   0  0  0  0  0  0  0  0  0  0  0  0
  380.4083 -275.2095  144.6906 C   0  0  0  0  0  0  0  0  0  0  0  0
  379.9803 -279.1349  142.6269 C   0  0  0  0  0  0  0  0  0  0  0  0
  379.5497 -282.8298  140.3837 C   0  0  0  0  0  0  0  0  0  0  0  0
  378.9851 -286.0133  138.1814 C   0  0  0  0  0  0  0  0  0  0  0  0
  378.4401 -288.7482  136.4455 C   0  0  0  0  0  0  0  0  0  0  0  0
  377.4372 -289.9115  134.2217 C   0  0  0  0  0  0  0  0  0  0  0  0
  377.1093 -291.3095  133.1658 C   0  0  0  0  0  0  0  0  0  0  0  0
  376.3802 -290.9823  131.8662 C   0  0  0  0  0  0  0  0  0  0  0  0
  376.1591 -292.2355  131.0574 C   0  0  0  0  0  0  0  0  0  0  0  0
  384.0761 -274.0686  145.0508 H   0  0  0  0  0  0  0  0  0  0  0  0
  383.4524 -271.4696  146.3023 H   0  0  0  0  0  0  0  0  0  0  0  0
  383.4048 -271.4685  146.2818 H   0  0  0  0  0  0  0  0  0  0  0  0
  382.5807 -268.0923  148.3163 H   0  0  0  0  0  0  0  0  0  0  0  0
  382.7152 -272.3905  146.6710 H   0  0  0  0  0  0  0  0  0  0  0  0
  382.6337 -272.3715  146.5736 H   0  0  0  0  0  0  0  0  0  0  0  0
  383.1107 -275.9807  144.2444 H   0  0  0  0  0  0  0  0  0  0  0  0
  383.2387 -275.8694  144.0517 H   0  0  0  0  0  0  0  0  0  0  0  0
  384.1262 -278.8345  141.7815 H   0  0  0  0  0  0  0  0  0  0  0  0
  383.7130 -278.7495  141.5760 H   0  0  0  0  0  0  0  0  0  0  0  0
  385.6401 -280.3928  142.2679 H   0  0  0  0  0  0  0  0  0  0  0  0
  384.6732 -281.4099  141.1931 H   0  0  0  0  0  0  0  0  0  0  0  0
  385.5668 -277.7624  140.0817 H   0  0  0  0  0  0  0  0  0  0  0  0
  384.7971 -279.8281  139.4430 H   0  0  0  0  0  0  0  0  0  0  0  0
  385.4927 -277.1580  141.7965 H   0  0  0  0  0  0  0  0  0  0  0  0
  384.7779 -277.9687  142.5657 H   0  0  0  0  0  0  0  0  0  0  0  0
  383.9674 -276.8222  141.8111 H   0  0  0  0  0  0  0  0  0  0  0  0
  385.4375 -276.5818  140.7105 H   0  0  0  0  0  0  0  0  0  0  0  0
  382.3446 -274.9052  143.8491 H   0  0  0  0  0  0  0  0  0  0  0  0
  383.6415 -274.9849  141.2499 H   0  0  0  0  0  0  0  0  0  0  0  0
  384.5364 -275.5142  141.8545 H   0  0  0  0  0  0  0  0  0  0  0  0
  385.5034 -274.6237  142.8783 H   0  0  0  0  0  0  0  0  0  0  0  0
  382.6201 -273.5559  144.3566 H   0  0  0  0  0  0  0  0  0  0  0  0
  383.7954 -273.1221  142.6626 H   0  0  0  0  0  0  0  0  0  0  0  0
  384.5026 -272.3691  143.9072 H   0  0  0  0  0  0  0  0  0  0  0  0
  384.7970 -273.4658  145.3030 H   0  0  0  0  0  0  0  0  0  0  0  0
  382.7707 -272.7574  143.8603 H   0  0  0  0  0  0  0  0  0  0  0  0
  384.2817 -270.2746  144.3782 H   0  0  0  0  0  0  0  0  0  0  0  0
  382.7182 -269.8052  148.4013 H   0  0  0  0  0  0  0  0  0  0  0  0
  383.9143 -268.1437  145.4914 H   0  0  0  0  0  0  0  0  0  0  0  0
  383.3432 -267.3817  148.4158 H   0  0  0  0  0  0  0  0  0  0  0  0
  383.2318 -266.1094  146.8675 H   0  0  0  0  0  0  0  0  0  0  0  0
  382.7016 -265.1859  148.1164 H   0  0  0  0  0  0  0  0  0  0  0  0
  382.7169 -265.8288  149.9884 H   0  0  0  0  0  0  0  0  0  0  0  0
  381.6190 -263.9338  149.1920 H   0  0  0  0  0  0  0  0  0  0  0  0
  382.2310 -264.0244  147.4390 H   0  0  0  0  0  0  0  0  0  0  0  0
  381.1663 -262.6999  148.4536 H   0  0  0  0  0  0  0  0  0  0  0  0
  381.6849 -262.4978  149.2013 H   0  0  0  0  0  0  0  0  0  0  0  0
  381.0453 -261.3340  149.3780 H   0  0  0  0  0  0  0  0  0  0  0  0
  382.5668 -261.6362  148.4930 H   0  0  0  0  0  0  0  0  0  0  0  0
  379.9698 -261.4254  150.9108 H   0  0  0  0  0  0  0  0  0  0  0  0
  380.8385 -260.2698  150.4479 H   0  0  0  0  0  0  0  0  0  0  0  0
  381.3666 -259.3571  151.4179 H   0  0  0  0  0  0  0  0  0  0  0  0
  381.3419 -259.4035  149.5543 H   0  0  0  0  0  0  0  0  0  0  0  0
  380.8085 -259.7356  152.5568 H   0  0  0  0  0  0  0  0  0  0  0  0
  379.9545 -258.7571  151.2950 H   0  0  0  0  0  0  0  0  0  0  0  0
  382.1820 -257.4274  152.2022 H   0  0  0  0  0  0  0  0  0  0  0  0
  380.4375 -257.0992  151.6952 H   0  0  0  0  0  0  0  0  0  0  0  0
  381.1560 -251.4060  154.5802 H   0  0  0  0  0  0  0  0  0  0  0  0
  379.1192 -251.7209  154.8990 H   0  0  0  0  0  0  0  0  0  0  0  0
  379.8880 -249.6830  154.7044 H   0  0  0  0  0  0  0  0  0  0  0  0
  378.9027 -250.2996  156.8237 H   0  0  0  0  0  0  0  0  0  0  0  0
  380.6305 -249.1437  155.7241 H   0  0  0  0  0  0  0  0  0  0  0  0
  380.8714 -248.6778  154.5344 H   0  0  0  0  0  0  0  0  0  0  0  0
  379.3708 -248.9639  158.0337 H   0  0  0  0  0  0  0  0  0  0  0  0
  378.2255 -248.8787  156.4189 H   0  0  0  0  0  0  0  0  0  0  0  0
  376.9211 -247.1467  155.9906 H   0  0  0  0  0  0  0  0  0  0  0  0
  379.1573 -247.1109  154.4147 H   0  0  0  0  0  0  0  0  0  0  0  0
  379.0878 -246.8078  159.5185 H   0  0  0  0  0  0  0  0  0  0  0  0
  377.2682 -247.1184  157.4927 H   0  0  0  0  0  0  0  0  0  0  0  0
  379.8831 -245.0551  156.1276 H   0  0  0  0  0  0  0  0  0  0  0  0
  379.9239 -244.1822  157.6022 H   0  0  0  0  0  0  0  0  0  0  0  0
  376.7908 -245.3663  158.7415 H   0  0  0  0  0  0  0  0  0  0  0  0
  378.4901 -247.2095  157.2028 H   0  0  0  0  0  0  0  0  0  0  0  0
  379.3594 -242.3737  157.2530 H   0  0  0  0  0  0  0  0  0  0  0  0
  378.0273 -242.5595  158.1811 H   0  0  0  0  0  0  0  0  0  0  0  0
  380.6541 -240.3071  159.0109 H   0  0  0  0  0  0  0  0  0  0  0  0
  380.7540 -243.2583  157.3868 H   0  0  0  0  0  0  0  0  0  0  0  0
  378.6727 -240.1839  158.0010 H   0  0  0  0  0  0  0  0  0  0  0  0
  379.7533 -240.9459  160.0143 H   0  0  0  0  0  0  0  0  0  0  0  0
  377.8243 -238.9225  158.1075 H   0  0  0  0  0  0  0  0  0  0  0  0
  379.0881 -239.5321  157.0432 H   0  0  0  0  0  0  0  0  0  0  0  0
  379.4765 -237.3991  160.5495 H   0  0  0  0  0  0  0  0  0  0  0  0
  377.7355 -239.3899  159.1845 H   0  0  0  0  0  0  0  0  0  0  0  0
  376.9370 -236.3603  160.9822 H   0  0  0  0  0  0  0  0  0  0  0  0
  376.1330 -237.8386  160.6670 H   0  0  0  0  0  0  0  0  0  0  0  0
  379.0414 -236.4843  160.6841 H   0  0  0  0  0  0  0  0  0  0  0  0
  379.9946 -238.3990  160.9687 H   0  0  0  0  0  0  0  0  0  0  0  0
  378.4150 -238.5482  160.4426 H   0  0  0  0  0  0  0  0  0  0  0  0
  378.5208 -238.6793  160.8313 H   0  0  0  0  0  0  0  0  0  0  0  0
  378.7010 -242.1446  159.3547 H   0  0  0  0  0  0  0  0  0  0  0  0
  378.6786 -242.1154  159.2279 H   0  0  0  0  0  0  0  0  0  0  0  0
  379.4575 -246.0314  158.0065 H   0  0  0  0  0  0  0  0  0  0  0  0
  379.5003 -246.0200  157.9798 H   0  0  0  0  0  0  0  0  0  0  0  0
  380.1095 -250.2747  156.3051 H   0  0  0  0  0  0  0  0  0  0  0  0
  380.0389 -250.2911  156.3395 H   0  0  0  0  0  0  0  0  0  0  0  0
  380.5229 -254.7233  154.6758 H   0  0  0  0  0  0  0  0  0  0  0  0
  380.5350 -249.6796  157.2312 H   0  0  0  0  0  0  0  0  0  0  0  0
  380.4964 -249.6952  157.2699 H   0  0  0  0  0  0  0  0  0  0  0  0
  380.0150 -245.1218  160.1528 H   0  0  0  0  0  0  0  0  0  0  0  0
  380.0379 -245.1406  160.2141 H   0  0  0  0  0  0  0  0  0  0  0  0
  379.9038 -240.6768  162.9511 H   0  0  0  0  0  0  0  0  0  0  0  0
  379.9581 -240.6887  162.9966 H   0  0  0  0  0  0  0  0  0  0  0  0
  379.7792 -236.5735  165.8087 H   0  0  0  0  0  0  0  0  0  0  0  0
  379.8624 -236.5231  165.7389 H   0  0  0  0  0  0  0  0  0  0  0  0
  379.9198 -232.8425  168.5750 H   0  0  0  0  0  0  0  0  0  0  0  0
  379.8957 -232.7194  168.3955 H   0  0  0  0  0  0  0  0  0  0  0  0
  380.6902 -229.1480  170.7098 H   0  0  0  0  0  0  0  0  0  0  0  0
  380.8100 -229.4996  171.1738 H   0  0  0  0  0  0  0  0  0  0  0  0
  379.8589 -226.2421  172.8578 H   0  0  0  0  0  0  0  0  0  0  0  0
  380.8531 -226.4765  173.2485 H   0  0  0  0  0  0  0  0  0  0  0  0
  380.3265 -227.1190  175.5744 H   0  0  0  0  0  0  0  0  0  0  0  0
  378.7348 -226.9919  174.8328 H   0  0  0  0  0  0  0  0  0  0  0  0
  378.6395 -224.6030  175.4477 H   0  0  0  0  0  0  0  0  0  0  0  0
  380.2280 -224.7315  176.1991 H   0  0  0  0  0  0  0  0  0  0  0  0
  377.7296 -223.9520  177.4815 H   0  0  0  0  0  0  0  0  0  0  0  0
  379.3165 -224.0796  178.2332 H   0  0  0  0  0  0  0  0  0  0  0  0
  376.8545 -225.6368  179.0462 H   0  0  0  0  0  0  0  0  0  0  0  0
  377.5296 -224.2621  179.9127 H   0  0  0  0  0  0  0  0  0  0  0  0
  378.4389 -225.7641  179.7967 H   0  0  0  0  0  0  0  0  0  0  0  0
  381.1778 -268.2987  148.1077 H   0  0  0  0  0  0  0  0  0  0  0  0
  381.1019 -268.3013  148.0936 H   0  0  0  0  0  0  0  0  0  0  0  0
  380.7982 -273.0445  146.0296 H   0  0  0  0  0  0  0  0  0  0  0  0
  380.7746 -273.0796  146.1048 H   0  0  0  0  0  0  0  0  0  0  0  0
  380.4716 -277.4122  143.7673 H   0  0  0  0  0  0  0  0  0  0  0  0
  380.4521 -277.3780  143.6931 H   0  0  0  0  0  0  0  0  0  0  0  0
  379.9932 -281.4989  141.5980 H   0  0  0  0  0  0  0  0  0  0  0  0
  380.0680 -281.4300  141.4437 H   0  0  0  0  0  0  0  0  0  0  0  0
  379.4605 -285.2671  139.5226 H   0  0  0  0  0  0  0  0  0  0  0  0
  379.7047 -285.2051  139.3661 H   0  0  0  0  0  0  0  0  0  0  0  0
  379.1064 -287.8267  136.5605 H   0  0  0  0  0  0  0  0  0  0  0  0
  378.0130 -287.7203  136.7699 H   0  0  0  0  0  0  0  0  0  0  0  0
  377.5867 -290.7960  135.9175 H   0  0  0  0  0  0  0  0  0  0  0  0
  378.9460 -290.5806  135.2072 H   0  0  0  0  0  0  0  0  0  0  0  0
  377.9161 -289.3523  133.3953 H   0  0  0  0  0  0  0  0  0  0  0  0
  376.3696 -289.6013  134.1997 H   0  0  0  0  0  0  0  0  0  0  0  0
  376.5133 -292.0144  133.7272 H   0  0  0  0  0  0  0  0  0  0  0  0
  378.0580 -291.7655  132.9235 H   0  0  0  0  0  0  0  0  0  0  0  0
  376.9696 -290.2802  131.2905 H   0  0  0  0  0  0  0  0  0  0  0  0
  375.4253 -290.5266  132.0946 H   0  0  0  0  0  0  0  0  0  0  0  0
  377.1099 -292.6915  130.8202 H   0  0  0  0  0  0  0  0  0  0  0  0
  375.6431 -292.0003  130.1384 H   0  0  0  0  0  0  0  0  0  0  0  0
  375.5650 -292.9380  131.6246 H   0  0  0  0  0  0  0  0  0  0  0  0
  1  2  1  0  0  0  0
  1 78  1  0  0  0  0
  2  3  1  0  0  0  0
  2 79  1  0  0  0  0
  2 80  1  0  0  0  0
  3  4  1  0  0  0  0
  3 66  1  0  0  0  0
  3 81  1  0  0  0  0
  4  5  1  0  0  0  0
  4 82  1  0  0  0  0
  4 83  1  0  0  0  0
  5  6  1  0  0  0  0
  5 84  1  0  0  0  0
  5 85  1  0  0  0  0
  6  7  1  0  0  0  0
  6 86  1  0  0  0  0
  6 87  1  0  0  0  0
  7  8  1  0  0  0  0
  7 88  1  0  0  0  0
  7 89  1  0  0  0  0
  8  9  1  0  0  0  0
  8 90  1  0  0  0  0
  8 91  1  0  0  0  0
  9 10  1  0  0  0  0
  9 92  1  0  0  0  0
  9 93  1  0  0  0  0
 10 11  1  0  0  0  0
 10 94  1  0  0  0  0
 10 95  1  0  0  0  0
 11 12  1  0  0  0  0
 11 96  1  0  0  0  0
 11 97  1  0  0  0  0
 12 13  1  0  0  0  0
 12 98  1  0  0  0  0
 12 99  1  0  0  0  0
 13 14  1  0  0  0  0
 13100  1  0  0  0  0
 13101  1  0  0  0  0
 14 15  1  0  0  0  0
 14102  1  0  0  0  0
 14103  1  0  0  0  0
 15 16  2  3  0  0  0
 15104  1  0  0  0  0
 16 17  1  0  0  0  0
 16105  1  0  0  0  0
 17 18  2  3  0  0  0
 17106  1  0  0  0  0
 18 19  1  0  0  0  0
 18107  1  0  0  0  0
 19 20  2  3  0  0  0
 19108  1  0  0  0  0
 20 21  1  0  0  0  0
 20109  1  0  0  0  0
 21 22  1  0  0  0  0
 21110  1  0  0  0  0
 21111  1  0  0  0  0
 22 23  1  0  0  0  0
 22112  1  0  0  0  0
 22113  1  0  0  0  0
 23 24  1  0  0  0  0
 23114  1  0  0  0  0
 23115  1  0  0  0  0
 24 25  1  0  0  0  0
 24116  1  0  0  0  0
 24117  1  0  0  0  0
 25 26  1  0  0  0  0
 25118  1  0  0  0  0
 25119  1  0  0  0  0
 26 27  1  0  0  0  0
 26120  1  0  0  0  0
 26121  1  0  0  0  0
 27 28  1  0  0  0  0
 27122  1  0  0  0  0
 27123  1  0  0  0  0
 28 29  1  0  0  0  0
 28124  1  0  0  0  0
 28125  1  0  0  0  0
 29 30  1  0  0  0  0
 30 31  1  0  0  0  0
 31 32  1  0  0  0  0
 32 33  1  0  0  0  0
 33 34  1  0  0  0  0
 34 35  1  0  0  0  0
 34126  1  0  0  0  0
 34127  1  0  0  0  0
 35 36  1  0  0  0  0
 35128  1  0  0  0  0
 35129  1  0  0  0  0
 36 37  1  0  0  0  0
 36130  1  0  0  0  0
 36131  1  0  0  0  0
 37 38  1  0  0  0  0
 37132  1  0  0  0  0
 37133  1  0  0  0  0
 38 39  1  0  0  0  0
 38134  1  0  0  0  0
 38135  1  0  0  0  0
 39 40  1  0  0  0  0
 39136  1  0  0  0  0
 39137  1  0  0  0  0
 40 41  1  0  0  0  0
 40138  1  0  0  0  0
 40139  1  0  0  0  0
 41 42  1  0  0  0  0
 41140  1  0  0  0  0
 41141  1  0  0  0  0
 42 43  1  0  0  0  0
 42142  1  0  0  0  0
 42143  1  0  0  0  0
 43 44  1  0  0  0  0
 43144  1  0  0  0  0
 43145  1  0  0  0  0
 44 45  1  0  0  0  0
 44146  1  0  0  0  0
 44147  1  0  0  0  0
 45 46  1  0  0  0  0
 45148  1  0  0  0  0
 45149  1  0  0  0  0
 46 47  1  0  0  0  0
 46150  1  0  0  0  0
 46151  1  0  0  0  0
 47 48  1  0  0  0  0
 47152  1  0  0  0  0
 47153  1  0  0  0  0
 48 49  1  0  0  0  0
 48154  1  0  0  0  0
 48155  1  0  0  0  0
 49 50  1  0  0  0  0
 49156  1  0  0  0  0
 49157  1  0  0  0  0
 50 51  1  0  0  0  0
 50158  1  0  0  0  0
 50159  1  0  0  0  0
 51 52  1  0  0  0  0
 51160  1  0  0  0  0
 51161  1  0  0  0  0
 52 53  1  0  0  0  0
 52162  1  0  0  0  0
 52163  1  0  0  0  0
 53 54  1  0  0  0  0
 53 66  1  0  0  0  0
 53164  1  0  0  0  0
 54 55  1  0  0  0  0
 54165  1  0  0  0  0
 54166  1  0  0  0  0
 55 56  1  0  0  0  0
 55167  1  0  0  0  0
 55168  1  0  0  0  0
 56 57  1  0  0  0  0
 56169  1  0  0  0  0
 56170  1  0  0  0  0
 57 58  1  0  0  0  0
 57171  1  0  0  0  0
 57172  1  0  0  0  0
 58 59  1  0  0  0  0
 58173  1  0  0  0  0
 58174  1  0  0  0  0
 59 60  1  0  0  0  0
 59175  1  0  0  0  0
 59176  1  0  0  0  0
 60 61  1  0  0  0  0
 60177  1  0  0  0  0
 60178  1  0  0  0  0
 61 62  1  0  0  0  0
 61179  1  0  0  0  0
 61180  1  0  0  0  0
 62 63  1  0  0  0  0
 62181  1  0  0  0  0
 62182  1  0  0  0  0
 63 64  1  0  0  0  0
 64 65  1  0  0  0  0
 64183  1  0  0  0  0
 64184  1  0  0  0  0
 65185  1  0  0  0  0
 65186  1  0  0  0  0
 65187  1  0  0  0  0
 66 67  1  0  0  0  0
 67 68  1  0  0  0  0
 67188  1  0  0  0  0
 67189  1  0  0  0  0
 68 69  1  0  0  0  0
 68190  1  0  0  0  0
 68191  1  0  0  0  0
 69 70  1  0  0  0  0
 69192  1  0  0  0  0
 69193  1  0  0  0  0
 70 71  1  0  0  0  0
 70194  1  0  0  0  0
 70195  1  0  0  0  0
 71 72  1  0  0  0  0
 71196  1  0  0  0  0
 71197  1  0  0  0  0
 72 73  1  0  0  0  0
 72198  1  0  0  0  0
 72199  1  0  0  0  0
 73 74  1  0  0  0  0
 73200  1  0  0  0  0
 73201  1  0  0  0  0
 74 75  1  0  0  0  0
 74202  1  0  0  0  0
 74203  1  0  0  0  0
 75 76  1  0  0  0  0
 75204  1  0  0  0  0
 75205  1  0  0  0  0
 76 77  1  0  0  0  0
 76206  1  0  0  0  0
 76207  1  0  0  0  0
 77208  1  0  0  0  0
 77209  1  0  0  0  0
 77210  1  0  0  0  0
M  END
$$$$
