
 OpenBabel04232216463D

 52 53  0  0  0  0  0  0  0  0999 V2000
   -1.7179   -3.3143   -5.3418 C   0  0  0  0  0  0  0  0  0  0  0  0
   -0.5851   -3.9986   -4.6408 C   0  0  0  0  0  0  0  0  0  0  0  0
   -0.0706   -5.2085   -5.1085 C   0  0  0  0  0  0  0  0  0  0  0  0
    0.9837   -5.8065   -4.4275 C   0  0  0  0  0  0  0  0  0  0  0  0
    1.5623   -7.1083   -4.8950 C   0  0  0  0  0  0  0  0  0  0  0  0
    1.5383   -5.2598   -3.3182 N   0  0  0  0  0  0  0  0  0  0  0  0
    1.0422   -4.0802   -2.8735 C   0  0  0  0  0  0  0  0  0  0  0  0
    1.6696   -3.4980   -1.6326 C   0  0  0  0  0  0  0  0  0  0  0  0
    0.9781   -3.9482   -0.3369 C   0  0  0  0  0  0  0  0  0  0  0  0
    1.0665   -5.4619   -0.0692 C   0  0  0  0  0  0  0  0  0  0  0  0
    2.5167   -5.8975    0.0808 C   0  0  0  0  0  0  0  0  0  0  0  0
    3.3080   -5.1122    0.6169 O   0  0  0  0  0  0  0  0  0  0  0  0
    2.9170   -7.1787   -0.3111 N   0  0  0  0  0  0  0  0  0  0  0  0
    4.3491   -7.4244   -0.2659 C   0  0  0  0  0  0  0  0  0  0  0  0
    4.7499   -7.6472    1.1063 N   0  0  0  0  0  0  0  0  0  0  0  0
    5.2845   -8.9745    1.3946 C   0  0  0  0  0  0  0  0  0  0  0  0
    4.1684  -10.0114    1.3749 C   0  0  0  0  0  0  0  0  0  0  0  0
    3.4404  -10.2117    2.3434 O   0  0  0  0  0  0  0  0  0  0  0  0
    3.9961  -10.6236    0.1491 N   0  0  0  0  0  0  0  0  0  0  0  0
    2.8090  -11.3865   -0.1402 C   0  0  0  0  0  0  0  0  0  0  0  0
    1.8239  -10.6119   -1.0178 C   0  0  0  0  0  0  0  0  0  0  0  0
    1.4155   -9.2246   -0.4799 C   0  0  0  0  0  0  0  0  0  0  0  0
    2.1272   -8.0578   -1.1867 C   0  0  0  0  0  0  0  0  0  0  0  0
   -0.0160   -3.4293   -3.5005 C   0  0  0  0  0  0  0  0  0  0  0  0
   -2.0622   -3.8907   -6.2060 H   0  0  0  0  0  0  0  0  0  0  0  0
   -1.3990   -2.3306   -5.6998 H   0  0  0  0  0  0  0  0  0  0  0  0
   -2.5654   -3.1923   -4.6602 H   0  0  0  0  0  0  0  0  0  0  0  0
   -0.4891   -5.6798   -5.9950 H   0  0  0  0  0  0  0  0  0  0  0  0
    1.0647   -7.4737   -5.7985 H   0  0  0  0  0  0  0  0  0  0  0  0
    1.4451   -7.8689   -4.1177 H   0  0  0  0  0  0  0  0  0  0  0  0
    2.6267   -6.9857   -5.1142 H   0  0  0  0  0  0  0  0  0  0  0  0
    1.6386   -2.4026   -1.6949 H   0  0  0  0  0  0  0  0  0  0  0  0
    2.7346   -3.7594   -1.6182 H   0  0  0  0  0  0  0  0  0  0  0  0
   -0.0776   -3.6522   -0.3563 H   0  0  0  0  0  0  0  0  0  0  0  0
    1.4352   -3.4030    0.4995 H   0  0  0  0  0  0  0  0  0  0  0  0
    0.5132   -5.9946   -0.8380 H   0  0  0  0  0  0  0  0  0  0  0  0
    0.5710   -5.6832    0.8837 H   0  0  0  0  0  0  0  0  0  0  0  0
    4.8714   -6.5399   -0.6532 H   0  0  0  0  0  0  0  0  0  0  0  0
    4.6212   -8.2483   -0.9323 H   0  0  0  0  0  0  0  0  0  0  0  0
    3.9513   -7.4456    1.7078 H   0  0  0  0  0  0  0  0  0  0  0  0
    5.7245   -8.9778    2.3982 H   0  0  0  0  0  0  0  0  0  0  0  0
    6.0882   -9.2420    0.7000 H   0  0  0  0  0  0  0  0  0  0  0  0
    4.6368  -10.4139   -0.6043 H   0  0  0  0  0  0  0  0  0  0  0  0
    2.3194  -11.6952    0.7892 H   0  0  0  0  0  0  0  0  0  0  0  0
    3.1319  -12.2942   -0.6612 H   0  0  0  0  0  0  0  0  0  0  0  0
    0.9221  -11.2315   -1.1073 H   0  0  0  0  0  0  0  0  0  0  0  0
    2.2286  -10.5268   -2.0338 H   0  0  0  0  0  0  0  0  0  0  0  0
    1.5076   -9.1682    0.6091 H   0  0  0  0  0  0  0  0  0  0  0  0
    0.3428   -9.1155   -0.6930 H   0  0  0  0  0  0  0  0  0  0  0  0
    1.3693   -7.4727   -1.7065 H   0  0  0  0  0  0  0  0  0  0  0  0
    2.7812   -8.4133   -1.9905 H   0  0  0  0  0  0  0  0  0  0  0  0
   -0.3898   -2.4874   -3.1099 H   0  0  0  0  0  0  0  0  0  0  0  0
  1  2  1  0  0  0  0
  1 25  1  0  0  0  0
  1 26  1  0  0  0  0
  1 27  1  0  0  0  0
  2  3  1  0  0  0  0
  2 24  2  0  0  0  0
  3  4  2  0  0  0  0
  3 28  1  0  0  0  0
  4  5  1  0  0  0  0
  4  6  1  0  0  0  0
  5 29  1  0  0  0  0
  5 30  1  0  0  0  0
  5 31  1  0  0  0  0
  6  7  2  0  0  0  0
  7  8  1  0  0  0  0
  7 24  1  0  0  0  0
  8  9  1  0  0  0  0
  8 32  1  0  0  0  0
  8 33  1  0  0  0  0
  9 10  1  0  0  0  0
  9 34  1  0  0  0  0
  9 35  1  0  0  0  0
 10 11  1  0  0  0  0
 10 36  1  0  0  0  0
 10 37  1  0  0  0  0
 11 12  2  0  0  0  0
 11 13  1  0  0  0  0
 13 14  1  0  0  0  0
 13 23  1  0  0  0  0
 14 15  1  0  0  0  0
 14 38  1  0  0  0  0
 14 39  1  0  0  0  0
 15 16  1  0  0  0  0
 15 40  1  0  0  0  0
 16 17  1  0  0  0  0
 16 41  1  0  0  0  0
 16 42  1  0  0  0  0
 17 18  2  0  0  0  0
 17 19  1  0  0  0  0
 19 20  1  0  0  0  0
 19 43  1  0  0  0  0
 20 21  1  0  0  0  0
 20 44  1  0  0  0  0
 20 45  1  0  0  0  0
 21 22  1  0  0  0  0
 21 46  1  0  0  0  0
 21 47  1  0  0  0  0
 22 23  1  0  0  0  0
 22 48  1  0  0  0  0
 22 49  1  0  0  0  0
 23 50  1  0  0  0  0
 23 51  1  0  0  0  0
 24 52  1  0  0  0  0
M  END
$$$$
