
 OpenBabel04232216423D

 23 23  0  0  0  0  0  0  0  0999 V2000
    0.0044   -1.3764   -0.1513 C   0  0  0  0  0  0  0  0  0  0  0  0
    0.6372   -0.8331    0.9447 C   0  0  0  0  0  0  0  0  0  0  0  0
    0.7335    0.5536    1.0261 C   0  0  0  0  0  0  0  0  0  0  0  0
    0.1953    1.3200   -0.0017 C   0  0  0  0  0  0  0  0  0  0  0  0
    0.2431    2.8246    0.0133 C   0  0  0  0  0  0  0  0  0  0  0  0
    1.5934    3.2945    0.0337 O   0  0  0  0  0  0  0  0  0  0  0  0
    1.6486    4.7217    0.0301 C   0  0  0  0  0  0  0  0  0  0  0  0
    3.1134    5.1386    0.0461 C   0  0  0  0  0  0  0  0  0  0  0  0
    3.2650    6.6485    0.0507 C   0  0  0  0  0  0  0  0  0  0  0  0
   -0.4275    0.7399   -1.0529 N   0  0  0  0  0  0  0  0  0  0  0  0
   -0.5229   -0.6207   -1.1336 N   0  0  0  0  0  0  0  0  0  0  0  0
   -0.1071   -2.4470   -0.2809 H   0  0  0  0  0  0  0  0  0  0  0  0
    1.0511   -1.4681    1.7192 H   0  0  0  0  0  0  0  0  0  0  0  0
    1.2276    1.0179    1.8707 H   0  0  0  0  0  0  0  0  0  0  0  0
   -0.2856    3.1954    0.8987 H   0  0  0  0  0  0  0  0  0  0  0  0
   -0.2593    3.2061   -0.8844 H   0  0  0  0  0  0  0  0  0  0  0  0
    1.1357    5.1105    0.9179 H   0  0  0  0  0  0  0  0  0  0  0  0
    1.1531    5.1135   -0.8668 H   0  0  0  0  0  0  0  0  0  0  0  0
    3.6264    4.7138   -0.8252 H   0  0  0  0  0  0  0  0  0  0  0  0
    3.6085    4.7102    0.9259 H   0  0  0  0  0  0  0  0  0  0  0  0
    2.8071    7.0894   -0.8404 H   0  0  0  0  0  0  0  0  0  0  0  0
    4.3235    6.9251    0.0622 H   0  0  0  0  0  0  0  0  0  0  0  0
    2.7887    7.0859    0.9338 H   0  0  0  0  0  0  0  0  0  0  0  0
  1  2  1  0  0  0  0
  1 11  2  0  0  0  0
  1 12  1  0  0  0  0
  2  3  2  0  0  0  0
  2 13  1  0  0  0  0
  3  4  1  0  0  0  0
  3 14  1  0  0  0  0
  4  5  1  0  0  0  0
  4 10  2  0  0  0  0
  5  6  1  0  0  0  0
  5 15  1  0  0  0  0
  5 16  1  0  0  0  0
  6  7  1  0  0  0  0
  7  8  1  0  0  0  0
  7 17  1  0  0  0  0
  7 18  1  0  0  0  0
  8  9  1  0  0  0  0
  8 19  1  0  0  0  0
  8 20  1  0  0  0  0
  9 21  1  0  0  0  0
  9 22  1  0  0  0  0
  9 23  1  0  0  0  0
 10 11  1  0  0  0  0
M  END
$$$$
