
 OpenBabel04232216563D

 66 68  0  0  0  0  0  0  0  0999 V2000
    6.7985   -1.7908   -3.9742 C   0  0  0  0  0  0  0  0  0  0  0  0
    8.0545   -0.9400   -4.2297 N   0  0  0  0  0  0  0  0  0  0  0  0
    7.7727    0.5218   -3.4317 C   0  0  0  0  0  0  0  0  0  0  0  0
    6.7829    0.9892   -2.4579 C   0  0  0  0  0  0  0  0  0  0  0  0
    6.9904    1.1323   -0.8666 C   0  0  0  0  0  0  0  0  0  0  0  0
    6.6157    2.6035    0.3306 C   0  0  0  0  0  0  0  0  0  0  0  0
    5.8601    3.1878    1.9958 C   0  0  0  0  0  0  0  0  0  0  0  0
    6.3608    3.2760    3.6255 C   0  0  0  0  0  0  0  0  0  0  0  0
    6.1255    2.0080    4.4679 C   0  0  0  0  0  0  0  0  0  0  0  0
    7.4099    1.2577    4.3608 C   0  0  0  0  0  0  0  0  0  0  0  0
    7.2087    0.2992    3.2713 C   0  0  0  0  0  0  0  0  0  0  0  0
    8.5982    0.0993    2.7112 C   0  0  0  0  0  0  0  0  0  0  0  0
    8.1130    0.2518    1.3516 C   0  0  0  0  0  0  0  0  0  0  0  0
    9.0153    0.1816    0.2446 C   0  0  0  0  0  0  0  0  0  0  0  0
    7.9181    0.0975   -0.7088 C   0  0  0  0  0  0  0  0  0  0  0  0
    8.0308   -1.2973   -1.2963 C   0  0  0  0  0  0  0  0  0  0  0  0
    9.1740   -1.8832   -1.7727 C   0  0  0  0  0  0  0  0  0  0  0  0
   10.5725   -1.2462   -1.7516 C   0  0  0  0  0  0  0  0  0  0  0  0
    9.2494   -3.1387   -2.3776 N   0  0  0  0  0  0  0  0  0  0  0  0
    9.6629   -3.0703   -3.6233 C   0  0  0  0  0  0  0  0  0  0  0  0
   10.2988   -4.3230   -4.3198 C   0  0  0  0  0  0  0  0  0  0  0  0
   11.5324   -4.7998   -4.0807 C   0  0  0  0  0  0  0  0  0  0  0  0
   12.2884   -5.6975   -5.0473 C   0  0  0  0  0  0  0  0  0  0  0  0
   13.6376   -5.5992   -5.0723 C   0  0  0  0  0  0  0  0  0  0  0  0
   14.3084   -5.1435   -6.1816 C   0  0  0  0  0  0  0  0  0  0  0  0
   14.2429   -3.9046   -6.6124 C   0  0  0  0  0  0  0  0  0  0  0  0
   12.9487   -3.0044   -6.5685 C   0  0  0  0  0  0  0  0  0  0  0  0
   12.2430   -2.3195   -5.5609 C   0  0  0  0  0  0  0  0  0  0  0  0
   10.5996   -1.7355   -5.4967 C   0  0  0  0  0  0  0  0  0  0  0  0
    9.5434   -1.7355   -4.4906 C   0  0  0  0  0  0  0  0  0  0  0  0
    6.4135   -2.2750   -4.8686 H   0  0  0  0  0  0  0  0  0  0  0  0
    5.9676   -1.1396   -3.6395 H   0  0  0  0  0  0  0  0  0  0  0  0
    6.8766   -2.5348   -3.1780 H   0  0  0  0  0  0  0  0  0  0  0  0
    7.2490    0.8151   -4.3818 H   0  0  0  0  0  0  0  0  0  0  0  0
    5.7150    0.9748   -2.6767 H   0  0  0  0  0  0  0  0  0  0  0  0
    6.1633    3.3722   -0.3098 H   0  0  0  0  0  0  0  0  0  0  0  0
    7.6154    2.9744    0.5608 H   0  0  0  0  0  0  0  0  0  0  0  0
    5.9166    4.2907    1.8489 H   0  0  0  0  0  0  0  0  0  0  0  0
    4.7743    3.0142    2.0592 H   0  0  0  0  0  0  0  0  0  0  0  0
    5.8162    4.0501    4.2207 H   0  0  0  0  0  0  0  0  0  0  0  0
    7.3891    3.6627    3.7078 H   0  0  0  0  0  0  0  0  0  0  0  0
    5.2331    1.5028    4.0683 H   0  0  0  0  0  0  0  0  0  0  0  0
    5.9295    2.1278    5.5424 H   0  0  0  0  0  0  0  0  0  0  0  0
    7.7643    0.7282    5.2394 H   0  0  0  0  0  0  0  0  0  0  0  0
    8.2041    1.9604    4.0831 H   0  0  0  0  0  0  0  0  0  0  0  0
    6.4270    0.7444    2.5947 H   0  0  0  0  0  0  0  0  0  0  0  0
    6.7472   -0.6494    3.5216 H   0  0  0  0  0  0  0  0  0  0  0  0
    9.0740   -0.8470    2.9402 H   0  0  0  0  0  0  0  0  0  0  0  0
    9.3104    0.9641    2.8220 H   0  0  0  0  0  0  0  0  0  0  0  0
    7.8460    1.2799    1.3832 H   0  0  0  0  0  0  0  0  0  0  0  0
    7.2318   -0.4018    1.2197 H   0  0  0  0  0  0  0  0  0  0  0  0
    9.5876   -0.7217    0.4094 H   0  0  0  0  0  0  0  0  0  0  0  0
    9.6163    1.0273   -0.0783 H   0  0  0  0  0  0  0  0  0  0  0  0
    7.1017   -1.8868   -1.2534 H   0  0  0  0  0  0  0  0  0  0  0  0
   10.7721   -0.4737   -1.0289 H   0  0  0  0  0  0  0  0  0  0  0  0
   10.8007   -0.7715   -2.7157 H   0  0  0  0  0  0  0  0  0  0  0  0
   11.2855   -2.0292   -1.5631 H   0  0  0  0  0  0  0  0  0  0  0  0
    9.7566   -4.6545   -5.2075 H   0  0  0  0  0  0  0  0  0  0  0  0
   12.1710   -4.2983   -3.3384 H   0  0  0  0  0  0  0  0  0  0  0  0
   11.7849   -5.7898   -6.0083 H   0  0  0  0  0  0  0  0  0  0  0  0
   14.2092   -5.4967   -4.1576 H   0  0  0  0  0  0  0  0  0  0  0  0
   15.1554   -5.8610   -6.6031 H   0  0  0  0  0  0  0  0  0  0  0  0
   15.0552   -3.5730   -7.2728 H   0  0  0  0  0  0  0  0  0  0  0  0
   13.1382   -2.4341   -7.4887 H   0  0  0  0  0  0  0  0  0  0  0  0
   12.8022   -1.3764   -5.3854 H   0  0  0  0  0  0  0  0  0  0  0  0
   10.2430   -2.1556   -6.4442 H   0  0  0  0  0  0  0  0  0  0  0  0
  1  2  1  0  0  0  0
  1 31  1  0  0  0  0
  1 32  1  0  0  0  0
  1 33  1  0  0  0  0
  2  3  1  0  0  0  0
  2 30  1  0  0  0  0
  3  4  2  3  0  0  0
  3 34  1  0  0  0  0
  4  5  1  0  0  0  0
  4 35  1  0  0  0  0
  5  6  1  0  0  0  0
  5 15  2  3  0  0  0
  6  7  1  0  0  0  0
  6 36  1  0  0  0  0
  6 37  1  0  0  0  0
  7  8  1  0  0  0  0
  7 38  1  0  0  0  0
  7 39  1  0  0  0  0
  8  9  1  0  0  0  0
  8 40  1  0  0  0  0
  8 41  1  0  0  0  0
  9 10  1  0  0  0  0
  9 42  1  0  0  0  0
  9 43  1  0  0  0  0
 10 11  1  0  0  0  0
 10 44  1  0  0  0  0
 10 45  1  0  0  0  0
 11 12  1  0  0  0  0
 11 46  1  0  0  0  0
 11 47  1  0  0  0  0
 12 13  1  0  0  0  0
 12 48  1  0  0  0  0
 12 49  1  0  0  0  0
 13 14  1  0  0  0  0
 13 50  1  0  0  0  0
 13 51  1  0  0  0  0
 14 15  1  0  0  0  0
 14 52  1  0  0  0  0
 14 53  1  0  0  0  0
 15 16  1  0  0  0  0
 16 17  2  3  0  0  0
 16 54  1  0  0  0  0
 17 18  1  0  0  0  0
 17 19  1  0  0  0  0
 18 55  1  0  0  0  0
 18 56  1  0  0  0  0
 18 57  1  0  0  0  0
 19 20  2  3  0  0  0
 20 21  1  0  0  0  0
 20 30  1  0  0  0  0
 21 22  2  3  0  0  0
 21 58  1  0  0  0  0
 22 23  1  0  0  0  0
 22 59  1  0  0  0  0
 23 24  2  3  0  0  0
 23 60  1  0  0  0  0
 24 25  1  0  0  0  0
 24 61  1  0  0  0  0
 25 26  2  3  0  0  0
 25 62  1  0  0  0  0
 26 27  1  0  0  0  0
 26 63  1  0  0  0  0
 27 28  2  3  0  0  0
 27 64  1  0  0  0  0
 28 29  1  0  0  0  0
 28 65  1  0  0  0  0
 29 30  2  3  0  0  0
 29 66  1  0  0  0  0
M  END
$$$$
