
 OpenBabel04232216393D

 64 65  0  0  1  0  0  0  0  0999 V2000
    2.0285   -0.8205   -3.6359 C   0  0  0  0  0  0  0  0  0  0  0  0
    2.9115   -0.1810   -2.8599 C   0  0  0  0  0  0  0  0  0  0  0  0
    3.5625   -0.8265   -1.6754 C   0  0  0  0  0  0  0  0  0  0  0  0
    5.1251   -0.8522   -1.5691 C   0  0  3  0  0  0  0  0  0  0  0  0
    5.3429   -1.5758   -0.1880 C   0  0  3  0  0  3  0  0  0  0  0  0
    4.9684   -0.7843    1.0657 C   0  0  0  0  0  0  0  0  0  0  0  0
    5.0471   -3.0639    0.0255 C   0  0  0  0  0  0  0  0  0  0  0  0
    5.6851   -4.0641   -0.9365 C   0  0  0  0  0  0  0  0  0  0  0  0
    5.0125   -4.1766   -2.3207 C   0  0  0  0  0  0  0  0  0  0  0  0
    6.0776   -4.4065   -3.4108 C   0  0  0  0  0  0  0  0  0  0  0  0
    5.7720   -3.9658   -4.8038 C   0  0  0  0  0  0  0  0  0  0  0  0
    5.4580   -4.8555   -5.6141 O   0  0  0  0  0  0  0  0  0  0  0  0
    5.9380   -2.4136   -5.3517 C   0  0  0  0  0  0  0  0  0  0  0  0
    4.6045   -2.0200   -6.0460 C   0  0  0  0  0  0  0  0  0  0  0  0
    4.1061   -2.9405   -7.1186 C   0  0  0  0  0  0  0  0  0  0  0  0
    3.8373   -2.2110   -8.4059 C   0  0  0  0  0  0  0  0  0  0  0  0
    4.0767   -3.2350   -9.4849 C   0  0  0  0  0  0  0  0  0  0  0  0
    4.2536   -2.5890  -10.8308 C   0  0  0  0  0  0  0  0  0  0  0  0
    5.4820   -3.2148  -11.4627 C   0  0  0  0  0  0  0  0  0  0  0  0
    6.7994   -2.5675  -10.9483 C   0  0  0  0  0  0  0  0  0  0  0  0
    7.4060   -2.8690   -9.4897 C   0  0  0  0  0  0  0  0  0  0  0  0
    7.1573   -1.9352   -8.1564 C   0  0  0  0  0  0  0  0  0  0  0  0
    7.1732   -2.4356   -6.5355 C   0  0  0  0  0  0  0  0  0  0  0  0
    5.8110   -1.3451   -4.0910 C   0  0  0  0  0  0  0  0  0  0  0  0
    5.9877   -1.4626   -2.7450 C   0  0  0  0  0  0  0  0  0  0  0  0
    1.5459   -0.3211   -4.4678 H   0  0  0  0  0  0  0  0  0  0  0  0
    1.7717   -1.8643   -3.4625 H   0  0  0  0  0  0  0  0  0  0  0  0
    3.1269    0.8708   -3.0327 H   0  0  0  0  0  0  0  0  0  0  0  0
    3.1514   -1.8397   -1.5598 H   0  0  0  0  0  0  0  0  0  0  0  0
    3.1546   -0.2781   -0.8085 H   0  0  0  0  0  0  0  0  0  0  0  0
    5.4813    0.1823   -1.4377 H   0  0  0  0  0  0  0  0  0  0  0  0
    5.1650    0.2845    0.9557 H   0  0  0  0  0  0  0  0  0  0  0  0
    5.5173   -1.1423    1.9453 H   0  0  0  0  0  0  0  0  0  0  0  0
    3.8975   -0.9055    1.2900 H   0  0  0  0  0  0  0  0  0  0  0  0
    3.9623   -3.2340    0.0868 H   0  0  0  0  0  0  0  0  0  0  0  0
    5.4304   -3.3252    1.0267 H   0  0  0  0  0  0  0  0  0  0  0  0
    5.6573   -5.0578   -0.4707 H   0  0  0  0  0  0  0  0  0  0  0  0
    6.7477   -3.8133   -1.0152 H   0  0  0  0  0  0  0  0  0  0  0  0
    4.3839   -3.3214   -2.5613 H   0  0  0  0  0  0  0  0  0  0  0  0
    4.3009   -5.0131   -2.2906 H   0  0  0  0  0  0  0  0  0  0  0  0
    6.1984   -5.5084   -3.4534 H   0  0  0  0  0  0  0  0  0  0  0  0
    7.0689   -4.0529   -3.1446 H   0  0  0  0  0  0  0  0  0  0  0  0
    4.7085   -0.9892   -6.4262 H   0  0  0  0  0  0  0  0  0  0  0  0
    3.8050   -1.9859   -5.3040 H   0  0  0  0  0  0  0  0  0  0  0  0
    3.2151   -3.4626   -6.7857 H   0  0  0  0  0  0  0  0  0  0  0  0
    4.8737   -3.7137   -7.3110 H   0  0  0  0  0  0  0  0  0  0  0  0
    4.5014   -1.3521   -8.5353 H   0  0  0  0  0  0  0  0  0  0  0  0
    2.8206   -1.8166   -8.4307 H   0  0  0  0  0  0  0  0  0  0  0  0
    3.2709   -3.9736   -9.4944 H   0  0  0  0  0  0  0  0  0  0  0  0
    4.9812   -3.8073   -9.2454 H   0  0  0  0  0  0  0  0  0  0  0  0
    4.3872   -1.5028  -10.7705 H   0  0  0  0  0  0  0  0  0  0  0  0
    3.3499   -2.7638  -11.4245 H   0  0  0  0  0  0  0  0  0  0  0  0
    5.3933   -3.0743  -12.5504 H   0  0  0  0  0  0  0  0  0  0  0  0
    5.4982   -4.3043  -11.3185 H   0  0  0  0  0  0  0  0  0  0  0  0
    6.7634   -1.4905  -11.1459 H   0  0  0  0  0  0  0  0  0  0  0  0
    7.5396   -2.9562  -11.6733 H   0  0  0  0  0  0  0  0  0  0  0  0
    7.3489   -3.9392   -9.2757 H   0  0  0  0  0  0  0  0  0  0  0  0
    8.4757   -2.6951   -9.7145 H   0  0  0  0  0  0  0  0  0  0  0  0
    8.1235   -1.3975   -8.1695 H   0  0  0  0  0  0  0  0  0  0  0  0
    6.4575   -1.1254   -8.3501 H   0  0  0  0  0  0  0  0  0  0  0  0
    7.9531   -1.8084   -6.0816 H   0  0  0  0  0  0  0  0  0  0  0  0
    7.5909   -3.4519   -6.5593 H   0  0  0  0  0  0  0  0  0  0  0  0
    5.1586   -0.5053   -4.3527 H   0  0  0  0  0  0  0  0  0  0  0  0
    6.7540   -2.1386   -2.3875 H   0  0  0  0  0  0  0  0  0  0  0  0
  1  2  2  0  0  0  0
  1 26  1  0  0  0  0
  1 27  1  0  0  0  0
  2  3  1  0  0  0  0
  2 28  1  0  0  0  0
  3  4  1  0  0  0  0
  3 29  1  0  0  0  0
  3 30  1  0  0  0  0
  4  5  1  0  0  0  0
  4 25  1  0  0  0  0
  4 31  1  0  0  0  0
  5  6  1  0  0  0  0
  5  7  1  0  0  0  0
  6 32  1  0  0  0  0
  6 33  1  0  0  0  0
  6 34  1  0  0  0  0
  7  8  1  0  0  0  0
  7 35  1  0  0  0  0
  7 36  1  0  0  0  0
  8  9  1  0  0  0  0
  8 37  1  0  0  0  0
  8 38  1  0  0  0  0
  9 10  1  0  0  0  0
  9 39  1  0  0  0  0
  9 40  1  0  0  0  0
 10 11  1  0  0  0  0
 10 41  1  0  0  0  0
 10 42  1  0  0  0  0
 11 12  2  0  0  0  0
 11 13  1  0  0  0  0
 13 14  1  0  0  0  0
 13 23  1  0  0  0  0
 13 24  1  0  0  0  0
 14 15  1  0  0  0  0
 14 43  1  0  0  0  0
 14 44  1  0  0  0  0
 15 16  1  0  0  0  0
 15 45  1  0  0  0  0
 15 46  1  0  0  0  0
 16 17  1  0  0  0  0
 16 47  1  0  0  0  0
 16 48  1  0  0  0  0
 17 18  1  0  0  0  0
 17 49  1  0  0  0  0
 17 50  1  0  0  0  0
 18 19  1  0  0  0  0
 18 51  1  0  0  0  0
 18 52  1  0  0  0  0
 19 20  1  0  0  0  0
 19 53  1  0  0  0  0
 19 54  1  0  0  0  0
 20 21  1  0  0  0  0
 20 55  1  0  0  0  0
 20 56  1  0  0  0  0
 21 22  1  0  0  0  0
 21 57  1  0  0  0  0
 21 58  1  0  0  0  0
 22 23  1  0  0  0  0
 22 59  1  0  0  0  0
 22 60  1  0  0  0  0
 23 61  1  0  0  0  0
 23 62  1  0  0  0  0
 24 25  2  3  0  0  0
 24 63  1  0  0  0  0
 25 64  1  0  0  0  0
M  END
$$$$
