
 OpenBabel04232216473D

 48 50  0  0  0  0  0  0  0  0999 V2000
    4.6169    0.8586    1.3930 C   0  0  0  0  0  0  0  0  0  0  0  0
    4.2162    0.4438   -0.0081 C   0  0  0  0  0  0  0  0  0  0  0  0
    4.3680   -0.8128   -0.4537 C   0  0  0  0  0  0  0  0  0  0  0  0
    5.8163   -0.9818   -0.9112 C   0  0  0  0  0  0  0  0  0  0  0  0
    6.7533   -1.3922    0.0064 N   0  0  0  0  0  0  0  0  0  0  0  0
    7.8997   -0.5030    0.2372 C   0  0  0  0  0  0  0  0  0  0  0  0
    9.0640   -1.3043    0.7902 C   0  0  0  0  0  0  0  0  0  0  0  0
    8.6393   -2.1620    1.9818 C   0  0  0  0  0  0  0  0  0  0  0  0
    7.4149   -3.0120    1.6678 C   0  0  0  0  0  0  0  0  0  0  0  0
    6.2902   -2.1441    1.1615 C   0  0  0  0  0  0  0  0  0  0  0  0
    6.1948   -0.6757   -2.1206 N   0  0  0  0  0  0  0  0  0  0  0  0
    5.2174   -0.0517   -2.8533 C   0  0  0  0  0  0  0  0  0  0  0  0
    4.4523   -0.6241   -3.6201 O   0  0  0  0  0  0  0  0  0  0  0  0
    5.1110    1.3056   -2.4932 N   0  0  0  0  0  0  0  0  0  0  0  0
    6.0075    2.1018   -3.3071 C   0  0  0  0  0  0  0  0  0  0  0  0
    3.8403    1.7608   -2.0416 C   0  0  0  0  0  0  0  0  0  0  0  0
    3.0920    2.5571   -3.0764 C   0  0  0  0  0  0  0  0  0  0  0  0
    3.3671    1.3527   -0.8090 C   0  0  0  0  0  0  0  0  0  0  0  0
    2.0047    1.5508   -0.2281 C   0  0  0  0  0  0  0  0  0  0  0  0
    1.7605    2.4219    0.8364 C   0  0  0  0  0  0  0  0  0  0  0  0
    0.6385    2.4146    1.6065 N   0  0  0  0  0  0  0  0  0  0  0  0
   -0.2867    1.4740    1.3286 C   0  0  0  0  0  0  0  0  0  0  0  0
   -0.1392    0.5389    0.3198 C   0  0  0  0  0  0  0  0  0  0  0  0
    1.0215    0.5779   -0.4576 C   0  0  0  0  0  0  0  0  0  0  0  0
    5.6835    0.7499    1.5757 H   0  0  0  0  0  0  0  0  0  0  0  0
    4.0828    0.2311    2.1166 H   0  0  0  0  0  0  0  0  0  0  0  0
    4.3809    1.8986    1.6279 H   0  0  0  0  0  0  0  0  0  0  0  0
    3.7197   -1.1662   -1.2557 H   0  0  0  0  0  0  0  0  0  0  0  0
    7.6224    0.2856    0.9449 H   0  0  0  0  0  0  0  0  0  0  0  0
    8.2118    0.0087   -0.6841 H   0  0  0  0  0  0  0  0  0  0  0  0
    9.8652   -0.6186    1.0901 H   0  0  0  0  0  0  0  0  0  0  0  0
    9.4611   -1.9445   -0.0047 H   0  0  0  0  0  0  0  0  0  0  0  0
    8.4109   -1.5070    2.8323 H   0  0  0  0  0  0  0  0  0  0  0  0
    9.4662   -2.8133    2.2787 H   0  0  0  0  0  0  0  0  0  0  0  0
    7.0757   -3.5436    2.5616 H   0  0  0  0  0  0  0  0  0  0  0  0
    7.6617   -3.7614    0.9065 H   0  0  0  0  0  0  0  0  0  0  0  0
    5.9394   -1.4682    1.9460 H   0  0  0  0  0  0  0  0  0  0  0  0
    5.4475   -2.7910    0.8798 H   0  0  0  0  0  0  0  0  0  0  0  0
    7.0308    1.9004   -2.9621 H   0  0  0  0  0  0  0  0  0  0  0  0
    5.8205    3.1721   -3.2154 H   0  0  0  0  0  0  0  0  0  0  0  0
    5.9571    1.7845   -4.3559 H   0  0  0  0  0  0  0  0  0  0  0  0
    2.0258    2.6350   -2.8684 H   0  0  0  0  0  0  0  0  0  0  0  0
    3.1909    2.0569   -4.0509 H   0  0  0  0  0  0  0  0  0  0  0  0
    3.5138    3.5630   -3.1849 H   0  0  0  0  0  0  0  0  0  0  0  0
    2.5180    3.1203    1.1830 H   0  0  0  0  0  0  0  0  0  0  0  0
   -1.1690    1.4795    1.9662 H   0  0  0  0  0  0  0  0  0  0  0  0
   -0.8882   -0.2316    0.1678 H   0  0  0  0  0  0  0  0  0  0  0  0
    1.1946   -0.2114   -1.1862 H   0  0  0  0  0  0  0  0  0  0  0  0
  1  2  1  0  0  0  0
  1 25  1  0  0  0  0
  1 26  1  0  0  0  0
  1 27  1  0  0  0  0
  2  3  2  0  0  0  0
  2 18  1  0  0  0  0
  3  4  1  0  0  0  0
  3 28  1  0  0  0  0
  4  5  1  0  0  0  0
  4 11  2  0  0  0  0
  5  6  1  0  0  0  0
  5 10  1  0  0  0  0
  6  7  1  0  0  0  0
  6 29  1  0  0  0  0
  6 30  1  0  0  0  0
  7  8  1  0  0  0  0
  7 31  1  0  0  0  0
  7 32  1  0  0  0  0
  8  9  1  0  0  0  0
  8 33  1  0  0  0  0
  8 34  1  0  0  0  0
  9 10  1  0  0  0  0
  9 35  1  0  0  0  0
  9 36  1  0  0  0  0
 10 37  1  0  0  0  0
 10 38  1  0  0  0  0
 11 12  1  0  0  0  0
 12 13  2  0  0  0  0
 12 14  1  0  0  0  0
 14 15  1  0  0  0  0
 14 16  1  0  0  0  0
 15 39  1  0  0  0  0
 15 40  1  0  0  0  0
 15 41  1  0  0  0  0
 16 17  1  0  0  0  0
 16 18  2  0  0  0  0
 17 42  1  0  0  0  0
 17 43  1  0  0  0  0
 17 44  1  0  0  0  0
 18 19  1  0  0  0  0
 19 20  1  0  0  0  0
 19 24  2  0  0  0  0
 20 21  2  0  0  0  0
 20 45  1  0  0  0  0
 21 22  1  0  0  0  0
 22 23  2  0  0  0  0
 22 46  1  0  0  0  0
 23 24  1  0  0  0  0
 23 47  1  0  0  0  0
 24 48  1  0  0  0  0
M  END
$$$$
