
 OpenBabel04232217003D

222221  0  0  0  0  0  0  0  0999 V2000
    2.7320   -1.3026   -0.2186 O   0  0  0  0  0  0  0  0  0  0  0  0
    2.4788    0.0342   -0.0119 C   0  0  0  0  0  0  0  0  0  0  0  0
    1.6146    0.4361    0.9405 C   0  0  0  0  0  0  0  0  0  0  0  0
    3.2156    0.9753   -0.9158 C   0  0  0  0  0  0  0  0  0  0  0  0
    4.7305    0.8322   -0.7631 C   0  0  0  0  0  0  0  0  0  0  0  0
    5.4949    1.7769   -1.6767 C   0  0  0  0  0  0  0  0  0  0  0  0
    6.9904    1.5760   -1.4710 C   0  0  0  0  0  0  0  0  0  0  0  0
    7.7636    2.5126   -2.3782 C   0  0  0  0  0  0  0  0  0  0  0  0
    9.2546    2.3207   -2.1783 C   0  0  0  0  0  0  0  0  0  0  0  0
   10.0177    3.2622   -3.0904 C   0  0  0  0  0  0  0  0  0  0  0  0
   11.5094    3.0723   -2.8952 C   0  0  0  0  0  0  0  0  0  0  0  0
   12.2718    4.0125   -3.8089 C   0  0  0  0  0  0  0  0  0  0  0  0
   13.7637    3.8240   -3.6123 C   0  0  0  0  0  0  0  0  0  0  0  0
   14.5262    4.7627   -4.5273 C   0  0  0  0  0  0  0  0  0  0  0  0
   16.0181    4.5727   -4.3320 C   0  0  0  0  0  0  0  0  0  0  0  0
   16.7806    5.5115   -5.2471 C   0  0  0  0  0  0  0  0  0  0  0  0
   18.2725    5.3201   -5.0533 C   0  0  0  0  0  0  0  0  0  0  0  0
   19.0350    6.2602   -5.9670 C   0  0  0  0  0  0  0  0  0  0  0  0
   20.5269    6.0674   -5.7745 C   0  0  0  0  0  0  0  0  0  0  0  0
   21.2893    7.0062   -6.6896 C   0  0  0  0  0  0  0  0  0  0  0  0
   22.7813    6.8120   -6.4987 C   0  0  0  0  0  0  0  0  0  0  0  0
   23.5437    7.7493   -7.4152 C   0  0  0  0  0  0  0  0  0  0  0  0
   25.0357    7.5537   -7.2257 C   0  0  0  0  0  0  0  0  0  0  0  0
   25.7981    8.4924   -8.1408 C   0  0  0  0  0  0  0  0  0  0  0  0
   27.2901    8.2954   -7.9528 C   0  0  0  0  0  0  0  0  0  0  0  0
   28.0525    9.2341   -8.8679 C   0  0  0  0  0  0  0  0  0  0  0  0
   29.5445    9.0357   -8.6812 C   0  0  0  0  0  0  0  0  0  0  0  0
   30.3069    9.9744   -9.5964 C   0  0  0  0  0  0  0  0  0  0  0  0
   31.7989    9.7760   -9.4097 C   0  0  0  0  0  0  0  0  0  0  0  0
   32.5613   10.7147  -10.3248 C   0  0  0  0  0  0  0  0  0  0  0  0
   34.0533   10.5177  -10.1368 C   0  0  0  0  0  0  0  0  0  0  0  0
   34.8157   11.4564  -11.0519 C   0  0  0  0  0  0  0  0  0  0  0  0
   36.3077   11.2594  -10.8638 C   0  0  0  0  0  0  0  0  0  0  0  0
   37.0701   12.1982  -11.7789 C   0  0  0  0  0  0  0  0  0  0  0  0
   38.5621   12.0026  -11.5894 C   0  0  0  0  0  0  0  0  0  0  0  0
   39.3245   12.9427  -12.5030 C   0  0  0  0  0  0  0  0  0  0  0  0
   40.8165   12.7457  -12.3150 C   0  0  0  0  0  0  0  0  0  0  0  0
   41.5789   13.6872  -13.2272 C   0  0  0  0  0  0  0  0  0  0  0  0
   43.0709   13.4916  -13.0377 C   0  0  0  0  0  0  0  0  0  0  0  0
   43.8334   14.4318  -13.9513 C   0  0  0  0  0  0  0  0  0  0  0  0
   45.3253   14.2362  -13.7618 C   0  0  0  0  0  0  0  0  0  0  0  0
   46.0878   15.1763  -14.6754 C   0  0  0  0  0  0  0  0  0  0  0  0
   47.5797   14.9807  -14.4859 C   0  0  0  0  0  0  0  0  0  0  0  0
   48.3422   15.9208  -15.3996 C   0  0  0  0  0  0  0  0  0  0  0  0
   49.8341   15.7252  -15.2101 C   0  0  0  0  0  0  0  0  0  0  0  0
   50.5966   16.6654  -16.1237 C   0  0  0  0  0  0  0  0  0  0  0  0
   52.0885   16.4698  -15.9342 C   0  0  0  0  0  0  0  0  0  0  0  0
   52.8510   17.4099  -16.8479 C   0  0  0  0  0  0  0  0  0  0  0  0
   54.3429   17.2129  -16.6598 C   0  0  0  0  0  0  0  0  0  0  0  0
   55.1054   18.1516  -17.5749 C   0  0  0  0  0  0  0  0  0  0  0  0
   56.5973   17.9560  -17.3854 C   0  0  0  0  0  0  0  0  0  0  0  0
   57.3598   18.8947  -18.3005 C   0  0  0  0  0  0  0  0  0  0  0  0
   58.8517   18.6977  -18.1124 C   0  0  0  0  0  0  0  0  0  0  0  0
   59.6142   19.6379  -19.0261 C   0  0  0  0  0  0  0  0  0  0  0  0
   61.1061   19.4394  -18.8394 C   0  0  0  0  0  0  0  0  0  0  0  0
   61.8686   20.3796  -19.7531 C   0  0  0  0  0  0  0  0  0  0  0  0
   63.3605   20.1798  -19.5679 C   0  0  0  0  0  0  0  0  0  0  0  0
   64.1230   21.1199  -20.4816 C   0  0  0  0  0  0  0  0  0  0  0  0
   65.6149   20.9201  -20.2964 C   0  0  0  0  0  0  0  0  0  0  0  0
   66.3774   21.8602  -21.2101 C   0  0  0  0  0  0  0  0  0  0  0  0
   67.8693   21.6604  -21.0249 C   0  0  0  0  0  0  0  0  0  0  0  0
   68.6317   22.6005  -21.9386 C   0  0  0  0  0  0  0  0  0  0  0  0
   70.1236   22.4007  -21.7534 C   0  0  0  0  0  0  0  0  0  0  0  0
   70.8861   23.3408  -22.6670 C   0  0  0  0  0  0  0  0  0  0  0  0
   72.3779   23.1409  -22.4818 C   0  0  0  0  0  0  0  0  0  0  0  0
   73.1403   24.0810  -23.3954 C   0  0  0  0  0  0  0  0  0  0  0  0
   74.6320   23.8795  -23.2114 C   0  0  0  0  0  0  0  0  0  0  0  0
   75.3948   24.8191  -24.1245 C   0  0  0  0  0  0  0  0  0  0  0  0
   76.8864   24.6166  -23.9395 C   0  0  0  0  0  0  0  0  0  0  0  0
   77.6456   25.5564  -24.8530 C   0  0  0  0  0  0  0  0  0  0  0  0
   79.1370   25.3615  -24.6764 C   0  0  0  0  0  0  0  0  0  0  0  0
   79.8753   26.3029  -25.5957 C   0  0  0  0  0  0  0  0  0  0  0  0
   81.2697   26.0884  -25.4072 O   0  0  0  0  0  0  0  0  0  0  0  0
   82.0061   26.9701  -26.2433 C   0  0  0  0  0  0  0  0  0  0  0  0
   81.7070   28.3126  -25.9126 O   0  0  0  0  0  0  0  0  0  0  0  0
   82.4835   29.1100  -26.8261 O   0  0  0  0  0  0  0  0  0  0  0  0
   82.2280   30.5076  -26.5737 O   0  0  0  0  0  0  0  0  0  0  0  0
   80.8287   30.8075  -26.7993 O   0  0  0  0  0  0  0  0  0  0  0  0
    2.2072   -1.8200    0.4161 H   0  0  0  0  0  0  0  0  0  0  0  0
    1.1097   -0.2916    1.5614 H   0  0  0  0  0  0  0  0  0  0  0  0
    1.4034    1.4795    1.1119 H   0  0  0  0  0  0  0  0  0  0  0  0
    2.9304    2.0135   -0.6973 H   0  0  0  0  0  0  0  0  0  0  0  0
    2.9340    0.7803   -1.9559 H   0  0  0  0  0  0  0  0  0  0  0  0
    5.0364   -0.1943   -0.9986 H   0  0  0  0  0  0  0  0  0  0  0  0
    5.0250    1.0383    0.2729 H   0  0  0  0  0  0  0  0  0  0  0  0
    5.2252    2.8166   -1.4539 H   0  0  0  0  0  0  0  0  0  0  0  0
    5.2343    1.5818   -2.7245 H   0  0  0  0  0  0  0  0  0  0  0  0
    7.2656    0.5356   -1.6868 H   0  0  0  0  0  0  0  0  0  0  0  0
    7.2569    1.7665   -0.4234 H   0  0  0  0  0  0  0  0  0  0  0  0
    7.4879    3.5513   -2.1596 H   0  0  0  0  0  0  0  0  0  0  0  0
    7.4987    2.3172   -3.4243 H   0  0  0  0  0  0  0  0  0  0  0  0
    9.5316    1.2820   -2.3965 H   0  0  0  0  0  0  0  0  0  0  0  0
    9.5209    2.5157   -1.1322 H   0  0  0  0  0  0  0  0  0  0  0  0
    9.7411    4.3008   -2.8712 H   0  0  0  0  0  0  0  0  0  0  0  0
    9.7497    3.0681   -4.1364 H   0  0  0  0  0  0  0  0  0  0  0  0
   11.7857    2.0333   -3.1133 H   0  0  0  0  0  0  0  0  0  0  0  0
   11.7774    3.2679   -1.8497 H   0  0  0  0  0  0  0  0  0  0  0  0
   11.9945    5.0515   -3.5920 H   0  0  0  0  0  0  0  0  0  0  0  0
   12.0047    3.8160   -4.8546 H   0  0  0  0  0  0  0  0  0  0  0  0
   14.0408    2.7847   -3.8278 H   0  0  0  0  0  0  0  0  0  0  0  0
   14.0309    4.0219   -2.5669 H   0  0  0  0  0  0  0  0  0  0  0  0
   14.2501    5.8020   -4.3108 H   0  0  0  0  0  0  0  0  0  0  0  0
   14.2579    4.5657   -5.5726 H   0  0  0  0  0  0  0  0  0  0  0  0
   16.2942    3.5333   -4.5486 H   0  0  0  0  0  0  0  0  0  0  0  0
   16.2865    4.7696   -3.2868 H   0  0  0  0  0  0  0  0  0  0  0  0
   16.5056    6.5509   -5.0297 H   0  0  0  0  0  0  0  0  0  0  0  0
   16.5112    5.3155   -6.2923 H   0  0  0  0  0  0  0  0  0  0  0  0
   18.5477    4.2810   -5.2722 H   0  0  0  0  0  0  0  0  0  0  0  0
   18.5418    5.5146   -4.0078 H   0  0  0  0  0  0  0  0  0  0  0  0
   18.7608    7.2994   -5.7471 H   0  0  0  0  0  0  0  0  0  0  0  0
   18.7647    6.0666   -7.0124 H   0  0  0  0  0  0  0  0  0  0  0  0
   20.8008    5.0279   -5.9930 H   0  0  0  0  0  0  0  0  0  0  0  0
   20.7974    6.2624   -4.7295 H   0  0  0  0  0  0  0  0  0  0  0  0
   21.0165    8.0458   -6.4702 H   0  0  0  0  0  0  0  0  0  0  0  0
   21.0178    6.8121   -7.7346 H   0  0  0  0  0  0  0  0  0  0  0  0
   23.0539    5.7720   -6.7168 H   0  0  0  0  0  0  0  0  0  0  0  0
   23.0531    7.0073   -5.4540 H   0  0  0  0  0  0  0  0  0  0  0  0
   23.2721    8.7893   -7.1962 H   0  0  0  0  0  0  0  0  0  0  0  0
   23.2709    7.5549   -8.4598 H   0  0  0  0  0  0  0  0  0  0  0  0
   25.3074    6.5140   -7.4461 H   0  0  0  0  0  0  0  0  0  0  0  0
   25.3084    7.7467   -6.1809 H   0  0  0  0  0  0  0  0  0  0  0  0
   25.5274    9.5321   -7.9194 H   0  0  0  0  0  0  0  0  0  0  0  0
   25.5244    8.3003   -9.1856 H   0  0  0  0  0  0  0  0  0  0  0  0
   27.5607    7.2556   -8.1742 H   0  0  0  0  0  0  0  0  0  0  0  0
   27.5638    8.4874   -6.9080 H   0  0  0  0  0  0  0  0  0  0  0  0
   27.7829   10.2739   -8.6455 H   0  0  0  0  0  0  0  0  0  0  0  0
   27.7777    9.0430   -9.9125 H   0  0  0  0  0  0  0  0  0  0  0  0
   29.8141    7.9959   -8.9036 H   0  0  0  0  0  0  0  0  0  0  0  0
   29.8193    9.2268   -7.6366 H   0  0  0  0  0  0  0  0  0  0  0  0
   30.0373   11.0142   -9.3740 H   0  0  0  0  0  0  0  0  0  0  0  0
   30.0321    9.7834  -10.6410 H   0  0  0  0  0  0  0  0  0  0  0  0
   32.0685    8.7362   -9.6321 H   0  0  0  0  0  0  0  0  0  0  0  0
   32.0737    9.9671   -8.3651 H   0  0  0  0  0  0  0  0  0  0  0  0
   32.2907   11.7545  -10.1034 H   0  0  0  0  0  0  0  0  0  0  0  0
   32.2876   10.5227  -11.3696 H   0  0  0  0  0  0  0  0  0  0  0  0
   34.3239    9.4780  -10.3582 H   0  0  0  0  0  0  0  0  0  0  0  0
   34.3270   10.7098   -9.0920 H   0  0  0  0  0  0  0  0  0  0  0  0
   34.5450   12.4962  -10.8305 H   0  0  0  0  0  0  0  0  0  0  0  0
   34.5420   11.2644  -12.0966 H   0  0  0  0  0  0  0  0  0  0  0  0
   36.5784   10.2197  -11.0852 H   0  0  0  0  0  0  0  0  0  0  0  0
   36.5814   11.4515   -9.8190 H   0  0  0  0  0  0  0  0  0  0  0  0
   36.7984   13.2379  -11.5585 H   0  0  0  0  0  0  0  0  0  0  0  0
   36.7975   12.0052  -12.8238 H   0  0  0  0  0  0  0  0  0  0  0  0
   38.8340   10.9632  -11.8112 H   0  0  0  0  0  0  0  0  0  0  0  0
   38.8345   12.1942  -10.5442 H   0  0  0  0  0  0  0  0  0  0  0  0
   39.0536   13.9821  -12.2802 H   0  0  0  0  0  0  0  0  0  0  0  0
   39.0511   12.7521  -13.5481 H   0  0  0  0  0  0  0  0  0  0  0  0
   41.0876   11.7067  -12.5391 H   0  0  0  0  0  0  0  0  0  0  0  0
   41.0898   12.9350  -11.2696 H   0  0  0  0  0  0  0  0  0  0  0  0
   41.3068   14.7262  -13.0040 H   0  0  0  0  0  0  0  0  0  0  0  0
   41.3067   13.4970  -14.2727 H   0  0  0  0  0  0  0  0  0  0  0  0
   43.3429   12.4523  -13.2595 H   0  0  0  0  0  0  0  0  0  0  0  0
   43.3433   13.6832  -11.9925 H   0  0  0  0  0  0  0  0  0  0  0  0
   43.5614   15.4711  -13.7295 H   0  0  0  0  0  0  0  0  0  0  0  0
   43.5609   14.2401  -14.9965 H   0  0  0  0  0  0  0  0  0  0  0  0
   45.5973   13.1968  -13.9836 H   0  0  0  0  0  0  0  0  0  0  0  0
   45.5977   14.4278  -12.7166 H   0  0  0  0  0  0  0  0  0  0  0  0
   45.8158   16.2156  -14.4536 H   0  0  0  0  0  0  0  0  0  0  0  0
   45.8153   14.9847  -15.7206 H   0  0  0  0  0  0  0  0  0  0  0  0
   47.8517   13.9414  -14.7077 H   0  0  0  0  0  0  0  0  0  0  0  0
   47.8521   15.1723  -13.4407 H   0  0  0  0  0  0  0  0  0  0  0  0
   48.0702   16.9601  -15.1778 H   0  0  0  0  0  0  0  0  0  0  0  0
   48.0697   15.7292  -16.4448 H   0  0  0  0  0  0  0  0  0  0  0  0
   50.1061   14.6859  -15.4319 H   0  0  0  0  0  0  0  0  0  0  0  0
   50.1065   15.9168  -14.1649 H   0  0  0  0  0  0  0  0  0  0  0  0
   50.3246   17.7047  -15.9019 H   0  0  0  0  0  0  0  0  0  0  0  0
   50.3241   16.4737  -17.1689 H   0  0  0  0  0  0  0  0  0  0  0  0
   52.3605   15.4304  -16.1560 H   0  0  0  0  0  0  0  0  0  0  0  0
   52.3610   16.6614  -14.8890 H   0  0  0  0  0  0  0  0  0  0  0  0
   52.5801   18.4493  -16.6251 H   0  0  0  0  0  0  0  0  0  0  0  0
   52.5775   17.2192  -17.8930 H   0  0  0  0  0  0  0  0  0  0  0  0
   54.6136   16.1731  -16.8812 H   0  0  0  0  0  0  0  0  0  0  0  0
   54.6166   17.4049  -15.6150 H   0  0  0  0  0  0  0  0  0  0  0  0
   54.8336   19.1913  -17.3545 H   0  0  0  0  0  0  0  0  0  0  0  0
   54.8327   17.9586  -18.6197 H   0  0  0  0  0  0  0  0  0  0  0  0
   56.8691   16.9163  -17.6058 H   0  0  0  0  0  0  0  0  0  0  0  0
   56.8700   18.1490  -16.3405 H   0  0  0  0  0  0  0  0  0  0  0  0
   57.0891   19.9345  -18.0791 H   0  0  0  0  0  0  0  0  0  0  0  0
   57.0861   18.7027  -19.3453 H   0  0  0  0  0  0  0  0  0  0  0  0
   59.1226   17.6583  -18.3352 H   0  0  0  0  0  0  0  0  0  0  0  0
   59.1253   18.8884  -17.0673 H   0  0  0  0  0  0  0  0  0  0  0  0
   59.3443   20.6773  -18.8023 H   0  0  0  0  0  0  0  0  0  0  0  0
   59.3396   19.4482  -20.0710 H   0  0  0  0  0  0  0  0  0  0  0  0
   61.3759   18.4000  -19.0632 H   0  0  0  0  0  0  0  0  0  0  0  0
   61.3807   19.6291  -17.7945 H   0  0  0  0  0  0  0  0  0  0  0  0
   61.5998   21.4191  -19.5284 H   0  0  0  0  0  0  0  0  0  0  0  0
   61.5929   20.1909  -20.7980 H   0  0  0  0  0  0  0  0  0  0  0  0
   63.6293   19.1402  -19.7927 H   0  0  0  0  0  0  0  0  0  0  0  0
   63.6362   20.3684  -18.5231 H   0  0  0  0  0  0  0  0  0  0  0  0
   63.8543   22.1594  -20.2568 H   0  0  0  0  0  0  0  0  0  0  0  0
   63.8473   20.9312  -21.5265 H   0  0  0  0  0  0  0  0  0  0  0  0
   65.8837   19.8805  -20.5212 H   0  0  0  0  0  0  0  0  0  0  0  0
   65.8906   21.1088  -19.2515 H   0  0  0  0  0  0  0  0  0  0  0  0
   66.1086   22.8997  -20.9853 H   0  0  0  0  0  0  0  0  0  0  0  0
   66.1017   21.6715  -22.2549 H   0  0  0  0  0  0  0  0  0  0  0  0
   68.1380   20.6209  -21.2497 H   0  0  0  0  0  0  0  0  0  0  0  0
   68.1450   21.8491  -19.9800 H   0  0  0  0  0  0  0  0  0  0  0  0
   68.3630   23.6401  -21.7138 H   0  0  0  0  0  0  0  0  0  0  0  0
   68.3560   22.4118  -22.9835 H   0  0  0  0  0  0  0  0  0  0  0  0
   70.3923   21.3612  -21.9781 H   0  0  0  0  0  0  0  0  0  0  0  0
   70.3992   22.5894  -20.7085 H   0  0  0  0  0  0  0  0  0  0  0  0
   70.6174   24.3803  -22.4422 H   0  0  0  0  0  0  0  0  0  0  0  0
   70.6105   23.1521  -23.7119 H   0  0  0  0  0  0  0  0  0  0  0  0
   72.6467   22.1014  -22.7066 H   0  0  0  0  0  0  0  0  0  0  0  0
   72.6537   23.3297  -21.4369 H   0  0  0  0  0  0  0  0  0  0  0  0
   72.8728   25.1207  -23.1697 H   0  0  0  0  0  0  0  0  0  0  0  0
   72.8638   23.8933  -24.4402 H   0  0  0  0  0  0  0  0  0  0  0  0
   74.8998   22.8400  -23.4373 H   0  0  0  0  0  0  0  0  0  0  0  0
   74.9088   24.0674  -22.1667 H   0  0  0  0  0  0  0  0  0  0  0  0
   75.1274   25.8590  -23.8992 H   0  0  0  0  0  0  0  0  0  0  0  0
   75.1183   24.6318  -25.1696 H   0  0  0  0  0  0  0  0  0  0  0  0
   77.1544   23.5775  -24.1662 H   0  0  0  0  0  0  0  0  0  0  0  0
   77.1635   24.8053  -22.8952 H   0  0  0  0  0  0  0  0  0  0  0  0
   77.3765   26.5959  -24.6275 H   0  0  0  0  0  0  0  0  0  0  0  0
   77.3673   25.3691  -25.8975 H   0  0  0  0  0  0  0  0  0  0  0  0
   79.4252   24.3274  -24.8974 H   0  0  0  0  0  0  0  0  0  0  0  0
   79.4344   25.5460  -23.6367 H   0  0  0  0  0  0  0  0  0  0  0  0
   79.6104   27.3417  -25.3548 H   0  0  0  0  0  0  0  0  0  0  0  0
   79.6109   26.1053  -26.6419 H   0  0  0  0  0  0  0  0  0  0  0  0
   81.7628   26.7672  -27.2937 H   0  0  0  0  0  0  0  0  0  0  0  0
   83.0735   26.7954  -26.0820 H   0  0  0  0  0  0  0  0  0  0  0  0
   80.9028   31.7482  -26.5777 H   0  0  0  0  0  0  0  0  0  0  0  0
  1  2  1  0  0  0  0
  1 79  1  0  0  0  0
  2  3  2  0  0  0  0
  2  4  1  0  0  0  0
  3 80  1  0  0  0  0
  3 81  1  0  0  0  0
  4  5  1  0  0  0  0
  4 82  1  0  0  0  0
  4 83  1  0  0  0  0
  5  6  1  0  0  0  0
  5 84  1  0  0  0  0
  5 85  1  0  0  0  0
  6  7  1  0  0  0  0
  6 86  1  0  0  0  0
  6 87  1  0  0  0  0
  7  8  1  0  0  0  0
  7 88  1  0  0  0  0
  7 89  1  0  0  0  0
  8  9  1  0  0  0  0
  8 90  1  0  0  0  0
  8 91  1  0  0  0  0
  9 10  1  0  0  0  0
  9 92  1  0  0  0  0
  9 93  1  0  0  0  0
 10 11  1  0  0  0  0
 10 94  1  0  0  0  0
 10 95  1  0  0  0  0
 11 12  1  0  0  0  0
 11 96  1  0  0  0  0
 11 97  1  0  0  0  0
 12 13  1  0  0  0  0
 12 98  1  0  0  0  0
 12 99  1  0  0  0  0
 13 14  1  0  0  0  0
 13100  1  0  0  0  0
 13101  1  0  0  0  0
 14 15  1  0  0  0  0
 14102  1  0  0  0  0
 14103  1  0  0  0  0
 15 16  1  0  0  0  0
 15104  1  0  0  0  0
 15105  1  0  0  0  0
 16 17  1  0  0  0  0
 16106  1  0  0  0  0
 16107  1  0  0  0  0
 17 18  1  0  0  0  0
 17108  1  0  0  0  0
 17109  1  0  0  0  0
 18 19  1  0  0  0  0
 18110  1  0  0  0  0
 18111  1  0  0  0  0
 19 20  1  0  0  0  0
 19112  1  0  0  0  0
 19113  1  0  0  0  0
 20 21  1  0  0  0  0
 20114  1  0  0  0  0
 20115  1  0  0  0  0
 21 22  1  0  0  0  0
 21116  1  0  0  0  0
 21117  1  0  0  0  0
 22 23  1  0  0  0  0
 22118  1  0  0  0  0
 22119  1  0  0  0  0
 23 24  1  0  0  0  0
 23120  1  0  0  0  0
 23121  1  0  0  0  0
 24 25  1  0  0  0  0
 24122  1  0  0  0  0
 24123  1  0  0  0  0
 25 26  1  0  0  0  0
 25124  1  0  0  0  0
 25125  1  0  0  0  0
 26 27  1  0  0  0  0
 26126  1  0  0  0  0
 26127  1  0  0  0  0
 27 28  1  0  0  0  0
 27128  1  0  0  0  0
 27129  1  0  0  0  0
 28 29  1  0  0  0  0
 28130  1  0  0  0  0
 28131  1  0  0  0  0
 29 30  1  0  0  0  0
 29132  1  0  0  0  0
 29133  1  0  0  0  0
 30 31  1  0  0  0  0
 30134  1  0  0  0  0
 30135  1  0  0  0  0
 31 32  1  0  0  0  0
 31136  1  0  0  0  0
 31137  1  0  0  0  0
 32 33  1  0  0  0  0
 32138  1  0  0  0  0
 32139  1  0  0  0  0
 33 34  1  0  0  0  0
 33140  1  0  0  0  0
 33141  1  0  0  0  0
 34 35  1  0  0  0  0
 34142  1  0  0  0  0
 34143  1  0  0  0  0
 35 36  1  0  0  0  0
 35144  1  0  0  0  0
 35145  1  0  0  0  0
 36 37  1  0  0  0  0
 36146  1  0  0  0  0
 36147  1  0  0  0  0
 37 38  1  0  0  0  0
 37148  1  0  0  0  0
 37149  1  0  0  0  0
 38 39  1  0  0  0  0
 38150  1  0  0  0  0
 38151  1  0  0  0  0
 39 40  1  0  0  0  0
 39152  1  0  0  0  0
 39153  1  0  0  0  0
 40 41  1  0  0  0  0
 40154  1  0  0  0  0
 40155  1  0  0  0  0
 41 42  1  0  0  0  0
 41156  1  0  0  0  0
 41157  1  0  0  0  0
 42 43  1  0  0  0  0
 42158  1  0  0  0  0
 42159  1  0  0  0  0
 43 44  1  0  0  0  0
 43160  1  0  0  0  0
 43161  1  0  0  0  0
 44 45  1  0  0  0  0
 44162  1  0  0  0  0
 44163  1  0  0  0  0
 45 46  1  0  0  0  0
 45164  1  0  0  0  0
 45165  1  0  0  0  0
 46 47  1  0  0  0  0
 46166  1  0  0  0  0
 46167  1  0  0  0  0
 47 48  1  0  0  0  0
 47168  1  0  0  0  0
 47169  1  0  0  0  0
 48 49  1  0  0  0  0
 48170  1  0  0  0  0
 48171  1  0  0  0  0
 49 50  1  0  0  0  0
 49172  1  0  0  0  0
 49173  1  0  0  0  0
 50 51  1  0  0  0  0
 50174  1  0  0  0  0
 50175  1  0  0  0  0
 51 52  1  0  0  0  0
 51176  1  0  0  0  0
 51177  1  0  0  0  0
 52 53  1  0  0  0  0
 52178  1  0  0  0  0
 52179  1  0  0  0  0
 53 54  1  0  0  0  0
 53180  1  0  0  0  0
 53181  1  0  0  0  0
 54 55  1  0  0  0  0
 54182  1  0  0  0  0
 54183  1  0  0  0  0
 55 56  1  0  0  0  0
 55184  1  0  0  0  0
 55185  1  0  0  0  0
 56 57  1  0  0  0  0
 56186  1  0  0  0  0
 56187  1  0  0  0  0
 57 58  1  0  0  0  0
 57188  1  0  0  0  0
 57189  1  0  0  0  0
 58 59  1  0  0  0  0
 58190  1  0  0  0  0
 58191  1  0  0  0  0
 59 60  1  0  0  0  0
 59192  1  0  0  0  0
 59193  1  0  0  0  0
 60 61  1  0  0  0  0
 60194  1  0  0  0  0
 60195  1  0  0  0  0
 61 62  1  0  0  0  0
 61196  1  0  0  0  0
 61197  1  0  0  0  0
 62 63  1  0  0  0  0
 62198  1  0  0  0  0
 62199  1  0  0  0  0
 63 64  1  0  0  0  0
 63200  1  0  0  0  0
 63201  1  0  0  0  0
 64 65  1  0  0  0  0
 64202  1  0  0  0  0
 64203  1  0  0  0  0
 65 66  1  0  0  0  0
 65204  1  0  0  0  0
 65205  1  0  0  0  0
 66 67  1  0  0  0  0
 66206  1  0  0  0  0
 66207  1  0  0  0  0
 67 68  1  0  0  0  0
 67208  1  0  0  0  0
 67209  1  0  0  0  0
 68 69  1  0  0  0  0
 68210  1  0  0  0  0
 68211  1  0  0  0  0
 69 70  1  0  0  0  0
 69212  1  0  0  0  0
 69213  1  0  0  0  0
 70 71  1  0  0  0  0
 70214  1  0  0  0  0
 70215  1  0  0  0  0
 71 72  1  0  0  0  0
 71216  1  0  0  0  0
 71217  1  0  0  0  0
 72 73  1  0  0  0  0
 72218  1  0  0  0  0
 72219  1  0  0  0  0
 73 74  1  0  0  0  0
 74 75  1  0  0  0  0
 74220  1  0  0  0  0
 74221  1  0  0  0  0
 75 76  1  0  0  0  0
 76 77  1  0  0  0  0
 77 78  1  0  0  0  0
 78222  1  0  0  0  0
M  END
$$$$
