
 OpenBabel04232216453D

 44 45  0  0  0  0  0  0  0  0999 V2000
    5.0291   -1.4806   -1.7622 C   0  0  0  0  0  0  0  0  0  0  0  0
    5.8531   -2.4307   -0.8723 C   0  0  0  0  0  0  0  0  0  0  0  0
    4.9036   -2.9576    0.2151 C   0  0  0  0  0  0  0  0  0  0  0  0
    4.7903   -2.3146    1.4133 C   0  0  0  0  0  0  0  0  0  0  0  0
    5.2271   -0.8264    1.4656 C   0  0  0  0  0  0  0  0  0  0  0  0
    4.9469   -3.1637    2.7914 C   0  0  0  0  0  0  0  0  0  0  0  0
    4.6613   -4.9480    2.7178 C   0  0  0  0  0  0  0  0  0  0  0  0
    5.8114   -6.3837    2.3917 C   0  0  0  0  0  0  0  0  0  0  0  0
    7.6052   -6.5523    1.9039 C   0  0  0  0  0  0  0  0  0  0  0  0
    8.8755   -5.3870    1.2141 C   0  0  0  0  0  0  0  0  0  0  0  0
    6.1887   -2.7652    3.2935 C   0  0  0  0  0  0  0  0  0  0  0  0
    7.2459   -3.0731    2.3102 C   0  0  0  0  0  0  0  0  0  0  0  0
    6.8022   -4.3438    1.8288 C   0  0  0  0  0  0  0  0  0  0  0  0
    8.3619   -2.7437    1.6519 C   0  0  0  0  0  0  0  0  0  0  0  0
    9.1666   -1.5048    1.6410 C   0  0  0  0  0  0  0  0  0  0  0  0
    8.6640   -3.7389    0.5895 C   0  0  0  0  0  0  0  0  0  0  0  0
    8.1284   -3.5336   -0.6626 C   0  0  0  0  0  0  0  0  0  0  0  0
    9.2321   -3.8298   -1.6720 C   0  0  0  0  0  0  0  0  0  0  0  0
    7.1263   -2.6249   -1.1560 N   0  0  0  0  0  0  0  0  0  0  0  0
    4.0022   -1.8663   -1.8689 H   0  0  0  0  0  0  0  0  0  0  0  0
    5.4473   -1.3754   -2.7603 H   0  0  0  0  0  0  0  0  0  0  0  0
    4.9492   -0.4940   -1.2932 H   0  0  0  0  0  0  0  0  0  0  0  0
    4.5864   -3.9785    0.0309 H   0  0  0  0  0  0  0  0  0  0  0  0
    4.3621   -0.1727    1.3410 H   0  0  0  0  0  0  0  0  0  0  0  0
    5.9506   -0.5740    0.6796 H   0  0  0  0  0  0  0  0  0  0  0  0
    5.7322   -0.5026    2.3761 H   0  0  0  0  0  0  0  0  0  0  0  0
    3.9288   -5.0563    1.9001 H   0  0  0  0  0  0  0  0  0  0  0  0
    4.1092   -5.2052    3.6268 H   0  0  0  0  0  0  0  0  0  0  0  0
    5.2871   -6.9654    1.6212 H   0  0  0  0  0  0  0  0  0  0  0  0
    5.7486   -6.9676    3.3207 H   0  0  0  0  0  0  0  0  0  0  0  0
    8.0750   -6.8745    2.8476 H   0  0  0  0  0  0  0  0  0  0  0  0
    7.6324   -7.4249    1.2409 H   0  0  0  0  0  0  0  0  0  0  0  0
    9.3801   -5.9536    0.4212 H   0  0  0  0  0  0  0  0  0  0  0  0
    9.5999   -5.2707    2.0368 H   0  0  0  0  0  0  0  0  0  0  0  0
    6.3420   -1.7716    3.7226 H   0  0  0  0  0  0  0  0  0  0  0  0
    5.8561   -4.3905    1.3616 H   0  0  0  0  0  0  0  0  0  0  0  0
    7.0028   -4.8666    2.7666 H   0  0  0  0  0  0  0  0  0  0  0  0
    7.0189   -4.8427    0.8761 H   0  0  0  0  0  0  0  0  0  0  0  0
    8.5514   -0.6080    1.7088 H   0  0  0  0  0  0  0  0  0  0  0  0
    9.7581   -1.4184    0.7147 H   0  0  0  0  0  0  0  0  0  0  0  0
    9.8807   -1.5115    2.4731 H   0  0  0  0  0  0  0  0  0  0  0  0
    9.3904   -2.9619   -2.3205 H   0  0  0  0  0  0  0  0  0  0  0  0
    9.0377   -4.7210   -2.2641 H   0  0  0  0  0  0  0  0  0  0  0  0
   10.2024   -3.9756   -1.1651 H   0  0  0  0  0  0  0  0  0  0  0  0
  1  2  1  0  0  0  0
  1 20  1  0  0  0  0
  1 21  1  0  0  0  0
  1 22  1  0  0  0  0
  2  3  1  0  0  0  0
  2 19  2  0  0  0  0
  3  4  2  0  0  0  0
  3 23  1  0  0  0  0
  4  5  1  0  0  0  0
  4  6  1  0  0  0  0
  5 24  1  0  0  0  0
  5 25  1  0  0  0  0
  5 26  1  0  0  0  0
  6  7  1  0  0  0  0
  6 11  2  0  0  0  0
  7  8  1  0  0  0  0
  7 27  1  0  0  0  0
  7 28  1  0  0  0  0
  8  9  1  0  0  0  0
  8 29  1  0  0  0  0
  8 30  1  0  0  0  0
  9 10  1  0  0  0  0
  9 31  1  0  0  0  0
  9 32  1  0  0  0  0
 10 16  1  0  0  0  0
 10 33  1  0  0  0  0
 10 34  1  0  0  0  0
 11 12  1  0  0  0  0
 11 35  1  0  0  0  0
 12 13  1  0  0  0  0
 12 14  2  0  0  0  0
 13 36  1  0  0  0  0
 13 37  1  0  0  0  0
 13 38  1  0  0  0  0
 14 15  1  0  0  0  0
 14 16  1  0  0  0  0
 15 39  1  0  0  0  0
 15 40  1  0  0  0  0
 15 41  1  0  0  0  0
 16 17  2  0  0  0  0
 17 18  1  0  0  0  0
 17 19  1  0  0  0  0
 18 42  1  0  0  0  0
 18 43  1  0  0  0  0
 18 44  1  0  0  0  0
M  END
$$$$
