
 OpenBabel04232217033D

140139  0  0  0  0  0  0  0  0999 V2000
   52.0415   31.3532   27.6197 S   0  0  0  0  0  0  0  0  0  0  0  0
   51.4215   32.3900   26.4771 O   0  0  0  0  0  0  0  0  0  0  0  0
   51.8525   31.9983   25.1476 O   0  0  0  0  0  0  0  0  0  0  0  0
   51.3170   32.9090   24.1480 N   0  0  0  0  0  0  0  0  0  0  0  0
   51.3809   32.3256   22.8496 N   0  0  0  0  0  0  0  0  0  0  0  0
   50.9329   33.2540   21.8720 N   0  0  0  0  0  0  0  0  0  0  0  0
   51.0655   32.6937   20.5722 N   0  0  0  0  0  0  0  0  0  0  0  0
   50.6406   33.6163   19.5742 N   0  0  0  0  0  0  0  0  0  0  0  0
   50.7756   33.0320   18.2779 N   0  0  0  0  0  0  0  0  0  0  0  0
   50.3160   33.9225   17.2808 N   0  0  0  0  0  0  0  0  0  0  0  0
   50.5110   33.2884   16.0111 N   0  0  0  0  0  0  0  0  0  0  0  0
   49.9046   34.0097   14.9463 N   0  0  0  0  0  0  0  0  0  0  0  0
   50.1372   33.2935   13.7229 N   0  0  0  0  0  0  0  0  0  0  0  0
   49.4230   32.0646   13.5620 N   0  0  0  0  0  0  0  0  0  0  0  0
   49.6669   31.2807   12.0709 S   0  0  0  0  0  0  0  0  0  0  0  0
   51.2822   31.4061   11.6395 N   0  0  0  0  0  0  0  0  0  0  0  0
   51.7184   30.7252   10.1659 S   0  0  0  0  0  0  0  0  0  0  0  0
   51.4296   31.6876    8.8424 N   0  0  0  0  0  0  0  0  0  0  0  0
   52.5352   32.8847    8.4551 S   0  0  0  0  0  0  0  0  0  0  0  0
   51.7511   33.9761    7.4496 N   0  0  0  0  0  0  0  0  0  0  0  0
   51.7767   35.5934    7.8517 S   0  0  0  0  0  0  0  0  0  0  0  0
   50.2257   36.1390    8.1652 N   0  0  0  0  0  0  0  0  0  0  0  0
   50.1621   37.4953    9.1200 S   0  0  0  0  0  0  0  0  0  0  0  0
   50.0180   38.7542    8.0918 N   0  0  0  0  0  0  0  0  0  0  0  0
   51.0487   39.9853    8.4852 S   0  0  0  0  0  0  0  0  0  0  0  0
   52.5950   39.3700    8.5114 N   0  0  0  0  0  0  0  0  0  0  0  0
   53.0523   38.7796    7.0349 S   0  0  0  0  0  0  0  0  0  0  0  0
   54.6674   38.4754    7.0699 N   0  0  0  0  0  0  0  0  0  0  0  0
   55.2278   37.4506    8.2369 S   0  0  0  0  0  0  0  0  0  0  0  0
   54.7732   35.9066    7.8997 N   0  0  0  0  0  0  0  0  0  0  0  0
   55.3698   35.2648    6.5008 S   0  0  0  0  0  0  0  0  0  0  0  0
   54.3073   35.7906    5.3488 N   0  0  0  0  0  0  0  0  0  0  0  0
   54.6337   35.1966    3.8458 S   0  0  0  0  0  0  0  0  0  0  0  0
   53.8999   33.7255    3.6972 N   0  0  0  0  0  0  0  0  0  0  0  0
   52.2522   33.7362    3.7517 S   0  0  0  0  0  0  0  0  0  0  0  0
   51.6655   34.6431    2.5016 N   0  0  0  0  0  0  0  0  0  0  0  0
   51.8559   33.9824    0.9965 S   0  0  0  0  0  0  0  0  0  0  0  0
   51.0925   32.5274    0.9389 N   0  0  0  0  0  0  0  0  0  0  0  0
   49.4573   32.6021    0.8264 S   0  0  0  0  0  0  0  0  0  0  0  0
   48.9132   32.8697    2.3623 N   0  0  0  0  0  0  0  0  0  0  0  0
   47.2772   32.6509    2.4399 S   0  0  0  0  0  0  0  0  0  0  0  0
   46.8366   33.0958    3.9684 N   0  0  0  0  0  0  0  0  0  0  0  0
   47.1022   31.8881    5.0739 S   0  0  0  0  0  0  0  0  0  0  0  0
   48.6992   31.9953    5.5007 N   0  0  0  0  0  0  0  0  0  0  0  0
   49.0804   33.4367    6.2120 S   0  0  0  0  0  0  0  0  0  0  0  0
   48.0715   33.8039    7.4652 N   0  0  0  0  0  0  0  0  0  0  0  0
   48.4623   33.2078    8.9729 S   0  0  0  0  0  0  0  0  0  0  0  0
   49.8446   33.9391    9.4411 N   0  0  0  0  0  0  0  0  0  0  0  0
   50.0829   34.3839   10.9971 S   0  0  0  0  0  0  0  0  0  0  0  0
   51.4319   35.3600   11.0271 N   0  0  0  0  0  0  0  0  0  0  0  0
   52.2739   35.2716   12.4395 S   0  0  0  0  0  0  0  0  0  0  0  0
   53.8367   34.9010   12.0773 N   0  0  0  0  0  0  0  0  0  0  0  0
   54.8720   36.1835   12.0258 S   0  0  0  0  0  0  0  0  0  0  0  0
   54.4616   37.1992   13.2634 N   0  0  0  0  0  0  0  0  0  0  0  0
   55.3903   38.5571   13.2831 S   0  0  0  0  0  0  0  0  0  0  0  0
   54.9483   39.4335   11.9457 N   0  0  0  0  0  0  0  0  0  0  0  0
   53.5291   39.6484   11.8260 N   0  0  0  0  0  0  0  0  0  0  0  0
   52.9965   40.5323   12.8203 N   0  0  0  0  0  0  0  0  0  0  0  0
   53.7322   41.7601   12.8936 N   0  0  0  0  0  0  0  0  0  0  0  0
   53.6131   42.5061   11.6767 N   0  0  0  0  0  0  0  0  0  0  0  0
   52.2515   42.8775   11.4302 N   0  0  0  0  0  0  0  0  0  0  0  0
   51.7385   43.6681   12.5156 N   0  0  0  0  0  0  0  0  0  0  0  0
   52.5252   44.8660   12.6652 N   0  0  0  0  0  0  0  0  0  0  0  0
   52.4473   45.6593   11.4678 N   0  0  0  0  0  0  0  0  0  0  0  0
   51.0742   45.9801   11.1727 N   0  0  0  0  0  0  0  0  0  0  0  0
   50.5053   46.7378   12.2562 N   0  0  0  0  0  0  0  0  0  0  0  0
   51.2564   47.9524   12.4392 N   0  0  0  0  0  0  0  0  0  0  0  0
   51.2102   48.7326   11.2282 N   0  0  0  0  0  0  0  0  0  0  0  0
   49.8412   49.0615   10.9207 N   0  0  0  0  0  0  0  0  0  0  0  0
   49.2731   49.8139   12.0110 N   0  0  0  0  0  0  0  0  0  0  0  0
   50.0388   51.0209   12.2100 N   0  0  0  0  0  0  0  0  0  0  0  0
   50.0204   51.8143   10.9968 N   0  0  0  0  0  0  0  0  0  0  0  0
   48.6542   52.1237   10.6574 N   0  0  0  0  0  0  0  0  0  0  0  0
   48.0401   52.8741   11.7273 N   0  0  0  0  0  0  0  0  0  0  0  0
   48.7819   54.0867   11.9643 N   0  0  0  0  0  0  0  0  0  0  0  0
   48.7875   54.9097   10.7821 N   0  0  0  0  0  0  0  0  0  0  0  0
   47.4291   55.2520   10.4044 N   0  0  0  0  0  0  0  0  0  0  0  0
   46.8012   56.0180   11.4497 N   0  0  0  0  0  0  0  0  0  0  0  0
   47.5070   57.2628   11.6720 N   0  0  0  0  0  0  0  0  0  0  0  0
   47.5241   58.0653   10.4805 N   0  0  0  0  0  0  0  0  0  0  0  0
   46.1719   58.3683   10.1318 N   0  0  0  0  0  0  0  0  0  0  0  0
   52.0365   32.1903   28.6681 H   0  0  0  0  0  0  0  0  0  0  0  0
   52.0011   33.6575   24.2302 H   0  0  0  0  0  0  0  0  0  0  0  0
   50.8035   31.4799   22.8253 H   0  0  0  0  0  0  0  0  0  0  0  0
   51.4813   34.1122   21.9366 H   0  0  0  0  0  0  0  0  0  0  0  0
   50.5030   31.8418   20.5128 H   0  0  0  0  0  0  0  0  0  0  0  0
   51.2119   34.4606   19.6299 H   0  0  0  0  0  0  0  0  0  0  0  0
   50.2025   32.1891   18.2153 H   0  0  0  0  0  0  0  0  0  0  0  0
   50.8670   34.7845   17.3124 H   0  0  0  0  0  0  0  0  0  0  0  0
   50.1062   32.3590   16.0002 H   0  0  0  0  0  0  0  0  0  0  0  0
   50.2660   34.9729   14.8462 H   0  0  0  0  0  0  0  0  0  0  0  0
   51.1353   33.1938   13.5066 H   0  0  0  0  0  0  0  0  0  0  0  0
   48.4266   32.3021   13.6331 H   0  0  0  0  0  0  0  0  0  0  0  0
   51.7732   30.8710   12.3559 H   0  0  0  0  0  0  0  0  0  0  0  0
   50.4366   31.9207    8.7674 H   0  0  0  0  0  0  0  0  0  0  0  0
   51.9734   33.8444    6.4490 H   0  0  0  0  0  0  0  0  0  0  0  0
   49.7817   35.4195    8.7435 H   0  0  0  0  0  0  0  0  0  0  0  0
   49.0481   39.0687    8.0439 H   0  0  0  0  0  0  0  0  0  0  0  0
   52.6355   38.6205    9.1970 H   0  0  0  0  0  0  0  0  0  0  0  0
   55.1707   39.3531    7.1194 H   0  0  0  0  0  0  0  0  0  0  0  0
   53.7881   35.7694    7.9511 H   0  0  0  0  0  0  0  0  0  0  0  0
   54.3853   36.8115    5.3306 H   0  0  0  0  0  0  0  0  0  0  0  0
   54.2814   33.0715    4.3803 H   0  0  0  0  0  0  0  0  0  0  0  0
   52.0984   35.5669    2.5219 H   0  0  0  0  0  0  0  0  0  0  0  0
   51.4231   31.8791    1.6519 H   0  0  0  0  0  0  0  0  0  0  0  0
   49.1626   33.8215    2.6380 H   0  0  0  0  0  0  0  0  0  0  0  0
   45.8440   33.3259    3.9890 H   0  0  0  0  0  0  0  0  0  0  0  0
   49.2509   31.8805    4.6535 H   0  0  0  0  0  0  0  0  0  0  0  0
   47.9433   34.8166    7.4852 H   0  0  0  0  0  0  0  0  0  0  0  0
   50.7068   33.6857    8.9275 H   0  0  0  0  0  0  0  0  0  0  0  0
   51.0596   36.3076   10.9584 H   0  0  0  0  0  0  0  0  0  0  0  0
   53.9023   34.3452   11.2248 H   0  0  0  0  0  0  0  0  0  0  0  0
   54.5056   36.7065   14.1540 H   0  0  0  0  0  0  0  0  0  0  0  0
   55.2873   38.9439   11.1130 H   0  0  0  0  0  0  0  0  0  0  0  0
   53.0327   38.7512   11.8494 H   0  0  0  0  0  0  0  0  0  0  0  0
   53.0158   40.0753   13.7391 H   0  0  0  0  0  0  0  0  0  0  0  0
   54.7210   41.5351   13.0528 H   0  0  0  0  0  0  0  0  0  0  0  0
   53.9472   41.9153   10.9072 H   0  0  0  0  0  0  0  0  0  0  0  0
   51.7024   42.0133   11.3546 H   0  0  0  0  0  0  0  0  0  0  0  0
   51.8291   43.1077   13.3726 H   0  0  0  0  0  0  0  0  0  0  0  0
   53.5003   44.5634   12.7952 H   0  0  0  0  0  0  0  0  0  0  0  0
   52.8202   45.0852   10.6999 H   0  0  0  0  0  0  0  0  0  0  0  0
   50.5705   45.0865   11.0945 H   0  0  0  0  0  0  0  0  0  0  0  0
   50.5970   46.1631   13.1044 H   0  0  0  0  0  0  0  0  0  0  0  0
   52.2320   47.6722   12.6106 H   0  0  0  0  0  0  0  0  0  0  0  0
   51.5807   48.1351   10.4768 H   0  0  0  0  0  0  0  0  0  0  0  0
   49.3344   48.1699   10.8386 H   0  0  0  0  0  0  0  0  0  0  0  0
   49.3651   49.2270   12.8517 H   0  0  0  0  0  0  0  0  0  0  0  0
   51.0080   50.7258   12.3913 H   0  0  0  0  0  0  0  0  0  0  0  0
   50.4131   51.2165   10.2567 H   0  0  0  0  0  0  0  0  0  0  0  0
   48.1660   51.2199   10.5779 H   0  0  0  0  0  0  0  0  0  0  0  0
   48.1102   52.2857   12.5696 H   0  0  0  0  0  0  0  0  0  0  0  0
   49.7483   53.8017   12.1599 H   0  0  0  0  0  0  0  0  0  0  0  0
   49.1967   54.3402   10.0281 H   0  0  0  0  0  0  0  0  0  0  0  0
   46.9351   54.3704   10.3040 H   0  0  0  0  0  0  0  0  0  0  0  0
   46.8599   55.4537   12.3051 H   0  0  0  0  0  0  0  0  0  0  0  0
   48.4653   57.0076   11.9031 H   0  0  0  0  0  0  0  0  0  0  0  0
   47.9605   57.4884    9.7406 H   0  0  0  0  0  0  0  0  0  0  0  0
   45.7513   58.8169   10.9476 H   0  0  0  0  0  0  0  0  0  0  0  0
   45.6924   57.4612   10.1009 H   0  0  0  0  0  0  0  0  0  0  0  0
  1  2  1  0  0  0  0
  1 82  1  0  0  0  0
  2  3  1  0  0  0  0
  3  4  1  0  0  0  0
  4  5  1  0  0  0  0
  4 83  1  0  0  0  0
  5  6  1  0  0  0  0
  5 84  1  0  0  0  0
  6  7  1  0  0  0  0
  6 85  1  0  0  0  0
  7  8  1  0  0  0  0
  7 86  1  0  0  0  0
  8  9  1  0  0  0  0
  8 87  1  0  0  0  0
  9 10  1  0  0  0  0
  9 88  1  0  0  0  0
 10 11  1  0  0  0  0
 10 89  1  0  0  0  0
 11 12  1  0  0  0  0
 11 90  1  0  0  0  0
 12 13  1  0  0  0  0
 12 91  1  0  0  0  0
 13 14  1  0  0  0  0
 13 92  1  0  0  0  0
 14 15  1  0  0  0  0
 14 93  1  0  0  0  0
 15 16  1  0  0  0  0
 16 17  1  0  0  0  0
 16 94  1  0  0  0  0
 17 18  1  0  0  0  0
 18 19  1  0  0  0  0
 18 95  1  0  0  0  0
 19 20  1  0  0  0  0
 20 21  1  0  0  0  0
 20 96  1  0  0  0  0
 21 22  1  0  0  0  0
 22 23  1  0  0  0  0
 22 97  1  0  0  0  0
 23 24  1  0  0  0  0
 24 25  1  0  0  0  0
 24 98  1  0  0  0  0
 25 26  1  0  0  0  0
 26 27  1  0  0  0  0
 26 99  1  0  0  0  0
 27 28  1  0  0  0  0
 28 29  1  0  0  0  0
 28100  1  0  0  0  0
 29 30  1  0  0  0  0
 30 31  1  0  0  0  0
 30101  1  0  0  0  0
 31 32  1  0  0  0  0
 32 33  1  0  0  0  0
 32102  1  0  0  0  0
 33 34  1  0  0  0  0
 34 35  1  0  0  0  0
 34103  1  0  0  0  0
 35 36  1  0  0  0  0
 36 37  1  0  0  0  0
 36104  1  0  0  0  0
 37 38  1  0  0  0  0
 38 39  1  0  0  0  0
 38105  1  0  0  0  0
 39 40  1  0  0  0  0
 40 41  1  0  0  0  0
 40106  1  0  0  0  0
 41 42  1  0  0  0  0
 42 43  1  0  0  0  0
 42107  1  0  0  0  0
 43 44  1  0  0  0  0
 44 45  1  0  0  0  0
 44108  1  0  0  0  0
 45 46  1  0  0  0  0
 46 47  1  0  0  0  0
 46109  1  0  0  0  0
 47 48  1  0  0  0  0
 48 49  1  0  0  0  0
 48110  1  0  0  0  0
 49 50  1  0  0  0  0
 50 51  1  0  0  0  0
 50111  1  0  0  0  0
 51 52  1  0  0  0  0
 52 53  1  0  0  0  0
 52112  1  0  0  0  0
 53 54  1  0  0  0  0
 54 55  1  0  0  0  0
 54113  1  0  0  0  0
 55 56  1  0  0  0  0
 56 57  1  0  0  0  0
 56114  1  0  0  0  0
 57 58  1  0  0  0  0
 57115  1  0  0  0  0
 58 59  1  0  0  0  0
 58116  1  0  0  0  0
 59 60  1  0  0  0  0
 59117  1  0  0  0  0
 60 61  1  0  0  0  0
 60118  1  0  0  0  0
 61 62  1  0  0  0  0
 61119  1  0  0  0  0
 62 63  1  0  0  0  0
 62120  1  0  0  0  0
 63 64  1  0  0  0  0
 63121  1  0  0  0  0
 64 65  1  0  0  0  0
 64122  1  0  0  0  0
 65 66  1  0  0  0  0
 65123  1  0  0  0  0
 66 67  1  0  0  0  0
 66124  1  0  0  0  0
 67 68  1  0  0  0  0
 67125  1  0  0  0  0
 68 69  1  0  0  0  0
 68126  1  0  0  0  0
 69 70  1  0  0  0  0
 69127  1  0  0  0  0
 70 71  1  0  0  0  0
 70128  1  0  0  0  0
 71 72  1  0  0  0  0
 71129  1  0  0  0  0
 72 73  1  0  0  0  0
 72130  1  0  0  0  0
 73 74  1  0  0  0  0
 73131  1  0  0  0  0
 74 75  1  0  0  0  0
 74132  1  0  0  0  0
 75 76  1  0  0  0  0
 75133  1  0  0  0  0
 76 77  1  0  0  0  0
 76134  1  0  0  0  0
 77 78  1  0  0  0  0
 77135  1  0  0  0  0
 78 79  1  0  0  0  0
 78136  1  0  0  0  0
 79 80  1  0  0  0  0
 79137  1  0  0  0  0
 80 81  1  0  0  0  0
 80138  1  0  0  0  0
 81139  1  0  0  0  0
 81140  1  0  0  0  0
M  END
$$$$
