
 OpenBabel04232216403D

234233  0  0  0  0  0  0  0  0999 V2000
    1.5703    0.0108   -0.9654 C   0  0  0  0  0  0  0  0  0  0  0  0
    2.4255   -0.0027    0.0623 C   0  0  0  0  0  0  0  0  0  0  0  0
    3.2006   -1.2333    0.4296 C   0  0  0  0  0  0  0  0  0  0  0  0
    4.7058   -0.9845    0.3450 C   0  0  0  0  0  0  0  0  0  0  0  0
    5.4340   -2.2046    0.7088 N   0  0  0  0  0  0  0  0  0  0  0  0
    6.8278   -1.9562    0.6245 N   0  0  0  0  0  0  0  0  0  0  0  0
    7.5360   -3.1231    0.9706 N   0  0  0  0  0  0  0  0  0  0  0  0
    8.9073   -2.8734    0.8934 N   0  0  0  0  0  0  0  0  0  0  0  0
    9.5946   -4.0437    1.2390 N   0  0  0  0  0  0  0  0  0  0  0  0
   10.9821   -3.7943    1.1555 N   0  0  0  0  0  0  0  0  0  0  0  0
   11.7177   -5.0061    1.5195 C   0  0  0  0  0  0  0  0  0  0  0  0
   13.2254   -4.7558    1.4386 C   0  0  0  0  0  0  0  0  0  0  0  0
   14.0013   -6.0154    1.8130 C   0  0  0  0  0  0  0  0  0  0  0  0
   15.4986   -5.7613    1.7329 C   0  0  0  0  0  0  0  0  0  0  0  0
   16.2649   -7.0184    2.1068 C   0  0  0  0  0  0  0  0  0  0  0  0
   17.7582   -6.7597    2.0274 C   0  0  0  0  0  0  0  0  0  0  0  0
   18.5219   -8.0152    2.4030 C   0  0  0  0  0  0  0  0  0  0  0  0
   20.0140   -7.7562    2.3214 C   0  0  0  0  0  0  0  0  0  0  0  0
   20.7767   -9.0124    2.6950 C   0  0  0  0  0  0  0  0  0  0  0  0
   22.2684   -8.7525    2.6152 C   0  0  0  0  0  0  0  0  0  0  0  0
   23.0311  -10.0091    2.9870 C   0  0  0  0  0  0  0  0  0  0  0  0
   24.5228   -9.7486    2.9091 C   0  0  0  0  0  0  0  0  0  0  0  0
   25.2855  -11.0059    3.2789 C   0  0  0  0  0  0  0  0  0  0  0  0
   26.7772  -10.7459    3.1991 C   0  0  0  0  0  0  0  0  0  0  0  0
   27.5399  -12.0032    3.5689 C   0  0  0  0  0  0  0  0  0  0  0  0
   29.0317  -11.7427    3.4910 C   0  0  0  0  0  0  0  0  0  0  0  0
   29.7944  -12.9999    3.8608 C   0  0  0  0  0  0  0  0  0  0  0  0
   31.2861  -12.7394    3.7829 C   0  0  0  0  0  0  0  0  0  0  0  0
   32.0488  -13.9966    4.1527 C   0  0  0  0  0  0  0  0  0  0  0  0
   33.5405  -13.7361    4.0749 C   0  0  0  0  0  0  0  0  0  0  0  0
   34.3032  -14.9934    4.4446 C   0  0  0  0  0  0  0  0  0  0  0  0
   35.7949  -14.7329    4.3668 C   0  0  0  0  0  0  0  0  0  0  0  0
   36.5576  -15.9907    4.7346 C   0  0  0  0  0  0  0  0  0  0  0  0
   38.0493  -15.7302    4.6568 C   0  0  0  0  0  0  0  0  0  0  0  0
   38.8120  -16.9880    5.0246 C   0  0  0  0  0  0  0  0  0  0  0  0
   40.3037  -16.7275    4.9468 C   0  0  0  0  0  0  0  0  0  0  0  0
   41.0664  -17.9858    5.3127 C   0  0  0  0  0  0  0  0  0  0  0  0
   42.5581  -17.7259    5.2329 C   0  0  0  0  0  0  0  0  0  0  0  0
   43.3208  -18.9837    5.6007 C   0  0  0  0  0  0  0  0  0  0  0  0
   44.8125  -18.7232    5.5229 C   0  0  0  0  0  0  0  0  0  0  0  0
   45.5752  -19.9816    5.8888 C   0  0  0  0  0  0  0  0  0  0  0  0
   47.0669  -19.7205    5.8129 C   0  0  0  0  0  0  0  0  0  0  0  0
   47.8296  -20.9789    6.1788 C   0  0  0  0  0  0  0  0  0  0  0  0
   49.3213  -20.7178    6.1029 C   0  0  0  0  0  0  0  0  0  0  0  0
   50.0840  -21.9762    6.4688 C   0  0  0  0  0  0  0  0  0  0  0  0
   51.5757  -21.7151    6.3929 C   0  0  0  0  0  0  0  0  0  0  0  0
   52.3384  -22.9735    6.7587 C   0  0  0  0  0  0  0  0  0  0  0  0
   53.8301  -22.7129    6.6809 C   0  0  0  0  0  0  0  0  0  0  0  0
   54.5928  -23.9719    7.0449 C   0  0  0  0  0  0  0  0  0  0  0  0
   56.0845  -23.7108    6.9689 C   0  0  0  0  0  0  0  0  0  0  0  0
   56.8472  -24.9697    7.3329 C   0  0  0  0  0  0  0  0  0  0  0  0
   58.3389  -24.7092    7.2551 C   0  0  0  0  0  0  0  0  0  0  0  0
   59.1016  -25.9676    7.6210 C   0  0  0  0  0  0  0  0  0  0  0  0
   60.5933  -25.7065    7.5451 C   0  0  0  0  0  0  0  0  0  0  0  0
   61.3560  -26.9655    7.9090 C   0  0  0  0  0  0  0  0  0  0  0  0
   62.8477  -26.7050    7.8312 C   0  0  0  0  0  0  0  0  0  0  0  0
   63.6104  -27.9633    8.1971 C   0  0  0  0  0  0  0  0  0  0  0  0
   65.1021  -27.7028    8.1192 C   0  0  0  0  0  0  0  0  0  0  0  0
   65.8649  -28.9617    8.4832 C   0  0  0  0  0  0  0  0  0  0  0  0
   67.3566  -28.7012    8.4054 C   0  0  0  0  0  0  0  0  0  0  0  0
   68.1193  -29.9602    8.7693 C   0  0  0  0  0  0  0  0  0  0  0  0
   69.6110  -29.6997    8.6915 C   0  0  0  0  0  0  0  0  0  0  0  0
   70.3737  -30.9586    9.0554 C   0  0  0  0  0  0  0  0  0  0  0  0
   71.8654  -30.6981    8.9776 C   0  0  0  0  0  0  0  0  0  0  0  0
   72.6281  -31.9570    9.3415 C   0  0  0  0  0  0  0  0  0  0  0  0
   74.1198  -31.6965    9.2637 C   0  0  0  0  0  0  0  0  0  0  0  0
   74.8825  -32.9554    9.6277 C   0  0  0  0  0  0  0  0  0  0  0  0
   76.3742  -32.6949    9.5498 C   0  0  0  0  0  0  0  0  0  0  0  0
   77.1369  -33.9533    9.9157 C   0  0  0  0  0  0  0  0  0  0  0  0
   78.6286  -33.6928    9.8379 C   0  0  0  0  0  0  0  0  0  0  0  0
   79.3913  -34.9511   10.2038 C   0  0  0  0  0  0  0  0  0  0  0  0
   80.8830  -34.6906   10.1259 C   0  0  0  0  0  0  0  0  0  0  0  0
   81.6457  -35.9490   10.4918 C   0  0  0  0  0  0  0  0  0  0  0  0
   83.1374  -35.6885   10.4140 C   0  0  0  0  0  0  0  0  0  0  0  0
   83.9003  -36.9464   10.7819 C   0  0  0  0  0  0  0  0  0  0  0  0
   85.3925  -36.6865   10.7041 C   0  0  0  0  0  0  0  0  0  0  0  0
   86.1558  -37.9450   11.0722 C   0  0  0  0  0  0  0  0  0  0  0  0
   87.6499  -37.6876   10.9932 C   0  0  0  0  0  0  0  0  0  0  0  0
   88.4202  -38.9446   11.3629 C   0  0  0  0  0  0  0  0  0  0  0  0
   89.9099  -38.6836   11.2828 C   0  0  0  0  0  0  0  0  0  0  0  0
    1.0211    0.9079   -1.2176 H   0  0  0  0  0  0  0  0  0  0  0  0
    1.4125   -0.8782   -1.5673 H   0  0  0  0  0  0  0  0  0  0  0  0
    2.5690    0.9008    0.6496 H   0  0  0  0  0  0  0  0  0  0  0  0
    2.9214   -2.0517   -0.2480 H   0  0  0  0  0  0  0  0  0  0  0  0
    2.9264   -1.5368    1.4468 H   0  0  0  0  0  0  0  0  0  0  0  0
    4.9697   -0.1736    1.0366 H   0  0  0  0  0  0  0  0  0  0  0  0
    4.9666   -0.6606   -0.6703 H   0  0  0  0  0  0  0  0  0  0  0  0
    5.2374   -2.9494    0.0449 H   0  0  0  0  0  0  0  0  0  0  0  0
    7.1071   -1.2421    1.2902 H   0  0  0  0  0  0  0  0  0  0  0  0
    7.3214   -3.8845    0.3363 H   0  0  0  0  0  0  0  0  0  0  0  0
    9.1638   -2.1176    1.5231 H   0  0  0  0  0  0  0  0  0  0  0  0
    9.3330   -4.7798    0.5882 H   0  0  0  0  0  0  0  0  0  0  0  0
   11.1991   -3.0461    1.8101 H   0  0  0  0  0  0  0  0  0  0  0  0
   11.4665   -5.8255    0.8339 H   0  0  0  0  0  0  0  0  0  0  0  0
   11.4687   -5.3287    2.5386 H   0  0  0  0  0  0  0  0  0  0  0  0
   13.5133   -3.9421    2.1160 H   0  0  0  0  0  0  0  0  0  0  0  0
   13.5052   -4.4509    0.4221 H   0  0  0  0  0  0  0  0  0  0  0  0
   13.7329   -6.8366    1.1370 H   0  0  0  0  0  0  0  0  0  0  0  0
   13.7374   -6.3298    2.8303 H   0  0  0  0  0  0  0  0  0  0  0  0
   15.7759   -4.9448    2.4107 H   0  0  0  0  0  0  0  0  0  0  0  0
   15.7714   -5.4515    0.7167 H   0  0  0  0  0  0  0  0  0  0  0  0
   15.9937   -7.8369    1.4288 H   0  0  0  0  0  0  0  0  0  0  0  0
   15.9962   -7.3313    3.1232 H   0  0  0  0  0  0  0  0  0  0  0  0
   18.0317   -5.9414    2.7047 H   0  0  0  0  0  0  0  0  0  0  0  0
   18.0295   -6.4493    1.0109 H   0  0  0  0  0  0  0  0  0  0  0  0
   18.2486   -8.8345    1.7267 H   0  0  0  0  0  0  0  0  0  0  0  0
   18.2528   -8.3254    3.4202 H   0  0  0  0  0  0  0  0  0  0  0  0
   20.2880   -6.9382    2.9988 H   0  0  0  0  0  0  0  0  0  0  0  0
   20.2833   -7.4450    1.3046 H   0  0  0  0  0  0  0  0  0  0  0  0
   20.5038   -9.8300    2.0167 H   0  0  0  0  0  0  0  0  0  0  0  0
   20.5064   -9.3244    3.7112 H   0  0  0  0  0  0  0  0  0  0  0  0
   22.5415   -7.9358    3.2946 H   0  0  0  0  0  0  0  0  0  0  0  0
   22.5386   -8.4390    1.5994 H   0  0  0  0  0  0  0  0  0  0  0  0
   22.7591  -10.8254    2.3066 H   0  0  0  0  0  0  0  0  0  0  0  0
   22.7599  -10.3234    4.0023 H   0  0  0  0  0  0  0  0  0  0  0  0
   24.7951   -8.9333    3.5905 H   0  0  0  0  0  0  0  0  0  0  0  0
   24.7938   -9.4330    1.8942 H   0  0  0  0  0  0  0  0  0  0  0  0
   25.0122  -11.8216    2.5984 H   0  0  0  0  0  0  0  0  0  0  0  0
   25.0156  -11.3207    4.2943 H   0  0  0  0  0  0  0  0  0  0  0  0
   27.0506   -9.9302    3.8796 H   0  0  0  0  0  0  0  0  0  0  0  0
   27.0472  -10.4311    2.1836 H   0  0  0  0  0  0  0  0  0  0  0  0
   27.2677  -12.8185    2.8875 H   0  0  0  0  0  0  0  0  0  0  0  0
   27.2690  -12.3188    4.5838 H   0  0  0  0  0  0  0  0  0  0  0  0
   29.3039  -10.9273    4.1724 H   0  0  0  0  0  0  0  0  0  0  0  0
   29.3026  -11.4270    2.4761 H   0  0  0  0  0  0  0  0  0  0  0  0
   29.5221  -13.8152    3.1794 H   0  0  0  0  0  0  0  0  0  0  0  0
   29.5234  -13.3156    4.8757 H   0  0  0  0  0  0  0  0  0  0  0  0
   31.5583  -11.9241    4.4643 H   0  0  0  0  0  0  0  0  0  0  0  0
   31.5570  -12.4237    2.7680 H   0  0  0  0  0  0  0  0  0  0  0  0
   31.7765  -14.8120    3.4713 H   0  0  0  0  0  0  0  0  0  0  0  0
   31.7778  -14.3123    5.1677 H   0  0  0  0  0  0  0  0  0  0  0  0
   33.8127  -12.9208    4.7562 H   0  0  0  0  0  0  0  0  0  0  0  0
   33.8114  -13.4205    3.0599 H   0  0  0  0  0  0  0  0  0  0  0  0
   34.0309  -15.8087    3.7633 H   0  0  0  0  0  0  0  0  0  0  0  0
   34.0322  -15.3090    5.4596 H   0  0  0  0  0  0  0  0  0  0  0  0
   36.0673  -13.9185    5.0492 H   0  0  0  0  0  0  0  0  0  0  0  0
   36.0656  -14.4158    3.3522 H   0  0  0  0  0  0  0  0  0  0  0  0
   36.2851  -16.8050    4.0522 H   0  0  0  0  0  0  0  0  0  0  0  0
   36.2868  -16.3077    5.7492 H   0  0  0  0  0  0  0  0  0  0  0  0
   38.3218  -14.9158    5.3392 H   0  0  0  0  0  0  0  0  0  0  0  0
   38.3200  -15.4131    3.6422 H   0  0  0  0  0  0  0  0  0  0  0  0
   38.5395  -17.8023    4.3422 H   0  0  0  0  0  0  0  0  0  0  0  0
   38.5412  -17.3050    6.0392 H   0  0  0  0  0  0  0  0  0  0  0  0
   40.5764  -15.9141    5.6303 H   0  0  0  0  0  0  0  0  0  0  0  0
   40.5742  -16.4090    3.9326 H   0  0  0  0  0  0  0  0  0  0  0  0
   40.7926  -18.7996    4.6301 H   0  0  0  0  0  0  0  0  0  0  0  0
   40.7969  -18.3034    6.3274 H   0  0  0  0  0  0  0  0  0  0  0  0
   42.8316  -16.9111    5.9144 H   0  0  0  0  0  0  0  0  0  0  0  0
   42.8278  -17.4097    4.2178 H   0  0  0  0  0  0  0  0  0  0  0  0
   43.0483  -19.7981    4.9183 H   0  0  0  0  0  0  0  0  0  0  0  0
   43.0501  -19.3008    6.6153 H   0  0  0  0  0  0  0  0  0  0  0  0
   45.0852  -17.9098    6.2064 H   0  0  0  0  0  0  0  0  0  0  0  0
   45.0831  -18.4048    4.5087 H   0  0  0  0  0  0  0  0  0  0  0  0
   45.3036  -20.7946    5.2044 H   0  0  0  0  0  0  0  0  0  0  0  0
   45.3036  -20.3008    6.9024 H   0  0  0  0  0  0  0  0  0  0  0  0
   47.3385  -18.9075    6.4973 H   0  0  0  0  0  0  0  0  0  0  0  0
   47.3385  -19.4012    4.7992 H   0  0  0  0  0  0  0  0  0  0  0  0
   47.5580  -21.7919    5.4944 H   0  0  0  0  0  0  0  0  0  0  0  0
   47.5580  -21.2981    7.1924 H   0  0  0  0  0  0  0  0  0  0  0  0
   49.5929  -19.9048    6.7873 H   0  0  0  0  0  0  0  0  0  0  0  0
   49.5929  -20.3985    5.0892 H   0  0  0  0  0  0  0  0  0  0  0  0
   49.8124  -22.7892    5.7844 H   0  0  0  0  0  0  0  0  0  0  0  0
   49.8124  -22.2954    7.4824 H   0  0  0  0  0  0  0  0  0  0  0  0
   51.8473  -20.9021    7.0773 H   0  0  0  0  0  0  0  0  0  0  0  0
   51.8473  -21.3958    5.3792 H   0  0  0  0  0  0  0  0  0  0  0  0
   52.0657  -23.7868    6.0752 H   0  0  0  0  0  0  0  0  0  0  0  0
   52.0679  -23.2919    7.7729 H   0  0  0  0  0  0  0  0  0  0  0  0
   54.1030  -21.9005    7.3655 H   0  0  0  0  0  0  0  0  0  0  0  0
   54.1005  -22.3931    5.6671 H   0  0  0  0  0  0  0  0  0  0  0  0
   54.3210  -24.7839    6.3594 H   0  0  0  0  0  0  0  0  0  0  0  0
   54.3214  -24.2925    8.0581 H   0  0  0  0  0  0  0  0  0  0  0  0
   56.3564  -22.8988    7.6544 H   0  0  0  0  0  0  0  0  0  0  0  0
   56.3559  -23.3902    5.9557 H   0  0  0  0  0  0  0  0  0  0  0  0
   56.5743  -25.7822    6.6484 H   0  0  0  0  0  0  0  0  0  0  0  0
   56.5769  -25.2896    8.3467 H   0  0  0  0  0  0  0  0  0  0  0  0
   58.6116  -23.8958    7.9386 H   0  0  0  0  0  0  0  0  0  0  0  0
   58.6095  -24.3908    6.2409 H   0  0  0  0  0  0  0  0  0  0  0  0
   58.8300  -26.7806    6.9366 H   0  0  0  0  0  0  0  0  0  0  0  0
   58.8300  -26.2869    8.6346 H   0  0  0  0  0  0  0  0  0  0  0  0
   60.8652  -24.8945    8.2305 H   0  0  0  0  0  0  0  0  0  0  0  0
   60.8647  -25.3859    6.5318 H   0  0  0  0  0  0  0  0  0  0  0  0
   61.0831  -27.7779    7.2245 H   0  0  0  0  0  0  0  0  0  0  0  0
   61.0857  -27.2853    8.9228 H   0  0  0  0  0  0  0  0  0  0  0  0
   63.1204  -25.8916    8.5147 H   0  0  0  0  0  0  0  0  0  0  0  0
   63.1183  -26.3865    6.8170 H   0  0  0  0  0  0  0  0  0  0  0  0
   63.3377  -28.7767    7.5136 H   0  0  0  0  0  0  0  0  0  0  0  0
   63.3399  -28.2818    9.2113 H   0  0  0  0  0  0  0  0  0  0  0  0
   65.3751  -26.8904    8.8038 H   0  0  0  0  0  0  0  0  0  0  0  0
   65.3725  -27.3830    7.1054 H   0  0  0  0  0  0  0  0  0  0  0  0
   65.5919  -29.7742    7.7986 H   0  0  0  0  0  0  0  0  0  0  0  0
   65.5945  -29.2816    9.4970 H   0  0  0  0  0  0  0  0  0  0  0  0
   67.6295  -27.8888    9.0899 H   0  0  0  0  0  0  0  0  0  0  0  0
   67.6269  -28.3814    7.3915 H   0  0  0  0  0  0  0  0  0  0  0  0
   67.8463  -30.7726    8.0847 H   0  0  0  0  0  0  0  0  0  0  0  0
   67.8489  -30.2800    9.7831 H   0  0  0  0  0  0  0  0  0  0  0  0
   69.8839  -28.8872    9.3760 H   0  0  0  0  0  0  0  0  0  0  0  0
   69.8813  -29.3798    7.6777 H   0  0  0  0  0  0  0  0  0  0  0  0
   70.1007  -31.7710    8.3709 H   0  0  0  0  0  0  0  0  0  0  0  0
   70.1034  -31.2784   10.0692 H   0  0  0  0  0  0  0  0  0  0  0  0
   72.1383  -29.8857    9.6622 H   0  0  0  0  0  0  0  0  0  0  0  0
   72.1357  -30.3782    7.9638 H   0  0  0  0  0  0  0  0  0  0  0  0
   72.3551  -32.7694    8.6570 H   0  0  0  0  0  0  0  0  0  0  0  0
   72.3578  -32.2768   10.3554 H   0  0  0  0  0  0  0  0  0  0  0  0
   74.3927  -30.8841    9.9483 H   0  0  0  0  0  0  0  0  0  0  0  0
   74.3901  -31.3767    8.2499 H   0  0  0  0  0  0  0  0  0  0  0  0
   74.6096  -33.7679    8.9431 H   0  0  0  0  0  0  0  0  0  0  0  0
   74.6122  -33.2753   10.6415 H   0  0  0  0  0  0  0  0  0  0  0  0
   76.6469  -31.8815   10.2333 H   0  0  0  0  0  0  0  0  0  0  0  0
   76.6447  -32.3765    8.5356 H   0  0  0  0  0  0  0  0  0  0  0  0
   76.8642  -34.7667    9.2322 H   0  0  0  0  0  0  0  0  0  0  0  0
   76.8663  -34.2717   10.9299 H   0  0  0  0  0  0  0  0  0  0  0  0
   78.9013  -32.8794   10.5214 H   0  0  0  0  0  0  0  0  0  0  0  0
   78.8991  -33.3743    8.8237 H   0  0  0  0  0  0  0  0  0  0  0  0
   79.1186  -35.7645    9.5203 H   0  0  0  0  0  0  0  0  0  0  0  0
   79.1208  -35.2696   11.2180 H   0  0  0  0  0  0  0  0  0  0  0  0
   81.1557  -33.8772   10.8094 H   0  0  0  0  0  0  0  0  0  0  0  0
   81.1535  -34.3722    9.1117 H   0  0  0  0  0  0  0  0  0  0  0  0
   81.3730  -36.7624    9.8083 H   0  0  0  0  0  0  0  0  0  0  0  0
   81.3751  -36.2674   11.5060 H   0  0  0  0  0  0  0  0  0  0  0  0
   83.4099  -34.8742   11.0964 H   0  0  0  0  0  0  0  0  0  0  0  0
   83.4081  -35.3715    9.3995 H   0  0  0  0  0  0  0  0  0  0  0  0
   83.6276  -37.7608   10.0994 H   0  0  0  0  0  0  0  0  0  0  0  0
   83.6293  -37.2635   11.7964 H   0  0  0  0  0  0  0  0  0  0  0  0
   85.6644  -35.8715   11.3865 H   0  0  0  0  0  0  0  0  0  0  0  0
   85.6627  -36.3689    9.6893 H   0  0  0  0  0  0  0  0  0  0  0  0
   85.8813  -38.7589   10.3904 H   0  0  0  0  0  0  0  0  0  0  0  0
   85.8851  -38.2604   12.0871 H   0  0  0  0  0  0  0  0  0  0  0  0
   87.9205  -36.8702   11.6726 H   0  0  0  0  0  0  0  0  0  0  0  0
   87.9170  -37.3708    9.9777 H   0  0  0  0  0  0  0  0  0  0  0  0
   88.1507  -39.7607   10.6825 H   0  0  0  0  0  0  0  0  0  0  0  0
   88.1541  -39.2598   12.3784 H   0  0  0  0  0  0  0  0  0  0  0  0
   90.1930  -38.3848   10.2683 H   0  0  0  0  0  0  0  0  0  0  0  0
   90.4657  -39.5858   11.5481 H   0  0  0  0  0  0  0  0  0  0  0  0
   90.1965  -37.8819   11.9710 H   0  0  0  0  0  0  0  0  0  0  0  0
  1  2  2  0  0  0  0
  1 81  1  0  0  0  0
  1 82  1  0  0  0  0
  2  3  1  0  0  0  0
  2 83  1  0  0  0  0
  3  4  1  0  0  0  0
  3 84  1  0  0  0  0
  3 85  1  0  0  0  0
  4  5  1  0  0  0  0
  4 86  1  0  0  0  0
  4 87  1  0  0  0  0
  5  6  1  0  0  0  0
  5 88  1  0  0  0  0
  6  7  1  0  0  0  0
  6 89  1  0  0  0  0
  7  8  1  0  0  0  0
  7 90  1  0  0  0  0
  8  9  1  0  0  0  0
  8 91  1  0  0  0  0
  9 10  1  0  0  0  0
  9 92  1  0  0  0  0
 10 11  1  0  0  0  0
 10 93  1  0  0  0  0
 11 12  1  0  0  0  0
 11 94  1  0  0  0  0
 11 95  1  0  0  0  0
 12 13  1  0  0  0  0
 12 96  1  0  0  0  0
 12 97  1  0  0  0  0
 13 14  1  0  0  0  0
 13 98  1  0  0  0  0
 13 99  1  0  0  0  0
 14 15  1  0  0  0  0
 14100  1  0  0  0  0
 14101  1  0  0  0  0
 15 16  1  0  0  0  0
 15102  1  0  0  0  0
 15103  1  0  0  0  0
 16 17  1  0  0  0  0
 16104  1  0  0  0  0
 16105  1  0  0  0  0
 17 18  1  0  0  0  0
 17106  1  0  0  0  0
 17107  1  0  0  0  0
 18 19  1  0  0  0  0
 18108  1  0  0  0  0
 18109  1  0  0  0  0
 19 20  1  0  0  0  0
 19110  1  0  0  0  0
 19111  1  0  0  0  0
 20 21  1  0  0  0  0
 20112  1  0  0  0  0
 20113  1  0  0  0  0
 21 22  1  0  0  0  0
 21114  1  0  0  0  0
 21115  1  0  0  0  0
 22 23  1  0  0  0  0
 22116  1  0  0  0  0
 22117  1  0  0  0  0
 23 24  1  0  0  0  0
 23118  1  0  0  0  0
 23119  1  0  0  0  0
 24 25  1  0  0  0  0
 24120  1  0  0  0  0
 24121  1  0  0  0  0
 25 26  1  0  0  0  0
 25122  1  0  0  0  0
 25123  1  0  0  0  0
 26 27  1  0  0  0  0
 26124  1  0  0  0  0
 26125  1  0  0  0  0
 27 28  1  0  0  0  0
 27126  1  0  0  0  0
 27127  1  0  0  0  0
 28 29  1  0  0  0  0
 28128  1  0  0  0  0
 28129  1  0  0  0  0
 29 30  1  0  0  0  0
 29130  1  0  0  0  0
 29131  1  0  0  0  0
 30 31  1  0  0  0  0
 30132  1  0  0  0  0
 30133  1  0  0  0  0
 31 32  1  0  0  0  0
 31134  1  0  0  0  0
 31135  1  0  0  0  0
 32 33  1  0  0  0  0
 32136  1  0  0  0  0
 32137  1  0  0  0  0
 33 34  1  0  0  0  0
 33138  1  0  0  0  0
 33139  1  0  0  0  0
 34 35  1  0  0  0  0
 34140  1  0  0  0  0
 34141  1  0  0  0  0
 35 36  1  0  0  0  0
 35142  1  0  0  0  0
 35143  1  0  0  0  0
 36 37  1  0  0  0  0
 36144  1  0  0  0  0
 36145  1  0  0  0  0
 37 38  1  0  0  0  0
 37146  1  0  0  0  0
 37147  1  0  0  0  0
 38 39  1  0  0  0  0
 38148  1  0  0  0  0
 38149  1  0  0  0  0
 39 40  1  0  0  0  0
 39150  1  0  0  0  0
 39151  1  0  0  0  0
 40 41  1  0  0  0  0
 40152  1  0  0  0  0
 40153  1  0  0  0  0
 41 42  1  0  0  0  0
 41154  1  0  0  0  0
 41155  1  0  0  0  0
 42 43  1  0  0  0  0
 42156  1  0  0  0  0
 42157  1  0  0  0  0
 43 44  1  0  0  0  0
 43158  1  0  0  0  0
 43159  1  0  0  0  0
 44 45  1  0  0  0  0
 44160  1  0  0  0  0
 44161  1  0  0  0  0
 45 46  1  0  0  0  0
 45162  1  0  0  0  0
 45163  1  0  0  0  0
 46 47  1  0  0  0  0
 46164  1  0  0  0  0
 46165  1  0  0  0  0
 47 48  1  0  0  0  0
 47166  1  0  0  0  0
 47167  1  0  0  0  0
 48 49  1  0  0  0  0
 48168  1  0  0  0  0
 48169  1  0  0  0  0
 49 50  1  0  0  0  0
 49170  1  0  0  0  0
 49171  1  0  0  0  0
 50 51  1  0  0  0  0
 50172  1  0  0  0  0
 50173  1  0  0  0  0
 51 52  1  0  0  0  0
 51174  1  0  0  0  0
 51175  1  0  0  0  0
 52 53  1  0  0  0  0
 52176  1  0  0  0  0
 52177  1  0  0  0  0
 53 54  1  0  0  0  0
 53178  1  0  0  0  0
 53179  1  0  0  0  0
 54 55  1  0  0  0  0
 54180  1  0  0  0  0
 54181  1  0  0  0  0
 55 56  1  0  0  0  0
 55182  1  0  0  0  0
 55183  1  0  0  0  0
 56 57  1  0  0  0  0
 56184  1  0  0  0  0
 56185  1  0  0  0  0
 57 58  1  0  0  0  0
 57186  1  0  0  0  0
 57187  1  0  0  0  0
 58 59  1  0  0  0  0
 58188  1  0  0  0  0
 58189  1  0  0  0  0
 59 60  1  0  0  0  0
 59190  1  0  0  0  0
 59191  1  0  0  0  0
 60 61  1  0  0  0  0
 60192  1  0  0  0  0
 60193  1  0  0  0  0
 61 62  1  0  0  0  0
 61194  1  0  0  0  0
 61195  1  0  0  0  0
 62 63  1  0  0  0  0
 62196  1  0  0  0  0
 62197  1  0  0  0  0
 63 64  1  0  0  0  0
 63198  1  0  0  0  0
 63199  1  0  0  0  0
 64 65  1  0  0  0  0
 64200  1  0  0  0  0
 64201  1  0  0  0  0
 65 66  1  0  0  0  0
 65202  1  0  0  0  0
 65203  1  0  0  0  0
 66 67  1  0  0  0  0
 66204  1  0  0  0  0
 66205  1  0  0  0  0
 67 68  1  0  0  0  0
 67206  1  0  0  0  0
 67207  1  0  0  0  0
 68 69  1  0  0  0  0
 68208  1  0  0  0  0
 68209  1  0  0  0  0
 69 70  1  0  0  0  0
 69210  1  0  0  0  0
 69211  1  0  0  0  0
 70 71  1  0  0  0  0
 70212  1  0  0  0  0
 70213  1  0  0  0  0
 71 72  1  0  0  0  0
 71214  1  0  0  0  0
 71215  1  0  0  0  0
 72 73  1  0  0  0  0
 72216  1  0  0  0  0
 72217  1  0  0  0  0
 73 74  1  0  0  0  0
 73218  1  0  0  0  0
 73219  1  0  0  0  0
 74 75  1  0  0  0  0
 74220  1  0  0  0  0
 74221  1  0  0  0  0
 75 76  1  0  0  0  0
 75222  1  0  0  0  0
 75223  1  0  0  0  0
 76 77  1  0  0  0  0
 76224  1  0  0  0  0
 76225  1  0  0  0  0
 77 78  1  0  0  0  0
 77226  1  0  0  0  0
 77227  1  0  0  0  0
 78 79  1  0  0  0  0
 78228  1  0  0  0  0
 78229  1  0  0  0  0
 79 80  1  0  0  0  0
 79230  1  0  0  0  0
 79231  1  0  0  0  0
 80232  1  0  0  0  0
 80233  1  0  0  0  0
 80234  1  0  0  0  0
M  END
$$$$
