
 OpenBabel04232217033D

152151  0  0  0  0  0  0  0  0999 V2000
   41.9049  -34.5262    1.6120 S   0  0  0  0  0  0  0  0  0  0  0  0
   41.5509  -33.7429    0.1884 O   0  0  0  0  0  0  0  0  0  0  0  0
   40.1151  -33.6941   -0.0206 O   0  0  0  0  0  0  0  0  0  0  0  0
   39.8029  -33.0008   -1.2614 N   0  0  0  0  0  0  0  0  0  0  0  0
   38.4191  -32.6599   -1.3105 N   0  0  0  0  0  0  0  0  0  0  0  0
   38.1159  -32.0113   -2.5341 N   0  0  0  0  0  0  0  0  0  0  0  0
   36.7176  -31.7904   -2.6482 N   0  0  0  0  0  0  0  0  0  0  0  0
   36.4215  -31.1172   -3.8719 N   0  0  0  0  0  0  0  0  0  0  0  0
   36.6445  -31.9888   -4.9830 N   0  0  0  0  0  0  0  0  0  0  0  0
   36.2378  -31.2985   -6.4279 S   0  0  0  0  0  0  0  0  0  0  0  0
   37.1574  -29.9435   -6.6442 N   0  0  0  0  0  0  0  0  0  0  0  0
   38.7893  -30.2216   -6.6813 S   0  0  0  0  0  0  0  0  0  0  0  0
   39.1729  -31.0944   -8.0215 N   0  0  0  0  0  0  0  0  0  0  0  0
   38.8894  -30.3648   -9.4766 S   0  0  0  0  0  0  0  0  0  0  0  0
   39.7080  -28.9298   -9.5437 N   0  0  0  0  0  0  0  0  0  0  0  0
   41.3470  -29.1188   -9.4869 S   0  0  0  0  0  0  0  0  0  0  0  0
   42.0184  -27.6360   -9.7813 N   0  0  0  0  0  0  0  0  0  0  0  0
   41.6232  -26.4331   -8.7196 S   0  0  0  0  0  0  0  0  0  0  0  0
   41.9802  -26.9535   -7.1983 N   0  0  0  0  0  0  0  0  0  0  0  0
   41.6405  -25.8227   -6.0348 S   0  0  0  0  0  0  0  0  0  0  0  0
   40.0077  -25.5276   -6.0283 N   0  0  0  0  0  0  0  0  0  0  0  0
   39.1384  -26.8648   -5.6215 S   0  0  0  0  0  0  0  0  0  0  0  0
   37.5327  -26.4849   -5.6409 N   0  0  0  0  0  0  0  0  0  0  0  0
   36.9543  -25.8534   -7.0471 S   0  0  0  0  0  0  0  0  0  0  0  0
   37.2061  -26.9599   -8.2478 N   0  0  0  0  0  0  0  0  0  0  0  0
   36.5206  -26.4628   -9.6675 S   0  0  0  0  0  0  0  0  0  0  0  0
   37.3582  -25.1230  -10.1708 N   0  0  0  0  0  0  0  0  0  0  0  0
   38.7757  -25.3127  -10.2483 N   0  0  0  0  0  0  0  0  0  0  0  0
   39.1751  -26.1984  -11.3010 N   0  0  0  0  0  0  0  0  0  0  0  0
   38.7449  -25.7425  -12.5828 N   0  0  0  0  0  0  0  0  0  0  0  0
   39.3541  -24.4903  -12.9255 N   0  0  0  0  0  0  0  0  0  0  0  0
   40.7863  -24.6046  -12.9699 N   0  0  0  0  0  0  0  0  0  0  0  0
   41.1905  -25.5863  -13.9402 N   0  0  0  0  0  0  0  0  0  0  0  0
   40.7356  -25.2109  -15.2533 N   0  0  0  0  0  0  0  0  0  0  0  0
   41.2790  -23.9323  -15.6271 N   0  0  0  0  0  0  0  0  0  0  0  0
   42.7191  -23.9922  -15.6398 N   0  0  0  0  0  0  0  0  0  0  0  0
   43.1594  -24.9910  -16.5790 N   0  0  0  0  0  0  0  0  0  0  0  0
   42.6811  -24.6629  -17.8986 N   0  0  0  0  0  0  0  0  0  0  0  0
   43.1857  -23.3699  -18.2891 N   0  0  0  0  0  0  0  0  0  0  0  0
   44.6274  -23.3913  -18.2812 N   0  0  0  0  0  0  0  0  0  0  0  0
   45.0981  -24.3986  -19.1992 N   0  0  0  0  0  0  0  0  0  0  0  0
   44.6097  -24.1090  -20.5238 N   0  0  0  0  0  0  0  0  0  0  0  0
   45.0866  -22.8061  -20.9292 N   0  0  0  0  0  0  0  0  0  0  0  0
   46.5298  -22.7988  -20.9112 N   0  0  0  0  0  0  0  0  0  0  0  0
   47.0220  -23.8156  -21.8093 N   0  0  0  0  0  0  0  0  0  0  0  0
   46.5330  -23.5508  -23.1408 N   0  0  0  0  0  0  0  0  0  0  0  0
   46.9850  -22.2463  -23.5625 N   0  0  0  0  0  0  0  0  0  0  0  0
   48.4275  -22.2117  -23.5356 N   0  0  0  0  0  0  0  0  0  0  0  0
   48.9424  -23.2335  -24.4151 N   0  0  0  0  0  0  0  0  0  0  0  0
   48.4557  -22.9966  -25.7531 N   0  0  0  0  0  0  0  0  0  0  0  0
   48.8831  -21.6887  -26.1891 N   0  0  0  0  0  0  0  0  0  0  0  0
   50.3247  -21.6258  -26.1593 N   0  0  0  0  0  0  0  0  0  0  0  0
   50.8622  -22.6483  -27.0244 N   0  0  0  0  0  0  0  0  0  0  0  0
   50.3768  -22.4375  -28.3673 N   0  0  0  0  0  0  0  0  0  0  0  0
   50.7828  -21.1280  -28.8186 N   0  0  0  0  0  0  0  0  0  0  0  0
   52.2229  -21.0395  -28.7825 N   0  0  0  0  0  0  0  0  0  0  0  0
   52.7822  -22.0640  -29.6313 N   0  0  0  0  0  0  0  0  0  0  0  0
   52.2994  -21.8800  -30.9790 N   0  0  0  0  0  0  0  0  0  0  0  0
   52.6835  -20.5697  -31.4461 N   0  0  0  0  0  0  0  0  0  0  0  0
   54.1215  -20.4547  -31.4059 N   0  0  0  0  0  0  0  0  0  0  0  0
   54.7026  -21.4795  -32.2397 N   0  0  0  0  0  0  0  0  0  0  0  0
   54.2201  -21.3216  -33.5908 N   0  0  0  0  0  0  0  0  0  0  0  0
   54.5824  -20.0110  -34.0732 N   0  0  0  0  0  0  0  0  0  0  0  0
   56.0180  -19.8699  -34.0295 N   0  0  0  0  0  0  0  0  0  0  0  0
   56.6220  -20.8921  -34.8473 N   0  0  0  0  0  0  0  0  0  0  0  0
   56.1293  -20.7634  -36.1996 N   0  0  0  0  0  0  0  0  0  0  0  0
   56.4782  -19.4520  -36.7017 N   0  0  0  0  0  0  0  0  0  0  0  0
   57.9075  -19.2813  -36.6550 N   0  0  0  0  0  0  0  0  0  0  0  0
   58.5347  -20.3099  -37.4490 N   0  0  0  0  0  0  0  0  0  0  0  0
   58.0607  -20.2104  -38.8088 N   0  0  0  0  0  0  0  0  0  0  0  0
   58.3893  -18.9042  -39.3306 N   0  0  0  0  0  0  0  0  0  0  0  0
   59.8205  -18.7160  -39.2776 N   0  0  0  0  0  0  0  0  0  0  0  0
   60.4675  -19.7441  -40.0566 N   0  0  0  0  0  0  0  0  0  0  0  0
   60.0215  -19.6640  -41.4259 N   0  0  0  0  0  0  0  0  0  0  0  0
   60.3419  -18.3634  -41.9636 N   0  0  0  0  0  0  0  0  0  0  0  0
   61.7652  -18.1496  -41.9066 N   0  0  0  0  0  0  0  0  0  0  0  0
   62.4515  -19.1622  -42.6673 N   0  0  0  0  0  0  0  0  0  0  0  0
   62.0508  -19.1045  -44.0521 N   0  0  0  0  0  0  0  0  0  0  0  0
   62.3838  -17.8176  -44.6241 N   0  0  0  0  0  0  0  0  0  0  0  0
   63.7916  -17.5654  -44.5401 N   0  0  0  0  0  0  0  0  0  0  0  0
   64.4620  -18.5781  -45.3000 N   0  0  0  0  0  0  0  0  0  0  0  0
   43.1275  -34.9770    1.2919 H   0  0  0  0  0  0  0  0  0  0  0  0
   39.9959  -33.7555   -1.9204 H   0  0  0  0  0  0  0  0  0  0  0  0
   38.1946  -32.0472   -0.5196 H   0  0  0  0  0  0  0  0  0  0  0  0
   38.4120  -32.5897   -3.3255 H   0  0  0  0  0  0  0  0  0  0  0  0
   36.3847  -31.2343   -1.8539 H   0  0  0  0  0  0  0  0  0  0  0  0
   37.0241  -30.2939   -3.9536 H   0  0  0  0  0  0  0  0  0  0  0  0
   36.1111  -32.8494   -4.8377 H   0  0  0  0  0  0  0  0  0  0  0  0
   36.9422  -29.2538   -5.9222 H   0  0  0  0  0  0  0  0  0  0  0  0
   38.7256  -32.0080   -7.9740 H   0  0  0  0  0  0  0  0  0  0  0  0
   39.4135  -28.3478   -8.7552 H   0  0  0  0  0  0  0  0  0  0  0  0
   41.8000  -27.3493  -10.7364 H   0  0  0  0  0  0  0  0  0  0  0  0
   42.9608  -27.2278   -7.1479 H   0  0  0  0  0  0  0  0  0  0  0  0
   39.7227  -25.1794   -6.9398 H   0  0  0  0  0  0  0  0  0  0  0  0
   37.3222  -25.8562   -4.8644 H   0  0  0  0  0  0  0  0  0  0  0  0
   36.8093  -27.8681   -7.9894 H   0  0  0  0  0  0  0  0  0  0  0  0
   37.1514  -24.3408   -9.5437 H   0  0  0  0  0  0  0  0  0  0  0  0
   39.1393  -25.6575   -9.3526 H   0  0  0  0  0  0  0  0  0  0  0  0
   38.8144  -27.1450  -11.1202 H   0  0  0  0  0  0  0  0  0  0  0  0
   37.7217  -25.6307  -12.5622 H   0  0  0  0  0  0  0  0  0  0  0  0
   39.0920  -23.8007  -12.2125 H   0  0  0  0  0  0  0  0  0  0  0  0
   41.1065  -24.8958  -12.0393 H   0  0  0  0  0  0  0  0  0  0  0  0
   40.7438  -26.4759  -13.6844 H   0  0  0  0  0  0  0  0  0  0  0  0
   39.7107  -25.1327  -15.2083 H   0  0  0  0  0  0  0  0  0  0  0  0
   40.9827  -23.2564  -14.9126 H   0  0  0  0  0  0  0  0  0  0  0  0
   43.0148  -24.2781  -14.6933 H   0  0  0  0  0  0  0  0  0  0  0  0
   42.7348  -25.8822  -16.2885 H   0  0  0  0  0  0  0  0  0  0  0  0
   41.6554  -24.6099  -17.8358 H   0  0  0  0  0  0  0  0  0  0  0  0
   42.8645  -22.7022  -17.5751 H   0  0  0  0  0  0  0  0  0  0  0  0
   44.9108  -23.6584  -17.3290 H   0  0  0  0  0  0  0  0  0  0  0  0
   44.6835  -25.2930  -18.8904 H   0  0  0  0  0  0  0  0  0  0  0  0
   43.5844  -24.0730  -20.4596 H   0  0  0  0  0  0  0  0  0  0  0  0
   44.7482  -22.1387  -20.2227 H   0  0  0  0  0  0  0  0  0  0  0  0
   46.8095  -23.0477  -19.9524 H   0  0  0  0  0  0  0  0  0  0  0  0
   46.6209  -24.7072  -21.4862 H   0  0  0  0  0  0  0  0  0  0  0  0
   45.5057  -23.5344  -23.0736 H   0  0  0  0  0  0  0  0  0  0  0  0
   46.6306  -21.5760  -22.8640 H   0  0  0  0  0  0  0  0  0  0  0  0
   48.7042  -22.4434  -22.5702 H   0  0  0  0  0  0  0  0  0  0  0  0
   48.5533  -24.1263  -24.0804 H   0  0  0  0  0  0  0  0  0  0  0  0
   47.4277  -22.9990  -25.6916 H   0  0  0  0  0  0  0  0  0  0  0  0
   48.5134  -21.0194  -25.4992 H   0  0  0  0  0  0  0  0  0  0  0  0
   50.6034  -21.8389  -25.1910 H   0  0  0  0  0  0  0  0  0  0  0  0
   50.4889  -23.5442  -26.6797 H   0  0  0  0  0  0  0  0  0  0  0  0
   49.3487  -22.4578  -28.3100 H   0  0  0  0  0  0  0  0  0  0  0  0
   50.3980  -20.4562  -28.1394 H   0  0  0  0  0  0  0  0  0  0  0  0
   52.5000  -21.2352  -27.8101 H   0  0  0  0  0  0  0  0  0  0  0  0
   52.4229  -22.9614  -29.2761 H   0  0  0  0  0  0  0  0  0  0  0  0
   51.2717  -21.9183  -30.9264 H   0  0  0  0  0  0  0  0  0  0  0  0
   52.2839  -19.8956  -30.7779 H   0  0  0  0  0  0  0  0  0  0  0  0
   54.3989  -20.6324  -30.4302 H   0  0  0  0  0  0  0  0  0  0  0  0
   54.3593  -22.3788  -31.8743 H   0  0  0  0  0  0  0  0  0  0  0  0
   53.1932  -21.3777  -33.5397 H   0  0  0  0  0  0  0  0  0  0  0  0
   54.1680  -19.3352  -33.4152 H   0  0  0  0  0  0  0  0  0  0  0  0
   56.2943  -20.0296  -33.0494 H   0  0  0  0  0  0  0  0  0  0  0  0
   56.2960  -21.7942  -34.4692 H   0  0  0  0  0  0  0  0  0  0  0  0
   55.1238  -20.8412  -36.1448 H   0  0  0  0  0  0  0  0  0  0  0  0
   56.0469  -18.7753  -36.0536 H   0  0  0  0  0  0  0  0  0  0  0  0
   58.1863  -19.4173  -35.6710 H   0  0  0  0  0  0  0  0  0  0  0  0
   58.2149  -21.2088  -37.0591 H   0  0  0  0  0  0  0  0  0  0  0  0
   57.0397  -20.2940  -38.7667 H   0  0  0  0  0  0  0  0  0  0  0  0
   57.9517  -18.2229  -38.6994 H   0  0  0  0  0  0  0  0  0  0  0  0
   60.0909  -18.8402  -38.2897 H   0  0  0  0  0  0  0  0  0  0  0  0
   60.1550  -20.6429  -39.6650 H   0  0  0  0  0  0  0  0  0  0  0  0
   58.9972  -19.7625  -41.4028 H   0  0  0  0  0  0  0  0  0  0  0  0
   59.8854  -17.6772  -41.3475 H   0  0  0  0  0  0  0  0  0  0  0  0
   62.0342  -18.2500  -40.9189 H   0  0  0  0  0  0  0  0  0  0  0  0
   62.1546  -20.0660  -42.2772 H   0  0  0  0  0  0  0  0  0  0  0  0
   61.0268  -19.2073  -44.0594 H   0  0  0  0  0  0  0  0  0  0  0  0
   61.8936  -17.1160  -44.0483 H   0  0  0  0  0  0  0  0  0  0  0  0
   64.0465  -17.6449  -43.5441 H   0  0  0  0  0  0  0  0  0  0  0  0
   64.0745  -18.5430  -46.2431 H   0  0  0  0  0  0  0  0  0  0  0  0
   64.0945  -19.4664  -44.9382 H   0  0  0  0  0  0  0  0  0  0  0  0
  1  2  1  0  0  0  0
  1 82  1  0  0  0  0
  2  3  1  0  0  0  0
  3  4  1  0  0  0  0
  4  5  1  0  0  0  0
  4 83  1  0  0  0  0
  5  6  1  0  0  0  0
  5 84  1  0  0  0  0
  6  7  1  0  0  0  0
  6 85  1  0  0  0  0
  7  8  1  0  0  0  0
  7 86  1  0  0  0  0
  8  9  1  0  0  0  0
  8 87  1  0  0  0  0
  9 10  1  0  0  0  0
  9 88  1  0  0  0  0
 10 11  1  0  0  0  0
 11 12  1  0  0  0  0
 11 89  1  0  0  0  0
 12 13  1  0  0  0  0
 13 14  1  0  0  0  0
 13 90  1  0  0  0  0
 14 15  1  0  0  0  0
 15 16  1  0  0  0  0
 15 91  1  0  0  0  0
 16 17  1  0  0  0  0
 17 18  1  0  0  0  0
 17 92  1  0  0  0  0
 18 19  1  0  0  0  0
 19 20  1  0  0  0  0
 19 93  1  0  0  0  0
 20 21  1  0  0  0  0
 21 22  1  0  0  0  0
 21 94  1  0  0  0  0
 22 23  1  0  0  0  0
 23 24  1  0  0  0  0
 23 95  1  0  0  0  0
 24 25  1  0  0  0  0
 25 26  1  0  0  0  0
 25 96  1  0  0  0  0
 26 27  1  0  0  0  0
 27 28  1  0  0  0  0
 27 97  1  0  0  0  0
 28 29  1  0  0  0  0
 28 98  1  0  0  0  0
 29 30  1  0  0  0  0
 29 99  1  0  0  0  0
 30 31  1  0  0  0  0
 30100  1  0  0  0  0
 31 32  1  0  0  0  0
 31101  1  0  0  0  0
 32 33  1  0  0  0  0
 32102  1  0  0  0  0
 33 34  1  0  0  0  0
 33103  1  0  0  0  0
 34 35  1  0  0  0  0
 34104  1  0  0  0  0
 35 36  1  0  0  0  0
 35105  1  0  0  0  0
 36 37  1  0  0  0  0
 36106  1  0  0  0  0
 37 38  1  0  0  0  0
 37107  1  0  0  0  0
 38 39  1  0  0  0  0
 38108  1  0  0  0  0
 39 40  1  0  0  0  0
 39109  1  0  0  0  0
 40 41  1  0  0  0  0
 40110  1  0  0  0  0
 41 42  1  0  0  0  0
 41111  1  0  0  0  0
 42 43  1  0  0  0  0
 42112  1  0  0  0  0
 43 44  1  0  0  0  0
 43113  1  0  0  0  0
 44 45  1  0  0  0  0
 44114  1  0  0  0  0
 45 46  1  0  0  0  0
 45115  1  0  0  0  0
 46 47  1  0  0  0  0
 46116  1  0  0  0  0
 47 48  1  0  0  0  0
 47117  1  0  0  0  0
 48 49  1  0  0  0  0
 48118  1  0  0  0  0
 49 50  1  0  0  0  0
 49119  1  0  0  0  0
 50 51  1  0  0  0  0
 50120  1  0  0  0  0
 51 52  1  0  0  0  0
 51121  1  0  0  0  0
 52 53  1  0  0  0  0
 52122  1  0  0  0  0
 53 54  1  0  0  0  0
 53123  1  0  0  0  0
 54 55  1  0  0  0  0
 54124  1  0  0  0  0
 55 56  1  0  0  0  0
 55125  1  0  0  0  0
 56 57  1  0  0  0  0
 56126  1  0  0  0  0
 57 58  1  0  0  0  0
 57127  1  0  0  0  0
 58 59  1  0  0  0  0
 58128  1  0  0  0  0
 59 60  1  0  0  0  0
 59129  1  0  0  0  0
 60 61  1  0  0  0  0
 60130  1  0  0  0  0
 61 62  1  0  0  0  0
 61131  1  0  0  0  0
 62 63  1  0  0  0  0
 62132  1  0  0  0  0
 63 64  1  0  0  0  0
 63133  1  0  0  0  0
 64 65  1  0  0  0  0
 64134  1  0  0  0  0
 65 66  1  0  0  0  0
 65135  1  0  0  0  0
 66 67  1  0  0  0  0
 66136  1  0  0  0  0
 67 68  1  0  0  0  0
 67137  1  0  0  0  0
 68 69  1  0  0  0  0
 68138  1  0  0  0  0
 69 70  1  0  0  0  0
 69139  1  0  0  0  0
 70 71  1  0  0  0  0
 70140  1  0  0  0  0
 71 72  1  0  0  0  0
 71141  1  0  0  0  0
 72 73  1  0  0  0  0
 72142  1  0  0  0  0
 73 74  1  0  0  0  0
 73143  1  0  0  0  0
 74 75  1  0  0  0  0
 74144  1  0  0  0  0
 75 76  1  0  0  0  0
 75145  1  0  0  0  0
 76 77  1  0  0  0  0
 76146  1  0  0  0  0
 77 78  1  0  0  0  0
 77147  1  0  0  0  0
 78 79  1  0  0  0  0
 78148  1  0  0  0  0
 79 80  1  0  0  0  0
 79149  1  0  0  0  0
 80 81  1  0  0  0  0
 80150  1  0  0  0  0
 81151  1  0  0  0  0
 81152  1  0  0  0  0
M  END
$$$$
