
 OpenBabel04232216533D

241240  0  0  0  0  0  0  0  0999 V2000
    1.0568    0.1242    0.0148 C   0  0  0  0  0  0  0  0  0  0  0  0
    2.5720    0.1143    0.0119 C   0  0  0  0  0  0  0  0  0  0  0  0
    3.0950   -0.7565   -1.1233 C   0  0  0  0  0  0  0  0  0  0  0  0
    4.6163   -0.7676   -1.1312 C   0  0  0  0  0  0  0  0  0  0  0  0
    5.1349   -1.6384   -2.2665 C   0  0  0  0  0  0  0  0  0  0  0  0
    6.6609   -1.6506   -2.2757 C   0  0  0  0  0  0  0  0  0  0  0  0
    7.1777   -2.5258   -3.4134 C   0  0  0  0  0  0  0  0  0  0  0  0
    8.6410   -2.5335   -3.4202 N   0  0  0  0  0  0  0  0  0  0  0  0
    9.0889   -3.3502   -4.4820 N   0  0  0  0  0  0  0  0  0  0  0  0
   10.4878   -3.3378   -4.4659 N   0  0  0  0  0  0  0  0  0  0  0  0
   10.9570   -4.1482   -5.5226 N   0  0  0  0  0  0  0  0  0  0  0  0
   12.4139   -4.1404   -5.5093 C   0  0  0  0  0  0  0  0  0  0  0  0
   12.9360   -5.0158   -6.6473 C   0  0  0  0  0  0  0  0  0  0  0  0
   14.4603   -5.0241   -6.6581 C   0  0  0  0  0  0  0  0  0  0  0  0
   14.9780   -5.8960   -7.7916 C   0  0  0  0  0  0  0  0  0  0  0  0
   16.4975   -5.9026   -7.7969 C   0  0  0  0  0  0  0  0  0  0  0  0
   17.0099   -6.7721   -8.9306 C   0  0  0  0  0  0  0  0  0  0  0  0
   18.5272   -6.7789   -8.9329 C   0  0  0  0  0  0  0  0  0  0  0  0
   19.0381   -7.6499  -10.0651 C   0  0  0  0  0  0  0  0  0  0  0  0
   20.5548   -7.6547  -10.0681 C   0  0  0  0  0  0  0  0  0  0  0  0
   21.0651   -8.5270  -11.1989 C   0  0  0  0  0  0  0  0  0  0  0  0
   22.5817   -8.5300  -11.2028 C   0  0  0  0  0  0  0  0  0  0  0  0
   23.0919   -9.4008  -12.3349 C   0  0  0  0  0  0  0  0  0  0  0  0
   24.6084   -9.4022  -12.3400 C   0  0  0  0  0  0  0  0  0  0  0  0
   25.1186  -10.2729  -13.4720 C   0  0  0  0  0  0  0  0  0  0  0  0
   26.6351  -10.2759  -13.4759 C   0  0  0  0  0  0  0  0  0  0  0  0
   27.1452  -11.1467  -14.6079 C   0  0  0  0  0  0  0  0  0  0  0  0
   28.6618  -11.1496  -14.6118 C   0  0  0  0  0  0  0  0  0  0  0  0
   29.1719  -12.0204  -15.7438 C   0  0  0  0  0  0  0  0  0  0  0  0
   30.6884  -12.0234  -15.7477 C   0  0  0  0  0  0  0  0  0  0  0  0
   31.1985  -12.8941  -16.8797 C   0  0  0  0  0  0  0  0  0  0  0  0
   32.7151  -12.8971  -16.8836 C   0  0  0  0  0  0  0  0  0  0  0  0
   33.2252  -13.7678  -18.0156 C   0  0  0  0  0  0  0  0  0  0  0  0
   34.7418  -13.7692  -18.0207 C   0  0  0  0  0  0  0  0  0  0  0  0
   35.2519  -14.6400  -19.1528 C   0  0  0  0  0  0  0  0  0  0  0  0
   36.7684  -14.6397  -19.1591 C   0  0  0  0  0  0  0  0  0  0  0  0
   37.2785  -15.5089  -20.2924 C   0  0  0  0  0  0  0  0  0  0  0  0
   38.7951  -15.5103  -20.2975 C   0  0  0  0  0  0  0  0  0  0  0  0
   39.3052  -16.3810  -21.4295 C   0  0  0  0  0  0  0  0  0  0  0  0
   40.8217  -16.3840  -21.4334 C   0  0  0  0  0  0  0  0  0  0  0  0
   41.3318  -17.2532  -22.5667 C   0  0  0  0  0  0  0  0  0  0  0  0
   42.8484  -17.2561  -22.5705 C   0  0  0  0  0  0  0  0  0  0  0  0
   43.3585  -18.1253  -23.7038 C   0  0  0  0  0  0  0  0  0  0  0  0
   44.8751  -18.1283  -23.7077 C   0  0  0  0  0  0  0  0  0  0  0  0
   45.3852  -18.9974  -24.8409 C   0  0  0  0  0  0  0  0  0  0  0  0
   46.9017  -19.0004  -24.8448 C   0  0  0  0  0  0  0  0  0  0  0  0
   47.4118  -19.8695  -25.9781 C   0  0  0  0  0  0  0  0  0  0  0  0
   48.9284  -19.8725  -25.9819 C   0  0  0  0  0  0  0  0  0  0  0  0
   49.4385  -20.7417  -27.1152 C   0  0  0  0  0  0  0  0  0  0  0  0
   50.9550  -20.7430  -27.1203 C   0  0  0  0  0  0  0  0  0  0  0  0
   51.4651  -21.6122  -28.2536 C   0  0  0  0  0  0  0  0  0  0  0  0
   52.9817  -21.6120  -28.2599 C   0  0  0  0  0  0  0  0  0  0  0  0
   53.4918  -22.4795  -29.3944 C   0  0  0  0  0  0  0  0  0  0  0  0
   55.0083  -22.4809  -29.3995 C   0  0  0  0  0  0  0  0  0  0  0  0
   55.5185  -23.3501  -30.5328 C   0  0  0  0  0  0  0  0  0  0  0  0
   57.0350  -23.3498  -30.5391 C   0  0  0  0  0  0  0  0  0  0  0  0
   57.5451  -24.2174  -31.6736 C   0  0  0  0  0  0  0  0  0  0  0  0
   59.0616  -24.2156  -31.6812 C   0  0  0  0  0  0  0  0  0  0  0  0
   59.5717  -25.0831  -32.8157 C   0  0  0  0  0  0  0  0  0  0  0  0
   61.0883  -25.0797  -32.8244 C   0  0  0  0  0  0  0  0  0  0  0  0
   61.5984  -25.9473  -33.9589 C   0  0  0  0  0  0  0  0  0  0  0  0
   63.1149  -25.9438  -33.9677 C   0  0  0  0  0  0  0  0  0  0  0  0
   63.6250  -26.8114  -35.1022 C   0  0  0  0  0  0  0  0  0  0  0  0
   65.1415  -26.8080  -35.1110 C   0  0  0  0  0  0  0  0  0  0  0  0
   65.6516  -27.6755  -36.2455 C   0  0  0  0  0  0  0  0  0  0  0  0
   67.1682  -27.6721  -36.2543 C   0  0  0  0  0  0  0  0  0  0  0  0
   67.6783  -28.5396  -37.3888 C   0  0  0  0  0  0  0  0  0  0  0  0
   69.1948  -28.5362  -37.3976 C   0  0  0  0  0  0  0  0  0  0  0  0
   69.7049  -29.4038  -38.5321 C   0  0  0  0  0  0  0  0  0  0  0  0
   71.2214  -29.3988  -38.5421 C   0  0  0  0  0  0  0  0  0  0  0  0
   71.7315  -30.2663  -39.6766 C   0  0  0  0  0  0  0  0  0  0  0  0
   73.2481  -30.2613  -39.6866 C   0  0  0  0  0  0  0  0  0  0  0  0
   73.7583  -31.1288  -40.8210 C   0  0  0  0  0  0  0  0  0  0  0  0
   75.2749  -31.1239  -40.8312 C   0  0  0  0  0  0  0  0  0  0  0  0
   75.7853  -31.9915  -41.9658 C   0  0  0  0  0  0  0  0  0  0  0  0
   77.3023  -31.9884  -41.9750 C   0  0  0  0  0  0  0  0  0  0  0  0
   77.8142  -32.8562  -43.1098 C   0  0  0  0  0  0  0  0  0  0  0  0
   79.3325  -32.8536  -43.1197 C   0  0  0  0  0  0  0  0  0  0  0  0
   79.8473  -33.7201  -44.2562 C   0  0  0  0  0  0  0  0  0  0  0  0
   81.3687  -33.7248  -44.2724 C   0  0  0  0  0  0  0  0  0  0  0  0
   81.8786  -34.5901  -45.4072 C   0  0  0  0  0  0  0  0  0  0  0  0
    0.6821    0.7492    0.8298 H   0  0  0  0  0  0  0  0  0  0  0  0
    0.6644   -0.8890    0.1476 H   0  0  0  0  0  0  0  0  0  0  0  0
    0.6715    0.5203   -0.9301 H   0  0  0  0  0  0  0  0  0  0  0  0
    2.9409   -0.2648    0.9726 H   0  0  0  0  0  0  0  0  0  0  0  0
    2.9480    1.1384   -0.1004 H   0  0  0  0  0  0  0  0  0  0  0  0
    2.7225   -0.3784   -2.0833 H   0  0  0  0  0  0  0  0  0  0  0  0
    2.7179   -1.7803   -1.0101 H   0  0  0  0  0  0  0  0  0  0  0  0
    4.9892   -1.1475   -0.1722 H   0  0  0  0  0  0  0  0  0  0  0  0
    4.9940    0.2558   -1.2457 H   0  0  0  0  0  0  0  0  0  0  0  0
    4.7574   -1.2590   -3.2245 H   0  0  0  0  0  0  0  0  0  0  0  0
    4.7541   -2.6610   -2.1513 H   0  0  0  0  0  0  0  0  0  0  0  0
    7.0285   -2.0254   -1.3128 H   0  0  0  0  0  0  0  0  0  0  0  0
    7.0308   -0.6238   -2.3903 H   0  0  0  0  0  0  0  0  0  0  0  0
    6.8046   -2.1212   -4.3634 H   0  0  0  0  0  0  0  0  0  0  0  0
    6.7814   -3.5424   -3.3014 H   0  0  0  0  0  0  0  0  0  0  0  0
    9.0075   -2.9355   -2.5616 H   0  0  0  0  0  0  0  0  0  0  0  0
    8.7590   -2.9971   -5.3800 H   0  0  0  0  0  0  0  0  0  0  0  0
   10.8021   -3.6857   -3.5644 H   0  0  0  0  0  0  0  0  0  0  0  0
   10.6088   -3.7256   -6.3820 H   0  0  0  0  0  0  0  0  0  0  0  0
   12.7841   -4.5416   -4.5577 H   0  0  0  0  0  0  0  0  0  0  0  0
   12.8087   -3.1234   -5.6261 H   0  0  0  0  0  0  0  0  0  0  0  0
   12.5679   -4.6453   -7.6123 H   0  0  0  0  0  0  0  0  0  0  0  0
   12.5691   -6.0439   -6.5328 H   0  0  0  0  0  0  0  0  0  0  0  0
   14.8400   -5.4021   -5.7008 H   0  0  0  0  0  0  0  0  0  0  0  0
   14.8397   -4.0019   -6.7772 H   0  0  0  0  0  0  0  0  0  0  0  0
   14.6065   -5.5200   -8.7528 H   0  0  0  0  0  0  0  0  0  0  0  0
   14.6042   -6.9208   -7.6766 H   0  0  0  0  0  0  0  0  0  0  0  0
   16.8734   -6.2817   -6.8386 H   0  0  0  0  0  0  0  0  0  0  0  0
   16.8757   -4.8794   -7.9131 H   0  0  0  0  0  0  0  0  0  0  0  0
   16.6378   -6.3931   -9.8905 H   0  0  0  0  0  0  0  0  0  0  0  0
   16.6330   -7.7960   -8.8167 H   0  0  0  0  0  0  0  0  0  0  0  0
   18.9010   -7.1573   -7.9735 H   0  0  0  0  0  0  0  0  0  0  0  0
   18.9057   -5.7559   -9.0493 H   0  0  0  0  0  0  0  0  0  0  0  0
   18.6641   -7.2727  -11.0249 H   0  0  0  0  0  0  0  0  0  0  0  0
   18.6617   -8.6736   -9.9484 H   0  0  0  0  0  0  0  0  0  0  0  0
   20.9293   -8.0306   -9.1080 H   0  0  0  0  0  0  0  0  0  0  0  0
   20.9317   -6.6312  -10.1865 H   0  0  0  0  0  0  0  0  0  0  0  0
   20.6897   -8.1519  -12.1589 H   0  0  0  0  0  0  0  0  0  0  0  0
   20.6897   -9.5508  -11.0798 H   0  0  0  0  0  0  0  0  0  0  0  0
   22.9572   -8.9065  -10.2434 H   0  0  0  0  0  0  0  0  0  0  0  0
   22.9572   -7.5061  -11.3206 H   0  0  0  0  0  0  0  0  0  0  0  0
   22.7152   -9.0252  -13.2942 H   0  0  0  0  0  0  0  0  0  0  0  0
   22.7176  -10.4251  -12.2164 H   0  0  0  0  0  0  0  0  0  0  0  0
   24.9851   -9.7778  -11.3806 H   0  0  0  0  0  0  0  0  0  0  0  0
   24.9827   -8.3779  -12.4585 H   0  0  0  0  0  0  0  0  0  0  0  0
   24.7431   -9.8965  -14.4315 H   0  0  0  0  0  0  0  0  0  0  0  0
   24.7431  -11.2969  -13.3543 H   0  0  0  0  0  0  0  0  0  0  0  0
   27.0105  -10.6524  -12.5164 H   0  0  0  0  0  0  0  0  0  0  0  0
   27.0105   -9.2520  -13.5936 H   0  0  0  0  0  0  0  0  0  0  0  0
   26.7698  -10.7702  -15.5674 H   0  0  0  0  0  0  0  0  0  0  0  0
   26.7698  -12.1706  -14.4902 H   0  0  0  0  0  0  0  0  0  0  0  0
   29.0372  -11.5261  -13.6523 H   0  0  0  0  0  0  0  0  0  0  0  0
   29.0372  -10.1257  -14.7295 H   0  0  0  0  0  0  0  0  0  0  0  0
   28.7964  -11.6439  -16.7033 H   0  0  0  0  0  0  0  0  0  0  0  0
   28.7964  -13.0443  -15.6261 H   0  0  0  0  0  0  0  0  0  0  0  0
   31.0639  -12.3998  -14.7882 H   0  0  0  0  0  0  0  0  0  0  0  0
   31.0639  -10.9994  -15.8654 H   0  0  0  0  0  0  0  0  0  0  0  0
   30.8231  -12.5176  -17.8392 H   0  0  0  0  0  0  0  0  0  0  0  0
   30.8231  -13.9180  -16.7620 H   0  0  0  0  0  0  0  0  0  0  0  0
   33.0905  -13.2736  -15.9242 H   0  0  0  0  0  0  0  0  0  0  0  0
   33.0905  -11.8732  -17.0013 H   0  0  0  0  0  0  0  0  0  0  0  0
   32.8486  -13.3922  -18.9750 H   0  0  0  0  0  0  0  0  0  0  0  0
   32.8509  -14.7921  -17.8971 H   0  0  0  0  0  0  0  0  0  0  0  0
   35.1184  -14.1448  -17.0614 H   0  0  0  0  0  0  0  0  0  0  0  0
   35.1160  -12.7449  -18.1393 H   0  0  0  0  0  0  0  0  0  0  0  0
   34.8741  -14.2652  -20.1120 H   0  0  0  0  0  0  0  0  0  0  0  0
   34.8788  -15.6646  -19.0335 H   0  0  0  0  0  0  0  0  0  0  0  0
   37.1462  -15.0159  -18.2004 H   0  0  0  0  0  0  0  0  0  0  0  0
   37.1415  -13.6150  -19.2770 H   0  0  0  0  0  0  0  0  0  0  0  0
   36.9019  -15.1319  -21.2512 H   0  0  0  0  0  0  0  0  0  0  0  0
   36.9042  -16.5333  -20.1753 H   0  0  0  0  0  0  0  0  0  0  0  0
   39.1717  -15.8859  -19.3382 H   0  0  0  0  0  0  0  0  0  0  0  0
   39.1693  -14.4860  -20.4160 H   0  0  0  0  0  0  0  0  0  0  0  0
   38.9297  -16.0046  -22.3890 H   0  0  0  0  0  0  0  0  0  0  0  0
   38.9297  -17.4050  -21.3118 H   0  0  0  0  0  0  0  0  0  0  0  0
   41.1972  -16.7618  -20.4745 H   0  0  0  0  0  0  0  0  0  0  0  0
   41.1972  -15.3599  -21.5497 H   0  0  0  0  0  0  0  0  0  0  0  0
   40.9564  -16.8753  -23.5256 H   0  0  0  0  0  0  0  0  0  0  0  0
   40.9564  -18.2772  -22.4504 H   0  0  0  0  0  0  0  0  0  0  0  0
   43.2238  -17.6340  -21.6116 H   0  0  0  0  0  0  0  0  0  0  0  0
   43.2238  -16.2320  -22.6868 H   0  0  0  0  0  0  0  0  0  0  0  0
   42.9831  -17.7475  -24.6627 H   0  0  0  0  0  0  0  0  0  0  0  0
   42.9831  -19.1494  -23.5875 H   0  0  0  0  0  0  0  0  0  0  0  0
   45.2505  -18.5061  -22.7488 H   0  0  0  0  0  0  0  0  0  0  0  0
   45.2505  -17.1042  -23.8239 H   0  0  0  0  0  0  0  0  0  0  0  0
   45.0097  -18.6196  -25.7998 H   0  0  0  0  0  0  0  0  0  0  0  0
   45.0097  -20.0215  -24.7246 H   0  0  0  0  0  0  0  0  0  0  0  0
   47.2772  -19.3782  -23.8859 H   0  0  0  0  0  0  0  0  0  0  0  0
   47.2772  -17.9763  -24.9611 H   0  0  0  0  0  0  0  0  0  0  0  0
   47.0364  -19.4917  -26.9370 H   0  0  0  0  0  0  0  0  0  0  0  0
   47.0364  -20.8936  -25.8618 H   0  0  0  0  0  0  0  0  0  0  0  0
   49.3038  -20.2503  -25.0230 H   0  0  0  0  0  0  0  0  0  0  0  0
   49.3038  -18.8484  -26.0982 H   0  0  0  0  0  0  0  0  0  0  0  0
   49.0619  -20.3647  -28.0740 H   0  0  0  0  0  0  0  0  0  0  0  0
   49.0642  -21.7661  -26.9981 H   0  0  0  0  0  0  0  0  0  0  0  0
   51.3317  -21.1200  -26.1615 H   0  0  0  0  0  0  0  0  0  0  0  0
   51.3293  -19.7186  -27.2374 H   0  0  0  0  0  0  0  0  0  0  0  0
   51.0873  -21.2361  -29.2122 H   0  0  0  0  0  0  0  0  0  0  0  0
   51.0921  -22.6370  -28.1357 H   0  0  0  0  0  0  0  0  0  0  0  0
   53.3595  -21.9895  -27.3018 H   0  0  0  0  0  0  0  0  0  0  0  0
   53.3548  -20.5870  -28.3763 H   0  0  0  0  0  0  0  0  0  0  0  0
   53.1152  -22.1012  -30.3527 H   0  0  0  0  0  0  0  0  0  0  0  0
   53.1175  -23.5041  -29.2788 H   0  0  0  0  0  0  0  0  0  0  0  0
   55.3850  -22.8579  -28.4407 H   0  0  0  0  0  0  0  0  0  0  0  0
   55.3826  -21.4565  -29.5166 H   0  0  0  0  0  0  0  0  0  0  0  0
   55.1407  -22.9739  -31.4914 H   0  0  0  0  0  0  0  0  0  0  0  0
   55.1454  -24.3748  -30.4149 H   0  0  0  0  0  0  0  0  0  0  0  0
   57.4128  -23.7273  -29.5810 H   0  0  0  0  0  0  0  0  0  0  0  0
   57.4081  -22.3249  -30.6555 H   0  0  0  0  0  0  0  0  0  0  0  0
   57.1661  -23.8408  -32.6316 H   0  0  0  0  0  0  0  0  0  0  0  0
   57.1732  -25.2427  -31.5564 H   0  0  0  0  0  0  0  0  0  0  0  0
   59.4406  -24.5922  -30.7232 H   0  0  0  0  0  0  0  0  0  0  0  0
   59.4336  -23.1903  -31.7984 H   0  0  0  0  0  0  0  0  0  0  0  0
   59.1916  -24.7074  -33.7735 H   0  0  0  0  0  0  0  0  0  0  0  0
   59.2010  -26.1087  -32.6977 H   0  0  0  0  0  0  0  0  0  0  0  0
   61.4684  -25.4555  -31.8666 H   0  0  0  0  0  0  0  0  0  0  0  0
   61.4590  -24.0541  -32.9424 H   0  0  0  0  0  0  0  0  0  0  0  0
   61.2182  -25.5715  -34.9168 H   0  0  0  0  0  0  0  0  0  0  0  0
   61.2276  -26.9729  -33.8409 H   0  0  0  0  0  0  0  0  0  0  0  0
   63.4950  -26.3196  -33.0098 H   0  0  0  0  0  0  0  0  0  0  0  0
   63.4856  -24.9182  -34.0857 H   0  0  0  0  0  0  0  0  0  0  0  0
   63.2449  -26.4356  -36.0601 H   0  0  0  0  0  0  0  0  0  0  0  0
   63.2543  -27.8370  -34.9842 H   0  0  0  0  0  0  0  0  0  0  0  0
   65.5217  -27.1837  -34.1531 H   0  0  0  0  0  0  0  0  0  0  0  0
   65.5123  -25.7824  -35.2290 H   0  0  0  0  0  0  0  0  0  0  0  0
   65.2715  -27.2997  -37.2034 H   0  0  0  0  0  0  0  0  0  0  0  0
   65.2809  -28.7011  -36.1275 H   0  0  0  0  0  0  0  0  0  0  0  0
   67.5483  -28.0478  -35.2964 H   0  0  0  0  0  0  0  0  0  0  0  0
   67.5389  -26.6465  -36.3723 H   0  0  0  0  0  0  0  0  0  0  0  0
   67.2981  -28.1639  -38.3467 H   0  0  0  0  0  0  0  0  0  0  0  0
   67.3075  -29.5652  -37.2708 H   0  0  0  0  0  0  0  0  0  0  0  0
   69.5749  -28.9120  -36.4397 H   0  0  0  0  0  0  0  0  0  0  0  0
   69.5655  -27.5106  -37.5156 H   0  0  0  0  0  0  0  0  0  0  0  0
   69.3236  -29.0289  -39.4898 H   0  0  0  0  0  0  0  0  0  0  0  0
   69.3353  -30.4297  -38.4133 H   0  0  0  0  0  0  0  0  0  0  0  0
   71.6027  -29.7736  -37.5843 H   0  0  0  0  0  0  0  0  0  0  0  0
   71.5910  -28.3728  -38.6609 H   0  0  0  0  0  0  0  0  0  0  0  0
   71.3502  -29.8914  -40.6343 H   0  0  0  0  0  0  0  0  0  0  0  0
   71.3620  -31.2922  -39.5578 H   0  0  0  0  0  0  0  0  0  0  0  0
   73.6294  -30.6362  -38.7288 H   0  0  0  0  0  0  0  0  0  0  0  0
   73.6176  -29.2353  -39.8054 H   0  0  0  0  0  0  0  0  0  0  0  0
   73.3769  -30.7539  -41.7789 H   0  0  0  0  0  0  0  0  0  0  0  0
   73.3886  -32.1548  -40.7023 H   0  0  0  0  0  0  0  0  0  0  0  0
   75.6561  -31.4987  -39.8733 H   0  0  0  0  0  0  0  0  0  0  0  0
   75.6443  -30.0978  -40.9499 H   0  0  0  0  0  0  0  0  0  0  0  0
   75.4048  -31.6156  -42.9236 H   0  0  0  0  0  0  0  0  0  0  0  0
   75.4142  -33.0170  -41.8477 H   0  0  0  0  0  0  0  0  0  0  0  0
   77.6818  -32.3639  -41.0168 H   0  0  0  0  0  0  0  0  0  0  0  0
   77.6724  -30.9626  -42.0927 H   0  0  0  0  0  0  0  0  0  0  0  0
   77.4328  -32.4802  -44.0672 H   0  0  0  0  0  0  0  0  0  0  0  0
   77.4422  -33.8814  -42.9914 H   0  0  0  0  0  0  0  0  0  0  0  0
   79.7108  -33.2300  -42.1613 H   0  0  0  0  0  0  0  0  0  0  0  0
   79.7014  -31.8271  -43.2352 H   0  0  0  0  0  0  0  0  0  0  0  0
   79.4641  -33.3417  -45.2122 H   0  0  0  0  0  0  0  0  0  0  0  0
   79.4712  -34.7442  -44.1396 H   0  0  0  0  0  0  0  0  0  0  0  0
   81.7502  -34.1044  -43.3174 H   0  0  0  0  0  0  0  0  0  0  0  0
   81.7432  -32.7014  -44.3903 H   0  0  0  0  0  0  0  0  0  0  0  0
   81.5296  -35.6211  -45.2928 H   0  0  0  0  0  0  0  0  0  0  0  0
   82.9716  -34.5940  -45.4195 H   0  0  0  0  0  0  0  0  0  0  0  0
   81.5225  -34.2119  -46.3705 H   0  0  0  0  0  0  0  0  0  0  0  0
  1  2  1  0  0  0  0
  1 82  1  0  0  0  0
  1 83  1  0  0  0  0
  1 84  1  0  0  0  0
  2  3  1  0  0  0  0
  2 85  1  0  0  0  0
  2 86  1  0  0  0  0
  3  4  1  0  0  0  0
  3 87  1  0  0  0  0
  3 88  1  0  0  0  0
  4  5  1  0  0  0  0
  4 89  1  0  0  0  0
  4 90  1  0  0  0  0
  5  6  1  0  0  0  0
  5 91  1  0  0  0  0
  5 92  1  0  0  0  0
  6  7  1  0  0  0  0
  6 93  1  0  0  0  0
  6 94  1  0  0  0  0
  7  8  1  0  0  0  0
  7 95  1  0  0  0  0
  7 96  1  0  0  0  0
  8  9  1  0  0  0  0
  8 97  1  0  0  0  0
  9 10  1  0  0  0  0
  9 98  1  0  0  0  0
 10 11  1  0  0  0  0
 10 99  1  0  0  0  0
 11 12  1  0  0  0  0
 11100  1  0  0  0  0
 12 13  1  0  0  0  0
 12101  1  0  0  0  0
 12102  1  0  0  0  0
 13 14  1  0  0  0  0
 13103  1  0  0  0  0
 13104  1  0  0  0  0
 14 15  1  0  0  0  0
 14105  1  0  0  0  0
 14106  1  0  0  0  0
 15 16  1  0  0  0  0
 15107  1  0  0  0  0
 15108  1  0  0  0  0
 16 17  1  0  0  0  0
 16109  1  0  0  0  0
 16110  1  0  0  0  0
 17 18  1  0  0  0  0
 17111  1  0  0  0  0
 17112  1  0  0  0  0
 18 19  1  0  0  0  0
 18113  1  0  0  0  0
 18114  1  0  0  0  0
 19 20  1  0  0  0  0
 19115  1  0  0  0  0
 19116  1  0  0  0  0
 20 21  1  0  0  0  0
 20117  1  0  0  0  0
 20118  1  0  0  0  0
 21 22  1  0  0  0  0
 21119  1  0  0  0  0
 21120  1  0  0  0  0
 22 23  1  0  0  0  0
 22121  1  0  0  0  0
 22122  1  0  0  0  0
 23 24  1  0  0  0  0
 23123  1  0  0  0  0
 23124  1  0  0  0  0
 24 25  1  0  0  0  0
 24125  1  0  0  0  0
 24126  1  0  0  0  0
 25 26  1  0  0  0  0
 25127  1  0  0  0  0
 25128  1  0  0  0  0
 26 27  1  0  0  0  0
 26129  1  0  0  0  0
 26130  1  0  0  0  0
 27 28  1  0  0  0  0
 27131  1  0  0  0  0
 27132  1  0  0  0  0
 28 29  1  0  0  0  0
 28133  1  0  0  0  0
 28134  1  0  0  0  0
 29 30  1  0  0  0  0
 29135  1  0  0  0  0
 29136  1  0  0  0  0
 30 31  1  0  0  0  0
 30137  1  0  0  0  0
 30138  1  0  0  0  0
 31 32  1  0  0  0  0
 31139  1  0  0  0  0
 31140  1  0  0  0  0
 32 33  1  0  0  0  0
 32141  1  0  0  0  0
 32142  1  0  0  0  0
 33 34  1  0  0  0  0
 33143  1  0  0  0  0
 33144  1  0  0  0  0
 34 35  1  0  0  0  0
 34145  1  0  0  0  0
 34146  1  0  0  0  0
 35 36  1  0  0  0  0
 35147  1  0  0  0  0
 35148  1  0  0  0  0
 36 37  1  0  0  0  0
 36149  1  0  0  0  0
 36150  1  0  0  0  0
 37 38  1  0  0  0  0
 37151  1  0  0  0  0
 37152  1  0  0  0  0
 38 39  1  0  0  0  0
 38153  1  0  0  0  0
 38154  1  0  0  0  0
 39 40  1  0  0  0  0
 39155  1  0  0  0  0
 39156  1  0  0  0  0
 40 41  1  0  0  0  0
 40157  1  0  0  0  0
 40158  1  0  0  0  0
 41 42  1  0  0  0  0
 41159  1  0  0  0  0
 41160  1  0  0  0  0
 42 43  1  0  0  0  0
 42161  1  0  0  0  0
 42162  1  0  0  0  0
 43 44  1  0  0  0  0
 43163  1  0  0  0  0
 43164  1  0  0  0  0
 44 45  1  0  0  0  0
 44165  1  0  0  0  0
 44166  1  0  0  0  0
 45 46  1  0  0  0  0
 45167  1  0  0  0  0
 45168  1  0  0  0  0
 46 47  1  0  0  0  0
 46169  1  0  0  0  0
 46170  1  0  0  0  0
 47 48  1  0  0  0  0
 47171  1  0  0  0  0
 47172  1  0  0  0  0
 48 49  1  0  0  0  0
 48173  1  0  0  0  0
 48174  1  0  0  0  0
 49 50  1  0  0  0  0
 49175  1  0  0  0  0
 49176  1  0  0  0  0
 50 51  1  0  0  0  0
 50177  1  0  0  0  0
 50178  1  0  0  0  0
 51 52  1  0  0  0  0
 51179  1  0  0  0  0
 51180  1  0  0  0  0
 52 53  1  0  0  0  0
 52181  1  0  0  0  0
 52182  1  0  0  0  0
 53 54  1  0  0  0  0
 53183  1  0  0  0  0
 53184  1  0  0  0  0
 54 55  1  0  0  0  0
 54185  1  0  0  0  0
 54186  1  0  0  0  0
 55 56  1  0  0  0  0
 55187  1  0  0  0  0
 55188  1  0  0  0  0
 56 57  1  0  0  0  0
 56189  1  0  0  0  0
 56190  1  0  0  0  0
 57 58  1  0  0  0  0
 57191  1  0  0  0  0
 57192  1  0  0  0  0
 58 59  1  0  0  0  0
 58193  1  0  0  0  0
 58194  1  0  0  0  0
 59 60  1  0  0  0  0
 59195  1  0  0  0  0
 59196  1  0  0  0  0
 60 61  1  0  0  0  0
 60197  1  0  0  0  0
 60198  1  0  0  0  0
 61 62  1  0  0  0  0
 61199  1  0  0  0  0
 61200  1  0  0  0  0
 62 63  1  0  0  0  0
 62201  1  0  0  0  0
 62202  1  0  0  0  0
 63 64  1  0  0  0  0
 63203  1  0  0  0  0
 63204  1  0  0  0  0
 64 65  1  0  0  0  0
 64205  1  0  0  0  0
 64206  1  0  0  0  0
 65 66  1  0  0  0  0
 65207  1  0  0  0  0
 65208  1  0  0  0  0
 66 67  1  0  0  0  0
 66209  1  0  0  0  0
 66210  1  0  0  0  0
 67 68  1  0  0  0  0
 67211  1  0  0  0  0
 67212  1  0  0  0  0
 68 69  1  0  0  0  0
 68213  1  0  0  0  0
 68214  1  0  0  0  0
 69 70  1  0  0  0  0
 69215  1  0  0  0  0
 69216  1  0  0  0  0
 70 71  1  0  0  0  0
 70217  1  0  0  0  0
 70218  1  0  0  0  0
 71 72  1  0  0  0  0
 71219  1  0  0  0  0
 71220  1  0  0  0  0
 72 73  1  0  0  0  0
 72221  1  0  0  0  0
 72222  1  0  0  0  0
 73 74  1  0  0  0  0
 73223  1  0  0  0  0
 73224  1  0  0  0  0
 74 75  1  0  0  0  0
 74225  1  0  0  0  0
 74226  1  0  0  0  0
 75 76  1  0  0  0  0
 75227  1  0  0  0  0
 75228  1  0  0  0  0
 76 77  1  0  0  0  0
 76229  1  0  0  0  0
 76230  1  0  0  0  0
 77 78  1  0  0  0  0
 77231  1  0  0  0  0
 77232  1  0  0  0  0
 78 79  1  0  0  0  0
 78233  1  0  0  0  0
 78234  1  0  0  0  0
 79 80  1  0  0  0  0
 79235  1  0  0  0  0
 79236  1  0  0  0  0
 80 81  1  0  0  0  0
 80237  1  0  0  0  0
 80238  1  0  0  0  0
 81239  1  0  0  0  0
 81240  1  0  0  0  0
 81241  1  0  0  0  0
M  END
$$$$
