
 OpenBabel04232216503D

159159  0  0  0  0  0  0  0  0999 V2000
  -29.6150  333.6303   79.0674 C   0  0  0  0  0  0  0  0  0  0  0  0
  -27.3345  332.4100   82.9832 C   0  0  0  0  0  0  0  0  0  0  0  0
  -29.9837  334.1238   78.0503 C   0  0  0  0  0  0  0  0  0  0  0  0
  -32.3234  335.1208   73.7986 C   0  0  0  0  0  0  0  0  0  0  0  0
  -34.7848  336.2875   69.1659 C   0  0  0  0  0  0  0  0  0  0  0  0
  -36.8011  337.0424   65.5391 C   0  0  0  0  0  0  0  0  0  0  0  0
  -38.5010  338.1047   61.8318 C   0  0  0  0  0  0  0  0  0  0  0  0
  -39.1789  339.2408   60.1017 C   0  0  0  0  0  0  0  0  0  0  0  0
  -38.4168  338.8189   61.7816 C   0  0  0  0  0  0  0  0  0  0  0  0
  -39.0735  338.0388   63.4913 C   0  0  0  0  0  0  0  0  0  0  0  0
  -36.8207  338.7726   63.1452 C   0  0  0  0  0  0  0  0  0  0  0  0
  -35.5469  338.5830   64.5849 C   0  0  0  0  0  0  0  0  0  0  0  0
  -36.3716  338.2586   64.5521 C   0  0  0  0  0  0  0  0  0  0  0  0
  -35.2517  338.2096   65.9521 C   0  0  0  0  0  0  0  0  0  0  0  0
  -35.0875  337.6135   67.9988 C   0  0  0  0  0  0  0  0  0  0  0  0
  -35.8817  336.5765   69.6975 C   0  0  0  0  0  0  0  0  0  0  0  0
  -33.8583  336.9381   70.4741 C   0  0  0  0  0  0  0  0  0  0  0  0
  -34.7540  335.9826   71.9401 C   0  0  0  0  0  0  0  0  0  0  0  0
  -33.2908  336.9070   71.9977 C   0  0  0  0  0  0  0  0  0  0  0  0
  -34.0029  335.8096   73.4611 C   0  0  0  0  0  0  0  0  0  0  0  0
  -32.0389  337.0777   73.6523 C   0  0  0  0  0  0  0  0  0  0  0  0
  -32.3780  336.1114   74.7779 C   0  0  0  0  0  0  0  0  0  0  0  0
  -32.3386  335.4878   76.6439 C   0  0  0  0  0  0  0  0  0  0  0  0
  -32.7393  334.3648   76.6233 C   0  0  0  0  0  0  0  0  0  0  0  0
  -31.0296  335.1028   77.9291 C   0  0  0  0  0  0  0  0  0  0  0  0
  -31.7094  334.8120   78.7647 C   0  0  0  0  0  0  0  0  0  0  0  0
  -29.6446  334.7716   79.8621 C   0  0  0  0  0  0  0  0  0  0  0  0
  -29.1422  334.0170   81.7233 C   0  0  0  0  0  0  0  0  0  0  0  0
  -27.6613  334.5720   82.0171 C   0  0  0  0  0  0  0  0  0  0  0  0
  -27.7709  333.9571   83.5184 C   0  0  0  0  0  0  0  0  0  0  0  0
  -26.6199  333.6124   83.8544 C   0  0  0  0  0  0  0  0  0  0  0  0
  -25.8791  333.2089   84.6504 C   0  0  0  0  0  0  0  0  0  0  0  0
  -24.5609  333.5211   86.4251 C   0  0  0  0  0  0  0  0  0  0  0  0
  -25.2509  333.1113   88.0525 C   0  0  0  0  0  0  0  0  0  0  0  0
  -23.9732  332.8162   88.3298 C   0  0  0  0  0  0  0  0  0  0  0  0
  -24.1423  332.1290   89.4312 C   0  0  0  0  0  0  0  0  0  0  0  0
  -22.9382  332.2642   90.3459 C   0  0  0  0  0  0  0  0  0  0  0  0
  -22.9450  331.7079   91.5529 C   0  0  0  0  0  0  0  0  0  0  0  0
  -21.7588  331.9186   92.3465 C   0  0  0  0  0  0  0  0  0  0  0  0
  -22.1759  331.9002   93.7520 C   0  0  0  0  0  0  0  0  0  0  0  0
  -20.4951  331.8376   94.3787 C   0  0  0  0  0  0  0  0  0  0  0  0
  -19.9061  331.0656   95.4125 C   0  0  0  0  0  0  0  0  0  0  0  0
  -19.5372  330.9123   96.6664 C   0  0  0  0  0  0  0  0  0  0  0  0
  -19.0375  331.3998   96.0228 C   0  0  0  0  0  0  0  0  0  0  0  0
  -18.2197  330.8499   98.1483 C   0  0  0  0  0  0  0  0  0  0  0  0
  -18.6936  330.6914   99.8059 C   0  0  0  0  0  0  0  0  0  0  0  0
  -16.6760  329.8100  100.6899 C   0  0  0  0  0  0  0  0  0  0  0  0
  -17.2694  330.3289  101.4096 C   0  0  0  0  0  0  0  0  0  0  0  0
  -15.8492  329.7284  102.8618 C   0  0  0  0  0  0  0  0  0  0  0  0
  -15.4164  329.4376  104.0634 C   0  0  0  0  0  0  0  0  0  0  0  0
  -14.5838  329.3609  104.8195 C   0  0  0  0  0  0  0  0  0  0  0  0
  -14.2402  329.0323  105.9174 C   0  0  0  0  0  0  0  0  0  0  0  0
  -13.1575  328.7434  107.3952 C   0  0  0  0  0  0  0  0  0  0  0  0
  -11.5847  329.1217  108.0776 C   0  0  0  0  0  0  0  0  0  0  0  0
  -11.1665  328.8094  109.1898 C   0  0  0  0  0  0  0  0  0  0  0  0
  -11.5323  327.9078  110.9184 C   0  0  0  0  0  0  0  0  0  0  0  0
  -10.7792  327.8371  111.6668 C   0  0  0  0  0  0  0  0  0  0  0  0
  -10.5523  327.5799  112.6665 C   0  0  0  0  0  0  0  0  0  0  0  0
   -9.6667  327.4445  113.6826 C   0  0  0  0  0  0  0  0  0  0  0  0
   -9.2456  327.1645  114.7740 C   0  0  0  0  0  0  0  0  0  0  0  0
   -8.2089  327.0116  115.6631 C   0  0  0  0  0  0  0  0  0  0  0  0
   -8.3593  326.7459  116.7325 C   0  0  0  0  0  0  0  0  0  0  0  0
   -7.5363  326.6379  117.4817 C   0  0  0  0  0  0  0  0  0  0  0  0
   -8.7655  326.0067  118.9848 C   0  0  0  0  0  0  0  0  0  0  0  0
   -6.5558  326.0916  119.6441 C   0  0  0  0  0  0  0  0  0  0  0  0
   -5.6798  325.8083  121.0750 C   0  0  0  0  0  0  0  0  0  0  0  0
   -4.1876  326.5617  120.7604 C   0  0  0  0  0  0  0  0  0  0  0  0
   -3.4071  326.2085  122.2319 C   0  0  0  0  0  0  0  0  0  0  0  0
   -2.1838  325.9527  123.8592 C   0  0  0  0  0  0  0  0  0  0  0  0
   -2.3970  325.3150  125.0509 C   0  0  0  0  0  0  0  0  0  0  0  0
   -5.0552  324.7292  123.5178 C   0  0  0  0  0  0  0  0  0  0  0  0
   -6.9345  324.9765  120.5914 C   0  0  0  0  0  0  0  0  0  0  0  0
   -9.1300  325.6499  116.5417 C   0  0  0  0  0  0  0  0  0  0  0  0
  -11.1502  326.3724  112.6389 C   0  0  0  0  0  0  0  0  0  0  0  0
  -13.6420  327.4853  107.5394 C   0  0  0  0  0  0  0  0  0  0  0  0
  -16.3036  328.1378  103.3847 C   0  0  0  0  0  0  0  0  0  0  0  0
  -19.4311  329.3685   98.0611 C   0  0  0  0  0  0  0  0  0  0  0  0
  -21.7876  330.6691   93.3386 C   0  0  0  0  0  0  0  0  0  0  0  0
  -24.6872  331.9120   87.7323 C   0  0  0  0  0  0  0  0  0  0  0  0
  -30.8843  334.4333   76.2673 H   0  0  0  0  0  0  0  0  0  0  0  0
  -30.8948  334.4469   76.2761 H   0  0  0  0  0  0  0  0  0  0  0  0
  -30.8752  334.4207   76.2596 H   0  0  0  0  0  0  0  0  0  0  0  0
  -31.5833  334.6867   75.2319 H   0  0  0  0  0  0  0  0  0  0  0  0
  -33.7923  335.6349   70.9339 H   0  0  0  0  0  0  0  0  0  0  0  0
  -36.4607  336.7655   66.2546 H   0  0  0  0  0  0  0  0  0  0  0  0
  -38.6071  337.5163   62.6973 H   0  0  0  0  0  0  0  0  0  0  0  0
  -39.6068  339.1929   58.9204 H   0  0  0  0  0  0  0  0  0  0  0  0
  -40.7933  338.3001   60.7029 H   0  0  0  0  0  0  0  0  0  0  0  0
  -38.4616  339.1753   60.0961 H   0  0  0  0  0  0  0  0  0  0  0  0
  -40.6318  337.4163   62.4087 H   0  0  0  0  0  0  0  0  0  0  0  0
  -36.6669  339.5626   61.6654 H   0  0  0  0  0  0  0  0  0  0  0  0
  -37.0655  338.4268   63.5297 H   0  0  0  0  0  0  0  0  0  0  0  0
  -36.8170  338.0846   64.9625 H   0  0  0  0  0  0  0  0  0  0  0  0
  -36.5284  337.5743   67.0677 H   0  0  0  0  0  0  0  0  0  0  0  0
  -34.8851  337.7157   66.5973 H   0  0  0  0  0  0  0  0  0  0  0  0
  -36.9788  336.1923   68.4108 H   0  0  0  0  0  0  0  0  0  0  0  0
  -34.3426  337.7758   70.1769 H   0  0  0  0  0  0  0  0  0  0  0  0
  -36.2033  335.2516   71.2309 H   0  0  0  0  0  0  0  0  0  0  0  0
  -32.4379  337.4751   71.1408 H   0  0  0  0  0  0  0  0  0  0  0  0
  -35.1548  334.4858   73.9185 H   0  0  0  0  0  0  0  0  0  0  0  0
  -31.5255  335.4188   72.9420 H   0  0  0  0  0  0  0  0  0  0  0  0
  -33.3208  334.6695   75.1414 H   0  0  0  0  0  0  0  0  0  0  0  0
  -33.6713  335.6746   75.6737 H   0  0  0  0  0  0  0  0  0  0  0  0
  -32.0970  334.2994   76.9551 H   0  0  0  0  0  0  0  0  0  0  0  0
  -29.1919  334.1909   77.4072 H   0  0  0  0  0  0  0  0  0  0  0  0
  -31.0963  333.9211   79.1729 H   0  0  0  0  0  0  0  0  0  0  0  0
  -28.0612  334.8111   79.2405 H   0  0  0  0  0  0  0  0  0  0  0  0
  -29.5653  332.7360   83.0589 H   0  0  0  0  0  0  0  0  0  0  0  0
  -26.9024  334.6753   81.4546 H   0  0  0  0  0  0  0  0  0  0  0  0
  -28.5448  332.9729   83.5147 H   0  0  0  0  0  0  0  0  0  0  0  0
  -26.4389  332.9323   84.6285 H   0  0  0  0  0  0  0  0  0  0  0  0
  -24.6837  334.5437   83.7495 H   0  0  0  0  0  0  0  0  0  0  0  0
  -25.2690  333.1998   86.8464 H   0  0  0  0  0  0  0  0  0  0  0  0
  -26.3467  332.0406   88.1336 H   0  0  0  0  0  0  0  0  0  0  0  0
  -24.0421  332.7266   89.2295 H   0  0  0  0  0  0  0  0  0  0  0  0
  -24.9982  331.6264   89.7484 H   0  0  0  0  0  0  0  0  0  0  0  0
  -22.0836  332.7579   89.9896 H   0  0  0  0  0  0  0  0  0  0  0  0
  -23.7937  331.1787   91.8825 H   0  0  0  0  0  0  0  0  0  0  0  0
  -21.8952  331.7898   93.3951 H   0  0  0  0  0  0  0  0  0  0  0  0
  -23.5493  330.7362   94.6797 H   0  0  0  0  0  0  0  0  0  0  0  0
  -19.5956  331.6733   94.1797 H   0  0  0  0  0  0  0  0  0  0  0  0
  -21.3573  330.1739   96.4242 H   0  0  0  0  0  0  0  0  0  0  0  0
  -18.4156  330.9711   96.4108 H   0  0  0  0  0  0  0  0  0  0  0  0
  -21.0522  330.9220   95.6338 H   0  0  0  0  0  0  0  0  0  0  0  0
  -17.2939  331.0055   98.5721 H   0  0  0  0  0  0  0  0  0  0  0  0
  -20.1643  329.9786   98.5494 H   0  0  0  0  0  0  0  0  0  0  0  0
  -16.5075  328.9490  101.4291 H   0  0  0  0  0  0  0  0  0  0  0  0
  -17.9088  329.1403  102.3757 H   0  0  0  0  0  0  0  0  0  0  0  0
  -15.1833  330.4270  103.1214 H   0  0  0  0  0  0  0  0  0  0  0  0
  -16.9906  328.9580  103.7119 H   0  0  0  0  0  0  0  0  0  0  0  0
  -13.6702  329.5827  104.9510 H   0  0  0  0  0  0  0  0  0  0  0  0
  -15.5321  328.0437  106.8303 H   0  0  0  0  0  0  0  0  0  0  0  0
  -13.0892  329.6456  107.5034 H   0  0  0  0  0  0  0  0  0  0  0  0
  -12.6198  328.2829  109.3014 H   0  0  0  0  0  0  0  0  0  0  0  0
  -11.6789  328.4535  109.2404 H   0  0  0  0  0  0  0  0  0  0  0  0
  -12.4330  326.8235  112.2997 H   0  0  0  0  0  0  0  0  0  0  0  0
  -10.0900  328.2972  111.4189 H   0  0  0  0  0  0  0  0  0  0  0  0
  -11.9471  326.6548  113.3770 H   0  0  0  0  0  0  0  0  0  0  0  0
   -8.8571  327.7467  113.5073 H   0  0  0  0  0  0  0  0  0  0  0  0
  -10.7743  326.3079  115.4208 H   0  0  0  0  0  0  0  0  0  0  0  0
   -8.3801  327.6665  116.2082 H   0  0  0  0  0  0  0  0  0  0  0  0
   -9.6491  325.7056  117.6472 H   0  0  0  0  0  0  0  0  0  0  0  0
   -6.4338  327.2184  117.2030 H   0  0  0  0  0  0  0  0  0  0  0  0
   -8.7840  325.1089  119.6500 H   0  0  0  0  0  0  0  0  0  0  0  0
   -5.5194  326.0518  120.4458 H   0  0  0  0  0  0  0  0  0  0  0  0
   -7.3816  324.9092  121.8241 H   0  0  0  0  0  0  0  0  0  0  0  0
   -5.4109  327.4966  120.5963 H   0  0  0  0  0  0  0  0  0  0  0  0
   -4.7137  325.2826  122.7648 H   0  0  0  0  0  0  0  0  0  0  0  0
   -1.4309  326.4585  123.7054 H   0  0  0  0  0  0  0  0  0  0  0  0
   -3.6013  325.0963  124.2329 H   0  0  0  0  0  0  0  0  0  0  0  0
   -3.1324  325.5903  125.0178 H   0  0  0  0  0  0  0  0  0  0  0  0
   -5.5910  324.3497  123.7269 H   0  0  0  0  0  0  0  0  0  0  0  0
   -7.5478  325.2907  119.4372 H   0  0  0  0  0  0  0  0  0  0  0  0
   -9.6606  325.9296  115.4350 H   0  0  0  0  0  0  0  0  0  0  0  0
  -12.3971  326.9154  110.5001 H   0  0  0  0  0  0  0  0  0  0  0  0
  -15.0004  327.9184  105.8794 H   0  0  0  0  0  0  0  0  0  0  0  0
  -18.1256  329.2001  100.3407 H   0  0  0  0  0  0  0  0  0  0  0  0
  -20.7667  330.0741   95.3302 H   0  0  0  0  0  0  0  0  0  0  0  0
  -25.2126  333.4181   85.6674 H   0  0  0  0  0  0  0  0  0  0  0  0
  1  2  1  0  0  0  0
  1 80  1  0  0  0  0
  1 81  1  0  0  0  0
  1 82  1  0  0  0  0
  2  3  1  0  0  0  0
  2 79  2  3  0  0  0
  3  4  2  3  0  0  0
  3 83  1  0  0  0  0
  4  5  1  0  0  0  0
  4 84  1  0  0  0  0
  5  6  2  3  0  0  0
  5 85  1  0  0  0  0
  6  7  1  0  0  0  0
  6 86  1  0  0  0  0
  7  8  2  3  0  0  0
  7 87  1  0  0  0  0
  8  9  1  0  0  0  0
  8 88  1  0  0  0  0
  9 10  2  3  0  0  0
  9 89  1  0  0  0  0
 10 11  1  0  0  0  0
 10 90  1  0  0  0  0
 11 12  2  3  0  0  0
 11 91  1  0  0  0  0
 12 13  1  0  0  0  0
 12 92  1  0  0  0  0
 13 14  2  3  0  0  0
 13 93  1  0  0  0  0
 14 15  1  0  0  0  0
 14 94  1  0  0  0  0
 15 16  2  3  0  0  0
 15 95  1  0  0  0  0
 16 17  1  0  0  0  0
 16 96  1  0  0  0  0
 17 18  2  3  0  0  0
 17 97  1  0  0  0  0
 18 19  1  0  0  0  0
 18 98  1  0  0  0  0
 19 20  2  3  0  0  0
 19 99  1  0  0  0  0
 20 21  1  0  0  0  0
 20100  1  0  0  0  0
 21 22  2  3  0  0  0
 21101  1  0  0  0  0
 22 23  1  0  0  0  0
 22102  1  0  0  0  0
 23 24  2  3  0  0  0
 23103  1  0  0  0  0
 24 25  1  0  0  0  0
 24104  1  0  0  0  0
 25 26  2  3  0  0  0
 25105  1  0  0  0  0
 26 27  1  0  0  0  0
 26106  1  0  0  0  0
 27 28  2  3  0  0  0
 27107  1  0  0  0  0
 28 29  1  0  0  0  0
 28108  1  0  0  0  0
 29 30  2  3  0  0  0
 29109  1  0  0  0  0
 30 31  1  0  0  0  0
 30110  1  0  0  0  0
 31 32  2  3  0  0  0
 31111  1  0  0  0  0
 32 33  1  0  0  0  0
 32112  1  0  0  0  0
 33 34  2  3  0  0  0
 33113  1  0  0  0  0
 34 35  1  0  0  0  0
 34114  1  0  0  0  0
 35 36  2  3  0  0  0
 35115  1  0  0  0  0
 36 37  1  0  0  0  0
 36116  1  0  0  0  0
 37 38  2  3  0  0  0
 37117  1  0  0  0  0
 38 39  1  0  0  0  0
 38118  1  0  0  0  0
 39 40  2  3  0  0  0
 39119  1  0  0  0  0
 40 41  1  0  0  0  0
 40120  1  0  0  0  0
 41 42  2  3  0  0  0
 41121  1  0  0  0  0
 42 43  1  0  0  0  0
 42122  1  0  0  0  0
 43 44  2  3  0  0  0
 43123  1  0  0  0  0
 44 45  1  0  0  0  0
 44124  1  0  0  0  0
 45 46  2  3  0  0  0
 45125  1  0  0  0  0
 46 47  1  0  0  0  0
 46126  1  0  0  0  0
 47 48  2  3  0  0  0
 47127  1  0  0  0  0
 48 49  1  0  0  0  0
 48128  1  0  0  0  0
 49 50  2  3  0  0  0
 49129  1  0  0  0  0
 50 51  1  0  0  0  0
 50130  1  0  0  0  0
 51 52  2  3  0  0  0
 51131  1  0  0  0  0
 52 53  1  0  0  0  0
 52132  1  0  0  0  0
 53 54  2  3  0  0  0
 53133  1  0  0  0  0
 54 55  1  0  0  0  0
 54134  1  0  0  0  0
 55 56  2  3  0  0  0
 55135  1  0  0  0  0
 56 57  1  0  0  0  0
 56136  1  0  0  0  0
 57 58  2  3  0  0  0
 57137  1  0  0  0  0
 58 59  1  0  0  0  0
 58138  1  0  0  0  0
 59 60  2  3  0  0  0
 59139  1  0  0  0  0
 60 61  1  0  0  0  0
 60140  1  0  0  0  0
 61 62  2  3  0  0  0
 61141  1  0  0  0  0
 62 63  1  0  0  0  0
 62142  1  0  0  0  0
 63 64  2  3  0  0  0
 63143  1  0  0  0  0
 64 65  1  0  0  0  0
 64144  1  0  0  0  0
 65 66  2  3  0  0  0
 65145  1  0  0  0  0
 66 67  1  0  0  0  0
 66146  1  0  0  0  0
 67 68  2  3  0  0  0
 67147  1  0  0  0  0
 68 69  1  0  0  0  0
 68148  1  0  0  0  0
 69 70  2  3  0  0  0
 69149  1  0  0  0  0
 70 71  1  0  0  0  0
 70150  1  0  0  0  0
 71 72  2  3  0  0  0
 71151  1  0  0  0  0
 72 73  1  0  0  0  0
 72152  1  0  0  0  0
 73 74  2  3  0  0  0
 73153  1  0  0  0  0
 74 75  1  0  0  0  0
 74154  1  0  0  0  0
 75 76  2  3  0  0  0
 75155  1  0  0  0  0
 76 77  1  0  0  0  0
 76156  1  0  0  0  0
 77 78  2  3  0  0  0
 77157  1  0  0  0  0
 78 79  1  0  0  0  0
 78158  1  0  0  0  0
 79159  1  0  0  0  0
M  END
$$$$
