
 OpenBabel04232217033D

148147  0  0  0  0  0  0  0  0999 V2000
   38.2320   35.2932   34.4523 S   0  0  0  0  0  0  0  0  0  0  0  0
   39.8452   35.6510   34.2840 O   0  0  0  0  0  0  0  0  0  0  0  0
   40.1868   36.0605   32.7105 S   0  0  0  0  0  0  0  0  0  0  0  0
   42.2257   36.2543   32.9030 S   0  0  0  0  0  0  0  0  0  0  0  0
   42.7656   34.5500   33.2840 C   0  0  0  0  0  0  0  0  0  0  0  0
   42.3870   33.5262   32.2011 C   0  0  0  0  0  0  0  0  0  0  0  0
   42.8381   32.0904   32.5576 C   0  0  0  0  0  0  0  0  0  0  0  0
   42.4432   31.1127   31.5121 N   0  0  0  0  0  0  0  0  0  0  0  0
   42.8732   29.7670   31.8897 N   0  0  0  0  0  0  0  0  0  0  0  0
   42.5167   28.8296   30.8578 N   0  0  0  0  0  0  0  0  0  0  0  0
   42.9342   27.4827   31.1481 N   0  0  0  0  0  0  0  0  0  0  0  0
   42.5270   26.4280   29.9125 S   0  0  0  0  0  0  0  0  0  0  0  0
   43.5309   27.2868   28.3276 S   0  0  0  0  0  0  0  0  0  0  0  0
   45.5229   26.8357   28.5821 S   0  0  0  0  0  0  0  0  0  0  0  0
   45.8559   27.8969   29.8121 N   0  0  0  0  0  0  0  0  0  0  0  0
   47.4258   27.8304   30.3302 S   0  0  0  0  0  0  0  0  0  0  0  0
   48.3680   28.4347   29.1146 N   0  0  0  0  0  0  0  0  0  0  0  0
   49.9909   28.4204   29.4673 S   0  0  0  0  0  0  0  0  0  0  0  0
   50.5275   26.8759   29.7359 N   0  0  0  0  0  0  0  0  0  0  0  0
   50.2913   25.8643   28.4582 S   0  0  0  0  0  0  0  0  0  0  0  0
   50.8807   24.3745   28.8481 N   0  0  0  0  0  0  0  0  0  0  0  0
   50.1275   23.5534   30.0612 S   0  0  0  0  0  0  0  0  0  0  0  0
   48.5280   23.3604   29.7110 N   0  0  0  0  0  0  0  0  0  0  0  0
   48.1621   22.4306   28.3983 S   0  0  0  0  0  0  0  0  0  0  0  0
   48.7260   20.8949   28.6129 N   0  0  0  0  0  0  0  0  0  0  0  0
   48.0108   19.9935   29.7969 S   0  0  0  0  0  0  0  0  0  0  0  0
   46.3741   19.9674   29.6044 N   0  0  0  0  0  0  0  0  0  0  0  0
   45.7699   19.1883   28.2779 S   0  0  0  0  0  0  0  0  0  0  0  0
   46.2731   17.6224   28.2059 N   0  0  0  0  0  0  0  0  0  0  0  0
   45.7834   16.6123   29.4160 S   0  0  0  0  0  0  0  0  0  0  0  0
   44.1529   16.4446   29.3931 N   0  0  0  0  0  0  0  0  0  0  0  0
   43.4667   15.7127   28.0785 S   0  0  0  0  0  0  0  0  0  0  0  0
   44.0324   14.1651   27.9227 N   0  0  0  0  0  0  0  0  0  0  0  0
   43.6433   13.1955   29.2039 S   0  0  0  0  0  0  0  0  0  0  0  0
   44.2171   11.6664   28.9374 N   0  0  0  0  0  0  0  0  0  0  0  0
   45.8426   11.5021   28.8362 S   0  0  0  0  0  0  0  0  0  0  0  0
   46.5060   12.0004   30.2599 N   0  0  0  0  0  0  0  0  0  0  0  0
   48.1618   11.9790   30.1641 S   0  0  0  0  0  0  0  0  0  0  0  0
   48.6643   12.9349   28.9023 N   0  0  0  0  0  0  0  0  0  0  0  0
   48.3359   14.3171   29.0013 N   0  0  0  0  0  0  0  0  0  0  0  0
   48.9059   15.0016   30.1201 N   0  0  0  0  0  0  0  0  0  0  0  0
   50.3291   15.0827   30.0581 N   0  0  0  0  0  0  0  0  0  0  0  0
   50.7940   15.7685   28.9047 N   0  0  0  0  0  0  0  0  0  0  0  0
   50.4026   17.1216   28.9096 N   0  0  0  0  0  0  0  0  0  0  0  0
   50.8796   17.7908   30.0965 N   0  0  0  0  0  0  0  0  0  0  0  0
   52.2955   17.6883   30.1437 N   0  0  0  0  0  0  0  0  0  0  0  0
   52.8145   18.3024   28.9604 N   0  0  0  0  0  0  0  0  0  0  0  0
   52.4109   19.6911   28.8619 N   0  0  0  0  0  0  0  0  0  0  0  0
   52.7638   20.4810   30.0198 N   0  0  0  0  0  0  0  0  0  0  0  0
   54.1785   20.4757   30.1811 N   0  0  0  0  0  0  0  0  0  0  0  0
   54.7983   21.1299   29.0385 N   0  0  0  0  0  0  0  0  0  0  0  0
   54.3270   22.4827   28.8700 N   0  0  0  0  0  0  0  0  0  0  0  0
   54.7339   23.3092   29.9728 N   0  0  0  0  0  0  0  0  0  0  0  0
   56.1389   23.2720   30.1480 N   0  0  0  0  0  0  0  0  0  0  0  0
   56.7501   23.8421   28.9973 N   0  0  0  0  0  0  0  0  0  0  0  0
   56.1919   25.1689   28.8358 N   0  0  0  0  0  0  0  0  0  0  0  0
   56.4671   25.9681   30.0106 N   0  0  0  0  0  0  0  0  0  0  0  0
   57.8843   26.0178   30.2261 N   0  0  0  0  0  0  0  0  0  0  0  0
   58.5109   26.5717   29.0532 N   0  0  0  0  0  0  0  0  0  0  0  0
   57.9469   27.8748   28.8019 N   0  0  0  0  0  0  0  0  0  0  0  0
   58.1770   28.7178   29.9493 N   0  0  0  0  0  0  0  0  0  0  0  0
   59.5966   28.8226   30.1756 N   0  0  0  0  0  0  0  0  0  0  0  0
   60.2306   29.3174   28.9868 N   0  0  0  0  0  0  0  0  0  0  0  0
   59.7423   30.6369   28.6757 N   0  0  0  0  0  0  0  0  0  0  0  0
   59.9996   31.5131   29.7900 N   0  0  0  0  0  0  0  0  0  0  0  0
   61.4203   31.5462   30.0364 N   0  0  0  0  0  0  0  0  0  0  0  0
   62.1185   32.0356   28.8660 N   0  0  0  0  0  0  0  0  0  0  0  0
   61.6656   33.3582   28.5487 N   0  0  0  0  0  0  0  0  0  0  0  0
   61.8992   34.2029   29.6867 N   0  0  0  0  0  0  0  0  0  0  0  0
   63.3134   34.2199   30.0028 N   0  0  0  0  0  0  0  0  0  0  0  0
   64.0698   34.7698   28.9063 N   0  0  0  0  0  0  0  0  0  0  0  0
   63.5578   36.0658   28.5868 N   0  0  0  0  0  0  0  0  0  0  0  0
   63.6927   36.8890   29.7597 N   0  0  0  0  0  0  0  0  0  0  0  0
   65.1010   36.9301   30.1192 N   0  0  0  0  0  0  0  0  0  0  0  0
   65.8698   37.5319   29.0316 N   0  0  0  0  0  0  0  0  0  0  0  0
   65.3319   38.8289   28.7199 N   0  0  0  0  0  0  0  0  0  0  0  0
   65.4476   39.6869   29.8632 N   0  0  0  0  0  0  0  0  0  0  0  0
   66.8295   39.7550   30.2504 N   0  0  0  0  0  0  0  0  0  0  0  0
   67.5724   40.2374   29.1076 N   0  0  0  0  0  0  0  0  0  0  0  0
   67.0661   41.5578   28.7324 N   0  0  0  0  0  0  0  0  0  0  0  0
   67.1844   42.4532   29.8584 N   0  0  0  0  0  0  0  0  0  0  0  0
   38.2566   34.9142   35.7384 H   0  0  0  0  0  0  0  0  0  0  0  0
   42.3400   34.2808   34.2563 H   0  0  0  0  0  0  0  0  0  0  0  0
   43.8533   34.5854   33.4111 H   0  0  0  0  0  0  0  0  0  0  0  0
   42.8365   33.8330   31.2486 H   0  0  0  0  0  0  0  0  0  0  0  0
   41.3006   33.5197   32.0628 H   0  0  0  0  0  0  0  0  0  0  0  0
   42.3783   31.8143   33.5146 H   0  0  0  0  0  0  0  0  0  0  0  0
   43.9266   32.0858   32.6877 H   0  0  0  0  0  0  0  0  0  0  0  0
   42.8847   31.4016   30.6355 H   0  0  0  0  0  0  0  0  0  0  0  0
   42.3946   29.5069   32.7604 H   0  0  0  0  0  0  0  0  0  0  0  0
   42.9692   29.0920   29.9806 H   0  0  0  0  0  0  0  0  0  0  0  0
   42.4584   27.1446   31.9850 H   0  0  0  0  0  0  0  0  0  0  0  0
   45.2513   27.6334   30.5933 H   0  0  0  0  0  0  0  0  0  0  0  0
   48.0968   29.3947   28.9031 H   0  0  0  0  0  0  0  0  0  0  0  0
   50.1455   26.5024   30.5983 H   0  0  0  0  0  0  0  0  0  0  0  0
   51.8784   24.4255   29.0222 H   0  0  0  0  0  0  0  0  0  0  0  0
   48.1177   24.2761   29.5765 H   0  0  0  0  0  0  0  0  0  0  0  0
   49.7427   20.9204   28.7604 H   0  0  0  0  0  0  0  0  0  0  0  0
   46.0833   20.9467   29.6014 H   0  0  0  0  0  0  0  0  0  0  0  0
   47.2844   17.6423   28.1895 H   0  0  0  0  0  0  0  0  0  0  0  0
   43.7452   17.3634   29.5332 H   0  0  0  0  0  0  0  0  0  0  0  0
   45.0282   14.2222   27.7540 H   0  0  0  0  0  0  0  0  0  0  0  0
   43.7706   11.2383   28.1307 H   0  0  0  0  0  0  0  0  0  0  0  0
   46.1656   11.4764   31.0682 H   0  0  0  0  0  0  0  0  0  0  0  0
   48.3618   12.5711   27.9913 H   0  0  0  0  0  0  0  0  0  0  0  0
   47.3306   14.4652   29.0476 H   0  0  0  0  0  0  0  0  0  0  0  0
   48.5671   14.5511   30.9762 H   0  0  0  0  0  0  0  0  0  0  0  0
   50.7163   14.1361   30.0577 H   0  0  0  0  0  0  0  0  0  0  0  0
   50.4768   15.3417   28.0375 H   0  0  0  0  0  0  0  0  0  0  0  0
   49.3799   17.1876   28.8359 H   0  0  0  0  0  0  0  0  0  0  0  0
   50.4612   17.3118   30.8954 H   0  0  0  0  0  0  0  0  0  0  0  0
   52.5249   16.6916   30.0989 H   0  0  0  0  0  0  0  0  0  0  0  0
   52.4561   17.7959   28.1338 H   0  0  0  0  0  0  0  0  0  0  0  0
   51.3928   19.7742   28.7434 H   0  0  0  0  0  0  0  0  0  0  0  0
   52.2843   20.0878   30.8324 H   0  0  0  0  0  0  0  0  0  0  0  0
   54.4674   19.4893   30.2129 H   0  0  0  0  0  0  0  0  0  0  0  0
   54.5612   20.6028   28.1869 H   0  0  0  0  0  0  0  0  0  0  0  0
   53.3034   22.5017   28.7140 H   0  0  0  0  0  0  0  0  0  0  0  0
   54.3136   22.9784   30.8352 H   0  0  0  0  0  0  0  0  0  0  0  0
   56.4068   22.2934   30.2714 H   0  0  0  0  0  0  0  0  0  0  0  0
   56.4735   23.3077   28.1769 H   0  0  0  0  0  0  0  0  0  0  0  0
   55.1712   25.0609   28.7605 H   0  0  0  0  0  0  0  0  0  0  0  0
   56.0097   25.5274   30.8212 H   0  0  0  0  0  0  0  0  0  0  0  0
   58.2220   25.0567   30.3688 H   0  0  0  0  0  0  0  0  0  0  0  0
   58.2656   25.9646   28.2589 H   0  0  0  0  0  0  0  0  0  0  0  0
   56.9305   27.7389   28.6993 H   0  0  0  0  0  0  0  0  0  0  0  0
   57.7460   28.2413   30.7552 H   0  0  0  0  0  0  0  0  0  0  0  0
   59.9190   27.8569   30.2681 H   0  0  0  0  0  0  0  0  0  0  0  0
   59.9485   28.6603   28.2484 H   0  0  0  0  0  0  0  0  0  0  0  0
   58.7262   30.5564   28.5660 H   0  0  0  0  0  0  0  0  0  0  0  0
   59.5343   31.0620   30.5964 H   0  0  0  0  0  0  0  0  0  0  0  0
   61.7029   30.5697   30.2007 H   0  0  0  0  0  0  0  0  0  0  0  0
   61.8835   31.4239   28.0790 H   0  0  0  0  0  0  0  0  0  0  0  0
   60.6503   33.2938   28.3829 H   0  0  0  0  0  0  0  0  0  0  0  0
   61.3988   33.7586   30.4709 H   0  0  0  0  0  0  0  0  0  0  0  0
   63.6073   33.2481   30.1616 H   0  0  0  0  0  0  0  0  0  0  0  0
   63.8886   34.2075   28.0831 H   0  0  0  0  0  0  0  0  0  0  0  0
   62.5607   35.8882   28.3910 H   0  0  0  0  0  0  0  0  0  0  0  0
   63.1921   36.3520   30.4899 H   0  0  0  0  0  0  0  0  0  0  0  0
   65.3828   35.9390   30.2011 H   0  0  0  0  0  0  0  0  0  0  0  0
   65.7044   36.9282   28.2134 H   0  0  0  0  0  0  0  0  0  0  0  0
   64.3343   38.6921   28.5695 H   0  0  0  0  0  0  0  0  0  0  0  0
   64.9546   39.1920   30.6022 H   0  0  0  0  0  0  0  0  0  0  0  0
   67.0612   38.7571   30.3579 H   0  0  0  0  0  0  0  0  0  0  0  0
   67.2529   39.5575   28.3937 H   0  0  0  0  0  0  0  0  0  0  0  0
   66.0579   41.3979   28.5499 H   0  0  0  0  0  0  0  0  0  0  0  0
   68.1718   42.6111   30.0509 H   0  0  0  0  0  0  0  0  0  0  0  0
   66.8389   41.9338   30.6777 H   0  0  0  0  0  0  0  0  0  0  0  0
  1  2  1  0  0  0  0
  1 82  1  0  0  0  0
  2  3  1  0  0  0  0
  3  4  1  0  0  0  0
  4  5  1  0  0  0  0
  5  6  1  0  0  0  0
  5 83  1  0  0  0  0
  5 84  1  0  0  0  0
  6  7  1  0  0  0  0
  6 85  1  0  0  0  0
  6 86  1  0  0  0  0
  7  8  1  0  0  0  0
  7 87  1  0  0  0  0
  7 88  1  0  0  0  0
  8  9  1  0  0  0  0
  8 89  1  0  0  0  0
  9 10  1  0  0  0  0
  9 90  1  0  0  0  0
 10 11  1  0  0  0  0
 10 91  1  0  0  0  0
 11 12  1  0  0  0  0
 11 92  1  0  0  0  0
 12 13  1  0  0  0  0
 13 14  1  0  0  0  0
 14 15  1  0  0  0  0
 15 16  1  0  0  0  0
 15 93  1  0  0  0  0
 16 17  1  0  0  0  0
 17 18  1  0  0  0  0
 17 94  1  0  0  0  0
 18 19  1  0  0  0  0
 19 20  1  0  0  0  0
 19 95  1  0  0  0  0
 20 21  1  0  0  0  0
 21 22  1  0  0  0  0
 21 96  1  0  0  0  0
 22 23  1  0  0  0  0
 23 24  1  0  0  0  0
 23 97  1  0  0  0  0
 24 25  1  0  0  0  0
 25 26  1  0  0  0  0
 25 98  1  0  0  0  0
 26 27  1  0  0  0  0
 27 28  1  0  0  0  0
 27 99  1  0  0  0  0
 28 29  1  0  0  0  0
 29 30  1  0  0  0  0
 29100  1  0  0  0  0
 30 31  1  0  0  0  0
 31 32  1  0  0  0  0
 31101  1  0  0  0  0
 32 33  1  0  0  0  0
 33 34  1  0  0  0  0
 33102  1  0  0  0  0
 34 35  1  0  0  0  0
 35 36  1  0  0  0  0
 35103  1  0  0  0  0
 36 37  1  0  0  0  0
 37 38  1  0  0  0  0
 37104  1  0  0  0  0
 38 39  1  0  0  0  0
 39 40  1  0  0  0  0
 39105  1  0  0  0  0
 40 41  1  0  0  0  0
 40106  1  0  0  0  0
 41 42  1  0  0  0  0
 41107  1  0  0  0  0
 42 43  1  0  0  0  0
 42108  1  0  0  0  0
 43 44  1  0  0  0  0
 43109  1  0  0  0  0
 44 45  1  0  0  0  0
 44110  1  0  0  0  0
 45 46  1  0  0  0  0
 45111  1  0  0  0  0
 46 47  1  0  0  0  0
 46112  1  0  0  0  0
 47 48  1  0  0  0  0
 47113  1  0  0  0  0
 48 49  1  0  0  0  0
 48114  1  0  0  0  0
 49 50  1  0  0  0  0
 49115  1  0  0  0  0
 50 51  1  0  0  0  0
 50116  1  0  0  0  0
 51 52  1  0  0  0  0
 51117  1  0  0  0  0
 52 53  1  0  0  0  0
 52118  1  0  0  0  0
 53 54  1  0  0  0  0
 53119  1  0  0  0  0
 54 55  1  0  0  0  0
 54120  1  0  0  0  0
 55 56  1  0  0  0  0
 55121  1  0  0  0  0
 56 57  1  0  0  0  0
 56122  1  0  0  0  0
 57 58  1  0  0  0  0
 57123  1  0  0  0  0
 58 59  1  0  0  0  0
 58124  1  0  0  0  0
 59 60  1  0  0  0  0
 59125  1  0  0  0  0
 60 61  1  0  0  0  0
 60126  1  0  0  0  0
 61 62  1  0  0  0  0
 61127  1  0  0  0  0
 62 63  1  0  0  0  0
 62128  1  0  0  0  0
 63 64  1  0  0  0  0
 63129  1  0  0  0  0
 64 65  1  0  0  0  0
 64130  1  0  0  0  0
 65 66  1  0  0  0  0
 65131  1  0  0  0  0
 66 67  1  0  0  0  0
 66132  1  0  0  0  0
 67 68  1  0  0  0  0
 67133  1  0  0  0  0
 68 69  1  0  0  0  0
 68134  1  0  0  0  0
 69 70  1  0  0  0  0
 69135  1  0  0  0  0
 70 71  1  0  0  0  0
 70136  1  0  0  0  0
 71 72  1  0  0  0  0
 71137  1  0  0  0  0
 72 73  1  0  0  0  0
 72138  1  0  0  0  0
 73 74  1  0  0  0  0
 73139  1  0  0  0  0
 74 75  1  0  0  0  0
 74140  1  0  0  0  0
 75 76  1  0  0  0  0
 75141  1  0  0  0  0
 76 77  1  0  0  0  0
 76142  1  0  0  0  0
 77 78  1  0  0  0  0
 77143  1  0  0  0  0
 78 79  1  0  0  0  0
 78144  1  0  0  0  0
 79 80  1  0  0  0  0
 79145  1  0  0  0  0
 80 81  1  0  0  0  0
 80146  1  0  0  0  0
 81147  1  0  0  0  0
 81148  1  0  0  0  0
M  END
$$$$
