
 OpenBabel04232216403D

230229  0  0  0  0  0  0  0  0999 V2000
    1.3793   -0.7540    0.5170 C   0  0  0  0  0  0  0  0  0  0  0  0
    2.2419    0.0588   -0.1173 C   0  0  0  0  0  0  0  0  0  0  0  0
    3.0168    1.1149    0.5972 C   0  0  0  0  0  0  0  0  0  0  0  0
    4.5166    0.8916    0.4556 C   0  0  0  0  0  0  0  0  0  0  0  0
    5.2845    1.9791    1.1933 C   0  0  0  0  0  0  0  0  0  0  0  0
    6.7807    1.7548    1.0508 C   0  0  0  0  0  0  0  0  0  0  0  0
    7.5476    2.8408    1.7853 C   0  0  0  0  0  0  0  0  0  0  0  0
    9.0415    2.6124    1.6375 C   0  0  0  0  0  0  0  0  0  0  0  0
    9.8061    3.6983    2.3719 C   0  0  0  0  0  0  0  0  0  0  0  0
   11.2989    3.4687    2.2257 C   0  0  0  0  0  0  0  0  0  0  0  0
   12.0621    4.5536    2.9619 C   0  0  0  0  0  0  0  0  0  0  0  0
   13.5542    4.3251    2.8140 C   0  0  0  0  0  0  0  0  0  0  0  0
   14.3169    5.4110    3.5484 C   0  0  0  0  0  0  0  0  0  0  0  0
   15.8089    5.1836    3.3988 C   0  0  0  0  0  0  0  0  0  0  0  0
   16.5717    6.2692    4.1330 C   0  0  0  0  0  0  0  0  0  0  0  0
   18.0635    6.0434    3.9821 C   0  0  0  0  0  0  0  0  0  0  0  0
   18.8262    7.1281    4.7181 C   0  0  0  0  0  0  0  0  0  0  0  0
   20.3182    6.9029    4.5651 C   0  0  0  0  0  0  0  0  0  0  0  0
   21.0807    7.9865    5.3028 C   0  0  0  0  0  0  0  0  0  0  0  0
   22.5726    7.7601    5.1516 C   0  0  0  0  0  0  0  0  0  0  0  0
   23.3355    8.8447    5.8876 C   0  0  0  0  0  0  0  0  0  0  0  0
   24.8274    8.6166    5.7373 C   0  0  0  0  0  0  0  0  0  0  0  0
   25.5899    9.7002    6.4753 C   0  0  0  0  0  0  0  0  0  0  0  0
   27.0820    9.4742    6.3240 C   0  0  0  0  0  0  0  0  0  0  0  0
   27.8437   10.5587    7.0622 C   0  0  0  0  0  0  0  0  0  0  0  0
   29.3361   10.3311    6.9128 C   0  0  0  0  0  0  0  0  0  0  0  0
   30.0988   11.4152    7.6505 C   0  0  0  0  0  0  0  0  0  0  0  0
   31.5910   11.1873    7.5008 C   0  0  0  0  0  0  0  0  0  0  0  0
   32.3540   12.2711    8.2386 C   0  0  0  0  0  0  0  0  0  0  0  0
   33.8465   12.0440    8.0893 C   0  0  0  0  0  0  0  0  0  0  0  0
   34.6102   13.1278    8.8272 C   0  0  0  0  0  0  0  0  0  0  0  0
   36.1032   12.9007    8.6778 C   0  0  0  0  0  0  0  0  0  0  0  0
   36.8688   13.9851    9.4136 C   0  0  0  0  0  0  0  0  0  0  0  0
   38.3626   13.7572    9.2638 C   0  0  0  0  0  0  0  0  0  0  0  0
   39.1307   14.8408    9.9991 C   0  0  0  0  0  0  0  0  0  0  0  0
   40.6277   14.6167    9.8517 C   0  0  0  0  0  0  0  0  0  0  0  0
   41.3843   15.7082   10.5900 C   0  0  0  0  0  0  0  0  0  0  0  0
   42.8165   15.4813   10.4384 N   0  0  0  0  0  0  0  0  0  0  0  0
   43.5515   16.5250   11.1411 C   0  0  0  0  0  0  0  0  0  0  0  0
   45.0472   16.3036   10.9959 C   0  0  0  0  0  0  0  0  0  0  0  0
   45.7870   17.4017   11.7388 C   0  0  0  0  0  0  0  0  0  0  0  0
   47.1824   17.1867   11.5974 O   0  0  0  0  0  0  0  0  0  0  0  0
   47.8986   18.2050   12.2858 C   0  0  0  0  0  0  0  0  0  0  0  0
   49.3829   17.9570   12.1223 C   0  0  0  0  0  0  0  0  0  0  0  0
   50.1598   19.0384   12.8536 C   0  0  0  0  0  0  0  0  0  0  0  0
   51.6531   18.8149   12.7067 C   0  0  0  0  0  0  0  0  0  0  0  0
   52.4152   19.9034   13.4428 C   0  0  0  0  0  0  0  0  0  0  0  0
   53.9090   19.6783   13.2972 C   0  0  0  0  0  0  0  0  0  0  0  0
   54.6720   20.7638   14.0337 C   0  0  0  0  0  0  0  0  0  0  0  0
   56.1650   20.5372   13.8847 C   0  0  0  0  0  0  0  0  0  0  0  0
   56.9285   21.6221   14.6208 C   0  0  0  0  0  0  0  0  0  0  0  0
   58.4212   21.3961   14.4697 C   0  0  0  0  0  0  0  0  0  0  0  0
   59.1848   22.4822   15.2043 C   0  0  0  0  0  0  0  0  0  0  0  0
   60.6779   22.2556   15.0552 C   0  0  0  0  0  0  0  0  0  0  0  0
   61.4413   23.3408   15.7915 C   0  0  0  0  0  0  0  0  0  0  0  0
   62.9350   23.1172   15.6420 C   0  0  0  0  0  0  0  0  0  0  0  0
   63.6981   24.2054   16.3784 C   0  0  0  0  0  0  0  0  0  0  0  0
   65.1905   23.9838   16.2286 C   0  0  0  0  0  0  0  0  0  0  0  0
   65.9693   25.0669   16.9676 C   0  0  0  0  0  0  0  0  0  0  0  0
   67.4620   24.8301   16.8113 C   0  0  0  0  0  0  0  0  0  0  0  0
   67.7812   24.8661   15.4255 O   0  0  0  0  0  0  0  0  0  0  0  0
   69.2046   24.6353   15.3139 N   0  0  0  0  0  0  0  0  0  0  0  0
   69.4720   24.6837   13.8863 C   0  0  0  0  0  0  0  0  0  0  0  0
   70.9550   24.4500   13.6877 C   0  0  0  0  0  0  0  0  0  0  0  0
   71.2239   24.4958   12.2973 O   0  0  0  0  0  0  0  0  0  0  0  0
   72.6513   24.2661   12.2006 O   0  0  0  0  0  0  0  0  0  0  0  0
   72.9288   24.3095   10.8126 C   0  0  0  0  0  0  0  0  0  0  0  0
   74.4142   24.0755   10.6384 C   0  0  0  0  0  0  0  0  0  0  0  0
   74.7867   24.1067    9.1683 C   0  0  0  0  0  0  0  0  0  0  0  0
   76.2776   23.8713    9.0003 C   0  0  0  0  0  0  0  0  0  0  0  0
   76.6460   23.9033    7.5275 C   0  0  0  0  0  0  0  0  0  0  0  0
   78.1363   23.6681    7.3596 C   0  0  0  0  0  0  0  0  0  0  0  0
   78.5036   23.7002    5.8871 C   0  0  0  0  0  0  0  0  0  0  0  0
   79.9940   23.4650    5.7186 C   0  0  0  0  0  0  0  0  0  0  0  0
   80.3608   23.4953    4.2453 C   0  0  0  0  0  0  0  0  0  0  0  0
   81.8517   23.2602    4.0734 C   0  0  0  0  0  0  0  0  0  0  0  0
   82.2208   23.2901    2.5985 C   0  0  0  0  0  0  0  0  0  0  0  0
   83.7135   23.0528    2.4251 C   0  0  0  0  0  0  0  0  0  0  0  0
   84.0954   23.0785    0.9511 C   0  0  0  0  0  0  0  0  0  0  0  0
   85.5842   22.8416    0.7817 C   0  0  0  0  0  0  0  0  0  0  0  0
    0.8288   -1.5140   -0.0238 H   0  0  0  0  0  0  0  0  0  0  0  0
    1.2193   -0.6638    1.5863 H   0  0  0  0  0  0  0  0  0  0  0  0
    2.3790   -0.0580   -1.1882 H   0  0  0  0  0  0  0  0  0  0  0  0
    2.7538    1.1239    1.6628 H   0  0  0  0  0  0  0  0  0  0  0  0
    2.7509    2.0983    0.1914 H   0  0  0  0  0  0  0  0  0  0  0  0
    4.8002    0.8956   -0.6050 H   0  0  0  0  0  0  0  0  0  0  0  0
    4.7916   -0.0916    0.8590 H   0  0  0  0  0  0  0  0  0  0  0  0
    5.0093    1.9777    2.2557 H   0  0  0  0  0  0  0  0  0  0  0  0
    5.0178    2.9649    0.7919 H   0  0  0  0  0  0  0  0  0  0  0  0
    7.0593    1.7570   -0.0103 H   0  0  0  0  0  0  0  0  0  0  0  0
    7.0512    0.7715    1.4551 H   0  0  0  0  0  0  0  0  0  0  0  0
    7.2740    2.8391    2.8476 H   0  0  0  0  0  0  0  0  0  0  0  0
    7.2800    3.8256    1.3829 H   0  0  0  0  0  0  0  0  0  0  0  0
    9.3172    2.6149    0.5757 H   0  0  0  0  0  0  0  0  0  0  0  0
    9.3112    1.6284    2.0404 H   0  0  0  0  0  0  0  0  0  0  0  0
    9.5306    3.6969    3.4335 H   0  0  0  0  0  0  0  0  0  0  0  0
    9.5386    4.6824    1.9681 H   0  0  0  0  0  0  0  0  0  0  0  0
   11.5759    3.4716    1.1642 H   0  0  0  0  0  0  0  0  0  0  0  0
   11.5675    2.4842    2.6284 H   0  0  0  0  0  0  0  0  0  0  0  0
   11.7868    4.5499    4.0237 H   0  0  0  0  0  0  0  0  0  0  0  0
   11.7931    5.5384    2.5603 H   0  0  0  0  0  0  0  0  0  0  0  0
   13.8299    4.3276    1.7521 H   0  0  0  0  0  0  0  0  0  0  0  0
   13.8239    3.3410    3.2169 H   0  0  0  0  0  0  0  0  0  0  0  0
   14.0425    5.4079    4.6107 H   0  0  0  0  0  0  0  0  0  0  0  0
   14.0463    6.3954    3.1466 H   0  0  0  0  0  0  0  0  0  0  0  0
   16.0832    5.1867    2.3363 H   0  0  0  0  0  0  0  0  0  0  0  0
   16.0795    4.1990    3.8006 H   0  0  0  0  0  0  0  0  0  0  0  0
   16.2982    6.2652    5.1957 H   0  0  0  0  0  0  0  0  0  0  0  0
   16.2999    7.2539    3.7322 H   0  0  0  0  0  0  0  0  0  0  0  0
   18.3370    6.0489    2.9195 H   0  0  0  0  0  0  0  0  0  0  0  0
   18.3351    5.0583    4.3816 H   0  0  0  0  0  0  0  0  0  0  0  0
   18.5538    7.1214    5.7807 H   0  0  0  0  0  0  0  0  0  0  0  0
   18.5538    8.1132    4.3193 H   0  0  0  0  0  0  0  0  0  0  0  0
   20.5909    6.9109    3.5025 H   0  0  0  0  0  0  0  0  0  0  0  0
   20.5905    5.9172    4.9625 H   0  0  0  0  0  0  0  0  0  0  0  0
   20.8071    7.9795    6.3652 H   0  0  0  0  0  0  0  0  0  0  0  0
   20.8096    8.9721    4.9044 H   0  0  0  0  0  0  0  0  0  0  0  0
   22.8462    7.7657    4.0892 H   0  0  0  0  0  0  0  0  0  0  0  0
   22.8440    6.7751    5.5512 H   0  0  0  0  0  0  0  0  0  0  0  0
   23.0613    8.8400    6.9498 H   0  0  0  0  0  0  0  0  0  0  0  0
   23.0654    9.8297    5.4870 H   0  0  0  0  0  0  0  0  0  0  0  0
   25.1018    8.6228    4.6752 H   0  0  0  0  0  0  0  0  0  0  0  0
   25.0974    7.6311    6.1366 H   0  0  0  0  0  0  0  0  0  0  0  0
   25.3163    9.6927    7.5374 H   0  0  0  0  0  0  0  0  0  0  0  0
   25.3186   10.6857    6.0770 H   0  0  0  0  0  0  0  0  0  0  0  0
   27.3557    9.4818    5.2618 H   0  0  0  0  0  0  0  0  0  0  0  0
   27.3535    8.4888    6.7224 H   0  0  0  0  0  0  0  0  0  0  0  0
   27.5688   10.5520    8.1241 H   0  0  0  0  0  0  0  0  0  0  0  0
   27.5733   11.5438    6.6629 H   0  0  0  0  0  0  0  0  0  0  0  0
   29.6107   10.3374    5.8509 H   0  0  0  0  0  0  0  0  0  0  0  0
   29.6058    9.3461    7.3124 H   0  0  0  0  0  0  0  0  0  0  0  0
   29.8240   11.4089    8.7125 H   0  0  0  0  0  0  0  0  0  0  0  0
   29.8288   12.4004    7.2510 H   0  0  0  0  0  0  0  0  0  0  0  0
   31.8657   11.1934    6.4389 H   0  0  0  0  0  0  0  0  0  0  0  0
   31.8608   10.2020    7.9003 H   0  0  0  0  0  0  0  0  0  0  0  0
   32.0791   12.2649    9.3007 H   0  0  0  0  0  0  0  0  0  0  0  0
   32.0837   13.2564    7.8393 H   0  0  0  0  0  0  0  0  0  0  0  0
   34.1209   12.0501    7.0272 H   0  0  0  0  0  0  0  0  0  0  0  0
   34.1163   11.0585    8.4885 H   0  0  0  0  0  0  0  0  0  0  0  0
   34.3352   13.1215    9.8891 H   0  0  0  0  0  0  0  0  0  0  0  0
   34.3398   14.1131    8.4277 H   0  0  0  0  0  0  0  0  0  0  0  0
   36.3768   12.9051    7.6155 H   0  0  0  0  0  0  0  0  0  0  0  0
   36.3725   11.9155    9.0781 H   0  0  0  0  0  0  0  0  0  0  0  0
   36.5940   13.9804   10.4757 H   0  0  0  0  0  0  0  0  0  0  0  0
   36.5982   14.9699    9.0131 H   0  0  0  0  0  0  0  0  0  0  0  0
   38.6352   13.7617    8.2013 H   0  0  0  0  0  0  0  0  0  0  0  0
   38.6311   12.7720    9.6641 H   0  0  0  0  0  0  0  0  0  0  0  0
   38.8550   14.8367   11.0609 H   0  0  0  0  0  0  0  0  0  0  0  0
   38.8594   15.8255    9.5984 H   0  0  0  0  0  0  0  0  0  0  0  0
   40.8985   14.6192    8.7882 H   0  0  0  0  0  0  0  0  0  0  0  0
   40.8969   13.6318   10.2540 H   0  0  0  0  0  0  0  0  0  0  0  0
   41.1078   15.6898   11.6512 H   0  0  0  0  0  0  0  0  0  0  0  0
   41.1063   16.6884   10.1832 H   0  0  0  0  0  0  0  0  0  0  0  0
   43.0576   15.4825    9.4468 H   0  0  0  0  0  0  0  0  0  0  0  0
   43.2870   16.5123   12.2059 H   0  0  0  0  0  0  0  0  0  0  0  0
   43.2854   17.5113   10.7410 H   0  0  0  0  0  0  0  0  0  0  0  0
   45.3447   16.3048    9.9396 H   0  0  0  0  0  0  0  0  0  0  0  0
   45.3396   15.3240   11.3949 H   0  0  0  0  0  0  0  0  0  0  0  0
   45.5191   17.3845   12.8019 H   0  0  0  0  0  0  0  0  0  0  0  0
   45.5235   18.3806   11.3208 H   0  0  0  0  0  0  0  0  0  0  0  0
   47.6294   18.1860   13.3486 H   0  0  0  0  0  0  0  0  0  0  0  0
   47.6333   19.1839   11.8691 H   0  0  0  0  0  0  0  0  0  0  0  0
   49.6444   17.9450   11.0570 H   0  0  0  0  0  0  0  0  0  0  0  0
   49.6407   16.9642   12.5111 H   0  0  0  0  0  0  0  0  0  0  0  0
   49.8878   19.0378   13.9167 H   0  0  0  0  0  0  0  0  0  0  0  0
   49.8915   20.0245   12.4540 H   0  0  0  0  0  0  0  0  0  0  0  0
   51.9287   18.8198   11.6451 H   0  0  0  0  0  0  0  0  0  0  0  0
   51.9249   17.8319   13.1099 H   0  0  0  0  0  0  0  0  0  0  0  0
   52.1396   19.9015   14.5048 H   0  0  0  0  0  0  0  0  0  0  0  0
   52.1455   20.8878   13.0404 H   0  0  0  0  0  0  0  0  0  0  0  0
   54.1855   19.6826   12.2357 H   0  0  0  0  0  0  0  0  0  0  0  0
   54.1793   18.6941   13.6992 H   0  0  0  0  0  0  0  0  0  0  0  0
   54.3977   20.7591   15.0959 H   0  0  0  0  0  0  0  0  0  0  0  0
   54.4019   21.7487   13.6331 H   0  0  0  0  0  0  0  0  0  0  0  0
   56.4397   20.5420   12.8226 H   0  0  0  0  0  0  0  0  0  0  0  0
   56.4356   19.5525   14.2853 H   0  0  0  0  0  0  0  0  0  0  0  0
   56.6552   21.6165   15.6832 H   0  0  0  0  0  0  0  0  0  0  0  0
   56.6572   22.6070   14.2211 H   0  0  0  0  0  0  0  0  0  0  0  0
   58.6943   21.4004   13.4073 H   0  0  0  0  0  0  0  0  0  0  0  0
   58.6926   20.4117   14.8707 H   0  0  0  0  0  0  0  0  0  0  0  0
   58.9103   22.4788   16.2663 H   0  0  0  0  0  0  0  0  0  0  0  0
   58.9140   23.4663   14.8023 H   0  0  0  0  0  0  0  0  0  0  0  0
   60.9519   22.2602   13.9930 H   0  0  0  0  0  0  0  0  0  0  0  0
   60.9479   21.2707   15.4557 H   0  0  0  0  0  0  0  0  0  0  0  0
   61.1672   23.3348   16.8537 H   0  0  0  0  0  0  0  0  0  0  0  0
   61.1691   24.3254   15.3916 H   0  0  0  0  0  0  0  0  0  0  0  0
   63.2083   23.1212   14.5796 H   0  0  0  0  0  0  0  0  0  0  0  0
   63.2068   22.1328   16.0427 H   0  0  0  0  0  0  0  0  0  0  0  0
   63.4246   24.2001   17.4401 H   0  0  0  0  0  0  0  0  0  0  0  0
   63.4260   25.1888   15.9759 H   0  0  0  0  0  0  0  0  0  0  0  0
   65.4553   23.9847   15.1652 H   0  0  0  0  0  0  0  0  0  0  0  0
   65.4622   22.9969   16.6251 H   0  0  0  0  0  0  0  0  0  0  0  0
   65.7045   25.0675   18.0307 H   0  0  0  0  0  0  0  0  0  0  0  0
   65.7041   26.0523   16.5636 H   0  0  0  0  0  0  0  0  0  0  0  0
   67.7203   23.8460   17.2189 H   0  0  0  0  0  0  0  0  0  0  0  0
   68.0189   25.6031   17.3449 H   0  0  0  0  0  0  0  0  0  0  0  0
   69.2800   23.6627   15.6188 H   0  0  0  0  0  0  0  0  0  0  0  0
   69.1867   25.6535   13.4614 H   0  0  0  0  0  0  0  0  0  0  0  0
   68.8986   23.9183   13.3470 H   0  0  0  0  0  0  0  0  0  0  0  0
   71.2527   23.4695   14.0791 H   0  0  0  0  0  0  0  0  0  0  0  0
   71.5422   25.2264   14.1937 H   0  0  0  0  0  0  0  0  0  0  0  0
   72.6421   25.2892   10.4139 H   0  0  0  0  0  0  0  0  0  0  0  0
   72.3518   23.5309   10.3009 H   0  0  0  0  0  0  0  0  0  0  0  0
   74.6913   23.1122   11.0853 H   0  0  0  0  0  0  0  0  0  0  0  0
   74.9758   24.8372   11.1940 H   0  0  0  0  0  0  0  0  0  0  0  0
   74.5119   25.0758    8.7341 H   0  0  0  0  0  0  0  0  0  0  0  0
   74.2252   23.3370    8.6246 H   0  0  0  0  0  0  0  0  0  0  0  0
   76.5542   22.9018    9.4325 H   0  0  0  0  0  0  0  0  0  0  0  0
   76.8411   24.6409    9.5421 H   0  0  0  0  0  0  0  0  0  0  0  0
   76.3703   24.8727    7.0942 H   0  0  0  0  0  0  0  0  0  0  0  0
   76.0835   23.1337    6.9847 H   0  0  0  0  0  0  0  0  0  0  0  0
   78.4126   22.6986    7.7922 H   0  0  0  0  0  0  0  0  0  0  0  0
   78.6994   24.4377    7.9017 H   0  0  0  0  0  0  0  0  0  0  0  0
   78.2272   24.6697    5.4544 H   0  0  0  0  0  0  0  0  0  0  0  0
   77.9403   22.9307    5.3450 H   0  0  0  0  0  0  0  0  0  0  0  0
   80.2700   22.4963    6.1530 H   0  0  0  0  0  0  0  0  0  0  0  0
   80.5566   24.2355    6.2601 H   0  0  0  0  0  0  0  0  0  0  0  0
   80.0829   24.4642    3.8125 H   0  0  0  0  0  0  0  0  0  0  0  0
   79.7963   22.7250    3.7055 H   0  0  0  0  0  0  0  0  0  0  0  0
   82.1273   22.2916    4.5085 H   0  0  0  0  0  0  0  0  0  0  0  0
   82.4139   24.0305    4.6155 H   0  0  0  0  0  0  0  0  0  0  0  0
   81.9434   24.2597    2.1670 H   0  0  0  0  0  0  0  0  0  0  0  0
   81.6545   22.5208    2.0594 H   0  0  0  0  0  0  0  0  0  0  0  0
   83.9856   22.0848    2.8639 H   0  0  0  0  0  0  0  0  0  0  0  0
   84.2742   23.8230    2.9691 H   0  0  0  0  0  0  0  0  0  0  0  0
   83.8256   24.0463    0.5127 H   0  0  0  0  0  0  0  0  0  0  0  0
   83.5369   22.3076    0.4075 H   0  0  0  0  0  0  0  0  0  0  0  0
   86.1613   23.6153    1.2980 H   0  0  0  0  0  0  0  0  0  0  0  0
   85.8529   22.8610   -0.2779 H   0  0  0  0  0  0  0  0  0  0  0  0
   85.8712   21.8682    1.1924 H   0  0  0  0  0  0  0  0  0  0  0  0
  1  2  2  0  0  0  0
  1 81  1  0  0  0  0
  1 82  1  0  0  0  0
  2  3  1  0  0  0  0
  2 83  1  0  0  0  0
  3  4  1  0  0  0  0
  3 84  1  0  0  0  0
  3 85  1  0  0  0  0
  4  5  1  0  0  0  0
  4 86  1  0  0  0  0
  4 87  1  0  0  0  0
  5  6  1  0  0  0  0
  5 88  1  0  0  0  0
  5 89  1  0  0  0  0
  6  7  1  0  0  0  0
  6 90  1  0  0  0  0
  6 91  1  0  0  0  0
  7  8  1  0  0  0  0
  7 92  1  0  0  0  0
  7 93  1  0  0  0  0
  8  9  1  0  0  0  0
  8 94  1  0  0  0  0
  8 95  1  0  0  0  0
  9 10  1  0  0  0  0
  9 96  1  0  0  0  0
  9 97  1  0  0  0  0
 10 11  1  0  0  0  0
 10 98  1  0  0  0  0
 10 99  1  0  0  0  0
 11 12  1  0  0  0  0
 11100  1  0  0  0  0
 11101  1  0  0  0  0
 12 13  1  0  0  0  0
 12102  1  0  0  0  0
 12103  1  0  0  0  0
 13 14  1  0  0  0  0
 13104  1  0  0  0  0
 13105  1  0  0  0  0
 14 15  1  0  0  0  0
 14106  1  0  0  0  0
 14107  1  0  0  0  0
 15 16  1  0  0  0  0
 15108  1  0  0  0  0
 15109  1  0  0  0  0
 16 17  1  0  0  0  0
 16110  1  0  0  0  0
 16111  1  0  0  0  0
 17 18  1  0  0  0  0
 17112  1  0  0  0  0
 17113  1  0  0  0  0
 18 19  1  0  0  0  0
 18114  1  0  0  0  0
 18115  1  0  0  0  0
 19 20  1  0  0  0  0
 19116  1  0  0  0  0
 19117  1  0  0  0  0
 20 21  1  0  0  0  0
 20118  1  0  0  0  0
 20119  1  0  0  0  0
 21 22  1  0  0  0  0
 21120  1  0  0  0  0
 21121  1  0  0  0  0
 22 23  1  0  0  0  0
 22122  1  0  0  0  0
 22123  1  0  0  0  0
 23 24  1  0  0  0  0
 23124  1  0  0  0  0
 23125  1  0  0  0  0
 24 25  1  0  0  0  0
 24126  1  0  0  0  0
 24127  1  0  0  0  0
 25 26  1  0  0  0  0
 25128  1  0  0  0  0
 25129  1  0  0  0  0
 26 27  1  0  0  0  0
 26130  1  0  0  0  0
 26131  1  0  0  0  0
 27 28  1  0  0  0  0
 27132  1  0  0  0  0
 27133  1  0  0  0  0
 28 29  1  0  0  0  0
 28134  1  0  0  0  0
 28135  1  0  0  0  0
 29 30  1  0  0  0  0
 29136  1  0  0  0  0
 29137  1  0  0  0  0
 30 31  1  0  0  0  0
 30138  1  0  0  0  0
 30139  1  0  0  0  0
 31 32  1  0  0  0  0
 31140  1  0  0  0  0
 31141  1  0  0  0  0
 32 33  1  0  0  0  0
 32142  1  0  0  0  0
 32143  1  0  0  0  0
 33 34  1  0  0  0  0
 33144  1  0  0  0  0
 33145  1  0  0  0  0
 34 35  1  0  0  0  0
 34146  1  0  0  0  0
 34147  1  0  0  0  0
 35 36  1  0  0  0  0
 35148  1  0  0  0  0
 35149  1  0  0  0  0
 36 37  1  0  0  0  0
 36150  1  0  0  0  0
 36151  1  0  0  0  0
 37 38  1  0  0  0  0
 37152  1  0  0  0  0
 37153  1  0  0  0  0
 38 39  1  0  0  0  0
 38154  1  0  0  0  0
 39 40  1  0  0  0  0
 39155  1  0  0  0  0
 39156  1  0  0  0  0
 40 41  1  0  0  0  0
 40157  1  0  0  0  0
 40158  1  0  0  0  0
 41 42  1  0  0  0  0
 41159  1  0  0  0  0
 41160  1  0  0  0  0
 42 43  1  0  0  0  0
 43 44  1  0  0  0  0
 43161  1  0  0  0  0
 43162  1  0  0  0  0
 44 45  1  0  0  0  0
 44163  1  0  0  0  0
 44164  1  0  0  0  0
 45 46  1  0  0  0  0
 45165  1  0  0  0  0
 45166  1  0  0  0  0
 46 47  1  0  0  0  0
 46167  1  0  0  0  0
 46168  1  0  0  0  0
 47 48  1  0  0  0  0
 47169  1  0  0  0  0
 47170  1  0  0  0  0
 48 49  1  0  0  0  0
 48171  1  0  0  0  0
 48172  1  0  0  0  0
 49 50  1  0  0  0  0
 49173  1  0  0  0  0
 49174  1  0  0  0  0
 50 51  1  0  0  0  0
 50175  1  0  0  0  0
 50176  1  0  0  0  0
 51 52  1  0  0  0  0
 51177  1  0  0  0  0
 51178  1  0  0  0  0
 52 53  1  0  0  0  0
 52179  1  0  0  0  0
 52180  1  0  0  0  0
 53 54  1  0  0  0  0
 53181  1  0  0  0  0
 53182  1  0  0  0  0
 54 55  1  0  0  0  0
 54183  1  0  0  0  0
 54184  1  0  0  0  0
 55 56  1  0  0  0  0
 55185  1  0  0  0  0
 55186  1  0  0  0  0
 56 57  1  0  0  0  0
 56187  1  0  0  0  0
 56188  1  0  0  0  0
 57 58  1  0  0  0  0
 57189  1  0  0  0  0
 57190  1  0  0  0  0
 58 59  1  0  0  0  0
 58191  1  0  0  0  0
 58192  1  0  0  0  0
 59 60  1  0  0  0  0
 59193  1  0  0  0  0
 59194  1  0  0  0  0
 60 61  1  0  0  0  0
 60195  1  0  0  0  0
 60196  1  0  0  0  0
 61 62  1  0  0  0  0
 62 63  1  0  0  0  0
 62197  1  0  0  0  0
 63 64  1  0  0  0  0
 63198  1  0  0  0  0
 63199  1  0  0  0  0
 64 65  1  0  0  0  0
 64200  1  0  0  0  0
 64201  1  0  0  0  0
 65 66  1  0  0  0  0
 66 67  1  0  0  0  0
 67 68  1  0  0  0  0
 67202  1  0  0  0  0
 67203  1  0  0  0  0
 68 69  1  0  0  0  0
 68204  1  0  0  0  0
 68205  1  0  0  0  0
 69 70  1  0  0  0  0
 69206  1  0  0  0  0
 69207  1  0  0  0  0
 70 71  1  0  0  0  0
 70208  1  0  0  0  0
 70209  1  0  0  0  0
 71 72  1  0  0  0  0
 71210  1  0  0  0  0
 71211  1  0  0  0  0
 72 73  1  0  0  0  0
 72212  1  0  0  0  0
 72213  1  0  0  0  0
 73 74  1  0  0  0  0
 73214  1  0  0  0  0
 73215  1  0  0  0  0
 74 75  1  0  0  0  0
 74216  1  0  0  0  0
 74217  1  0  0  0  0
 75 76  1  0  0  0  0
 75218  1  0  0  0  0
 75219  1  0  0  0  0
 76 77  1  0  0  0  0
 76220  1  0  0  0  0
 76221  1  0  0  0  0
 77 78  1  0  0  0  0
 77222  1  0  0  0  0
 77223  1  0  0  0  0
 78 79  1  0  0  0  0
 78224  1  0  0  0  0
 78225  1  0  0  0  0
 79 80  1  0  0  0  0
 79226  1  0  0  0  0
 79227  1  0  0  0  0
 80228  1  0  0  0  0
 80229  1  0  0  0  0
 80230  1  0  0  0  0
M  END
$$$$
