
 OpenBabel04232216393D

 40 40  0  0  0  0  0  0  0  0999 V2000
    8.2034   -3.5357   -3.0216 C   0  0  0  0  0  0  0  0  0  0  0  0
    8.5216   -2.4429   -3.8028 C   0  0  0  0  0  0  0  0  0  0  0  0
    7.7114   -1.2950   -3.1346 C   0  0  0  0  0  0  0  0  0  0  0  0
    6.8353   -0.2578   -2.9425 C   0  0  0  0  0  0  0  0  0  0  0  0
    5.7730    0.1360   -3.8547 C   0  0  0  0  0  0  0  0  0  0  0  0
    6.0982    0.5140   -5.1000 C   0  0  0  0  0  0  0  0  0  0  0  0
    7.2381    0.0464   -5.8460 C   0  0  0  0  0  0  0  0  0  0  0  0
    8.4428    0.5120   -5.5048 C   0  0  0  0  0  0  0  0  0  0  0  0
    9.6824    0.2512   -6.1722 C   0  0  0  0  0  0  0  0  0  0  0  0
   10.8279    0.5581   -5.5732 C   0  0  0  0  0  0  0  0  0  0  0  0
   12.0943    0.4904   -6.2668 C   0  0  0  0  0  0  0  0  0  0  0  0
   13.2596    0.2921   -5.6506 C   0  0  0  0  0  0  0  0  0  0  0  0
   14.3325   -0.3297   -6.4129 C   0  0  0  0  0  0  0  0  0  0  0  0
   14.7586   -1.5430   -5.9886 C   0  0  0  0  0  0  0  0  0  0  0  0
   14.7986   -2.6333   -6.8946 C   0  0  0  0  0  0  0  0  0  0  0  0
   13.7603   -2.9264   -7.6921 C   0  0  0  0  0  0  0  0  0  0  0  0
   12.2677   -2.6933   -7.6137 C   0  0  0  0  0  0  0  0  0  0  0  0
   11.1889   -2.6139   -6.7120 C   0  0  0  0  0  0  0  0  0  0  0  0
   11.0167   -2.6595   -5.2406 C   0  0  0  0  0  0  0  0  0  0  0  0
   10.0542   -2.5475   -4.2510 C   0  0  0  0  0  0  0  0  0  0  0  0
    7.1436   -3.8481   -3.0570 H   0  0  0  0  0  0  0  0  0  0  0  0
    8.2015   -3.3065   -1.9313 H   0  0  0  0  0  0  0  0  0  0  0  0
    6.8500   -1.8510   -3.5282 H   0  0  0  0  0  0  0  0  0  0  0  0
    6.9211    0.4242   -2.0989 H   0  0  0  0  0  0  0  0  0  0  0  0
    4.8766    0.5772   -3.3976 H   0  0  0  0  0  0  0  0  0  0  0  0
    5.8672    1.5638   -5.3033 H   0  0  0  0  0  0  0  0  0  0  0  0
    7.0739   -0.6858   -6.6296 H   0  0  0  0  0  0  0  0  0  0  0  0
    8.5326    1.1406   -4.6316 H   0  0  0  0  0  0  0  0  0  0  0  0
    9.6309   -0.1951   -7.1675 H   0  0  0  0  0  0  0  0  0  0  0  0
   10.8533    0.8122   -4.5106 H   0  0  0  0  0  0  0  0  0  0  0  0
   12.0170    0.3508   -7.3487 H   0  0  0  0  0  0  0  0  0  0  0  0
   13.3344    0.2341   -4.5580 H   0  0  0  0  0  0  0  0  0  0  0  0
   14.2531   -0.1563   -7.5070 H   0  0  0  0  0  0  0  0  0  0  0  0
   14.8400   -1.7972   -4.9232 H   0  0  0  0  0  0  0  0  0  0  0  0
   15.4071   -3.4828   -6.5593 H   0  0  0  0  0  0  0  0  0  0  0  0
   14.0800   -2.5670   -8.7162 H   0  0  0  0  0  0  0  0  0  0  0  0
   12.0080   -2.4651   -8.6379 H   0  0  0  0  0  0  0  0  0  0  0  0
   10.2929   -2.4233   -7.2611 H   0  0  0  0  0  0  0  0  0  0  0  0
   12.0106   -2.7996   -4.8345 H   0  0  0  0  0  0  0  0  0  0  0  0
   10.5549   -2.6531   -3.2871 H   0  0  0  0  0  0  0  0  0  0  0  0
  1  2  2  0  0  0  0
  1 21  1  0  0  0  0
  1 22  1  0  0  0  0
  2  3  1  0  0  0  0
  2 20  1  0  0  0  0
  3  4  2  3  0  0  0
  3 23  1  0  0  0  0
  4  5  1  0  0  0  0
  4 24  1  0  0  0  0
  5  6  2  3  0  0  0
  5 25  1  0  0  0  0
  6  7  1  0  0  0  0
  6 26  1  0  0  0  0
  7  8  2  3  0  0  0
  7 27  1  0  0  0  0
  8  9  1  0  0  0  0
  8 28  1  0  0  0  0
  9 10  2  3  0  0  0
  9 29  1  0  0  0  0
 10 11  1  0  0  0  0
 10 30  1  0  0  0  0
 11 12  2  3  0  0  0
 11 31  1  0  0  0  0
 12 13  1  0  0  0  0
 12 32  1  0  0  0  0
 13 14  2  3  0  0  0
 13 33  1  0  0  0  0
 14 15  1  0  0  0  0
 14 34  1  0  0  0  0
 15 16  2  3  0  0  0
 15 35  1  0  0  0  0
 16 17  1  0  0  0  0
 16 36  1  0  0  0  0
 17 18  2  3  0  0  0
 17 37  1  0  0  0  0
 18 19  1  0  0  0  0
 18 38  1  0  0  0  0
 19 20  2  3  0  0  0
 19 39  1  0  0  0  0
 20 40  1  0  0  0  0
M  END
$$$$
