
 OpenBabel04232216573D

 94 93  0  0  0  0  0  0  0  0999 V2000
   12.3973   14.7070    2.9645 C   0  0  0  0  0  0  0  0  0  0  0  0
   11.6455   13.8182    4.3452 S   0  0  0  0  0  0  0  0  0  0  0  0
   12.1833   12.0929    3.9777 C   0  0  0  0  0  0  0  0  0  0  0  0
   11.6235   11.1640    5.0731 C   0  0  0  0  0  0  0  0  0  0  0  0
   12.0403    9.7717    4.8159 N   0  0  0  0  0  0  0  0  0  0  0  0
   11.4967    8.9293    5.8766 N   0  0  0  0  0  0  0  0  0  0  0  0
   11.8576    7.5176    5.6885 N   0  0  0  0  0  0  0  0  0  0  0  0
   11.3034    6.6651    6.7474 N   0  0  0  0  0  0  0  0  0  0  0  0
   11.6894    5.2522    6.5830 N   0  0  0  0  0  0  0  0  0  0  0  0
   11.0178    4.3937    7.8635 S   0  0  0  0  0  0  0  0  0  0  0  0
   11.6697    2.4906    7.4518 S   0  0  0  0  0  0  0  0  0  0  0  0
   13.7364    2.4763    7.4804 S   0  0  0  0  0  0  0  0  0  0  0  0
   14.4097    3.0249    9.3619 S   0  0  0  0  0  0  0  0  0  0  0  0
   16.5091    3.0373    9.3141 S   0  0  0  0  0  0  0  0  0  0  0  0
   17.2057    3.6599   11.2007 S   0  0  0  0  0  0  0  0  0  0  0  0
   19.3146    3.6541   11.1852 S   0  0  0  0  0  0  0  0  0  0  0  0
   20.0061    4.2794   13.0784 S   0  0  0  0  0  0  0  0  0  0  0  0
   22.1159    4.2756   13.0668 S   0  0  0  0  0  0  0  0  0  0  0  0
   22.8062    4.9006   14.9600 S   0  0  0  0  0  0  0  0  0  0  0  0
   24.9158    4.8970   14.9488 S   0  0  0  0  0  0  0  0  0  0  0  0
   25.6052    5.5222   16.8420 S   0  0  0  0  0  0  0  0  0  0  0  0
   27.7143    5.5173   16.8306 S   0  0  0  0  0  0  0  0  0  0  0  0
   28.4060    6.1430   18.7224 S   0  0  0  0  0  0  0  0  0  0  0  0
   30.5155    6.1384   18.7086 S   0  0  0  0  0  0  0  0  0  0  0  0
   31.2072    6.7671   20.5996 S   0  0  0  0  0  0  0  0  0  0  0  0
   33.3165    6.7600   20.5878 S   0  0  0  0  0  0  0  0  0  0  0  0
   34.0072    7.3861   22.4803 S   0  0  0  0  0  0  0  0  0  0  0  0
   36.1167    7.3819   22.4674 S   0  0  0  0  0  0  0  0  0  0  0  0
   36.8074    8.0078   24.3597 S   0  0  0  0  0  0  0  0  0  0  0  0
   38.9167    8.0036   24.3471 S   0  0  0  0  0  0  0  0  0  0  0  0
   39.6074    8.6296   26.2394 S   0  0  0  0  0  0  0  0  0  0  0  0
   41.7167    8.6254   26.2268 S   0  0  0  0  0  0  0  0  0  0  0  0
   42.4074    9.2514   28.1191 S   0  0  0  0  0  0  0  0  0  0  0  0
   44.5167    9.2472   28.1065 S   0  0  0  0  0  0  0  0  0  0  0  0
   45.2074    9.8731   29.9988 S   0  0  0  0  0  0  0  0  0  0  0  0
   47.3167    9.8690   29.9863 S   0  0  0  0  0  0  0  0  0  0  0  0
   48.0073   10.4949   31.8786 S   0  0  0  0  0  0  0  0  0  0  0  0
   50.1167   10.4908   31.8660 S   0  0  0  0  0  0  0  0  0  0  0  0
   50.8073   11.1167   33.7583 S   0  0  0  0  0  0  0  0  0  0  0  0
   52.9167   11.1125   33.7457 S   0  0  0  0  0  0  0  0  0  0  0  0
   53.6073   11.7385   35.6380 S   0  0  0  0  0  0  0  0  0  0  0  0
   55.7167   11.7343   35.6255 S   0  0  0  0  0  0  0  0  0  0  0  0
   56.4073   12.3603   37.5178 S   0  0  0  0  0  0  0  0  0  0  0  0
   58.5167   12.3561   37.5052 S   0  0  0  0  0  0  0  0  0  0  0  0
   59.2073   12.9820   39.3975 S   0  0  0  0  0  0  0  0  0  0  0  0
   61.3167   12.9779   39.3849 S   0  0  0  0  0  0  0  0  0  0  0  0
   62.0073   13.6038   41.2773 S   0  0  0  0  0  0  0  0  0  0  0  0
   64.1167   13.5997   41.2647 S   0  0  0  0  0  0  0  0  0  0  0  0
   64.8073   14.2256   43.1570 S   0  0  0  0  0  0  0  0  0  0  0  0
   66.9167   14.2214   43.1444 S   0  0  0  0  0  0  0  0  0  0  0  0
   67.6073   14.8474   45.0367 S   0  0  0  0  0  0  0  0  0  0  0  0
   69.7167   14.8432   45.0241 S   0  0  0  0  0  0  0  0  0  0  0  0
   70.4073   15.4692   46.9165 S   0  0  0  0  0  0  0  0  0  0  0  0
   72.5167   15.4650   46.9039 S   0  0  0  0  0  0  0  0  0  0  0  0
   73.2073   16.0909   48.7962 S   0  0  0  0  0  0  0  0  0  0  0  0
   75.3166   16.0868   48.7836 S   0  0  0  0  0  0  0  0  0  0  0  0
   76.0073   16.7127   50.6759 S   0  0  0  0  0  0  0  0  0  0  0  0
   78.1166   16.7086   50.6633 S   0  0  0  0  0  0  0  0  0  0  0  0
   78.8073   17.3345   52.5557 S   0  0  0  0  0  0  0  0  0  0  0  0
   80.9166   17.3303   52.5431 S   0  0  0  0  0  0  0  0  0  0  0  0
   81.6073   17.9563   54.4354 S   0  0  0  0  0  0  0  0  0  0  0  0
   83.7166   17.9521   54.4228 S   0  0  0  0  0  0  0  0  0  0  0  0
   84.4072   18.5781   56.3151 S   0  0  0  0  0  0  0  0  0  0  0  0
   86.5166   18.5739   56.3025 S   0  0  0  0  0  0  0  0  0  0  0  0
   87.2072   19.1998   58.1949 S   0  0  0  0  0  0  0  0  0  0  0  0
   89.3166   19.1957   58.1823 S   0  0  0  0  0  0  0  0  0  0  0  0
   90.0072   19.8216   60.0746 S   0  0  0  0  0  0  0  0  0  0  0  0
   92.1166   19.8175   60.0620 S   0  0  0  0  0  0  0  0  0  0  0  0
   92.8072   20.4434   61.9543 S   0  0  0  0  0  0  0  0  0  0  0  0
   94.9165   20.4392   61.9416 S   0  0  0  0  0  0  0  0  0  0  0  0
   95.6069   21.0651   63.8338 S   0  0  0  0  0  0  0  0  0  0  0  0
   97.7158   21.0609   63.8210 S   0  0  0  0  0  0  0  0  0  0  0  0
   98.4055   21.6866   65.7127 S   0  0  0  0  0  0  0  0  0  0  0  0
  100.5129   21.6820   65.6988 S   0  0  0  0  0  0  0  0  0  0  0  0
  101.2002   22.3073   67.5888 S   0  0  0  0  0  0  0  0  0  0  0  0
  103.3029   22.3007   67.5706 S   0  0  0  0  0  0  0  0  0  0  0  0
  103.9818   22.9245   69.4552 S   0  0  0  0  0  0  0  0  0  0  0  0
  106.0698   22.9366   69.4124 S   0  0  0  0  0  0  0  0  0  0  0  0
  106.7392   23.4856   71.3019 S   0  0  0  0  0  0  0  0  0  0  0  0
  108.8120   23.5279   71.2337 S   0  0  0  0  0  0  0  0  0  0  0  0
  109.4047   21.5845   70.9109 S   0  0  0  0  0  0  0  0  0  0  0  0
   12.1377   15.7616    3.0792 H   0  0  0  0  0  0  0  0  0  0  0  0
   12.0013   14.3599    2.0050 H   0  0  0  0  0  0  0  0  0  0  0  0
   13.4847   14.6165    2.9784 H   0  0  0  0  0  0  0  0  0  0  0  0
   13.2791   12.0428    3.9568 H   0  0  0  0  0  0  0  0  0  0  0  0
   11.8009   11.7854    2.9936 H   0  0  0  0  0  0  0  0  0  0  0  0
   10.5330   11.2353    5.0912 H   0  0  0  0  0  0  0  0  0  0  0  0
   12.0082   11.4866    6.0521 H   0  0  0  0  0  0  0  0  0  0  0  0
   13.0598    9.7647    4.7994 H   0  0  0  0  0  0  0  0  0  0  0  0
   10.4700    9.0485    5.8686 H   0  0  0  0  0  0  0  0  0  0  0  0
   12.8797    7.4593    5.7063 H   0  0  0  0  0  0  0  0  0  0  0  0
   10.2934    6.7138    6.7488 H   0  0  0  0  0  0  0  0  0  0  0  0
   12.6690    5.1211    6.6347 H   0  0  0  0  0  0  0  0  0  0  0  0
  110.7492   21.7031   70.8978 H   0  0  0  0  0  0  0  0  0  0  0  0
  1  2  1  0  0  0  0
  1 82  1  0  0  0  0
  1 83  1  0  0  0  0
  1 84  1  0  0  0  0
  2  3  1  0  0  0  0
  3  4  1  0  0  0  0
  3 85  1  0  0  0  0
  3 86  1  0  0  0  0
  4  5  1  0  0  0  0
  4 87  1  0  0  0  0
  4 88  1  0  0  0  0
  5  6  1  0  0  0  0
  5 89  1  0  0  0  0
  6  7  1  0  0  0  0
  6 90  1  0  0  0  0
  7  8  1  0  0  0  0
  7 91  1  0  0  0  0
  8  9  1  0  0  0  0
  8 92  1  0  0  0  0
  9 10  1  0  0  0  0
  9 93  1  0  0  0  0
 10 11  1  0  0  0  0
 11 12  1  0  0  0  0
 12 13  1  0  0  0  0
 13 14  1  0  0  0  0
 14 15  1  0  0  0  0
 15 16  1  0  0  0  0
 16 17  1  0  0  0  0
 17 18  1  0  0  0  0
 18 19  1  0  0  0  0
 19 20  1  0  0  0  0
 20 21  1  0  0  0  0
 21 22  1  0  0  0  0
 22 23  1  0  0  0  0
 23 24  1  0  0  0  0
 24 25  1  0  0  0  0
 25 26  1  0  0  0  0
 26 27  1  0  0  0  0
 27 28  1  0  0  0  0
 28 29  1  0  0  0  0
 29 30  1  0  0  0  0
 30 31  1  0  0  0  0
 31 32  1  0  0  0  0
 32 33  1  0  0  0  0
 33 34  1  0  0  0  0
 34 35  1  0  0  0  0
 35 36  1  0  0  0  0
 36 37  1  0  0  0  0
 37 38  1  0  0  0  0
 38 39  1  0  0  0  0
 39 40  1  0  0  0  0
 40 41  1  0  0  0  0
 41 42  1  0  0  0  0
 42 43  1  0  0  0  0
 43 44  1  0  0  0  0
 44 45  1  0  0  0  0
 45 46  1  0  0  0  0
 46 47  1  0  0  0  0
 47 48  1  0  0  0  0
 48 49  1  0  0  0  0
 49 50  1  0  0  0  0
 50 51  1  0  0  0  0
 51 52  1  0  0  0  0
 52 53  1  0  0  0  0
 53 54  1  0  0  0  0
 54 55  1  0  0  0  0
 55 56  1  0  0  0  0
 56 57  1  0  0  0  0
 57 58  1  0  0  0  0
 58 59  1  0  0  0  0
 59 60  1  0  0  0  0
 60 61  1  0  0  0  0
 61 62  1  0  0  0  0
 62 63  1  0  0  0  0
 63 64  1  0  0  0  0
 64 65  1  0  0  0  0
 65 66  1  0  0  0  0
 66 67  1  0  0  0  0
 67 68  1  0  0  0  0
 68 69  1  0  0  0  0
 69 70  1  0  0  0  0
 70 71  1  0  0  0  0
 71 72  1  0  0  0  0
 72 73  1  0  0  0  0
 73 74  1  0  0  0  0
 74 75  1  0  0  0  0
 75 76  1  0  0  0  0
 76 77  1  0  0  0  0
 77 78  1  0  0  0  0
 78 79  1  0  0  0  0
 79 80  1  0  0  0  0
 80 81  1  0  0  0  0
 81 94  1  0  0  0  0
M  END
$$$$
