
 OpenBabel04232216473D

 38 40  0  0  0  0  0  0  0  0999 V2000
    3.3705   -1.3938    1.2822 C   0  0  0  0  0  0  0  0  0  0  0  0
    4.4991   -0.4849    1.7128 C   0  0  0  0  0  0  0  0  0  0  0  0
    4.2630    0.8145    1.4729 C   0  0  0  0  0  0  0  0  0  0  0  0
    5.4276    1.5907    1.0092 C   0  0  0  0  0  0  0  0  0  0  0  0
    5.4559    1.8542   -0.3549 N   0  0  0  0  0  0  0  0  0  0  0  0
    6.5740    2.5351   -0.8643 N   0  0  0  0  0  0  0  0  0  0  0  0
    7.5194    1.6345   -1.5387 C   0  0  0  0  0  0  0  0  0  0  0  0
    8.4203    2.5473   -2.3572 C   0  0  0  0  0  0  0  0  0  0  0  0
    6.4008    1.9414    1.8044 N   0  0  0  0  0  0  0  0  0  0  0  0
    6.5578    1.0859    2.8945 N   0  0  0  0  0  0  0  0  0  0  0  0
    7.4307    1.6982    3.7760 N   0  0  0  0  0  0  0  0  0  0  0  0
    7.7381    0.9687    4.7364 N   0  0  0  0  0  0  0  0  0  0  0  0
    9.1223    0.8385    4.6991 C   0  0  0  0  0  0  0  0  0  0  0  0
    9.8823    1.5392    5.3658 O   0  0  0  0  0  0  0  0  0  0  0  0
    9.4969   -0.1634    3.7814 N   0  0  0  0  0  0  0  0  0  0  0  0
   10.6244    0.0296    2.9807 C   0  0  0  0  0  0  0  0  0  0  0  0
   11.1012   -0.6390    1.8724 C   0  0  0  0  0  0  0  0  0  0  0  0
   12.2618    0.0478    1.4349 C   0  0  0  0  0  0  0  0  0  0  0  0
   12.4427    1.0881    2.3160 C   0  0  0  0  0  0  0  0  0  0  0  0
   11.4482    1.0849    3.2432 O   0  0  0  0  0  0  0  0  0  0  0  0
    8.5159   -1.0786    3.4733 N   0  0  0  0  0  0  0  0  0  0  0  0
    7.9722   -0.8651    2.3761 N   0  0  0  0  0  0  0  0  0  0  0  0
    6.6983   -0.2980    2.4871 C   0  0  0  0  0  0  0  0  0  0  0  0
    5.7418   -1.0485    1.9345 N   0  0  0  0  0  0  0  0  0  0  0  0
    2.5412   -1.3935    1.9945 H   0  0  0  0  0  0  0  0  0  0  0  0
    3.7104   -2.4177    1.1060 H   0  0  0  0  0  0  0  0  0  0  0  0
    2.9733   -1.0417    0.3163 H   0  0  0  0  0  0  0  0  0  0  0  0
    3.2873    1.2097    1.2175 H   0  0  0  0  0  0  0  0  0  0  0  0
    5.0316    1.1405   -0.9392 H   0  0  0  0  0  0  0  0  0  0  0  0
    7.0644    2.9905   -0.0869 H   0  0  0  0  0  0  0  0  0  0  0  0
    7.0190    0.9261   -2.2097 H   0  0  0  0  0  0  0  0  0  0  0  0
    8.1121    1.0591   -0.8160 H   0  0  0  0  0  0  0  0  0  0  0  0
    7.8415    3.0533   -3.1389 H   0  0  0  0  0  0  0  0  0  0  0  0
    9.2242    1.9819   -2.8435 H   0  0  0  0  0  0  0  0  0  0  0  0
    8.8801    3.3175   -1.7281 H   0  0  0  0  0  0  0  0  0  0  0  0
   10.6475   -1.5097    1.4114 H   0  0  0  0  0  0  0  0  0  0  0  0
   12.8915   -0.1800    0.5872 H   0  0  0  0  0  0  0  0  0  0  0  0
   13.1721    1.8798    2.4108 H   0  0  0  0  0  0  0  0  0  0  0  0
  1  2  1  0  0  0  0
  1 25  1  0  0  0  0
  1 26  1  0  0  0  0
  1 27  1  0  0  0  0
  2  3  2  0  0  0  0
  2 24  1  0  0  0  0
  3  4  1  0  0  0  0
  3 28  1  0  0  0  0
  4  5  1  0  0  0  0
  4  9  2  0  0  0  0
  5  6  1  0  0  0  0
  5 29  1  0  0  0  0
  6  7  1  0  0  0  0
  6 30  1  0  0  0  0
  7  8  1  0  0  0  0
  7 31  1  0  0  0  0
  7 32  1  0  0  0  0
  8 33  1  0  0  0  0
  8 34  1  0  0  0  0
  8 35  1  0  0  0  0
  9 10  1  0  0  0  0
 10 11  1  0  0  0  0
 10 23  1  0  0  0  0
 11 12  2  0  0  0  0
 12 13  1  0  0  0  0
 13 14  2  0  0  0  0
 13 15  1  0  0  0  0
 15 16  1  0  0  0  0
 15 21  1  0  0  0  0
 16 17  2  0  0  0  0
 16 20  1  0  0  0  0
 17 18  1  0  0  0  0
 17 36  1  0  0  0  0
 18 19  2  0  0  0  0
 18 37  1  0  0  0  0
 19 20  1  0  0  0  0
 19 38  1  0  0  0  0
 21 22  2  0  0  0  0
 22 23  1  0  0  0  0
 23 24  2  0  0  0  0
M  END
$$$$
