
 OpenBabel04232216463D

 44 45  0  0  0  0  0  0  0  0999 V2000
    1.2413   -0.6421    1.6730 C   0  0  0  0  0  0  0  0  0  0  0  0
    2.6483   -1.2749    3.2348 C   0  0  0  0  0  0  0  0  0  0  0  0
    3.6699   -0.6059    1.8591 C   0  0  0  0  0  0  0  0  0  0  0  0
    4.8853   -0.5144    1.4467 C   0  0  0  0  0  0  0  0  0  0  0  0
    5.4543   -0.0651    0.0305 C   0  0  0  0  0  0  0  0  0  0  0  0
    6.2532   -0.9922   -0.7215 O   0  0  0  0  0  0  0  0  0  0  0  0
    5.5995   -0.8279    2.5172 N   0  0  0  0  0  0  0  0  0  0  0  0
    6.8539   -0.8031    2.4359 C   0  0  0  0  0  0  0  0  0  0  0  0
    7.5166   -0.4636    1.3454 F   0  0  0  0  0  0  0  0  0  0  0  0
    7.5654   -1.1666    3.6435 C   0  0  0  0  0  0  0  0  0  0  0  0
    8.8906   -1.1740    3.6666 C   0  0  0  0  0  0  0  0  0  0  0  0
    9.6057   -1.5338    4.8425 C   0  0  0  0  0  0  0  0  0  0  0  0
    8.7825   -1.8911    6.0102 C   0  0  0  0  0  0  0  0  0  0  0  0
   10.9403   -1.5580    4.9215 C   0  0  0  0  0  0  0  0  0  0  0  0
   11.6188   -1.9167    6.0940 C   0  0  0  0  0  0  0  0  0  0  0  0
   12.8076   -2.0428    6.5063 C   0  0  0  0  0  0  0  0  0  0  0  0
   11.4798   -2.3543    7.5242 C   0  0  0  0  0  0  0  0  0  0  0  0
   10.1743   -2.4096    7.7083 N   0  0  0  0  0  0  0  0  0  0  0  0
    9.2752   -2.7483    8.8152 N   0  0  0  0  0  0  0  0  0  0  0  0
    7.9557   -2.7119    8.6958 C   0  0  0  0  0  0  0  0  0  0  0  0
    7.0816   -3.0970    9.8701 C   0  0  0  0  0  0  0  0  0  0  0  0
    5.7247   -3.0728    9.4703 C   0  0  0  0  0  0  0  0  0  0  0  0
    4.4184   -2.8948    8.1026 C   0  0  0  0  0  0  0  0  0  0  0  0
    3.7359   -2.0423    6.6991 C   0  0  0  0  0  0  0  0  0  0  0  0
    3.0214   -1.7321    4.9223 N   0  0  0  0  0  0  0  0  0  0  0  0
    0.2165   -0.5205    1.5509 H   0  0  0  0  0  0  0  0  0  0  0  0
    1.3430   -0.9455    0.3405 H   0  0  0  0  0  0  0  0  0  0  0  0
    1.3690    0.4423    0.8085 H   0  0  0  0  0  0  0  0  0  0  0  0
    2.7332   -0.6821    2.2011 H   0  0  0  0  0  0  0  0  0  0  0  0
    6.0729    0.8373    0.1501 H   0  0  0  0  0  0  0  0  0  0  0  0
    4.6259    0.1953   -0.6472 H   0  0  0  0  0  0  0  0  0  0  0  0
    7.0690   -1.1793   -0.2313 H   0  0  0  0  0  0  0  0  0  0  0  0
    6.9230   -1.4212    4.4749 H   0  0  0  0  0  0  0  0  0  0  0  0
    9.4475   -0.9043    2.7860 H   0  0  0  0  0  0  0  0  0  0  0  0
    7.7150   -1.8809    5.9770 H   0  0  0  0  0  0  0  0  0  0  0  0
    8.9738   -1.1203    6.7876 H   0  0  0  0  0  0  0  0  0  0  0  0
    8.9739   -2.9649    6.2233 H   0  0  0  0  0  0  0  0  0  0  0  0
   11.5494   -1.2948    4.0616 H   0  0  0  0  0  0  0  0  0  0  0  0
   13.8284   -1.9281    6.1312 H   0  0  0  0  0  0  0  0  0  0  0  0
    7.2759   -2.4454    7.8169 H   0  0  0  0  0  0  0  0  0  0  0  0
    7.7084   -3.3802   10.8460 H   0  0  0  0  0  0  0  0  0  0  0  0
    5.7479   -2.5191    8.5645 H   0  0  0  0  0  0  0  0  0  0  0  0
    4.3700   -2.8905    9.6732 H   0  0  0  0  0  0  0  0  0  0  0  0
    2.9400   -2.3426    7.7599 H   0  0  0  0  0  0  0  0  0  0  0  0
  1  2  1  0  0  0  0
  1 26  1  0  0  0  0
  1 27  1  0  0  0  0
  1 28  1  0  0  0  0
  2  3  1  0  0  0  0
  2 25  2  3  0  0  0
  3  4  2  3  0  0  0
  3 29  1  0  0  0  0
  4  5  1  0  0  0  0
  4  7  1  0  0  0  0
  5  6  1  0  0  0  0
  5 30  1  0  0  0  0
  5 31  1  0  0  0  0
  6 32  1  0  0  0  0
  7  8  2  3  0  0  0
  8  9  1  0  0  0  0
  8 10  1  0  0  0  0
 10 11  2  3  0  0  0
 10 33  1  0  0  0  0
 11 12  1  0  0  0  0
 11 34  1  0  0  0  0
 12 13  1  0  0  0  0
 12 14  2  3  0  0  0
 13 35  1  0  0  0  0
 13 36  1  0  0  0  0
 13 37  1  0  0  0  0
 14 15  1  0  0  0  0
 14 38  1  0  0  0  0
 15 16  2  0  0  0  0
 15 17  1  0  0  0  0
 16 17  1  0  0  0  0
 16 39  1  0  0  0  0
 17 18  2  3  0  0  0
 18 19  1  0  0  0  0
 19 20  2  3  0  0  0
 20 21  1  0  0  0  0
 20 40  1  0  0  0  0
 21 22  2  3  0  0  0
 21 41  1  0  0  0  0
 22 23  1  0  0  0  0
 22 42  1  0  0  0  0
 23 24  2  3  0  0  0
 23 43  1  0  0  0  0
 24 25  1  0  0  0  0
 24 44  1  0  0  0  0
M  END
$$$$
