
 OpenBabel04232216423D

 43 46  0  0  0  0  0  0  0  0999 V2000
   -1.5567   -0.0648    4.2020 C   0  0  0  0  0  0  0  0  0  0  0  0
   -2.5691   -0.9416    3.8115 C   0  0  0  0  0  0  0  0  0  0  0  0
   -3.2597   -0.7472    2.6075 C   0  0  0  0  0  0  0  0  0  0  0  0
   -2.9529    0.3353    1.7794 C   0  0  0  0  0  0  0  0  0  0  0  0
   -3.6560    0.6321    0.4664 C   0  0  0  0  0  0  0  0  0  0  0  0
   -4.6018   -0.3498   -0.0542 N   0  0  0  0  0  0  0  0  0  0  0  0
   -5.1536   -0.2228   -1.2363 C   0  0  0  0  0  0  0  0  0  0  0  0
   -5.2846    0.9361   -2.2121 C   0  0  0  0  0  0  0  0  0  0  0  0
   -6.0360   -1.1858   -0.8590 C   0  0  0  0  0  0  0  0  0  0  0  0
   -7.1694   -1.6757   -1.5199 N   0  0  0  0  0  0  0  0  0  0  0  0
   -7.6027   -2.8777   -1.2668 C   0  0  0  0  0  0  0  0  0  0  0  0
   -6.8062   -4.0885   -0.8905 C   0  0  0  0  0  0  0  0  0  0  0  0
   -7.3399   -5.3145   -1.0445 C   0  0  0  0  0  0  0  0  0  0  0  0
   -8.6871   -5.5291   -1.5381 C   0  0  0  0  0  0  0  0  0  0  0  0
   -9.5306   -4.5018   -1.7202 C   0  0  0  0  0  0  0  0  0  0  0  0
   -9.0951   -3.1567   -1.3847 C   0  0  0  0  0  0  0  0  0  0  0  0
   -9.9597   -2.2416   -0.8911 C   0  0  0  0  0  0  0  0  0  0  0  0
   -9.4628   -1.1918   -0.0107 C   0  0  0  0  0  0  0  0  0  0  0  0
   -9.0597    0.0239   -0.3936 C   0  0  0  0  0  0  0  0  0  0  0  0
   -8.1135    0.7568    0.4320 C   0  0  0  0  0  0  0  0  0  0  0  0
   -6.8500    0.3987    0.7710 C   0  0  0  0  0  0  0  0  0  0  0  0
   -5.9337   -0.6405    0.3651 N   0  0  0  0  0  0  0  0  0  0  0  0
   -1.9078    1.1994    2.1805 C   0  0  0  0  0  0  0  0  0  0  0  0
   -1.2179    1.0040    3.3805 C   0  0  0  0  0  0  0  0  0  0  0  0
   -1.0276   -0.2235    5.1385 H   0  0  0  0  0  0  0  0  0  0  0  0
   -2.8190   -1.7879    4.4461 H   0  0  0  0  0  0  0  0  0  0  0  0
   -4.0311   -1.4576    2.3209 H   0  0  0  0  0  0  0  0  0  0  0  0
   -2.8376    0.6618   -0.2717 H   0  0  0  0  0  0  0  0  0  0  0  0
   -4.0903    1.6369    0.4988 H   0  0  0  0  0  0  0  0  0  0  0  0
   -4.3331    1.1997   -2.6734 H   0  0  0  0  0  0  0  0  0  0  0  0
   -5.5216    1.8270   -1.6028 H   0  0  0  0  0  0  0  0  0  0  0  0
   -6.0959    0.8099   -2.9294 H   0  0  0  0  0  0  0  0  0  0  0  0
   -5.7789   -3.9486   -0.5806 H   0  0  0  0  0  0  0  0  0  0  0  0
   -6.7512   -6.2024   -0.8241 H   0  0  0  0  0  0  0  0  0  0  0  0
   -9.0128   -6.5545   -1.7043 H   0  0  0  0  0  0  0  0  0  0  0  0
  -10.5652   -4.6797   -2.0062 H   0  0  0  0  0  0  0  0  0  0  0  0
  -11.0304   -2.4246   -0.8694 H   0  0  0  0  0  0  0  0  0  0  0  0
   -9.1235   -1.5723    0.9531 H   0  0  0  0  0  0  0  0  0  0  0  0
   -9.3133    0.4321   -1.3703 H   0  0  0  0  0  0  0  0  0  0  0  0
   -8.4866    1.7244    0.7626 H   0  0  0  0  0  0  0  0  0  0  0  0
   -6.3012    1.1004    1.3927 H   0  0  0  0  0  0  0  0  0  0  0  0
   -1.6135    2.0346    1.5466 H   0  0  0  0  0  0  0  0  0  0  0  0
   -0.4166    1.6804    3.6693 H   0  0  0  0  0  0  0  0  0  0  0  0
  1  2  1  0  0  0  0
  1 24  2  0  0  0  0
  1 25  1  0  0  0  0
  2  3  2  0  0  0  0
  2 26  1  0  0  0  0
  3  4  1  0  0  0  0
  3 27  1  0  0  0  0
  4  5  1  0  0  0  0
  4 23  2  0  0  0  0
  5  6  1  0  0  0  0
  5 28  1  0  0  0  0
  5 29  1  0  0  0  0
  6  7  1  0  0  0  0
  6 22  1  0  0  0  0
  7  8  1  0  0  0  0
  7  9  2  0  0  0  0
  8 30  1  0  0  0  0
  8 31  1  0  0  0  0
  8 32  1  0  0  0  0
  9 10  1  0  0  0  0
  9 22  1  0  0  0  0
 10 11  2  0  0  0  0
 11 12  1  0  0  0  0
 11 16  1  0  0  0  0
 12 13  2  0  0  0  0
 12 33  1  0  0  0  0
 13 14  1  0  0  0  0
 13 34  1  0  0  0  0
 14 15  2  0  0  0  0
 14 35  1  0  0  0  0
 15 16  1  0  0  0  0
 15 36  1  0  0  0  0
 16 17  2  0  0  0  0
 17 18  1  0  0  0  0
 17 37  1  0  0  0  0
 18 19  2  0  0  0  0
 18 38  1  0  0  0  0
 19 20  1  0  0  0  0
 19 39  1  0  0  0  0
 20 21  2  0  0  0  0
 20 40  1  0  0  0  0
 21 22  1  0  0  0  0
 21 41  1  0  0  0  0
 23 24  1  0  0  0  0
 23 42  1  0  0  0  0
 24 43  1  0  0  0  0
M  END
$$$$
