
 OpenBabel04232216403D

224223  0  0  0  0  0  0  0  0999 V2000
   12.0119   -4.9203    7.2777 C   0  0  0  0  0  0  0  0  0  0  0  0
   11.3827   -3.7694    7.0184 C   0  0  0  0  0  0  0  0  0  0  0  0
   12.1353   -2.5117    6.7248 C   0  0  0  0  0  0  0  0  0  0  0  0
   11.7867   -1.9821    5.3426 C   0  0  0  0  0  0  0  0  0  0  0  0
   12.5618   -0.7044    5.0601 C   0  0  0  0  0  0  0  0  0  0  0  0
   12.2130   -0.1742    3.6793 C   0  0  0  0  0  0  0  0  0  0  0  0
   12.9859    1.1055    3.3948 C   0  0  0  0  0  0  0  0  0  0  0  0
   12.6367    1.6343    2.0098 C   0  0  0  0  0  0  0  0  0  0  0  0
   13.3914    2.8596    1.7661 N   0  0  0  0  0  0  0  0  0  0  0  0
   13.0537    3.3412    0.4719 N   0  0  0  0  0  0  0  0  0  0  0  0
   13.7693    4.5283    0.2051 N   0  0  0  0  0  0  0  0  0  0  0  0
   13.4394    5.0126   -1.0826 N   0  0  0  0  0  0  0  0  0  0  0  0
   14.1622    6.2082   -1.3502 N   0  0  0  0  0  0  0  0  0  0  0  0
   15.5670    5.9835   -1.3036 N   0  0  0  0  0  0  0  0  0  0  0  0
   16.2467    7.1745   -1.5660 N   0  0  0  0  0  0  0  0  0  0  0  0
   17.6380    6.9161   -1.5093 N   0  0  0  0  0  0  0  0  0  0  0  0
   18.3750    8.1044   -1.7739 N   0  0  0  0  0  0  0  0  0  0  0  0
   19.7792    7.8674   -1.7181 N   0  0  0  0  0  0  0  0  0  0  0  0
   20.4860    9.0628   -1.9851 N   0  0  0  0  0  0  0  0  0  0  0  0
   21.8752    8.8145   -1.9298 N   0  0  0  0  0  0  0  0  0  0  0  0
   22.5794   10.0036   -2.1924 N   0  0  0  0  0  0  0  0  0  0  0  0
   23.9747    9.7618   -2.1417 N   0  0  0  0  0  0  0  0  0  0  0  0
   24.6929   10.9560   -2.4087 N   0  0  0  0  0  0  0  0  0  0  0  0
   26.0956   10.6987   -2.3508 N   0  0  0  0  0  0  0  0  0  0  0  0
   26.8121   11.9427   -2.6294 C   0  0  0  0  0  0  0  0  0  0  0  0
   28.3046   11.6710   -2.5707 C   0  0  0  0  0  0  0  0  0  0  0  0
   29.0710   12.9514   -2.8569 C   0  0  0  0  0  0  0  0  0  0  0  0
   30.5639   12.6879   -2.8001 C   0  0  0  0  0  0  0  0  0  0  0  0
   31.3272   13.9673   -3.0862 C   0  0  0  0  0  0  0  0  0  0  0  0
   32.8194   13.7021   -3.0290 C   0  0  0  0  0  0  0  0  0  0  0  0
   33.5824   14.9810   -3.3150 C   0  0  0  0  0  0  0  0  0  0  0  0
   35.0742   14.7153   -3.2577 C   0  0  0  0  0  0  0  0  0  0  0  0
   35.8370   15.9947   -3.5417 C   0  0  0  0  0  0  0  0  0  0  0  0
   37.3287   15.7289   -3.4843 C   0  0  0  0  0  0  0  0  0  0  0  0
   38.0914   17.0083   -3.7684 C   0  0  0  0  0  0  0  0  0  0  0  0
   39.5832   16.7425   -3.7110 C   0  0  0  0  0  0  0  0  0  0  0  0
   40.3459   18.0214   -3.9970 C   0  0  0  0  0  0  0  0  0  0  0  0
   41.8376   17.7561   -3.9377 C   0  0  0  0  0  0  0  0  0  0  0  0
   42.6003   19.0354   -4.2217 C   0  0  0  0  0  0  0  0  0  0  0  0
   44.0920   18.7705   -4.1604 C   0  0  0  0  0  0  0  0  0  0  0  0
   44.8547   20.0494   -4.4465 C   0  0  0  0  0  0  0  0  0  0  0  0
   46.3464   19.7841   -4.3871 C   0  0  0  0  0  0  0  0  0  0  0  0
   47.1091   21.0630   -4.6731 C   0  0  0  0  0  0  0  0  0  0  0  0
   48.6008   20.7976   -4.6138 C   0  0  0  0  0  0  0  0  0  0  0  0
   49.3635   22.0765   -4.8998 C   0  0  0  0  0  0  0  0  0  0  0  0
   50.8552   21.8112   -4.8405 C   0  0  0  0  0  0  0  0  0  0  0  0
   51.6179   23.0901   -5.1265 C   0  0  0  0  0  0  0  0  0  0  0  0
   53.1096   22.8252   -5.0652 C   0  0  0  0  0  0  0  0  0  0  0  0
   53.8723   24.1037   -5.3532 C   0  0  0  0  0  0  0  0  0  0  0  0
   55.3640   23.8392   -5.2899 C   0  0  0  0  0  0  0  0  0  0  0  0
   56.1267   25.1177   -5.5779 C   0  0  0  0  0  0  0  0  0  0  0  0
   57.6184   24.8528   -5.5166 C   0  0  0  0  0  0  0  0  0  0  0  0
   58.3811   26.1317   -5.8026 C   0  0  0  0  0  0  0  0  0  0  0  0
   59.8728   25.8672   -5.7393 C   0  0  0  0  0  0  0  0  0  0  0  0
   60.6355   27.1466   -6.0234 C   0  0  0  0  0  0  0  0  0  0  0  0
   62.1272   26.8826   -5.9581 C   0  0  0  0  0  0  0  0  0  0  0  0
   62.8899   28.1624   -6.2402 C   0  0  0  0  0  0  0  0  0  0  0  0
   64.3816   27.8983   -6.1750 C   0  0  0  0  0  0  0  0  0  0  0  0
   65.1443   29.1786   -6.4551 C   0  0  0  0  0  0  0  0  0  0  0  0
   66.6360   28.9145   -6.3898 C   0  0  0  0  0  0  0  0  0  0  0  0
   67.3986   30.1948   -6.6700 C   0  0  0  0  0  0  0  0  0  0  0  0
   68.8903   29.9308   -6.6047 C   0  0  0  0  0  0  0  0  0  0  0  0
   69.6530   31.2110   -6.8848 C   0  0  0  0  0  0  0  0  0  0  0  0
   71.1447   30.9470   -6.8196 C   0  0  0  0  0  0  0  0  0  0  0  0
   71.9074   32.2272   -7.0997 C   0  0  0  0  0  0  0  0  0  0  0  0
   73.3991   31.9632   -7.0344 C   0  0  0  0  0  0  0  0  0  0  0  0
   74.1618   33.2434   -7.3146 C   0  0  0  0  0  0  0  0  0  0  0  0
   75.6535   32.9794   -7.2493 C   0  0  0  0  0  0  0  0  0  0  0  0
   76.4161   34.2592   -7.5314 C   0  0  0  0  0  0  0  0  0  0  0  0
   77.9078   33.9952   -7.4662 C   0  0  0  0  0  0  0  0  0  0  0  0
   78.6705   35.2749   -7.7482 C   0  0  0  0  0  0  0  0  0  0  0  0
   80.1622   35.0109   -7.6830 C   0  0  0  0  0  0  0  0  0  0  0  0
   80.9249   36.2907   -7.9651 C   0  0  0  0  0  0  0  0  0  0  0  0
   82.4167   36.0267   -7.8998 C   0  0  0  0  0  0  0  0  0  0  0  0
   83.1797   37.3070   -8.1800 C   0  0  0  0  0  0  0  0  0  0  0  0
   84.6719   37.0434   -8.1148 C   0  0  0  0  0  0  0  0  0  0  0  0
   85.4354   38.3245   -8.3951 C   0  0  0  0  0  0  0  0  0  0  0  0
   86.9290   38.0626   -8.3324 C   0  0  0  0  0  0  0  0  0  0  0  0
   87.6992   39.3431   -8.6105 C   0  0  0  0  0  0  0  0  0  0  0  0
   89.1886   39.0778   -8.5470 C   0  0  0  0  0  0  0  0  0  0  0  0
   11.4519   -5.8219    7.4879 H   0  0  0  0  0  0  0  0  0  0  0  0
   13.0965   -4.9722    7.2812 H   0  0  0  0  0  0  0  0  0  0  0  0
   10.2953   -3.7413    7.0195 H   0  0  0  0  0  0  0  0  0  0  0  0
   13.2145   -2.7065    6.7770 H   0  0  0  0  0  0  0  0  0  0  0  0
   11.8934   -1.7532    7.4783 H   0  0  0  0  0  0  0  0  0  0  0  0
   10.7098   -1.7820    5.2782 H   0  0  0  0  0  0  0  0  0  0  0  0
   12.0254   -2.7343    4.5804 H   0  0  0  0  0  0  0  0  0  0  0  0
   13.6389   -0.9023    5.1210 H   0  0  0  0  0  0  0  0  0  0  0  0
   12.3231    0.0504    5.8193 H   0  0  0  0  0  0  0  0  0  0  0  0
   11.1350    0.0196    3.6196 H   0  0  0  0  0  0  0  0  0  0  0  0
   12.4526   -0.9306    2.9219 H   0  0  0  0  0  0  0  0  0  0  0  0
   14.0625    0.9046    3.4628 H   0  0  0  0  0  0  0  0  0  0  0  0
   12.7430    1.8564    4.1575 H   0  0  0  0  0  0  0  0  0  0  0  0
   11.5582    1.8328    1.9645 H   0  0  0  0  0  0  0  0  0  0  0  0
   12.8760    0.8718    1.2577 H   0  0  0  0  0  0  0  0  0  0  0  0
   14.3904    2.6557    1.7895 H   0  0  0  0  0  0  0  0  0  0  0  0
   12.0568    3.5497    0.4324 H   0  0  0  0  0  0  0  0  0  0  0  0
   14.7709    4.3348    0.2389 H   0  0  0  0  0  0  0  0  0  0  0  0
   12.4449    5.2214   -1.1153 H   0  0  0  0  0  0  0  0  0  0  0  0
   13.9186    6.9108   -0.6526 H   0  0  0  0  0  0  0  0  0  0  0  0
   15.8102    5.2772   -1.9950 H   0  0  0  0  0  0  0  0  0  0  0  0
   15.9952    7.8703   -0.8672 H   0  0  0  0  0  0  0  0  0  0  0  0
   17.8069    6.1726   -2.1917 H   0  0  0  0  0  0  0  0  0  0  0  0
   18.1199    8.8040   -1.0663 H   0  0  0  0  0  0  0  0  0  0  0  0
   20.0553    7.1840   -2.4240 H   0  0  0  0  0  0  0  0  0  0  0  0
   20.2406    9.7661   -1.2907 H   0  0  0  0  0  0  0  0  0  0  0  0
   22.1221    8.1179   -2.6329 H   0  0  0  0  0  0  0  0  0  0  0  0
   22.3337   10.6993   -1.4907 H   0  0  0  0  0  0  0  0  0  0  0  0
   24.2154    9.0553   -2.8362 H   0  0  0  0  0  0  0  0  0  0  0  0
   24.4320   11.6430   -1.7009 H   0  0  0  0  0  0  0  0  0  0  0  0
   26.3308   10.0050   -3.0602 H   0  0  0  0  0  0  0  0  0  0  0  0
   26.5502   12.7003   -1.8803 H   0  0  0  0  0  0  0  0  0  0  0  0
   26.5423   12.3297   -3.6197 H   0  0  0  0  0  0  0  0  0  0  0  0
   28.5794   10.9047   -3.3063 H   0  0  0  0  0  0  0  0  0  0  0  0
   28.5809   11.2901   -1.5792 H   0  0  0  0  0  0  0  0  0  0  0  0
   28.8016   13.7205   -2.1225 H   0  0  0  0  0  0  0  0  0  0  0  0
   28.7992   13.3352   -3.8480 H   0  0  0  0  0  0  0  0  0  0  0  0
   30.8352   11.9207   -3.5354 H   0  0  0  0  0  0  0  0  0  0  0  0
   30.8375   12.3053   -1.8093 H   0  0  0  0  0  0  0  0  0  0  0  0
   31.0571   14.7354   -2.3512 H   0  0  0  0  0  0  0  0  0  0  0  0
   31.0549   14.3506   -4.0772 H   0  0  0  0  0  0  0  0  0  0  0  0
   33.0902   12.9343   -3.7641 H   0  0  0  0  0  0  0  0  0  0  0  0
   33.0923   13.3191   -2.0381 H   0  0  0  0  0  0  0  0  0  0  0  0
   33.3120   15.7490   -2.5800 H   0  0  0  0  0  0  0  0  0  0  0  0
   33.3098   15.3642   -4.3060 H   0  0  0  0  0  0  0  0  0  0  0  0
   35.3450   13.9485   -3.9937 H   0  0  0  0  0  0  0  0  0  0  0  0
   35.3467   14.3308   -2.2672 H   0  0  0  0  0  0  0  0  0  0  0  0
   35.5663   16.7615   -2.8056 H   0  0  0  0  0  0  0  0  0  0  0  0
   35.5645   16.3792   -4.5322 H   0  0  0  0  0  0  0  0  0  0  0  0
   37.5995   14.9621   -4.2204 H   0  0  0  0  0  0  0  0  0  0  0  0
   37.6012   15.3444   -2.4939 H   0  0  0  0  0  0  0  0  0  0  0  0
   37.8207   17.7751   -3.0323 H   0  0  0  0  0  0  0  0  0  0  0  0
   37.8190   17.3928   -4.7589 H   0  0  0  0  0  0  0  0  0  0  0  0
   39.8537   15.9746   -4.4461 H   0  0  0  0  0  0  0  0  0  0  0  0
   39.8559   16.3593   -2.7201 H   0  0  0  0  0  0  0  0  0  0  0  0
   40.0742   18.7897   -3.2628 H   0  0  0  0  0  0  0  0  0  0  0  0
   40.0742   18.4038   -4.9886 H   0  0  0  0  0  0  0  0  0  0  0  0
   42.1094   16.9888   -4.6729 H   0  0  0  0  0  0  0  0  0  0  0  0
   42.1090   17.3723   -2.9466 H   0  0  0  0  0  0  0  0  0  0  0  0
   42.3274   19.8032   -3.4874 H   0  0  0  0  0  0  0  0  0  0  0  0
   42.3299   19.4184   -5.2134 H   0  0  0  0  0  0  0  0  0  0  0  0
   44.3647   18.0017   -4.8938 H   0  0  0  0  0  0  0  0  0  0  0  0
   44.3625   18.3889   -3.1683 H   0  0  0  0  0  0  0  0  0  0  0  0
   44.5831   20.8177   -3.7123 H   0  0  0  0  0  0  0  0  0  0  0  0
   44.5831   20.4318   -5.4380 H   0  0  0  0  0  0  0  0  0  0  0  0
   46.6180   19.0157   -5.1213 H   0  0  0  0  0  0  0  0  0  0  0  0
   46.6180   19.4017   -3.3956 H   0  0  0  0  0  0  0  0  0  0  0  0
   46.8375   21.8313   -3.9389 H   0  0  0  0  0  0  0  0  0  0  0  0
   46.8375   21.4454   -5.6647 H   0  0  0  0  0  0  0  0  0  0  0  0
   48.8724   20.0293   -5.3480 H   0  0  0  0  0  0  0  0  0  0  0  0
   48.8724   20.4153   -3.6223 H   0  0  0  0  0  0  0  0  0  0  0  0
   49.0919   22.8449   -4.1656 H   0  0  0  0  0  0  0  0  0  0  0  0
   49.0919   22.4589   -5.8914 H   0  0  0  0  0  0  0  0  0  0  0  0
   51.1268   21.0429   -5.5747 H   0  0  0  0  0  0  0  0  0  0  0  0
   51.1268   21.4288   -3.8489 H   0  0  0  0  0  0  0  0  0  0  0  0
   51.3452   23.8589   -4.3932 H   0  0  0  0  0  0  0  0  0  0  0  0
   51.3474   23.4717   -6.1186 H   0  0  0  0  0  0  0  0  0  0  0  0
   53.3821   22.0554   -5.7975 H   0  0  0  0  0  0  0  0  0  0  0  0
   53.3804   22.4450   -4.0726 H   0  0  0  0  0  0  0  0  0  0  0  0
   53.5988   24.8739   -4.6217 H   0  0  0  0  0  0  0  0  0  0  0  0
   53.6026   24.4831   -6.3464 H   0  0  0  0  0  0  0  0  0  0  0  0
   55.6376   23.0690   -6.0213 H   0  0  0  0  0  0  0  0  0  0  0  0
   55.6337   23.4598   -4.2967 H   0  0  0  0  0  0  0  0  0  0  0  0
   55.8542   25.8875   -4.8456 H   0  0  0  0  0  0  0  0  0  0  0  0
   55.8560   25.4979   -6.5705 H   0  0  0  0  0  0  0  0  0  0  0  0
   57.8911   24.0840   -6.2499 H   0  0  0  0  0  0  0  0  0  0  0  0
   57.8889   24.4712   -4.5244 H   0  0  0  0  0  0  0  0  0  0  0  0
   58.1073   26.9009   -5.0701 H   0  0  0  0  0  0  0  0  0  0  0  0
   58.1117   26.5125   -6.7953 H   0  0  0  0  0  0  0  0  0  0  0  0
   60.1468   25.0990   -6.4728 H   0  0  0  0  0  0  0  0  0  0  0  0
   60.1420   25.4850   -4.7471 H   0  0  0  0  0  0  0  0  0  0  0  0
   60.3604   27.9152   -5.2908 H   0  0  0  0  0  0  0  0  0  0  0  0
   60.3674   27.5280   -7.0162 H   0  0  0  0  0  0  0  0  0  0  0  0
   62.4025   26.1150   -6.6917 H   0  0  0  0  0  0  0  0  0  0  0  0
   62.3951   26.4998   -4.9657 H   0  0  0  0  0  0  0  0  0  0  0  0
   62.6146   28.9300   -5.5066 H   0  0  0  0  0  0  0  0  0  0  0  0
   62.6220   28.5451   -7.2326 H   0  0  0  0  0  0  0  0  0  0  0  0
   64.6571   27.1318   -6.9095 H   0  0  0  0  0  0  0  0  0  0  0  0
   64.6493   27.5142   -5.1830 H   0  0  0  0  0  0  0  0  0  0  0  0
   64.8687   29.9451   -5.7205 H   0  0  0  0  0  0  0  0  0  0  0  0
   64.8766   29.5627   -7.4470 H   0  0  0  0  0  0  0  0  0  0  0  0
   66.9115   28.1480   -7.1244 H   0  0  0  0  0  0  0  0  0  0  0  0
   66.9037   28.5304   -5.3979 H   0  0  0  0  0  0  0  0  0  0  0  0
   67.1231   30.9613   -5.9354 H   0  0  0  0  0  0  0  0  0  0  0  0
   67.1309   30.5789   -7.6619 H   0  0  0  0  0  0  0  0  0  0  0  0
   69.1659   29.1642   -7.3393 H   0  0  0  0  0  0  0  0  0  0  0  0
   69.1580   29.5466   -5.6128 H   0  0  0  0  0  0  0  0  0  0  0  0
   69.3775   31.9776   -6.1502 H   0  0  0  0  0  0  0  0  0  0  0  0
   69.3853   31.5951   -7.8767 H   0  0  0  0  0  0  0  0  0  0  0  0
   71.4202   30.1804   -7.5542 H   0  0  0  0  0  0  0  0  0  0  0  0
   71.4124   30.5628   -5.8277 H   0  0  0  0  0  0  0  0  0  0  0  0
   71.6319   32.9938   -6.3651 H   0  0  0  0  0  0  0  0  0  0  0  0
   71.6397   32.6113   -8.0916 H   0  0  0  0  0  0  0  0  0  0  0  0
   73.6746   31.1966   -7.7690 H   0  0  0  0  0  0  0  0  0  0  0  0
   73.6668   31.5790   -6.0425 H   0  0  0  0  0  0  0  0  0  0  0  0
   73.8862   34.0100   -6.5800 H   0  0  0  0  0  0  0  0  0  0  0  0
   73.8941   33.6275   -8.3065 H   0  0  0  0  0  0  0  0  0  0  0  0
   75.9288   32.2118   -7.9829 H   0  0  0  0  0  0  0  0  0  0  0  0
   75.9214   32.5966   -6.2569 H   0  0  0  0  0  0  0  0  0  0  0  0
   76.1408   35.0268   -6.7978 H   0  0  0  0  0  0  0  0  0  0  0  0
   76.1482   34.6420   -8.5238 H   0  0  0  0  0  0  0  0  0  0  0  0
   78.1831   33.2276   -8.1997 H   0  0  0  0  0  0  0  0  0  0  0  0
   78.1758   33.6124   -6.4738 H   0  0  0  0  0  0  0  0  0  0  0  0
   78.3952   36.0425   -7.0147 H   0  0  0  0  0  0  0  0  0  0  0  0
   78.4026   35.6577   -8.7406 H   0  0  0  0  0  0  0  0  0  0  0  0
   80.4375   34.2433   -8.4166 H   0  0  0  0  0  0  0  0  0  0  0  0
   80.4301   34.6281   -6.6906 H   0  0  0  0  0  0  0  0  0  0  0  0
   80.6496   37.0583   -7.2315 H   0  0  0  0  0  0  0  0  0  0  0  0
   80.6570   36.6735   -8.9575 H   0  0  0  0  0  0  0  0  0  0  0  0
   82.6921   35.2601   -8.6344 H   0  0  0  0  0  0  0  0  0  0  0  0
   82.6843   35.6425   -6.9079 H   0  0  0  0  0  0  0  0  0  0  0  0
   82.9039   38.0735   -7.4454 H   0  0  0  0  0  0  0  0  0  0  0  0
   82.9117   37.6910   -9.1719 H   0  0  0  0  0  0  0  0  0  0  0  0
   84.9469   36.2765   -8.8493 H   0  0  0  0  0  0  0  0  0  0  0  0
   84.9391   36.6589   -7.1228 H   0  0  0  0  0  0  0  0  0  0  0  0
   85.1597   39.0897   -7.6594 H   0  0  0  0  0  0  0  0  0  0  0  0
   85.1654   38.7085   -9.3863 H   0  0  0  0  0  0  0  0  0  0  0  0
   87.2012   37.2956   -9.0681 H   0  0  0  0  0  0  0  0  0  0  0  0
   87.1951   37.6743   -7.3415 H   0  0  0  0  0  0  0  0  0  0  0  0
   87.4282   40.1085   -7.8740 H   0  0  0  0  0  0  0  0  0  0  0  0
   87.4343   39.7297   -9.6015 H   0  0  0  0  0  0  0  0  0  0  0  0
   89.4703   38.7075   -7.5562 H   0  0  0  0  0  0  0  0  0  0  0  0
   89.7450   39.9966   -8.7466 H   0  0  0  0  0  0  0  0  0  0  0  0
   89.4765   38.3273   -9.2901 H   0  0  0  0  0  0  0  0  0  0  0  0
  1  2  2  0  0  0  0
  1 81  1  0  0  0  0
  1 82  1  0  0  0  0
  2  3  1  0  0  0  0
  2 83  1  0  0  0  0
  3  4  1  0  0  0  0
  3 84  1  0  0  0  0
  3 85  1  0  0  0  0
  4  5  1  0  0  0  0
  4 86  1  0  0  0  0
  4 87  1  0  0  0  0
  5  6  1  0  0  0  0
  5 88  1  0  0  0  0
  5 89  1  0  0  0  0
  6  7  1  0  0  0  0
  6 90  1  0  0  0  0
  6 91  1  0  0  0  0
  7  8  1  0  0  0  0
  7 92  1  0  0  0  0
  7 93  1  0  0  0  0
  8  9  1  0  0  0  0
  8 94  1  0  0  0  0
  8 95  1  0  0  0  0
  9 10  1  0  0  0  0
  9 96  1  0  0  0  0
 10 11  1  0  0  0  0
 10 97  1  0  0  0  0
 11 12  1  0  0  0  0
 11 98  1  0  0  0  0
 12 13  1  0  0  0  0
 12 99  1  0  0  0  0
 13 14  1  0  0  0  0
 13100  1  0  0  0  0
 14 15  1  0  0  0  0
 14101  1  0  0  0  0
 15 16  1  0  0  0  0
 15102  1  0  0  0  0
 16 17  1  0  0  0  0
 16103  1  0  0  0  0
 17 18  1  0  0  0  0
 17104  1  0  0  0  0
 18 19  1  0  0  0  0
 18105  1  0  0  0  0
 19 20  1  0  0  0  0
 19106  1  0  0  0  0
 20 21  1  0  0  0  0
 20107  1  0  0  0  0
 21 22  1  0  0  0  0
 21108  1  0  0  0  0
 22 23  1  0  0  0  0
 22109  1  0  0  0  0
 23 24  1  0  0  0  0
 23110  1  0  0  0  0
 24 25  1  0  0  0  0
 24111  1  0  0  0  0
 25 26  1  0  0  0  0
 25112  1  0  0  0  0
 25113  1  0  0  0  0
 26 27  1  0  0  0  0
 26114  1  0  0  0  0
 26115  1  0  0  0  0
 27 28  1  0  0  0  0
 27116  1  0  0  0  0
 27117  1  0  0  0  0
 28 29  1  0  0  0  0
 28118  1  0  0  0  0
 28119  1  0  0  0  0
 29 30  1  0  0  0  0
 29120  1  0  0  0  0
 29121  1  0  0  0  0
 30 31  1  0  0  0  0
 30122  1  0  0  0  0
 30123  1  0  0  0  0
 31 32  1  0  0  0  0
 31124  1  0  0  0  0
 31125  1  0  0  0  0
 32 33  1  0  0  0  0
 32126  1  0  0  0  0
 32127  1  0  0  0  0
 33 34  1  0  0  0  0
 33128  1  0  0  0  0
 33129  1  0  0  0  0
 34 35  1  0  0  0  0
 34130  1  0  0  0  0
 34131  1  0  0  0  0
 35 36  1  0  0  0  0
 35132  1  0  0  0  0
 35133  1  0  0  0  0
 36 37  1  0  0  0  0
 36134  1  0  0  0  0
 36135  1  0  0  0  0
 37 38  1  0  0  0  0
 37136  1  0  0  0  0
 37137  1  0  0  0  0
 38 39  1  0  0  0  0
 38138  1  0  0  0  0
 38139  1  0  0  0  0
 39 40  1  0  0  0  0
 39140  1  0  0  0  0
 39141  1  0  0  0  0
 40 41  1  0  0  0  0
 40142  1  0  0  0  0
 40143  1  0  0  0  0
 41 42  1  0  0  0  0
 41144  1  0  0  0  0
 41145  1  0  0  0  0
 42 43  1  0  0  0  0
 42146  1  0  0  0  0
 42147  1  0  0  0  0
 43 44  1  0  0  0  0
 43148  1  0  0  0  0
 43149  1  0  0  0  0
 44 45  1  0  0  0  0
 44150  1  0  0  0  0
 44151  1  0  0  0  0
 45 46  1  0  0  0  0
 45152  1  0  0  0  0
 45153  1  0  0  0  0
 46 47  1  0  0  0  0
 46154  1  0  0  0  0
 46155  1  0  0  0  0
 47 48  1  0  0  0  0
 47156  1  0  0  0  0
 47157  1  0  0  0  0
 48 49  1  0  0  0  0
 48158  1  0  0  0  0
 48159  1  0  0  0  0
 49 50  1  0  0  0  0
 49160  1  0  0  0  0
 49161  1  0  0  0  0
 50 51  1  0  0  0  0
 50162  1  0  0  0  0
 50163  1  0  0  0  0
 51 52  1  0  0  0  0
 51164  1  0  0  0  0
 51165  1  0  0  0  0
 52 53  1  0  0  0  0
 52166  1  0  0  0  0
 52167  1  0  0  0  0
 53 54  1  0  0  0  0
 53168  1  0  0  0  0
 53169  1  0  0  0  0
 54 55  1  0  0  0  0
 54170  1  0  0  0  0
 54171  1  0  0  0  0
 55 56  1  0  0  0  0
 55172  1  0  0  0  0
 55173  1  0  0  0  0
 56 57  1  0  0  0  0
 56174  1  0  0  0  0
 56175  1  0  0  0  0
 57 58  1  0  0  0  0
 57176  1  0  0  0  0
 57177  1  0  0  0  0
 58 59  1  0  0  0  0
 58178  1  0  0  0  0
 58179  1  0  0  0  0
 59 60  1  0  0  0  0
 59180  1  0  0  0  0
 59181  1  0  0  0  0
 60 61  1  0  0  0  0
 60182  1  0  0  0  0
 60183  1  0  0  0  0
 61 62  1  0  0  0  0
 61184  1  0  0  0  0
 61185  1  0  0  0  0
 62 63  1  0  0  0  0
 62186  1  0  0  0  0
 62187  1  0  0  0  0
 63 64  1  0  0  0  0
 63188  1  0  0  0  0
 63189  1  0  0  0  0
 64 65  1  0  0  0  0
 64190  1  0  0  0  0
 64191  1  0  0  0  0
 65 66  1  0  0  0  0
 65192  1  0  0  0  0
 65193  1  0  0  0  0
 66 67  1  0  0  0  0
 66194  1  0  0  0  0
 66195  1  0  0  0  0
 67 68  1  0  0  0  0
 67196  1  0  0  0  0
 67197  1  0  0  0  0
 68 69  1  0  0  0  0
 68198  1  0  0  0  0
 68199  1  0  0  0  0
 69 70  1  0  0  0  0
 69200  1  0  0  0  0
 69201  1  0  0  0  0
 70 71  1  0  0  0  0
 70202  1  0  0  0  0
 70203  1  0  0  0  0
 71 72  1  0  0  0  0
 71204  1  0  0  0  0
 71205  1  0  0  0  0
 72 73  1  0  0  0  0
 72206  1  0  0  0  0
 72207  1  0  0  0  0
 73 74  1  0  0  0  0
 73208  1  0  0  0  0
 73209  1  0  0  0  0
 74 75  1  0  0  0  0
 74210  1  0  0  0  0
 74211  1  0  0  0  0
 75 76  1  0  0  0  0
 75212  1  0  0  0  0
 75213  1  0  0  0  0
 76 77  1  0  0  0  0
 76214  1  0  0  0  0
 76215  1  0  0  0  0
 77 78  1  0  0  0  0
 77216  1  0  0  0  0
 77217  1  0  0  0  0
 78 79  1  0  0  0  0
 78218  1  0  0  0  0
 78219  1  0  0  0  0
 79 80  1  0  0  0  0
 79220  1  0  0  0  0
 79221  1  0  0  0  0
 80222  1  0  0  0  0
 80223  1  0  0  0  0
 80224  1  0  0  0  0
M  END
$$$$
