
 OpenBabel04232217013D

 95 94  0  0  0  0  0  0  0  0999 V2000
    0.9034   -0.0254   -0.0523 O   0  0  0  0  0  0  0  0  0  0  0  0
    2.3211   -0.0166   -0.0364 C   0  0  0  0  0  0  0  0  0  0  0  0
    2.8305   -0.5764   -1.3472 C   0  0  0  0  0  0  0  0  0  0  0  0
    4.3468   -0.5806   -1.3571 C   0  0  0  0  0  0  0  0  0  0  0  0
    4.8480   -1.1408   -2.6687 C   0  0  0  0  0  0  0  0  0  0  0  0
    6.3493   -1.1413   -2.6699 C   0  0  0  0  0  0  0  0  0  0  0  0
    6.8209   -1.6941   -3.9693 C   0  0  0  0  0  0  0  0  0  0  0  0
    8.2082   -1.6423   -3.8526 O   0  0  0  0  0  0  0  0  0  0  0  0
    8.6271   -2.1672   -5.0862 O   0  0  0  0  0  0  0  0  0  0  0  0
   10.0097   -2.1587   -5.0658 O   0  0  0  0  0  0  0  0  0  0  0  0
   10.4322   -2.6718   -6.2770 O   0  0  0  0  0  0  0  0  0  0  0  0
   11.8139   -2.6527   -6.2319 O   0  0  0  0  0  0  0  0  0  0  0  0
   12.2287   -3.1620   -7.4339 O   0  0  0  0  0  0  0  0  0  0  0  0
   13.5993   -3.1456   -7.3951 O   0  0  0  0  0  0  0  0  0  0  0  0
   13.9949   -3.6559   -8.5995 O   0  0  0  0  0  0  0  0  0  0  0  0
   15.3569   -3.6383   -8.5577 O   0  0  0  0  0  0  0  0  0  0  0  0
   15.7622   -4.1473   -9.7590 O   0  0  0  0  0  0  0  0  0  0  0  0
   17.1252   -4.1236   -9.7030 O   0  0  0  0  0  0  0  0  0  0  0  0
   17.5293   -4.6296  -10.8973 O   0  0  0  0  0  0  0  0  0  0  0  0
   18.8933   -4.6071  -10.8441 O   0  0  0  0  0  0  0  0  0  0  0  0
   19.2944   -5.1118  -12.0351 O   0  0  0  0  0  0  0  0  0  0  0  0
   20.6534   -5.0934  -11.9917 O   0  0  0  0  0  0  0  0  0  0  0  0
   21.0516   -5.6021  -13.1921 O   0  0  0  0  0  0  0  0  0  0  0  0
   22.4135   -5.5790  -13.1376 O   0  0  0  0  0  0  0  0  0  0  0  0
   22.8116   -6.0877  -14.3379 O   0  0  0  0  0  0  0  0  0  0  0  0
   24.1735   -6.0646  -14.2835 O   0  0  0  0  0  0  0  0  0  0  0  0
   24.5716   -6.5732  -15.4838 O   0  0  0  0  0  0  0  0  0  0  0  0
   25.9335   -6.5501  -15.4293 O   0  0  0  0  0  0  0  0  0  0  0  0
   26.3316   -7.0588  -16.6297 O   0  0  0  0  0  0  0  0  0  0  0  0
   27.6935   -7.0357  -16.5752 O   0  0  0  0  0  0  0  0  0  0  0  0
   28.0916   -7.5444  -17.7756 O   0  0  0  0  0  0  0  0  0  0  0  0
   29.4535   -7.5213  -17.7211 O   0  0  0  0  0  0  0  0  0  0  0  0
   29.8516   -8.0299  -18.9214 O   0  0  0  0  0  0  0  0  0  0  0  0
   31.2135   -8.0068  -18.8669 O   0  0  0  0  0  0  0  0  0  0  0  0
   31.6116   -8.5155  -20.0673 O   0  0  0  0  0  0  0  0  0  0  0  0
   32.9735   -8.4924  -20.0128 O   0  0  0  0  0  0  0  0  0  0  0  0
   33.3716   -9.0011  -21.2132 O   0  0  0  0  0  0  0  0  0  0  0  0
   34.7335   -8.9780  -21.1587 O   0  0  0  0  0  0  0  0  0  0  0  0
   35.1316   -9.4866  -22.3591 O   0  0  0  0  0  0  0  0  0  0  0  0
   36.4935   -9.4636  -22.3046 O   0  0  0  0  0  0  0  0  0  0  0  0
   36.8916   -9.9722  -23.5049 O   0  0  0  0  0  0  0  0  0  0  0  0
   38.2534   -9.9491  -23.4504 O   0  0  0  0  0  0  0  0  0  0  0  0
   38.6516  -10.4578  -24.6508 O   0  0  0  0  0  0  0  0  0  0  0  0
   40.0134  -10.4347  -24.5963 O   0  0  0  0  0  0  0  0  0  0  0  0
   40.4116  -10.9434  -25.7967 O   0  0  0  0  0  0  0  0  0  0  0  0
   41.7734  -10.9203  -25.7422 O   0  0  0  0  0  0  0  0  0  0  0  0
   42.1716  -11.4289  -26.9426 O   0  0  0  0  0  0  0  0  0  0  0  0
   43.5334  -11.4058  -26.8881 O   0  0  0  0  0  0  0  0  0  0  0  0
   43.9316  -11.9145  -28.0884 O   0  0  0  0  0  0  0  0  0  0  0  0
   45.2934  -11.8914  -28.0339 O   0  0  0  0  0  0  0  0  0  0  0  0
   45.6916  -12.4001  -29.2343 O   0  0  0  0  0  0  0  0  0  0  0  0
   47.0534  -12.3770  -29.1798 O   0  0  0  0  0  0  0  0  0  0  0  0
   47.4516  -12.8856  -30.3802 O   0  0  0  0  0  0  0  0  0  0  0  0
   48.8134  -12.8626  -30.3257 O   0  0  0  0  0  0  0  0  0  0  0  0
   49.2116  -13.3712  -31.5260 O   0  0  0  0  0  0  0  0  0  0  0  0
   50.5734  -13.3481  -31.4716 O   0  0  0  0  0  0  0  0  0  0  0  0
   50.9716  -13.8568  -32.6719 O   0  0  0  0  0  0  0  0  0  0  0  0
   52.3334  -13.8337  -32.6174 O   0  0  0  0  0  0  0  0  0  0  0  0
   52.7316  -14.3424  -33.8178 O   0  0  0  0  0  0  0  0  0  0  0  0
   54.0934  -14.3193  -33.7633 O   0  0  0  0  0  0  0  0  0  0  0  0
   54.4916  -14.8279  -34.9637 O   0  0  0  0  0  0  0  0  0  0  0  0
   55.8534  -14.8048  -34.9092 O   0  0  0  0  0  0  0  0  0  0  0  0
   56.2515  -15.3135  -36.1095 O   0  0  0  0  0  0  0  0  0  0  0  0
   57.6134  -15.2904  -36.0550 O   0  0  0  0  0  0  0  0  0  0  0  0
   58.0115  -15.7991  -37.2554 O   0  0  0  0  0  0  0  0  0  0  0  0
   59.3734  -15.7760  -37.2009 O   0  0  0  0  0  0  0  0  0  0  0  0
   59.7715  -16.2845  -38.4010 O   0  0  0  0  0  0  0  0  0  0  0  0
   61.1066  -16.2732  -38.3744 O   0  0  0  0  0  0  0  0  0  0  0  0
   61.5342  -16.7719  -39.5512 O   0  0  0  0  0  0  0  0  0  0  0  0
   62.8945  -16.7447  -39.4870 O   0  0  0  0  0  0  0  0  0  0  0  0
   63.2997  -17.2548  -40.6907 O   0  0  0  0  0  0  0  0  0  0  0  0
   64.6638  -17.2332  -40.6398 O   0  0  0  0  0  0  0  0  0  0  0  0
   65.0566  -17.7436  -41.8442 O   0  0  0  0  0  0  0  0  0  0  0  0
   66.4172  -17.7284  -41.8084 O   0  0  0  0  0  0  0  0  0  0  0  0
   66.8197  -18.2384  -43.0120 O   0  0  0  0  0  0  0  0  0  0  0  0
   68.1953  -18.2176  -42.9627 O   0  0  0  0  0  0  0  0  0  0  0  0
   68.6309  -18.7272  -44.1654 O   0  0  0  0  0  0  0  0  0  0  0  0
   70.0199  -18.7096  -44.1238 O   0  0  0  0  0  0  0  0  0  0  0  0
   70.4425  -19.2255  -45.3413 O   0  0  0  0  0  0  0  0  0  0  0  0
   71.8437  -19.2293  -45.3502 O   0  0  0  0  0  0  0  0  0  0  0  0
   72.2544  -19.7580  -46.5980 O   0  0  0  0  0  0  0  0  0  0  0  0
    0.6064    0.3379    0.7985 H   0  0  0  0  0  0  0  0  0  0  0  0
    2.6733   -0.6280    0.8012 H   0  0  0  0  0  0  0  0  0  0  0  0
    2.6710    1.0121    0.0999 H   0  0  0  0  0  0  0  0  0  0  0  0
    2.4490    0.0215   -2.1843 H   0  0  0  0  0  0  0  0  0  0  0  0
    2.4490   -1.5946   -1.4942 H   0  0  0  0  0  0  0  0  0  0  0  0
    4.7286   -1.1876   -0.5270 H   0  0  0  0  0  0  0  0  0  0  0  0
    4.7286    0.4387   -1.2215 H   0  0  0  0  0  0  0  0  0  0  0  0
    4.4815   -0.5373   -3.5084 H   0  0  0  0  0  0  0  0  0  0  0  0
    4.4815   -2.1647   -2.8135 H   0  0  0  0  0  0  0  0  0  0  0  0
    6.7557   -1.7436   -1.8467 H   0  0  0  0  0  0  0  0  0  0  0  0
    6.7557   -0.1305   -2.5329 H   0  0  0  0  0  0  0  0  0  0  0  0
    6.5103   -1.0865   -4.8266 H   0  0  0  0  0  0  0  0  0  0  0  0
    6.5126   -2.7340   -4.1249 H   0  0  0  0  0  0  0  0  0  0  0  0
   73.2051  -19.6711  -46.3928 H   0  0  0  0  0  0  0  0  0  0  0  0
  1  2  1  0  0  0  0
  1 82  1  0  0  0  0
  2  3  1  0  0  0  0
  2 83  1  0  0  0  0
  2 84  1  0  0  0  0
  3  4  1  0  0  0  0
  3 85  1  0  0  0  0
  3 86  1  0  0  0  0
  4  5  1  0  0  0  0
  4 87  1  0  0  0  0
  4 88  1  0  0  0  0
  5  6  1  0  0  0  0
  5 89  1  0  0  0  0
  5 90  1  0  0  0  0
  6  7  1  0  0  0  0
  6 91  1  0  0  0  0
  6 92  1  0  0  0  0
  7  8  1  0  0  0  0
  7 93  1  0  0  0  0
  7 94  1  0  0  0  0
  8  9  1  0  0  0  0
  9 10  1  0  0  0  0
 10 11  1  0  0  0  0
 11 12  1  0  0  0  0
 12 13  1  0  0  0  0
 13 14  1  0  0  0  0
 14 15  1  0  0  0  0
 15 16  1  0  0  0  0
 16 17  1  0  0  0  0
 17 18  1  0  0  0  0
 18 19  1  0  0  0  0
 19 20  1  0  0  0  0
 20 21  1  0  0  0  0
 21 22  1  0  0  0  0
 22 23  1  0  0  0  0
 23 24  1  0  0  0  0
 24 25  1  0  0  0  0
 25 26  1  0  0  0  0
 26 27  1  0  0  0  0
 27 28  1  0  0  0  0
 28 29  1  0  0  0  0
 29 30  1  0  0  0  0
 30 31  1  0  0  0  0
 31 32  1  0  0  0  0
 32 33  1  0  0  0  0
 33 34  1  0  0  0  0
 34 35  1  0  0  0  0
 35 36  1  0  0  0  0
 36 37  1  0  0  0  0
 37 38  1  0  0  0  0
 38 39  1  0  0  0  0
 39 40  1  0  0  0  0
 40 41  1  0  0  0  0
 41 42  1  0  0  0  0
 42 43  1  0  0  0  0
 43 44  1  0  0  0  0
 44 45  1  0  0  0  0
 45 46  1  0  0  0  0
 46 47  1  0  0  0  0
 47 48  1  0  0  0  0
 48 49  1  0  0  0  0
 49 50  1  0  0  0  0
 50 51  1  0  0  0  0
 51 52  1  0  0  0  0
 52 53  1  0  0  0  0
 53 54  1  0  0  0  0
 54 55  1  0  0  0  0
 55 56  1  0  0  0  0
 56 57  1  0  0  0  0
 57 58  1  0  0  0  0
 58 59  1  0  0  0  0
 59 60  1  0  0  0  0
 60 61  1  0  0  0  0
 61 62  1  0  0  0  0
 62 63  1  0  0  0  0
 63 64  1  0  0  0  0
 64 65  1  0  0  0  0
 65 66  1  0  0  0  0
 66 67  1  0  0  0  0
 67 68  1  0  0  0  0
 68 69  1  0  0  0  0
 69 70  1  0  0  0  0
 70 71  1  0  0  0  0
 71 72  1  0  0  0  0
 72 73  1  0  0  0  0
 73 74  1  0  0  0  0
 74 75  1  0  0  0  0
 75 76  1  0  0  0  0
 76 77  1  0  0  0  0
 77 78  1  0  0  0  0
 78 79  1  0  0  0  0
 79 80  1  0  0  0  0
 80 81  1  0  0  0  0
 81 95  1  0  0  0  0
M  END
$$$$
