
 OpenBabel04232216483D

 90 90  0  0  0  0  0  0  0  0999 V2000
    0.8419   -4.3728    1.9430 C   0  0  0  0  0  0  0  0  0  0  0  0
    2.1124   -4.4479    1.1233 C   0  0  0  0  0  0  0  0  0  0  0  0
    1.9805   -3.3392    0.2018 C   0  0  0  0  0  0  0  0  0  0  0  0
    2.8543   -2.3086    0.2140 C   0  0  0  0  0  0  0  0  0  0  0  0
    3.5531   -2.1514   -1.0605 C   0  0  0  0  0  0  0  0  0  0  0  0
    2.7979   -2.6440   -2.2569 C   0  0  0  0  0  0  0  0  0  0  0  0
    3.0785   -1.9751   -3.5802 C   0  0  0  0  0  0  0  0  0  0  0  0
    2.2236   -2.6431   -4.6406 C   0  0  0  0  0  0  0  0  0  0  0  0
    0.7443   -2.4818   -4.3267 C   0  0  0  0  0  0  0  0  0  0  0  0
   -0.0796   -3.1224   -5.3997 C   0  0  0  0  0  0  0  0  0  0  0  0
   -1.5364   -2.9585   -5.0363 C   0  0  0  0  0  0  0  0  0  0  0  0
   -2.3296   -3.5849   -6.1484 C   0  0  0  0  0  0  0  0  0  0  0  0
   -3.8023   -3.4340   -5.8824 C   0  0  0  0  0  0  0  0  0  0  0  0
   -4.5358   -4.0730   -7.0422 C   0  0  0  0  0  0  0  0  0  0  0  0
   -6.0330   -3.9479   -6.8282 C   0  0  0  0  0  0  0  0  0  0  0  0
   -6.7373   -4.5731   -7.9869 C   0  0  0  0  0  0  0  0  0  0  0  0
   -8.2322   -4.4231   -7.7415 C   0  0  0  0  0  0  0  0  0  0  0  0
   -9.0232   -5.0425   -8.8772 C   0  0  0  0  0  0  0  0  0  0  0  0
  -10.4993   -4.8790   -8.5946 C   0  0  0  0  0  0  0  0  0  0  0  0
  -11.2084   -5.4385   -9.6828 O   0  0  0  0  0  0  0  0  0  0  0  0
  -12.6025   -5.3694   -9.4536 C   0  0  0  0  0  0  0  0  0  0  0  0
  -13.3112   -5.9941  -10.5070 O   0  0  0  0  0  0  0  0  0  0  0  0
  -12.9469   -7.3616  -10.6477 C   0  0  0  0  0  0  0  0  0  0  0  0
  -13.6216   -7.9522  -11.7602 O   0  0  0  0  0  0  0  0  0  0  0  0
  -13.2492   -7.2969  -12.9511 C   0  0  0  0  0  0  0  0  0  0  0  0
  -13.9899   -7.9365  -14.1162 C   0  0  0  0  0  0  0  0  0  0  0  0
  -13.6445   -7.2735  -15.4415 C   0  0  0  0  0  0  0  0  0  0  0  0
  -14.3961   -7.9346  -16.5876 C   0  0  0  0  0  0  0  0  0  0  0  0
    4.8968   -2.0655   -0.9487 C   0  0  0  0  0  0  0  0  0  0  0  0
    5.7318   -2.9602   -1.7291 C   0  0  0  0  0  0  0  0  0  0  0  0
    6.6898   -3.6349   -1.0800 C   0  0  0  0  0  0  0  0  0  0  0  0
    6.8280   -5.0568   -1.3636 C   0  0  0  0  0  0  0  0  0  0  0  0
    6.4826   -5.7863   -0.2771 C   0  0  0  0  0  0  0  0  0  0  0  0
    5.2011   -6.4155   -0.1056 C   0  0  0  0  0  0  0  0  0  0  0  0
    4.0283   -6.1122    0.4631 C   0  0  0  0  0  0  0  0  0  0  0  0
    3.3216   -5.0796    1.3596 C   0  0  0  0  0  0  0  0  0  0  0  0
   -0.0197   -4.1183    1.2971 H   0  0  0  0  0  0  0  0  0  0  0  0
    0.9077   -3.5574    2.6735 H   0  0  0  0  0  0  0  0  0  0  0  0
    0.5668   -5.3114    2.4165 H   0  0  0  0  0  0  0  0  0  0  0  0
    1.1539   -3.3838   -0.4898 H   0  0  0  0  0  0  0  0  0  0  0  0
    3.4821   -2.1841    1.0963 H   0  0  0  0  0  0  0  0  0  0  0  0
    1.7419   -2.4396   -2.0640 H   0  0  0  0  0  0  0  0  0  0  0  0
    2.9030   -3.7380   -2.3278 H   0  0  0  0  0  0  0  0  0  0  0  0
    4.1284   -2.0514   -3.8615 H   0  0  0  0  0  0  0  0  0  0  0  0
    2.8283   -0.9104   -3.5043 H   0  0  0  0  0  0  0  0  0  0  0  0
    2.4666   -3.7127   -4.7040 H   0  0  0  0  0  0  0  0  0  0  0  0
    2.4509   -2.2001   -5.6174 H   0  0  0  0  0  0  0  0  0  0  0  0
    0.4918   -1.4167   -4.2247 H   0  0  0  0  0  0  0  0  0  0  0  0
    0.4624   -2.9716   -3.3904 H   0  0  0  0  0  0  0  0  0  0  0  0
    0.1677   -4.1897   -5.4760 H   0  0  0  0  0  0  0  0  0  0  0  0
    0.1342   -2.6605   -6.3706 H   0  0  0  0  0  0  0  0  0  0  0  0
   -1.7915   -1.8970   -4.9255 H   0  0  0  0  0  0  0  0  0  0  0  0
   -1.7613   -3.4476   -4.0790 H   0  0  0  0  0  0  0  0  0  0  0  0
   -2.0678   -4.6470   -6.2366 H   0  0  0  0  0  0  0  0  0  0  0  0
   -2.0696   -3.1047   -7.0994 H   0  0  0  0  0  0  0  0  0  0  0  0
   -4.0675   -2.3742   -5.7951 H   0  0  0  0  0  0  0  0  0  0  0  0
   -4.0743   -3.9210   -4.9382 H   0  0  0  0  0  0  0  0  0  0  0  0
   -4.2467   -5.1288   -7.1266 H   0  0  0  0  0  0  0  0  0  0  0  0
   -4.2349   -3.5833   -7.9816 H   0  0  0  0  0  0  0  0  0  0  0  0
   -6.2815   -2.8849   -6.7407 H   0  0  0  0  0  0  0  0  0  0  0  0
   -6.3030   -4.4291   -5.8818 H   0  0  0  0  0  0  0  0  0  0  0  0
   -6.4683   -5.6264   -8.0818 H   0  0  0  0  0  0  0  0  0  0  0  0
   -6.4666   -4.0774   -8.9377 H   0  0  0  0  0  0  0  0  0  0  0  0
   -8.4920   -3.3658   -7.6449 H   0  0  0  0  0  0  0  0  0  0  0  0
   -8.4945   -4.9122   -6.7944 H   0  0  0  0  0  0  0  0  0  0  0  0
   -8.7791   -6.1102   -8.9858 H   0  0  0  0  0  0  0  0  0  0  0  0
   -8.7666   -4.5721   -9.8327 H   0  0  0  0  0  0  0  0  0  0  0  0
  -10.7492   -3.8151   -8.4956 H   0  0  0  0  0  0  0  0  0  0  0  0
  -10.7621   -5.3954   -7.6665 H   0  0  0  0  0  0  0  0  0  0  0  0
  -12.9096   -4.3181   -9.4214 H   0  0  0  0  0  0  0  0  0  0  0  0
  -12.8660   -5.8452   -8.5014 H   0  0  0  0  0  0  0  0  0  0  0  0
  -13.2429   -7.9118   -9.7476 H   0  0  0  0  0  0  0  0  0  0  0  0
  -11.8665   -7.4857  -10.7880 H   0  0  0  0  0  0  0  0  0  0  0  0
  -12.1653   -7.3700  -13.1145 H   0  0  0  0  0  0  0  0  0  0  0  0
  -13.5216   -6.2227  -12.9176 H   0  0  0  0  0  0  0  0  0  0  0  0
  -15.0707   -7.8844  -13.9334 H   0  0  0  0  0  0  0  0  0  0  0  0
  -13.7432   -9.0069  -14.1540 H   0  0  0  0  0  0  0  0  0  0  0  0
  -12.5680   -7.3381  -15.6298 H   0  0  0  0  0  0  0  0  0  0  0  0
  -13.9096   -6.2070  -15.4156 H   0  0  0  0  0  0  0  0  0  0  0  0
  -14.1381   -8.9988  -16.6555 H   0  0  0  0  0  0  0  0  0  0  0  0
  -14.1545   -7.4609  -17.5405 H   0  0  0  0  0  0  0  0  0  0  0  0
  -15.4796   -7.8614  -16.4357 H   0  0  0  0  0  0  0  0  0  0  0  0
    5.3129   -1.7869    0.0176 H   0  0  0  0  0  0  0  0  0  0  0  0
    5.3021   -3.3946   -2.6380 H   0  0  0  0  0  0  0  0  0  0  0  0
    6.9733   -3.3267   -0.0671 H   0  0  0  0  0  0  0  0  0  0  0  0
    6.4513   -5.3018   -2.3520 H   0  0  0  0  0  0  0  0  0  0  0  0
    7.0766   -5.7206    0.6180 H   0  0  0  0  0  0  0  0  0  0  0  0
    5.2390   -7.4458   -0.4445 H   0  0  0  0  0  0  0  0  0  0  0  0
    3.3684   -6.9930    0.5539 H   0  0  0  0  0  0  0  0  0  0  0  0
    3.4071   -5.4525    2.3789 H   0  0  0  0  0  0  0  0  0  0  0  0
  1  2  1  0  0  0  0
  1 37  1  0  0  0  0
  1 38  1  0  0  0  0
  1 39  1  0  0  0  0
  2  3  1  0  0  0  0
  2 36  2  3  0  0  0
  3  4  2  3  0  0  0
  3 40  1  0  0  0  0
  4  5  1  0  0  0  0
  4 41  1  0  0  0  0
  5  6  1  0  0  0  0
  5 29  2  3  0  0  0
  6  7  1  0  0  0  0
  6 42  1  0  0  0  0
  6 43  1  0  0  0  0
  7  8  1  0  0  0  0
  7 44  1  0  0  0  0
  7 45  1  0  0  0  0
  8  9  1  0  0  0  0
  8 46  1  0  0  0  0
  8 47  1  0  0  0  0
  9 10  1  0  0  0  0
  9 48  1  0  0  0  0
  9 49  1  0  0  0  0
 10 11  1  0  0  0  0
 10 50  1  0  0  0  0
 10 51  1  0  0  0  0
 11 12  1  0  0  0  0
 11 52  1  0  0  0  0
 11 53  1  0  0  0  0
 12 13  1  0  0  0  0
 12 54  1  0  0  0  0
 12 55  1  0  0  0  0
 13 14  1  0  0  0  0
 13 56  1  0  0  0  0
 13 57  1  0  0  0  0
 14 15  1  0  0  0  0
 14 58  1  0  0  0  0
 14 59  1  0  0  0  0
 15 16  1  0  0  0  0
 15 60  1  0  0  0  0
 15 61  1  0  0  0  0
 16 17  1  0  0  0  0
 16 62  1  0  0  0  0
 16 63  1  0  0  0  0
 17 18  1  0  0  0  0
 17 64  1  0  0  0  0
 17 65  1  0  0  0  0
 18 19  1  0  0  0  0
 18 66  1  0  0  0  0
 18 67  1  0  0  0  0
 19 20  1  0  0  0  0
 19 68  1  0  0  0  0
 19 69  1  0  0  0  0
 20 21  1  0  0  0  0
 21 22  1  0  0  0  0
 21 70  1  0  0  0  0
 21 71  1  0  0  0  0
 22 23  1  0  0  0  0
 23 24  1  0  0  0  0
 23 72  1  0  0  0  0
 23 73  1  0  0  0  0
 24 25  1  0  0  0  0
 25 26  1  0  0  0  0
 25 74  1  0  0  0  0
 25 75  1  0  0  0  0
 26 27  1  0  0  0  0
 26 76  1  0  0  0  0
 26 77  1  0  0  0  0
 27 28  1  0  0  0  0
 27 78  1  0  0  0  0
 27 79  1  0  0  0  0
 28 80  1  0  0  0  0
 28 81  1  0  0  0  0
 28 82  1  0  0  0  0
 29 30  1  0  0  0  0
 29 83  1  0  0  0  0
 30 31  2  3  0  0  0
 30 84  1  0  0  0  0
 31 32  1  0  0  0  0
 31 85  1  0  0  0  0
 32 33  2  3  0  0  0
 32 86  1  0  0  0  0
 33 34  1  0  0  0  0
 33 87  1  0  0  0  0
 34 35  2  3  0  0  0
 34 88  1  0  0  0  0
 35 36  1  0  0  0  0
 35 89  1  0  0  0  0
 36 90  1  0  0  0  0
M  END
$$$$
