
 OpenBabel04232216593D

190189  0  0  0  0  0  0  0  0999 V2000
    3.0195    2.0343    0.2068 O   0  0  0  0  0  0  0  0  0  0  0  0
    4.1893    1.5760    0.3608 C   0  0  0  0  0  0  0  0  0  0  0  0
    4.7776    1.5031    1.7725 C   0  0  0  0  0  0  0  0  0  0  0  0
    4.9617    0.9475   -0.7643 C   0  0  0  0  0  0  0  0  0  0  0  0
    4.6069   -0.5166   -0.9298 C   0  0  0  0  0  0  0  0  0  0  0  0
    5.3634   -1.1086   -2.1080 C   0  0  0  0  0  0  0  0  0  0  0  0
    6.7703   -0.9931   -1.8786 O   0  0  0  0  0  0  0  0  0  0  0  0
    7.4888   -1.5479   -2.9889 C   0  0  0  0  0  0  0  0  0  0  0  0
    8.9709   -1.4079   -2.7274 C   0  0  0  0  0  0  0  0  0  0  0  0
    9.7353   -2.0030   -3.8978 C   0  0  0  0  0  0  0  0  0  0  0  0
   11.2269   -1.8763   -3.6559 C   0  0  0  0  0  0  0  0  0  0  0  0
   11.9905   -2.4726   -4.8240 C   0  0  0  0  0  0  0  0  0  0  0  0
   13.4833   -2.3448   -4.5840 C   0  0  0  0  0  0  0  0  0  0  0  0
   14.2462   -2.9425   -5.7508 C   0  0  0  0  0  0  0  0  0  0  0  0
   15.7382   -2.8163   -5.5097 C   0  0  0  0  0  0  0  0  0  0  0  0
   16.5008   -3.4141   -6.6761 C   0  0  0  0  0  0  0  0  0  0  0  0
   17.9909   -3.2894   -6.4336 C   0  0  0  0  0  0  0  0  0  0  0  0
   18.7471   -3.8867   -7.5952 C   0  0  0  0  0  0  0  0  0  0  0  0
   20.2338   -3.7566   -7.3463 C   0  0  0  0  0  0  0  0  0  0  0  0
   20.9842   -4.3498   -8.5041 C   0  0  0  0  0  0  0  0  0  0  0  0
   22.4232   -4.2068   -8.2260 C   0  0  0  0  0  0  0  0  0  0  0  0
   23.0064   -4.7924   -9.3638 O   0  0  0  0  0  0  0  0  0  0  0  0
   24.3900   -4.6505   -9.0924 O   0  0  0  0  0  0  0  0  0  0  0  0
   25.0577   -5.1976  -10.1613 O   0  0  0  0  0  0  0  0  0  0  0  0
   26.4204   -5.0619   -9.8967 O   0  0  0  0  0  0  0  0  0  0  0  0
   27.0693   -5.6190  -10.9844 O   0  0  0  0  0  0  0  0  0  0  0  0
   28.4114   -5.4891  -10.7317 O   0  0  0  0  0  0  0  0  0  0  0  0
   29.0530   -6.0384  -11.8042 O   0  0  0  0  0  0  0  0  0  0  0  0
   30.3844   -5.9000  -11.5349 O   0  0  0  0  0  0  0  0  0  0  0  0
   31.0243   -6.4554  -12.6192 O   0  0  0  0  0  0  0  0  0  0  0  0
   32.3567   -6.3135  -12.3431 O   0  0  0  0  0  0  0  0  0  0  0  0
   32.9864   -6.8671  -13.4238 O   0  0  0  0  0  0  0  0  0  0  0  0
   34.3278   -6.7275  -13.1523 O   0  0  0  0  0  0  0  0  0  0  0  0
   34.9626   -7.2785  -14.2281 O   0  0  0  0  0  0  0  0  0  0  0  0
   36.2951   -7.1434  -13.9653 O   0  0  0  0  0  0  0  0  0  0  0  0
   36.9512   -7.6928  -15.0378 O   0  0  0  0  0  0  0  0  0  0  0  0
   38.3006   -7.5535  -14.7668 O   0  0  0  0  0  0  0  0  0  0  0  0
   38.9627   -8.1119  -15.8577 O   0  0  0  0  0  0  0  0  0  0  0  0
   40.3095   -7.9897  -15.6195 O   0  0  0  0  0  0  0  0  0  0  0  0
   40.9687   -8.5678  -16.7434 O   0  0  0  0  0  0  0  0  0  0  0  0
   42.2939   -8.3927  -16.4029 C   0  0  0  0  0  0  0  0  0  0  0  0
   43.0119   -8.9446  -17.4763 O   0  0  0  0  0  0  0  0  0  0  0  0
   44.3774   -8.8165  -17.2271 C   0  0  0  0  0  0  0  0  0  0  0  0
   45.1037   -9.4218  -18.4044 C   0  0  0  0  0  0  0  0  0  0  0  0
   46.5917   -9.2970  -18.1616 C   0  0  0  0  0  0  0  0  0  0  0  0
   47.3496   -9.8948  -19.3244 C   0  0  0  0  0  0  0  0  0  0  0  0
   48.8414   -9.7704  -19.0824 C   0  0  0  0  0  0  0  0  0  0  0  0
   49.6045  -10.3700  -20.2484 C   0  0  0  0  0  0  0  0  0  0  0  0
   51.0966  -10.2474  -20.0055 C   0  0  0  0  0  0  0  0  0  0  0  0
   51.8593  -10.8486  -21.1704 C   0  0  0  0  0  0  0  0  0  0  0  0
   53.3511  -10.7277  -20.9264 C   0  0  0  0  0  0  0  0  0  0  0  0
   54.1137  -11.3289  -22.0913 C   0  0  0  0  0  0  0  0  0  0  0  0
   55.6055  -11.2063  -21.8482 C   0  0  0  0  0  0  0  0  0  0  0  0
   56.3681  -11.8057  -23.0139 C   0  0  0  0  0  0  0  0  0  0  0  0
   57.8599  -11.6848  -22.7701 C   0  0  0  0  0  0  0  0  0  0  0  0
   58.6225  -12.2842  -23.9358 C   0  0  0  0  0  0  0  0  0  0  0  0
   60.1144  -12.1616  -23.6928 C   0  0  0  0  0  0  0  0  0  0  0  0
   60.8769  -12.7609  -24.8585 C   0  0  0  0  0  0  0  0  0  0  0  0
   62.3688  -12.6383  -24.6155 C   0  0  0  0  0  0  0  0  0  0  0  0
   63.1313  -13.2377  -25.7812 C   0  0  0  0  0  0  0  0  0  0  0  0
   64.6232  -13.1150  -25.5382 C   0  0  0  0  0  0  0  0  0  0  0  0
   65.3857  -13.7144  -26.7040 C   0  0  0  0  0  0  0  0  0  0  0  0
   66.8776  -13.5917  -26.4610 C   0  0  0  0  0  0  0  0  0  0  0  0
   67.6401  -14.1912  -27.6267 C   0  0  0  0  0  0  0  0  0  0  0  0
   69.1320  -14.0685  -27.3837 C   0  0  0  0  0  0  0  0  0  0  0  0
   69.8945  -14.6679  -28.5494 C   0  0  0  0  0  0  0  0  0  0  0  0
   71.3864  -14.5434  -28.3073 C   0  0  0  0  0  0  0  0  0  0  0  0
   72.1489  -15.1428  -29.4731 C   0  0  0  0  0  0  0  0  0  0  0  0
   73.6408  -15.0183  -29.2310 C   0  0  0  0  0  0  0  0  0  0  0  0
   74.4033  -15.6177  -30.3968 C   0  0  0  0  0  0  0  0  0  0  0  0
   75.8952  -15.4933  -30.1547 C   0  0  0  0  0  0  0  0  0  0  0  0
   76.6577  -16.0927  -31.3204 C   0  0  0  0  0  0  0  0  0  0  0  0
   78.1496  -15.9699  -31.0774 C   0  0  0  0  0  0  0  0  0  0  0  0
   78.9121  -16.5693  -32.2428 C   0  0  0  0  0  0  0  0  0  0  0  0
   80.4023  -16.4467  -32.0001 C   0  0  0  0  0  0  0  0  0  0  0  0
   81.1675  -17.0488  -33.1668 C   0  0  0  0  0  0  0  0  0  0  0  0
   82.6695  -16.9241  -32.9241 C   0  0  0  0  0  0  0  0  0  0  0  0
   83.4245  -17.5268  -34.0918 C   0  0  0  0  0  0  0  0  0  0  0  0
    4.0765    1.9686    2.4820 H   0  0  0  0  0  0  0  0  0  0  0  0
    5.7064    2.0669    1.7788 H   0  0  0  0  0  0  0  0  0  0  0  0
    4.9464    0.4697    2.0729 H   0  0  0  0  0  0  0  0  0  0  0  0
    6.0187    1.0986   -0.5771 H   0  0  0  0  0  0  0  0  0  0  0  0
    4.7084    1.5114   -1.6596 H   0  0  0  0  0  0  0  0  0  0  0  0
    3.5269   -0.6433   -1.1037 H   0  0  0  0  0  0  0  0  0  0  0  0
    4.8651   -1.0680   -0.0116 H   0  0  0  0  0  0  0  0  0  0  0  0
    5.1045   -0.5781   -3.0334 H   0  0  0  0  0  0  0  0  0  0  0  0
    5.1096   -2.1693   -2.2170 H   0  0  0  0  0  0  0  0  0  0  0  0
    7.2073   -1.0065   -3.8936 H   0  0  0  0  0  0  0  0  0  0  0  0
    7.2137   -2.5985   -3.0821 H   0  0  0  0  0  0  0  0  0  0  0  0
    9.2375   -1.9151   -1.7929 H   0  0  0  0  0  0  0  0  0  0  0  0
    9.2320   -0.3519   -2.5913 H   0  0  0  0  0  0  0  0  0  0  0  0
    9.4635   -1.4841   -4.8232 H   0  0  0  0  0  0  0  0  0  0  0  0
    9.4669   -3.0577   -4.0207 H   0  0  0  0  0  0  0  0  0  0  0  0
   11.5022   -2.3946   -2.7289 H   0  0  0  0  0  0  0  0  0  0  0  0
   11.4991   -0.8206   -3.5341 H   0  0  0  0  0  0  0  0  0  0  0  0
   11.7174   -1.9560   -5.7522 H   0  0  0  0  0  0  0  0  0  0  0  0
   11.7224   -3.5292   -4.9458 H   0  0  0  0  0  0  0  0  0  0  0  0
   13.7578   -2.8605   -3.6556 H   0  0  0  0  0  0  0  0  0  0  0  0
   13.7532   -1.2883   -4.4641 H   0  0  0  0  0  0  0  0  0  0  0  0
   13.9732   -2.4260   -6.6792 H   0  0  0  0  0  0  0  0  0  0  0  0
   13.9758   -3.9987   -5.8717 H   0  0  0  0  0  0  0  0  0  0  0  0
   16.0112   -3.3329   -4.5812 H   0  0  0  0  0  0  0  0  0  0  0  0
   16.0087   -1.7602   -5.3887 H   0  0  0  0  0  0  0  0  0  0  0  0
   16.2287   -2.8966   -7.6045 H   0  0  0  0  0  0  0  0  0  0  0  0
   16.2291   -4.4699   -6.7981 H   0  0  0  0  0  0  0  0  0  0  0  0
   18.2641   -3.8058   -5.5052 H   0  0  0  0  0  0  0  0  0  0  0  0
   18.2640   -2.2338   -6.3136 H   0  0  0  0  0  0  0  0  0  0  0  0
   18.4831   -3.3739   -8.5282 H   0  0  0  0  0  0  0  0  0  0  0  0
   18.4851   -4.9447   -7.7191 H   0  0  0  0  0  0  0  0  0  0  0  0
   20.5159   -4.2776   -6.4232 H   0  0  0  0  0  0  0  0  0  0  0  0
   20.5136   -2.7022   -7.2322 H   0  0  0  0  0  0  0  0  0  0  0  0
   20.7344   -3.8524   -9.4527 H   0  0  0  0  0  0  0  0  0  0  0  0
   20.7347   -5.4105   -8.6542 H   0  0  0  0  0  0  0  0  0  0  0  0
   22.7693   -4.7654   -7.3451 H   0  0  0  0  0  0  0  0  0  0  0  0
   22.7692   -3.1653   -8.1678 H   0  0  0  0  0  0  0  0  0  0  0  0
   42.5007   -8.9229  -15.4670 H   0  0  0  0  0  0  0  0  0  0  0  0
   42.5007   -7.3230  -16.2896 H   0  0  0  0  0  0  0  0  0  0  0  0
   44.6143   -9.3484  -16.3013 H   0  0  0  0  0  0  0  0  0  0  0  0
   44.6143   -7.7540  -17.1211 H   0  0  0  0  0  0  0  0  0  0  0  0
   44.8081   -8.9097  -19.3250 H   0  0  0  0  0  0  0  0  0  0  0  0
   44.8081  -10.4685  -18.5234 H   0  0  0  0  0  0  0  0  0  0  0  0
   46.8598   -9.8120  -17.2313 H   0  0  0  0  0  0  0  0  0  0  0  0
   46.8598   -8.2407  -18.0392 H   0  0  0  0  0  0  0  0  0  0  0  0
   47.0781   -9.3788  -20.2539 H   0  0  0  0  0  0  0  0  0  0  0  0
   47.0781  -10.9511  -19.4454 H   0  0  0  0  0  0  0  0  0  0  0  0
   49.1139  -10.2870  -18.1539 H   0  0  0  0  0  0  0  0  0  0  0  0
   49.1140   -8.7148  -18.9623 H   0  0  0  0  0  0  0  0  0  0  0  0
   49.3341   -9.8528  -21.1773 H   0  0  0  0  0  0  0  0  0  0  0  0
   49.3320  -11.4256  -20.3699 H   0  0  0  0  0  0  0  0  0  0  0  0
   51.3672  -10.7635  -19.0762 H   0  0  0  0  0  0  0  0  0  0  0  0
   51.3699   -9.1918  -19.8856 H   0  0  0  0  0  0  0  0  0  0  0  0
   51.5898  -10.3316  -22.0996 H   0  0  0  0  0  0  0  0  0  0  0  0
   51.5852  -11.9039  -21.2912 H   0  0  0  0  0  0  0  0  0  0  0  0
   53.6206  -11.2447  -19.9972 H   0  0  0  0  0  0  0  0  0  0  0  0
   53.6253   -9.6725  -20.8056 H   0  0  0  0  0  0  0  0  0  0  0  0
   53.8432  -10.8128  -23.0207 H   0  0  0  0  0  0  0  0  0  0  0  0
   53.8405  -12.3845  -22.2112 H   0  0  0  0  0  0  0  0  0  0  0  0
   55.8762  -11.7235  -20.9195 H   0  0  0  0  0  0  0  0  0  0  0  0
   55.8785  -10.1508  -21.7269 H   0  0  0  0  0  0  0  0  0  0  0  0
   56.0984  -11.2875  -23.9424 H   0  0  0  0  0  0  0  0  0  0  0  0
   56.0942  -12.8609  -23.1363 H   0  0  0  0  0  0  0  0  0  0  0  0
   58.1296  -12.2030  -21.8416 H   0  0  0  0  0  0  0  0  0  0  0  0
   58.1339  -10.6296  -22.6478 H   0  0  0  0  0  0  0  0  0  0  0  0
   58.3518  -11.7669  -24.8645 H   0  0  0  0  0  0  0  0  0  0  0  0
   58.3496  -13.3397  -24.0572 H   0  0  0  0  0  0  0  0  0  0  0  0
   60.3851  -12.6788  -22.7641 H   0  0  0  0  0  0  0  0  0  0  0  0
   60.3872  -11.1060  -23.5714 H   0  0  0  0  0  0  0  0  0  0  0  0
   60.6062  -12.2437  -25.7872 H   0  0  0  0  0  0  0  0  0  0  0  0
   60.6040  -13.8165  -24.9799 H   0  0  0  0  0  0  0  0  0  0  0  0
   62.6395  -13.1555  -23.6868 H   0  0  0  0  0  0  0  0  0  0  0  0
   62.6416  -11.5827  -24.4941 H   0  0  0  0  0  0  0  0  0  0  0  0
   62.8606  -12.7204  -26.7099 H   0  0  0  0  0  0  0  0  0  0  0  0
   62.8584  -14.2932  -25.9026 H   0  0  0  0  0  0  0  0  0  0  0  0
   64.8939  -13.6323  -24.6096 H   0  0  0  0  0  0  0  0  0  0  0  0
   64.8961  -12.0595  -25.4169 H   0  0  0  0  0  0  0  0  0  0  0  0
   65.1150  -13.1971  -27.6327 H   0  0  0  0  0  0  0  0  0  0  0  0
   65.1128  -14.7699  -26.8254 H   0  0  0  0  0  0  0  0  0  0  0  0
   67.1483  -14.1090  -25.5323 H   0  0  0  0  0  0  0  0  0  0  0  0
   67.1505  -12.5362  -26.3396 H   0  0  0  0  0  0  0  0  0  0  0  0
   67.3694  -13.6739  -28.5554 H   0  0  0  0  0  0  0  0  0  0  0  0
   67.3672  -15.2467  -27.7481 H   0  0  0  0  0  0  0  0  0  0  0  0
   69.4028  -14.5857  -26.4550 H   0  0  0  0  0  0  0  0  0  0  0  0
   69.4048  -13.0129  -27.2623 H   0  0  0  0  0  0  0  0  0  0  0  0
   69.6228  -14.1515  -29.4783 H   0  0  0  0  0  0  0  0  0  0  0  0
   69.6227  -15.7238  -28.6699 H   0  0  0  0  0  0  0  0  0  0  0  0
   71.6582  -15.0597  -27.3784 H   0  0  0  0  0  0  0  0  0  0  0  0
   71.6582  -13.4875  -28.1869 H   0  0  0  0  0  0  0  0  0  0  0  0
   71.8771  -14.6265  -30.4020 H   0  0  0  0  0  0  0  0  0  0  0  0
   71.8771  -16.1987  -29.5936 H   0  0  0  0  0  0  0  0  0  0  0  0
   73.9126  -15.5347  -28.3021 H   0  0  0  0  0  0  0  0  0  0  0  0
   73.9126  -13.9624  -29.1105 H   0  0  0  0  0  0  0  0  0  0  0  0
   74.1315  -15.1014  -31.3257 H   0  0  0  0  0  0  0  0  0  0  0  0
   74.1315  -16.6736  -30.5172 H   0  0  0  0  0  0  0  0  0  0  0  0
   76.1669  -16.0096  -29.2258 H   0  0  0  0  0  0  0  0  0  0  0  0
   76.1671  -14.4374  -30.0342 H   0  0  0  0  0  0  0  0  0  0  0  0
   76.3870  -15.5754  -32.2491 H   0  0  0  0  0  0  0  0  0  0  0  0
   76.3849  -17.1482  -31.4418 H   0  0  0  0  0  0  0  0  0  0  0  0
   78.4203  -16.4872  -30.1487 H   0  0  0  0  0  0  0  0  0  0  0  0
   78.4225  -14.9144  -30.9560 H   0  0  0  0  0  0  0  0  0  0  0  0
   78.6414  -16.0522  -33.1719 H   0  0  0  0  0  0  0  0  0  0  0  0
   78.6392  -17.6249  -32.3645 H   0  0  0  0  0  0  0  0  0  0  0  0
   80.6744  -16.9625  -31.0707 H   0  0  0  0  0  0  0  0  0  0  0  0
   80.6768  -15.3912  -31.8799 H   0  0  0  0  0  0  0  0  0  0  0  0
   80.8959  -16.5331  -34.0928 H   0  0  0  0  0  0  0  0  0  0  0  0
   80.8953  -18.1023  -33.2832 H   0  0  0  0  0  0  0  0  0  0  0  0
   82.9381  -17.4410  -31.9971 H   0  0  0  0  0  0  0  0  0  0  0  0
   82.9385  -15.8692  -32.8081 H   0  0  0  0  0  0  0  0  0  0  0  0
   83.1752  -18.5841  -34.2067 H   0  0  0  0  0  0  0  0  0  0  0  0
   84.5086  -17.4400  -33.9231 H   0  0  0  0  0  0  0  0  0  0  0  0
   83.1756  -17.0075  -35.0201 H   0  0  0  0  0  0  0  0  0  0  0  0
  1  2  2  0  0  0  0
  2  3  1  0  0  0  0
  2  4  1  0  0  0  0
  3 79  1  0  0  0  0
  3 80  1  0  0  0  0
  3 81  1  0  0  0  0
  4  5  1  0  0  0  0
  4 82  1  0  0  0  0
  4 83  1  0  0  0  0
  5  6  1  0  0  0  0
  5 84  1  0  0  0  0
  5 85  1  0  0  0  0
  6  7  1  0  0  0  0
  6 86  1  0  0  0  0
  6 87  1  0  0  0  0
  7  8  1  0  0  0  0
  8  9  1  0  0  0  0
  8 88  1  0  0  0  0
  8 89  1  0  0  0  0
  9 10  1  0  0  0  0
  9 90  1  0  0  0  0
  9 91  1  0  0  0  0
 10 11  1  0  0  0  0
 10 92  1  0  0  0  0
 10 93  1  0  0  0  0
 11 12  1  0  0  0  0
 11 94  1  0  0  0  0
 11 95  1  0  0  0  0
 12 13  1  0  0  0  0
 12 96  1  0  0  0  0
 12 97  1  0  0  0  0
 13 14  1  0  0  0  0
 13 98  1  0  0  0  0
 13 99  1  0  0  0  0
 14 15  1  0  0  0  0
 14100  1  0  0  0  0
 14101  1  0  0  0  0
 15 16  1  0  0  0  0
 15102  1  0  0  0  0
 15103  1  0  0  0  0
 16 17  1  0  0  0  0
 16104  1  0  0  0  0
 16105  1  0  0  0  0
 17 18  1  0  0  0  0
 17106  1  0  0  0  0
 17107  1  0  0  0  0
 18 19  1  0  0  0  0
 18108  1  0  0  0  0
 18109  1  0  0  0  0
 19 20  1  0  0  0  0
 19110  1  0  0  0  0
 19111  1  0  0  0  0
 20 21  1  0  0  0  0
 20112  1  0  0  0  0
 20113  1  0  0  0  0
 21 22  1  0  0  0  0
 21114  1  0  0  0  0
 21115  1  0  0  0  0
 22 23  1  0  0  0  0
 23 24  1  0  0  0  0
 24 25  1  0  0  0  0
 25 26  1  0  0  0  0
 26 27  1  0  0  0  0
 27 28  1  0  0  0  0
 28 29  1  0  0  0  0
 29 30  1  0  0  0  0
 30 31  1  0  0  0  0
 31 32  1  0  0  0  0
 32 33  1  0  0  0  0
 33 34  1  0  0  0  0
 34 35  1  0  0  0  0
 35 36  1  0  0  0  0
 36 37  1  0  0  0  0
 37 38  1  0  0  0  0
 38 39  1  0  0  0  0
 39 40  1  0  0  0  0
 40 41  1  0  0  0  0
 41 42  1  0  0  0  0
 41116  1  0  0  0  0
 41117  1  0  0  0  0
 42 43  1  0  0  0  0
 43 44  1  0  0  0  0
 43118  1  0  0  0  0
 43119  1  0  0  0  0
 44 45  1  0  0  0  0
 44120  1  0  0  0  0
 44121  1  0  0  0  0
 45 46  1  0  0  0  0
 45122  1  0  0  0  0
 45123  1  0  0  0  0
 46 47  1  0  0  0  0
 46124  1  0  0  0  0
 46125  1  0  0  0  0
 47 48  1  0  0  0  0
 47126  1  0  0  0  0
 47127  1  0  0  0  0
 48 49  1  0  0  0  0
 48128  1  0  0  0  0
 48129  1  0  0  0  0
 49 50  1  0  0  0  0
 49130  1  0  0  0  0
 49131  1  0  0  0  0
 50 51  1  0  0  0  0
 50132  1  0  0  0  0
 50133  1  0  0  0  0
 51 52  1  0  0  0  0
 51134  1  0  0  0  0
 51135  1  0  0  0  0
 52 53  1  0  0  0  0
 52136  1  0  0  0  0
 52137  1  0  0  0  0
 53 54  1  0  0  0  0
 53138  1  0  0  0  0
 53139  1  0  0  0  0
 54 55  1  0  0  0  0
 54140  1  0  0  0  0
 54141  1  0  0  0  0
 55 56  1  0  0  0  0
 55142  1  0  0  0  0
 55143  1  0  0  0  0
 56 57  1  0  0  0  0
 56144  1  0  0  0  0
 56145  1  0  0  0  0
 57 58  1  0  0  0  0
 57146  1  0  0  0  0
 57147  1  0  0  0  0
 58 59  1  0  0  0  0
 58148  1  0  0  0  0
 58149  1  0  0  0  0
 59 60  1  0  0  0  0
 59150  1  0  0  0  0
 59151  1  0  0  0  0
 60 61  1  0  0  0  0
 60152  1  0  0  0  0
 60153  1  0  0  0  0
 61 62  1  0  0  0  0
 61154  1  0  0  0  0
 61155  1  0  0  0  0
 62 63  1  0  0  0  0
 62156  1  0  0  0  0
 62157  1  0  0  0  0
 63 64  1  0  0  0  0
 63158  1  0  0  0  0
 63159  1  0  0  0  0
 64 65  1  0  0  0  0
 64160  1  0  0  0  0
 64161  1  0  0  0  0
 65 66  1  0  0  0  0
 65162  1  0  0  0  0
 65163  1  0  0  0  0
 66 67  1  0  0  0  0
 66164  1  0  0  0  0
 66165  1  0  0  0  0
 67 68  1  0  0  0  0
 67166  1  0  0  0  0
 67167  1  0  0  0  0
 68 69  1  0  0  0  0
 68168  1  0  0  0  0
 68169  1  0  0  0  0
 69 70  1  0  0  0  0
 69170  1  0  0  0  0
 69171  1  0  0  0  0
 70 71  1  0  0  0  0
 70172  1  0  0  0  0
 70173  1  0  0  0  0
 71 72  1  0  0  0  0
 71174  1  0  0  0  0
 71175  1  0  0  0  0
 72 73  1  0  0  0  0
 72176  1  0  0  0  0
 72177  1  0  0  0  0
 73 74  1  0  0  0  0
 73178  1  0  0  0  0
 73179  1  0  0  0  0
 74 75  1  0  0  0  0
 74180  1  0  0  0  0
 74181  1  0  0  0  0
 75 76  1  0  0  0  0
 75182  1  0  0  0  0
 75183  1  0  0  0  0
 76 77  1  0  0  0  0
 76184  1  0  0  0  0
 76185  1  0  0  0  0
 77 78  1  0  0  0  0
 77186  1  0  0  0  0
 77187  1  0  0  0  0
 78188  1  0  0  0  0
 78189  1  0  0  0  0
 78190  1  0  0  0  0
M  END
$$$$
