
 OpenBabel04232216463D

 59 59  0  0  0  0  0  0  0  0999 V2000
    3.3320    2.1387   -0.7546 C   0  0  0  0  0  0  0  0  0  0  0  0
    4.4995    2.3375    0.1890 C   0  0  0  0  0  0  0  0  0  0  0  0
    4.3633    1.6078    1.4339 C   0  0  0  0  0  0  0  0  0  0  0  0
    4.7583    0.3072    1.5588 C   0  0  0  0  0  0  0  0  0  0  0  0
    4.8350   -0.5941    0.3356 C   0  0  0  0  0  0  0  0  0  0  0  0
    5.2083   -2.0796    0.4126 C   0  0  0  0  0  0  0  0  0  0  0  0
    4.1728   -3.0425    0.9640 C   0  0  0  0  0  0  0  0  0  0  0  0
    4.7701   -4.4441    0.8165 C   0  0  0  0  0  0  0  0  0  0  0  0
    3.8887   -5.5404    1.3882 C   0  0  0  0  0  0  0  0  0  0  0  0
    4.5717   -6.8944    1.2001 C   0  0  0  0  0  0  0  0  0  0  0  0
    3.7233   -8.0242    1.7545 C   0  0  0  0  0  0  0  0  0  0  0  0
    5.5769    0.0436    2.7751 C   0  0  0  0  0  0  0  0  0  0  0  0
    6.8672    0.4834    2.6529 C   0  0  0  0  0  0  0  0  0  0  0  0
    7.7094   -0.0846    1.5198 C   0  0  0  0  0  0  0  0  0  0  0  0
    7.2093    1.9024    3.0270 C   0  0  0  0  0  0  0  0  0  0  0  0
    6.2810    2.7184    3.9305 C   0  0  0  0  0  0  0  0  0  0  0  0
    8.0364    2.5734    2.1810 C   0  0  0  0  0  0  0  0  0  0  0  0
    9.4907    2.2006    1.8415 C   0  0  0  0  0  0  0  0  0  0  0  0
   10.2949    1.4843    2.9387 C   0  0  0  0  0  0  0  0  0  0  0  0
    7.5445    3.7893    1.5377 C   0  0  0  0  0  0  0  0  0  0  0  0
    8.2478    5.0284    2.0482 C   0  0  0  0  0  0  0  0  0  0  0  0
    6.5338    3.9195    0.6355 C   0  0  0  0  0  0  0  0  0  0  0  0
    5.5342    3.1551   -0.1246 C   0  0  0  0  0  0  0  0  0  0  0  0
    2.5413    2.8555   -0.4998 H   0  0  0  0  0  0  0  0  0  0  0  0
    2.8763    1.1486   -0.6811 H   0  0  0  0  0  0  0  0  0  0  0  0
    3.6126    2.2921   -1.7999 H   0  0  0  0  0  0  0  0  0  0  0  0
    4.2551    2.2672    2.2837 H   0  0  0  0  0  0  0  0  0  0  0  0
    5.5418   -0.1386   -0.3670 H   0  0  0  0  0  0  0  0  0  0  0  0
    3.8580   -0.5838   -0.1577 H   0  0  0  0  0  0  0  0  0  0  0  0
    6.1023   -2.2610    1.0002 H   0  0  0  0  0  0  0  0  0  0  0  0
    5.4528   -2.3885   -0.6124 H   0  0  0  0  0  0  0  0  0  0  0  0
    3.2310   -2.9618    0.4095 H   0  0  0  0  0  0  0  0  0  0  0  0
    3.9675   -2.8183    2.0189 H   0  0  0  0  0  0  0  0  0  0  0  0
    5.7468   -4.4796    1.3167 H   0  0  0  0  0  0  0  0  0  0  0  0
    4.9545   -4.6467   -0.2462 H   0  0  0  0  0  0  0  0  0  0  0  0
    2.9159   -5.5347    0.8838 H   0  0  0  0  0  0  0  0  0  0  0  0
    3.7126   -5.3545    2.4542 H   0  0  0  0  0  0  0  0  0  0  0  0
    5.5466   -6.8962    1.7025 H   0  0  0  0  0  0  0  0  0  0  0  0
    4.7606   -7.0743    0.1351 H   0  0  0  0  0  0  0  0  0  0  0  0
    3.5515   -7.8903    2.8267 H   0  0  0  0  0  0  0  0  0  0  0  0
    4.2279   -8.9831    1.6051 H   0  0  0  0  0  0  0  0  0  0  0  0
    2.7533   -8.0645    1.2499 H   0  0  0  0  0  0  0  0  0  0  0  0
    5.0066    0.3513    3.6559 H   0  0  0  0  0  0  0  0  0  0  0  0
    7.3755   -1.0368    1.1522 H   0  0  0  0  0  0  0  0  0  0  0  0
    8.7222   -0.3088    1.8500 H   0  0  0  0  0  0  0  0  0  0  0  0
    7.7123    0.5717    0.6411 H   0  0  0  0  0  0  0  0  0  0  0  0
    5.2468    2.3881    3.9802 H   0  0  0  0  0  0  0  0  0  0  0  0
    6.2309    3.7783    3.6515 H   0  0  0  0  0  0  0  0  0  0  0  0
    6.6621    2.6972    4.9556 H   0  0  0  0  0  0  0  0  0  0  0  0
   10.0608    3.1100    1.6147 H   0  0  0  0  0  0  0  0  0  0  0  0
    9.5357    1.6216    0.9132 H   0  0  0  0  0  0  0  0  0  0  0  0
   10.5875    2.1873    3.7290 H   0  0  0  0  0  0  0  0  0  0  0  0
   11.2159    1.0714    2.5123 H   0  0  0  0  0  0  0  0  0  0  0  0
    9.7612    0.6619    3.4174 H   0  0  0  0  0  0  0  0  0  0  0  0
    7.5164    5.7944    2.3275 H   0  0  0  0  0  0  0  0  0  0  0  0
    8.9310    5.4338    1.2961 H   0  0  0  0  0  0  0  0  0  0  0  0
    8.8322    4.8204    2.9544 H   0  0  0  0  0  0  0  0  0  0  0  0
    6.4404    4.9490    0.2769 H   0  0  0  0  0  0  0  0  0  0  0  0
    5.5209    3.5132   -1.1615 H   0  0  0  0  0  0  0  0  0  0  0  0
  1  2  1  0  0  0  0
  1 24  1  0  0  0  0
  1 25  1  0  0  0  0
  1 26  1  0  0  0  0
  2  3  1  0  0  0  0
  2 23  2  0  0  0  0
  3  4  2  0  0  0  0
  3 27  1  0  0  0  0
  4  5  1  0  0  0  0
  4 12  1  0  0  0  0
  5  6  1  0  0  0  0
  5 28  1  0  0  0  0
  5 29  1  0  0  0  0
  6  7  1  0  0  0  0
  6 30  1  0  0  0  0
  6 31  1  0  0  0  0
  7  8  1  0  0  0  0
  7 32  1  0  0  0  0
  7 33  1  0  0  0  0
  8  9  1  0  0  0  0
  8 34  1  0  0  0  0
  8 35  1  0  0  0  0
  9 10  1  0  0  0  0
  9 36  1  0  0  0  0
  9 37  1  0  0  0  0
 10 11  1  0  0  0  0
 10 38  1  0  0  0  0
 10 39  1  0  0  0  0
 11 40  1  0  0  0  0
 11 41  1  0  0  0  0
 11 42  1  0  0  0  0
 12 13  2  0  0  0  0
 12 43  1  0  0  0  0
 13 14  1  0  0  0  0
 13 15  1  0  0  0  0
 14 44  1  0  0  0  0
 14 45  1  0  0  0  0
 14 46  1  0  0  0  0
 15 16  1  0  0  0  0
 15 17  2  0  0  0  0
 16 47  1  0  0  0  0
 16 48  1  0  0  0  0
 16 49  1  0  0  0  0
 17 18  1  0  0  0  0
 17 20  1  0  0  0  0
 18 19  1  0  0  0  0
 18 50  1  0  0  0  0
 18 51  1  0  0  0  0
 19 52  1  0  0  0  0
 19 53  1  0  0  0  0
 19 54  1  0  0  0  0
 20 21  1  0  0  0  0
 20 22  2  0  0  0  0
 21 55  1  0  0  0  0
 21 56  1  0  0  0  0
 21 57  1  0  0  0  0
 22 23  1  0  0  0  0
 22 58  1  0  0  0  0
 23 59  1  0  0  0  0
M  END
$$$$
