
 OpenBabel04232216423D

 62 63  0  0  0  0  0  0  0  0999 V2000
    5.7620    2.0714    0.5194 C   0  0  0  0  0  0  0  0  0  0  0  0
    4.8079    1.3002   -0.3929 C   0  0  0  0  0  0  0  0  0  0  0  0
    4.4621    0.0057   -0.4640 C   0  0  0  0  0  0  0  0  0  0  0  0
    5.3487   -1.0355    0.0311 C   0  0  0  0  0  0  0  0  0  0  0  0
    6.0127   -1.3800    1.1724 N   0  0  0  0  0  0  0  0  0  0  0  0
    5.9274   -0.6711    2.4201 C   0  0  0  0  0  0  0  0  0  0  0  0
    5.6954   -1.5657    3.6474 C   0  0  0  0  0  0  0  0  0  0  0  0
    6.8817   -2.2966    4.0887 N   0  0  0  0  0  0  0  0  0  0  0  0
    6.0353   -1.8279   -0.6377 N   0  0  0  0  0  0  0  0  0  0  0  0
    6.9697   -1.7790    0.3803 C   0  0  0  0  0  0  0  0  0  0  0  0
    8.3247   -1.9186    0.2915 C   0  0  0  0  0  0  0  0  0  0  0  0
    8.9308   -2.1549   -1.0837 C   0  0  0  0  0  0  0  0  0  0  0  0
    9.7756   -3.4159   -1.2163 C   0  0  0  0  0  0  0  0  0  0  0  0
    8.9997   -4.6681   -0.8358 C   0  0  0  0  0  0  0  0  0  0  0  0
    9.9138   -5.8836   -0.8787 C   0  0  0  0  0  0  0  0  0  0  0  0
    9.1542   -7.1264   -0.4365 C   0  0  0  0  0  0  0  0  0  0  0  0
   10.0595   -8.3508   -0.4567 C   0  0  0  0  0  0  0  0  0  0  0  0
    9.2987   -9.5881   -0.0167 C   0  0  0  0  0  0  0  0  0  0  0  0
    9.1641   -1.4081    1.3641 C   0  0  0  0  0  0  0  0  0  0  0  0
   10.4920   -1.1702    1.3697 C   0  0  0  0  0  0  0  0  0  0  0  0
   11.0189   -0.0385    2.1589 C   0  0  0  0  0  0  0  0  0  0  0  0
   10.4228    0.2525    3.5305 C   0  0  0  0  0  0  0  0  0  0  0  0
   11.5437    0.9612    1.3941 C   0  0  0  0  0  0  0  0  0  0  0  0
   10.6656    2.1427    1.2837 C   0  0  0  0  0  0  0  0  0  0  0  0
    9.6117    2.0601    0.4352 C   0  0  0  0  0  0  0  0  0  0  0  0
    8.2672    2.5038    0.8230 C   0  0  0  0  0  0  0  0  0  0  0  0
    7.1673    2.3911    0.0404 C   0  0  0  0  0  0  0  0  0  0  0  0
    5.2709    3.0425    0.6902 H   0  0  0  0  0  0  0  0  0  0  0  0
    5.8067    1.6193    1.5035 H   0  0  0  0  0  0  0  0  0  0  0  0
    4.2079    1.9640   -1.0358 H   0  0  0  0  0  0  0  0  0  0  0  0
    3.7031   -0.3542   -1.1652 H   0  0  0  0  0  0  0  0  0  0  0  0
    5.0342   -0.0379    2.3961 H   0  0  0  0  0  0  0  0  0  0  0  0
    6.7794   -0.0030    2.5742 H   0  0  0  0  0  0  0  0  0  0  0  0
    4.8743   -2.2606    3.4683 H   0  0  0  0  0  0  0  0  0  0  0  0
    5.3881   -0.9137    4.4790 H   0  0  0  0  0  0  0  0  0  0  0  0
    7.1306   -2.9688    3.3591 H   0  0  0  0  0  0  0  0  0  0  0  0
    6.6444   -2.8497    4.9123 H   0  0  0  0  0  0  0  0  0  0  0  0
    9.5351   -1.2833   -1.3748 H   0  0  0  0  0  0  0  0  0  0  0  0
    8.1506   -2.2090   -1.8550 H   0  0  0  0  0  0  0  0  0  0  0  0
   10.6770   -3.3359   -0.6032 H   0  0  0  0  0  0  0  0  0  0  0  0
   10.1171   -3.5008   -2.2573 H   0  0  0  0  0  0  0  0  0  0  0  0
    8.1524   -4.8046   -1.5193 H   0  0  0  0  0  0  0  0  0  0  0  0
    8.5870   -4.5695    0.1747 H   0  0  0  0  0  0  0  0  0  0  0  0
   10.7733   -5.7207   -0.2166 H   0  0  0  0  0  0  0  0  0  0  0  0
   10.3067   -6.0189   -1.8936 H   0  0  0  0  0  0  0  0  0  0  0  0
    8.2943   -7.2854   -1.0982 H   0  0  0  0  0  0  0  0  0  0  0  0
    8.7590   -6.9745    0.5758 H   0  0  0  0  0  0  0  0  0  0  0  0
   10.9163   -8.1926    0.2087 H   0  0  0  0  0  0  0  0  0  0  0  0
   10.4553   -8.5040   -1.4672 H   0  0  0  0  0  0  0  0  0  0  0  0
    8.9171   -9.4683    1.0024 H   0  0  0  0  0  0  0  0  0  0  0  0
    9.9541  -10.4627   -0.0377 H   0  0  0  0  0  0  0  0  0  0  0  0
    8.4494   -9.7783   -0.6807 H   0  0  0  0  0  0  0  0  0  0  0  0
    8.5736   -0.9676    2.1552 H   0  0  0  0  0  0  0  0  0  0  0  0
   11.1194   -1.5042    0.5497 H   0  0  0  0  0  0  0  0  0  0  0  0
    9.3791   -0.0432    3.6474 H   0  0  0  0  0  0  0  0  0  0  0  0
   10.4481    1.3195    3.7782 H   0  0  0  0  0  0  0  0  0  0  0  0
   10.9998   -0.2620    4.3031 H   0  0  0  0  0  0  0  0  0  0  0  0
   12.0246    0.7136    0.4439 H   0  0  0  0  0  0  0  0  0  0  0  0
   10.6614    2.8011    2.1437 H   0  0  0  0  0  0  0  0  0  0  0  0
    9.6533    1.3375   -0.3877 H   0  0  0  0  0  0  0  0  0  0  0  0
    8.1433    2.5574    1.9045 H   0  0  0  0  0  0  0  0  0  0  0  0
    7.1373    3.2213   -0.6787 H   0  0  0  0  0  0  0  0  0  0  0  0
  1  2  1  0  0  0  0
  1 27  1  0  0  0  0
  1 28  1  0  0  0  0
  1 29  1  0  0  0  0
  2  3  2  3  0  0  0
  2 30  1  0  0  0  0
  3  4  1  0  0  0  0
  3 31  1  0  0  0  0
  4  5  1  0  0  0  0
  4  9  2  0  0  0  0
  5  6  1  0  0  0  0
  5 10  1  0  0  0  0
  6  7  1  0  0  0  0
  6 32  1  0  0  0  0
  6 33  1  0  0  0  0
  7  8  1  0  0  0  0
  7 34  1  0  0  0  0
  7 35  1  0  0  0  0
  8 36  1  0  0  0  0
  8 37  1  0  0  0  0
  9 10  1  0  0  0  0
 10 11  2  3  0  0  0
 11 12  1  0  0  0  0
 11 19  1  0  0  0  0
 12 13  1  0  0  0  0
 12 38  1  0  0  0  0
 12 39  1  0  0  0  0
 13 14  1  0  0  0  0
 13 40  1  0  0  0  0
 13 41  1  0  0  0  0
 14 15  1  0  0  0  0
 14 42  1  0  0  0  0
 14 43  1  0  0  0  0
 15 16  1  0  0  0  0
 15 44  1  0  0  0  0
 15 45  1  0  0  0  0
 16 17  1  0  0  0  0
 16 46  1  0  0  0  0
 16 47  1  0  0  0  0
 17 18  1  0  0  0  0
 17 48  1  0  0  0  0
 17 49  1  0  0  0  0
 18 50  1  0  0  0  0
 18 51  1  0  0  0  0
 18 52  1  0  0  0  0
 19 20  2  3  0  0  0
 19 53  1  0  0  0  0
 20 21  1  0  0  0  0
 20 54  1  0  0  0  0
 21 22  1  0  0  0  0
 21 23  2  3  0  0  0
 22 55  1  0  0  0  0
 22 56  1  0  0  0  0
 22 57  1  0  0  0  0
 23 24  1  0  0  0  0
 23 58  1  0  0  0  0
 24 25  2  3  0  0  0
 24 59  1  0  0  0  0
 25 26  1  0  0  0  0
 25 60  1  0  0  0  0
 26 27  2  3  0  0  0
 26 61  1  0  0  0  0
 27 62  1  0  0  0  0
M  END
$$$$
