
 OpenBabel04232217033D

 48 47  0  0  0  0  0  0  0  0999 V2000
    4.4961   -2.9782   -6.7078 S   0  0  0  0  0  0  0  0  0  0  0  0
    6.1375   -3.0565   -6.8804 N   0  0  0  0  0  0  0  0  0  0  0  0
    6.7531   -2.3988   -5.7853 N   0  0  0  0  0  0  0  0  0  0  0  0
    8.1675   -2.4666   -5.8587 N   0  0  0  0  0  0  0  0  0  0  0  0
    8.7169   -1.7129   -6.9432 N   0  0  0  0  0  0  0  0  0  0  0  0
    8.2456   -0.3607   -6.9483 N   0  0  0  0  0  0  0  0  0  0  0  0
    8.7733    0.3642   -5.8277 N   0  0  0  0  0  0  0  0  0  0  0  0
   10.2072    0.3989   -5.8672 N   0  0  0  0  0  0  0  0  0  0  0  0
   10.6649    1.0650   -7.0553 N   0  0  0  0  0  0  0  0  0  0  0  0
   10.1995    2.4254   -7.0799 N   0  0  0  0  0  0  0  0  0  0  0  0
   10.6955    3.1449   -5.9374 N   0  0  0  0  0  0  0  0  0  0  0  0
   12.1350    3.1557   -5.9385 N   0  0  0  0  0  0  0  0  0  0  0  0
   12.6273    3.7823   -7.1370 N   0  0  0  0  0  0  0  0  0  0  0  0
   12.1467    5.1370   -7.2252 N   0  0  0  0  0  0  0  0  0  0  0  0
   12.6147    5.9063   -6.1034 N   0  0  0  0  0  0  0  0  0  0  0  0
   14.0515    5.9220   -6.0814 N   0  0  0  0  0  0  0  0  0  0  0  0
   14.5620    6.5397   -7.2771 N   0  0  0  0  0  0  0  0  0  0  0  0
   14.2195    7.9372   -7.3336 N   0  0  0  0  0  0  0  0  0  0  0  0
   14.6790    8.6098   -6.1381 N   0  0  0  0  0  0  0  0  0  0  0  0
   16.1436    8.6162   -6.1275 C   0  0  0  0  0  0  0  0  0  0  0  0
   16.6262    9.2931   -4.8538 C   0  0  0  0  0  0  0  0  0  0  0  0
   18.1400    9.2366   -4.7977 C   0  0  0  0  0  0  0  0  0  0  0  0
    4.1422   -3.6082   -7.8397 H   0  0  0  0  0  0  0  0  0  0  0  0
    6.4158   -2.5854   -7.7452 H   0  0  0  0  0  0  0  0  0  0  0  0
    6.4125   -2.7896   -4.8980 H   0  0  0  0  0  0  0  0  0  0  0  0
    8.5109   -3.4286   -5.8599 H   0  0  0  0  0  0  0  0  0  0  0  0
    8.5379   -2.1618   -7.8455 H   0  0  0  0  0  0  0  0  0  0  0  0
    7.2204   -0.3690   -6.8739 H   0  0  0  0  0  0  0  0  0  0  0  0
    8.4712   -0.1141   -4.9685 H   0  0  0  0  0  0  0  0  0  0  0  0
   10.5412   -0.5748   -5.8809 H   0  0  0  0  0  0  0  0  0  0  0  0
   10.2671    0.5668   -7.8614 H   0  0  0  0  0  0  0  0  0  0  0  0
    9.1718    2.3979   -7.0295 H   0  0  0  0  0  0  0  0  0  0  0  0
   10.3730    2.6439   -5.0988 H   0  0  0  0  0  0  0  0  0  0  0  0
   12.4423    2.1746   -5.9333 H   0  0  0  0  0  0  0  0  0  0  0  0
   12.2459    3.2508   -7.9312 H   0  0  0  0  0  0  0  0  0  0  0  0
   11.1206    5.0923   -7.1813 H   0  0  0  0  0  0  0  0  0  0  0  0
   12.2834    5.4346   -5.2577 H   0  0  0  0  0  0  0  0  0  0  0  0
   14.3577    4.9438   -6.0679 H   0  0  0  0  0  0  0  0  0  0  0  0
   14.1304    6.0528   -8.0734 H   0  0  0  0  0  0  0  0  0  0  0  0
   13.1929    7.9891   -7.3629 H   0  0  0  0  0  0  0  0  0  0  0  0
   14.3677    8.0281   -5.3565 H   0  0  0  0  0  0  0  0  0  0  0  0
   16.5256    9.1496   -7.0079 H   0  0  0  0  0  0  0  0  0  0  0  0
   16.5542    7.6032   -6.1514 H   0  0  0  0  0  0  0  0  0  0  0  0
   16.2151    8.7940   -3.9657 H   0  0  0  0  0  0  0  0  0  0  0  0
   16.2929   10.3382   -4.8256 H   0  0  0  0  0  0  0  0  0  0  0  0
   18.4991    8.2011   -4.7549 H   0  0  0  0  0  0  0  0  0  0  0  0
   18.5011    9.7483   -3.8977 H   0  0  0  0  0  0  0  0  0  0  0  0
   18.5880    9.7217   -5.6722 H   0  0  0  0  0  0  0  0  0  0  0  0
  1  2  1  0  0  0  0
  1 23  1  0  0  0  0
  2  3  1  0  0  0  0
  2 24  1  0  0  0  0
  3  4  1  0  0  0  0
  3 25  1  0  0  0  0
  4  5  1  0  0  0  0
  4 26  1  0  0  0  0
  5  6  1  0  0  0  0
  5 27  1  0  0  0  0
  6  7  1  0  0  0  0
  6 28  1  0  0  0  0
  7  8  1  0  0  0  0
  7 29  1  0  0  0  0
  8  9  1  0  0  0  0
  8 30  1  0  0  0  0
  9 10  1  0  0  0  0
  9 31  1  0  0  0  0
 10 11  1  0  0  0  0
 10 32  1  0  0  0  0
 11 12  1  0  0  0  0
 11 33  1  0  0  0  0
 12 13  1  0  0  0  0
 12 34  1  0  0  0  0
 13 14  1  0  0  0  0
 13 35  1  0  0  0  0
 14 15  1  0  0  0  0
 14 36  1  0  0  0  0
 15 16  1  0  0  0  0
 15 37  1  0  0  0  0
 16 17  1  0  0  0  0
 16 38  1  0  0  0  0
 17 18  1  0  0  0  0
 17 39  1  0  0  0  0
 18 19  1  0  0  0  0
 18 40  1  0  0  0  0
 19 20  1  0  0  0  0
 19 41  1  0  0  0  0
 20 21  1  0  0  0  0
 20 42  1  0  0  0  0
 20 43  1  0  0  0  0
 21 22  1  0  0  0  0
 21 44  1  0  0  0  0
 21 45  1  0  0  0  0
 22 46  1  0  0  0  0
 22 47  1  0  0  0  0
 22 48  1  0  0  0  0
M  END
$$$$
