
 OpenBabel04232216393D

 39 39  0  0  0  0  0  0  0  0999 V2000
    8.1849   -0.2847    3.2753 C   0  0  0  0  0  0  0  0  0  0  0  0
    8.4279    1.0355    3.0972 C   0  0  0  0  0  0  0  0  0  0  0  0
    7.1828    1.6803    2.6178 C   0  0  0  0  0  0  0  0  0  0  0  0
    6.5363    1.8592    1.4485 C   0  0  0  0  0  0  0  0  0  0  0  0
    5.4950    2.9042    1.3867 C   0  0  0  0  0  0  0  0  0  0  0  0
    5.8092    4.1954    1.6580 C   0  0  0  0  0  0  0  0  0  0  0  0
    6.6523    4.5646    2.7707 C   0  0  0  0  0  0  0  0  0  0  0  0
    7.9797    4.4770    2.6882 C   0  0  0  0  0  0  0  0  0  0  0  0
    8.8319    4.8773    3.7502 C   0  0  0  0  0  0  0  0  0  0  0  0
   10.0760    5.1415    3.3769 C   0  0  0  0  0  0  0  0  0  0  0  0
   10.8896    6.0193    4.1263 C   0  0  0  0  0  0  0  0  0  0  0  0
   11.9773    6.5200    3.5281 C   0  0  0  0  0  0  0  0  0  0  0  0
   13.0431    6.9696    4.3844 C   0  0  0  0  0  0  0  0  0  0  0  0
   14.0333    6.0197    4.2994 C   0  0  0  0  0  0  0  0  0  0  0  0
   13.9755    4.9310    5.2131 C   0  0  0  0  0  0  0  0  0  0  0  0
   13.2572    3.7603    5.2655 C   0  0  0  0  0  0  0  0  0  0  0  0
   12.5008    2.6986    4.3117 C   0  0  0  0  0  0  0  0  0  0  0  0
   10.8952    2.1527    3.8967 C   0  0  0  0  0  0  0  0  0  0  0  0
    9.9069    1.5591    3.0666 C   0  0  0  0  0  0  0  0  0  0  0  0
    7.2122   -0.4715    3.7875 H   0  0  0  0  0  0  0  0  0  0  0  0
    7.8592   -0.8072    2.3484 H   0  0  0  0  0  0  0  0  0  0  0  0
    6.6757    2.1579    3.4939 H   0  0  0  0  0  0  0  0  0  0  0  0
    6.7841    1.3893    0.4879 H   0  0  0  0  0  0  0  0  0  0  0  0
    4.6258    2.7408    0.7475 H   0  0  0  0  0  0  0  0  0  0  0  0
    6.2183    4.7090    0.7737 H   0  0  0  0  0  0  0  0  0  0  0  0
    6.1645    4.8544    3.7005 H   0  0  0  0  0  0  0  0  0  0  0  0
    8.4497    4.1140    1.7728 H   0  0  0  0  0  0  0  0  0  0  0  0
    8.4306    5.1617    4.7149 H   0  0  0  0  0  0  0  0  0  0  0  0
   10.4615    4.7909    2.4216 H   0  0  0  0  0  0  0  0  0  0  0  0
   10.6545    6.1949    5.1724 H   0  0  0  0  0  0  0  0  0  0  0  0
   12.2332    6.2236    2.5094 H   0  0  0  0  0  0  0  0  0  0  0  0
   12.6702    7.2269    5.3787 H   0  0  0  0  0  0  0  0  0  0  0  0
   14.5163    5.8832    3.3350 H   0  0  0  0  0  0  0  0  0  0  0  0
   14.6542    5.1606    6.0493 H   0  0  0  0  0  0  0  0  0  0  0  0
   13.6080    3.2312    6.1573 H   0  0  0  0  0  0  0  0  0  0  0  0
   12.7454    1.7996    4.9118 H   0  0  0  0  0  0  0  0  0  0  0  0
   13.1643    2.6108    3.4390 H   0  0  0  0  0  0  0  0  0  0  0  0
   11.5560    1.9443    3.0225 H   0  0  0  0  0  0  0  0  0  0  0  0
   10.2321    1.2421    2.0603 H   0  0  0  0  0  0  0  0  0  0  0  0
  1  2  2  0  0  0  0
  1 20  1  0  0  0  0
  1 21  1  0  0  0  0
  2  3  1  0  0  0  0
  2 19  1  0  0  0  0
  3  4  2  3  0  0  0
  3 22  1  0  0  0  0
  4  5  1  0  0  0  0
  4 23  1  0  0  0  0
  5  6  2  3  0  0  0
  5 24  1  0  0  0  0
  6  7  1  0  0  0  0
  6 25  1  0  0  0  0
  7  8  2  3  0  0  0
  7 26  1  0  0  0  0
  8  9  1  0  0  0  0
  8 27  1  0  0  0  0
  9 10  2  3  0  0  0
  9 28  1  0  0  0  0
 10 11  1  0  0  0  0
 10 29  1  0  0  0  0
 11 12  2  3  0  0  0
 11 30  1  0  0  0  0
 12 13  1  0  0  0  0
 12 31  1  0  0  0  0
 13 14  2  3  0  0  0
 13 32  1  0  0  0  0
 14 15  1  0  0  0  0
 14 33  1  0  0  0  0
 15 16  2  3  0  0  0
 15 34  1  0  0  0  0
 16 17  1  0  0  0  0
 16 35  1  0  0  0  0
 17 18  1  0  0  0  0
 17 36  1  0  0  0  0
 17 37  1  0  0  0  0
 18 19  2  3  0  0  0
 18 38  1  0  0  0  0
 19 39  1  0  0  0  0
M  END
$$$$
