
 OpenBabel04232216433D

 26 26  0  0  0  0  0  0  0  0999 V2000
   -0.3679   -1.3338   -0.9612 C   0  0  0  0  0  0  0  0  0  0  0  0
    0.8745   -1.1736   -0.2617 C   0  0  0  0  0  3  0  0  0  0  0  0
    1.5078    0.0690    0.0842 C   0  0  0  0  0  0  0  0  0  0  0  0
    0.8741    1.1623    0.5181 C   0  0  0  0  0  0  0  0  0  0  0  0
   -0.5402    1.3489    0.7166 C   0  0  0  0  0  0  0  0  0  0  0  0
   -1.7030    0.6335    0.0907 C   0  0  0  0  0  0  0  0  0  0  0  0
   -2.6406    0.1853    1.1271 N   0  0  0  0  0  0  0  0  0  0  0  0
   -2.1406   -0.3298    2.3964 C   0  0  0  0  0  0  0  0  0  0  0  0
   -3.3162   -0.8201    3.2308 C   0  0  0  0  0  0  0  0  0  0  0  0
   -2.4640    1.7044   -0.7304 C   0  0  0  0  0  0  0  0  0  0  0  0
   -1.4523   -0.5633   -0.7997 C   0  0  0  0  0  0  0  0  0  0  0  0
   -0.4177   -2.1766   -1.6478 H   0  0  0  0  0  0  0  0  0  0  0  0
    1.4957   -2.0635   -0.1846 H   0  0  0  0  0  0  0  0  0  0  0  0
    2.5944    0.0791    0.0116 H   0  0  0  0  0  0  0  0  0  0  0  0
    1.4862    2.0203    0.7919 H   0  0  0  0  0  0  0  0  0  0  0  0
   -0.7994    2.1872    1.3608 H   0  0  0  0  0  0  0  0  0  0  0  0
   -3.3290   -0.4491    0.7291 H   0  0  0  0  0  0  0  0  0  0  0  0
   -1.6387    0.4670    2.9554 H   0  0  0  0  0  0  0  0  0  0  0  0
   -1.4313   -1.1473    2.2404 H   0  0  0  0  0  0  0  0  0  0  0  0
   -4.0843   -0.0443    3.3254 H   0  0  0  0  0  0  0  0  0  0  0  0
   -2.9858   -1.0985    4.2368 H   0  0  0  0  0  0  0  0  0  0  0  0
   -3.7839   -1.6965    2.7697 H   0  0  0  0  0  0  0  0  0  0  0  0
   -1.7968    2.2454   -1.4122 H   0  0  0  0  0  0  0  0  0  0  0  0
   -2.9361    2.4452   -0.0701 H   0  0  0  0  0  0  0  0  0  0  0  0
   -3.2715    1.2689   -1.3316 H   0  0  0  0  0  0  0  0  0  0  0  0
   -2.3147   -0.8531   -1.4002 H   0  0  0  0  0  0  0  0  0  0  0  0
  1  2  1  0  0  0  0
  1 11  2  0  0  0  0
  1 12  1  0  0  0  0
  2  3  1  0  0  0  0
  2 13  1  0  0  0  0
  3  4  2  0  0  0  0
  3 14  1  0  0  0  0
  4  5  1  0  0  0  0
  4 15  1  0  0  0  0
  5  6  2  0  0  0  0
  5 16  1  0  0  0  0
  6  7  1  0  0  0  0
  6 10  1  0  0  0  0
  6 11  1  0  0  0  0
  7  8  1  0  0  0  0
  7 17  1  0  0  0  0
  8  9  1  0  0  0  0
  8 18  1  0  0  0  0
  8 19  1  0  0  0  0
  9 20  1  0  0  0  0
  9 21  1  0  0  0  0
  9 22  1  0  0  0  0
 10 23  1  0  0  0  0
 10 24  1  0  0  0  0
 10 25  1  0  0  0  0
 11 26  1  0  0  0  0
M  END
$$$$
