
 OpenBabel04232216533D

107106  0  0  0  0  0  0  0  0999 V2000
    1.0668   -0.0775    0.0933 C   0  0  0  0  0  0  0  0  0  0  0  0
    2.5812   -0.0743    0.0904 C   0  0  0  0  0  0  0  0  0  0  0  0
    3.0985   -0.8081   -1.1362 C   0  0  0  0  0  0  0  0  0  0  0  0
    4.6157   -0.8073   -1.1468 C   0  0  0  0  0  0  0  0  0  0  0  0
    5.1238   -1.5412   -2.3735 C   0  0  0  0  0  0  0  0  0  0  0  0
    6.6392   -1.5384   -2.3809 C   0  0  0  0  0  0  0  0  0  0  0  0
    7.1456   -2.2694   -3.6067 C   0  0  0  0  0  0  0  0  0  0  0  0
    8.6574   -2.2616   -3.6096 C   0  0  0  0  0  0  0  0  0  0  0  0
    9.1590   -2.9911   -4.8329 C   0  0  0  0  0  0  0  0  0  0  0  0
   10.6637   -2.9768   -4.8211 C   0  0  0  0  0  0  0  0  0  0  0  0
   11.1494   -3.7027   -6.0342 C   0  0  0  0  0  0  0  0  0  0  0  0
   12.6376   -3.6836   -6.0102 C   0  0  0  0  0  0  0  0  0  0  0  0
   12.9715   -4.3782   -7.1667 O   0  0  0  0  0  0  0  0  0  0  0  0
   14.3719   -4.3502   -7.1241 O   0  0  0  0  0  0  0  0  0  0  0  0
   14.8329   -5.0213   -8.2416 O   0  0  0  0  0  0  0  0  0  0  0  0
   16.2237   -4.9961   -8.1993 O   0  0  0  0  0  0  0  0  0  0  0  0
   16.6318   -5.6729   -9.3265 O   0  0  0  0  0  0  0  0  0  0  0  0
   18.0038   -5.6531   -9.2936 O   0  0  0  0  0  0  0  0  0  0  0  0
   18.4084   -6.3307  -10.4220 O   0  0  0  0  0  0  0  0  0  0  0  0
   19.7816   -6.3083  -10.3848 O   0  0  0  0  0  0  0  0  0  0  0  0
   20.1842   -6.9847  -11.5113 O   0  0  0  0  0  0  0  0  0  0  0  0
   21.5585   -6.9535  -11.4594 O   0  0  0  0  0  0  0  0  0  0  0  0
   21.9632   -7.6262  -12.5797 O   0  0  0  0  0  0  0  0  0  0  0  0
   23.3345   -7.6008  -12.5373 O   0  0  0  0  0  0  0  0  0  0  0  0
   23.7298   -8.2702  -13.6521 O   0  0  0  0  0  0  0  0  0  0  0  0
   25.0928   -8.2392  -13.6006 O   0  0  0  0  0  0  0  0  0  0  0  0
   25.4921   -8.9116  -14.7204 O   0  0  0  0  0  0  0  0  0  0  0  0
   26.8557   -8.8822  -14.6714 O   0  0  0  0  0  0  0  0  0  0  0  0
   27.2502   -9.5537  -15.7897 O   0  0  0  0  0  0  0  0  0  0  0  0
   28.6169   -9.5232  -15.7390 O   0  0  0  0  0  0  0  0  0  0  0  0
   29.0151  -10.1950  -16.8578 O   0  0  0  0  0  0  0  0  0  0  0  0
   30.3775  -10.1640  -16.8062 O   0  0  0  0  0  0  0  0  0  0  0  0
   30.7756  -10.8352  -17.9239 O   0  0  0  0  0  0  0  0  0  0  0  0
   32.1378  -10.8048  -17.8733 O   0  0  0  0  0  0  0  0  0  0  0  0
   32.5357  -11.4759  -18.9910 O   0  0  0  0  0  0  0  0  0  0  0  0
   33.8977  -11.4456  -18.9405 O   0  0  0  0  0  0  0  0  0  0  0  0
   34.2957  -12.1166  -20.0581 O   0  0  0  0  0  0  0  0  0  0  0  0
   35.6577  -12.0861  -20.0072 O   0  0  0  0  0  0  0  0  0  0  0  0
   36.0559  -12.7572  -21.1249 O   0  0  0  0  0  0  0  0  0  0  0  0
   37.4177  -12.7267  -21.0741 O   0  0  0  0  0  0  0  0  0  0  0  0
   37.8157  -13.3978  -22.1918 O   0  0  0  0  0  0  0  0  0  0  0  0
   39.1776  -13.3674  -22.1411 O   0  0  0  0  0  0  0  0  0  0  0  0
   39.5755  -14.0386  -23.2589 O   0  0  0  0  0  0  0  0  0  0  0  0
   40.9376  -14.0080  -23.2080 O   0  0  0  0  0  0  0  0  0  0  0  0
   41.3358  -14.6791  -24.3257 O   0  0  0  0  0  0  0  0  0  0  0  0
   42.6977  -14.6487  -24.2750 O   0  0  0  0  0  0  0  0  0  0  0  0
   43.0958  -15.3198  -25.3927 O   0  0  0  0  0  0  0  0  0  0  0  0
   44.4577  -15.2893  -25.3419 O   0  0  0  0  0  0  0  0  0  0  0  0
   44.8558  -15.9604  -26.4596 O   0  0  0  0  0  0  0  0  0  0  0  0
   46.2177  -15.9300  -26.4089 O   0  0  0  0  0  0  0  0  0  0  0  0
   46.6158  -16.6011  -27.5265 O   0  0  0  0  0  0  0  0  0  0  0  0
   47.9776  -16.5706  -27.4758 O   0  0  0  0  0  0  0  0  0  0  0  0
   48.3756  -17.2417  -28.5935 O   0  0  0  0  0  0  0  0  0  0  0  0
   49.7376  -17.2113  -28.5427 O   0  0  0  0  0  0  0  0  0  0  0  0
   50.1358  -17.8824  -29.6604 O   0  0  0  0  0  0  0  0  0  0  0  0
   51.4976  -17.8519  -29.6097 O   0  0  0  0  0  0  0  0  0  0  0  0
   51.8957  -18.5230  -30.7274 O   0  0  0  0  0  0  0  0  0  0  0  0
   53.2575  -18.4925  -30.6766 O   0  0  0  0  0  0  0  0  0  0  0  0
   53.6558  -19.1637  -31.7944 O   0  0  0  0  0  0  0  0  0  0  0  0
   55.0177  -19.1331  -31.7435 O   0  0  0  0  0  0  0  0  0  0  0  0
   55.4161  -19.8043  -32.8613 O   0  0  0  0  0  0  0  0  0  0  0  0
   56.7780  -19.7738  -32.8105 O   0  0  0  0  0  0  0  0  0  0  0  0
   57.1762  -20.4448  -33.9280 O   0  0  0  0  0  0  0  0  0  0  0  0
   58.5384  -20.4149  -33.8781 O   0  0  0  0  0  0  0  0  0  0  0  0
   58.9378  -21.0868  -34.9971 O   0  0  0  0  0  0  0  0  0  0  0  0
   60.2994  -21.0560  -34.9458 O   0  0  0  0  0  0  0  0  0  0  0  0
   60.6912  -21.7280  -36.0649 O   0  0  0  0  0  0  0  0  0  0  0  0
   62.0634  -21.6972  -36.0137 O   0  0  0  0  0  0  0  0  0  0  0  0
   62.4654  -22.3686  -37.1319 O   0  0  0  0  0  0  0  0  0  0  0  0
   63.8413  -22.3437  -37.0905 O   0  0  0  0  0  0  0  0  0  0  0  0
   64.2302  -23.0141  -38.2069 O   0  0  0  0  0  0  0  0  0  0  0  0
   65.5986  -22.9907  -38.1680 O   0  0  0  0  0  0  0  0  0  0  0  0
   66.0173  -23.6677  -39.2954 O   0  0  0  0  0  0  0  0  0  0  0  0
   67.3790  -23.6386  -39.2470 O   0  0  0  0  0  0  0  0  0  0  0  0
   67.8079  -24.3131  -40.3703 O   0  0  0  0  0  0  0  0  0  0  0  0
   69.1906  -24.3009  -40.3488 O   0  0  0  0  0  0  0  0  0  0  0  0
   69.6197  -24.9691  -41.4622 O   0  0  0  0  0  0  0  0  0  0  0  0
   71.0130  -24.9565  -41.4653 O   0  0  0  0  0  0  0  0  0  0  0  0
   71.4463  -25.6468  -42.6387 O   0  0  0  0  0  0  0  0  0  0  0  0
   72.8578  -25.6646  -42.6242 O   0  0  0  0  0  0  0  0  0  0  0  0
   73.3246  -26.3213  -41.4304 O   0  0  0  0  0  0  0  0  0  0  0  0
    0.6898    0.4489    0.9732 H   0  0  0  0  0  0  0  0  0  0  0  0
    0.6844   -1.1031    0.1096 H   0  0  0  0  0  0  0  0  0  0  0  0
    0.6795    0.4183   -0.8026 H   0  0  0  0  0  0  0  0  0  0  0  0
    2.9550   -0.5568    1.0011 H   0  0  0  0  0  0  0  0  0  0  0  0
    2.9500    0.9581    0.0928 H   0  0  0  0  0  0  0  0  0  0  0  0
    2.7212   -0.3274   -2.0474 H   0  0  0  0  0  0  0  0  0  0  0  0
    2.7284   -1.8410   -1.1389 H   0  0  0  0  0  0  0  0  0  0  0  0
    4.9970   -1.2909   -0.2391 H   0  0  0  0  0  0  0  0  0  0  0  0
    4.9897    0.2239   -1.1484 H   0  0  0  0  0  0  0  0  0  0  0  0
    4.7453   -1.0591   -3.2834 H   0  0  0  0  0  0  0  0  0  0  0  0
    4.7526   -2.5735   -2.3744 H   0  0  0  0  0  0  0  0  0  0  0  0
    7.0204   -2.0229   -1.4735 H   0  0  0  0  0  0  0  0  0  0  0  0
    7.0131   -0.5071   -2.3806 H   0  0  0  0  0  0  0  0  0  0  0  0
    6.7681   -1.7871   -4.5168 H   0  0  0  0  0  0  0  0  0  0  0  0
    6.7776   -3.3028   -3.6089 H   0  0  0  0  0  0  0  0  0  0  0  0
    9.0421   -2.7462   -2.7036 H   0  0  0  0  0  0  0  0  0  0  0  0
    9.0326   -1.2306   -3.6114 H   0  0  0  0  0  0  0  0  0  0  0  0
    8.7878   -2.5097   -5.7462 H   0  0  0  0  0  0  0  0  0  0  0  0
    8.7950   -4.0261   -4.8388 H   0  0  0  0  0  0  0  0  0  0  0  0
   11.0517   -3.4644   -3.9182 H   0  0  0  0  0  0  0  0  0  0  0  0
   11.0446   -1.9481   -4.8284 H   0  0  0  0  0  0  0  0  0  0  0  0
   10.7940   -3.2385   -6.9638 H   0  0  0  0  0  0  0  0  0  0  0  0
   10.7988   -4.7431   -6.0616 H   0  0  0  0  0  0  0  0  0  0  0  0
   13.0530   -4.2022   -5.1386 H   0  0  0  0  0  0  0  0  0  0  0  0
   13.0482   -2.6687   -6.0611 H   0  0  0  0  0  0  0  0  0  0  0  0
   74.2512  -26.2012  -41.6365 H   0  0  0  0  0  0  0  0  0  0  0  0
  1  2  1  0  0  0  0
  1 82  1  0  0  0  0
  1 83  1  0  0  0  0
  1 84  1  0  0  0  0
  2  3  1  0  0  0  0
  2 85  1  0  0  0  0
  2 86  1  0  0  0  0
  3  4  1  0  0  0  0
  3 87  1  0  0  0  0
  3 88  1  0  0  0  0
  4  5  1  0  0  0  0
  4 89  1  0  0  0  0
  4 90  1  0  0  0  0
  5  6  1  0  0  0  0
  5 91  1  0  0  0  0
  5 92  1  0  0  0  0
  6  7  1  0  0  0  0
  6 93  1  0  0  0  0
  6 94  1  0  0  0  0
  7  8  1  0  0  0  0
  7 95  1  0  0  0  0
  7 96  1  0  0  0  0
  8  9  1  0  0  0  0
  8 97  1  0  0  0  0
  8 98  1  0  0  0  0
  9 10  1  0  0  0  0
  9 99  1  0  0  0  0
  9100  1  0  0  0  0
 10 11  1  0  0  0  0
 10101  1  0  0  0  0
 10102  1  0  0  0  0
 11 12  1  0  0  0  0
 11103  1  0  0  0  0
 11104  1  0  0  0  0
 12 13  1  0  0  0  0
 12105  1  0  0  0  0
 12106  1  0  0  0  0
 13 14  1  0  0  0  0
 14 15  1  0  0  0  0
 15 16  1  0  0  0  0
 16 17  1  0  0  0  0
 17 18  1  0  0  0  0
 18 19  1  0  0  0  0
 19 20  1  0  0  0  0
 20 21  1  0  0  0  0
 21 22  1  0  0  0  0
 22 23  1  0  0  0  0
 23 24  1  0  0  0  0
 24 25  1  0  0  0  0
 25 26  1  0  0  0  0
 26 27  1  0  0  0  0
 27 28  1  0  0  0  0
 28 29  1  0  0  0  0
 29 30  1  0  0  0  0
 30 31  1  0  0  0  0
 31 32  1  0  0  0  0
 32 33  1  0  0  0  0
 33 34  1  0  0  0  0
 34 35  1  0  0  0  0
 35 36  1  0  0  0  0
 36 37  1  0  0  0  0
 37 38  1  0  0  0  0
 38 39  1  0  0  0  0
 39 40  1  0  0  0  0
 40 41  1  0  0  0  0
 41 42  1  0  0  0  0
 42 43  1  0  0  0  0
 43 44  1  0  0  0  0
 44 45  1  0  0  0  0
 45 46  1  0  0  0  0
 46 47  1  0  0  0  0
 47 48  1  0  0  0  0
 48 49  1  0  0  0  0
 49 50  1  0  0  0  0
 50 51  1  0  0  0  0
 51 52  1  0  0  0  0
 52 53  1  0  0  0  0
 53 54  1  0  0  0  0
 54 55  1  0  0  0  0
 55 56  1  0  0  0  0
 56 57  1  0  0  0  0
 57 58  1  0  0  0  0
 58 59  1  0  0  0  0
 59 60  1  0  0  0  0
 60 61  1  0  0  0  0
 61 62  1  0  0  0  0
 62 63  1  0  0  0  0
 63 64  1  0  0  0  0
 64 65  1  0  0  0  0
 65 66  1  0  0  0  0
 66 67  1  0  0  0  0
 67 68  1  0  0  0  0
 68 69  1  0  0  0  0
 69 70  1  0  0  0  0
 70 71  1  0  0  0  0
 71 72  1  0  0  0  0
 72 73  1  0  0  0  0
 73 74  1  0  0  0  0
 74 75  1  0  0  0  0
 75 76  1  0  0  0  0
 76 77  1  0  0  0  0
 77 78  1  0  0  0  0
 78 79  1  0  0  0  0
 79 80  1  0  0  0  0
 80 81  1  0  0  0  0
 81107  1  0  0  0  0
M  END
$$$$
