
 OpenBabel04232216463D

 49 50  0  0  0  0  0  0  0  0999 V2000
    3.8812   -5.8221   -0.4142 C   0  0  0  0  0  0  0  0  0  0  0  0
    5.2583   -6.8781   -1.2449 C   0  0  0  0  0  0  0  0  0  0  0  0
    5.6265   -5.1954   -1.8406 C   0  0  0  0  0  0  0  0  0  0  0  0
    6.6945   -4.6283   -1.1975 C   0  0  0  0  0  0  0  0  0  0  0  0
    6.5534   -2.6259   -0.7169 C   0  0  0  0  0  0  0  0  0  0  0  0
    5.2814   -1.4436   -0.7967 O   0  0  0  0  0  0  0  0  0  0  0  0
    6.8218   -6.3497   -0.3557 N   0  0  0  0  0  0  0  0  0  0  0  0
    5.9133   -5.9239    0.8389 N   0  0  0  0  0  0  0  0  0  0  0  0
    6.2612   -4.7565    1.3491 C   0  0  0  0  0  0  0  0  0  0  0  0
    7.7104   -4.3687    1.3785 C   0  0  0  0  0  0  0  0  0  0  0  0
    8.2781   -5.5773    1.4768 C   0  0  0  0  0  0  0  0  0  0  0  0
    9.1699   -6.1560    0.6015 N   0  0  0  0  0  0  0  0  0  0  0  0
    8.8258   -7.3505    0.6091 N   0  0  0  0  0  0  0  0  0  0  0  0
    9.5946   -8.2210   -0.0341 N   0  0  0  0  0  0  0  0  0  0  0  0
    9.4387   -9.2548    0.6294 N   0  0  0  0  0  0  0  0  0  0  0  0
   10.2904  -10.1528    0.1224 N   0  0  0  0  0  0  0  0  0  0  0  0
   10.2330  -11.2041    0.7541 N   0  0  0  0  0  0  0  0  0  0  0  0
   11.1883  -11.9866    0.1698 N   0  0  0  0  0  0  0  0  0  0  0  0
   11.3488  -12.9511    0.9050 N   0  0  0  0  0  0  0  0  0  0  0  0
   12.3419  -13.7580    0.4259 N   0  0  0  0  0  0  0  0  0  0  0  0
   12.3652  -14.6735    1.2510 N   0  0  0  0  0  0  0  0  0  0  0  0
   13.1150  -15.7468    0.9447 C   0  0  0  0  0  0  0  0  0  0  0  0
   12.4418  -16.8803    1.1059 C   0  0  0  0  0  0  0  0  0  0  0  0
   12.2076  -17.0161   -0.3489 C   0  0  0  0  0  0  0  0  0  0  0  0
   11.3247  -16.2387   -1.1321 N   0  0  0  0  0  0  0  0  0  0  0  0
   10.6310  -14.4569   -1.1696 N   0  0  0  0  0  0  0  0  0  0  0  0
    9.2716  -13.6006   -0.7905 C   0  0  0  0  0  0  0  0  0  0  0  0
    8.3537  -11.8213   -1.1121 C   0  0  0  0  0  0  0  0  0  0  0  0
    8.7118  -13.6550   -0.7505 C   0  0  0  0  0  0  0  0  0  0  0  0
    7.3934  -10.1347   -0.8178 C   0  0  0  0  0  0  0  0  0  0  0  0
    6.6840   -8.0984   -1.0165 C   0  0  0  0  0  0  0  0  0  0  0  0
    4.1329   -4.6629   -0.2084 H   0  0  0  0  0  0  0  0  0  0  0  0
    3.5792   -5.6305    0.6924 H   0  0  0  0  0  0  0  0  0  0  0  0
    3.2028   -5.3530   -1.2065 H   0  0  0  0  0  0  0  0  0  0  0  0
    4.8787   -4.3209   -1.7242 H   0  0  0  0  0  0  0  0  0  0  0  0
    7.1285   -1.9511   -1.3954 H   0  0  0  0  0  0  0  0  0  0  0  0
    6.7904   -2.2698    0.3068 H   0  0  0  0  0  0  0  0  0  0  0  0
    5.5763   -0.4522   -0.5827 H   0  0  0  0  0  0  0  0  0  0  0  0
    5.4956   -4.1381    1.8483 H   0  0  0  0  0  0  0  0  0  0  0  0
    8.1011   -3.6072    0.7223 H   0  0  0  0  0  0  0  0  0  0  0  0
    7.5928   -6.3547    1.8753 H   0  0  0  0  0  0  0  0  0  0  0  0
   13.8655  -15.6772    0.1392 H   0  0  0  0  0  0  0  0  0  0  0  0
   11.5663  -17.0441    1.7170 H   0  0  0  0  0  0  0  0  0  0  0  0
   13.0759  -17.9439   -0.5839 H   0  0  0  0  0  0  0  0  0  0  0  0
    8.2224  -14.6408    0.1620 H   0  0  0  0  0  0  0  0  0  0  0  0
    9.0133  -15.2078   -0.9207 H   0  0  0  0  0  0  0  0  0  0  0  0
    8.1753  -14.5812   -1.7158 H   0  0  0  0  0  0  0  0  0  0  0  0
    9.3929  -14.0759    0.6360 H   0  0  0  0  0  0  0  0  0  0  0  0
    6.8370  -10.3873    0.1008 H   0  0  0  0  0  0  0  0  0  0  0  0
  1  2  1  0  0  0  0
  1 32  1  0  0  0  0
  1 33  1  0  0  0  0
  1 34  1  0  0  0  0
  2  3  1  0  0  0  0
  2 31  2  0  0  0  0
  3  4  2  0  0  0  0
  3 35  1  0  0  0  0
  4  5  1  0  0  0  0
  4  7  1  0  0  0  0
  5  6  1  0  0  0  0
  5 36  1  0  0  0  0
  5 37  1  0  0  0  0
  6 38  1  0  0  0  0
  7  8  1  0  0  0  0
  7 31  1  0  0  0  0
  8  9  2  3  0  0  0
  9 10  1  0  0  0  0
  9 39  1  0  0  0  0
 10 11  2  3  0  0  0
 10 40  1  0  0  0  0
 11 12  1  0  0  0  0
 11 41  1  0  0  0  0
 12 13  2  3  0  0  0
 13 14  1  0  0  0  0
 14 15  2  3  0  0  0
 15 16  1  0  0  0  0
 16 17  2  3  0  0  0
 17 18  1  0  0  0  0
 18 19  2  3  0  0  0
 19 20  1  0  0  0  0
 20 21  2  3  0  0  0
 21 22  1  0  0  0  0
 22 23  2  3  0  0  0
 22 42  1  0  0  0  0
 23 24  1  0  0  0  0
 23 43  1  0  0  0  0
 24 25  2  3  0  0  0
 24 44  1  0  0  0  0
 25 26  1  0  0  0  0
 26 27  2  3  0  0  0
 27 28  1  0  0  0  0
 27 45  1  0  0  0  0
 28 29  1  0  0  0  0
 28 30  2  3  0  0  0
 29 46  1  0  0  0  0
 29 47  1  0  0  0  0
 29 48  1  0  0  0  0
 30 31  1  0  0  0  0
 30 49  1  0  0  0  0
M  END
$$$$
