
 OpenBabel04232216593D

 52 53  0  0  0  0  0  0  0  0999 V2000
    3.5184   -4.0630    0.5838 O   0  0  0  0  0  0  0  0  0  0  0  0
    4.5702   -3.9662    1.2888 C   0  0  0  0  0  0  0  0  0  0  0  0
    4.4146   -5.0888    2.7964 C   0  0  0  0  0  0  0  0  0  0  0  0
    4.1061   -6.7596    3.6103 C   0  0  0  0  0  0  0  0  0  0  0  0
    4.0330   -7.1628    5.3253 C   0  0  0  0  0  0  0  0  0  0  0  0
    5.3122   -6.8374    6.1771 C   0  0  0  0  0  0  0  0  0  0  0  0
    5.5430   -5.4737    5.6363 C   0  0  0  0  0  0  0  0  0  0  0  0
    6.7308   -4.6134    5.4368 C   0  0  0  0  0  0  0  0  0  0  0  0
    5.6471   -2.6108    0.5850 C   0  0  0  0  0  0  0  0  0  0  0  0
    6.2356   -1.4445   -0.1949 C   0  0  0  0  0  0  0  0  0  0  0  0
    5.5673   -0.6456   -1.2155 N   0  0  0  0  0  0  0  0  0  0  0  0
    5.7044    0.6398   -1.0254 N   0  0  0  0  0  0  0  0  0  0  0  0
    5.9120    1.6325   -2.0428 C   0  0  0  0  0  0  0  0  0  0  0  0
    6.8506    2.5758   -1.8716 C   0  0  0  0  0  0  0  0  0  0  0  0
    7.4441    3.5877   -2.7168 C   0  0  0  0  0  0  0  0  0  0  0  0
    8.5249    4.1925   -2.1783 C   0  0  0  0  0  0  0  0  0  0  0  0
    9.8331    3.5442   -2.2440 C   0  0  0  0  0  0  0  0  0  0  0  0
   10.1575    2.2527   -1.9054 C   0  0  0  0  0  0  0  0  0  0  0  0
    9.4271    0.9333   -1.8111 C   0  0  0  0  0  0  0  0  0  0  0  0
    8.5671   -0.0783   -1.2258 C   0  0  0  0  0  0  0  0  0  0  0  0
    7.7110   -0.6593   -0.0084 C   0  0  0  0  0  0  0  0  0  0  0  0
    7.7975   -0.1477    1.2404 C   0  0  0  0  0  0  0  0  0  0  0  0
    7.6650   -1.1561    2.2871 C   0  0  0  0  0  0  0  0  0  0  0  0
    6.6502   -1.5098    3.1160 C   0  0  0  0  0  0  0  0  0  0  0  0
    6.8754   -2.7501    3.8160 C   0  0  0  0  0  0  0  0  0  0  0  0
    6.1755   -3.3400    4.7841 C   0  0  0  0  0  0  0  0  0  0  0  0
    3.5984   -5.5047    2.1775 H   0  0  0  0  0  0  0  0  0  0  0  0
    3.8826   -4.4431    3.5064 H   0  0  0  0  0  0  0  0  0  0  0  0
    3.1228   -7.1196    3.2668 H   0  0  0  0  0  0  0  0  0  0  0  0
    4.8817   -7.4311    3.2419 H   0  0  0  0  0  0  0  0  0  0  0  0
    3.1730   -6.6547    5.8002 H   0  0  0  0  0  0  0  0  0  0  0  0
    3.8202   -8.2376    5.4622 H   0  0  0  0  0  0  0  0  0  0  0  0
    6.1150   -7.5622    5.9943 H   0  0  0  0  0  0  0  0  0  0  0  0
    5.1299   -6.8334    7.2655 H   0  0  0  0  0  0  0  0  0  0  0  0
    4.6532   -4.8878    5.8823 H   0  0  0  0  0  0  0  0  0  0  0  0
    5.5430   -5.7506    4.6033 H   0  0  0  0  0  0  0  0  0  0  0  0
    7.4054   -5.1204    4.7194 H   0  0  0  0  0  0  0  0  0  0  0  0
    7.2685   -4.3822    6.3415 H   0  0  0  0  0  0  0  0  0  0  0  0
    4.6833   -2.4727    0.0145 H   0  0  0  0  0  0  0  0  0  0  0  0
    5.2749    1.5799   -2.9181 H   0  0  0  0  0  0  0  0  0  0  0  0
    7.4053    2.4715   -0.9326 H   0  0  0  0  0  0  0  0  0  0  0  0
    7.4279    3.4686   -3.7976 H   0  0  0  0  0  0  0  0  0  0  0  0
    8.4793    4.5459   -1.1375 H   0  0  0  0  0  0  0  0  0  0  0  0
   10.6219    4.2567   -2.5589 H   0  0  0  0  0  0  0  0  0  0  0  0
   11.2440    2.1057   -2.0943 H   0  0  0  0  0  0  0  0  0  0  0  0
    9.7698    0.5528   -2.7642 H   0  0  0  0  0  0  0  0  0  0  0  0
    8.5635   -0.8638   -1.9437 H   0  0  0  0  0  0  0  0  0  0  0  0
    7.1273    0.6968    1.4236 H   0  0  0  0  0  0  0  0  0  0  0  0
    8.5159   -1.8305    2.2320 H   0  0  0  0  0  0  0  0  0  0  0  0
    5.7059   -0.9662    3.1880 H   0  0  0  0  0  0  0  0  0  0  0  0
    7.7506   -3.3042    3.4814 H   0  0  0  0  0  0  0  0  0  0  0  0
    5.2138   -2.9406    5.1051 H   0  0  0  0  0  0  0  0  0  0  0  0
  1  2  2  0  0  0  0
  2  3  1  0  0  0  0
  2  9  1  0  0  0  0
  3  4  1  0  0  0  0
  3 27  1  0  0  0  0
  3 28  1  0  0  0  0
  4  5  1  0  0  0  0
  4 29  1  0  0  0  0
  4 30  1  0  0  0  0
  5  6  1  0  0  0  0
  5 31  1  0  0  0  0
  5 32  1  0  0  0  0
  6  7  1  0  0  0  0
  6 33  1  0  0  0  0
  6 34  1  0  0  0  0
  7  8  1  0  0  0  0
  7 35  1  0  0  0  0
  7 36  1  0  0  0  0
  8 26  1  0  0  0  0
  8 37  1  0  0  0  0
  8 38  1  0  0  0  0
  9 10  2  3  0  0  0
  9 39  1  0  0  0  0
 10 11  1  0  0  0  0
 10 21  1  0  0  0  0
 11 12  2  3  0  0  0
 12 13  1  0  0  0  0
 13 14  2  3  0  0  0
 13 40  1  0  0  0  0
 14 15  1  0  0  0  0
 14 41  1  0  0  0  0
 15 16  2  3  0  0  0
 15 42  1  0  0  0  0
 16 17  1  0  0  0  0
 16 43  1  0  0  0  0
 17 18  2  3  0  0  0
 17 44  1  0  0  0  0
 18 19  1  0  0  0  0
 18 45  1  0  0  0  0
 19 20  2  3  0  0  0
 19 46  1  0  0  0  0
 20 21  1  0  0  0  0
 20 47  1  0  0  0  0
 21 22  2  3  0  0  0
 22 23  1  0  0  0  0
 22 48  1  0  0  0  0
 23 24  2  3  0  0  0
 23 49  1  0  0  0  0
 24 25  1  0  0  0  0
 24 50  1  0  0  0  0
 25 26  2  3  0  0  0
 25 51  1  0  0  0  0
 26 52  1  0  0  0  0
M  END
$$$$
