
 OpenBabel04232216463D

 48 49  0  0  0  0  0  0  0  0999 V2000
    3.8995    0.5282    3.0971 C   0  0  0  0  0  0  0  0  0  0  0  0
    4.8333   -0.5592    2.6306 C   0  0  0  0  0  0  0  0  0  0  0  0
    4.2460   -1.3762    1.7313 C   0  0  0  0  0  0  0  0  0  0  0  0
    5.1019   -1.7422    0.5854 C   0  0  0  0  0  0  0  0  0  0  0  0
    5.6763   -0.5635   -0.3133 C   0  0  0  0  0  0  0  0  0  0  0  0
    5.3985   -0.9351   -1.7723 C   0  0  0  0  0  0  0  0  0  0  0  0
    3.9829   -0.5648   -2.2286 C   0  0  0  0  0  0  0  0  0  0  0  0
    3.9455    0.7801   -2.9512 C   0  0  0  0  0  0  0  0  0  0  0  0
    4.1603    2.0021   -2.0634 C   0  0  0  0  0  0  0  0  0  0  0  0
    5.3706    1.9296   -1.1317 C   0  0  0  0  0  0  0  0  0  0  0  0
    5.2046    0.8937   -0.0082 C   0  0  0  0  0  0  0  0  0  0  0  0
    5.4504   -3.0080    0.4908 N   0  0  0  0  0  0  0  0  0  0  0  0
    6.8089   -3.1308    0.6595 C   0  0  0  0  0  0  0  0  0  0  0  0
    7.3301   -3.2539    1.8879 C   0  0  0  0  0  0  0  0  0  0  0  0
    6.4409   -3.8709    3.0028 C   0  0  0  0  0  0  0  0  0  0  0  0
    8.5582   -2.6839    2.2831 N   0  0  0  0  0  0  0  0  0  0  0  0
    9.4429   -2.0346    1.3123 C   0  0  0  0  0  0  0  0  0  0  0  0
    8.7188   -2.1970    3.5979 N   0  0  0  0  0  0  0  0  0  0  0  0
    8.6574   -3.1585    4.5707 F   0  0  0  0  0  0  0  0  0  0  0  0
    8.1942   -0.9530    3.9389 N   0  0  0  0  0  0  0  0  0  0  0  0
    8.9750    0.0149    4.6328 F   0  0  0  0  0  0  0  0  0  0  0  0
    6.8817   -0.5604    3.7852 C   0  0  0  0  0  0  0  0  0  0  0  0
    6.2149   -0.5397    2.6756 N   0  0  0  0  0  0  0  0  0  0  0  0
    3.3360    0.2523    3.9930 H   0  0  0  0  0  0  0  0  0  0  0  0
    3.1383    0.7033    2.3100 H   0  0  0  0  0  0  0  0  0  0  0  0
    4.3979    1.4915    3.2147 H   0  0  0  0  0  0  0  0  0  0  0  0
    3.1834   -1.5415    1.6172 H   0  0  0  0  0  0  0  0  0  0  0  0
    6.7642   -0.5594   -0.1668 H   0  0  0  0  0  0  0  0  0  0  0  0
    5.5438   -2.0099   -1.9161 H   0  0  0  0  0  0  0  0  0  0  0  0
    6.1459   -0.4554   -2.4130 H   0  0  0  0  0  0  0  0  0  0  0  0
    3.2691   -0.5791   -1.3965 H   0  0  0  0  0  0  0  0  0  0  0  0
    3.6492   -1.3307   -2.9358 H   0  0  0  0  0  0  0  0  0  0  0  0
    2.9718    0.8831   -3.4449 H   0  0  0  0  0  0  0  0  0  0  0  0
    4.6943    0.7832   -3.7529 H   0  0  0  0  0  0  0  0  0  0  0  0
    3.2542    2.1797   -1.4693 H   0  0  0  0  0  0  0  0  0  0  0  0
    4.2689    2.8819   -2.7119 H   0  0  0  0  0  0  0  0  0  0  0  0
    5.4679    2.9213   -0.6654 H   0  0  0  0  0  0  0  0  0  0  0  0
    6.2967    1.7579   -1.6924 H   0  0  0  0  0  0  0  0  0  0  0  0
    4.1547    0.9111    0.3047 H   0  0  0  0  0  0  0  0  0  0  0  0
    5.7849    1.2768    0.8401 H   0  0  0  0  0  0  0  0  0  0  0  0
    7.4113   -2.8093   -0.1776 H   0  0  0  0  0  0  0  0  0  0  0  0
    5.3963   -4.0048    2.7076 H   0  0  0  0  0  0  0  0  0  0  0  0
    6.4116   -3.2792    3.9212 H   0  0  0  0  0  0  0  0  0  0  0  0
    6.8251   -4.8658    3.2559 H   0  0  0  0  0  0  0  0  0  0  0  0
    8.8888   -1.3550    0.6560 H   0  0  0  0  0  0  0  0  0  0  0  0
    9.9506   -2.7888    0.7038 H   0  0  0  0  0  0  0  0  0  0  0  0
   10.2120   -1.4295    1.8064 H   0  0  0  0  0  0  0  0  0  0  0  0
    6.4387   -0.2104    4.7405 H   0  0  0  0  0  0  0  0  0  0  0  0
  1  2  1  0  0  0  0
  1 24  1  0  0  0  0
  1 25  1  0  0  0  0
  1 26  1  0  0  0  0
  2  3  2  0  0  0  0
  2 23  1  0  0  0  0
  3  4  1  0  0  0  0
  3 27  1  0  0  0  0
  4  5  1  0  0  0  0
  4 12  2  0  0  0  0
  5  6  1  0  0  0  0
  5 11  1  0  0  0  0
  5 28  1  0  0  0  0
  6  7  1  0  0  0  0
  6 29  1  0  0  0  0
  6 30  1  0  0  0  0
  7  8  1  0  0  0  0
  7 31  1  0  0  0  0
  7 32  1  0  0  0  0
  8  9  1  0  0  0  0
  8 33  1  0  0  0  0
  8 34  1  0  0  0  0
  9 10  1  0  0  0  0
  9 35  1  0  0  0  0
  9 36  1  0  0  0  0
 10 11  1  0  0  0  0
 10 37  1  0  0  0  0
 10 38  1  0  0  0  0
 11 39  1  0  0  0  0
 11 40  1  0  0  0  0
 12 13  1  0  0  0  0
 13 14  2  0  0  0  0
 13 41  1  0  0  0  0
 14 15  1  0  0  0  0
 14 16  1  0  0  0  0
 15 42  1  0  0  0  0
 15 43  1  0  0  0  0
 15 44  1  0  0  0  0
 16 17  1  0  0  0  0
 16 18  1  0  0  0  0
 17 45  1  0  0  0  0
 17 46  1  0  0  0  0
 17 47  1  0  0  0  0
 18 19  1  0  0  0  0
 18 20  1  0  0  0  0
 20 21  1  0  0  0  0
 20 22  1  0  0  0  0
 22 23  2  0  0  0  0
 22 48  1  0  0  0  0
M  END
$$$$
