
 OpenBabel04232216553D

 34 37  0  0  0  0  0  0  0  0999 V2000
    0.9453    0.1017    0.1368 C   0  0  0  0  0  0  0  0  0  0  0  0
    2.3887    0.0450   -0.0205 N   0  0  0  0  0  0  0  0  0  0  0  0
    3.0671   -1.1022   -0.4032 C   0  0  0  0  0  0  0  0  0  0  0  0
    4.4185   -1.1506   -0.5308 C   0  0  0  0  0  0  0  0  0  0  0  0
    5.1028   -2.3566   -0.7224 N   0  0  0  0  0  0  0  0  0  0  0  0
    5.2125   -3.1565    0.4548 N   0  0  0  0  0  0  0  0  0  0  0  0
    6.5789   -3.1519    1.0206 C   0  0  0  0  0  0  0  0  0  0  0  0
    7.0298   -1.7965    1.5653 C   0  0  0  0  0  0  0  0  0  0  0  0
    7.0279   -1.5910    2.7848 O   0  0  0  0  0  0  0  0  0  0  0  0
    7.4468   -0.7877    0.5401 C   0  0  0  0  0  0  0  0  0  0  0  0
    8.5243    0.1258    0.4629 N   0  0  0  0  0  0  0  0  0  0  0  0
    7.7891    0.9061   -0.2404 C   0  0  0  0  0  0  0  0  0  0  0  0
    6.6483    0.0670   -0.0839 C   0  0  0  0  0  0  0  0  0  0  0  0
    5.2023    0.1351   -0.4006 C   0  0  0  0  0  0  0  0  0  0  0  0
    4.5109    1.2943   -0.1627 C   0  0  0  0  0  0  0  0  0  0  0  0
    4.9871    2.5412    0.4424 C   0  0  0  0  0  0  0  0  0  0  0  0
    5.0692    3.8582   -0.2671 C   0  0  0  0  0  0  0  0  0  0  0  0
    4.4225    2.5632    1.6729 C   0  0  0  0  0  0  0  0  0  0  0  0
    3.2404    1.7025    1.6181 C   0  0  0  0  0  0  0  0  0  0  0  0
    3.1943    1.0549    0.4409 C   0  0  0  0  0  0  0  0  0  0  0  0
    0.4651   -0.8427   -0.1371 H   0  0  0  0  0  0  0  0  0  0  0  0
    0.5352    0.8846   -0.5133 H   0  0  0  0  0  0  0  0  0  0  0  0
    0.6726    0.3378    1.1700 H   0  0  0  0  0  0  0  0  0  0  0  0
    2.4618   -1.9923   -0.5075 H   0  0  0  0  0  0  0  0  0  0  0  0
    5.9746   -2.2155   -1.2382 H   0  0  0  0  0  0  0  0  0  0  0  0
    4.9488   -4.1218    0.2393 H   0  0  0  0  0  0  0  0  0  0  0  0
    7.3170   -3.5240    0.3045 H   0  0  0  0  0  0  0  0  0  0  0  0
    6.5811   -3.8457    1.8723 H   0  0  0  0  0  0  0  0  0  0  0  0
    7.8828    1.8611   -0.7717 H   0  0  0  0  0  0  0  0  0  0  0  0
    4.0835    4.0776   -0.7068 H   0  0  0  0  0  0  0  0  0  0  0  0
    5.8120    3.8896   -1.0624 H   0  0  0  0  0  0  0  0  0  0  0  0
    5.2732    4.6741    0.4388 H   0  0  0  0  0  0  0  0  0  0  0  0
    4.4556    3.3915    2.3675 H   0  0  0  0  0  0  0  0  0  0  0  0
    2.5366    1.6116    2.4272 H   0  0  0  0  0  0  0  0  0  0  0  0
  1  2  1  0  0  0  0
  1 21  1  0  0  0  0
  1 22  1  0  0  0  0
  1 23  1  0  0  0  0
  2  3  1  0  0  0  0
  2 20  1  0  0  0  0
  3  4  2  0  0  0  0
  3 24  1  0  0  0  0
  4  5  1  0  0  0  0
  4 14  1  0  0  0  0
  5  6  1  0  0  0  0
  5 25  1  0  0  0  0
  6  7  1  0  0  0  0
  6 26  1  0  0  0  0
  7  8  1  0  0  0  0
  7 27  1  0  0  0  0
  7 28  1  0  0  0  0
  8  9  2  0  0  0  0
  8 10  1  0  0  0  0
 10 11  1  0  0  0  0
 10 13  2  0  0  0  0
 11 12  2  0  0  0  0
 12 13  1  0  0  0  0
 12 29  1  0  0  0  0
 13 14  1  0  0  0  0
 14 15  2  0  0  0  0
 15 16  1  0  0  0  0
 15 20  1  0  0  0  0
 16 17  1  0  0  0  0
 16 18  2  0  0  0  0
 17 30  1  0  0  0  0
 17 31  1  0  0  0  0
 17 32  1  0  0  0  0
 18 19  1  0  0  0  0
 18 33  1  0  0  0  0
 19 20  2  0  0  0  0
 19 34  1  0  0  0  0
M  END
$$$$
