
 OpenBabel04232216513D

 53 54  0  0  1  0  0  0  0  0999 V2000
    1.4186   -3.3084    2.5489 C   0  0  0  0  0  0  0  0  0  0  0  0
    2.3489   -4.4997    2.3636 C   0  0  0  0  0  0  0  0  0  0  0  0
    2.5193   -4.9135    0.8929 C   0  0  0  0  0  0  0  0  0  0  0  0
    2.9779   -3.7909   -0.0056 C   0  0  0  0  0  0  0  0  0  0  0  0
    2.6530   -3.3721   -1.3414 C   0  0  0  0  0  0  0  0  0  0  0  0
    1.7393   -3.7989   -2.5259 C   0  0  3  0  0  0  0  0  0  0  0  0
    2.6493   -4.3338   -3.5147 O   0  0  0  0  0  0  0  0  0  0  0  0
    1.1537   -2.5517   -3.1044 C   0  0  0  0  0  0  0  0  0  0  0  0
    1.2533   -2.1359   -4.3784 C   0  0  0  0  0  0  0  0  0  0  0  0
   -0.0512   -1.5772   -4.8201 C   0  0  0  0  0  0  0  0  0  0  0  0
   -0.5613   -0.5722   -4.3508 O   0  0  0  0  0  0  0  0  0  0  0  0
   -0.7461   -2.6028   -5.6502 C   0  0  0  0  0  0  0  0  0  0  0  0
   -2.0563   -2.8487   -5.4379 C   0  0  0  0  0  0  0  0  0  0  0  0
   -2.3969   -4.2695   -5.1851 C   0  0  0  0  0  0  0  0  0  0  0  0
   -1.8241   -5.3227   -6.1224 C   0  0  0  0  0  0  0  0  0  0  0  0
   -2.8118   -6.3573   -6.6873 C   0  0  0  0  0  0  0  0  0  0  0  0
   -3.7358   -5.8169   -7.7858 C   0  0  0  0  0  0  0  0  0  0  0  0
   -4.5971   -6.9287   -8.3779 C   0  0  0  0  0  0  0  0  0  0  0  0
   -2.6193   -4.4419   -3.8607 C   0  0  0  0  0  0  0  0  0  0  0  0
   -1.9338   -5.4326   -2.9460 C   0  0  0  0  0  0  0  0  0  0  0  0
   -0.7941   -4.7657   -2.0542 C   0  0  0  0  0  0  0  0  0  0  0  0
    0.7002   -4.8982   -2.3785 C   0  0  0  0  0  3  0  0  0  0  0  0
    3.5064   -2.3348   -1.2058 C   0  0  0  0  0  0  0  0  0  0  0  0
    3.8114   -2.7261    0.1226 C   0  0  0  0  0  0  0  0  0  0  0  0
    1.1498   -3.2019    3.6046 H   0  0  0  0  0  0  0  0  0  0  0  0
    0.4989   -3.4296    1.9680 H   0  0  0  0  0  0  0  0  0  0  0  0
    1.8986   -2.3743    2.2410 H   0  0  0  0  0  0  0  0  0  0  0  0
    1.9446   -5.3591    2.9104 H   0  0  0  0  0  0  0  0  0  0  0  0
    3.3242   -4.2683    2.8152 H   0  0  0  0  0  0  0  0  0  0  0  0
    1.6067   -5.3930    0.4942 H   0  0  0  0  0  0  0  0  0  0  0  0
    3.3054   -5.6714    0.8866 H   0  0  0  0  0  0  0  0  0  0  0  0
    3.5251   -3.9677   -3.3235 H   0  0  0  0  0  0  0  0  0  0  0  0
    0.4693   -2.0349   -2.4314 H   0  0  0  0  0  0  0  0  0  0  0  0
    1.8666   -2.6627   -5.1036 H   0  0  0  0  0  0  0  0  0  0  0  0
   -0.0905   -3.4089   -5.9685 H   0  0  0  0  0  0  0  0  0  0  0  0
   -2.6491   -2.0918   -4.9202 H   0  0  0  0  0  0  0  0  0  0  0  0
   -1.0297   -5.8650   -5.5930 H   0  0  0  0  0  0  0  0  0  0  0  0
   -1.3287   -4.8549   -6.9853 H   0  0  0  0  0  0  0  0  0  0  0  0
   -3.4067   -6.8021   -5.8813 H   0  0  0  0  0  0  0  0  0  0  0  0
   -2.2166   -7.1704   -7.1235 H   0  0  0  0  0  0  0  0  0  0  0  0
   -3.1377   -5.3748   -8.5915 H   0  0  0  0  0  0  0  0  0  0  0  0
   -4.3840   -5.0292   -7.3890 H   0  0  0  0  0  0  0  0  0  0  0  0
   -3.9784   -7.7497   -8.7571 H   0  0  0  0  0  0  0  0  0  0  0  0
   -5.1954   -6.5487   -9.2127 H   0  0  0  0  0  0  0  0  0  0  0  0
   -5.2822   -7.3364   -7.6280 H   0  0  0  0  0  0  0  0  0  0  0  0
   -3.1167   -3.6382   -3.3098 H   0  0  0  0  0  0  0  0  0  0  0  0
   -2.7260   -5.7702   -2.2607 H   0  0  0  0  0  0  0  0  0  0  0  0
   -1.5908   -6.3265   -3.4727 H   0  0  0  0  0  0  0  0  0  0  0  0
   -0.8934   -5.2670   -1.0837 H   0  0  0  0  0  0  0  0  0  0  0  0
   -1.0511   -3.7171   -1.8717 H   0  0  0  0  0  0  0  0  0  0  0  0
    1.0744   -5.9161   -2.4535 H   0  0  0  0  0  0  0  0  0  0  0  0
    3.8365   -1.4969   -1.8213 H   0  0  0  0  0  0  0  0  0  0  0  0
    4.4269   -2.3335    0.9168 H   0  0  0  0  0  0  0  0  0  0  0  0
  1  2  1  0  0  0  0
  1 25  1  0  0  0  0
  1 26  1  0  0  0  0
  1 27  1  0  0  0  0
  2  3  1  0  0  0  0
  2 28  1  0  0  0  0
  2 29  1  0  0  0  0
  3  4  1  0  0  0  0
  3 30  1  0  0  0  0
  3 31  1  0  0  0  0
  4  5  1  0  0  0  0
  4 24  2  0  0  0  0
  5  6  1  0  0  0  0
  5 23  2  0  0  0  0
  6  7  1  0  0  0  0
  6  8  1  0  0  0  0
  6 22  1  0  0  0  0
  7 32  1  0  0  0  0
  8  9  2  3  0  0  0
  8 33  1  0  0  0  0
  9 10  1  0  0  0  0
  9 34  1  0  0  0  0
 10 11  2  0  0  0  0
 10 12  1  0  0  0  0
 12 13  2  3  0  0  0
 12 35  1  0  0  0  0
 13 14  1  0  0  0  0
 13 36  1  0  0  0  0
 14 15  1  0  0  0  0
 14 19  2  3  0  0  0
 15 16  1  0  0  0  0
 15 37  1  0  0  0  0
 15 38  1  0  0  0  0
 16 17  1  0  0  0  0
 16 39  1  0  0  0  0
 16 40  1  0  0  0  0
 17 18  1  0  0  0  0
 17 41  1  0  0  0  0
 17 42  1  0  0  0  0
 18 43  1  0  0  0  0
 18 44  1  0  0  0  0
 18 45  1  0  0  0  0
 19 20  1  0  0  0  0
 19 46  1  0  0  0  0
 20 21  1  0  0  0  0
 20 47  1  0  0  0  0
 20 48  1  0  0  0  0
 21 22  1  0  0  0  0
 21 49  1  0  0  0  0
 21 50  1  0  0  0  0
 22 51  1  0  0  0  0
 23 24  1  0  0  0  0
 23 52  1  0  0  0  0
 24 53  1  0  0  0  0
M  END
$$$$
