
 OpenBabel04232216513D

 25 25  0  0  1  0  0  0  0  0999 V2000
    1.2539   -0.9527   -0.5730 C   0  0  0  0  0  0  0  0  0  0  0  0
    2.3619   -0.1344    0.0780 C   0  0  0  0  0  0  0  0  0  0  0  0
    2.9726    0.9969   -0.7835 C   0  0  3  0  0  0  0  0  0  0  0  0
    3.6151    0.4692   -2.0489 C   0  0  0  0  0  0  0  0  0  0  0  0
    3.8947    1.0324   -3.2346 C   0  0  0  0  0  0  0  0  0  0  0  0
    3.6625    2.3564   -3.7657 C   0  0  0  0  0  0  0  0  0  0  0  0
    3.6281    3.5406   -3.1404 C   0  0  0  0  0  0  0  0  0  0  0  0
    3.7499    3.7980   -1.6687 C   0  0  0  0  0  0  0  0  0  0  0  0
    2.4270    3.5309   -0.9441 C   0  0  0  0  0  0  0  0  0  0  0  0
    1.9854    2.0990   -1.0147 C   0  0  0  0  0  3  0  0  0  0  0  0
    0.9669   -1.7754    0.0909 H   0  0  0  0  0  0  0  0  0  0  0  0
    1.5753   -1.3921   -1.5217 H   0  0  0  0  0  0  0  0  0  0  0  0
    0.3608   -0.3478   -0.7537 H   0  0  0  0  0  0  0  0  0  0  0  0
    3.1655   -0.8234    0.3720 H   0  0  0  0  0  0  0  0  0  0  0  0
    1.9757    0.2923    1.0134 H   0  0  0  0  0  0  0  0  0  0  0  0
    3.7903    1.3932   -0.1664 H   0  0  0  0  0  0  0  0  0  0  0  0
    3.9515   -0.5643   -1.9535 H   0  0  0  0  0  0  0  0  0  0  0  0
    4.3721    0.3814   -3.9708 H   0  0  0  0  0  0  0  0  0  0  0  0
    3.5563    2.3726   -4.8508 H   0  0  0  0  0  0  0  0  0  0  0  0
    3.4706    4.4287   -3.7513 H   0  0  0  0  0  0  0  0  0  0  0  0
    4.0253    4.8517   -1.5230 H   0  0  0  0  0  0  0  0  0  0  0  0
    4.5771    3.2226   -1.2397 H   0  0  0  0  0  0  0  0  0  0  0  0
    1.6382    4.1597   -1.3757 H   0  0  0  0  0  0  0  0  0  0  0  0
    2.5193    3.8193    0.1085 H   0  0  0  0  0  0  0  0  0  0  0  0
    0.9805    1.8779   -1.3570 H   0  0  0  0  0  0  0  0  0  0  0  0
  1  2  1  0  0  0  0
  1 11  1  0  0  0  0
  1 12  1  0  0  0  0
  1 13  1  0  0  0  0
  2  3  1  0  0  0  0
  2 14  1  0  0  0  0
  2 15  1  0  0  0  0
  3  4  1  0  0  0  0
  3 10  1  0  0  0  0
  3 16  1  0  0  0  0
  4  5  2  0  0  0  0
  4 17  1  0  0  0  0
  5  6  1  0  0  0  0
  5 18  1  0  0  0  0
  6  7  2  0  0  0  0
  6 19  1  0  0  0  0
  7  8  1  0  0  0  0
  7 20  1  0  0  0  0
  8  9  1  0  0  0  0
  8 21  1  0  0  0  0
  8 22  1  0  0  0  0
  9 10  1  0  0  0  0
  9 23  1  0  0  0  0
  9 24  1  0  0  0  0
 10 25  1  0  0  0  0
M  END
$$$$
