
 OpenBabel04232216513D

 47 48  0  0  0  0  0  0  0  0999 V2000
    1.6165   -1.8325   -6.2180 C   0  0  0  0  0  0  0  0  0  0  0  0
    1.2575   -0.4235   -6.6543 C   0  0  0  0  0  0  0  0  0  0  0  0
    2.0221    0.6344   -5.8992 C   0  0  0  0  0  0  0  0  0  0  0  0
    3.2434    1.1101   -6.3856 C   0  0  0  0  0  0  0  0  0  0  0  0
    3.8980    2.1649   -5.7459 C   0  0  0  0  0  0  0  0  0  0  0  0
    3.3468    2.7640   -4.6022 C   0  0  0  0  0  0  0  0  0  0  0  0
    4.0459    3.9532   -3.9839 C   0  0  0  0  0  0  0  0  0  0  0  0
    3.2051    5.1930   -3.8702 C   0  0  0  0  0  0  0  0  0  0  0  0
    3.4653    6.3721   -4.4638 C   0  0  0  0  0  0  0  0  0  0  0  0
    2.7509    7.5949   -4.1570 C   0  0  0  0  0  0  0  0  0  0  0  0
    2.9313    8.8287   -4.6604 C   0  0  0  0  0  0  0  0  0  0  0  0
    3.8451    9.2234   -5.7788 C   0  0  0  0  0  0  0  0  0  0  0  0
    4.2719    8.3843   -6.5707 O   0  0  0  0  0  0  0  0  0  0  0  0
    4.2340   10.6822   -5.9330 C   0  0  0  0  0  0  0  0  0  0  0  0
    3.7850   11.1978   -7.2991 C   0  0  0  0  0  0  0  0  0  0  0  0
    4.1651   12.6538   -7.5123 C   0  0  0  0  0  0  0  0  0  0  0  0
    2.0684    9.8391   -3.9668 C   0  0  0  0  0  0  0  0  0  0  0  0
    1.0876    8.9920   -3.1653 C   0  0  0  0  0  0  0  0  0  0  0  0
    1.7036    7.6062   -3.0748 C   0  0  0  0  0  0  0  0  0  0  0  0
    2.1754    2.2184   -4.0624 C   0  0  0  0  0  0  0  0  0  0  0  0
    1.5140    1.1685   -4.7080 C   0  0  0  0  0  0  0  0  0  0  0  0
    1.0359   -2.5624   -6.7917 H   0  0  0  0  0  0  0  0  0  0  0  0
    1.3990   -1.9861   -5.1560 H   0  0  0  0  0  0  0  0  0  0  0  0
    2.6790   -2.0406   -6.3806 H   0  0  0  0  0  0  0  0  0  0  0  0
    0.1812   -0.2583   -6.5188 H   0  0  0  0  0  0  0  0  0  0  0  0
    1.4418   -0.3092   -7.7298 H   0  0  0  0  0  0  0  0  0  0  0  0
    3.6859    0.6841   -7.2818 H   0  0  0  0  0  0  0  0  0  0  0  0
    4.8359    2.5299   -6.1536 H   0  0  0  0  0  0  0  0  0  0  0  0
    4.9605    4.1823   -4.5426 H   0  0  0  0  0  0  0  0  0  0  0  0
    4.3714    3.6768   -2.9731 H   0  0  0  0  0  0  0  0  0  0  0  0
    2.3663    5.1029   -3.1860 H   0  0  0  0  0  0  0  0  0  0  0  0
    4.3022    6.4413   -5.1597 H   0  0  0  0  0  0  0  0  0  0  0  0
    5.3233   10.7470   -5.8296 H   0  0  0  0  0  0  0  0  0  0  0  0
    3.8069   11.3004   -5.1405 H   0  0  0  0  0  0  0  0  0  0  0  0
    2.6985   11.0897   -7.3980 H   0  0  0  0  0  0  0  0  0  0  0  0
    4.2328   10.5940   -8.0957 H   0  0  0  0  0  0  0  0  0  0  0  0
    3.7096   13.2956   -6.7518 H   0  0  0  0  0  0  0  0  0  0  0  0
    3.8186   12.9934   -8.4941 H   0  0  0  0  0  0  0  0  0  0  0  0
    5.2508   12.7880   -7.4721 H   0  0  0  0  0  0  0  0  0  0  0  0
    1.5337   10.4891   -4.6650 H   0  0  0  0  0  0  0  0  0  0  0  0
    2.6711   10.4590   -3.2927 H   0  0  0  0  0  0  0  0  0  0  0  0
    0.1244    8.9387   -3.6871 H   0  0  0  0  0  0  0  0  0  0  0  0
    0.8932    9.4130   -2.1728 H   0  0  0  0  0  0  0  0  0  0  0  0
    0.9287    6.8509   -3.2412 H   0  0  0  0  0  0  0  0  0  0  0  0
    2.1601    7.4377   -2.0928 H   0  0  0  0  0  0  0  0  0  0  0  0
    1.7564    2.6129   -3.1376 H   0  0  0  0  0  0  0  0  0  0  0  0
    0.5881    0.7847   -4.2886 H   0  0  0  0  0  0  0  0  0  0  0  0
  1  2  1  0  0  0  0
  1 22  1  0  0  0  0
  1 23  1  0  0  0  0
  1 24  1  0  0  0  0
  2  3  1  0  0  0  0
  2 25  1  0  0  0  0
  2 26  1  0  0  0  0
  3  4  1  0  0  0  0
  3 21  2  0  0  0  0
  4  5  2  0  0  0  0
  4 27  1  0  0  0  0
  5  6  1  0  0  0  0
  5 28  1  0  0  0  0
  6  7  1  0  0  0  0
  6 20  2  0  0  0  0
  7  8  1  0  0  0  0
  7 29  1  0  0  0  0
  7 30  1  0  0  0  0
  8  9  2  3  0  0  0
  8 31  1  0  0  0  0
  9 10  1  0  0  0  0
  9 32  1  0  0  0  0
 10 11  2  0  0  0  0
 10 19  1  0  0  0  0
 11 12  1  0  0  0  0
 11 17  1  0  0  0  0
 12 13  2  0  0  0  0
 12 14  1  0  0  0  0
 14 15  1  0  0  0  0
 14 33  1  0  0  0  0
 14 34  1  0  0  0  0
 15 16  1  0  0  0  0
 15 35  1  0  0  0  0
 15 36  1  0  0  0  0
 16 37  1  0  0  0  0
 16 38  1  0  0  0  0
 16 39  1  0  0  0  0
 17 18  1  0  0  0  0
 17 40  1  0  0  0  0
 17 41  1  0  0  0  0
 18 19  1  0  0  0  0
 18 42  1  0  0  0  0
 18 43  1  0  0  0  0
 19 44  1  0  0  0  0
 19 45  1  0  0  0  0
 20 21  1  0  0  0  0
 20 46  1  0  0  0  0
 21 47  1  0  0  0  0
M  END
$$$$
