
 OpenBabel04232216463D

 55 57  0  0  0  0  0  0  0  0999 V2000
    1.6166    0.2545    1.4077 C   0  0  0  0  0  0  0  0  0  0  0  0
    3.1238   -0.0147    1.4274 C   0  0  0  0  0  0  0  0  0  0  0  0
    3.5679   -0.5832    0.0329 C   0  0  0  0  0  0  0  0  0  0  0  0
    4.6544   -0.2084   -0.7146 C   0  0  0  0  0  0  0  0  0  0  0  0
    5.4950    0.8611   -0.0802 C   0  0  0  0  0  0  0  0  0  0  0  0
    4.9155    2.1126    0.2186 O   0  0  0  0  0  0  0  0  0  0  0  0
    5.3171   -0.7585   -2.0246 C   0  0  0  0  0  0  0  0  0  0  0  0
    4.4446   -0.9737   -3.3296 C   0  0  0  0  0  0  0  0  0  0  0  0
    4.4714    0.1806   -4.3404 C   0  0  0  0  0  0  0  0  0  0  0  0
    4.4359   -0.0509   -5.7341 C   0  0  0  0  0  0  0  0  0  0  0  0
    4.6637    0.9963   -6.6381 C   0  0  0  0  0  0  0  0  0  0  0  0
    4.8806    2.2876   -6.1626 C   0  0  0  0  0  0  0  0  0  0  0  0
    4.8082    2.5430   -4.7960 C   0  0  0  0  0  0  0  0  0  0  0  0
    4.5923    1.5002   -3.8970 C   0  0  0  0  0  0  0  0  0  0  0  0
    6.6958   -0.8964   -2.1714 C   0  0  0  0  0  0  0  0  0  0  0  0
    7.3744   -1.0984   -3.4835 C   0  0  0  0  0  0  0  0  0  0  0  0
    8.7039   -0.9861   -3.3072 C   0  0  0  0  0  0  0  0  0  0  0  0
    9.8454   -1.1285   -4.2448 C   0  0  0  0  0  0  0  0  0  0  0  0
    8.9852   -0.7295   -1.9206 C   0  0  0  0  0  0  0  0  0  0  0  0
    7.8571   -0.7334   -1.1961 C   0  0  0  0  0  0  0  0  0  0  0  0
    7.9133   -0.6454    0.2491 C   0  0  0  0  0  0  0  0  0  0  0  0
    8.7668    0.0255    1.0607 C   0  0  0  0  0  0  0  0  0  0  0  0
    8.1799    0.5127    2.2906 C   0  0  0  0  0  0  0  0  0  0  0  0
    8.6008    0.9989    3.4648 C   0  0  0  0  0  0  0  0  0  0  0  0
    7.6560    1.4890    4.3604 N   0  0  0  0  0  0  0  0  0  0  0  0
    6.8306    0.6095    4.7192 N   0  0  0  0  0  0  0  0  0  0  0  0
    5.4814    0.9445    4.7311 C   0  0  0  0  0  0  0  0  0  0  0  0
    4.6062    0.6988    3.7279 C   0  0  0  0  0  0  0  0  0  0  0  0
    3.8785    0.3120    2.5181 C   0  0  0  0  0  0  0  0  0  0  0  0
    1.2180    0.2365    0.3879 H   0  0  0  0  0  0  0  0  0  0  0  0
    1.3718    1.2478    1.8074 H   0  0  0  0  0  0  0  0  0  0  0  0
    1.0795   -0.5013    1.9897 H   0  0  0  0  0  0  0  0  0  0  0  0
    2.8612   -1.3239   -0.3553 H   0  0  0  0  0  0  0  0  0  0  0  0
    6.3655    1.1031   -0.6696 H   0  0  0  0  0  0  0  0  0  0  0  0
    5.7644    0.3991    0.8578 H   0  0  0  0  0  0  0  0  0  0  0  0
    3.9718    2.0696    0.0265 H   0  0  0  0  0  0  0  0  0  0  0  0
    3.4072   -1.2534   -3.1273 H   0  0  0  0  0  0  0  0  0  0  0  0
    4.8587   -1.8434   -3.8735 H   0  0  0  0  0  0  0  0  0  0  0  0
    4.2759   -1.0503   -6.1362 H   0  0  0  0  0  0  0  0  0  0  0  0
    4.7022    0.8046   -7.7094 H   0  0  0  0  0  0  0  0  0  0  0  0
    5.1104    3.0963   -6.8510 H   0  0  0  0  0  0  0  0  0  0  0  0
    4.9538    3.5495   -4.4143 H   0  0  0  0  0  0  0  0  0  0  0  0
    4.5749    1.7240   -2.8359 H   0  0  0  0  0  0  0  0  0  0  0  0
    6.9136   -1.2664   -4.4447 H   0  0  0  0  0  0  0  0  0  0  0  0
    9.5280   -1.3640   -5.2628 H   0  0  0  0  0  0  0  0  0  0  0  0
   10.5008   -1.9370   -3.8979 H   0  0  0  0  0  0  0  0  0  0  0  0
   10.4396   -0.2081   -4.2676 H   0  0  0  0  0  0  0  0  0  0  0  0
    9.9847   -0.6000   -1.5359 H   0  0  0  0  0  0  0  0  0  0  0  0
    7.0242   -1.0775    0.7001 H   0  0  0  0  0  0  0  0  0  0  0  0
    9.7202    0.4462    0.7599 H   0  0  0  0  0  0  0  0  0  0  0  0
    7.1124    0.5973    2.1846 H   0  0  0  0  0  0  0  0  0  0  0  0
    9.6486    1.0634    3.7306 H   0  0  0  0  0  0  0  0  0  0  0  0
    5.1405    1.2815    5.7138 H   0  0  0  0  0  0  0  0  0  0  0  0
    5.4306    0.7654    3.0005 H   0  0  0  0  0  0  0  0  0  0  0  0
    3.0168    0.6690    3.1401 H   0  0  0  0  0  0  0  0  0  0  0  0
  1  2  1  0  0  0  0
  1 30  1  0  0  0  0
  1 31  1  0  0  0  0
  1 32  1  0  0  0  0
  2  3  1  0  0  0  0
  2 29  2  3  0  0  0
  3  4  2  3  0  0  0
  3 33  1  0  0  0  0
  4  5  1  0  0  0  0
  4  7  1  0  0  0  0
  5  6  1  0  0  0  0
  5 34  1  0  0  0  0
  5 35  1  0  0  0  0
  6 36  1  0  0  0  0
  7  8  1  0  0  0  0
  7 15  2  3  0  0  0
  8  9  1  0  0  0  0
  8 37  1  0  0  0  0
  8 38  1  0  0  0  0
  9 10  1  0  0  0  0
  9 14  2  0  0  0  0
 10 11  2  0  0  0  0
 10 39  1  0  0  0  0
 11 12  1  0  0  0  0
 11 40  1  0  0  0  0
 12 13  2  0  0  0  0
 12 41  1  0  0  0  0
 13 14  1  0  0  0  0
 13 42  1  0  0  0  0
 14 43  1  0  0  0  0
 15 16  1  0  0  0  0
 15 20  1  0  0  0  0
 16 17  2  0  0  0  0
 16 44  1  0  0  0  0
 17 18  1  0  0  0  0
 17 19  1  0  0  0  0
 18 45  1  0  0  0  0
 18 46  1  0  0  0  0
 18 47  1  0  0  0  0
 19 20  2  0  0  0  0
 19 48  1  0  0  0  0
 20 21  1  0  0  0  0
 21 22  2  3  0  0  0
 21 49  1  0  0  0  0
 22 23  1  0  0  0  0
 22 50  1  0  0  0  0
 23 24  2  3  0  0  0
 23 51  1  0  0  0  0
 24 25  1  0  0  0  0
 24 52  1  0  0  0  0
 25 26  2  3  0  0  0
 26 27  1  0  0  0  0
 27 28  2  3  0  0  0
 27 53  1  0  0  0  0
 28 29  1  0  0  0  0
 28 54  1  0  0  0  0
 29 55  1  0  0  0  0
M  END
$$$$
