
 OpenBabel04232216533D

233232  0  0  0  0  0  0  0  0999 V2000
   10.9210   -6.0771  -12.9394 C   0  0  0  0  0  0  0  0  0  0  0  0
   10.4251   -4.6493  -12.8069 C   0  0  0  0  0  0  0  0  0  0  0  0
   10.9362   -4.0243  -11.5164 C   0  0  0  0  0  0  0  0  0  0  0  0
   10.4385   -2.5933  -11.3809 C   0  0  0  0  0  0  0  0  0  0  0  0
   10.9531   -1.9772  -10.0903 C   0  0  0  0  0  0  0  0  0  0  0  0
   10.4531   -0.5481   -9.9591 C   0  0  0  0  0  0  0  0  0  0  0  0
   10.9634    0.0651   -8.6692 C   0  0  0  0  0  0  0  0  0  0  0  0
   10.4618    1.4913   -8.5269 C   0  0  0  0  0  0  0  0  0  0  0  0
   10.9695    2.0721   -7.2260 C   0  0  0  0  0  0  0  0  0  0  0  0
   10.4795    3.4042   -7.1062 O   0  0  0  0  0  0  0  0  0  0  0  0
   10.9768    4.0065   -5.9172 C   0  0  0  0  0  0  0  0  0  0  0  0
   12.3925    4.0590   -5.9045 O   0  0  0  0  0  0  0  0  0  0  0  0
   12.8580    4.7958   -7.0211 C   0  0  0  0  0  0  0  0  0  0  0  0
   14.2690    4.7828   -7.0099 O   0  0  0  0  0  0  0  0  0  0  0  0
   14.7774    5.5144   -8.1078 C   0  0  0  0  0  0  0  0  0  0  0  0
   16.1851    5.4705   -8.0466 O   0  0  0  0  0  0  0  0  0  0  0  0
   16.6402    6.2423   -9.1698 O   0  0  0  0  0  0  0  0  0  0  0  0
   18.0782    6.2472   -9.1603 O   0  0  0  0  0  0  0  0  0  0  0  0
   18.4519    7.0117  -10.2846 C   0  0  0  0  0  0  0  0  0  0  0  0
   19.9611    7.0175  -10.2846 C   0  0  0  0  0  0  0  0  0  0  0  0
   20.4747    7.8200  -11.4564 C   0  0  0  0  0  0  0  0  0  0  0  0
   21.9899    7.8209  -11.4516 C   0  0  0  0  0  0  0  0  0  0  0  0
   22.4981    8.6290  -12.6279 C   0  0  0  0  0  0  0  0  0  0  0  0
   24.0135    8.6322  -12.6300 C   0  0  0  0  0  0  0  0  0  0  0  0
   24.5221    9.4409  -13.8069 C   0  0  0  0  0  0  0  0  0  0  0  0
   26.0383    9.4459  -13.8083 C   0  0  0  0  0  0  0  0  0  0  0  0
   26.5484   10.2546  -14.9852 C   0  0  0  0  0  0  0  0  0  0  0  0
   28.0650   10.2600  -14.9875 C   0  0  0  0  0  0  0  0  0  0  0  0
   28.5741   11.0684  -16.1652 C   0  0  0  0  0  0  0  0  0  0  0  0
   30.0924   11.0734  -16.1675 C   0  0  0  0  0  0  0  0  0  0  0  0
   30.6015   11.8826  -17.3457 C   0  0  0  0  0  0  0  0  0  0  0  0
   32.1195   11.8884  -17.3464 C   0  0  0  0  0  0  0  0  0  0  0  0
   32.6300   12.6985  -18.5221 C   0  0  0  0  0  0  0  0  0  0  0  0
   34.1487   12.7010  -18.5234 C   0  0  0  0  0  0  0  0  0  0  0  0
   34.6551   13.5114  -19.7016 C   0  0  0  0  0  0  0  0  0  0  0  0
   36.1711   13.5163  -19.7046 C   0  0  0  0  0  0  0  0  0  0  0  0
   36.6809   14.3232  -20.8831 C   0  0  0  0  0  0  0  0  0  0  0  0
   38.1975   14.3270  -20.8862 C   0  0  0  0  0  0  0  0  0  0  0  0
   38.7077   15.1354  -22.0637 C   0  0  0  0  0  0  0  0  0  0  0  0
   40.2242   15.1380  -22.0676 C   0  0  0  0  0  0  0  0  0  0  0  0
   40.7342   15.9450  -23.2462 C   0  0  0  0  0  0  0  0  0  0  0  0
   42.2509   15.9475  -23.2503 C   0  0  0  0  0  0  0  0  0  0  0  0
   42.7609   16.7543  -24.4288 C   0  0  0  0  0  0  0  0  0  0  0  0
   44.2776   16.7568  -24.4329 C   0  0  0  0  0  0  0  0  0  0  0  0
   44.7876   17.5637  -25.6115 C   0  0  0  0  0  0  0  0  0  0  0  0
   46.3042   17.5663  -25.6155 C   0  0  0  0  0  0  0  0  0  0  0  0
   46.8143   18.3731  -26.7941 C   0  0  0  0  0  0  0  0  0  0  0  0
   48.3309   18.3756  -26.7982 C   0  0  0  0  0  0  0  0  0  0  0  0
   48.8409   19.1825  -27.9767 C   0  0  0  0  0  0  0  0  0  0  0  0
   50.3575   19.1834  -27.9819 C   0  0  0  0  0  0  0  0  0  0  0  0
   50.8676   19.9903  -29.1604 C   0  0  0  0  0  0  0  0  0  0  0  0
   52.3842   19.9928  -29.1645 C   0  0  0  0  0  0  0  0  0  0  0  0
   52.8942   20.8013  -30.3419 C   0  0  0  0  0  0  0  0  0  0  0  0
   54.4109   20.8022  -30.3471 C   0  0  0  0  0  0  0  0  0  0  0  0
   54.9209   21.6090  -31.5257 C   0  0  0  0  0  0  0  0  0  0  0  0
   56.4375   21.6083  -31.5320 C   0  0  0  0  0  0  0  0  0  0  0  0
   56.9475   22.4135  -32.7117 C   0  0  0  0  0  0  0  0  0  0  0  0
   58.4642   22.4143  -32.7169 C   0  0  0  0  0  0  0  0  0  0  0  0
   58.9742   23.2195  -33.8966 C   0  0  0  0  0  0  0  0  0  0  0  0
   60.4908   23.2220  -33.9007 C   0  0  0  0  0  0  0  0  0  0  0  0
   61.0009   24.0273  -35.0804 C   0  0  0  0  0  0  0  0  0  0  0  0
   62.5175   24.0299  -35.0845 C   0  0  0  0  0  0  0  0  0  0  0  0
   63.0275   24.8350  -36.2642 C   0  0  0  0  0  0  0  0  0  0  0  0
   64.5442   24.8375  -36.2684 C   0  0  0  0  0  0  0  0  0  0  0  0
   65.0542   25.6428  -37.4481 C   0  0  0  0  0  0  0  0  0  0  0  0
   66.5709   25.6453  -37.4521 C   0  0  0  0  0  0  0  0  0  0  0  0
   67.0811   26.4506  -38.6317 C   0  0  0  0  0  0  0  0  0  0  0  0
   68.5978   26.4527  -38.6357 C   0  0  0  0  0  0  0  0  0  0  0  0
   69.1077   27.2580  -39.8152 C   0  0  0  0  0  0  0  0  0  0  0  0
   70.6247   27.2622  -39.8185 C   0  0  0  0  0  0  0  0  0  0  0  0
   71.1356   28.0691  -40.9990 C   0  0  0  0  0  0  0  0  0  0  0  0
   72.6527   28.0721  -41.0015 C   0  0  0  0  0  0  0  0  0  0  0  0
   73.1578   28.8765  -42.1796 C   0  0  0  0  0  0  0  0  0  0  0  0
   74.6836   28.8837  -42.1895 C   0  0  0  0  0  0  0  0  0  0  0  0
   75.1927   29.6885  -43.3655 C   0  0  0  0  0  0  0  0  0  0  0  0
   76.7056   29.6903  -43.3628 C   0  0  0  0  0  0  0  0  0  0  0  0
   77.2246   30.4983  -44.5469 C   0  0  0  0  0  0  0  0  0  0  0  0
   78.7433   30.5066  -44.5524 C   0  0  0  0  0  0  0  0  0  0  0  0
   79.2585   31.3147  -45.7311 C   0  0  0  0  0  0  0  0  0  0  0  0
   80.7819   31.3287  -45.7489 C   0  0  0  0  0  0  0  0  0  0  0  0
   81.2935   32.1341  -46.9247 C   0  0  0  0  0  0  0  0  0  0  0  0
   10.5519   -6.5218  -13.8668 H   0  0  0  0  0  0  0  0  0  0  0  0
   10.5717   -6.6873  -12.1004 H   0  0  0  0  0  0  0  0  0  0  0  0
   12.0152   -6.1068  -12.9531 H   0  0  0  0  0  0  0  0  0  0  0  0
    9.3289   -4.6389  -12.8184 H   0  0  0  0  0  0  0  0  0  0  0  0
   10.7654   -4.0610  -13.6671 H   0  0  0  0  0  0  0  0  0  0  0  0
   12.0331   -4.0354  -11.5049 H   0  0  0  0  0  0  0  0  0  0  0  0
   10.5982   -4.6149  -10.6559 H   0  0  0  0  0  0  0  0  0  0  0  0
    9.3417   -2.5768  -11.3874 H   0  0  0  0  0  0  0  0  0  0  0  0
   10.7774   -1.9969  -12.2368 H   0  0  0  0  0  0  0  0  0  0  0  0
   12.0502   -1.9905  -10.0803 H   0  0  0  0  0  0  0  0  0  0  0  0
   10.6150   -2.5704   -9.2315 H   0  0  0  0  0  0  0  0  0  0  0  0
    9.3565   -0.5338   -9.9680 H   0  0  0  0  0  0  0  0  0  0  0  0
   10.7944    0.0472  -10.8147 H   0  0  0  0  0  0  0  0  0  0  0  0
   12.0606    0.0510   -8.6585 H   0  0  0  0  0  0  0  0  0  0  0  0
   10.6260   -0.5324   -7.8131 H   0  0  0  0  0  0  0  0  0  0  0  0
    9.3671    1.5264   -8.5456 H   0  0  0  0  0  0  0  0  0  0  0  0
   10.8027    2.1060   -9.3709 H   0  0  0  0  0  0  0  0  0  0  0  0
   12.0661    2.0599   -7.2385 H   0  0  0  0  0  0  0  0  0  0  0  0
   10.6201    1.4787   -6.3740 H   0  0  0  0  0  0  0  0  0  0  0  0
   10.6351    3.4388   -5.0479 H   0  0  0  0  0  0  0  0  0  0  0  0
   10.5772    5.0213   -5.8397 H   0  0  0  0  0  0  0  0  0  0  0  0
   12.4979    5.8283   -6.9523 H   0  0  0  0  0  0  0  0  0  0  0  0
   12.5184    4.3446   -7.9600 H   0  0  0  0  0  0  0  0  0  0  0  0
   14.4397    6.5566   -8.0501 H   0  0  0  0  0  0  0  0  0  0  0  0
   14.4396    5.0690   -9.0538 H   0  0  0  0  0  0  0  0  0  0  0  0
   18.0539    8.0287  -10.1928 H   0  0  0  0  0  0  0  0  0  0  0  0
   18.0598    6.5496  -11.1976 H   0  0  0  0  0  0  0  0  0  0  0  0
   20.3347    5.9860  -10.3247 H   0  0  0  0  0  0  0  0  0  0  0  0
   20.3293    7.4320   -9.3371 H   0  0  0  0  0  0  0  0  0  0  0  0
   20.0986    8.8487  -11.3971 H   0  0  0  0  0  0  0  0  0  0  0  0
   20.1027    7.3903  -12.3945 H   0  0  0  0  0  0  0  0  0  0  0  0
   22.3659    6.7919  -11.5112 H   0  0  0  0  0  0  0  0  0  0  0  0
   22.3622    8.2485  -10.5122 H   0  0  0  0  0  0  0  0  0  0  0  0
   22.1205    9.6573  -12.5660 H   0  0  0  0  0  0  0  0  0  0  0  0
   22.1223    8.2013  -13.5657 H   0  0  0  0  0  0  0  0  0  0  0  0
   24.3893    7.6035  -12.6913 H   0  0  0  0  0  0  0  0  0  0  0  0
   24.3875    9.0595  -11.6914 H   0  0  0  0  0  0  0  0  0  0  0  0
   24.1440   10.4689  -13.7459 H   0  0  0  0  0  0  0  0  0  0  0  0
   24.1478    9.0125  -14.7449 H   0  0  0  0  0  0  0  0  0  0  0  0
   26.4155    8.4176  -13.8687 H   0  0  0  0  0  0  0  0  0  0  0  0
   26.4116    9.8740  -12.8697 H   0  0  0  0  0  0  0  0  0  0  0  0
   26.1703   11.2827  -14.9243 H   0  0  0  0  0  0  0  0  0  0  0  0
   26.1741    9.8263  -15.9233 H   0  0  0  0  0  0  0  0  0  0  0  0
   28.4424    9.2318  -15.0477 H   0  0  0  0  0  0  0  0  0  0  0  0
   28.4386   10.6884  -14.0490 H   0  0  0  0  0  0  0  0  0  0  0  0
   28.1974   12.0967  -16.1041 H   0  0  0  0  0  0  0  0  0  0  0  0
   28.2014   10.6393  -17.1027 H   0  0  0  0  0  0  0  0  0  0  0  0
   30.4697   10.0454  -16.2286 H   0  0  0  0  0  0  0  0  0  0  0  0
   30.4655   11.5025  -15.2282 H   0  0  0  0  0  0  0  0  0  0  0  0
   30.2254   12.9111  -17.2838 H   0  0  0  0  0  0  0  0  0  0  0  0
   30.2290   11.4551  -18.2839 H   0  0  0  0  0  0  0  0  0  0  0  0
   32.4986   10.8610  -17.4095 H   0  0  0  0  0  0  0  0  0  0  0  0
   32.4928   12.3156  -16.4074 H   0  0  0  0  0  0  0  0  0  0  0  0
   32.2531   13.7270  -18.4607 H   0  0  0  0  0  0  0  0  0  0  0  0
   32.2552   12.2713  -19.4608 H   0  0  0  0  0  0  0  0  0  0  0  0
   34.5222   11.6727  -18.5889 H   0  0  0  0  0  0  0  0  0  0  0  0
   34.5229   13.1257  -17.5856 H   0  0  0  0  0  0  0  0  0  0  0  0
   34.2773   14.5394  -19.6410 H   0  0  0  0  0  0  0  0  0  0  0  0
   34.2803   13.0827  -20.6392 H   0  0  0  0  0  0  0  0  0  0  0  0
   36.5484   12.4877  -19.7641 H   0  0  0  0  0  0  0  0  0  0  0  0
   36.5460   13.9455  -18.7673 H   0  0  0  0  0  0  0  0  0  0  0  0
   36.3040   15.3515  -20.8237 H   0  0  0  0  0  0  0  0  0  0  0  0
   36.3061   13.8937  -21.8206 H   0  0  0  0  0  0  0  0  0  0  0  0
   38.5742   13.2984  -20.9470 H   0  0  0  0  0  0  0  0  0  0  0  0
   38.5724   14.7547  -19.9483 H   0  0  0  0  0  0  0  0  0  0  0  0
   38.3319   16.1642  -22.0018 H   0  0  0  0  0  0  0  0  0  0  0  0
   38.3317   14.7083  -23.0015 H   0  0  0  0  0  0  0  0  0  0  0  0
   40.6000   14.1092  -22.1281 H   0  0  0  0  0  0  0  0  0  0  0  0
   40.6000   15.5664  -21.1302 H   0  0  0  0  0  0  0  0  0  0  0  0
   40.3586   16.9739  -23.1858 H   0  0  0  0  0  0  0  0  0  0  0  0
   40.3584   15.5166  -24.1835 H   0  0  0  0  0  0  0  0  0  0  0  0
   42.6265   14.9186  -23.3107 H   0  0  0  0  0  0  0  0  0  0  0  0
   42.6268   16.3758  -22.3129 H   0  0  0  0  0  0  0  0  0  0  0  0
   42.3853   17.7832  -24.3684 H   0  0  0  0  0  0  0  0  0  0  0  0
   42.3850   16.3260  -25.3662 H   0  0  0  0  0  0  0  0  0  0  0  0
   44.6532   15.7279  -24.4933 H   0  0  0  0  0  0  0  0  0  0  0  0
   44.6535   17.1852  -23.4955 H   0  0  0  0  0  0  0  0  0  0  0  0
   44.4119   18.5926  -25.5511 H   0  0  0  0  0  0  0  0  0  0  0  0
   44.4117   17.1354  -26.5488 H   0  0  0  0  0  0  0  0  0  0  0  0
   46.6799   16.5373  -25.6759 H   0  0  0  0  0  0  0  0  0  0  0  0
   46.6801   17.9946  -24.6782 H   0  0  0  0  0  0  0  0  0  0  0  0
   46.4386   19.4020  -26.7337 H   0  0  0  0  0  0  0  0  0  0  0  0
   46.4383   17.9448  -27.7314 H   0  0  0  0  0  0  0  0  0  0  0  0
   48.7065   17.3467  -26.8586 H   0  0  0  0  0  0  0  0  0  0  0  0
   48.7069   18.8040  -25.8608 H   0  0  0  0  0  0  0  0  0  0  0  0
   48.4663   20.2117  -27.9155 H   0  0  0  0  0  0  0  0  0  0  0  0
   48.4639   18.7550  -28.9140 H   0  0  0  0  0  0  0  0  0  0  0  0
   50.7321   18.1542  -28.0431 H   0  0  0  0  0  0  0  0  0  0  0  0
   50.7345   19.6109  -27.0445 H   0  0  0  0  0  0  0  0  0  0  0  0
   50.4920   21.0193  -29.0999 H   0  0  0  0  0  0  0  0  0  0  0  0
   50.4916   19.5620  -30.0977 H   0  0  0  0  0  0  0  0  0  0  0  0
   52.7597   18.9639  -29.2263 H   0  0  0  0  0  0  0  0  0  0  0  0
   52.7603   20.4199  -28.2266 H   0  0  0  0  0  0  0  0  0  0  0  0
   52.5197   21.8305  -30.2794 H   0  0  0  0  0  0  0  0  0  0  0  0
   52.5172   20.3750  -31.2798 H   0  0  0  0  0  0  0  0  0  0  0  0
   54.7853   19.7729  -30.4084 H   0  0  0  0  0  0  0  0  0  0  0  0
   54.7880   21.2296  -29.4098 H   0  0  0  0  0  0  0  0  0  0  0  0
   54.5475   22.6387  -31.4638 H   0  0  0  0  0  0  0  0  0  0  0  0
   54.5427   21.1823  -32.4629 H   0  0  0  0  0  0  0  0  0  0  0  0
   56.8110   20.5786  -31.5926 H   0  0  0  0  0  0  0  0  0  0  0  0
   56.8156   22.0362  -30.5953 H   0  0  0  0  0  0  0  0  0  0  0  0
   56.5731   23.4429  -32.6520 H   0  0  0  0  0  0  0  0  0  0  0  0
   56.5704   21.9847  -33.6483 H   0  0  0  0  0  0  0  0  0  0  0  0
   58.8387   21.3850  -32.7766 H   0  0  0  0  0  0  0  0  0  0  0  0
   58.8412   22.8432  -31.7802 H   0  0  0  0  0  0  0  0  0  0  0  0
   58.5986   24.2485  -33.8377 H   0  0  0  0  0  0  0  0  0  0  0  0
   58.5982   22.7899  -34.8333 H   0  0  0  0  0  0  0  0  0  0  0  0
   60.8665   22.1930  -33.9596 H   0  0  0  0  0  0  0  0  0  0  0  0
   60.8667   23.6517  -32.9639 H   0  0  0  0  0  0  0  0  0  0  0  0
   60.6252   25.0563  -35.0214 H   0  0  0  0  0  0  0  0  0  0  0  0
   60.6250   23.5976  -36.0171 H   0  0  0  0  0  0  0  0  0  0  0  0
   62.8932   23.0009  -35.1434 H   0  0  0  0  0  0  0  0  0  0  0  0
   62.8934   24.4596  -34.1477 H   0  0  0  0  0  0  0  0  0  0  0  0
   62.6519   25.8640  -36.2052 H   0  0  0  0  0  0  0  0  0  0  0  0
   62.6516   24.4054  -37.2009 H   0  0  0  0  0  0  0  0  0  0  0  0
   64.9198   23.8085  -36.3273 H   0  0  0  0  0  0  0  0  0  0  0  0
   64.9201   25.2672  -35.3316 H   0  0  0  0  0  0  0  0  0  0  0  0
   64.6786   26.6718  -37.3891 H   0  0  0  0  0  0  0  0  0  0  0  0
   64.6784   25.2131  -38.3848 H   0  0  0  0  0  0  0  0  0  0  0  0
   66.9466   24.6164  -37.5112 H   0  0  0  0  0  0  0  0  0  0  0  0
   66.9468   26.0749  -36.5153 H   0  0  0  0  0  0  0  0  0  0  0  0
   66.7056   27.4797  -38.5726 H   0  0  0  0  0  0  0  0  0  0  0  0
   66.7051   26.0212  -39.5686 H   0  0  0  0  0  0  0  0  0  0  0  0
   68.9732   25.4238  -38.6951 H   0  0  0  0  0  0  0  0  0  0  0  0
   68.9737   26.8822  -37.6989 H   0  0  0  0  0  0  0  0  0  0  0  0
   68.7313   28.2869  -39.7567 H   0  0  0  0  0  0  0  0  0  0  0  0
   68.7328   26.8281  -40.7522 H   0  0  0  0  0  0  0  0  0  0  0  0
   71.0012   26.2335  -39.8771 H   0  0  0  0  0  0  0  0  0  0  0  0
   70.9995   27.6922  -38.8815 H   0  0  0  0  0  0  0  0  0  0  0  0
   70.7578   29.0964  -40.9393 H   0  0  0  0  0  0  0  0  0  0  0  0
   70.7593   27.6377  -41.9350 H   0  0  0  0  0  0  0  0  0  0  0  0
   73.0279   27.0434  -41.0598 H   0  0  0  0  0  0  0  0  0  0  0  0
   73.0269   28.5022  -40.0642 H   0  0  0  0  0  0  0  0  0  0  0  0
   72.7855   29.9056  -42.1222 H   0  0  0  0  0  0  0  0  0  0  0  0
   72.7864   28.4470  -43.1177 H   0  0  0  0  0  0  0  0  0  0  0  0
   75.0616   27.8537  -42.2465 H   0  0  0  0  0  0  0  0  0  0  0  0
   75.0540   29.3096  -41.2511 H   0  0  0  0  0  0  0  0  0  0  0  0
   74.8112   30.7163  -43.3062 H   0  0  0  0  0  0  0  0  0  0  0  0
   74.8146   29.2567  -44.3040 H   0  0  0  0  0  0  0  0  0  0  0  0
   77.0829   28.6707  -43.4262 H   0  0  0  0  0  0  0  0  0  0  0  0
   77.0799   30.1239  -42.4305 H   0  0  0  0  0  0  0  0  0  0  0  0
   76.8457   31.5263  -44.4858 H   0  0  0  0  0  0  0  0  0  0  0  0
   76.8470   30.0678  -45.4828 H   0  0  0  0  0  0  0  0  0  0  0  0
   79.1170   29.4769  -44.6087 H   0  0  0  0  0  0  0  0  0  0  0  0
   79.1133   30.9349  -43.6121 H   0  0  0  0  0  0  0  0  0  0  0  0
   78.8773   32.3414  -45.6694 H   0  0  0  0  0  0  0  0  0  0  0  0
   78.8790   30.8850  -46.6663 H   0  0  0  0  0  0  0  0  0  0  0  0
   81.1614   30.3014  -45.8106 H   0  0  0  0  0  0  0  0  0  0  0  0
   81.1598   31.7583  -44.8132 H   0  0  0  0  0  0  0  0  0  0  0  0
   80.9452   31.7056  -47.8690 H   0  0  0  0  0  0  0  0  0  0  0  0
   82.3899   32.1421  -46.9348 H   0  0  0  0  0  0  0  0  0  0  0  0
   80.9436   33.1689  -46.8673 H   0  0  0  0  0  0  0  0  0  0  0  0
  1  2  1  0  0  0  0
  1 82  1  0  0  0  0
  1 83  1  0  0  0  0
  1 84  1  0  0  0  0
  2  3  1  0  0  0  0
  2 85  1  0  0  0  0
  2 86  1  0  0  0  0
  3  4  1  0  0  0  0
  3 87  1  0  0  0  0
  3 88  1  0  0  0  0
  4  5  1  0  0  0  0
  4 89  1  0  0  0  0
  4 90  1  0  0  0  0
  5  6  1  0  0  0  0
  5 91  1  0  0  0  0
  5 92  1  0  0  0  0
  6  7  1  0  0  0  0
  6 93  1  0  0  0  0
  6 94  1  0  0  0  0
  7  8  1  0  0  0  0
  7 95  1  0  0  0  0
  7 96  1  0  0  0  0
  8  9  1  0  0  0  0
  8 97  1  0  0  0  0
  8 98  1  0  0  0  0
  9 10  1  0  0  0  0
  9 99  1  0  0  0  0
  9100  1  0  0  0  0
 10 11  1  0  0  0  0
 11 12  1  0  0  0  0
 11101  1  0  0  0  0
 11102  1  0  0  0  0
 12 13  1  0  0  0  0
 13 14  1  0  0  0  0
 13103  1  0  0  0  0
 13104  1  0  0  0  0
 14 15  1  0  0  0  0
 15 16  1  0  0  0  0
 15105  1  0  0  0  0
 15106  1  0  0  0  0
 16 17  1  0  0  0  0
 17 18  1  0  0  0  0
 18 19  1  0  0  0  0
 19 20  1  0  0  0  0
 19107  1  0  0  0  0
 19108  1  0  0  0  0
 20 21  1  0  0  0  0
 20109  1  0  0  0  0
 20110  1  0  0  0  0
 21 22  1  0  0  0  0
 21111  1  0  0  0  0
 21112  1  0  0  0  0
 22 23  1  0  0  0  0
 22113  1  0  0  0  0
 22114  1  0  0  0  0
 23 24  1  0  0  0  0
 23115  1  0  0  0  0
 23116  1  0  0  0  0
 24 25  1  0  0  0  0
 24117  1  0  0  0  0
 24118  1  0  0  0  0
 25 26  1  0  0  0  0
 25119  1  0  0  0  0
 25120  1  0  0  0  0
 26 27  1  0  0  0  0
 26121  1  0  0  0  0
 26122  1  0  0  0  0
 27 28  1  0  0  0  0
 27123  1  0  0  0  0
 27124  1  0  0  0  0
 28 29  1  0  0  0  0
 28125  1  0  0  0  0
 28126  1  0  0  0  0
 29 30  1  0  0  0  0
 29127  1  0  0  0  0
 29128  1  0  0  0  0
 30 31  1  0  0  0  0
 30129  1  0  0  0  0
 30130  1  0  0  0  0
 31 32  1  0  0  0  0
 31131  1  0  0  0  0
 31132  1  0  0  0  0
 32 33  1  0  0  0  0
 32133  1  0  0  0  0
 32134  1  0  0  0  0
 33 34  1  0  0  0  0
 33135  1  0  0  0  0
 33136  1  0  0  0  0
 34 35  1  0  0  0  0
 34137  1  0  0  0  0
 34138  1  0  0  0  0
 35 36  1  0  0  0  0
 35139  1  0  0  0  0
 35140  1  0  0  0  0
 36 37  1  0  0  0  0
 36141  1  0  0  0  0
 36142  1  0  0  0  0
 37 38  1  0  0  0  0
 37143  1  0  0  0  0
 37144  1  0  0  0  0
 38 39  1  0  0  0  0
 38145  1  0  0  0  0
 38146  1  0  0  0  0
 39 40  1  0  0  0  0
 39147  1  0  0  0  0
 39148  1  0  0  0  0
 40 41  1  0  0  0  0
 40149  1  0  0  0  0
 40150  1  0  0  0  0
 41 42  1  0  0  0  0
 41151  1  0  0  0  0
 41152  1  0  0  0  0
 42 43  1  0  0  0  0
 42153  1  0  0  0  0
 42154  1  0  0  0  0
 43 44  1  0  0  0  0
 43155  1  0  0  0  0
 43156  1  0  0  0  0
 44 45  1  0  0  0  0
 44157  1  0  0  0  0
 44158  1  0  0  0  0
 45 46  1  0  0  0  0
 45159  1  0  0  0  0
 45160  1  0  0  0  0
 46 47  1  0  0  0  0
 46161  1  0  0  0  0
 46162  1  0  0  0  0
 47 48  1  0  0  0  0
 47163  1  0  0  0  0
 47164  1  0  0  0  0
 48 49  1  0  0  0  0
 48165  1  0  0  0  0
 48166  1  0  0  0  0
 49 50  1  0  0  0  0
 49167  1  0  0  0  0
 49168  1  0  0  0  0
 50 51  1  0  0  0  0
 50169  1  0  0  0  0
 50170  1  0  0  0  0
 51 52  1  0  0  0  0
 51171  1  0  0  0  0
 51172  1  0  0  0  0
 52 53  1  0  0  0  0
 52173  1  0  0  0  0
 52174  1  0  0  0  0
 53 54  1  0  0  0  0
 53175  1  0  0  0  0
 53176  1  0  0  0  0
 54 55  1  0  0  0  0
 54177  1  0  0  0  0
 54178  1  0  0  0  0
 55 56  1  0  0  0  0
 55179  1  0  0  0  0
 55180  1  0  0  0  0
 56 57  1  0  0  0  0
 56181  1  0  0  0  0
 56182  1  0  0  0  0
 57 58  1  0  0  0  0
 57183  1  0  0  0  0
 57184  1  0  0  0  0
 58 59  1  0  0  0  0
 58185  1  0  0  0  0
 58186  1  0  0  0  0
 59 60  1  0  0  0  0
 59187  1  0  0  0  0
 59188  1  0  0  0  0
 60 61  1  0  0  0  0
 60189  1  0  0  0  0
 60190  1  0  0  0  0
 61 62  1  0  0  0  0
 61191  1  0  0  0  0
 61192  1  0  0  0  0
 62 63  1  0  0  0  0
 62193  1  0  0  0  0
 62194  1  0  0  0  0
 63 64  1  0  0  0  0
 63195  1  0  0  0  0
 63196  1  0  0  0  0
 64 65  1  0  0  0  0
 64197  1  0  0  0  0
 64198  1  0  0  0  0
 65 66  1  0  0  0  0
 65199  1  0  0  0  0
 65200  1  0  0  0  0
 66 67  1  0  0  0  0
 66201  1  0  0  0  0
 66202  1  0  0  0  0
 67 68  1  0  0  0  0
 67203  1  0  0  0  0
 67204  1  0  0  0  0
 68 69  1  0  0  0  0
 68205  1  0  0  0  0
 68206  1  0  0  0  0
 69 70  1  0  0  0  0
 69207  1  0  0  0  0
 69208  1  0  0  0  0
 70 71  1  0  0  0  0
 70209  1  0  0  0  0
 70210  1  0  0  0  0
 71 72  1  0  0  0  0
 71211  1  0  0  0  0
 71212  1  0  0  0  0
 72 73  1  0  0  0  0
 72213  1  0  0  0  0
 72214  1  0  0  0  0
 73 74  1  0  0  0  0
 73215  1  0  0  0  0
 73216  1  0  0  0  0
 74 75  1  0  0  0  0
 74217  1  0  0  0  0
 74218  1  0  0  0  0
 75 76  1  0  0  0  0
 75219  1  0  0  0  0
 75220  1  0  0  0  0
 76 77  1  0  0  0  0
 76221  1  0  0  0  0
 76222  1  0  0  0  0
 77 78  1  0  0  0  0
 77223  1  0  0  0  0
 77224  1  0  0  0  0
 78 79  1  0  0  0  0
 78225  1  0  0  0  0
 78226  1  0  0  0  0
 79 80  1  0  0  0  0
 79227  1  0  0  0  0
 79228  1  0  0  0  0
 80 81  1  0  0  0  0
 80229  1  0  0  0  0
 80230  1  0  0  0  0
 81231  1  0  0  0  0
 81232  1  0  0  0  0
 81233  1  0  0  0  0
M  END
$$$$
