
 OpenBabel04232217013D

193192  0  0  0  0  0  0  0  0999 V2000
   19.8296  -13.4474   -0.9039 O   0  0  0  0  0  0  0  0  0  0  0  0
   19.3312  -12.1302   -0.7814 C   0  0  0  0  0  0  0  0  0  0  0  0
   19.8164  -11.3230   -1.9695 C   0  0  0  0  0  0  0  0  0  0  0  0
   19.3076   -9.8992   -1.8799 C   0  0  0  0  0  0  0  0  0  0  0  0
   19.7947   -9.0963   -3.0665 C   0  0  0  0  0  0  0  0  0  0  0  0
   19.2715   -7.6888   -2.9578 C   0  0  0  0  0  0  0  0  0  0  0  0
   19.7526   -6.9905   -4.0915 O   0  0  0  0  0  0  0  0  0  0  0  0
   19.3081   -5.6563   -4.0484 C   0  0  0  0  0  0  0  0  0  0  0  0
   19.8013   -4.9623   -5.1711 O   0  0  0  0  0  0  0  0  0  0  0  0
   19.2734   -3.6407   -4.9843 O   0  0  0  0  0  0  0  0  0  0  0  0
   19.7025   -2.9126   -6.1032 C   0  0  0  0  0  0  0  0  0  0  0  0
   19.1541   -1.6252   -5.9956 O   0  0  0  0  0  0  0  0  0  0  0  0
   19.6856   -0.9063   -7.1144 O   0  0  0  0  0  0  0  0  0  0  0  0
   19.3658    0.4844   -6.9795 O   0  0  0  0  0  0  0  0  0  0  0  0
   19.6368    1.1513   -8.2180 O   0  0  0  0  0  0  0  0  0  0  0  0
   19.0729    2.4713   -8.2063 O   0  0  0  0  0  0  0  0  0  0  0  0
   19.8430    3.3233   -9.0747 O   0  0  0  0  0  0  0  0  0  0  0  0
   19.4122    4.6880   -8.9406 O   0  0  0  0  0  0  0  0  0  0  0  0
   19.0851    5.2417  -10.2332 O   0  0  0  0  0  0  0  0  0  0  0  0
   18.7312    6.6350  -10.0809 O   0  0  0  0  0  0  0  0  0  0  0  0
   19.3907    7.4474  -11.0735 O   0  0  0  0  0  0  0  0  0  0  0  0
   20.8317    7.3267  -10.9693 O   0  0  0  0  0  0  0  0  0  0  0  0
   21.3089    7.9122  -12.1657 C   0  0  0  0  0  0  0  0  0  0  0  0
   22.8210    7.8630  -12.1577 C   0  0  0  0  0  0  0  0  0  0  0  0
   23.3519    8.6251  -13.3535 C   0  0  0  0  0  0  0  0  0  0  0  0
   24.8653    8.6181  -13.3440 C   0  0  0  0  0  0  0  0  0  0  0  0
   25.3723    9.4030  -14.5352 C   0  0  0  0  0  0  0  0  0  0  0  0
   26.8846    9.4038  -14.5327 C   0  0  0  0  0  0  0  0  0  0  0  0
   27.3849   10.1889  -15.7258 C   0  0  0  0  0  0  0  0  0  0  0  0
   28.8973   10.1881  -15.7265 C   0  0  0  0  0  0  0  0  0  0  0  0
   29.4021   10.9721  -16.9185 C   0  0  0  0  0  0  0  0  0  0  0  0
   30.9159   10.9719  -16.9168 C   0  0  0  0  0  0  0  0  0  0  0  0
   31.4215   11.7552  -18.1097 C   0  0  0  0  0  0  0  0  0  0  0  0
   32.9355   11.7563  -18.1126 C   0  0  0  0  0  0  0  0  0  0  0  0
   33.4380   12.5419  -19.3060 C   0  0  0  0  0  0  0  0  0  0  0  0
   34.9519   12.5420  -19.3090 C   0  0  0  0  0  0  0  0  0  0  0  0
   35.4575   13.3238  -20.5029 C   0  0  0  0  0  0  0  0  0  0  0  0
   36.9711   13.3232  -20.5009 C   0  0  0  0  0  0  0  0  0  0  0  0
   37.4767   14.1028  -21.6956 C   0  0  0  0  0  0  0  0  0  0  0  0
   38.9895   14.1016  -21.6944 C   0  0  0  0  0  0  0  0  0  0  0  0
   39.4932   14.8825  -22.8890 C   0  0  0  0  0  0  0  0  0  0  0  0
   41.0061   14.8792  -22.8875 C   0  0  0  0  0  0  0  0  0  0  0  0
   41.5154   15.6589  -24.0816 C   0  0  0  0  0  0  0  0  0  0  0  0
   43.0292   15.6536  -24.0718 C   0  0  0  0  0  0  0  0  0  0  0  0
   43.5581   16.4472  -25.2490 C   0  0  0  0  0  0  0  0  0  0  0  0
   45.0691   16.4654  -25.2084 C   0  0  0  0  0  0  0  0  0  0  0  0
   45.5304   17.3240  -26.2360 O   0  0  0  0  0  0  0  0  0  0  0  0
   46.9734   17.2801  -26.1133 O   0  0  0  0  0  0  0  0  0  0  0  0
   47.6030   17.8827  -27.2631 O   0  0  0  0  0  0  0  0  0  0  0  0
   47.2545   17.1708  -28.4717 O   0  0  0  0  0  0  0  0  0  0  0  0
   46.9699   18.1167  -29.5245 O   0  0  0  0  0  0  0  0  0  0  0  0
   46.5563   17.4231  -30.7141 O   0  0  0  0  0  0  0  0  0  0  0  0
   47.2572   17.9361  -31.8614 O   0  0  0  0  0  0  0  0  0  0  0  0
   46.6391   17.4324  -33.0565 O   0  0  0  0  0  0  0  0  0  0  0  0
   47.0492   18.2147  -34.1898 O   0  0  0  0  0  0  0  0  0  0  0  0
   46.5406   17.5091  -35.3030 C   0  0  0  0  0  0  0  0  0  0  0  0
   47.0086   18.2592  -36.5209 C   0  0  0  0  0  0  0  0  0  0  0  0
   46.4826   17.5960  -37.7691 C   0  0  0  0  0  0  0  0  0  0  0  0
   46.9633   18.3766  -38.9700 C   0  0  0  0  0  0  0  0  0  0  0  0
   46.4402   17.7209  -40.2246 C   0  0  0  0  0  0  0  0  0  0  0  0
   46.9206   18.4999  -41.4266 C   0  0  0  0  0  0  0  0  0  0  0  0
   46.3957   17.8399  -42.6801 C   0  0  0  0  0  0  0  0  0  0  0  0
   46.8710   18.6145  -43.8881 C   0  0  0  0  0  0  0  0  0  0  0  0
   46.3436   17.9537  -45.1426 C   0  0  0  0  0  0  0  0  0  0  0  0
   46.8182   18.7240  -46.3556 C   0  0  0  0  0  0  0  0  0  0  0  0
   46.2959   18.0660  -47.6099 C   0  0  0  0  0  0  0  0  0  0  0  0
   46.7749   18.8401  -48.8213 C   0  0  0  0  0  0  0  0  0  0  0  0
   46.2521   18.1817  -50.0886 C   0  0  0  0  0  0  0  0  0  0  0  0
   46.7201   18.9506  -51.3048 C   0  0  0  0  0  0  0  0  0  0  0  0
   46.1943   18.2865  -52.5800 C   0  0  0  0  0  0  0  0  0  0  0  0
   46.6723   19.0534  -53.7974 C   0  0  0  0  0  0  0  0  0  0  0  0
   46.1377   18.3943  -55.0554 C   0  0  0  0  0  0  0  0  0  0  0  0
   46.6097   19.1696  -56.2722 C   0  0  0  0  0  0  0  0  0  0  0  0
   46.0858   18.5163  -57.5394 C   0  0  0  0  0  0  0  0  0  0  0  0
   46.5586   19.2858  -58.7632 C   0  0  0  0  0  0  0  0  0  0  0  0
   46.0369   18.6312  -60.0334 C   0  0  0  0  0  0  0  0  0  0  0  0
   46.5089   19.4020  -61.2651 C   0  0  0  0  0  0  0  0  0  0  0  0
   45.9929   18.7554  -62.5376 C   0  0  0  0  0  0  0  0  0  0  0  0
   46.4607   19.5145  -63.7694 C   0  0  0  0  0  0  0  0  0  0  0  0
   45.9441   18.8593  -64.9216 O   0  0  0  0  0  0  0  0  0  0  0  0
   46.4307   19.6369  -66.0474 O   0  0  0  0  0  0  0  0  0  0  0  0
   19.5048  -13.9487   -0.1259 H   0  0  0  0  0  0  0  0  0  0  0  0
   19.6952  -11.6938    0.1546 H   0  0  0  0  0  0  0  0  0  0  0  0
   18.2369  -12.1608   -0.7577 H   0  0  0  0  0  0  0  0  0  0  0  0
   19.4776  -11.7904   -2.9025 H   0  0  0  0  0  0  0  0  0  0  0  0
   20.9128  -11.3337   -2.0065 H   0  0  0  0  0  0  0  0  0  0  0  0
   19.6544   -9.4302   -0.9505 H   0  0  0  0  0  0  0  0  0  0  0  0
   18.2106   -9.8906   -1.8557 H   0  0  0  0  0  0  0  0  0  0  0  0
   19.4569   -9.5418   -4.0106 H   0  0  0  0  0  0  0  0  0  0  0  0
   20.8910   -9.0807   -3.1122 H   0  0  0  0  0  0  0  0  0  0  0  0
   19.6346   -7.2074   -2.0413 H   0  0  0  0  0  0  0  0  0  0  0  0
   18.1747   -7.6818   -2.9539 H   0  0  0  0  0  0  0  0  0  0  0  0
   19.6791   -5.1673   -3.1391 H   0  0  0  0  0  0  0  0  0  0  0  0
   18.2115   -5.6267   -4.0638 H   0  0  0  0  0  0  0  0  0  0  0  0
   19.3485   -3.3927   -7.0246 H   0  0  0  0  0  0  0  0  0  0  0  0
   20.8026   -2.8655   -6.1108 H   0  0  0  0  0  0  0  0  0  0  0  0
   20.9643    8.9508  -12.2141 H   0  0  0  0  0  0  0  0  0  0  0  0
   20.9162    7.3671  -13.0329 H   0  0  0  0  0  0  0  0  0  0  0  0
   23.1648    6.8214  -12.1773 H   0  0  0  0  0  0  0  0  0  0  0  0
   23.2054    8.2933  -11.2247 H   0  0  0  0  0  0  0  0  0  0  0  0
   22.9888    9.6606  -13.3284 H   0  0  0  0  0  0  0  0  0  0  0  0
   22.9810    8.1764  -14.2836 H   0  0  0  0  0  0  0  0  0  0  0  0
   25.2388    7.5877  -13.3842 H   0  0  0  0  0  0  0  0  0  0  0  0
   25.2390    9.0652  -12.4146 H   0  0  0  0  0  0  0  0  0  0  0  0
   24.9975   10.4335  -14.4947 H   0  0  0  0  0  0  0  0  0  0  0  0
   24.9985    8.9586  -15.4660 H   0  0  0  0  0  0  0  0  0  0  0  0
   27.2613    8.3743  -14.5738 H   0  0  0  0  0  0  0  0  0  0  0  0
   27.2595    9.8505  -13.6034 H   0  0  0  0  0  0  0  0  0  0  0  0
   27.0078   11.2185  -15.6837 H   0  0  0  0  0  0  0  0  0  0  0  0
   27.0078    9.7425  -16.6543 H   0  0  0  0  0  0  0  0  0  0  0  0
   29.2703    9.1573  -15.7695 H   0  0  0  0  0  0  0  0  0  0  0  0
   29.2735   10.6322  -14.7966 H   0  0  0  0  0  0  0  0  0  0  0  0
   29.0252   12.0017  -16.8781 H   0  0  0  0  0  0  0  0  0  0  0  0
   29.0264   10.5251  -17.8473 H   0  0  0  0  0  0  0  0  0  0  0  0
   31.2911    9.9417  -16.9566 H   0  0  0  0  0  0  0  0  0  0  0  0
   31.2905   11.4182  -15.9873 H   0  0  0  0  0  0  0  0  0  0  0  0
   31.0456   12.7849  -18.0682 H   0  0  0  0  0  0  0  0  0  0  0  0
   31.0449   11.3086  -19.0381 H   0  0  0  0  0  0  0  0  0  0  0  0
   33.3119   10.7268  -18.1559 H   0  0  0  0  0  0  0  0  0  0  0  0
   33.3130   12.2015  -17.1837 H   0  0  0  0  0  0  0  0  0  0  0  0
   33.0621   13.5717  -19.2637 H   0  0  0  0  0  0  0  0  0  0  0  0
   33.0606   12.0962  -20.2346 H   0  0  0  0  0  0  0  0  0  0  0  0
   35.3272   11.5121  -19.3500 H   0  0  0  0  0  0  0  0  0  0  0  0
   35.3293   12.9889  -18.3809 H   0  0  0  0  0  0  0  0  0  0  0  0
   35.0823   14.3540  -20.4649 H   0  0  0  0  0  0  0  0  0  0  0  0
   35.0832   12.8756  -21.4316 H   0  0  0  0  0  0  0  0  0  0  0  0
   37.3473   12.2933  -20.5382 H   0  0  0  0  0  0  0  0  0  0  0  0
   37.3467   13.7726  -19.5731 H   0  0  0  0  0  0  0  0  0  0  0  0
   37.1019   15.1331  -21.6583 H   0  0  0  0  0  0  0  0  0  0  0  0
   37.1018   13.6537  -22.6236 H   0  0  0  0  0  0  0  0  0  0  0  0
   39.3654   13.0716  -21.7329 H   0  0  0  0  0  0  0  0  0  0  0  0
   39.3658   14.5500  -20.7663 H   0  0  0  0  0  0  0  0  0  0  0  0
   39.1190   15.9130  -22.8497 H   0  0  0  0  0  0  0  0  0  0  0  0
   39.1170   14.4348  -23.8171 H   0  0  0  0  0  0  0  0  0  0  0  0
   41.3795   13.8482  -22.9242 H   0  0  0  0  0  0  0  0  0  0  0  0
   41.3805   15.3266  -21.9582 H   0  0  0  0  0  0  0  0  0  0  0  0
   41.1414   16.6895  -24.0422 H   0  0  0  0  0  0  0  0  0  0  0  0
   41.1420   15.2117  -25.0108 H   0  0  0  0  0  0  0  0  0  0  0  0
   43.4010   14.6223  -24.1135 H   0  0  0  0  0  0  0  0  0  0  0  0
   43.3934   16.0904  -23.1332 H   0  0  0  0  0  0  0  0  0  0  0  0
   43.1701   17.4730  -25.2266 H   0  0  0  0  0  0  0  0  0  0  0  0
   43.2120   16.0121  -26.1952 H   0  0  0  0  0  0  0  0  0  0  0  0
   45.4673   15.4545  -25.3571 H   0  0  0  0  0  0  0  0  0  0  0  0
   45.4204   16.8474  -24.2432 H   0  0  0  0  0  0  0  0  0  0  0  0
   45.4456   17.4840  -35.2554 H   0  0  0  0  0  0  0  0  0  0  0  0
   46.9219   16.4804  -35.3096 H   0  0  0  0  0  0  0  0  0  0  0  0
   48.1055   18.2964  -36.5349 H   0  0  0  0  0  0  0  0  0  0  0  0
   46.6720   19.3023  -36.4657 H   0  0  0  0  0  0  0  0  0  0  0  0
   45.3860   17.5678  -37.7510 H   0  0  0  0  0  0  0  0  0  0  0  0
   46.8344   16.5584  -37.8261 H   0  0  0  0  0  0  0  0  0  0  0  0
   48.0601   18.4060  -38.9874 H   0  0  0  0  0  0  0  0  0  0  0  0
   46.6118   19.4146  -38.9113 H   0  0  0  0  0  0  0  0  0  0  0  0
   45.3436   17.6930  -40.2057 H   0  0  0  0  0  0  0  0  0  0  0  0
   46.7915   16.6831  -40.2815 H   0  0  0  0  0  0  0  0  0  0  0  0
   48.0173   18.5286  -41.4437 H   0  0  0  0  0  0  0  0  0  0  0  0
   46.5689   19.5376  -41.3685 H   0  0  0  0  0  0  0  0  0  0  0  0
   45.2993   17.8098  -42.6578 H   0  0  0  0  0  0  0  0  0  0  0  0
   46.7483   16.8023  -42.7339 H   0  0  0  0  0  0  0  0  0  0  0  0
   47.9675   18.6431  -43.9079 H   0  0  0  0  0  0  0  0  0  0  0  0
   46.5194   19.6522  -43.8309 H   0  0  0  0  0  0  0  0  0  0  0  0
   45.2471   17.9262  -45.1190 H   0  0  0  0  0  0  0  0  0  0  0  0
   46.6937   16.9153  -45.1947 H   0  0  0  0  0  0  0  0  0  0  0  0
   47.9158   18.7537  -46.3728 H   0  0  0  0  0  0  0  0  0  0  0  0
   46.4682   19.7630  -46.2985 H   0  0  0  0  0  0  0  0  0  0  0  0
   45.1992   18.0369  -47.5924 H   0  0  0  0  0  0  0  0  0  0  0  0
   46.6463   17.0282  -47.6659 H   0  0  0  0  0  0  0  0  0  0  0  0
   47.8721   18.8711  -48.8401 H   0  0  0  0  0  0  0  0  0  0  0  0
   46.4225   19.8776  -48.7685 H   0  0  0  0  0  0  0  0  0  0  0  0
   45.1659   18.1503  -50.0649 H   0  0  0  0  0  0  0  0  0  0  0  0
   46.6124   17.1432  -50.1393 H   0  0  0  0  0  0  0  0  0  0  0  0
   47.8178   18.9986  -51.3231 H   0  0  0  0  0  0  0  0  0  0  0  0
   46.3500   19.9869  -51.2582 H   0  0  0  0  0  0  0  0  0  0  0  0
   45.1022   18.2550  -52.5435 H   0  0  0  0  0  0  0  0  0  0  0  0
   46.5515   17.2497  -52.6152 H   0  0  0  0  0  0  0  0  0  0  0  0
   47.7630   19.0833  -53.8163 H   0  0  0  0  0  0  0  0  0  0  0  0
   46.3201   20.0828  -53.7378 H   0  0  0  0  0  0  0  0  0  0  0  0
   45.0419   18.3699  -55.0270 H   0  0  0  0  0  0  0  0  0  0  0  0
   46.4882   17.3600  -55.1085 H   0  0  0  0  0  0  0  0  0  0  0  0
   47.7063   19.1980  -56.2938 H   0  0  0  0  0  0  0  0  0  0  0  0
   46.2605   20.2092  -56.2144 H   0  0  0  0  0  0  0  0  0  0  0  0
   44.9891   18.4877  -57.5156 H   0  0  0  0  0  0  0  0  0  0  0  0
   46.4361   17.4783  -57.5927 H   0  0  0  0  0  0  0  0  0  0  0  0
   47.6550   19.3154  -58.7804 H   0  0  0  0  0  0  0  0  0  0  0  0
   46.2075   20.3236  -58.7067 H   0  0  0  0  0  0  0  0  0  0  0  0
   44.9408   18.6012  -60.0091 H   0  0  0  0  0  0  0  0  0  0  0  0
   46.3890   17.5936  -60.0852 H   0  0  0  0  0  0  0  0  0  0  0  0
   47.6056   19.4318  -61.2735 H   0  0  0  0  0  0  0  0  0  0  0  0
   46.1583   20.4397  -61.1982 H   0  0  0  0  0  0  0  0  0  0  0  0
   44.8960   18.7140  -62.5255 H   0  0  0  0  0  0  0  0  0  0  0  0
   46.3312   17.7129  -62.5972 H   0  0  0  0  0  0  0  0  0  0  0  0
   47.5553   19.5250  -63.8201 H   0  0  0  0  0  0  0  0  0  0  0  0
   46.0926   20.5468  -63.7448 H   0  0  0  0  0  0  0  0  0  0  0  0
   46.0079   19.0921  -66.7322 H   0  0  0  0  0  0  0  0  0  0  0  0
  1  2  1  0  0  0  0
  1 82  1  0  0  0  0
  2  3  1  0  0  0  0
  2 83  1  0  0  0  0
  2 84  1  0  0  0  0
  3  4  1  0  0  0  0
  3 85  1  0  0  0  0
  3 86  1  0  0  0  0
  4  5  1  0  0  0  0
  4 87  1  0  0  0  0
  4 88  1  0  0  0  0
  5  6  1  0  0  0  0
  5 89  1  0  0  0  0
  5 90  1  0  0  0  0
  6  7  1  0  0  0  0
  6 91  1  0  0  0  0
  6 92  1  0  0  0  0
  7  8  1  0  0  0  0
  8  9  1  0  0  0  0
  8 93  1  0  0  0  0
  8 94  1  0  0  0  0
  9 10  1  0  0  0  0
 10 11  1  0  0  0  0
 11 12  1  0  0  0  0
 11 95  1  0  0  0  0
 11 96  1  0  0  0  0
 12 13  1  0  0  0  0
 13 14  1  0  0  0  0
 14 15  1  0  0  0  0
 15 16  1  0  0  0  0
 16 17  1  0  0  0  0
 17 18  1  0  0  0  0
 18 19  1  0  0  0  0
 19 20  1  0  0  0  0
 20 21  1  0  0  0  0
 21 22  1  0  0  0  0
 22 23  1  0  0  0  0
 23 24  1  0  0  0  0
 23 97  1  0  0  0  0
 23 98  1  0  0  0  0
 24 25  1  0  0  0  0
 24 99  1  0  0  0  0
 24100  1  0  0  0  0
 25 26  1  0  0  0  0
 25101  1  0  0  0  0
 25102  1  0  0  0  0
 26 27  1  0  0  0  0
 26103  1  0  0  0  0
 26104  1  0  0  0  0
 27 28  1  0  0  0  0
 27105  1  0  0  0  0
 27106  1  0  0  0  0
 28 29  1  0  0  0  0
 28107  1  0  0  0  0
 28108  1  0  0  0  0
 29 30  1  0  0  0  0
 29109  1  0  0  0  0
 29110  1  0  0  0  0
 30 31  1  0  0  0  0
 30111  1  0  0  0  0
 30112  1  0  0  0  0
 31 32  1  0  0  0  0
 31113  1  0  0  0  0
 31114  1  0  0  0  0
 32 33  1  0  0  0  0
 32115  1  0  0  0  0
 32116  1  0  0  0  0
 33 34  1  0  0  0  0
 33117  1  0  0  0  0
 33118  1  0  0  0  0
 34 35  1  0  0  0  0
 34119  1  0  0  0  0
 34120  1  0  0  0  0
 35 36  1  0  0  0  0
 35121  1  0  0  0  0
 35122  1  0  0  0  0
 36 37  1  0  0  0  0
 36123  1  0  0  0  0
 36124  1  0  0  0  0
 37 38  1  0  0  0  0
 37125  1  0  0  0  0
 37126  1  0  0  0  0
 38 39  1  0  0  0  0
 38127  1  0  0  0  0
 38128  1  0  0  0  0
 39 40  1  0  0  0  0
 39129  1  0  0  0  0
 39130  1  0  0  0  0
 40 41  1  0  0  0  0
 40131  1  0  0  0  0
 40132  1  0  0  0  0
 41 42  1  0  0  0  0
 41133  1  0  0  0  0
 41134  1  0  0  0  0
 42 43  1  0  0  0  0
 42135  1  0  0  0  0
 42136  1  0  0  0  0
 43 44  1  0  0  0  0
 43137  1  0  0  0  0
 43138  1  0  0  0  0
 44 45  1  0  0  0  0
 44139  1  0  0  0  0
 44140  1  0  0  0  0
 45 46  1  0  0  0  0
 45141  1  0  0  0  0
 45142  1  0  0  0  0
 46 47  1  0  0  0  0
 46143  1  0  0  0  0
 46144  1  0  0  0  0
 47 48  1  0  0  0  0
 48 49  1  0  0  0  0
 49 50  1  0  0  0  0
 50 51  1  0  0  0  0
 51 52  1  0  0  0  0
 52 53  1  0  0  0  0
 53 54  1  0  0  0  0
 54 55  1  0  0  0  0
 55 56  1  0  0  0  0
 56 57  1  0  0  0  0
 56145  1  0  0  0  0
 56146  1  0  0  0  0
 57 58  1  0  0  0  0
 57147  1  0  0  0  0
 57148  1  0  0  0  0
 58 59  1  0  0  0  0
 58149  1  0  0  0  0
 58150  1  0  0  0  0
 59 60  1  0  0  0  0
 59151  1  0  0  0  0
 59152  1  0  0  0  0
 60 61  1  0  0  0  0
 60153  1  0  0  0  0
 60154  1  0  0  0  0
 61 62  1  0  0  0  0
 61155  1  0  0  0  0
 61156  1  0  0  0  0
 62 63  1  0  0  0  0
 62157  1  0  0  0  0
 62158  1  0  0  0  0
 63 64  1  0  0  0  0
 63159  1  0  0  0  0
 63160  1  0  0  0  0
 64 65  1  0  0  0  0
 64161  1  0  0  0  0
 64162  1  0  0  0  0
 65 66  1  0  0  0  0
 65163  1  0  0  0  0
 65164  1  0  0  0  0
 66 67  1  0  0  0  0
 66165  1  0  0  0  0
 66166  1  0  0  0  0
 67 68  1  0  0  0  0
 67167  1  0  0  0  0
 67168  1  0  0  0  0
 68 69  1  0  0  0  0
 68169  1  0  0  0  0
 68170  1  0  0  0  0
 69 70  1  0  0  0  0
 69171  1  0  0  0  0
 69172  1  0  0  0  0
 70 71  1  0  0  0  0
 70173  1  0  0  0  0
 70174  1  0  0  0  0
 71 72  1  0  0  0  0
 71175  1  0  0  0  0
 71176  1  0  0  0  0
 72 73  1  0  0  0  0
 72177  1  0  0  0  0
 72178  1  0  0  0  0
 73 74  1  0  0  0  0
 73179  1  0  0  0  0
 73180  1  0  0  0  0
 74 75  1  0  0  0  0
 74181  1  0  0  0  0
 74182  1  0  0  0  0
 75 76  1  0  0  0  0
 75183  1  0  0  0  0
 75184  1  0  0  0  0
 76 77  1  0  0  0  0
 76185  1  0  0  0  0
 76186  1  0  0  0  0
 77 78  1  0  0  0  0
 77187  1  0  0  0  0
 77188  1  0  0  0  0
 78 79  1  0  0  0  0
 78189  1  0  0  0  0
 78190  1  0  0  0  0
 79 80  1  0  0  0  0
 79191  1  0  0  0  0
 79192  1  0  0  0  0
 80 81  1  0  0  0  0
 81193  1  0  0  0  0
M  END
$$$$
