
 OpenBabel04232216483D

 65 65  0  0  0  0  0  0  0  0999 V2000
    5.9538    1.0023   -2.3991 C   0  0  0  0  0  0  0  0  0  0  0  0
    7.1384   -0.2511   -2.8818 C   0  0  0  0  0  0  0  0  0  0  0  0
    6.1471   -1.2281   -2.3354 C   0  0  0  0  0  0  0  0  0  0  0  0
    5.8262   -1.9167   -1.2125 C   0  0  0  0  0  0  0  0  0  0  0  0
    5.5089   -3.2662   -1.7405 C   0  0  0  0  0  0  0  0  0  0  0  0
    4.4288   -3.2937   -2.8263 C   0  0  0  0  0  0  0  0  0  0  0  0
    4.2618   -4.0284   -4.1580 C   0  0  0  0  0  0  0  0  0  0  0  0
    2.7784   -3.7258   -4.4688 C   0  0  0  0  0  0  0  0  0  0  0  0
    2.2014   -4.4701   -5.6396 C   0  0  0  0  0  0  0  0  0  0  0  0
    0.6803   -4.3049   -5.5838 C   0  0  0  0  0  0  0  0  0  0  0  0
    0.0148   -5.1503   -6.6524 C   0  0  0  0  0  0  0  0  0  0  0  0
   -1.4888   -5.0181   -6.5955 C   0  0  0  0  0  0  0  0  0  0  0  0
    6.6513   -3.9595   -1.6783 C   0  0  0  0  0  0  0  0  0  0  0  0
    7.5644   -3.7654   -2.7845 C   0  0  0  0  0  0  0  0  0  0  0  0
    8.8255   -3.4359   -2.4647 C   0  0  0  0  0  0  0  0  0  0  0  0
    9.3879   -2.2883   -1.6156 C   0  0  0  0  0  0  0  0  0  0  0  0
    9.7287   -4.3903   -2.9917 C   0  0  0  0  0  0  0  0  0  0  0  0
   10.9254   -4.5251   -2.4159 C   0  0  0  0  0  0  0  0  0  0  0  0
   11.9837   -4.7848   -3.3321 C   0  0  0  0  0  0  0  0  0  0  0  0
   12.2105   -3.6055   -3.9631 C   0  0  0  0  0  0  0  0  0  0  0  0
   13.6122   -3.0728   -3.7537 C   0  0  0  0  0  0  0  0  0  0  0  0
   11.3545   -3.3109   -5.0936 N   0  0  0  0  0  0  0  0  0  0  0  0
   12.0191   -4.2092   -6.3350 C   0  0  0  0  0  0  0  0  0  0  0  0
   12.5141   -5.7621   -5.9697 C   0  0  0  0  0  0  0  0  0  0  0  0
   10.4342   -1.9162   -5.0023 C   0  0  0  0  0  0  0  0  0  0  0  0
    9.1596   -1.2665   -4.5984 C   0  0  0  0  0  0  0  0  0  0  0  0
    7.7337   -0.6985   -4.0590 N   0  0  0  0  0  0  0  0  0  0  0  0
    4.9410    0.8471   -2.8562 H   0  0  0  0  0  0  0  0  0  0  0  0
    6.1402    2.0679   -2.3973 H   0  0  0  0  0  0  0  0  0  0  0  0
    5.6695    0.8057   -1.3205 H   0  0  0  0  0  0  0  0  0  0  0  0
    5.2602   -1.0350   -2.9318 H   0  0  0  0  0  0  0  0  0  0  0  0
    6.4861   -1.8409   -0.3562 H   0  0  0  0  0  0  0  0  0  0  0  0
    4.2859   -2.3078   -3.2558 H   0  0  0  0  0  0  0  0  0  0  0  0
    3.5299   -3.4131   -2.2216 H   0  0  0  0  0  0  0  0  0  0  0  0
    4.4715   -5.0979   -4.1140 H   0  0  0  0  0  0  0  0  0  0  0  0
    4.8716   -3.5875   -4.9617 H   0  0  0  0  0  0  0  0  0  0  0  0
    2.6325   -2.6497   -4.6394 H   0  0  0  0  0  0  0  0  0  0  0  0
    2.1809   -3.9710   -3.5794 H   0  0  0  0  0  0  0  0  0  0  0  0
    2.4689   -5.5253   -5.5855 H   0  0  0  0  0  0  0  0  0  0  0  0
    2.6028   -4.1002   -6.5858 H   0  0  0  0  0  0  0  0  0  0  0  0
    0.4149   -3.2448   -5.7083 H   0  0  0  0  0  0  0  0  0  0  0  0
    0.3262   -4.6275   -4.5981 H   0  0  0  0  0  0  0  0  0  0  0  0
    0.3063   -6.2025   -6.5263 H   0  0  0  0  0  0  0  0  0  0  0  0
    0.3819   -4.8492   -7.6446 H   0  0  0  0  0  0  0  0  0  0  0  0
   -1.8646   -5.3571   -5.6157 H   0  0  0  0  0  0  0  0  0  0  0  0
   -1.9540   -5.6218   -7.3933 H   0  0  0  0  0  0  0  0  0  0  0  0
   -1.7887   -3.9549   -6.7300 H   0  0  0  0  0  0  0  0  0  0  0  0
    7.2523   -3.8364   -0.7604 H   0  0  0  0  0  0  0  0  0  0  0  0
    7.3222   -4.3148   -3.6896 H   0  0  0  0  0  0  0  0  0  0  0  0
    8.6427   -1.5849   -1.2560 H   0  0  0  0  0  0  0  0  0  0  0  0
   10.0949   -1.6669   -2.1980 H   0  0  0  0  0  0  0  0  0  0  0  0
    9.9528   -2.6195   -0.7425 H   0  0  0  0  0  0  0  0  0  0  0  0
    9.4896   -4.8059   -3.9810 H   0  0  0  0  0  0  0  0  0  0  0  0
   11.2340   -4.0199   -1.5178 H   0  0  0  0  0  0  0  0  0  0  0  0
   11.5027   -5.5798   -3.9109 H   0  0  0  0  0  0  0  0  0  0  0  0
   13.6037   -2.3166   -2.9644 H   0  0  0  0  0  0  0  0  0  0  0  0
   14.1007   -2.6700   -4.6434 H   0  0  0  0  0  0  0  0  0  0  0  0
   14.2763   -3.8787   -3.3883 H   0  0  0  0  0  0  0  0  0  0  0  0
   12.9707   -3.7487   -6.6482 H   0  0  0  0  0  0  0  0  0  0  0  0
   11.3456   -4.3030   -7.1883 H   0  0  0  0  0  0  0  0  0  0  0  0
   13.2706   -5.8190   -5.1640 H   0  0  0  0  0  0  0  0  0  0  0  0
   13.0222   -6.2928   -6.7939 H   0  0  0  0  0  0  0  0  0  0  0  0
   11.6843   -6.4303   -5.6900 H   0  0  0  0  0  0  0  0  0  0  0  0
   11.1910   -1.2135   -5.2392 H   0  0  0  0  0  0  0  0  0  0  0  0
    8.6505   -2.2298   -4.7868 H   0  0  0  0  0  0  0  0  0  0  0  0
  1  2  1  0  0  0  0
  1 28  1  0  0  0  0
  1 29  1  0  0  0  0
  1 30  1  0  0  0  0
  2  3  1  0  0  0  0
  2 27  2  3  0  0  0
  3  4  2  3  0  0  0
  3 31  1  0  0  0  0
  4  5  1  0  0  0  0
  4 32  1  0  0  0  0
  5  6  1  0  0  0  0
  5 13  2  3  0  0  0
  6  7  1  0  0  0  0
  6 33  1  0  0  0  0
  6 34  1  0  0  0  0
  7  8  1  0  0  0  0
  7 35  1  0  0  0  0
  7 36  1  0  0  0  0
  8  9  1  0  0  0  0
  8 37  1  0  0  0  0
  8 38  1  0  0  0  0
  9 10  1  0  0  0  0
  9 39  1  0  0  0  0
  9 40  1  0  0  0  0
 10 11  1  0  0  0  0
 10 41  1  0  0  0  0
 10 42  1  0  0  0  0
 11 12  1  0  0  0  0
 11 43  1  0  0  0  0
 11 44  1  0  0  0  0
 12 45  1  0  0  0  0
 12 46  1  0  0  0  0
 12 47  1  0  0  0  0
 13 14  1  0  0  0  0
 13 48  1  0  0  0  0
 14 15  2  3  0  0  0
 14 49  1  0  0  0  0
 15 16  1  0  0  0  0
 15 17  1  0  0  0  0
 16 50  1  0  0  0  0
 16 51  1  0  0  0  0
 16 52  1  0  0  0  0
 17 18  2  3  0  0  0
 17 53  1  0  0  0  0
 18 19  1  0  0  0  0
 18 54  1  0  0  0  0
 19 20  2  3  0  0  0
 19 55  1  0  0  0  0
 20 21  1  0  0  0  0
 20 22  1  0  0  0  0
 21 56  1  0  0  0  0
 21 57  1  0  0  0  0
 21 58  1  0  0  0  0
 22 23  1  0  0  0  0
 22 25  1  0  0  0  0
 23 24  1  0  0  0  0
 23 59  1  0  0  0  0
 23 60  1  0  0  0  0
 24 61  1  0  0  0  0
 24 62  1  0  0  0  0
 24 63  1  0  0  0  0
 25 26  2  3  0  0  0
 25 64  1  0  0  0  0
 26 27  1  0  0  0  0
 26 65  1  0  0  0  0
M  END
$$$$
