
 OpenBabel04232216493D

 48 49  0  0  0  0  0  0  0  0999 V2000
    7.9196   -1.7077   -2.9143 C   0  0  0  0  0  0  0  0  0  0  0  0
    7.2701   -0.8342   -1.8733 C   0  0  0  0  0  0  0  0  0  0  0  0
    7.8312    0.4912   -1.7101 C   0  0  0  0  0  3  0  0  0  0  0  0
    7.3823    1.6138   -0.9265 C   0  0  0  0  0  0  0  0  0  0  0  0
    6.1567    1.7879   -0.4122 C   0  0  0  0  0  0  0  0  0  0  0  0
    4.9769    0.8210   -0.4099 C   0  0  0  0  0  0  0  0  0  0  0  0
    4.1889    0.9790   -1.7674 C   0  0  0  0  0  0  0  0  0  0  0  0
    3.0162   -0.0032   -1.9651 C   0  0  0  0  0  0  0  0  0  0  0  0
    2.2545    0.1388   -3.2915 C   0  0  0  0  0  0  0  0  0  0  0  0
    2.9405   -0.3346   -4.5791 C   0  0  0  0  0  0  0  0  0  0  0  0
    3.5485   -1.6632   -4.5445 N   0  0  0  0  0  0  0  0  0  0  0  0
    2.9171   -2.9167   -4.5885 C   0  0  0  0  0  0  0  0  0  0  0  0
    3.5524   -4.0146   -5.1537 N   0  0  0  0  0  0  0  0  0  0  0  0
    4.5635   -4.3661   -4.5116 N   0  0  0  0  0  0  0  0  0  0  0  0
    4.5697   -5.7566   -4.3840 N   0  0  0  0  0  0  0  0  0  0  0  0
    4.3460   -6.0473   -3.1816 N   0  0  0  0  0  0  0  0  0  0  0  0
    2.9888   -6.3354   -3.0327 N   0  0  0  0  0  0  0  0  0  0  0  0
    2.3937   -5.3088   -2.6370 N   0  0  0  0  0  0  0  0  0  0  0  0
    1.1501   -5.2685   -3.2508 N   0  0  0  0  0  0  0  0  0  0  0  0
    0.9696   -4.3311   -4.0694 N   0  0  0  0  0  0  0  0  0  0  0  0
    1.7081   -3.1615   -4.0401 C   0  0  0  0  0  0  0  0  0  0  0  0
    4.0725    1.2132    0.8099 C   0  0  0  0  0  0  0  0  0  0  0  0
    4.7493    1.1216    2.1867 C   0  0  0  0  0  0  0  0  0  0  0  0
    5.4162   -0.6219   -0.2225 C   0  0  0  0  0  0  0  0  0  0  0  0
    6.2286   -1.3237   -1.1778 C   0  0  0  0  0  0  0  0  0  0  0  0
    8.5391   -1.1293   -3.6073 H   0  0  0  0  0  0  0  0  0  0  0  0
    7.1565   -2.2094   -3.5199 H   0  0  0  0  0  0  0  0  0  0  0  0
    8.5489   -2.4655   -2.4402 H   0  0  0  0  0  0  0  0  0  0  0  0
    8.7597    0.6840   -2.2464 H   0  0  0  0  0  0  0  0  0  0  0  0
    8.1142    2.4098   -0.7978 H   0  0  0  0  0  0  0  0  0  0  0  0
    5.9832    2.7454    0.0784 H   0  0  0  0  0  0  0  0  0  0  0  0
    4.8811    0.8567   -2.6111 H   0  0  0  0  0  0  0  0  0  0  0  0
    3.8086    2.0069   -1.8435 H   0  0  0  0  0  0  0  0  0  0  0  0
    2.2886    0.1728   -1.1645 H   0  0  0  0  0  0  0  0  0  0  0  0
    3.3497   -1.0395   -1.8590 H   0  0  0  0  0  0  0  0  0  0  0  0
    1.9670    1.1891   -3.4262 H   0  0  0  0  0  0  0  0  0  0  0  0
    1.3046   -0.3928   -3.1816 H   0  0  0  0  0  0  0  0  0  0  0  0
    3.7306    0.3844   -4.8276 H   0  0  0  0  0  0  0  0  0  0  0  0
    2.2225   -0.2895   -5.4084 H   0  0  0  0  0  0  0  0  0  0  0  0
    4.3529   -1.7104   -5.1725 H   0  0  0  0  0  0  0  0  0  0  0  0
    1.1831   -2.3753   -3.5258 H   0  0  0  0  0  0  0  0  0  0  0  0
    3.1805    0.5767    0.8420 H   0  0  0  0  0  0  0  0  0  0  0  0
    3.7074    2.2419    0.6831 H   0  0  0  0  0  0  0  0  0  0  0  0
    5.1244    0.1143    2.3921 H   0  0  0  0  0  0  0  0  0  0  0  0
    4.0295    1.3686    2.9742 H   0  0  0  0  0  0  0  0  0  0  0  0
    5.5858    1.8212    2.2806 H   0  0  0  0  0  0  0  0  0  0  0  0
    4.7785   -1.2649    0.3845 H   0  0  0  0  0  0  0  0  0  0  0  0
    5.9297   -2.3583   -1.3403 H   0  0  0  0  0  0  0  0  0  0  0  0
  1  2  1  0  0  0  0
  1 26  1  0  0  0  0
  1 27  1  0  0  0  0
  1 28  1  0  0  0  0
  2  3  1  0  0  0  0
  2 25  2  0  0  0  0
  3  4  1  0  0  0  0
  3 29  1  0  0  0  0
  4  5  2  0  0  0  0
  4 30  1  0  0  0  0
  5  6  1  0  0  0  0
  5 31  1  0  0  0  0
  6  7  1  0  0  0  0
  6 22  1  0  0  0  0
  6 24  2  0  0  0  0
  7  8  1  0  0  0  0
  7 32  1  0  0  0  0
  7 33  1  0  0  0  0
  8  9  1  0  0  0  0
  8 34  1  0  0  0  0
  8 35  1  0  0  0  0
  9 10  1  0  0  0  0
  9 36  1  0  0  0  0
  9 37  1  0  0  0  0
 10 11  1  0  0  0  0
 10 38  1  0  0  0  0
 10 39  1  0  0  0  0
 11 12  1  0  0  0  0
 11 40  1  0  0  0  0
 12 13  1  0  0  0  0
 12 21  2  0  0  0  0
 13 14  2  0  0  0  0
 14 15  1  0  0  0  0
 15 16  2  0  0  0  0
 16 17  1  0  0  0  0
 17 18  2  0  0  0  0
 18 19  1  0  0  0  0
 19 20  2  0  0  0  0
 20 21  1  0  0  0  0
 21 41  1  0  0  0  0
 22 23  1  0  0  0  0
 22 42  1  0  0  0  0
 22 43  1  0  0  0  0
 23 44  1  0  0  0  0
 23 45  1  0  0  0  0
 23 46  1  0  0  0  0
 24 25  1  0  0  0  0
 24 47  1  0  0  0  0
 25 48  1  0  0  0  0
M  END
$$$$
