
 OpenBabel04232216523D

 49 49  0  0  0  0  0  0  0  0999 V2000
    4.3018   -1.9242    0.1236 C   0  0  0  0  0  0  0  0  0  0  0  0
    5.8944   -1.4475    0.0544 C   0  0  0  0  0  0  0  0  0  0  0  0
    7.5914   -1.9649   -0.5725 C   0  0  0  0  0  0  0  0  0  0  0  0
    9.0657   -3.0369   -0.0264 C   0  0  0  0  0  0  0  0  0  0  0  0
    7.9192   -3.2775    0.8877 C   0  0  0  0  0  0  0  0  0  0  0  0
    7.6987   -2.9848    2.1814 C   0  0  0  0  0  0  0  0  0  0  0  0
    7.1098   -4.2321    2.7945 C   0  0  0  0  0  0  0  0  0  0  0  0
    8.3314   -5.0961    2.6978 C   0  0  0  0  0  0  0  0  0  0  0  0
    8.3340   -6.5828    2.7930 C   0  0  0  0  0  0  0  0  0  0  0  0
    9.4579   -7.0671    2.2529 C   0  0  0  0  0  0  0  0  0  0  0  0
   10.6554   -6.2372    2.4237 C   0  0  0  0  0  0  0  0  0  0  0  0
   11.8317   -6.8654    3.0010 C   0  0  0  0  0  0  0  0  0  0  0  0
   12.8370   -7.9740    3.0061 C   0  0  0  0  0  0  0  0  0  0  0  0
   12.7523   -8.9795    3.5573 O   0  0  0  0  0  0  0  0  0  0  0  0
   13.9929   -7.4463    2.2010 C   0  0  0  0  0  0  0  0  0  0  0  0
   13.8697   -6.6132    1.0891 C   0  0  0  0  0  0  0  0  0  0  0  0
   13.3505   -4.9407    1.0129 C   0  0  0  0  0  0  0  0  0  0  0  0
   14.9963   -4.4448    1.4203 C   0  0  0  0  0  0  0  0  0  0  0  0
   16.4851   -3.9042    1.0946 C   0  0  0  0  0  0  0  0  0  0  0  0
   16.9185   -3.4544    0.0451 O   0  0  0  0  0  0  0  0  0  0  0  0
   17.3717   -4.2528    2.0838 O   0  0  0  0  0  0  0  0  0  0  0  0
   12.1424   -3.9696    0.8717 C   0  0  0  0  0  0  0  0  0  0  0  0
   10.4425   -3.2381    0.6669 C   0  0  0  0  0  0  0  0  0  0  0  0
    3.6712   -0.9938    0.1743 H   0  0  0  0  0  0  0  0  0  0  0  0
    3.9671   -2.4192    1.0547 H   0  0  0  0  0  0  0  0  0  0  0  0
    3.8468   -2.4393   -0.7361 H   0  0  0  0  0  0  0  0  0  0  0  0
    6.0382   -0.9836    1.0387 H   0  0  0  0  0  0  0  0  0  0  0  0
    5.7114   -0.6092   -0.6412 H   0  0  0  0  0  0  0  0  0  0  0  0
    8.0161   -0.9759   -0.7874 H   0  0  0  0  0  0  0  0  0  0  0  0
    7.2848   -2.4170   -1.5330 H   0  0  0  0  0  0  0  0  0  0  0  0
    7.1744   -3.9352    0.4115 H   0  0  0  0  0  0  0  0  0  0  0  0
    8.3712   -2.3456    2.7544 H   0  0  0  0  0  0  0  0  0  0  0  0
    6.3046   -4.6596    2.1808 H   0  0  0  0  0  0  0  0  0  0  0  0
    6.8043   -4.1373    3.8338 H   0  0  0  0  0  0  0  0  0  0  0  0
    9.1055   -4.5521    3.2407 H   0  0  0  0  0  0  0  0  0  0  0  0
    8.6743   -5.0628    1.6476 H   0  0  0  0  0  0  0  0  0  0  0  0
    7.4050   -7.0336    2.5049 H   0  0  0  0  0  0  0  0  0  0  0  0
    9.3621   -7.4933    1.2394 H   0  0  0  0  0  0  0  0  0  0  0  0
   10.8282   -5.8435    1.4083 H   0  0  0  0  0  0  0  0  0  0  0  0
   10.6024   -5.3404    3.0337 H   0  0  0  0  0  0  0  0  0  0  0  0
   12.4214   -6.0485    3.4354 H   0  0  0  0  0  0  0  0  0  0  0  0
   11.9840   -7.0090    1.9201 H   0  0  0  0  0  0  0  0  0  0  0  0
   14.9208   -7.8292    2.6351 H   0  0  0  0  0  0  0  0  0  0  0  0
   14.8586   -6.7696    0.6011 H   0  0  0  0  0  0  0  0  0  0  0  0
   15.4019   -5.1883    0.7110 H   0  0  0  0  0  0  0  0  0  0  0  0
   15.1318   -4.8646    2.4357 H   0  0  0  0  0  0  0  0  0  0  0  0
   18.2890   -4.0770    1.7630 H   0  0  0  0  0  0  0  0  0  0  0  0
   12.5407   -3.0814    1.3972 H   0  0  0  0  0  0  0  0  0  0  0  0
   10.5955   -2.3598    1.3142 H   0  0  0  0  0  0  0  0  0  0  0  0
  1  2  1  0  0  0  0
  1 24  1  0  0  0  0
  1 25  1  0  0  0  0
  1 26  1  0  0  0  0
  2  3  1  0  0  0  0
  2 27  1  0  0  0  0
  2 28  1  0  0  0  0
  3  4  1  0  0  0  0
  3 29  1  0  0  0  0
  3 30  1  0  0  0  0
  4  5  1  0  0  0  0
  4 23  2  3  0  0  0
  5  6  2  3  0  0  0
  5 31  1  0  0  0  0
  6  7  1  0  0  0  0
  6 32  1  0  0  0  0
  7  8  1  0  0  0  0
  7 33  1  0  0  0  0
  7 34  1  0  0  0  0
  8  9  1  0  0  0  0
  8 35  1  0  0  0  0
  8 36  1  0  0  0  0
  9 10  2  3  0  0  0
  9 37  1  0  0  0  0
 10 11  1  0  0  0  0
 10 38  1  0  0  0  0
 11 12  1  0  0  0  0
 11 39  1  0  0  0  0
 11 40  1  0  0  0  0
 12 13  1  0  0  0  0
 12 41  1  0  0  0  0
 12 42  1  0  0  0  0
 13 14  2  0  0  0  0
 13 15  1  0  0  0  0
 15 16  2  3  0  0  0
 15 43  1  0  0  0  0
 16 17  1  0  0  0  0
 16 44  1  0  0  0  0
 17 18  1  0  0  0  0
 17 22  2  3  0  0  0
 18 19  1  0  0  0  0
 18 45  1  0  0  0  0
 18 46  1  0  0  0  0
 19 20  2  0  0  0  0
 19 21  1  0  0  0  0
 21 47  1  0  0  0  0
 22 23  1  0  0  0  0
 22 48  1  0  0  0  0
 23 49  1  0  0  0  0
M  END
$$$$
