
 OpenBabel04232216403D

206205  0  0  0  0  0  0  0  0999 V2000
    1.5496    0.4254    1.0978 C   0  0  0  0  0  0  0  0  0  0  0  0
    2.3976    0.0369    0.1389 C   0  0  0  0  0  0  0  0  0  0  0  0
    3.1769   -1.2378    0.2287 C   0  0  0  0  0  0  0  0  0  0  0  0
    4.6739   -0.9700    0.1995 C   0  0  0  0  0  0  0  0  0  0  0  0
    5.4388   -2.2811    0.2965 C   0  0  0  0  0  0  0  0  0  0  0  0
    6.9328   -2.0138    0.2671 C   0  0  0  0  0  0  0  0  0  0  0  0
    7.6964   -3.3215    0.3616 C   0  0  0  0  0  0  0  0  0  0  0  0
    9.1887   -3.0509    0.3339 C   0  0  0  0  0  0  0  0  0  0  0  0
    9.9516   -4.3583    0.4284 C   0  0  0  0  0  0  0  0  0  0  0  0
   11.4436   -4.0874    0.4027 C   0  0  0  0  0  0  0  0  0  0  0  0
   12.2062   -5.3946    0.4992 C   0  0  0  0  0  0  0  0  0  0  0  0
   13.6980   -5.1237    0.4715 C   0  0  0  0  0  0  0  0  0  0  0  0
   14.4606   -6.4310    0.5660 C   0  0  0  0  0  0  0  0  0  0  0  0
   15.9522   -6.1598    0.5402 C   0  0  0  0  0  0  0  0  0  0  0  0
   16.7141   -7.4675    0.6348 C   0  0  0  0  0  0  0  0  0  0  0  0
   18.2053   -7.1959    0.6110 C   0  0  0  0  0  0  0  0  0  0  0  0
   18.9664   -8.5034    0.7076 C   0  0  0  0  0  0  0  0  0  0  0  0
   20.4556   -8.2287    0.6816 C   0  0  0  0  0  0  0  0  0  0  0  0
   21.2176   -9.5297    0.7756 C   0  0  0  0  0  0  0  0  0  0  0  0
   22.7004   -9.2550    0.7476 C   0  0  0  0  0  0  0  0  0  0  0  0
   23.3229  -10.5153    0.8412 O   0  0  0  0  0  0  0  0  0  0  0  0
   24.7311  -10.2381    0.8153 O   0  0  0  0  0  0  0  0  0  0  0  0
   25.4364  -11.4842    0.9055 O   0  0  0  0  0  0  0  0  0  0  0  0
   26.8033  -11.1379    0.8767 C   0  0  0  0  0  0  0  0  0  0  0  0
   27.5564  -12.4411    0.9711 C   0  0  0  0  0  0  0  0  0  0  0  0
   29.0427  -12.1744    0.9498 C   0  0  0  0  0  0  0  0  0  0  0  0
   29.7997  -13.4827    1.0446 C   0  0  0  0  0  0  0  0  0  0  0  0
   31.2904  -13.2101    1.0228 C   0  0  0  0  0  0  0  0  0  0  0  0
   32.0520  -14.5170    1.1175 C   0  0  0  0  0  0  0  0  0  0  0  0
   33.5434  -14.2453    1.0958 C   0  0  0  0  0  0  0  0  0  0  0  0
   34.3056  -15.5524    1.1904 C   0  0  0  0  0  0  0  0  0  0  0  0
   35.7975  -15.2811    1.1688 C   0  0  0  0  0  0  0  0  0  0  0  0
   36.5600  -16.5880    1.2614 C   0  0  0  0  0  0  0  0  0  0  0  0
   38.0518  -16.3174    1.2398 C   0  0  0  0  0  0  0  0  0  0  0  0
   38.8142  -17.6244    1.3324 C   0  0  0  0  0  0  0  0  0  0  0  0
   40.3058  -17.3536    1.3108 C   0  0  0  0  0  0  0  0  0  0  0  0
   41.0687  -18.6603    1.4053 C   0  0  0  0  0  0  0  0  0  0  0  0
   42.5603  -18.3897    1.3858 C   0  0  0  0  0  0  0  0  0  0  0  0
   43.3233  -19.6963    1.4784 C   0  0  0  0  0  0  0  0  0  0  0  0
   44.8146  -19.4256    1.4608 C   0  0  0  0  0  0  0  0  0  0  0  0
   45.5775  -20.7324    1.5515 C   0  0  0  0  0  0  0  0  0  0  0  0
   47.0690  -20.4613    1.5359 C   0  0  0  0  0  0  0  0  0  0  0  0
   47.8318  -21.7684    1.6265 C   0  0  0  0  0  0  0  0  0  0  0  0
   49.3235  -21.4971    1.6109 C   0  0  0  0  0  0  0  0  0  0  0  0
   50.0863  -22.8046    1.7016 C   0  0  0  0  0  0  0  0  0  0  0  0
   51.5781  -22.5329    1.6859 C   0  0  0  0  0  0  0  0  0  0  0  0
   52.3409  -23.8405    1.7766 C   0  0  0  0  0  0  0  0  0  0  0  0
   53.8328  -23.5686    1.7630 C   0  0  0  0  0  0  0  0  0  0  0  0
   54.5963  -24.8758    1.8556 C   0  0  0  0  0  0  0  0  0  0  0  0
   56.0888  -24.6031    1.8400 C   0  0  0  0  0  0  0  0  0  0  0  0
   56.8528  -25.9091    1.9326 C   0  0  0  0  0  0  0  0  0  0  0  0
   58.3456  -25.6447    1.9193 C   0  0  0  0  0  0  0  0  0  0  0  0
   59.0858  -26.9579    2.0091 C   0  0  0  0  0  0  0  0  0  0  0  0
   60.4736  -26.6897    1.9788 O   0  0  0  0  0  0  0  0  0  0  0  0
   61.1993  -27.9056    2.0804 C   0  0  0  0  0  0  0  0  0  0  0  0
   62.5934  -27.6740    2.0719 O   0  0  0  0  0  0  0  0  0  0  0  0
   62.9456  -26.8417    3.1673 C   0  0  0  0  0  0  0  0  0  0  0  0
   64.3319  -26.5752    3.1678 O   0  0  0  0  0  0  0  0  0  0  0  0
   64.7067  -25.9229    1.9599 C   0  0  0  0  0  0  0  0  0  0  0  0
   66.0969  -25.6775    1.9212 O   0  0  0  0  0  0  0  0  0  0  0  0
   66.8047  -26.9056    2.0233 C   0  0  0  0  0  0  0  0  0  0  0  0
   68.2015  -26.6885    2.0242 O   0  0  0  0  0  0  0  0  0  0  0  0
   68.5568  -25.8565    3.1226 C   0  0  0  0  0  0  0  0  0  0  0  0
   69.9462  -25.5971    3.1376 O   0  0  0  0  0  0  0  0  0  0  0  0
   70.3182  -24.9440    1.9366 C   0  0  0  0  0  0  0  0  0  0  0  0
   71.7055  -24.7069    1.9315 O   0  0  0  0  0  0  0  0  0  0  0  0
   72.4001  -25.9439    2.0470 C   0  0  0  0  0  0  0  0  0  0  0  0
   73.8010  -25.7472    2.0751 O   0  0  0  0  0  0  0  0  0  0  0  0
   74.1440  -24.9271    3.1861 C   0  0  0  0  0  0  0  0  0  0  0  0
   75.5380  -24.6821    3.2279 O   0  0  0  0  0  0  0  0  0  0  0  0
   75.9461  -24.0368    2.0291 C   0  0  0  0  0  0  0  0  0  0  0  0
   77.3397  -23.8063    2.0282 O   0  0  0  0  0  0  0  0  0  0  0  0
   78.0305  -25.0437    2.1424 C   0  0  0  0  0  0  0  0  0  0  0  0
   79.4285  -24.8274    2.1625 O   0  0  0  0  0  0  0  0  0  0  0  0
   79.7773  -24.0169    3.2781 C   0  0  0  0  0  0  0  0  0  0  0  0
   81.1698  -23.7681    3.2859 O   0  0  0  0  0  0  0  0  0  0  0  0
   81.5098  -22.9861    4.4292 C   0  0  0  0  0  0  0  0  0  0  0  0
   81.1460  -23.6187    5.6527 O   0  0  0  0  0  0  0  0  0  0  0  0
   81.7970  -24.8795    5.7688 C   0  0  0  0  0  0  0  0  0  0  0  0
   81.4109  -25.5240    6.9675 O   0  0  0  0  0  0  0  0  0  0  0  0
    1.0001    1.3521    1.0085 H   0  0  0  0  0  0  0  0  0  0  0  0
    1.3953   -0.1771    1.9895 H   0  0  0  0  0  0  0  0  0  0  0  0
    2.5333    0.6611   -0.7423 H   0  0  0  0  0  0  0  0  0  0  0  0
    2.9034   -1.8918   -0.6074 H   0  0  0  0  0  0  0  0  0  0  0  0
    2.9232   -1.7668    1.1551 H   0  0  0  0  0  0  0  0  0  0  0  0
    4.9584   -0.3161    1.0338 H   0  0  0  0  0  0  0  0  0  0  0  0
    4.9483   -0.4524   -0.7280 H   0  0  0  0  0  0  0  0  0  0  0  0
    5.1630   -2.9391   -0.5370 H   0  0  0  0  0  0  0  0  0  0  0  0
    5.1735   -2.8030    1.2246 H   0  0  0  0  0  0  0  0  0  0  0  0
    7.2112   -1.3589    1.1018 H   0  0  0  0  0  0  0  0  0  0  0  0
    7.2005   -1.4927   -0.6603 H   0  0  0  0  0  0  0  0  0  0  0  0
    7.4206   -3.9765   -0.4739 H   0  0  0  0  0  0  0  0  0  0  0  0
    7.4293   -3.8440    1.2884 H   0  0  0  0  0  0  0  0  0  0  0  0
    9.4652   -2.3961    1.1694 H   0  0  0  0  0  0  0  0  0  0  0  0
    9.4566   -2.5286   -0.5928 H   0  0  0  0  0  0  0  0  0  0  0  0
    9.6765   -5.0126   -0.4079 H   0  0  0  0  0  0  0  0  0  0  0  0
    9.6831   -4.8813    1.3545 H   0  0  0  0  0  0  0  0  0  0  0  0
   11.7187   -3.4320    1.2382 H   0  0  0  0  0  0  0  0  0  0  0  0
   11.7125   -3.5656   -0.5240 H   0  0  0  0  0  0  0  0  0  0  0  0
   11.9302   -6.0506   -0.3355 H   0  0  0  0  0  0  0  0  0  0  0  0
   11.9384   -5.9157    1.4266 H   0  0  0  0  0  0  0  0  0  0  0  0
   13.9743   -4.4688    1.3070 H   0  0  0  0  0  0  0  0  0  0  0  0
   13.9657   -4.6013   -0.4553 H   0  0  0  0  0  0  0  0  0  0  0  0
   14.1854   -7.0852   -0.2704 H   0  0  0  0  0  0  0  0  0  0  0  0
   14.1920   -6.9540    1.4920 H   0  0  0  0  0  0  0  0  0  0  0  0
   16.2277   -5.5058    1.3765 H   0  0  0  0  0  0  0  0  0  0  0  0
   16.2212   -5.6370   -0.3857 H   0  0  0  0  0  0  0  0  0  0  0  0
   16.4404   -8.1212   -0.2024 H   0  0  0  0  0  0  0  0  0  0  0  0
   16.4449   -7.9912    1.5601 H   0  0  0  0  0  0  0  0  0  0  0  0
   18.4802   -6.5414    1.4473 H   0  0  0  0  0  0  0  0  0  0  0  0
   18.4762   -6.6738   -0.3149 H   0  0  0  0  0  0  0  0  0  0  0  0
   18.6925   -9.1591   -0.1280 H   0  0  0  0  0  0  0  0  0  0  0  0
   18.6986   -9.0254    1.6343 H   0  0  0  0  0  0  0  0  0  0  0  0
   20.7323   -7.5755    1.5181 H   0  0  0  0  0  0  0  0  0  0  0  0
   20.7257   -7.7068   -0.2445 H   0  0  0  0  0  0  0  0  0  0  0  0
   20.9501  -10.2013   -0.0506 H   0  0  0  0  0  0  0  0  0  0  0  0
   20.9586  -10.0700    1.6956 H   0  0  0  0  0  0  0  0  0  0  0  0
   22.9998   -8.6266    1.5945 H   0  0  0  0  0  0  0  0  0  0  0  0
   22.9914   -8.7631   -0.1877 H   0  0  0  0  0  0  0  0  0  0  0  0
   27.0398  -10.4842    1.7241 H   0  0  0  0  0  0  0  0  0  0  0  0
   27.0355  -10.6159   -0.0587 H   0  0  0  0  0  0  0  0  0  0  0  0
   27.2648  -13.0978    0.1411 H   0  0  0  0  0  0  0  0  0  0  0  0
   27.2669  -12.9700    1.8886 H   0  0  0  0  0  0  0  0  0  0  0  0
   29.3143  -11.5213    1.7879 H   0  0  0  0  0  0  0  0  0  0  0  0
   29.3121  -11.6502    0.0249 H   0  0  0  0  0  0  0  0  0  0  0  0
   29.5253  -14.1351    0.2065 H   0  0  0  0  0  0  0  0  0  0  0  0
   29.5274  -14.0062    1.9693 H   0  0  0  0  0  0  0  0  0  0  0  0
   31.5625  -12.5564    1.8606 H   0  0  0  0  0  0  0  0  0  0  0  0
   31.5604  -12.6853    0.0981 H   0  0  0  0  0  0  0  0  0  0  0  0
   31.7785  -15.1699    0.2795 H   0  0  0  0  0  0  0  0  0  0  0  0
   31.7807  -15.0410    2.0422 H   0  0  0  0  0  0  0  0  0  0  0  0
   33.8161  -13.5919    1.9336 H   0  0  0  0  0  0  0  0  0  0  0  0
   33.8140  -13.7208    0.1711 H   0  0  0  0  0  0  0  0  0  0  0  0
   34.0325  -16.2056    0.3525 H   0  0  0  0  0  0  0  0  0  0  0  0
   34.0347  -16.0767    2.1151 H   0  0  0  0  0  0  0  0  0  0  0  0
   36.0705  -14.6288    2.0075 H   0  0  0  0  0  0  0  0  0  0  0  0
   36.0680  -14.7553    0.2447 H   0  0  0  0  0  0  0  0  0  0  0  0
   36.2865  -17.2405    0.4228 H   0  0  0  0  0  0  0  0  0  0  0  0
   36.2891  -17.1140    2.1854 H   0  0  0  0  0  0  0  0  0  0  0  0
   38.3249  -15.6651    2.0785 H   0  0  0  0  0  0  0  0  0  0  0  0
   38.3223  -15.7916    0.3158 H   0  0  0  0  0  0  0  0  0  0  0  0
   38.5409  -18.2768    0.4937 H   0  0  0  0  0  0  0  0  0  0  0  0
   38.5435  -18.1503    2.2565 H   0  0  0  0  0  0  0  0  0  0  0  0
   40.5791  -16.7001    2.1487 H   0  0  0  0  0  0  0  0  0  0  0  0
   40.5769  -16.8290    0.3861 H   0  0  0  0  0  0  0  0  0  0  0  0
   40.7966  -19.3134    0.5668 H   0  0  0  0  0  0  0  0  0  0  0  0
   40.7967  -19.1857    2.3294 H   0  0  0  0  0  0  0  0  0  0  0  0
   42.8326  -17.7377    2.2253 H   0  0  0  0  0  0  0  0  0  0  0  0
   42.8322  -17.8630    0.4625 H   0  0  0  0  0  0  0  0  0  0  0  0
   43.0518  -20.3476    0.6382 H   0  0  0  0  0  0  0  0  0  0  0  0
   43.0502  -20.2237    2.4011 H   0  0  0  0  0  0  0  0  0  0  0  0
   45.0861  -18.7754    2.3020 H   0  0  0  0  0  0  0  0  0  0  0  0
   45.0875  -18.8969    0.5389 H   0  0  0  0  0  0  0  0  0  0  0  0
   45.3071  -21.3819    0.7096 H   0  0  0  0  0  0  0  0  0  0  0  0
   45.3037  -21.2617    2.4727 H   0  0  0  0  0  0  0  0  0  0  0  0
   47.3395  -19.8119    2.3778 H   0  0  0  0  0  0  0  0  0  0  0  0
   47.3429  -19.9321    0.6147 H   0  0  0  0  0  0  0  0  0  0  0  0
   47.5616  -22.4178    0.7846 H   0  0  0  0  0  0  0  0  0  0  0  0
   47.5581  -22.2976    2.5478 H   0  0  0  0  0  0  0  0  0  0  0  0
   49.5939  -20.8478    2.4528 H   0  0  0  0  0  0  0  0  0  0  0  0
   49.5974  -20.9680    0.6897 H   0  0  0  0  0  0  0  0  0  0  0  0
   49.8159  -23.4538    0.8596 H   0  0  0  0  0  0  0  0  0  0  0  0
   49.8125  -23.3335    2.6228 H   0  0  0  0  0  0  0  0  0  0  0  0
   51.8483  -21.8837    2.5279 H   0  0  0  0  0  0  0  0  0  0  0  0
   51.8518  -22.0040    0.7647 H   0  0  0  0  0  0  0  0  0  0  0  0
   52.0716  -24.4891    0.9339 H   0  0  0  0  0  0  0  0  0  0  0  0
   52.0660  -24.3700    2.6971 H   0  0  0  0  0  0  0  0  0  0  0  0
   54.1016  -22.9189    2.6049 H   0  0  0  0  0  0  0  0  0  0  0  0
   54.1075  -23.0403    0.8418 H   0  0  0  0  0  0  0  0  0  0  0  0
   54.3260  -25.5263    1.0146 H   0  0  0  0  0  0  0  0  0  0  0  0
   54.3221  -25.4035    2.7774 H   0  0  0  0  0  0  0  0  0  0  0  0
   56.3580  -23.9531    2.6813 H   0  0  0  0  0  0  0  0  0  0  0  0
   56.3620  -24.0759    0.9179 H   0  0  0  0  0  0  0  0  0  0  0  0
   56.5818  -26.5594    1.0913 H   0  0  0  0  0  0  0  0  0  0  0  0
   56.5759  -26.4381    2.8532 H   0  0  0  0  0  0  0  0  0  0  0  0
   58.6308  -24.9942    2.7559 H   0  0  0  0  0  0  0  0  0  0  0  0
   58.6362  -25.1123    1.0049 H   0  0  0  0  0  0  0  0  0  0  0  0
   58.8319  -27.5970    1.1586 H   0  0  0  0  0  0  0  0  0  0  0  0
   58.8310  -27.4750    2.9404 H   0  0  0  0  0  0  0  0  0  0  0  0
   60.9611  -28.5401    1.2236 H   0  0  0  0  0  0  0  0  0  0  0  0
   60.9432  -28.4303    3.0059 H   0  0  0  0  0  0  0  0  0  0  0  0
   62.6953  -27.3444    4.1051 H   0  0  0  0  0  0  0  0  0  0  0  0
   62.4193  -25.8818    3.1204 H   0  0  0  0  0  0  0  0  0  0  0  0
   64.1840  -24.9667    1.8854 H   0  0  0  0  0  0  0  0  0  0  0  0
   64.4517  -26.5399    1.0906 H   0  0  0  0  0  0  0  0  0  0  0  0
   66.5560  -27.5409    1.1705 H   0  0  0  0  0  0  0  0  0  0  0  0
   66.5462  -27.4317    2.9498 H   0  0  0  0  0  0  0  0  0  0  0  0
   68.2943  -26.3596    4.0566 H   0  0  0  0  0  0  0  0  0  0  0  0
   68.0302  -24.8952    3.0726 H   0  0  0  0  0  0  0  0  0  0  0  0
   69.8006  -23.9838    1.8593 H   0  0  0  0  0  0  0  0  0  0  0  0
   70.0750  -25.5585    1.0618 H   0  0  0  0  0  0  0  0  0  0  0  0
   72.1656  -26.5732    1.1851 H   0  0  0  0  0  0  0  0  0  0  0  0
   72.1184  -26.4727    2.9648 H   0  0  0  0  0  0  0  0  0  0  0  0
   73.8578  -25.4287    4.1140 H   0  0  0  0  0  0  0  0  0  0  0  0
   73.6349  -23.9575    3.1297 H   0  0  0  0  0  0  0  0  0  0  0  0
   75.4422  -23.0702    1.9477 H   0  0  0  0  0  0  0  0  0  0  0  0
   75.7045  -24.6452    1.1501 H   0  0  0  0  0  0  0  0  0  0  0  0
   77.7906  -25.6748    1.2808 H   0  0  0  0  0  0  0  0  0  0  0  0
   77.7411  -25.5730    3.0616 H   0  0  0  0  0  0  0  0  0  0  0  0
   79.4627  -24.5312    4.1979 H   0  0  0  0  0  0  0  0  0  0  0  0
   79.2560  -23.0537    3.2156 H   0  0  0  0  0  0  0  0  0  0  0  0
   80.9997  -22.0192    4.3573 H   0  0  0  0  0  0  0  0  0  0  0  0
   82.5900  -22.8068    4.4264 H   0  0  0  0  0  0  0  0  0  0  0  0
   82.8831  -24.7428    5.7539 H   0  0  0  0  0  0  0  0  0  0  0  0
   81.5131  -25.5347    4.9353 H   0  0  0  0  0  0  0  0  0  0  0  0
   81.7284  -24.9567    7.6883 H   0  0  0  0  0  0  0  0  0  0  0  0
  1  2  2  0  0  0  0
  1 81  1  0  0  0  0
  1 82  1  0  0  0  0
  2  3  1  0  0  0  0
  2 83  1  0  0  0  0
  3  4  1  0  0  0  0
  3 84  1  0  0  0  0
  3 85  1  0  0  0  0
  4  5  1  0  0  0  0
  4 86  1  0  0  0  0
  4 87  1  0  0  0  0
  5  6  1  0  0  0  0
  5 88  1  0  0  0  0
  5 89  1  0  0  0  0
  6  7  1  0  0  0  0
  6 90  1  0  0  0  0
  6 91  1  0  0  0  0
  7  8  1  0  0  0  0
  7 92  1  0  0  0  0
  7 93  1  0  0  0  0
  8  9  1  0  0  0  0
  8 94  1  0  0  0  0
  8 95  1  0  0  0  0
  9 10  1  0  0  0  0
  9 96  1  0  0  0  0
  9 97  1  0  0  0  0
 10 11  1  0  0  0  0
 10 98  1  0  0  0  0
 10 99  1  0  0  0  0
 11 12  1  0  0  0  0
 11100  1  0  0  0  0
 11101  1  0  0  0  0
 12 13  1  0  0  0  0
 12102  1  0  0  0  0
 12103  1  0  0  0  0
 13 14  1  0  0  0  0
 13104  1  0  0  0  0
 13105  1  0  0  0  0
 14 15  1  0  0  0  0
 14106  1  0  0  0  0
 14107  1  0  0  0  0
 15 16  1  0  0  0  0
 15108  1  0  0  0  0
 15109  1  0  0  0  0
 16 17  1  0  0  0  0
 16110  1  0  0  0  0
 16111  1  0  0  0  0
 17 18  1  0  0  0  0
 17112  1  0  0  0  0
 17113  1  0  0  0  0
 18 19  1  0  0  0  0
 18114  1  0  0  0  0
 18115  1  0  0  0  0
 19 20  1  0  0  0  0
 19116  1  0  0  0  0
 19117  1  0  0  0  0
 20 21  1  0  0  0  0
 20118  1  0  0  0  0
 20119  1  0  0  0  0
 21 22  1  0  0  0  0
 22 23  1  0  0  0  0
 23 24  1  0  0  0  0
 24 25  1  0  0  0  0
 24120  1  0  0  0  0
 24121  1  0  0  0  0
 25 26  1  0  0  0  0
 25122  1  0  0  0  0
 25123  1  0  0  0  0
 26 27  1  0  0  0  0
 26124  1  0  0  0  0
 26125  1  0  0  0  0
 27 28  1  0  0  0  0
 27126  1  0  0  0  0
 27127  1  0  0  0  0
 28 29  1  0  0  0  0
 28128  1  0  0  0  0
 28129  1  0  0  0  0
 29 30  1  0  0  0  0
 29130  1  0  0  0  0
 29131  1  0  0  0  0
 30 31  1  0  0  0  0
 30132  1  0  0  0  0
 30133  1  0  0  0  0
 31 32  1  0  0  0  0
 31134  1  0  0  0  0
 31135  1  0  0  0  0
 32 33  1  0  0  0  0
 32136  1  0  0  0  0
 32137  1  0  0  0  0
 33 34  1  0  0  0  0
 33138  1  0  0  0  0
 33139  1  0  0  0  0
 34 35  1  0  0  0  0
 34140  1  0  0  0  0
 34141  1  0  0  0  0
 35 36  1  0  0  0  0
 35142  1  0  0  0  0
 35143  1  0  0  0  0
 36 37  1  0  0  0  0
 36144  1  0  0  0  0
 36145  1  0  0  0  0
 37 38  1  0  0  0  0
 37146  1  0  0  0  0
 37147  1  0  0  0  0
 38 39  1  0  0  0  0
 38148  1  0  0  0  0
 38149  1  0  0  0  0
 39 40  1  0  0  0  0
 39150  1  0  0  0  0
 39151  1  0  0  0  0
 40 41  1  0  0  0  0
 40152  1  0  0  0  0
 40153  1  0  0  0  0
 41 42  1  0  0  0  0
 41154  1  0  0  0  0
 41155  1  0  0  0  0
 42 43  1  0  0  0  0
 42156  1  0  0  0  0
 42157  1  0  0  0  0
 43 44  1  0  0  0  0
 43158  1  0  0  0  0
 43159  1  0  0  0  0
 44 45  1  0  0  0  0
 44160  1  0  0  0  0
 44161  1  0  0  0  0
 45 46  1  0  0  0  0
 45162  1  0  0  0  0
 45163  1  0  0  0  0
 46 47  1  0  0  0  0
 46164  1  0  0  0  0
 46165  1  0  0  0  0
 47 48  1  0  0  0  0
 47166  1  0  0  0  0
 47167  1  0  0  0  0
 48 49  1  0  0  0  0
 48168  1  0  0  0  0
 48169  1  0  0  0  0
 49 50  1  0  0  0  0
 49170  1  0  0  0  0
 49171  1  0  0  0  0
 50 51  1  0  0  0  0
 50172  1  0  0  0  0
 50173  1  0  0  0  0
 51 52  1  0  0  0  0
 51174  1  0  0  0  0
 51175  1  0  0  0  0
 52 53  1  0  0  0  0
 52176  1  0  0  0  0
 52177  1  0  0  0  0
 53 54  1  0  0  0  0
 53178  1  0  0  0  0
 53179  1  0  0  0  0
 54 55  1  0  0  0  0
 55 56  1  0  0  0  0
 55180  1  0  0  0  0
 55181  1  0  0  0  0
 56 57  1  0  0  0  0
 57 58  1  0  0  0  0
 57182  1  0  0  0  0
 57183  1  0  0  0  0
 58 59  1  0  0  0  0
 59 60  1  0  0  0  0
 59184  1  0  0  0  0
 59185  1  0  0  0  0
 60 61  1  0  0  0  0
 61 62  1  0  0  0  0
 61186  1  0  0  0  0
 61187  1  0  0  0  0
 62 63  1  0  0  0  0
 63 64  1  0  0  0  0
 63188  1  0  0  0  0
 63189  1  0  0  0  0
 64 65  1  0  0  0  0
 65 66  1  0  0  0  0
 65190  1  0  0  0  0
 65191  1  0  0  0  0
 66 67  1  0  0  0  0
 67 68  1  0  0  0  0
 67192  1  0  0  0  0
 67193  1  0  0  0  0
 68 69  1  0  0  0  0
 69 70  1  0  0  0  0
 69194  1  0  0  0  0
 69195  1  0  0  0  0
 70 71  1  0  0  0  0
 71 72  1  0  0  0  0
 71196  1  0  0  0  0
 71197  1  0  0  0  0
 72 73  1  0  0  0  0
 73 74  1  0  0  0  0
 73198  1  0  0  0  0
 73199  1  0  0  0  0
 74 75  1  0  0  0  0
 75 76  1  0  0  0  0
 75200  1  0  0  0  0
 75201  1  0  0  0  0
 76 77  1  0  0  0  0
 77 78  1  0  0  0  0
 77202  1  0  0  0  0
 77203  1  0  0  0  0
 78 79  1  0  0  0  0
 79 80  1  0  0  0  0
 79204  1  0  0  0  0
 79205  1  0  0  0  0
 80206  1  0  0  0  0
M  END
$$$$
