
 OpenBabel04232216523D

 57 58  0  0  1  0  0  0  0  0999 V2000
    8.7272   -0.4023    1.7594 C   0  0  0  0  0  0  0  0  0  0  0  0
    7.2431   -0.1644    1.5777 C   0  0  0  0  0  0  0  0  0  0  0  0
    6.9146    1.0097    0.6343 C   0  0  0  0  0  0  0  0  0  0  0  0
    7.2637    2.5050    1.0692 C   0  0  0  0  0  0  0  0  0  0  0  0
    8.3039    3.5311    0.2982 C   0  0  3  0  0  0  0  0  0  0  0  0
    8.3220    3.0981   -1.1549 C   0  0  0  0  0  0  0  0  0  0  0  0
    8.7299    1.9536   -1.4704 O   0  0  0  0  0  0  0  0  0  0  0  0
    7.8330    4.0478   -2.2046 C   0  0  0  0  0  0  0  0  0  0  0  0
    8.5856    3.6597   -3.3968 N   0  0  0  0  0  0  0  0  0  0  0  0
    9.9117    4.0733   -3.3724 C   0  0  0  0  0  0  0  0  0  0  0  0
   10.2007    5.2484   -3.5307 O   0  0  0  0  0  0  0  0  0  0  0  0
   10.7134    3.0150   -2.9604 N   0  0  0  0  0  0  0  0  0  0  0  0
   11.9498    3.0840   -2.3029 C   0  0  0  0  0  0  0  0  0  0  0  0
   12.5711    4.3164   -2.2432 C   0  0  0  0  0  0  0  0  0  0  0  0
   12.0974    5.3705   -1.3536 C   0  0  0  0  0  0  0  0  0  0  0  0
   12.1985    5.1140   -0.0231 C   0  0  0  0  0  0  0  0  0  0  0  0
   13.6715    5.3752    0.5198 C   0  0  0  0  0  0  0  0  0  0  0  0
   15.2026    4.6484    0.1480 C   0  0  0  0  0  0  0  0  0  0  0  0
   15.7843    3.1178   -0.1036 C   0  0  0  0  0  0  0  0  0  0  0  0
   14.5710    2.2977   -0.3459 C   0  0  0  0  0  0  0  0  0  0  0  0
   14.2197    0.8491   -0.5564 C   0  0  0  0  0  0  0  0  0  0  0  0
   12.6597    0.8388   -0.7933 C   0  0  0  0  0  0  0  0  0  0  0  0
   11.9267    2.2078   -0.9995 C   0  0  0  0  0  0  0  0  0  0  0  0
   10.9681    4.4720    0.7933 C   0  0  0  0  0  0  0  0  0  0  0  0
    9.5950    4.5197    0.5787 C   0  0  0  0  0  0  0  0  0  0  0  0
    8.8925   -1.2883    2.3794 H   0  0  0  0  0  0  0  0  0  0  0  0
    9.1989    0.4501    2.2517 H   0  0  0  0  0  0  0  0  0  0  0  0
    9.2170   -0.5721    0.7963 H   0  0  0  0  0  0  0  0  0  0  0  0
    6.7529   -0.0336    2.5467 H   0  0  0  0  0  0  0  0  0  0  0  0
    6.8128   -1.0822    1.1517 H   0  0  0  0  0  0  0  0  0  0  0  0
    5.8141    0.9474    0.5432 H   0  0  0  0  0  0  0  0  0  0  0  0
    7.2553    0.7507   -0.3678 H   0  0  0  0  0  0  0  0  0  0  0  0
    7.2425    2.6252    2.1522 H   0  0  0  0  0  0  0  0  0  0  0  0
    6.2877    2.9513    0.7696 H   0  0  0  0  0  0  0  0  0  0  0  0
    7.5746    4.3700    0.2804 H   0  0  0  0  0  0  0  0  0  0  0  0
    8.0231    5.1013   -1.9330 H   0  0  0  0  0  0  0  0  0  0  0  0
    6.7500    3.8940   -2.3768 H   0  0  0  0  0  0  0  0  0  0  0  0
    8.5007    2.6614   -3.5291 H   0  0  0  0  0  0  0  0  0  0  0  0
   10.1917    2.1838   -2.6674 H   0  0  0  0  0  0  0  0  0  0  0  0
   13.2450    4.6020   -3.0412 H   0  0  0  0  0  0  0  0  0  0  0  0
   12.6295    6.2576   -1.7397 H   0  0  0  0  0  0  0  0  0  0  0  0
   13.6244    5.5426    1.6012 H   0  0  0  0  0  0  0  0  0  0  0  0
   13.9004    6.3934    0.1490 H   0  0  0  0  0  0  0  0  0  0  0  0
   14.9655    4.7282   -0.9066 H   0  0  0  0  0  0  0  0  0  0  0  0
   15.2035    4.3802    1.1960 H   0  0  0  0  0  0  0  0  0  0  0  0
   16.3843    2.7779    0.7535 H   0  0  0  0  0  0  0  0  0  0  0  0
   16.4777    3.1144   -0.9580 H   0  0  0  0  0  0  0  0  0  0  0  0
   14.2526    2.7322   -1.2853 H   0  0  0  0  0  0  0  0  0  0  0  0
   13.9825    2.5582    0.5311 H   0  0  0  0  0  0  0  0  0  0  0  0
   14.4576    0.2476    0.3297 H   0  0  0  0  0  0  0  0  0  0  0  0
   14.7315    0.3864   -1.4064 H   0  0  0  0  0  0  0  0  0  0  0  0
   12.2403    0.4568    0.1512 H   0  0  0  0  0  0  0  0  0  0  0  0
   12.3723    0.1271   -1.5664 H   0  0  0  0  0  0  0  0  0  0  0  0
   12.3009    2.8127   -0.1757 H   0  0  0  0  0  0  0  0  0  0  0  0
   10.8934    2.0618   -0.6827 H   0  0  0  0  0  0  0  0  0  0  0  0
   11.1533    5.1804    1.6312 H   0  0  0  0  0  0  0  0  0  0  0  0
    9.2699    5.5440    0.3403 H   0  0  0  0  0  0  0  0  0  0  0  0
  1  2  1  0  0  0  0
  1 26  1  0  0  0  0
  1 27  1  0  0  0  0
  1 28  1  0  0  0  0
  2  3  1  0  0  0  0
  2 29  1  0  0  0  0
  2 30  1  0  0  0  0
  3  4  1  0  0  0  0
  3 31  1  0  0  0  0
  3 32  1  0  0  0  0
  4  5  1  0  0  0  0
  4 33  1  0  0  0  0
  4 34  1  0  0  0  0
  5  6  1  0  0  0  0
  5 25  1  0  0  0  0
  5 35  1  0  0  0  0
  6  7  2  0  0  0  0
  6  8  1  0  0  0  0
  8  9  1  0  0  0  0
  8 36  1  0  0  0  0
  8 37  1  0  0  0  0
  9 10  1  0  0  0  0
  9 38  1  0  0  0  0
 10 11  2  0  0  0  0
 10 12  1  0  0  0  0
 12 13  1  0  0  0  0
 12 39  1  0  0  0  0
 13 14  2  3  0  0  0
 13 23  1  0  0  0  0
 14 15  1  0  0  0  0
 14 40  1  0  0  0  0
 15 16  2  3  0  0  0
 15 41  1  0  0  0  0
 16 17  1  0  0  0  0
 16 24  1  0  0  0  0
 17 18  1  0  0  0  0
 17 42  1  0  0  0  0
 17 43  1  0  0  0  0
 18 19  1  0  0  0  0
 18 44  1  0  0  0  0
 18 45  1  0  0  0  0
 19 20  1  0  0  0  0
 19 46  1  0  0  0  0
 19 47  1  0  0  0  0
 20 21  1  0  0  0  0
 20 48  1  0  0  0  0
 20 49  1  0  0  0  0
 21 22  1  0  0  0  0
 21 50  1  0  0  0  0
 21 51  1  0  0  0  0
 22 23  1  0  0  0  0
 22 52  1  0  0  0  0
 22 53  1  0  0  0  0
 23 54  1  0  0  0  0
 23 55  1  0  0  0  0
 24 25  2  3  0  0  0
 24 56  1  0  0  0  0
 25 57  1  0  0  0  0
M  END
$$$$
