
 OpenBabel04232216483D

 52 54  0  0  1  0  0  0  0  0999 V2000
   12.2313    5.3883    1.3862 C   0  0  0  0  0  0  0  0  0  0  0  0
   11.7660    3.9642    1.7238 C   0  0  0  0  0  0  0  0  0  0  0  0
   10.5256    3.7522    1.1631 C   0  0  0  0  0  0  0  0  0  0  0  0
    9.2939    3.4858    1.8963 C   0  0  0  0  0  0  0  0  0  0  0  0
    8.0876    2.9607    1.5516 C   0  0  0  0  0  0  0  0  0  0  0  0
    7.4724    2.3652    0.4043 N   0  0  0  0  0  0  0  0  0  0  0  0
    6.9361    3.0754   -0.7565 C   0  0  0  0  0  0  0  0  0  0  0  0
    6.0549    2.2146   -1.6884 C   0  0  0  0  0  0  0  0  0  0  0  0
    6.7148    0.9297   -2.1913 C   0  0  0  0  0  0  0  0  0  0  0  0
    6.3150   -0.2593   -1.3327 C   0  0  0  0  0  0  0  0  0  0  0  0
    6.9848   -0.2012    0.0139 C   0  0  0  0  0  0  0  0  0  0  0  0
    6.7948    1.0870    0.8425 C   0  0  3  0  0  0  0  0  0  0  0  0
    7.5551    2.1884    2.7028 C   0  0  0  0  0  0  0  0  0  0  0  0
    7.4807    0.9264    2.2079 C   0  0  0  0  0  0  0  0  0  0  0  0
    8.8761    0.3987    1.8940 C   0  0  0  0  0  0  0  0  0  0  0  0
    9.4579    0.6445    0.8269 O   0  0  0  0  0  0  0  0  0  0  0  0
    9.5378   -0.5107    2.8360 C   0  0  0  0  0  0  0  0  0  0  0  0
   10.8385   -0.3250    2.6169 C   0  0  0  0  0  0  0  0  0  0  0  0
   12.0106   -1.1031    2.8271 C   0  0  0  0  0  0  0  0  0  0  0  0
   12.9689   -0.7140    1.9754 C   0  0  0  0  0  0  0  0  0  0  0  0
   14.1219   -0.0130    2.4622 C   0  0  0  0  0  0  0  0  0  0  0  0
   14.1723    1.2541    2.9085 C   0  0  0  0  0  0  0  0  0  0  0  0
   13.2806    2.3695    3.2778 C   0  0  0  0  0  0  0  0  0  0  0  0
   12.4368    3.3953    2.9687 C   0  0  0  0  0  0  0  0  0  0  0  0
   12.4136    4.4334    4.1010 C   0  0  0  0  0  0  0  0  0  0  0  0
   11.7198    5.8242    0.5176 H   0  0  0  0  0  0  0  0  0  0  0  0
   13.3067    5.4577    1.2297 H   0  0  0  0  0  0  0  0  0  0  0  0
   11.9525    6.0634    2.2124 H   0  0  0  0  0  0  0  0  0  0  0  0
   10.2794    4.2338    0.2118 H   0  0  0  0  0  0  0  0  0  0  0  0
    9.4394    3.6901    2.9608 H   0  0  0  0  0  0  0  0  0  0  0  0
    7.7629    3.4903   -1.3442 H   0  0  0  0  0  0  0  0  0  0  0  0
    6.3206    3.9208   -0.4227 H   0  0  0  0  0  0  0  0  0  0  0  0
    5.7813    2.8162   -2.5637 H   0  0  0  0  0  0  0  0  0  0  0  0
    5.1042    1.9762   -1.1920 H   0  0  0  0  0  0  0  0  0  0  0  0
    7.8067    1.0360   -2.2259 H   0  0  0  0  0  0  0  0  0  0  0  0
    6.3862    0.7192   -3.2148 H   0  0  0  0  0  0  0  0  0  0  0  0
    6.6393   -1.1878   -1.8228 H   0  0  0  0  0  0  0  0  0  0  0  0
    5.2300   -0.3330   -1.2112 H   0  0  0  0  0  0  0  0  0  0  0  0
    8.0257   -0.4384   -0.2117 H   0  0  0  0  0  0  0  0  0  0  0  0
    6.6336   -1.0487    0.6195 H   0  0  0  0  0  0  0  0  0  0  0  0
    5.7213    1.2631    1.0037 H   0  0  0  0  0  0  0  0  0  0  0  0
    6.6479    2.6762    3.0708 H   0  0  0  0  0  0  0  0  0  0  0  0
    9.0340   -1.3367    3.2962 H   0  0  0  0  0  0  0  0  0  0  0  0
   11.1201    0.6205    2.1170 H   0  0  0  0  0  0  0  0  0  0  0  0
   12.1844   -1.4600    3.8361 H   0  0  0  0  0  0  0  0  0  0  0  0
   12.7074   -0.3516    0.9732 H   0  0  0  0  0  0  0  0  0  0  0  0
   15.0218   -0.6274    2.4847 H   0  0  0  0  0  0  0  0  0  0  0  0
   15.1739    1.4662    3.3036 H   0  0  0  0  0  0  0  0  0  0  0  0
   13.5796    2.4433    4.3646 H   0  0  0  0  0  0  0  0  0  0  0  0
   12.7129    4.0291    5.0822 H   0  0  0  0  0  0  0  0  0  0  0  0
   11.4336    4.8958    4.2422 H   0  0  0  0  0  0  0  0  0  0  0  0
   13.1606    5.2127    3.8835 H   0  0  0  0  0  0  0  0  0  0  0  0
  1  2  1  0  0  0  0
  1 26  1  0  0  0  0
  1 27  1  0  0  0  0
  1 28  1  0  0  0  0
  2  3  2  3  0  0  0
  2 24  1  0  0  0  0
  3  4  1  0  0  0  0
  3 29  1  0  0  0  0
  4  5  2  3  0  0  0
  4 30  1  0  0  0  0
  5  6  1  0  0  0  0
  5 13  1  0  0  0  0
  6  7  1  0  0  0  0
  6 12  1  0  0  0  0
  7  8  1  0  0  0  0
  7 31  1  0  0  0  0
  7 32  1  0  0  0  0
  8  9  1  0  0  0  0
  8 33  1  0  0  0  0
  8 34  1  0  0  0  0
  9 10  1  0  0  0  0
  9 35  1  0  0  0  0
  9 36  1  0  0  0  0
 10 11  1  0  0  0  0
 10 37  1  0  0  0  0
 10 38  1  0  0  0  0
 11 12  1  0  0  0  0
 11 39  1  0  0  0  0
 11 40  1  0  0  0  0
 12 14  1  0  0  0  0
 12 41  1  0  0  0  0
 13 14  2  0  0  0  0
 13 42  1  0  0  0  0
 14 15  1  0  0  0  0
 15 16  2  0  0  0  0
 15 17  1  0  0  0  0
 17 18  2  3  0  0  0
 17 43  1  0  0  0  0
 18 19  1  0  0  0  0
 18 44  1  0  0  0  0
 19 20  2  3  0  0  0
 19 45  1  0  0  0  0
 20 21  1  0  0  0  0
 20 46  1  0  0  0  0
 21 22  2  3  0  0  0
 21 47  1  0  0  0  0
 22 23  1  0  0  0  0
 22 48  1  0  0  0  0
 23 24  2  3  0  0  0
 23 49  1  0  0  0  0
 24 25  1  0  0  0  0
 25 50  1  0  0  0  0
 25 51  1  0  0  0  0
 25 52  1  0  0  0  0
M  END
$$$$
