
 OpenBabel04232216493D

 57 58  0  0  1  0  0  0  0  0999 V2000
    9.9224    4.4710   -3.2268 C   0  0  0  0  0  0  0  0  0  0  0  0
    8.8554    3.5501   -2.6087 C   0  0  3  0  0  0  0  0  0  0  0  0
    8.5024    2.3657   -3.5210 C   0  0  0  0  0  0  0  0  0  0  0  0
    7.2389    2.5209   -4.3943 C   0  0  0  0  0  0  0  0  0  0  0  0
    6.6643    1.1713   -4.8738 C   0  0  0  0  0  0  0  0  0  0  0  0
    5.4948    0.6213   -4.0276 C   0  0  0  0  0  0  0  0  0  0  0  0
    5.9144   -0.1020   -2.7328 C   0  0  0  0  0  0  0  0  0  0  0  0
    4.9827    0.1930   -1.5480 C   0  0  0  0  0  0  0  0  0  0  0  0
    5.7056    0.2444   -0.1741 C   0  0  0  0  0  0  0  0  0  0  0  0
    5.8143    1.6992    0.2639 C   0  0  0  0  0  0  0  0  0  0  0  0
    6.9090    2.4836    0.0309 C   0  0  0  0  0  0  0  0  0  0  0  0
    6.4009    3.7207   -0.5944 C   0  0  0  0  0  0  0  0  0  0  0  0
    6.3147    3.7546   -1.8152 O   0  0  0  0  0  0  0  0  0  0  0  0
    5.6481    4.7237    0.2004 C   0  0  0  0  0  0  0  0  0  0  0  0
    4.4003    4.6277   -0.3176 C   0  0  0  0  0  0  0  0  0  0  0  0
    4.1429    5.0181   -1.6566 N   0  0  0  0  0  0  0  0  0  0  0  0
    3.5630    6.2941   -2.0386 C   0  0  0  0  0  0  0  0  0  0  0  0
    4.3085    7.4921   -1.4820 C   0  0  0  0  0  0  0  0  0  0  0  0
    3.5342    8.7281   -1.8430 C   0  0  0  0  0  0  0  0  0  0  0  0
    2.9921    9.4529   -1.0181 O   0  0  0  0  0  0  0  0  0  0  0  0
    3.6766    3.3081    0.0201 C   0  0  0  0  0  0  0  0  0  0  0  0
    4.4873    2.2642    0.8420 C   0  0  0  0  0  0  0  0  0  0  0  0
    8.3412    2.1259   -0.3494 C   0  0  0  0  0  0  0  0  0  0  0  0
    9.2496    3.1188   -1.1655 C   0  0  0  0  0  0  0  0  0  0  0  0
    9.5623    4.8724   -4.1800 H   0  0  0  0  0  0  0  0  0  0  0  0
   10.8628    3.9435   -3.3983 H   0  0  0  0  0  0  0  0  0  0  0  0
   10.1168    5.3311   -2.5707 H   0  0  0  0  0  0  0  0  0  0  0  0
    8.0388    4.2690   -2.5553 H   0  0  0  0  0  0  0  0  0  0  0  0
    8.3993    1.4694   -2.9148 H   0  0  0  0  0  0  0  0  0  0  0  0
    9.3466    2.1603   -4.1904 H   0  0  0  0  0  0  0  0  0  0  0  0
    7.5127    3.1223   -5.2698 H   0  0  0  0  0  0  0  0  0  0  0  0
    6.4419    3.0850   -3.9088 H   0  0  0  0  0  0  0  0  0  0  0  0
    7.4555    0.4200   -4.9705 H   0  0  0  0  0  0  0  0  0  0  0  0
    6.2657    1.3367   -5.8830 H   0  0  0  0  0  0  0  0  0  0  0  0
    4.9423   -0.1007   -4.6445 H   0  0  0  0  0  0  0  0  0  0  0  0
    4.7886    1.4344   -3.8249 H   0  0  0  0  0  0  0  0  0  0  0  0
    6.9420    0.1412   -2.4691 H   0  0  0  0  0  0  0  0  0  0  0  0
    5.8949   -1.1847   -2.9181 H   0  0  0  0  0  0  0  0  0  0  0  0
    4.1902   -0.5659   -1.5180 H   0  0  0  0  0  0  0  0  0  0  0  0
    4.4669    1.1391   -1.7318 H   0  0  0  0  0  0  0  0  0  0  0  0
    6.6687   -0.2705   -0.2048 H   0  0  0  0  0  0  0  0  0  0  0  0
    5.1005   -0.3043    0.5612 H   0  0  0  0  0  0  0  0  0  0  0  0
    5.8338    4.5546    1.2551 H   0  0  0  0  0  0  0  0  0  0  0  0
    4.9875    4.8206   -2.2297 H   0  0  0  0  0  0  0  0  0  0  0  0
    2.5094    6.3058   -1.7161 H   0  0  0  0  0  0  0  0  0  0  0  0
    3.5550    6.3503   -3.1341 H   0  0  0  0  0  0  0  0  0  0  0  0
    5.3174    7.5758   -1.9006 H   0  0  0  0  0  0  0  0  0  0  0  0
    4.3980    7.4481   -0.3920 H   0  0  0  0  0  0  0  0  0  0  0  0
    3.4657    8.9533   -2.9239 H   0  0  0  0  0  0  0  0  0  0  0  0
    3.3643    2.8207   -0.9137 H   0  0  0  0  0  0  0  0  0  0  0  0
    2.7584    3.5603    0.5616 H   0  0  0  0  0  0  0  0  0  0  0  0
    3.8113    1.4340    1.0803 H   0  0  0  0  0  0  0  0  0  0  0  0
    4.7209    2.6983    1.8304 H   0  0  0  0  0  0  0  0  0  0  0  0
    8.3962    1.1274   -0.7937 H   0  0  0  0  0  0  0  0  0  0  0  0
    8.8648    2.0187    0.6155 H   0  0  0  0  0  0  0  0  0  0  0  0
   10.2433    2.6534   -1.2287 H   0  0  0  0  0  0  0  0  0  0  0  0
    9.3916    4.0214   -0.5550 H   0  0  0  0  0  0  0  0  0  0  0  0
  1  2  1  0  0  0  0
  1 25  1  0  0  0  0
  1 26  1  0  0  0  0
  1 27  1  0  0  0  0
  2  3  1  0  0  0  0
  2 24  1  0  0  0  0
  2 28  1  0  0  0  0
  3  4  1  0  0  0  0
  3 29  1  0  0  0  0
  3 30  1  0  0  0  0
  4  5  1  0  0  0  0
  4 31  1  0  0  0  0
  4 32  1  0  0  0  0
  5  6  1  0  0  0  0
  5 33  1  0  0  0  0
  5 34  1  0  0  0  0
  6  7  1  0  0  0  0
  6 35  1  0  0  0  0
  6 36  1  0  0  0  0
  7  8  1  0  0  0  0
  7 37  1  0  0  0  0
  7 38  1  0  0  0  0
  8  9  1  0  0  0  0
  8 39  1  0  0  0  0
  8 40  1  0  0  0  0
  9 10  1  0  0  0  0
  9 41  1  0  0  0  0
  9 42  1  0  0  0  0
 10 11  2  0  0  0  0
 10 22  1  0  0  0  0
 11 12  1  0  0  0  0
 11 23  1  0  0  0  0
 12 13  2  0  0  0  0
 12 14  1  0  0  0  0
 14 15  2  0  0  0  0
 14 43  1  0  0  0  0
 15 16  1  0  0  0  0
 15 21  1  0  0  0  0
 16 17  1  0  0  0  0
 16 44  1  0  0  0  0
 17 18  1  0  0  0  0
 17 45  1  0  0  0  0
 17 46  1  0  0  0  0
 18 19  1  0  0  0  0
 18 47  1  0  0  0  0
 18 48  1  0  0  0  0
 19 20  2  0  0  0  0
 19 49  1  0  0  0  0
 21 22  1  0  0  0  0
 21 50  1  0  0  0  0
 21 51  1  0  0  0  0
 22 52  1  0  0  0  0
 22 53  1  0  0  0  0
 23 24  1  0  0  0  0
 23 54  1  0  0  0  0
 23 55  1  0  0  0  0
 24 56  1  0  0  0  0
 24 57  1  0  0  0  0
M  END
$$$$
