
 OpenBabel04232216443D

 58 59  0  0  1  0  0  0  0  0999 V2000
   -1.0015    0.5311   -1.4657 C   0  0  0  0  0  0  0  0  0  0  0  0
   -1.1045    0.7748   -2.9818 C   0  0  3  0  0  0  0  0  0  0  0  0
   -0.7359    2.2181   -3.3960 C   0  0  0  0  0  0  0  0  0  0  0  0
   -1.4090    3.3631   -2.6266 C   0  0  0  0  0  0  0  0  0  0  0  0
   -2.9246    3.3388   -2.7083 C   0  0  0  0  0  0  0  0  0  0  0  0
    0.0554    2.6349   -4.3306 N   0  0  0  0  0  0  0  0  0  0  0  0
    0.7737    1.7326   -5.2130 C   0  0  0  0  0  0  0  0  0  0  0  0
    2.0575    1.2253   -4.5605 C   0  0  0  0  0  0  0  0  0  0  0  0
    1.8585    0.3999   -3.2816 C   0  0  0  0  0  0  0  0  0  0  0  0
    0.8564   -0.7527   -3.4705 C   0  0  3  0  0  0  0  0  0  0  0  0
    0.8995   -1.8304   -2.3563 C   0  0  0  0  0  0  0  0  0  0  0  0
    1.7017   -1.7591   -1.4223 O   0  0  0  0  0  0  0  0  0  0  0  0
   -0.0637   -2.9749   -2.4845 C   0  0  0  0  0  0  0  0  0  0  0  0
   -0.6276   -3.5359   -3.5783 C   0  0  0  0  0  0  0  0  0  0  0  0
   -0.6296   -3.3982   -4.8901 N   0  0  0  0  0  0  0  0  0  0  0  0
    0.6460   -3.4952   -5.6126 C   0  0  0  0  0  0  0  0  0  0  0  0
    0.7895   -4.8841   -6.2140 C   0  0  0  0  0  0  0  0  0  0  0  0
    2.1105   -5.0272   -6.9677 C   0  0  0  0  0  0  0  0  0  0  0  0
    2.2307   -6.4389   -7.5418 C   0  0  0  0  0  0  0  0  0  0  0  0
    3.5354   -6.6266   -8.3069 C   0  0  0  0  0  0  0  0  0  0  0  0
    3.6284   -8.0345   -8.8721 C   0  0  0  0  0  0  0  0  0  0  0  0
   -1.5262   -4.4199   -2.7062 C   0  0  0  0  0  0  0  0  0  0  0  0
   -0.8414   -3.7768   -1.4899 C   0  0  0  0  0  0  0  0  0  0  0  0
   -0.5289   -0.3217   -3.7601 N   0  0  0  0  0  2  0  0  0  0  0  0
   -1.5068    1.3069   -0.8847 H   0  0  0  0  0  0  0  0  0  0  0  0
    0.0299    0.5038   -1.1054 H   0  0  0  0  0  0  0  0  0  0  0  0
   -1.4704   -0.4218   -1.1936 H   0  0  0  0  0  0  0  0  0  0  0  0
   -2.1857    0.7351   -3.1868 H   0  0  0  0  0  0  0  0  0  0  0  0
   -1.0594    4.3113   -3.0543 H   0  0  0  0  0  0  0  0  0  0  0  0
   -1.0713    3.3510   -1.5866 H   0  0  0  0  0  0  0  0  0  0  0  0
   -3.2740    3.0804   -3.7129 H   0  0  0  0  0  0  0  0  0  0  0  0
   -3.3298    4.3216   -2.4455 H   0  0  0  0  0  0  0  0  0  0  0  0
   -3.3451    2.6117   -2.0064 H   0  0  0  0  0  0  0  0  0  0  0  0
    1.0675    2.3180   -6.0940 H   0  0  0  0  0  0  0  0  0  0  0  0
    0.1495    0.9419   -5.6379 H   0  0  0  0  0  0  0  0  0  0  0  0
    2.7049    2.0793   -4.3246 H   0  0  0  0  0  0  0  0  0  0  0  0
    2.6025    0.6171   -5.2933 H   0  0  0  0  0  0  0  0  0  0  0  0
    1.5793    1.0670   -2.4606 H   0  0  0  0  0  0  0  0  0  0  0  0
    2.8366   -0.0064   -2.9927 H   0  0  0  0  0  0  0  0  0  0  0  0
    1.2364   -1.2730   -4.3532 H   0  0  0  0  0  0  0  0  0  0  0  0
   -0.9815   -2.4519   -5.1171 H   0  0  0  0  0  0  0  0  0  0  0  0
    1.5024   -3.2959   -4.9584 H   0  0  0  0  0  0  0  0  0  0  0  0
    0.6602   -2.7409   -6.4090 H   0  0  0  0  0  0  0  0  0  0  0  0
   -0.0496   -5.0787   -6.8926 H   0  0  0  0  0  0  0  0  0  0  0  0
    0.7365   -5.6372   -5.4179 H   0  0  0  0  0  0  0  0  0  0  0  0
    2.9504   -4.8281   -6.2906 H   0  0  0  0  0  0  0  0  0  0  0  0
    2.1606   -4.2877   -7.7764 H   0  0  0  0  0  0  0  0  0  0  0  0
    1.3814   -6.6317   -8.2053 H   0  0  0  0  0  0  0  0  0  0  0  0
    2.1749   -7.1666   -6.7251 H   0  0  0  0  0  0  0  0  0  0  0  0
    4.3877   -6.4426   -7.6439 H   0  0  0  0  0  0  0  0  0  0  0  0
    3.5960   -5.9013   -9.1268 H   0  0  0  0  0  0  0  0  0  0  0  0
    3.5977   -8.7793   -8.0703 H   0  0  0  0  0  0  0  0  0  0  0  0
    4.5639   -8.1633   -9.4211 H   0  0  0  0  0  0  0  0  0  0  0  0
    2.7990   -8.2353   -9.5587 H   0  0  0  0  0  0  0  0  0  0  0  0
   -1.3715   -5.5004   -2.7974 H   0  0  0  0  0  0  0  0  0  0  0  0
   -2.6012   -4.2179   -2.7829 H   0  0  0  0  0  0  0  0  0  0  0  0
   -0.2683   -4.4702   -0.8678 H   0  0  0  0  0  0  0  0  0  0  0  0
   -1.5242   -3.2108   -0.8452 H   0  0  0  0  0  0  0  0  0  0  0  0
  1  2  1  0  0  0  0
  1 25  1  0  0  0  0
  1 26  1  0  0  0  0
  1 27  1  0  0  0  0
  2  3  1  0  0  0  0
  2 24  1  0  0  0  0
  2 28  1  0  0  0  0
  3  4  1  0  0  0  0
  3  6  2  0  0  0  0
  4  5  1  0  0  0  0
  4 29  1  0  0  0  0
  4 30  1  0  0  0  0
  5 31  1  0  0  0  0
  5 32  1  0  0  0  0
  5 33  1  0  0  0  0
  6  7  1  0  0  0  0
  7  8  1  0  0  0  0
  7 34  1  0  0  0  0
  7 35  1  0  0  0  0
  8  9  1  0  0  0  0
  8 36  1  0  0  0  0
  8 37  1  0  0  0  0
  9 10  1  0  0  0  0
  9 38  1  0  0  0  0
  9 39  1  0  0  0  0
 10 11  1  0  0  0  0
 10 24  1  0  0  0  0
 10 40  1  0  0  0  0
 11 12  2  0  0  0  0
 11 13  1  0  0  0  0
 13 14  2  0  0  0  0
 13 23  1  0  0  0  0
 14 15  1  0  0  0  0
 14 22  1  0  0  0  0
 15 16  1  0  0  0  0
 15 41  1  0  0  0  0
 16 17  1  0  0  0  0
 16 42  1  0  0  0  0
 16 43  1  0  0  0  0
 17 18  1  0  0  0  0
 17 44  1  0  0  0  0
 17 45  1  0  0  0  0
 18 19  1  0  0  0  0
 18 46  1  0  0  0  0
 18 47  1  0  0  0  0
 19 20  1  0  0  0  0
 19 48  1  0  0  0  0
 19 49  1  0  0  0  0
 20 21  1  0  0  0  0
 20 50  1  0  0  0  0
 20 51  1  0  0  0  0
 21 52  1  0  0  0  0
 21 53  1  0  0  0  0
 21 54  1  0  0  0  0
 22 23  1  0  0  0  0
 22 55  1  0  0  0  0
 22 56  1  0  0  0  0
 23 57  1  0  0  0  0
 23 58  1  0  0  0  0
M  END
$$$$
