
 OpenBabel04232216453D

 47 49  0  0  0  0  0  0  0  0999 V2000
    1.5088   -0.3601   -0.9924 C   0  0  0  0  0  0  0  0  0  0  0  0
    2.9604    0.0287   -1.1711 C   0  0  0  0  0  0  0  0  0  0  0  0
    3.5231    0.7643   -0.0399 C   0  0  0  0  0  0  0  0  0  0  0  0
    4.5701    0.2800    0.6279 C   0  0  0  0  0  0  0  0  0  0  0  0
    5.2095   -1.0707    0.6119 C   0  0  0  0  0  0  0  0  0  0  0  0
    5.3758    1.3464    1.1844 C   0  0  0  0  0  0  0  0  0  0  0  0
    5.0216    1.7592    2.4278 N   0  0  0  0  0  0  0  0  0  0  0  0
    5.6926    2.8074    2.9245 C   0  0  0  0  0  0  0  0  0  0  0  0
    6.7527    3.3996    2.2692 C   0  0  0  0  0  0  0  0  0  0  0  0
    7.1176    2.9548    0.9823 C   0  0  0  0  0  0  0  0  0  0  0  0
    8.3584    3.5967    0.4018 C   0  0  0  0  0  0  0  0  0  0  0  0
    8.2359    5.0141    0.3997 O   0  0  0  0  0  0  0  0  0  0  0  0
    6.3446    1.9360    0.3637 C   0  0  0  0  0  0  0  0  0  0  0  0
    6.3776    1.7225   -1.1210 C   0  0  0  0  0  0  0  0  0  0  0  0
    5.8640    1.0345   -2.1831 C   0  0  0  0  0  0  0  0  0  0  0  0
    6.2359    1.8187   -3.4045 C   0  0  0  0  0  0  0  0  0  0  0  0
    5.2421    2.4659   -4.0610 C   0  0  0  0  0  0  0  0  0  0  0  0
    3.9364    2.8600   -3.3913 C   0  0  0  0  0  0  0  0  0  0  0  0
    5.2659    2.2227   -5.5141 C   0  0  0  0  0  0  0  0  0  0  0  0
    4.2707    1.4033   -5.9400 C   0  0  0  0  0  0  0  0  0  0  0  0
    4.3955   -0.0489   -6.0225 C   0  0  0  0  0  0  0  0  0  0  0  0
    4.7221   -0.9466   -5.0560 C   0  0  0  0  0  0  0  0  0  0  0  0
    5.3559   -0.7201   -3.7407 C   0  0  0  0  0  0  0  0  0  0  0  0
    4.9156   -0.1254   -2.5816 C   0  0  0  0  0  0  0  0  0  0  0  0
    3.5653   -0.2597   -2.2737 N   0  0  0  0  0  0  0  0  0  0  0  0
    0.9977    0.3490   -0.3326 H   0  0  0  0  0  0  0  0  0  0  0  0
    1.4733   -1.3486   -0.5257 H   0  0  0  0  0  0  0  0  0  0  0  0
    0.9843   -0.3910   -1.9493 H   0  0  0  0  0  0  0  0  0  0  0  0
    3.1917    1.7963    0.0373 H   0  0  0  0  0  0  0  0  0  0  0  0
    4.5680   -1.8289    0.1570 H   0  0  0  0  0  0  0  0  0  0  0  0
    5.4289   -1.3918    1.6360 H   0  0  0  0  0  0  0  0  0  0  0  0
    6.1601   -1.0568    0.0660 H   0  0  0  0  0  0  0  0  0  0  0  0
    5.3579    3.1679    3.8922 H   0  0  0  0  0  0  0  0  0  0  0  0
    7.2878    4.2189    2.7429 H   0  0  0  0  0  0  0  0  0  0  0  0
    8.6329    3.2692   -0.6019 H   0  0  0  0  0  0  0  0  0  0  0  0
    9.2065    3.3398    1.0473 H   0  0  0  0  0  0  0  0  0  0  0  0
    7.6819    5.2543   -0.3619 H   0  0  0  0  0  0  0  0  0  0  0  0
    7.0416    2.5105   -1.4816 H   0  0  0  0  0  0  0  0  0  0  0  0
    7.1231    1.4381   -3.9133 H   0  0  0  0  0  0  0  0  0  0  0  0
    3.7414    3.9248   -3.5307 H   0  0  0  0  0  0  0  0  0  0  0  0
    3.9401    2.6917   -2.3098 H   0  0  0  0  0  0  0  0  0  0  0  0
    3.0760    2.2973   -3.7643 H   0  0  0  0  0  0  0  0  0  0  0  0
    6.2759    2.0029   -5.8646 H   0  0  0  0  0  0  0  0  0  0  0  0
    3.2443    1.6681   -5.7192 H   0  0  0  0  0  0  0  0  0  0  0  0
    4.0988   -0.4197   -7.0051 H   0  0  0  0  0  0  0  0  0  0  0  0
    4.7092   -1.9968   -5.3624 H   0  0  0  0  0  0  0  0  0  0  0  0
    6.4345   -0.7864   -3.8902 H   0  0  0  0  0  0  0  0  0  0  0  0
  1  2  1  0  0  0  0
  1 26  1  0  0  0  0
  1 27  1  0  0  0  0
  1 28  1  0  0  0  0
  2  3  1  0  0  0  0
  2 25  2  3  0  0  0
  3  4  2  3  0  0  0
  3 29  1  0  0  0  0
  4  5  1  0  0  0  0
  4  6  1  0  0  0  0
  5 30  1  0  0  0  0
  5 31  1  0  0  0  0
  5 32  1  0  0  0  0
  6  7  1  0  0  0  0
  6 13  2  0  0  0  0
  7  8  2  0  0  0  0
  8  9  1  0  0  0  0
  8 33  1  0  0  0  0
  9 10  2  0  0  0  0
  9 34  1  0  0  0  0
 10 11  1  0  0  0  0
 10 13  1  0  0  0  0
 11 12  1  0  0  0  0
 11 35  1  0  0  0  0
 11 36  1  0  0  0  0
 12 37  1  0  0  0  0
 13 14  1  0  0  0  0
 14 15  2  3  0  0  0
 14 38  1  0  0  0  0
 15 16  1  0  0  0  0
 15 24  1  0  0  0  0
 16 17  2  3  0  0  0
 16 39  1  0  0  0  0
 17 18  1  0  0  0  0
 17 19  1  0  0  0  0
 18 40  1  0  0  0  0
 18 41  1  0  0  0  0
 18 42  1  0  0  0  0
 19 20  2  3  0  0  0
 19 43  1  0  0  0  0
 20 21  1  0  0  0  0
 20 44  1  0  0  0  0
 21 22  2  3  0  0  0
 21 45  1  0  0  0  0
 22 23  1  0  0  0  0
 22 46  1  0  0  0  0
 23 24  2  3  0  0  0
 23 47  1  0  0  0  0
 24 25  1  0  0  0  0
M  END
$$$$
