
 OpenBabel04232216523D

 53 53  0  0  0  0  0  0  0  0999 V2000
    0.9412   -0.0728    0.0867 C   0  0  0  0  0  0  0  0  0  0  0  0
    2.4574   -0.0662    0.0828 C   0  0  0  0  0  0  0  0  0  0  0  0
    2.9815    1.1521   -0.6642 C   0  0  0  0  0  0  0  0  0  0  0  0
    4.5017    1.1621   -0.6680 C   0  0  0  0  0  0  0  0  0  0  0  0
    5.0151    2.3816   -1.4156 C   0  0  0  0  0  0  0  0  0  0  0  0
    6.5339    2.3890   -1.4201 C   0  0  0  0  0  0  0  0  0  0  0  0
    7.0453    3.6086   -2.1656 C   0  0  0  0  0  0  0  0  0  0  0  0
    8.5633    3.6140   -2.1703 C   0  0  0  0  0  0  0  0  0  0  0  0
    9.0753    4.8356   -2.9168 C   0  0  0  0  0  0  0  0  0  0  0  0
   10.5930    4.8454   -2.9201 C   0  0  0  0  0  0  0  0  0  0  0  0
   11.1023    6.0738   -3.6638 C   0  0  0  0  0  0  0  0  0  0  0  0
   12.6225    6.0951   -3.6663 C   0  0  0  0  0  0  0  0  0  0  0  0
   13.1502    7.3152   -4.4048 C   0  0  0  0  0  0  0  0  0  0  0  0
   14.6411    7.2748   -4.4614 C   0  0  0  0  0  0  0  0  0  0  0  0
   15.2117    6.6778   -5.3649 O   0  0  0  0  0  0  0  0  0  0  0  0
   15.2809    7.8764   -3.3575 N   0  0  0  0  0  0  0  0  0  0  0  0
   16.6696    7.8829   -3.1880 C   0  0  0  0  0  0  0  0  0  0  0  0
   17.4300    8.5988   -1.9104 C   0  0  0  0  0  0  0  0  0  0  0  0
   18.8348    8.5513   -1.8610 C   0  0  0  0  0  0  0  0  0  0  0  0
   19.5306    9.2230   -0.6884 C   0  0  0  0  0  0  0  0  0  0  0  0
   18.9947    9.8261    0.2375 O   0  0  0  0  0  0  0  0  0  0  0  0
   17.5162    7.2783   -4.0831 C   0  0  0  0  0  0  0  0  0  0  0  0
    0.5674   -0.9484    0.6235 H   0  0  0  0  0  0  0  0  0  0  0  0
    0.5518   -0.1019   -0.9361 H   0  0  0  0  0  0  0  0  0  0  0  0
    0.5517    0.8255    0.5765 H   0  0  0  0  0  0  0  0  0  0  0  0
    2.8284   -0.9825   -0.3911 H   0  0  0  0  0  0  0  0  0  0  0  0
    2.8282   -0.0595    1.1144 H   0  0  0  0  0  0  0  0  0  0  0  0
    2.6078    2.0692   -0.1921 H   0  0  0  0  0  0  0  0  0  0  0  0
    2.6101    1.1458   -1.6965 H   0  0  0  0  0  0  0  0  0  0  0  0
    4.8808    0.2490   -1.1431 H   0  0  0  0  0  0  0  0  0  0  0  0
    4.8785    1.1730    0.3621 H   0  0  0  0  0  0  0  0  0  0  0  0
    4.6401    3.2969   -0.9412 H   0  0  0  0  0  0  0  0  0  0  0  0
    4.6403    2.3740   -2.4466 H   0  0  0  0  0  0  0  0  0  0  0  0
    6.9103    1.4754   -1.8966 H   0  0  0  0  0  0  0  0  0  0  0  0
    6.9104    2.3965   -0.3898 H   0  0  0  0  0  0  0  0  0  0  0  0
    6.6699    4.5223   -1.6883 H   0  0  0  0  0  0  0  0  0  0  0  0
    6.6679    3.6021   -3.1956 H   0  0  0  0  0  0  0  0  0  0  0  0
    8.9398    2.7015   -2.6496 H   0  0  0  0  0  0  0  0  0  0  0  0
    8.9402    3.6194   -1.1409 H   0  0  0  0  0  0  0  0  0  0  0  0
    8.6960    5.7486   -2.4374 H   0  0  0  0  0  0  0  0  0  0  0  0
    8.6979    4.8298   -3.9445 H   0  0  0  0  0  0  0  0  0  0  0  0
   10.9700    3.9330   -3.3992 H   0  0  0  0  0  0  0  0  0  0  0  0
   10.9695    4.8488   -1.8903 H   0  0  0  0  0  0  0  0  0  0  0  0
   10.7161    6.9804   -3.1838 H   0  0  0  0  0  0  0  0  0  0  0  0
   10.7232    6.0624   -4.6929 H   0  0  0  0  0  0  0  0  0  0  0  0
   12.9985    5.1815   -4.1430 H   0  0  0  0  0  0  0  0  0  0  0  0
   12.9961    6.0877   -2.6361 H   0  0  0  0  0  0  0  0  0  0  0  0
   12.8123    8.2458   -3.9320 H   0  0  0  0  0  0  0  0  0  0  0  0
   12.7865    7.3309   -5.4357 H   0  0  0  0  0  0  0  0  0  0  0  0
   14.7086    8.3155   -2.6429 H   0  0  0  0  0  0  0  0  0  0  0  0
   16.8196    9.0984   -1.1429 H   0  0  0  0  0  0  0  0  0  0  0  0
   20.6278    9.1258   -0.7282 H   0  0  0  0  0  0  0  0  0  0  0  0
   18.4414    6.9502   -4.5171 H   0  0  0  0  0  0  0  0  0  0  0  0
  1  2  1  0  0  0  0
  1 23  1  0  0  0  0
  1 24  1  0  0  0  0
  1 25  1  0  0  0  0
  2  3  1  0  0  0  0
  2 26  1  0  0  0  0
  2 27  1  0  0  0  0
  3  4  1  0  0  0  0
  3 28  1  0  0  0  0
  3 29  1  0  0  0  0
  4  5  1  0  0  0  0
  4 30  1  0  0  0  0
  4 31  1  0  0  0  0
  5  6  1  0  0  0  0
  5 32  1  0  0  0  0
  5 33  1  0  0  0  0
  6  7  1  0  0  0  0
  6 34  1  0  0  0  0
  6 35  1  0  0  0  0
  7  8  1  0  0  0  0
  7 36  1  0  0  0  0
  7 37  1  0  0  0  0
  8  9  1  0  0  0  0
  8 38  1  0  0  0  0
  8 39  1  0  0  0  0
  9 10  1  0  0  0  0
  9 40  1  0  0  0  0
  9 41  1  0  0  0  0
 10 11  1  0  0  0  0
 10 42  1  0  0  0  0
 10 43  1  0  0  0  0
 11 12  1  0  0  0  0
 11 44  1  0  0  0  0
 11 45  1  0  0  0  0
 12 13  1  0  0  0  0
 12 46  1  0  0  0  0
 12 47  1  0  0  0  0
 13 14  1  0  0  0  0
 13 48  1  0  0  0  0
 13 49  1  0  0  0  0
 14 15  2  0  0  0  0
 14 16  1  0  0  0  0
 16 17  1  0  0  0  0
 16 50  1  0  0  0  0
 17 18  1  0  0  0  0
 17 22  2  0  0  0  0
 18 19  2  0  0  0  0
 18 51  1  0  0  0  0
 19 20  1  0  0  0  0
 19 22  1  0  0  0  0
 20 21  2  0  0  0  0
 20 52  1  0  0  0  0
 22 53  1  0  0  0  0
M  END
$$$$
