
 OpenBabel04232216563D

236236  0  0  1  0  0  0  0  0999 V2000
    4.5641    3.6643    0.4905 C   0  0  0  0  0  0  0  0  0  0  0  0
    3.8528    2.8179    1.4442 N   0  0  0  0  0  0  0  0  0  0  0  0
    4.0891    3.2892    2.8180 C   0  0  0  0  0  0  0  0  0  0  0  0
    4.0010    2.1969    3.8945 C   0  0  0  0  0  0  0  0  0  0  0  0
    4.5936    0.8528    3.4509 C   0  0  0  0  0  0  0  0  0  0  0  0
    3.5470   -0.1893    3.0408 C   0  0  0  0  0  0  0  0  0  0  0  0
    2.8090    0.1220    1.7410 C   0  0  0  0  0  0  0  0  0  0  0  0
    1.8821    1.3354    1.8692 C   0  0  0  0  0  0  0  0  0  0  0  0
    2.4184    2.5913    1.1346 C   0  0  3  0  0  0  0  0  0  0  0  0
    2.1128    2.4389   -0.3850 C   0  0  0  0  0  0  0  0  0  0  0  0
    0.6266    2.2986   -0.7229 C   0  0  0  0  0  0  0  0  0  0  0  0
   -0.1832    3.4957   -0.2544 C   0  0  0  0  0  0  0  0  0  0  0  0
   -1.6446    3.2747   -0.5866 C   0  0  0  0  0  0  0  0  0  0  0  0
   -2.4566    4.4626   -0.1202 C   0  0  0  0  0  0  0  0  0  0  0  0
   -3.9150    4.2322   -0.4501 C   0  0  0  0  0  0  0  0  0  0  0  0
   -4.7204    5.4276    0.0082 C   0  0  0  0  0  0  0  0  0  0  0  0
   -6.1817    5.2137   -0.3214 C   0  0  0  0  0  0  0  0  0  0  0  0
   -6.9794    6.4172    0.1333 C   0  0  0  0  0  0  0  0  0  0  0  0
   -8.4430    6.2093   -0.1953 C   0  0  0  0  0  0  0  0  0  0  0  0
   -9.2435    7.4120    0.2609 C   0  0  0  0  0  0  0  0  0  0  0  0
  -10.7083    7.2037   -0.0684 C   0  0  0  0  0  0  0  0  0  0  0  0
  -11.5110    8.4064    0.3857 C   0  0  0  0  0  0  0  0  0  0  0  0
  -12.9761    8.1992    0.0546 C   0  0  0  0  0  0  0  0  0  0  0  0
  -13.7802    9.4019    0.5082 C   0  0  0  0  0  0  0  0  0  0  0  0
  -15.2452    9.1937    0.1772 C   0  0  0  0  0  0  0  0  0  0  0  0
  -16.0502   10.3964    0.6315 C   0  0  0  0  0  0  0  0  0  0  0  0
  -17.5160   10.1877    0.2994 C   0  0  0  0  0  0  0  0  0  0  0  0
  -18.3217   11.3897    0.7531 C   0  0  0  0  0  0  0  0  0  0  0  0
  -19.7880   11.1807    0.4267 C   0  0  0  0  0  0  0  0  0  0  0  0
  -20.5918   12.3856    0.8774 C   0  0  0  0  0  0  0  0  0  0  0  0
  -22.0569   12.1816    0.5472 C   0  0  0  0  0  0  0  0  0  0  0  0
  -22.8604   13.3850    1.0007 C   0  0  0  0  0  0  0  0  0  0  0  0
  -24.3262   13.1801    0.6703 C   0  0  0  0  0  0  0  0  0  0  0  0
  -25.1304   14.3830    1.1235 C   0  0  0  0  0  0  0  0  0  0  0  0
  -26.5959   14.1762    0.7923 C   0  0  0  0  0  0  0  0  0  0  0  0
  -27.4006   15.3797    1.2443 C   0  0  0  0  0  0  0  0  0  0  0  0
  -28.8664   15.1719    0.9150 C   0  0  0  0  0  0  0  0  0  0  0  0
  -29.6704   16.3767    1.3651 C   0  0  0  0  0  0  0  0  0  0  0  0
  -31.1361   16.1693    1.0361 C   0  0  0  0  0  0  0  0  0  0  0  0
  -31.9402   17.3742    1.4861 C   0  0  0  0  0  0  0  0  0  0  0  0
  -33.4058   17.1663    1.1566 C   0  0  0  0  0  0  0  0  0  0  0  0
  -34.2102   18.3709    1.6072 C   0  0  0  0  0  0  0  0  0  0  0  0
  -35.6755   18.1628    1.2762 C   0  0  0  0  0  0  0  0  0  0  0  0
  -36.4787   19.3692    1.7245 C   0  0  0  0  0  0  0  0  0  0  0  0
  -37.9439   19.1636    1.3910 C   0  0  0  0  0  0  0  0  0  0  0  0
  -38.7470   20.3701    1.8402 C   0  0  0  0  0  0  0  0  0  0  0  0
  -40.2131   20.1635    1.5121 C   0  0  0  0  0  0  0  0  0  0  0  0
  -41.0180   21.3685    1.9601 C   0  0  0  0  0  0  0  0  0  0  0  0
  -42.4817   21.1566    1.6267 C   0  0  0  0  0  0  0  0  0  0  0  0
  -43.2886   22.3660    2.0820 C   0  0  0  0  0  0  0  0  0  0  0  0
  -44.7505   22.1574    1.7478 C   0  0  0  0  0  0  0  0  0  0  0  0
  -45.5552   23.3655    2.1923 C   0  0  0  0  0  0  0  0  0  0  0  0
  -47.0205   23.1611    1.8587 C   0  0  0  0  0  0  0  0  0  0  0  0
  -47.8237   24.3675    2.3052 C   0  0  0  0  0  0  0  0  0  0  0  0
  -49.2889   24.1622    1.9713 C   0  0  0  0  0  0  0  0  0  0  0  0
  -50.0927   25.3666    2.4218 C   0  0  0  0  0  0  0  0  0  0  0  0
  -51.5580   25.1609    2.0890 C   0  0  0  0  0  0  0  0  0  0  0  0
  -52.3611   26.3670    2.5366 C   0  0  0  0  0  0  0  0  0  0  0  0
  -53.8264   26.1613    2.2039 C   0  0  0  0  0  0  0  0  0  0  0  0
  -54.6306   27.3659    2.6542 C   0  0  0  0  0  0  0  0  0  0  0  0
  -56.0953   27.1613    2.3180 C   0  0  0  0  0  0  0  0  0  0  0  0
  -56.8993   28.3667    2.7662 C   0  0  0  0  0  0  0  0  0  0  0  0
  -58.3640   28.1616    2.4316 C   0  0  0  0  0  0  0  0  0  0  0  0
  -59.1676   29.3671    2.8795 C   0  0  0  0  0  0  0  0  0  0  0  0
  -60.6316   29.1614    2.5447 C   0  0  0  0  0  0  0  0  0  0  0  0
  -61.4352   30.3673    2.9909 C   0  0  0  0  0  0  0  0  0  0  0  0
  -62.8993   30.1588    2.6555 C   0  0  0  0  0  0  0  0  0  0  0  0
  -63.7034   31.3646    3.1060 C   0  0  0  0  0  0  0  0  0  0  0  0
  -65.1679   31.1564    2.7739 C   0  0  0  0  0  0  0  0  0  0  0  0
  -65.9740   32.3615    3.2269 C   0  0  0  0  0  0  0  0  0  0  0  0
  -67.4395   32.1621    2.8906 C   0  0  0  0  0  0  0  0  0  0  0  0
  -68.2427   33.3713    3.3284 C   0  0  0  0  0  0  0  0  0  0  0  0
  -69.7115   33.1705    2.9924 C   0  0  0  0  0  0  0  0  0  0  0  0
  -70.5151   34.3785    3.4340 C   0  0  0  0  0  0  0  0  0  0  0  0
  -71.9833   34.1863    3.1005 C   0  0  0  0  0  0  0  0  0  0  0  0
  -72.8002   35.3906    3.5476 C   0  0  0  0  0  0  0  0  0  0  0  0
  -74.2637   35.1911    3.2114 C   0  0  0  0  0  0  0  0  0  0  0  0
  -75.0884   36.3971    3.6487 C   0  0  0  0  0  0  0  0  0  0  0  0
  -76.5550   36.1944    3.3130 C   0  0  0  0  0  0  0  0  0  0  0  0
    5.6075    3.8081    0.7972 H   0  0  0  0  0  0  0  0  0  0  0  0
    4.1011    4.6496    0.3779 H   0  0  0  0  0  0  0  0  0  0  0  0
    4.6317    3.1760   -0.4880 H   0  0  0  0  0  0  0  0  0  0  0  0
    3.4324    4.1324    3.0745 H   0  0  0  0  0  0  0  0  0  0  0  0
    5.1116    3.6848    2.8956 H   0  0  0  0  0  0  0  0  0  0  0  0
    2.9776    2.0848    4.2632 H   0  0  0  0  0  0  0  0  0  0  0  0
    4.5627    2.5523    4.7665 H   0  0  0  0  0  0  0  0  0  0  0  0
    5.1573    0.4358    4.2944 H   0  0  0  0  0  0  0  0  0  0  0  0
    5.3224    0.9882    2.6425 H   0  0  0  0  0  0  0  0  0  0  0  0
    2.8196   -0.3248    3.8502 H   0  0  0  0  0  0  0  0  0  0  0  0
    4.0546   -1.1530    2.9152 H   0  0  0  0  0  0  0  0  0  0  0  0
    2.2034   -0.7512    1.4686 H   0  0  0  0  0  0  0  0  0  0  0  0
    3.5310    0.2423    0.9240 H   0  0  0  0  0  0  0  0  0  0  0  0
    1.6480    1.5644    2.9105 H   0  0  0  0  0  0  0  0  0  0  0  0
    0.9017    1.0421    1.4872 H   0  0  0  0  0  0  0  0  0  0  0  0
    1.8666    3.4666    1.4944 H   0  0  0  0  0  0  0  0  0  0  0  0
    2.6380    1.5656   -0.7867 H   0  0  0  0  0  0  0  0  0  0  0  0
    2.4758    3.3127   -0.9378 H   0  0  0  0  0  0  0  0  0  0  0  0
    0.2025    1.3818   -0.3026 H   0  0  0  0  0  0  0  0  0  0  0  0
    0.5192    2.1872   -1.8078 H   0  0  0  0  0  0  0  0  0  0  0  0
    0.1847    4.4134   -0.7342 H   0  0  0  0  0  0  0  0  0  0  0  0
   -0.0994    3.6414    0.8278 H   0  0  0  0  0  0  0  0  0  0  0  0
   -2.0031    2.3641   -0.0903 H   0  0  0  0  0  0  0  0  0  0  0  0
   -1.7680    3.1301   -1.6662 H   0  0  0  0  0  0  0  0  0  0  0  0
   -2.0990    5.3779   -0.6078 H   0  0  0  0  0  0  0  0  0  0  0  0
   -2.3355    4.6028    0.9614 H   0  0  0  0  0  0  0  0  0  0  0  0
   -4.2750    3.3216    0.0453 H   0  0  0  0  0  0  0  0  0  0  0  0
   -4.0380    4.0848   -1.5303 H   0  0  0  0  0  0  0  0  0  0  0  0
   -4.3534    6.3367   -0.4845 H   0  0  0  0  0  0  0  0  0  0  0  0
   -4.5961    5.5713    1.0888 H   0  0  0  0  0  0  0  0  0  0  0  0
   -6.5494    4.3070    0.1752 H   0  0  0  0  0  0  0  0  0  0  0  0
   -6.3049    5.0654   -1.4017 H   0  0  0  0  0  0  0  0  0  0  0  0
   -6.6075    7.3225   -0.3626 H   0  0  0  0  0  0  0  0  0  0  0  0
   -6.8532    6.5639    1.2132 H   0  0  0  0  0  0  0  0  0  0  0  0
   -8.8121    5.3025    0.2995 H   0  0  0  0  0  0  0  0  0  0  0  0
   -8.5665    6.0634   -1.2755 H   0  0  0  0  0  0  0  0  0  0  0  0
   -8.8725    8.3182   -0.2336 H   0  0  0  0  0  0  0  0  0  0  0  0
   -9.1185    7.5572    1.3411 H   0  0  0  0  0  0  0  0  0  0  0  0
  -11.0776    6.2973    0.4270 H   0  0  0  0  0  0  0  0  0  0  0  0
  -10.8313    7.0566   -1.1484 H   0  0  0  0  0  0  0  0  0  0  0  0
  -11.1399    9.3125   -0.1090 H   0  0  0  0  0  0  0  0  0  0  0  0
  -11.3880    8.5527    1.4658 H   0  0  0  0  0  0  0  0  0  0  0  0
  -13.3466    7.2926    0.5491 H   0  0  0  0  0  0  0  0  0  0  0  0
  -13.0984    8.0527   -1.0257 H   0  0  0  0  0  0  0  0  0  0  0  0
  -13.4091   10.3081    0.0136 H   0  0  0  0  0  0  0  0  0  0  0  0
  -13.6571    9.5483    1.5885 H   0  0  0  0  0  0  0  0  0  0  0  0
  -15.6153    8.2875    0.6717 H   0  0  0  0  0  0  0  0  0  0  0  0
  -15.3674    9.0478   -0.9028 H   0  0  0  0  0  0  0  0  0  0  0  0
  -15.6802   11.3028    0.1372 H   0  0  0  0  0  0  0  0  0  0  0  0
  -15.9284   10.5421    1.7112 H   0  0  0  0  0  0  0  0  0  0  0  0
  -17.8856    9.2809    0.7936 H   0  0  0  0  0  0  0  0  0  0  0  0
  -17.6377   10.0417   -0.7808 H   0  0  0  0  0  0  0  0  0  0  0  0
  -17.9531   12.2955    0.2561 H   0  0  0  0  0  0  0  0  0  0  0  0
  -18.1965   11.5381    1.8329 H   0  0  0  0  0  0  0  0  0  0  0  0
  -20.1575   10.2767    0.9264 H   0  0  0  0  0  0  0  0  0  0  0  0
  -19.9136   11.0292   -0.6524 H   0  0  0  0  0  0  0  0  0  0  0  0
  -20.2191   13.2908    0.3815 H   0  0  0  0  0  0  0  0  0  0  0  0
  -20.4685   12.5338    1.9576 H   0  0  0  0  0  0  0  0  0  0  0  0
  -22.4295   11.2756    1.0408 H   0  0  0  0  0  0  0  0  0  0  0  0
  -22.1805   12.0349   -0.5338 H   0  0  0  0  0  0  0  0  0  0  0  0
  -22.4886   14.2914    0.5063 H   0  0  0  0  0  0  0  0  0  0  0  0
  -22.7374   13.5316    2.0812 H   0  0  0  0  0  0  0  0  0  0  0  0
  -24.6977   12.2738    1.1646 H   0  0  0  0  0  0  0  0  0  0  0  0
  -24.4489   13.0336   -0.4102 H   0  0  0  0  0  0  0  0  0  0  0  0
  -24.7595   15.2892    0.6288 H   0  0  0  0  0  0  0  0  0  0  0  0
  -25.0079   14.5298    2.2038 H   0  0  0  0  0  0  0  0  0  0  0  0
  -26.9672   13.2706    1.2880 H   0  0  0  0  0  0  0  0  0  0  0  0
  -26.7184   14.0285   -0.2876 H   0  0  0  0  0  0  0  0  0  0  0  0
  -27.0302   16.2854    0.7477 H   0  0  0  0  0  0  0  0  0  0  0  0
  -27.2773   15.5285    2.3242 H   0  0  0  0  0  0  0  0  0  0  0  0
  -29.2371   14.2675    1.4130 H   0  0  0  0  0  0  0  0  0  0  0  0
  -28.9900   15.0218   -0.1646 H   0  0  0  0  0  0  0  0  0  0  0  0
  -29.2995   17.2811    0.8671 H   0  0  0  0  0  0  0  0  0  0  0  0
  -29.5469   16.5268    2.4447 H   0  0  0  0  0  0  0  0  0  0  0  0
  -31.5072   15.2650    1.5339 H   0  0  0  0  0  0  0  0  0  0  0  0
  -31.2598   16.0194   -0.0436 H   0  0  0  0  0  0  0  0  0  0  0  0
  -31.5694   18.2785    0.9881 H   0  0  0  0  0  0  0  0  0  0  0  0
  -31.8167   17.5243    2.5657 H   0  0  0  0  0  0  0  0  0  0  0  0
  -33.7767   16.2617    1.6546 H   0  0  0  0  0  0  0  0  0  0  0  0
  -33.5291   17.0163    0.0772 H   0  0  0  0  0  0  0  0  0  0  0  0
  -33.8388   19.2753    1.1100 H   0  0  0  0  0  0  0  0  0  0  0  0
  -34.0881   18.5197    2.6856 H   0  0  0  0  0  0  0  0  0  0  0  0
  -36.0473   17.2600    1.7732 H   0  0  0  0  0  0  0  0  0  0  0  0
  -35.7976   18.0132    0.1957 H   0  0  0  0  0  0  0  0  0  0  0  0
  -36.1057   20.2729    1.2277 H   0  0  0  0  0  0  0  0  0  0  0  0
  -36.3580   19.5183    2.8044 H   0  0  0  0  0  0  0  0  0  0  0  0
  -38.3176   18.2600    1.8875 H   0  0  0  0  0  0  0  0  0  0  0  0
  -38.0652   19.0147    0.3110 H   0  0  0  0  0  0  0  0  0  0  0  0
  -38.3755   21.2736    1.3407 H   0  0  0  0  0  0  0  0  0  0  0  0
  -38.6232   20.5214    2.9199 H   0  0  0  0  0  0  0  0  0  0  0  0
  -40.5825   19.2590    2.0090 H   0  0  0  0  0  0  0  0  0  0  0  0
  -40.3359   20.0137    0.4324 H   0  0  0  0  0  0  0  0  0  0  0  0
  -40.6456   22.2733    1.4601 H   0  0  0  0  0  0  0  0  0  0  0  0
  -40.8970   21.5231    3.0400 H   0  0  0  0  0  0  0  0  0  0  0  0
  -42.8532   20.2555    2.1294 H   0  0  0  0  0  0  0  0  0  0  0  0
  -42.6050   21.0082    0.5500 H   0  0  0  0  0  0  0  0  0  0  0  0
  -42.9135   23.2692    1.5820 H   0  0  0  0  0  0  0  0  0  0  0  0
  -43.1655   22.5130    3.1580 H   0  0  0  0  0  0  0  0  0  0  0  0
  -45.1260   21.2550    2.2451 H   0  0  0  0  0  0  0  0  0  0  0  0
  -44.8737   22.0066    0.6673 H   0  0  0  0  0  0  0  0  0  0  0  0
  -45.1810   24.2689    1.6951 H   0  0  0  0  0  0  0  0  0  0  0  0
  -45.4348   23.5165    3.2732 H   0  0  0  0  0  0  0  0  0  0  0  0
  -47.3949   22.2576    2.3556 H   0  0  0  0  0  0  0  0  0  0  0  0
  -47.1406   23.0107    0.7785 H   0  0  0  0  0  0  0  0  0  0  0  0
  -47.4498   25.2712    1.8083 H   0  0  0  0  0  0  0  0  0  0  0  0
  -47.7036   24.5178    3.3852 H   0  0  0  0  0  0  0  0  0  0  0  0
  -49.6622   23.2571    2.4662 H   0  0  0  0  0  0  0  0  0  0  0  0
  -49.4093   24.0147    0.8910 H   0  0  0  0  0  0  0  0  0  0  0  0
  -49.7200   26.2718    1.9265 H   0  0  0  0  0  0  0  0  0  0  0  0
  -49.9719   25.5146    3.5020 H   0  0  0  0  0  0  0  0  0  0  0  0
  -51.9312   24.2572    2.5865 H   0  0  0  0  0  0  0  0  0  0  0  0
  -51.6791   25.0104    1.0091 H   0  0  0  0  0  0  0  0  0  0  0  0
  -51.9877   27.2706    2.0388 H   0  0  0  0  0  0  0  0  0  0  0  0
  -52.2397   26.5176    3.6164 H   0  0  0  0  0  0  0  0  0  0  0  0
  -54.1993   25.2565    2.6995 H   0  0  0  0  0  0  0  0  0  0  0  0
  -53.9473   26.0133    1.1239 H   0  0  0  0  0  0  0  0  0  0  0  0
  -54.2565   28.2713    2.1605 H   0  0  0  0  0  0  0  0  0  0  0  0
  -54.5117   27.5125    3.7346 H   0  0  0  0  0  0  0  0  0  0  0  0
  -56.4700   26.2566    2.8126 H   0  0  0  0  0  0  0  0  0  0  0  0
  -56.2142   27.0134    1.2374 H   0  0  0  0  0  0  0  0  0  0  0  0
  -56.5254   29.2711    2.2705 H   0  0  0  0  0  0  0  0  0  0  0  0
  -56.7797   28.5156    3.8465 H   0  0  0  0  0  0  0  0  0  0  0  0
  -58.7383   27.2573    2.9273 H   0  0  0  0  0  0  0  0  0  0  0  0
  -58.4839   28.0127    1.3513 H   0  0  0  0  0  0  0  0  0  0  0  0
  -58.7936   30.2716    2.3839 H   0  0  0  0  0  0  0  0  0  0  0  0
  -59.0481   29.5162    3.9600 H   0  0  0  0  0  0  0  0  0  0  0  0
  -61.0060   28.2576    3.0416 H   0  0  0  0  0  0  0  0  0  0  0  0
  -60.7512   29.0110    1.4645 H   0  0  0  0  0  0  0  0  0  0  0  0
  -61.0614   31.2711    2.4941 H   0  0  0  0  0  0  0  0  0  0  0  0
  -61.3159   30.5174    4.0711 H   0  0  0  0  0  0  0  0  0  0  0  0
  -63.2719   29.2558    3.1516 H   0  0  0  0  0  0  0  0  0  0  0  0
  -63.0190   30.0110    1.5763 H   0  0  0  0  0  0  0  0  0  0  0  0
  -63.3301   32.2692    2.6090 H   0  0  0  0  0  0  0  0  0  0  0  0
  -63.5806   31.5135    4.1854 H   0  0  0  0  0  0  0  0  0  0  0  0
  -65.5394   30.2499    3.2689 H   0  0  0  0  0  0  0  0  0  0  0  0
  -65.2887   31.0101    1.6944 H   0  0  0  0  0  0  0  0  0  0  0  0
  -65.5965   33.2640    2.7309 H   0  0  0  0  0  0  0  0  0  0  0  0
  -65.8503   32.5083    4.3068 H   0  0  0  0  0  0  0  0  0  0  0  0
  -67.8171   31.2593    3.3879 H   0  0  0  0  0  0  0  0  0  0  0  0
  -67.5548   32.0086    1.8101 H   0  0  0  0  0  0  0  0  0  0  0  0
  -67.8652   34.2716    2.8297 H   0  0  0  0  0  0  0  0  0  0  0  0
  -68.1256   33.5255    4.4088 H   0  0  0  0  0  0  0  0  0  0  0  0
  -70.0860   32.2690    3.4901 H   0  0  0  0  0  0  0  0  0  0  0  0
  -69.8287   33.0168    1.9122 H   0  0  0  0  0  0  0  0  0  0  0  0
  -70.1381   35.2808    2.9368 H   0  0  0  0  0  0  0  0  0  0  0  0
  -70.3964   34.5301    4.5130 H   0  0  0  0  0  0  0  0  0  0  0  0
  -72.3625   33.2793    3.5978 H   0  0  0  0  0  0  0  0  0  0  0  0
  -72.1043   34.0306    2.0169 H   0  0  0  0  0  0  0  0  0  0  0  0
  -72.4151   36.2941    3.0459 H   0  0  0  0  0  0  0  0  0  0  0  0
  -72.6719   35.5404    4.6233 H   0  0  0  0  0  0  0  0  0  0  0  0
  -74.6364   34.2878    3.7105 H   0  0  0  0  0  0  0  0  0  0  0  0
  -74.3803   35.0347    2.1321 H   0  0  0  0  0  0  0  0  0  0  0  0
  -74.7203   37.3008    3.1496 H   0  0  0  0  0  0  0  0  0  0  0  0
  -74.9781   36.5529    4.7281 H   0  0  0  0  0  0  0  0  0  0  0  0
  -76.6910   36.0601    2.2351 H   0  0  0  0  0  0  0  0  0  0  0  0
  -77.1394   37.0619    3.6282 H   0  0  0  0  0  0  0  0  0  0  0  0
  -76.9504   35.3090    3.8213 H   0  0  0  0  0  0  0  0  0  0  0  0
  1  2  1  0  0  0  0
  1 80  1  0  0  0  0
  1 81  1  0  0  0  0
  1 82  1  0  0  0  0
  2  3  1  0  0  0  0
  2  9  1  0  0  0  0
  3  4  1  0  0  0  0
  3 83  1  0  0  0  0
  3 84  1  0  0  0  0
  4  5  1  0  0  0  0
  4 85  1  0  0  0  0
  4 86  1  0  0  0  0
  5  6  1  0  0  0  0
  5 87  1  0  0  0  0
  5 88  1  0  0  0  0
  6  7  1  0  0  0  0
  6 89  1  0  0  0  0
  6 90  1  0  0  0  0
  7  8  1  0  0  0  0
  7 91  1  0  0  0  0
  7 92  1  0  0  0  0
  8  9  1  0  0  0  0
  8 93  1  0  0  0  0
  8 94  1  0  0  0  0
  9 10  1  0  0  0  0
  9 95  1  0  0  0  0
 10 11  1  0  0  0  0
 10 96  1  0  0  0  0
 10 97  1  0  0  0  0
 11 12  1  0  0  0  0
 11 98  1  0  0  0  0
 11 99  1  0  0  0  0
 12 13  1  0  0  0  0
 12100  1  0  0  0  0
 12101  1  0  0  0  0
 13 14  1  0  0  0  0
 13102  1  0  0  0  0
 13103  1  0  0  0  0
 14 15  1  0  0  0  0
 14104  1  0  0  0  0
 14105  1  0  0  0  0
 15 16  1  0  0  0  0
 15106  1  0  0  0  0
 15107  1  0  0  0  0
 16 17  1  0  0  0  0
 16108  1  0  0  0  0
 16109  1  0  0  0  0
 17 18  1  0  0  0  0
 17110  1  0  0  0  0
 17111  1  0  0  0  0
 18 19  1  0  0  0  0
 18112  1  0  0  0  0
 18113  1  0  0  0  0
 19 20  1  0  0  0  0
 19114  1  0  0  0  0
 19115  1  0  0  0  0
 20 21  1  0  0  0  0
 20116  1  0  0  0  0
 20117  1  0  0  0  0
 21 22  1  0  0  0  0
 21118  1  0  0  0  0
 21119  1  0  0  0  0
 22 23  1  0  0  0  0
 22120  1  0  0  0  0
 22121  1  0  0  0  0
 23 24  1  0  0  0  0
 23122  1  0  0  0  0
 23123  1  0  0  0  0
 24 25  1  0  0  0  0
 24124  1  0  0  0  0
 24125  1  0  0  0  0
 25 26  1  0  0  0  0
 25126  1  0  0  0  0
 25127  1  0  0  0  0
 26 27  1  0  0  0  0
 26128  1  0  0  0  0
 26129  1  0  0  0  0
 27 28  1  0  0  0  0
 27130  1  0  0  0  0
 27131  1  0  0  0  0
 28 29  1  0  0  0  0
 28132  1  0  0  0  0
 28133  1  0  0  0  0
 29 30  1  0  0  0  0
 29134  1  0  0  0  0
 29135  1  0  0  0  0
 30 31  1  0  0  0  0
 30136  1  0  0  0  0
 30137  1  0  0  0  0
 31 32  1  0  0  0  0
 31138  1  0  0  0  0
 31139  1  0  0  0  0
 32 33  1  0  0  0  0
 32140  1  0  0  0  0
 32141  1  0  0  0  0
 33 34  1  0  0  0  0
 33142  1  0  0  0  0
 33143  1  0  0  0  0
 34 35  1  0  0  0  0
 34144  1  0  0  0  0
 34145  1  0  0  0  0
 35 36  1  0  0  0  0
 35146  1  0  0  0  0
 35147  1  0  0  0  0
 36 37  1  0  0  0  0
 36148  1  0  0  0  0
 36149  1  0  0  0  0
 37 38  1  0  0  0  0
 37150  1  0  0  0  0
 37151  1  0  0  0  0
 38 39  1  0  0  0  0
 38152  1  0  0  0  0
 38153  1  0  0  0  0
 39 40  1  0  0  0  0
 39154  1  0  0  0  0
 39155  1  0  0  0  0
 40 41  1  0  0  0  0
 40156  1  0  0  0  0
 40157  1  0  0  0  0
 41 42  1  0  0  0  0
 41158  1  0  0  0  0
 41159  1  0  0  0  0
 42 43  1  0  0  0  0
 42160  1  0  0  0  0
 42161  1  0  0  0  0
 43 44  1  0  0  0  0
 43162  1  0  0  0  0
 43163  1  0  0  0  0
 44 45  1  0  0  0  0
 44164  1  0  0  0  0
 44165  1  0  0  0  0
 45 46  1  0  0  0  0
 45166  1  0  0  0  0
 45167  1  0  0  0  0
 46 47  1  0  0  0  0
 46168  1  0  0  0  0
 46169  1  0  0  0  0
 47 48  1  0  0  0  0
 47170  1  0  0  0  0
 47171  1  0  0  0  0
 48 49  1  0  0  0  0
 48172  1  0  0  0  0
 48173  1  0  0  0  0
 49 50  1  0  0  0  0
 49174  1  0  0  0  0
 49175  1  0  0  0  0
 50 51  1  0  0  0  0
 50176  1  0  0  0  0
 50177  1  0  0  0  0
 51 52  1  0  0  0  0
 51178  1  0  0  0  0
 51179  1  0  0  0  0
 52 53  1  0  0  0  0
 52180  1  0  0  0  0
 52181  1  0  0  0  0
 53 54  1  0  0  0  0
 53182  1  0  0  0  0
 53183  1  0  0  0  0
 54 55  1  0  0  0  0
 54184  1  0  0  0  0
 54185  1  0  0  0  0
 55 56  1  0  0  0  0
 55186  1  0  0  0  0
 55187  1  0  0  0  0
 56 57  1  0  0  0  0
 56188  1  0  0  0  0
 56189  1  0  0  0  0
 57 58  1  0  0  0  0
 57190  1  0  0  0  0
 57191  1  0  0  0  0
 58 59  1  0  0  0  0
 58192  1  0  0  0  0
 58193  1  0  0  0  0
 59 60  1  0  0  0  0
 59194  1  0  0  0  0
 59195  1  0  0  0  0
 60 61  1  0  0  0  0
 60196  1  0  0  0  0
 60197  1  0  0  0  0
 61 62  1  0  0  0  0
 61198  1  0  0  0  0
 61199  1  0  0  0  0
 62 63  1  0  0  0  0
 62200  1  0  0  0  0
 62201  1  0  0  0  0
 63 64  1  0  0  0  0
 63202  1  0  0  0  0
 63203  1  0  0  0  0
 64 65  1  0  0  0  0
 64204  1  0  0  0  0
 64205  1  0  0  0  0
 65 66  1  0  0  0  0
 65206  1  0  0  0  0
 65207  1  0  0  0  0
 66 67  1  0  0  0  0
 66208  1  0  0  0  0
 66209  1  0  0  0  0
 67 68  1  0  0  0  0
 67210  1  0  0  0  0
 67211  1  0  0  0  0
 68 69  1  0  0  0  0
 68212  1  0  0  0  0
 68213  1  0  0  0  0
 69 70  1  0  0  0  0
 69214  1  0  0  0  0
 69215  1  0  0  0  0
 70 71  1  0  0  0  0
 70216  1  0  0  0  0
 70217  1  0  0  0  0
 71 72  1  0  0  0  0
 71218  1  0  0  0  0
 71219  1  0  0  0  0
 72 73  1  0  0  0  0
 72220  1  0  0  0  0
 72221  1  0  0  0  0
 73 74  1  0  0  0  0
 73222  1  0  0  0  0
 73223  1  0  0  0  0
 74 75  1  0  0  0  0
 74224  1  0  0  0  0
 74225  1  0  0  0  0
 75 76  1  0  0  0  0
 75226  1  0  0  0  0
 75227  1  0  0  0  0
 76 77  1  0  0  0  0
 76228  1  0  0  0  0
 76229  1  0  0  0  0
 77 78  1  0  0  0  0
 77230  1  0  0  0  0
 77231  1  0  0  0  0
 78 79  1  0  0  0  0
 78232  1  0  0  0  0
 78233  1  0  0  0  0
 79234  1  0  0  0  0
 79235  1  0  0  0  0
 79236  1  0  0  0  0
M  END
$$$$
