
 OpenBabel04232216453D

 41 42  0  0  1  0  0  0  0  0999 V2000
   -0.0545   -0.6335    1.3299 C   0  0  0  0  0  0  0  0  0  0  0  0
    0.8841   -1.1844    2.4079 C   0  0  3  0  0  0  0  0  0  0  0  0
    2.0785   -1.7924    1.7251 C   0  0  0  0  0  0  0  0  0  0  0  0
    3.3189   -1.2699    1.7499 C   0  0  0  0  0  0  0  0  0  0  0  0
    4.3907   -1.9220    0.9220 C   0  0  0  0  0  0  0  0  0  0  0  0
    3.6519    0.0184    2.5261 C   0  0  3  0  0  0  0  0  0  0  0  0
    4.9717   -0.0052    3.3757 C   0  0  3  0  0  0  0  0  0  0  0  0
    4.9942   -1.0872    4.4249 C   0  0  0  0  0  0  0  0  0  0  0  0
    5.9550   -2.0232    4.4924 C   0  0  0  0  0  0  0  0  0  0  0  0
    5.7981   -3.0989    5.4583 C   0  0  0  0  0  0  0  0  0  0  0  0
    6.7826   -3.8883    5.9041 C   0  0  0  0  0  0  0  0  0  0  0  0
    6.9803   -1.9572    3.4702 C   0  0  0  0  0  0  0  0  0  0  0  0
    7.0240   -0.9831    2.5471 C   0  0  0  0  0  0  0  0  0  0  0  0
    7.8982   -1.0136    1.4826 N   0  0  0  0  0  0  0  0  0  0  0  0
    9.2215   -0.4036    1.5909 C   0  0  0  0  0  0  0  0  0  0  0  0
    9.9718   -0.4986    0.2729 C   0  0  0  0  0  0  0  0  0  0  0  0
    9.4804   -0.8388   -0.8006 O   0  0  0  0  0  0  0  0  0  0  0  0
    6.1073    0.0346    2.4849 O   0  0  0  0  0  0  0  0  0  0  0  0
    2.4827    0.4711    3.4010 C   0  0  0  0  0  0  0  0  0  0  0  0
    1.2590   -0.0803    3.3579 C   0  0  0  0  0  0  0  0  0  0  0  0
   -0.3019   -1.4012    0.5874 H   0  0  0  0  0  0  0  0  0  0  0  0
    0.4028    0.2077    0.7920 H   0  0  0  0  0  0  0  0  0  0  0  0
   -0.9913   -0.2772    1.7705 H   0  0  0  0  0  0  0  0  0  0  0  0
    0.3770   -1.9723    2.9688 H   0  0  0  0  0  0  0  0  0  0  0  0
    1.8872   -2.6983    1.1542 H   0  0  0  0  0  0  0  0  0  0  0  0
    3.9782   -2.6512    0.2166 H   0  0  0  0  0  0  0  0  0  0  0  0
    5.0842   -2.4769    1.5538 H   0  0  0  0  0  0  0  0  0  0  0  0
    4.9320   -1.1787    0.3295 H   0  0  0  0  0  0  0  0  0  0  0  0
    3.7869    0.8012    1.7647 H   0  0  0  0  0  0  0  0  0  0  0  0
    5.0313    0.9483    3.9218 H   0  0  0  0  0  0  0  0  0  0  0  0
    4.1696   -1.0835    5.1329 H   0  0  0  0  0  0  0  0  0  0  0  0
    4.7883   -3.2810    5.8284 H   0  0  0  0  0  0  0  0  0  0  0  0
    7.8120   -3.7680    5.5855 H   0  0  0  0  0  0  0  0  0  0  0  0
    6.5700   -4.6844    6.6109 H   0  0  0  0  0  0  0  0  0  0  0  0
    7.6751   -2.7866    3.3928 H   0  0  0  0  0  0  0  0  0  0  0  0
    7.4274   -0.6061    0.6713 H   0  0  0  0  0  0  0  0  0  0  0  0
    9.8147   -0.9127    2.3558 H   0  0  0  0  0  0  0  0  0  0  0  0
    9.1336    0.6582    1.8458 H   0  0  0  0  0  0  0  0  0  0  0  0
   11.0243   -0.1707    0.3210 H   0  0  0  0  0  0  0  0  0  0  0  0
    2.6598    1.2927    4.0916 H   0  0  0  0  0  0  0  0  0  0  0  0
    0.4763    0.2891    4.0162 H   0  0  0  0  0  0  0  0  0  0  0  0
  1  2  1  0  0  0  0
  1 21  1  0  0  0  0
  1 22  1  0  0  0  0
  1 23  1  0  0  0  0
  2  3  1  0  0  0  0
  2 20  1  0  0  0  0
  2 24  1  0  0  0  0
  3  4  2  0  0  0  0
  3 25  1  0  0  0  0
  4  5  1  0  0  0  0
  4  6  1  0  0  0  0
  5 26  1  0  0  0  0
  5 27  1  0  0  0  0
  5 28  1  0  0  0  0
  6  7  1  0  0  0  0
  6 19  1  0  0  0  0
  6 29  1  0  0  0  0
  7  8  1  0  0  0  0
  7 18  1  0  0  0  0
  7 30  1  0  0  0  0
  8  9  2  0  0  0  0
  8 31  1  0  0  0  0
  9 10  1  0  0  0  0
  9 12  1  0  0  0  0
 10 11  2  0  0  0  0
 10 32  1  0  0  0  0
 11 33  1  0  0  0  0
 11 34  1  0  0  0  0
 12 13  2  0  0  0  0
 12 35  1  0  0  0  0
 13 14  1  0  0  0  0
 13 18  1  0  0  0  0
 14 15  1  0  0  0  0
 14 36  1  0  0  0  0
 15 16  1  0  0  0  0
 15 37  1  0  0  0  0
 15 38  1  0  0  0  0
 16 17  2  0  0  0  0
 16 39  1  0  0  0  0
 19 20  2  0  0  0  0
 19 40  1  0  0  0  0
 20 41  1  0  0  0  0
M  END
$$$$
