
 OpenBabel04232217013D

210210  0  0  1  0  0  0  0  0999 V2000
    0.9227   -0.0379    0.4312 O   0  0  0  0  0  0  0  0  0  0  0  0
    2.3498    0.0168    0.1499 N   0  0  0  0  0  0  0  0  0  0  0  0
    2.8714    1.0807    1.0476 C   0  0  0  0  0  0  0  0  0  0  0  0
    3.9864    0.1101    1.4544 C   0  0  0  0  0  0  0  0  0  0  0  0
    2.9797   -0.9893    1.0587 C   0  0  3  0  0  0  0  0  0  0  0  0
    3.5753   -2.0988    0.3743 O   0  0  0  0  0  0  0  0  0  0  0  0
    2.4854   -3.0022    0.1010 O   0  0  0  0  0  0  0  0  0  0  0  0
    3.0027   -4.1693   -0.5682 O   0  0  0  0  0  0  0  0  0  0  0  0
    1.8766   -4.9967   -0.7986 C   0  0  0  0  0  0  0  0  0  0  0  0
    2.4002   -6.2120   -1.5376 C   0  0  0  0  0  0  0  0  0  0  0  0
    1.2731   -7.1821   -1.8253 C   0  0  0  0  0  0  0  0  0  0  0  0
    1.8226   -8.3904   -2.5628 C   0  0  0  0  0  0  0  0  0  0  0  0
    0.6948   -9.3611   -2.8535 C   0  0  0  0  0  0  0  0  0  0  0  0
    1.2344  -10.5718   -3.5876 C   0  0  0  0  0  0  0  0  0  0  0  0
    0.1026  -11.5372   -3.8788 C   0  0  0  0  0  0  0  0  0  0  0  0
    0.6398  -12.7522   -4.6093 C   0  0  0  0  0  0  0  0  0  0  0  0
   -0.4922  -13.7186   -4.8974 C   0  0  0  0  0  0  0  0  0  0  0  0
    0.0433  -14.9327   -5.6298 C   0  0  0  0  0  0  0  0  0  0  0  0
   -1.0899  -15.8987   -5.9166 C   0  0  0  0  0  0  0  0  0  0  0  0
   -0.5502  -17.1154   -6.6511 C   0  0  0  0  0  0  0  0  0  0  0  0
   -1.6822  -18.0788   -6.9403 C   0  0  0  0  0  0  0  0  0  0  0  0
   -1.1466  -19.2952   -7.6707 C   0  0  0  0  0  0  0  0  0  0  0  0
   -2.2819  -20.2647   -7.9606 C   0  0  0  0  0  0  0  0  0  0  0  0
   -1.7449  -21.4758   -8.6925 C   0  0  0  0  0  0  0  0  0  0  0  0
   -2.8746  -22.4442   -8.9830 C   0  0  0  0  0  0  0  0  0  0  0  0
   -2.3401  -23.6622   -9.7085 C   0  0  0  0  0  0  0  0  0  0  0  0
   -3.4694  -24.6260  -10.0012 C   0  0  0  0  0  0  0  0  0  0  0  0
   -2.9340  -25.8437  -10.7309 C   0  0  0  0  0  0  0  0  0  0  0  0
   -4.0662  -26.8104  -11.0201 C   0  0  0  0  0  0  0  0  0  0  0  0
   -3.5306  -28.0263  -11.7516 C   0  0  0  0  0  0  0  0  0  0  0  0
   -4.6625  -28.9932  -12.0410 C   0  0  0  0  0  0  0  0  0  0  0  0
   -4.1261  -30.2098  -12.7710 C   0  0  0  0  0  0  0  0  0  0  0  0
   -5.2580  -31.1771  -13.0607 C   0  0  0  0  0  0  0  0  0  0  0  0
   -4.7213  -32.3947  -13.7888 C   0  0  0  0  0  0  0  0  0  0  0  0
   -5.8534  -33.3613  -14.0803 C   0  0  0  0  0  0  0  0  0  0  0  0
   -5.3171  -34.5803  -14.8066 C   0  0  0  0  0  0  0  0  0  0  0  0
   -6.4490  -35.5480  -15.0985 C   0  0  0  0  0  0  0  0  0  0  0  0
   -5.9109  -36.7669  -15.8253 C   0  0  0  0  0  0  0  0  0  0  0  0
   -7.0405  -37.7376  -16.1191 C   0  0  0  0  0  0  0  0  0  0  0  0
   -6.4998  -38.9582  -16.8473 C   0  0  0  0  0  0  0  0  0  0  0  0
   -7.6318  -39.9241  -17.1394 C   0  0  0  0  0  0  0  0  0  0  0  0
   -7.1081  -41.1550  -17.8672 C   0  0  0  0  0  0  0  0  0  0  0  0
   -8.2507  -42.1016  -18.1472 C   0  0  0  0  0  0  0  0  0  0  0  0
   -7.7394  -43.2469  -18.8183 O   0  0  0  0  0  0  0  0  0  0  0  0
   -8.8021  -44.1501  -19.0946 C   0  0  0  0  0  0  0  0  0  0  0  0
   -8.2483  -45.3659  -19.8193 C   0  0  0  0  0  0  0  0  0  0  0  0
   -9.3624  -46.3520  -20.1193 C   0  0  0  0  0  0  0  0  0  0  0  0
  -10.3257  -45.7109  -20.9547 O   0  0  0  0  0  0  0  0  0  0  0  0
  -11.4186  -46.5876  -21.2064 C   0  0  0  0  0  0  0  0  0  0  0  0
  -12.4527  -45.8795  -22.0707 C   0  0  0  0  0  0  0  0  0  0  0  0
  -13.6083  -46.8133  -22.3912 C   0  0  0  0  0  0  0  0  0  0  0  0
  -14.2464  -47.2127  -21.1770 O   0  0  0  0  0  0  0  0  0  0  0  0
  -15.2886  -48.1397  -21.4396 C   0  0  0  0  0  0  0  0  0  0  0  0
  -15.9186  -48.5709  -20.1219 C   0  0  0  0  0  0  0  0  0  0  0  0
  -17.0675  -49.5303  -20.3728 C   0  0  0  0  0  0  0  0  0  0  0  0
  -16.5664  -50.6947  -21.0295 O   0  0  0  0  0  0  0  0  0  0  0  0
  -17.6305  -51.5811  -21.3540 C   0  0  0  0  0  0  0  0  0  0  0  0
  -17.0726  -52.7890  -22.0928 C   0  0  0  0  0  0  0  0  0  0  0  0
  -18.1798  -53.7814  -22.3993 C   0  0  0  0  0  0  0  0  0  0  0  0
  -19.1506  -53.1687  -23.2498 O   0  0  0  0  0  0  0  0  0  0  0  0
  -20.2374  -54.0485  -23.4908 C   0  0  0  0  0  0  0  0  0  0  0  0
  -21.2681  -53.3367  -24.3570 C   0  0  0  0  0  0  0  0  0  0  0  0
  -22.4198  -54.2701  -24.6789 C   0  0  0  0  0  0  0  0  0  0  0  0
  -23.0485  -54.6647  -23.4598 O   0  0  0  0  0  0  0  0  0  0  0  0
  -24.0876  -55.6015  -23.7194 C   0  0  0  0  0  0  0  0  0  0  0  0
  -24.7129  -56.0434  -22.4033 C   0  0  0  0  0  0  0  0  0  0  0  0
  -25.8614  -57.0048  -22.6580 C   0  0  0  0  0  0  0  0  0  0  0  0
  -25.3678  -58.1683  -23.3234 O   0  0  0  0  0  0  0  0  0  0  0  0
  -26.4290  -59.0556  -23.6382 C   0  0  0  0  0  0  0  0  0  0  0  0
  -25.8689  -60.2615  -24.3800 C   0  0  0  0  0  0  0  0  0  0  0  0
  -26.9765  -61.2538  -24.6885 C   0  0  0  0  0  0  0  0  0  0  0  0
  -27.9521  -60.6244  -25.5186 O   0  0  0  0  0  0  0  0  0  0  0  0
  -29.0351  -61.5084  -25.7753 C   0  0  0  0  0  0  0  0  0  0  0  0
  -30.0744  -60.8021  -26.6351 C   0  0  0  0  0  0  0  0  0  0  0  0
  -31.2244  -61.7416  -26.9643 C   0  0  0  0  0  0  0  0  0  0  0  0
  -31.8511  -62.1654  -25.7528 O   0  0  0  0  0  0  0  0  0  0  0  0
  -32.9005  -63.0893  -26.0198 C   0  0  0  0  0  0  0  0  0  0  0  0
  -33.5297  -63.5313  -24.7070 C   0  0  0  0  0  0  0  0  0  0  0  0
  -34.6689  -64.5008  -24.9655 C   0  0  0  0  0  0  0  0  0  0  0  0
    0.5726    0.3229   -0.4030 H   0  0  0  0  0  0  0  0  0  0  0  0
    2.2096    1.3606    1.8766 H   0  0  0  0  0  0  0  0  0  0  0  0
    3.2016    1.9840    0.5290 H   0  0  0  0  0  0  0  0  0  0  0  0
    4.2900    0.1275    2.5030 H   0  0  0  0  0  0  0  0  0  0  0  0
    4.8782    0.1430    0.8163 H   0  0  0  0  0  0  0  0  0  0  0  0
    2.3590   -1.3174    1.9049 H   0  0  0  0  0  0  0  0  0  0  0  0
    1.1352   -4.4612   -1.4022 H   0  0  0  0  0  0  0  0  0  0  0  0
    1.4271   -5.2836    0.1575 H   0  0  0  0  0  0  0  0  0  0  0  0
    3.1807   -6.6957   -0.9377 H   0  0  0  0  0  0  0  0  0  0  0  0
    2.8848   -5.8944   -2.4624 H   0  0  0  0  0  0  0  0  0  0  0  0
    0.5061   -6.6908   -2.4373 H   0  0  0  0  0  0  0  0  0  0  0  0
    0.7990   -7.4962   -0.8923 H   0  0  0  0  0  0  0  0  0  0  0  0
    2.5930   -8.8820   -1.9564 H   0  0  0  0  0  0  0  0  0  0  0  0
    2.2986   -8.0775   -3.5004 H   0  0  0  0  0  0  0  0  0  0  0  0
   -0.0759   -8.8682   -3.4588 H   0  0  0  0  0  0  0  0  0  0  0  0
    0.2197   -9.6734   -1.9150 H   0  0  0  0  0  0  0  0  0  0  0  0
    2.0026  -11.0664   -2.9807 H   0  0  0  0  0  0  0  0  0  0  0  0
    1.7118  -10.2597   -4.5249 H   0  0  0  0  0  0  0  0  0  0  0  0
   -0.6646  -11.0428   -4.4868 H   0  0  0  0  0  0  0  0  0  0  0  0
   -0.3759  -11.8465   -2.9412 H   0  0  0  0  0  0  0  0  0  0  0  0
    1.4082  -13.2448   -4.0022 H   0  0  0  0  0  0  0  0  0  0  0  0
    1.1162  -12.4436   -5.5485 H   0  0  0  0  0  0  0  0  0  0  0  0
   -1.2587  -13.2249   -5.5065 H   0  0  0  0  0  0  0  0  0  0  0  0
   -0.9692  -14.0264   -3.9583 H   0  0  0  0  0  0  0  0  0  0  0  0
    0.8114  -15.4276   -5.0210 H   0  0  0  0  0  0  0  0  0  0  0  0
    0.5207  -14.6234   -6.5665 H   0  0  0  0  0  0  0  0  0  0  0  0
   -1.8571  -15.4054   -6.5252 H   0  0  0  0  0  0  0  0  0  0  0  0
   -1.5644  -16.2067   -4.9819 H   0  0  0  0  0  0  0  0  0  0  0  0
    0.2161  -17.6070   -6.0422 H   0  0  0  0  0  0  0  0  0  0  0  0
   -0.0734  -16.8043   -7.5882 H   0  0  0  0  0  0  0  0  0  0  0  0
   -2.4483  -17.5870   -7.5499 H   0  0  0  0  0  0  0  0  0  0  0  0
   -2.1601  -18.3894   -6.0027 H   0  0  0  0  0  0  0  0  0  0  0  0
   -0.3788  -19.7920   -7.0641 H   0  0  0  0  0  0  0  0  0  0  0  0
   -0.6712  -18.9910   -8.6108 H   0  0  0  0  0  0  0  0  0  0  0  0
   -3.0490  -19.7694   -8.5679 H   0  0  0  0  0  0  0  0  0  0  0  0
   -2.7587  -20.5701   -7.0209 H   0  0  0  0  0  0  0  0  0  0  0  0
   -0.9783  -21.9708   -8.0847 H   0  0  0  0  0  0  0  0  0  0  0  0
   -1.2675  -21.1673   -9.6300 H   0  0  0  0  0  0  0  0  0  0  0  0
   -3.6454  -21.9515   -9.5894 H   0  0  0  0  0  0  0  0  0  0  0  0
   -3.3535  -22.7525   -8.0417 H   0  0  0  0  0  0  0  0  0  0  0  0
   -1.5723  -24.1520   -9.1032 H   0  0  0  0  0  0  0  0  0  0  0  0
   -1.8599  -23.3519  -10.6512 H   0  0  0  0  0  0  0  0  0  0  0  0
   -4.2378  -24.1339  -10.6096 H   0  0  0  0  0  0  0  0  0  0  0  0
   -3.9481  -24.9345   -9.0624 H   0  0  0  0  0  0  0  0  0  0  0  0
   -2.1672  -26.3370  -10.1222 H   0  0  0  0  0  0  0  0  0  0  0  0
   -2.4559  -25.5360  -11.6686 H   0  0  0  0  0  0  0  0  0  0  0  0
   -4.8341  -26.3163  -11.6281 H   0  0  0  0  0  0  0  0  0  0  0  0
   -4.5439  -27.1186  -10.0819 H   0  0  0  0  0  0  0  0  0  0  0  0
   -2.7627  -28.5202  -11.1435 H   0  0  0  0  0  0  0  0  0  0  0  0
   -3.0530  -27.7179  -12.6898 H   0  0  0  0  0  0  0  0  0  0  0  0
   -5.4298  -28.4996  -12.6500 H   0  0  0  0  0  0  0  0  0  0  0  0
   -5.1410  -29.3008  -11.1029 H   0  0  0  0  0  0  0  0  0  0  0  0
   -3.3589  -30.7033  -12.1617 H   0  0  0  0  0  0  0  0  0  0  0  0
   -3.6475  -29.9023  -13.7090 H   0  0  0  0  0  0  0  0  0  0  0  0
   -6.0244  -30.6836  -13.6710 H   0  0  0  0  0  0  0  0  0  0  0  0
   -5.7375  -31.4833  -12.1228 H   0  0  0  0  0  0  0  0  0  0  0  0
   -3.9558  -32.8883  -13.1776 H   0  0  0  0  0  0  0  0  0  0  0  0
   -4.2407  -32.0883  -14.7260 H   0  0  0  0  0  0  0  0  0  0  0  0
   -6.6185  -32.8675  -14.6920 H   0  0  0  0  0  0  0  0  0  0  0  0
   -6.3350  -33.6664  -13.1427 H   0  0  0  0  0  0  0  0  0  0  0  0
   -4.5520  -35.0734  -14.1942 H   0  0  0  0  0  0  0  0  0  0  0  0
   -4.8353  -34.2745  -15.7436 H   0  0  0  0  0  0  0  0  0  0  0  0
   -7.2136  -35.0543  -15.7107 H   0  0  0  0  0  0  0  0  0  0  0  0
   -6.9305  -35.8530  -14.1614 H   0  0  0  0  0  0  0  0  0  0  0  0
   -5.1461  -37.2592  -15.2123 H   0  0  0  0  0  0  0  0  0  0  0  0
   -5.4292  -36.4605  -16.7616 H   0  0  0  0  0  0  0  0  0  0  0  0
   -7.8058  -37.2447  -16.7318 H   0  0  0  0  0  0  0  0  0  0  0  0
   -7.5227  -38.0433  -15.1825 H   0  0  0  0  0  0  0  0  0  0  0  0
   -5.7359  -39.4493  -16.2336 H   0  0  0  0  0  0  0  0  0  0  0  0
   -6.0197  -38.6509  -17.7825 H   0  0  0  0  0  0  0  0  0  0  0  0
   -8.3946  -39.4308  -17.7520 H   0  0  0  0  0  0  0  0  0  0  0  0
   -8.1141  -40.2275  -16.2024 H   0  0  0  0  0  0  0  0  0  0  0  0
   -6.3413  -41.6603  -17.2668 H   0  0  0  0  0  0  0  0  0  0  0  0
   -6.6184  -40.8686  -18.8057 H   0  0  0  0  0  0  0  0  0  0  0  0
   -9.0010  -41.6091  -18.7773 H   0  0  0  0  0  0  0  0  0  0  0  0
   -8.7233  -42.4095  -17.2068 H   0  0  0  0  0  0  0  0  0  0  0  0
   -9.5499  -43.6416  -19.7139 H   0  0  0  0  0  0  0  0  0  0  0  0
   -9.2732  -44.4577  -18.1532 H   0  0  0  0  0  0  0  0  0  0  0  0
   -7.4708  -45.8438  -19.2124 H   0  0  0  0  0  0  0  0  0  0  0  0
   -7.7678  -45.0395  -20.7496 H   0  0  0  0  0  0  0  0  0  0  0  0
   -9.8379  -46.6718  -19.1838 H   0  0  0  0  0  0  0  0  0  0  0  0
   -8.9602  -47.2304  -20.6335 H   0  0  0  0  0  0  0  0  0  0  0  0
  -11.8672  -46.8886  -20.2524 H   0  0  0  0  0  0  0  0  0  0  0  0
  -11.0483  -47.4800  -21.7228 H   0  0  0  0  0  0  0  0  0  0  0  0
  -11.9879  -45.5254  -22.9983 H   0  0  0  0  0  0  0  0  0  0  0  0
  -12.8185  -44.9901  -21.5425 H   0  0  0  0  0  0  0  0  0  0  0  0
  -13.2332  -47.6989  -22.9188 H   0  0  0  0  0  0  0  0  0  0  0  0
  -14.3370  -46.3039  -23.0299 H   0  0  0  0  0  0  0  0  0  0  0  0
  -14.8768  -49.0086  -21.9662 H   0  0  0  0  0  0  0  0  0  0  0  0
  -16.0411  -47.6610  -22.0759 H   0  0  0  0  0  0  0  0  0  0  0  0
  -16.2740  -47.6938  -19.5696 H   0  0  0  0  0  0  0  0  0  0  0  0
  -15.1550  -49.0490  -19.4959 H   0  0  0  0  0  0  0  0  0  0  0  0
  -17.8240  -49.0462  -21.0030 H   0  0  0  0  0  0  0  0  0  0  0  0
  -17.5308  -49.8226  -19.4253 H   0  0  0  0  0  0  0  0  0  0  0  0
  -18.3608  -51.0580  -21.9822 H   0  0  0  0  0  0  0  0  0  0  0  0
  -18.1203  -51.9011  -20.4279 H   0  0  0  0  0  0  0  0  0  0  0  0
  -16.2940  -53.2706  -21.4904 H   0  0  0  0  0  0  0  0  0  0  0  0
  -16.5912  -52.4566  -23.0210 H   0  0  0  0  0  0  0  0  0  0  0  0
  -18.6570  -54.1044  -21.4664 H   0  0  0  0  0  0  0  0  0  0  0  0
  -17.7670  -54.6598  -22.9066 H   0  0  0  0  0  0  0  0  0  0  0  0
  -20.6826  -54.3474  -22.5356 H   0  0  0  0  0  0  0  0  0  0  0  0
  -19.8646  -54.9404  -24.0062 H   0  0  0  0  0  0  0  0  0  0  0  0
  -20.8013  -52.9776  -25.2810 H   0  0  0  0  0  0  0  0  0  0  0  0
  -21.6351  -52.4502  -23.8250 H   0  0  0  0  0  0  0  0  0  0  0  0
  -22.0449  -55.1549  -25.2072 H   0  0  0  0  0  0  0  0  0  0  0  0
  -23.1528  -53.7614  -25.3145 H   0  0  0  0  0  0  0  0  0  0  0  0
  -23.6708  -56.4672  -24.2477 H   0  0  0  0  0  0  0  0  0  0  0  0
  -24.8439  -55.1273  -24.3530 H   0  0  0  0  0  0  0  0  0  0  0  0
  -25.0715  -55.1692  -21.8459 H   0  0  0  0  0  0  0  0  0  0  0  0
  -23.9478  -56.5215  -21.7805 H   0  0  0  0  0  0  0  0  0  0  0  0
  -26.6209  -56.5179  -23.2817 H   0  0  0  0  0  0  0  0  0  0  0  0
  -26.3207  -57.3011  -21.7094 H   0  0  0  0  0  0  0  0  0  0  0  0
  -27.1647  -58.5342  -24.2615 H   0  0  0  0  0  0  0  0  0  0  0  0
  -26.9136  -59.3776  -22.7092 H   0  0  0  0  0  0  0  0  0  0  0  0
  -25.0864  -60.7420  -23.7807 H   0  0  0  0  0  0  0  0  0  0  0  0
  -25.3912  -59.9240  -25.3075 H   0  0  0  0  0  0  0  0  0  0  0  0
  -27.4459  -61.5868  -23.7547 H   0  0  0  0  0  0  0  0  0  0  0  0
  -26.5652  -62.1253  -25.2086 H   0  0  0  0  0  0  0  0  0  0  0  0
  -29.4800  -61.8189  -24.8230 H   0  0  0  0  0  0  0  0  0  0  0  0
  -28.6570  -62.3938  -26.2985 H   0  0  0  0  0  0  0  0  0  0  0  0
  -29.6117  -60.4358  -27.5592 H   0  0  0  0  0  0  0  0  0  0  0  0
  -30.4456  -59.9189  -26.1003 H   0  0  0  0  0  0  0  0  0  0  0  0
  -30.8439  -62.6165  -27.5052 H   0  0  0  0  0  0  0  0  0  0  0  0
  -31.9594  -61.2283  -27.5930 H   0  0  0  0  0  0  0  0  0  0  0  0
  -32.4942  -63.9586  -26.5499 H   0  0  0  0  0  0  0  0  0  0  0  0
  -33.6517  -62.6030  -26.6518 H   0  0  0  0  0  0  0  0  0  0  0  0
  -33.8946  -62.6573  -24.1546 H   0  0  0  0  0  0  0  0  0  0  0  0
  -32.7721  -64.0001  -24.0673 H   0  0  0  0  0  0  0  0  0  0  0  0
  -35.4427  -64.0327  -25.5832 H   0  0  0  0  0  0  0  0  0  0  0  0
  -35.1270  -64.8183  -24.0252 H   0  0  0  0  0  0  0  0  0  0  0  0
  -34.3085  -65.3921  -25.4901 H   0  0  0  0  0  0  0  0  0  0  0  0
  1  2  1  0  0  0  0
  1 80  1  0  0  0  0
  2  3  1  0  0  0  0
  2  5  1  0  0  0  0
  3  4  1  0  0  0  0
  3 81  1  0  0  0  0
  3 82  1  0  0  0  0
  4  5  1  0  0  0  0
  4 83  1  0  0  0  0
  4 84  1  0  0  0  0
  5  6  1  0  0  0  0
  5 85  1  0  0  0  0
  6  7  1  0  0  0  0
  7  8  1  0  0  0  0
  8  9  1  0  0  0  0
  9 10  1  0  0  0  0
  9 86  1  0  0  0  0
  9 87  1  0  0  0  0
 10 11  1  0  0  0  0
 10 88  1  0  0  0  0
 10 89  1  0  0  0  0
 11 12  1  0  0  0  0
 11 90  1  0  0  0  0
 11 91  1  0  0  0  0
 12 13  1  0  0  0  0
 12 92  1  0  0  0  0
 12 93  1  0  0  0  0
 13 14  1  0  0  0  0
 13 94  1  0  0  0  0
 13 95  1  0  0  0  0
 14 15  1  0  0  0  0
 14 96  1  0  0  0  0
 14 97  1  0  0  0  0
 15 16  1  0  0  0  0
 15 98  1  0  0  0  0
 15 99  1  0  0  0  0
 16 17  1  0  0  0  0
 16100  1  0  0  0  0
 16101  1  0  0  0  0
 17 18  1  0  0  0  0
 17102  1  0  0  0  0
 17103  1  0  0  0  0
 18 19  1  0  0  0  0
 18104  1  0  0  0  0
 18105  1  0  0  0  0
 19 20  1  0  0  0  0
 19106  1  0  0  0  0
 19107  1  0  0  0  0
 20 21  1  0  0  0  0
 20108  1  0  0  0  0
 20109  1  0  0  0  0
 21 22  1  0  0  0  0
 21110  1  0  0  0  0
 21111  1  0  0  0  0
 22 23  1  0  0  0  0
 22112  1  0  0  0  0
 22113  1  0  0  0  0
 23 24  1  0  0  0  0
 23114  1  0  0  0  0
 23115  1  0  0  0  0
 24 25  1  0  0  0  0
 24116  1  0  0  0  0
 24117  1  0  0  0  0
 25 26  1  0  0  0  0
 25118  1  0  0  0  0
 25119  1  0  0  0  0
 26 27  1  0  0  0  0
 26120  1  0  0  0  0
 26121  1  0  0  0  0
 27 28  1  0  0  0  0
 27122  1  0  0  0  0
 27123  1  0  0  0  0
 28 29  1  0  0  0  0
 28124  1  0  0  0  0
 28125  1  0  0  0  0
 29 30  1  0  0  0  0
 29126  1  0  0  0  0
 29127  1  0  0  0  0
 30 31  1  0  0  0  0
 30128  1  0  0  0  0
 30129  1  0  0  0  0
 31 32  1  0  0  0  0
 31130  1  0  0  0  0
 31131  1  0  0  0  0
 32 33  1  0  0  0  0
 32132  1  0  0  0  0
 32133  1  0  0  0  0
 33 34  1  0  0  0  0
 33134  1  0  0  0  0
 33135  1  0  0  0  0
 34 35  1  0  0  0  0
 34136  1  0  0  0  0
 34137  1  0  0  0  0
 35 36  1  0  0  0  0
 35138  1  0  0  0  0
 35139  1  0  0  0  0
 36 37  1  0  0  0  0
 36140  1  0  0  0  0
 36141  1  0  0  0  0
 37 38  1  0  0  0  0
 37142  1  0  0  0  0
 37143  1  0  0  0  0
 38 39  1  0  0  0  0
 38144  1  0  0  0  0
 38145  1  0  0  0  0
 39 40  1  0  0  0  0
 39146  1  0  0  0  0
 39147  1  0  0  0  0
 40 41  1  0  0  0  0
 40148  1  0  0  0  0
 40149  1  0  0  0  0
 41 42  1  0  0  0  0
 41150  1  0  0  0  0
 41151  1  0  0  0  0
 42 43  1  0  0  0  0
 42152  1  0  0  0  0
 42153  1  0  0  0  0
 43 44  1  0  0  0  0
 43154  1  0  0  0  0
 43155  1  0  0  0  0
 44 45  1  0  0  0  0
 45 46  1  0  0  0  0
 45156  1  0  0  0  0
 45157  1  0  0  0  0
 46 47  1  0  0  0  0
 46158  1  0  0  0  0
 46159  1  0  0  0  0
 47 48  1  0  0  0  0
 47160  1  0  0  0  0
 47161  1  0  0  0  0
 48 49  1  0  0  0  0
 49 50  1  0  0  0  0
 49162  1  0  0  0  0
 49163  1  0  0  0  0
 50 51  1  0  0  0  0
 50164  1  0  0  0  0
 50165  1  0  0  0  0
 51 52  1  0  0  0  0
 51166  1  0  0  0  0
 51167  1  0  0  0  0
 52 53  1  0  0  0  0
 53 54  1  0  0  0  0
 53168  1  0  0  0  0
 53169  1  0  0  0  0
 54 55  1  0  0  0  0
 54170  1  0  0  0  0
 54171  1  0  0  0  0
 55 56  1  0  0  0  0
 55172  1  0  0  0  0
 55173  1  0  0  0  0
 56 57  1  0  0  0  0
 57 58  1  0  0  0  0
 57174  1  0  0  0  0
 57175  1  0  0  0  0
 58 59  1  0  0  0  0
 58176  1  0  0  0  0
 58177  1  0  0  0  0
 59 60  1  0  0  0  0
 59178  1  0  0  0  0
 59179  1  0  0  0  0
 60 61  1  0  0  0  0
 61 62  1  0  0  0  0
 61180  1  0  0  0  0
 61181  1  0  0  0  0
 62 63  1  0  0  0  0
 62182  1  0  0  0  0
 62183  1  0  0  0  0
 63 64  1  0  0  0  0
 63184  1  0  0  0  0
 63185  1  0  0  0  0
 64 65  1  0  0  0  0
 65 66  1  0  0  0  0
 65186  1  0  0  0  0
 65187  1  0  0  0  0
 66 67  1  0  0  0  0
 66188  1  0  0  0  0
 66189  1  0  0  0  0
 67 68  1  0  0  0  0
 67190  1  0  0  0  0
 67191  1  0  0  0  0
 68 69  1  0  0  0  0
 69 70  1  0  0  0  0
 69192  1  0  0  0  0
 69193  1  0  0  0  0
 70 71  1  0  0  0  0
 70194  1  0  0  0  0
 70195  1  0  0  0  0
 71 72  1  0  0  0  0
 71196  1  0  0  0  0
 71197  1  0  0  0  0
 72 73  1  0  0  0  0
 73 74  1  0  0  0  0
 73198  1  0  0  0  0
 73199  1  0  0  0  0
 74 75  1  0  0  0  0
 74200  1  0  0  0  0
 74201  1  0  0  0  0
 75 76  1  0  0  0  0
 75202  1  0  0  0  0
 75203  1  0  0  0  0
 76 77  1  0  0  0  0
 77 78  1  0  0  0  0
 77204  1  0  0  0  0
 77205  1  0  0  0  0
 78 79  1  0  0  0  0
 78206  1  0  0  0  0
 78207  1  0  0  0  0
 79208  1  0  0  0  0
 79209  1  0  0  0  0
 79210  1  0  0  0  0
M  END
$$$$
