
 OpenBabel04232216573D

193192  0  0  0  0  0  0  0  0999 V2000
    1.0821    0.0608   -0.0257 C   0  0  0  0  0  0  0  0  0  0  0  0
    2.8747    0.2216    0.1126 S   0  0  0  0  0  0  0  0  0  0  0  0
    3.3703   -1.1614   -0.9641 C   0  0  0  0  0  0  0  0  0  0  0  0
    4.8938   -1.2231   -1.0045 C   0  0  0  0  0  0  0  0  0  0  0  0
    5.3908   -2.3629   -1.8903 C   0  0  0  0  0  0  0  0  0  0  0  0
    6.9210   -2.3843   -1.8989 C   0  0  0  0  0  0  0  0  0  0  0  0
    7.4461   -3.5137   -2.7750 C   0  0  0  0  0  0  0  0  0  0  0  0
    8.9688   -3.5227   -2.7733 C   0  0  0  0  0  0  0  0  0  0  0  0
    9.4910   -4.6509   -3.6498 C   0  0  0  0  0  0  0  0  0  0  0  0
   11.0135   -4.6611   -3.6552 C   0  0  0  0  0  0  0  0  0  0  0  0
   11.5271   -5.7919   -4.5228 C   0  0  0  0  0  0  0  0  0  0  0  0
   13.0477   -5.8063   -4.5230 C   0  0  0  0  0  0  0  0  0  0  0  0
   13.5620   -6.9299   -5.3954 C   0  0  0  0  0  0  0  0  0  0  0  0
   15.0761   -6.9395   -5.4026 C   0  0  0  0  0  0  0  0  0  0  0  0
   15.5941   -8.0659   -6.2790 C   0  0  0  0  0  0  0  0  0  0  0  0
   17.1115   -8.0735   -6.2831 C   0  0  0  0  0  0  0  0  0  0  0  0
   17.6217   -9.2052   -7.1512 C   0  0  0  0  0  0  0  0  0  0  0  0
   19.1414   -9.2169   -7.1496 C   0  0  0  0  0  0  0  0  0  0  0  0
   19.6520  -10.3501   -8.0215 C   0  0  0  0  0  0  0  0  0  0  0  0
   21.1695  -10.3563   -8.0264 C   0  0  0  0  0  0  0  0  0  0  0  0
   21.6813  -11.4895   -8.8969 C   0  0  0  0  0  0  0  0  0  0  0  0
   23.1996  -11.4963   -8.8971 C   0  0  0  0  0  0  0  0  0  0  0  0
   23.7139  -12.6284   -9.7680 C   0  0  0  0  0  0  0  0  0  0  0  0
   25.2322  -12.6343   -9.7705 C   0  0  0  0  0  0  0  0  0  0  0  0
   25.7470  -13.7687  -10.6397 C   0  0  0  0  0  0  0  0  0  0  0  0
   27.2664  -13.7741  -10.6450 C   0  0  0  0  0  0  0  0  0  0  0  0
   27.7821  -14.9112  -11.5142 C   0  0  0  0  0  0  0  0  0  0  0  0
   29.3009  -14.9206  -11.5218 C   0  0  0  0  0  0  0  0  0  0  0  0
   29.8134  -16.0601  -12.3969 C   0  0  0  0  0  0  0  0  0  0  0  0
   31.3327  -16.0798  -12.4060 C   0  0  0  0  0  0  0  0  0  0  0  0
   31.8484  -17.2258  -13.2723 C   0  0  0  0  0  0  0  0  0  0  0  0
   33.3738  -17.2467  -13.2613 C   0  0  0  0  0  0  0  0  0  0  0  0
   33.9230  -18.4059  -14.0811 C   0  0  0  0  0  0  0  0  0  0  0  0
   35.7452  -18.4160  -14.1924 S   0  0  0  0  0  0  0  0  0  0  0  0
   36.1931  -18.5270  -12.4385 C   0  0  0  0  0  0  0  0  0  0  0  0
   37.9972  -18.4228  -12.1898 S   0  0  0  0  0  0  0  0  0  0  0  0
   38.3238  -16.7289  -12.7817 C   0  0  0  0  0  0  0  0  0  0  0  0
   37.5801  -15.4738  -11.6942 S   0  0  0  0  0  0  0  0  0  0  0  0
   38.0460  -13.9549  -12.5479 C   0  0  0  0  0  0  0  0  0  0  0  0
   37.5075  -13.7557  -14.2664 S   0  0  0  0  0  0  0  0  0  0  0  0
   35.7351  -14.0846  -14.0972 C   0  0  0  0  0  0  0  0  0  0  0  0
   34.8607  -13.9198  -15.6934 S   0  0  0  0  0  0  0  0  0  0  0  0
   35.6957  -15.2342  -16.6311 C   0  0  0  0  0  0  0  0  0  0  0  0
   35.0232  -15.4367  -18.3150 S   0  0  0  0  0  0  0  0  0  0  0  0
   35.4419  -13.8133  -19.0178 C   0  0  0  0  0  0  0  0  0  0  0  0
   34.9963  -13.6841  -20.7826 S   0  0  0  0  0  0  0  0  0  0  0  0
   33.1991  -13.9372  -20.6838 C   0  0  0  0  0  0  0  0  0  0  0  0
   32.3757  -13.7473  -22.2947 S   0  0  0  0  0  0  0  0  0  0  0  0
   33.1427  -15.1037  -23.2386 C   0  0  0  0  0  0  0  0  0  0  0  0
   32.4545  -15.2688  -24.9151 S   0  0  0  0  0  0  0  0  0  0  0  0
   32.9032  -13.6550  -25.6208 C   0  0  0  0  0  0  0  0  0  0  0  0
   32.4719  -13.5267  -27.3797 S   0  0  0  0  0  0  0  0  0  0  0  0
   30.6749  -13.7901  -27.2920 C   0  0  0  0  0  0  0  0  0  0  0  0
   29.8676  -13.5933  -28.9161 S   0  0  0  0  0  0  0  0  0  0  0  0
   30.6235  -14.9748  -29.8253 C   0  0  0  0  0  0  0  0  0  0  0  0
   29.9467  -15.1584  -31.5005 S   0  0  0  0  0  0  0  0  0  0  0  0
   30.3532  -13.5267  -32.1934 C   0  0  0  0  0  0  0  0  0  0  0  0
   29.9080  -13.4064  -33.9613 S   0  0  0  0  0  0  0  0  0  0  0  0
   28.1085  -13.6027  -33.8370 C   0  0  0  0  0  0  0  0  0  0  0  0
   27.2892  -13.3907  -35.4429 S   0  0  0  0  0  0  0  0  0  0  0  0
   28.0841  -14.7201  -36.3970 C   0  0  0  0  0  0  0  0  0  0  0  0
   27.3903  -14.8884  -38.0703 S   0  0  0  0  0  0  0  0  0  0  0  0
   27.8363  -13.2766  -38.7836 C   0  0  0  0  0  0  0  0  0  0  0  0
   27.4035  -13.1452  -40.5429 S   0  0  0  0  0  0  0  0  0  0  0  0
   25.6028  -13.3799  -40.4556 C   0  0  0  0  0  0  0  0  0  0  0  0
   24.7897  -13.1409  -42.0755 S   0  0  0  0  0  0  0  0  0  0  0  0
   25.5346  -14.5075  -43.0168 C   0  0  0  0  0  0  0  0  0  0  0  0
   24.7942  -14.6901  -44.6641 S   0  0  0  0  0  0  0  0  0  0  0  0
   25.2135  -13.0771  -45.3826 C   0  0  0  0  0  0  0  0  0  0  0  0
   24.7650  -12.9951  -47.1473 S   0  0  0  0  0  0  0  0  0  0  0  0
   22.9440  -13.1020  -47.0330 C   0  0  0  0  0  0  0  0  0  0  0  0
   22.2279  -12.9440  -48.7142 S   0  0  0  0  0  0  0  0  0  0  0  0
   20.4546  -13.1467  -48.3471 C   0  0  0  0  0  0  0  0  0  0  0  0
   19.7960  -11.7355  -47.4076 S   0  0  0  0  0  0  0  0  0  0  0  0
   18.0519  -12.2020  -47.2605 C   0  0  0  0  0  0  0  0  0  0  0  0
   17.6966  -13.7726  -46.4133 S   0  0  0  0  0  0  0  0  0  0  0  0
   18.4904  -13.5091  -44.7944 C   0  0  0  0  0  0  0  0  0  0  0  0
   17.7132  -12.1656  -43.8513 S   0  0  0  0  0  0  0  0  0  0  0  0
   18.7439  -12.1662  -42.3551 C   0  0  0  0  0  0  0  0  0  0  0  0
   20.4645  -11.6843  -42.6948 S   0  0  0  0  0  0  0  0  0  0  0  0
   21.2936  -11.6771  -40.8180 S   0  0  0  0  0  0  0  0  0  0  0  0
    0.6109    0.8400    0.5792 H   0  0  0  0  0  0  0  0  0  0  0  0
    0.7554   -0.9133    0.3465 H   0  0  0  0  0  0  0  0  0  0  0  0
    0.7655    0.1877   -1.0639 H   0  0  0  0  0  0  0  0  0  0  0  0
    2.9694   -1.0016   -1.9705 H   0  0  0  0  0  0  0  0  0  0  0  0
    2.9621   -2.0967   -0.5672 H   0  0  0  0  0  0  0  0  0  0  0  0
    5.2901   -1.3623    0.0105 H   0  0  0  0  0  0  0  0  0  0  0  0
    5.2971   -0.2748   -1.3847 H   0  0  0  0  0  0  0  0  0  0  0  0
    5.0181   -2.2343   -2.9120 H   0  0  0  0  0  0  0  0  0  0  0  0
    5.0108   -3.3203   -1.5186 H   0  0  0  0  0  0  0  0  0  0  0  0
    7.2950   -2.5090   -0.8759 H   0  0  0  0  0  0  0  0  0  0  0  0
    7.3023   -1.4252   -2.2689 H   0  0  0  0  0  0  0  0  0  0  0  0
    7.0782   -3.3915   -3.8010 H   0  0  0  0  0  0  0  0  0  0  0  0
    7.0703   -4.4763   -2.4073 H   0  0  0  0  0  0  0  0  0  0  0  0
    9.3408   -3.6473   -1.7486 H   0  0  0  0  0  0  0  0  0  0  0  0
    9.3490   -2.5612   -3.1410 H   0  0  0  0  0  0  0  0  0  0  0  0
    9.1202   -4.5290   -4.6744 H   0  0  0  0  0  0  0  0  0  0  0  0
    9.1164   -5.6127   -3.2802 H   0  0  0  0  0  0  0  0  0  0  0  0
   11.3861   -4.7778   -2.6278 H   0  0  0  0  0  0  0  0  0  0  0  0
   11.3901   -3.6988   -4.0265 H   0  0  0  0  0  0  0  0  0  0  0  0
   11.1574   -5.6695   -5.5517 H   0  0  0  0  0  0  0  0  0  0  0  0
   11.1486   -6.7501   -4.1538 H   0  0  0  0  0  0  0  0  0  0  0  0
   13.4185   -5.9262   -3.4973 H   0  0  0  0  0  0  0  0  0  0  0  0
   13.4267   -4.8440   -4.8908 H   0  0  0  0  0  0  0  0  0  0  0  0
   13.1874   -6.8066   -6.4261 H   0  0  0  0  0  0  0  0  0  0  0  0
   13.1838   -7.8939   -5.0405 H   0  0  0  0  0  0  0  0  0  0  0  0
   15.4514   -7.0609   -4.3748 H   0  0  0  0  0  0  0  0  0  0  0  0
   15.4548   -5.9756   -5.7699 H   0  0  0  0  0  0  0  0  0  0  0  0
   15.2149   -7.9408   -7.3008 H   0  0  0  0  0  0  0  0  0  0  0  0
   15.2168   -9.0257   -5.9088 H   0  0  0  0  0  0  0  0  0  0  0  0
   17.4864   -8.1885   -5.2593 H   0  0  0  0  0  0  0  0  0  0  0  0
   17.4894   -7.1138   -6.6610 H   0  0  0  0  0  0  0  0  0  0  0  0
   17.2523   -9.0885   -8.1772 H   0  0  0  0  0  0  0  0  0  0  0  0
   17.2436  -10.1650   -6.7776 H   0  0  0  0  0  0  0  0  0  0  0  0
   19.5130   -9.3341   -6.1246 H   0  0  0  0  0  0  0  0  0  0  0  0
   19.5222   -8.2582   -7.5225 H   0  0  0  0  0  0  0  0  0  0  0  0
   19.2762  -10.2320   -9.0455 H   0  0  0  0  0  0  0  0  0  0  0  0
   19.2754  -11.3092   -7.6459 H   0  0  0  0  0  0  0  0  0  0  0  0
   21.5461  -10.4714   -7.0025 H   0  0  0  0  0  0  0  0  0  0  0  0
   21.5454   -9.3973   -8.4042 H   0  0  0  0  0  0  0  0  0  0  0  0
   21.3080  -11.3709   -9.9216 H   0  0  0  0  0  0  0  0  0  0  0  0
   21.3030  -12.4490   -8.5229 H   0  0  0  0  0  0  0  0  0  0  0  0
   23.5721  -11.6132   -7.8720 H   0  0  0  0  0  0  0  0  0  0  0  0
   23.5761  -10.5365   -9.2715 H   0  0  0  0  0  0  0  0  0  0  0  0
   23.3397  -12.5091  -10.7922 H   0  0  0  0  0  0  0  0  0  0  0  0
   23.3362  -13.5883   -9.3945 H   0  0  0  0  0  0  0  0  0  0  0  0
   25.6072  -12.7487   -8.7460 H   0  0  0  0  0  0  0  0  0  0  0  0
   25.6074  -11.6752  -10.1481 H   0  0  0  0  0  0  0  0  0  0  0  0
   25.3702  -13.6533  -11.6634 H   0  0  0  0  0  0  0  0  0  0  0  0
   25.3717  -14.7276  -10.2620 H   0  0  0  0  0  0  0  0  0  0  0  0
   27.6413  -13.8885   -9.6206 H   0  0  0  0  0  0  0  0  0  0  0  0
   27.6411  -12.8150  -11.0230 H   0  0  0  0  0  0  0  0  0  0  0  0
   27.4031  -14.7947  -12.5373 H   0  0  0  0  0  0  0  0  0  0  0  0
   27.4033  -15.8673  -11.1348 H   0  0  0  0  0  0  0  0  0  0  0  0
   29.6770  -15.0372  -10.4984 H   0  0  0  0  0  0  0  0  0  0  0  0
   29.6782  -13.9621  -11.8989 H   0  0  0  0  0  0  0  0  0  0  0  0
   29.4343  -15.9387  -13.4173 H   0  0  0  0  0  0  0  0  0  0  0  0
   29.4297  -17.0139  -12.0163 H   0  0  0  0  0  0  0  0  0  0  0  0
   31.7066  -16.1917  -11.3808 H   0  0  0  0  0  0  0  0  0  0  0  0
   31.7147  -15.1242  -12.7857 H   0  0  0  0  0  0  0  0  0  0  0  0
   31.4827  -17.1081  -14.2993 H   0  0  0  0  0  0  0  0  0  0  0  0
   31.4607  -18.1788  -12.8929 H   0  0  0  0  0  0  0  0  0  0  0  0
   33.7021  -17.3136  -12.2197 H   0  0  0  0  0  0  0  0  0  0  0  0
   33.7342  -16.2946  -13.6620 H   0  0  0  0  0  0  0  0  0  0  0  0
   33.5453  -18.3348  -15.1069 H   0  0  0  0  0  0  0  0  0  0  0  0
   33.5866  -19.3664  -13.6764 H   0  0  0  0  0  0  0  0  0  0  0  0
   35.8525  -19.4894  -12.0494 H   0  0  0  0  0  0  0  0  0  0  0  0
   35.7234  -17.7388  -11.8495 H   0  0  0  0  0  0  0  0  0  0  0  0
   37.9780  -16.6256  -13.8117 H   0  0  0  0  0  0  0  0  0  0  0  0
   39.4086  -16.5895  -12.7800 H   0  0  0  0  0  0  0  0  0  0  0  0
   39.1345  -13.8533  -12.5146 H   0  0  0  0  0  0  0  0  0  0  0  0
   37.6353  -13.1184  -11.9739 H   0  0  0  0  0  0  0  0  0  0  0  0
   35.2977  -13.3542  -13.4105 H   0  0  0  0  0  0  0  0  0  0  0  0
   35.5545  -15.0852  -13.7070 H   0  0  0  0  0  0  0  0  0  0  0  0
   35.5339  -16.1833  -16.1193 H   0  0  0  0  0  0  0  0  0  0  0  0
   36.7708  -15.0624  -16.7147 H   0  0  0  0  0  0  0  0  0  0  0  0
   36.5230  -13.6620  -18.9448 H   0  0  0  0  0  0  0  0  0  0  0  0
   34.9395  -13.0061  -18.4802 H   0  0  0  0  0  0  0  0  0  0  0  0
   32.7730  -13.1839  -20.0140 H   0  0  0  0  0  0  0  0  0  0  0  0
   32.9545  -14.9268  -20.2914 H   0  0  0  0  0  0  0  0  0  0  0  0
   32.9605  -16.0473  -22.7151 H   0  0  0  0  0  0  0  0  0  0  0  0
   34.2227  -14.9605  -23.3244 H   0  0  0  0  0  0  0  0  0  0  0  0
   33.9859  -13.5200  -25.5393 H   0  0  0  0  0  0  0  0  0  0  0  0
   32.4099  -12.8405  -25.0858 H   0  0  0  0  0  0  0  0  0  0  0  0
   30.2404  -13.0405  -26.6233 H   0  0  0  0  0  0  0  0  0  0  0  0
   30.4279  -14.7824  -26.9078 H   0  0  0  0  0  0  0  0  0  0  0  0
   30.4295  -15.9073  -29.2873 H   0  0  0  0  0  0  0  0  0  0  0  0
   31.7047  -14.8404  -29.9081 H   0  0  0  0  0  0  0  0  0  0  0  0
   31.4331  -13.3665  -32.1208 H   0  0  0  0  0  0  0  0  0  0  0  0
   29.8436  -12.7201  -31.6614 H   0  0  0  0  0  0  0  0  0  0  0  0
   27.7075  -12.8397  -33.1632 H   0  0  0  0  0  0  0  0  0  0  0  0
   27.8419  -14.5874  -33.4462 H   0  0  0  0  0  0  0  0  0  0  0  0
   27.9168  -15.6718  -35.8830 H   0  0  0  0  0  0  0  0  0  0  0  0
   29.1606  -14.5621  -36.4914 H   0  0  0  0  0  0  0  0  0  0  0  0
   28.9191  -13.1404  -38.7046 H   0  0  0  0  0  0  0  0  0  0  0  0
   27.3451  -12.4614  -38.2471 H   0  0  0  0  0  0  0  0  0  0  0  0
   25.1802  -12.6338  -39.7754 H   0  0  0  0  0  0  0  0  0  0  0  0
   25.3429  -14.3742  -40.0854 H   0  0  0  0  0  0  0  0  0  0  0  0
   25.3639  -15.4449  -42.4786 H   0  0  0  0  0  0  0  0  0  0  0  0
   26.6123  -14.3653  -43.1294 H   0  0  0  0  0  0  0  0  0  0  0  0
   26.2963  -12.9280  -45.3185 H   0  0  0  0  0  0  0  0  0  0  0  0
   24.7199  -12.2569  -44.8558 H   0  0  0  0  0  0  0  0  0  0  0  0
   22.5782  -12.2904  -46.3984 H   0  0  0  0  0  0  0  0  0  0  0  0
   22.6484  -14.0673  -46.6149 H   0  0  0  0  0  0  0  0  0  0  0  0
   20.3061  -14.0906  -47.8177 H   0  0  0  0  0  0  0  0  0  0  0  0
   19.9299  -13.2009  -49.3015 H   0  0  0  0  0  0  0  0  0  0  0  0
   17.6144  -12.2465  -48.2618 H   0  0  0  0  0  0  0  0  0  0  0  0
   17.5316  -11.3944  -46.7360 H   0  0  0  0  0  0  0  0  0  0  0  0
   19.5563  -13.3281  -44.9481 H   0  0  0  0  0  0  0  0  0  0  0  0
   18.3931  -14.4395  -44.2270 H   0  0  0  0  0  0  0  0  0  0  0  0
   18.6992  -13.1509  -41.8805 H   0  0  0  0  0  0  0  0  0  0  0  0
   18.3091  -11.4304  -41.6718 H   0  0  0  0  0  0  0  0  0  0  0  0
   22.5576  -11.3749  -41.1535 H   0  0  0  0  0  0  0  0  0  0  0  0
  1  2  1  0  0  0  0
  1 82  1  0  0  0  0
  1 83  1  0  0  0  0
  1 84  1  0  0  0  0
  2  3  1  0  0  0  0
  3  4  1  0  0  0  0
  3 85  1  0  0  0  0
  3 86  1  0  0  0  0
  4  5  1  0  0  0  0
  4 87  1  0  0  0  0
  4 88  1  0  0  0  0
  5  6  1  0  0  0  0
  5 89  1  0  0  0  0
  5 90  1  0  0  0  0
  6  7  1  0  0  0  0
  6 91  1  0  0  0  0
  6 92  1  0  0  0  0
  7  8  1  0  0  0  0
  7 93  1  0  0  0  0
  7 94  1  0  0  0  0
  8  9  1  0  0  0  0
  8 95  1  0  0  0  0
  8 96  1  0  0  0  0
  9 10  1  0  0  0  0
  9 97  1  0  0  0  0
  9 98  1  0  0  0  0
 10 11  1  0  0  0  0
 10 99  1  0  0  0  0
 10100  1  0  0  0  0
 11 12  1  0  0  0  0
 11101  1  0  0  0  0
 11102  1  0  0  0  0
 12 13  1  0  0  0  0
 12103  1  0  0  0  0
 12104  1  0  0  0  0
 13 14  1  0  0  0  0
 13105  1  0  0  0  0
 13106  1  0  0  0  0
 14 15  1  0  0  0  0
 14107  1  0  0  0  0
 14108  1  0  0  0  0
 15 16  1  0  0  0  0
 15109  1  0  0  0  0
 15110  1  0  0  0  0
 16 17  1  0  0  0  0
 16111  1  0  0  0  0
 16112  1  0  0  0  0
 17 18  1  0  0  0  0
 17113  1  0  0  0  0
 17114  1  0  0  0  0
 18 19  1  0  0  0  0
 18115  1  0  0  0  0
 18116  1  0  0  0  0
 19 20  1  0  0  0  0
 19117  1  0  0  0  0
 19118  1  0  0  0  0
 20 21  1  0  0  0  0
 20119  1  0  0  0  0
 20120  1  0  0  0  0
 21 22  1  0  0  0  0
 21121  1  0  0  0  0
 21122  1  0  0  0  0
 22 23  1  0  0  0  0
 22123  1  0  0  0  0
 22124  1  0  0  0  0
 23 24  1  0  0  0  0
 23125  1  0  0  0  0
 23126  1  0  0  0  0
 24 25  1  0  0  0  0
 24127  1  0  0  0  0
 24128  1  0  0  0  0
 25 26  1  0  0  0  0
 25129  1  0  0  0  0
 25130  1  0  0  0  0
 26 27  1  0  0  0  0
 26131  1  0  0  0  0
 26132  1  0  0  0  0
 27 28  1  0  0  0  0
 27133  1  0  0  0  0
 27134  1  0  0  0  0
 28 29  1  0  0  0  0
 28135  1  0  0  0  0
 28136  1  0  0  0  0
 29 30  1  0  0  0  0
 29137  1  0  0  0  0
 29138  1  0  0  0  0
 30 31  1  0  0  0  0
 30139  1  0  0  0  0
 30140  1  0  0  0  0
 31 32  1  0  0  0  0
 31141  1  0  0  0  0
 31142  1  0  0  0  0
 32 33  1  0  0  0  0
 32143  1  0  0  0  0
 32144  1  0  0  0  0
 33 34  1  0  0  0  0
 33145  1  0  0  0  0
 33146  1  0  0  0  0
 34 35  1  0  0  0  0
 35 36  1  0  0  0  0
 35147  1  0  0  0  0
 35148  1  0  0  0  0
 36 37  1  0  0  0  0
 37 38  1  0  0  0  0
 37149  1  0  0  0  0
 37150  1  0  0  0  0
 38 39  1  0  0  0  0
 39 40  1  0  0  0  0
 39151  1  0  0  0  0
 39152  1  0  0  0  0
 40 41  1  0  0  0  0
 41 42  1  0  0  0  0
 41153  1  0  0  0  0
 41154  1  0  0  0  0
 42 43  1  0  0  0  0
 43 44  1  0  0  0  0
 43155  1  0  0  0  0
 43156  1  0  0  0  0
 44 45  1  0  0  0  0
 45 46  1  0  0  0  0
 45157  1  0  0  0  0
 45158  1  0  0  0  0
 46 47  1  0  0  0  0
 47 48  1  0  0  0  0
 47159  1  0  0  0  0
 47160  1  0  0  0  0
 48 49  1  0  0  0  0
 49 50  1  0  0  0  0
 49161  1  0  0  0  0
 49162  1  0  0  0  0
 50 51  1  0  0  0  0
 51 52  1  0  0  0  0
 51163  1  0  0  0  0
 51164  1  0  0  0  0
 52 53  1  0  0  0  0
 53 54  1  0  0  0  0
 53165  1  0  0  0  0
 53166  1  0  0  0  0
 54 55  1  0  0  0  0
 55 56  1  0  0  0  0
 55167  1  0  0  0  0
 55168  1  0  0  0  0
 56 57  1  0  0  0  0
 57 58  1  0  0  0  0
 57169  1  0  0  0  0
 57170  1  0  0  0  0
 58 59  1  0  0  0  0
 59 60  1  0  0  0  0
 59171  1  0  0  0  0
 59172  1  0  0  0  0
 60 61  1  0  0  0  0
 61 62  1  0  0  0  0
 61173  1  0  0  0  0
 61174  1  0  0  0  0
 62 63  1  0  0  0  0
 63 64  1  0  0  0  0
 63175  1  0  0  0  0
 63176  1  0  0  0  0
 64 65  1  0  0  0  0
 65 66  1  0  0  0  0
 65177  1  0  0  0  0
 65178  1  0  0  0  0
 66 67  1  0  0  0  0
 67 68  1  0  0  0  0
 67179  1  0  0  0  0
 67180  1  0  0  0  0
 68 69  1  0  0  0  0
 69 70  1  0  0  0  0
 69181  1  0  0  0  0
 69182  1  0  0  0  0
 70 71  1  0  0  0  0
 71 72  1  0  0  0  0
 71183  1  0  0  0  0
 71184  1  0  0  0  0
 72 73  1  0  0  0  0
 73 74  1  0  0  0  0
 73185  1  0  0  0  0
 73186  1  0  0  0  0
 74 75  1  0  0  0  0
 75 76  1  0  0  0  0
 75187  1  0  0  0  0
 75188  1  0  0  0  0
 76 77  1  0  0  0  0
 77 78  1  0  0  0  0
 77189  1  0  0  0  0
 77190  1  0  0  0  0
 78 79  1  0  0  0  0
 79 80  1  0  0  0  0
 79191  1  0  0  0  0
 79192  1  0  0  0  0
 80 81  1  0  0  0  0
 81193  1  0  0  0  0
M  END
$$$$
