
 OpenBabel04232216553D

 41 42  0  0  0  0  0  0  0  0999 V2000
    5.9007   -0.5189   -0.4631 C   0  0  0  0  0  0  0  0  0  0  0  0
    6.6894   -0.0439    0.7175 N   0  0  0  0  0  0  0  0  0  0  0  0
    5.9208   -0.1029    1.8724 C   0  0  0  0  0  0  0  0  0  0  0  0
    6.0636   -0.9541    2.7339 O   0  0  0  0  0  0  0  0  0  0  0  0
    4.8637    0.7929    1.9655 N   0  0  0  0  0  0  0  0  0  0  0  0
    5.1311    1.7233    2.8296 C   0  0  0  0  0  0  0  0  0  0  0  0
    4.1659    2.0324    3.9496 C   0  0  0  0  0  0  0  0  0  0  0  0
    2.7142    1.9223    3.5766 C   0  0  0  0  0  0  0  0  0  0  0  0
    6.4681    2.3230    2.9351 C   0  0  0  0  0  0  0  0  0  0  0  0
    7.1065    2.2553    4.1067 C   0  0  0  0  0  0  0  0  0  0  0  0
    8.4553    2.6862    4.1067 C   0  0  0  0  0  0  0  0  0  0  0  0
    9.2219    3.0374    5.1443 C   0  0  0  0  0  0  0  0  0  0  0  0
   10.5667    3.3713    4.7587 C   0  0  0  0  0  0  0  0  0  0  0  0
   10.7195    3.6520    3.4330 F   0  0  0  0  0  0  0  0  0  0  0  0
   11.6298    2.8101    5.3187 C   0  0  0  0  0  0  0  0  0  0  0  0
   12.2342    2.4945    6.5459 N   0  0  0  0  0  0  0  0  0  0  0  0
   13.2768    2.0931    5.9055 C   0  0  0  0  0  0  0  0  0  0  0  0
   12.5054    1.8757    4.6991 C   0  0  0  0  0  0  0  0  0  0  0  0
   12.4092    1.0178    3.6552 C   0  0  0  0  0  0  0  0  0  0  0  0
   11.0577    0.5797    3.1542 C   0  0  0  0  0  0  0  0  0  0  0  0
   10.4739    0.6102    1.9430 C   0  0  0  0  0  0  0  0  0  0  0  0
    9.0686   -0.0113    1.6421 C   0  0  0  0  0  0  0  0  0  0  0  0
    8.1144   -0.0660    0.6566 C   0  0  0  0  0  0  0  0  0  0  0  0
    4.8321   -0.3807   -0.2823 H   0  0  0  0  0  0  0  0  0  0  0  0
    6.0909   -1.5745   -0.5949 H   0  0  0  0  0  0  0  0  0  0  0  0
    6.1965    0.0636   -1.3303 H   0  0  0  0  0  0  0  0  0  0  0  0
    4.3845    3.0130    4.3881 H   0  0  0  0  0  0  0  0  0  0  0  0
    4.3845    1.2772    4.7171 H   0  0  0  0  0  0  0  0  0  0  0  0
    2.4722    2.5733    2.7340 H   0  0  0  0  0  0  0  0  0  0  0  0
    2.1002    2.2027    4.4369 H   0  0  0  0  0  0  0  0  0  0  0  0
    2.4681    0.8916    3.3051 H   0  0  0  0  0  0  0  0  0  0  0  0
    6.9293    2.6821    2.0176 H   0  0  0  0  0  0  0  0  0  0  0  0
    6.6731    1.8326    5.0057 H   0  0  0  0  0  0  0  0  0  0  0  0
    8.8945    2.6647    3.1096 H   0  0  0  0  0  0  0  0  0  0  0  0
    8.9142    2.9728    6.1758 H   0  0  0  0  0  0  0  0  0  0  0  0
   14.2916    1.7716    6.1644 H   0  0  0  0  0  0  0  0  0  0  0  0
   13.2538    0.3632    3.4457 H   0  0  0  0  0  0  0  0  0  0  0  0
   10.4782    0.1498    3.9787 H   0  0  0  0  0  0  0  0  0  0  0  0
   11.0126    1.0162    1.0785 H   0  0  0  0  0  0  0  0  0  0  0  0
    9.7187   -0.7674    1.1200 H   0  0  0  0  0  0  0  0  0  0  0  0
    8.4415   -0.2227   -0.3708 H   0  0  0  0  0  0  0  0  0  0  0  0
  1  2  1  0  0  0  0
  1 24  1  0  0  0  0
  1 25  1  0  0  0  0
  1 26  1  0  0  0  0
  2  3  1  0  0  0  0
  2 23  1  0  0  0  0
  3  4  2  0  0  0  0
  3  5  1  0  0  0  0
  5  6  2  3  0  0  0
  6  7  1  0  0  0  0
  6  9  1  0  0  0  0
  7  8  1  0  0  0  0
  7 27  1  0  0  0  0
  7 28  1  0  0  0  0
  8 29  1  0  0  0  0
  8 30  1  0  0  0  0
  8 31  1  0  0  0  0
  9 10  2  3  0  0  0
  9 32  1  0  0  0  0
 10 11  1  0  0  0  0
 10 33  1  0  0  0  0
 11 12  2  3  0  0  0
 11 34  1  0  0  0  0
 12 13  1  0  0  0  0
 12 35  1  0  0  0  0
 13 14  1  0  0  0  0
 13 15  2  3  0  0  0
 15 16  1  0  0  0  0
 15 18  1  0  0  0  0
 16 17  2  0  0  0  0
 17 18  1  0  0  0  0
 17 36  1  0  0  0  0
 18 19  2  3  0  0  0
 19 20  1  0  0  0  0
 19 37  1  0  0  0  0
 20 21  2  3  0  0  0
 20 38  1  0  0  0  0
 21 22  1  0  0  0  0
 21 39  1  0  0  0  0
 22 23  2  3  0  0  0
 22 40  1  0  0  0  0
 23 41  1  0  0  0  0
M  END
$$$$
