
 OpenBabel04232216393D

 60 61  0  0  0  0  0  0  0  0999 V2000
    2.1520   -0.2663    1.7113 C   0  0  0  0  0  0  0  0  0  0  0  0
    3.3876   -0.5244    1.2391 C   0  0  0  0  0  0  0  0  0  0  0  0
    3.7889   -1.9101    0.9310 C   0  0  0  0  0  0  0  0  0  0  0  0
    4.9140   -2.2959    0.2609 C   0  0  0  0  0  0  0  0  0  0  0  0
    5.6472   -1.4150   -0.7790 C   0  0  0  0  0  0  0  0  0  0  0  0
    6.9195   -1.7197   -1.6196 C   0  0  0  0  0  0  0  0  0  0  0  0
    6.7584   -1.8206   -3.1696 C   0  0  0  0  0  0  0  0  0  0  0  0
    8.0761   -1.4473   -3.9267 C   0  0  0  0  0  0  0  0  0  0  0  0
    8.5460   -2.3531   -5.0998 C   0  0  0  0  0  0  0  0  0  0  0  0
    8.1099   -1.9723   -6.5280 C   0  0  0  0  0  0  0  0  0  0  0  0
    8.5104   -3.0043   -7.6137 C   0  0  0  0  0  0  0  0  0  0  0  0
   10.0012   -3.2062   -7.8775 C   0  0  0  0  0  0  0  0  0  0  0  0
    5.6477   -3.1092    1.2977 C   0  0  0  0  0  0  0  0  0  0  0  0
    6.8418   -3.5978    1.2041 N   0  0  0  0  0  0  0  0  0  0  0  0
    7.5125   -3.3636    2.4059 C   0  0  0  0  0  0  0  0  0  0  0  0
    7.6748   -4.1439    3.3252 O   0  0  0  0  0  0  0  0  0  0  0  0
    7.9844   -1.8791    2.4707 C   0  0  0  0  0  0  0  0  0  0  0  0
    9.1365   -1.6519    1.5109 C   0  0  0  0  0  0  0  0  0  0  0  0
   10.5345   -1.4411    2.0676 C   0  0  0  0  0  0  0  0  0  0  0  0
    7.0683   -1.0691    2.9502 N   0  0  0  0  0  0  0  0  0  0  0  0
    6.8155    0.1928    2.4282 C   0  0  0  0  0  0  0  0  0  0  0  0
    5.6688    0.5243    1.7574 C   0  0  0  0  0  0  0  0  0  0  0  0
    4.3375    0.5271    1.1185 N   0  0  0  0  0  0  0  0  0  0  0  0
    4.0027    1.5461    0.0227 C   0  0  0  0  0  0  0  0  0  0  0  0
    2.7243    1.3246   -0.8462 C   0  0  0  0  0  0  0  0  0  0  0  0
    2.3454    0.0999   -1.2389 N   0  0  0  0  0  0  0  0  0  0  0  0
    1.1995   -0.0031   -1.8350 N   0  0  0  0  0  0  0  0  0  0  0  0
    0.5164    1.0190   -2.1338 N   0  0  0  0  0  0  0  0  0  0  0  0
    0.9257    2.1898   -1.8694 N   0  0  0  0  0  0  0  0  0  0  0  0
    2.0167    2.4042   -1.2029 N   0  0  0  0  0  0  0  0  0  0  0  0
    1.3884   -1.0268    1.8077 H   0  0  0  0  0  0  0  0  0  0  0  0
    1.8559    0.7507    1.9656 H   0  0  0  0  0  0  0  0  0  0  0  0
    3.3014   -2.5962    1.6310 H   0  0  0  0  0  0  0  0  0  0  0  0
    6.0274   -0.5754   -0.2052 H   0  0  0  0  0  0  0  0  0  0  0  0
    4.8904   -0.9767   -1.4398 H   0  0  0  0  0  0  0  0  0  0  0  0
    7.4644   -2.5798   -1.2272 H   0  0  0  0  0  0  0  0  0  0  0  0
    7.5796   -0.8500   -1.4577 H   0  0  0  0  0  0  0  0  0  0  0  0
    5.9753   -1.1270   -3.5015 H   0  0  0  0  0  0  0  0  0  0  0  0
    6.4271   -2.8317   -3.4210 H   0  0  0  0  0  0  0  0  0  0  0  0
    8.8921   -1.4804   -3.1921 H   0  0  0  0  0  0  0  0  0  0  0  0
    8.0223   -0.4022   -4.2584 H   0  0  0  0  0  0  0  0  0  0  0  0
    8.2771   -3.3926   -4.8886 H   0  0  0  0  0  0  0  0  0  0  0  0
    9.6435   -2.3058   -5.0996 H   0  0  0  0  0  0  0  0  0  0  0  0
    8.5244   -0.9940   -6.8023 H   0  0  0  0  0  0  0  0  0  0  0  0
    7.0187   -1.8749   -6.5567 H   0  0  0  0  0  0  0  0  0  0  0  0
    8.0559   -2.6972   -8.5650 H   0  0  0  0  0  0  0  0  0  0  0  0
    8.0720   -3.9770   -7.3636 H   0  0  0  0  0  0  0  0  0  0  0  0
   10.4681   -2.3039   -8.2854 H   0  0  0  0  0  0  0  0  0  0  0  0
   10.1362   -4.0000   -8.6253 H   0  0  0  0  0  0  0  0  0  0  0  0
   10.5462   -3.5132   -6.9814 H   0  0  0  0  0  0  0  0  0  0  0  0
    5.2161   -3.0289    2.3237 H   0  0  0  0  0  0  0  0  0  0  0  0
    8.8632   -0.8578    0.8129 H   0  0  0  0  0  0  0  0  0  0  0  0
    9.2130   -2.5665    0.9064 H   0  0  0  0  0  0  0  0  0  0  0  0
   10.9373   -0.4965    1.6903 H   0  0  0  0  0  0  0  0  0  0  0  0
   10.6016   -1.4527    3.1568 H   0  0  0  0  0  0  0  0  0  0  0  0
   11.2097   -2.2202    1.6820 H   0  0  0  0  0  0  0  0  0  0  0  0
    7.5797    0.9568    2.6142 H   0  0  0  0  0  0  0  0  0  0  0  0
    5.2920   -0.4341    2.1383 H   0  0  0  0  0  0  0  0  0  0  0  0
    4.8427    1.5973   -0.6794 H   0  0  0  0  0  0  0  0  0  0  0  0
    3.8936    2.5214    0.5073 H   0  0  0  0  0  0  0  0  0  0  0  0
  1  2  2  0  0  0  0
  1 31  1  0  0  0  0
  1 32  1  0  0  0  0
  2  3  1  0  0  0  0
  2 23  1  0  0  0  0
  3  4  2  3  0  0  0
  3 33  1  0  0  0  0
  4  5  1  0  0  0  0
  4 13  1  0  0  0  0
  5  6  1  0  0  0  0
  5 34  1  0  0  0  0
  5 35  1  0  0  0  0
  6  7  1  0  0  0  0
  6 36  1  0  0  0  0
  6 37  1  0  0  0  0
  7  8  1  0  0  0  0
  7 38  1  0  0  0  0
  7 39  1  0  0  0  0
  8  9  1  0  0  0  0
  8 40  1  0  0  0  0
  8 41  1  0  0  0  0
  9 10  1  0  0  0  0
  9 42  1  0  0  0  0
  9 43  1  0  0  0  0
 10 11  1  0  0  0  0
 10 44  1  0  0  0  0
 10 45  1  0  0  0  0
 11 12  1  0  0  0  0
 11 46  1  0  0  0  0
 11 47  1  0  0  0  0
 12 48  1  0  0  0  0
 12 49  1  0  0  0  0
 12 50  1  0  0  0  0
 13 14  2  3  0  0  0
 13 51  1  0  0  0  0
 14 15  1  0  0  0  0
 15 16  2  0  0  0  0
 15 17  1  0  0  0  0
 17 18  1  0  0  0  0
 17 20  2  3  0  0  0
 18 19  1  0  0  0  0
 18 52  1  0  0  0  0
 18 53  1  0  0  0  0
 19 54  1  0  0  0  0
 19 55  1  0  0  0  0
 19 56  1  0  0  0  0
 20 21  1  0  0  0  0
 21 22  2  3  0  0  0
 21 57  1  0  0  0  0
 22 23  1  0  0  0  0
 22 58  1  0  0  0  0
 23 24  1  0  0  0  0
 24 25  1  0  0  0  0
 24 59  1  0  0  0  0
 24 60  1  0  0  0  0
 25 26  1  0  0  0  0
 25 30  2  0  0  0  0
 26 27  2  0  0  0  0
 27 28  1  0  0  0  0
 28 29  2  0  0  0  0
 29 30  1  0  0  0  0
M  END
$$$$
