
 OpenBabel04232216563D

 96 95  0  0  0  0  0  0  0  0999 V2000
    0.8992   -0.0118    0.0114 C   0  0  0  0  0  0  0  0  0  0  0  0
    2.3528   -0.0109    0.0091 N   0  0  0  0  0  0  0  0  0  0  0  0
    2.8376   -1.1508   -0.7564 C   0  0  0  0  0  0  0  0  0  0  0  0
    4.3525   -1.1479   -0.7545 C   0  0  0  0  0  0  0  0  0  0  0  0
    4.8460   -2.3344   -1.5517 C   0  0  0  0  0  0  0  0  0  0  0  0
    6.3446   -2.3318   -1.5500 C   0  0  0  0  0  0  0  0  0  0  0  0
    6.8139   -3.5053   -2.3359 C   0  0  0  0  0  0  0  0  0  0  0  0
    8.1978   -3.3924   -2.2627 O   0  0  0  0  0  0  0  0  0  0  0  0
    8.6095   -4.5048   -3.0073 O   0  0  0  0  0  0  0  0  0  0  0  0
    9.9969   -4.4964   -3.0014 O   0  0  0  0  0  0  0  0  0  0  0  0
   10.4130   -5.5925   -3.7379 O   0  0  0  0  0  0  0  0  0  0  0  0
   11.7943   -5.5546   -3.7123 O   0  0  0  0  0  0  0  0  0  0  0  0
   12.2250   -6.6396   -4.4410 O   0  0  0  0  0  0  0  0  0  0  0  0
   13.5960   -6.5912   -4.4085 O   0  0  0  0  0  0  0  0  0  0  0  0
   14.0068   -7.6796   -5.1395 O   0  0  0  0  0  0  0  0  0  0  0  0
   15.3755   -7.6380   -5.1115 O   0  0  0  0  0  0  0  0  0  0  0  0
   15.7779   -8.7247   -5.8413 O   0  0  0  0  0  0  0  0  0  0  0  0
   17.1436   -8.6851   -5.8147 O   0  0  0  0  0  0  0  0  0  0  0  0
   17.5469   -9.7701   -6.5434 O   0  0  0  0  0  0  0  0  0  0  0  0
   18.9111   -9.7209   -6.5104 O   0  0  0  0  0  0  0  0  0  0  0  0
   19.3108  -10.8033   -7.2373 O   0  0  0  0  0  0  0  0  0  0  0  0
   20.6723  -10.7561   -7.2056 O   0  0  0  0  0  0  0  0  0  0  0  0
   21.0722  -11.8373   -7.9317 O   0  0  0  0  0  0  0  0  0  0  0  0
   22.4347  -11.7881   -7.8987 O   0  0  0  0  0  0  0  0  0  0  0  0
   22.8336  -12.8705   -8.6256 O   0  0  0  0  0  0  0  0  0  0  0  0
   24.1956  -12.8216   -8.5927 O   0  0  0  0  0  0  0  0  0  0  0  0
   24.5939  -13.9041   -9.3197 O   0  0  0  0  0  0  0  0  0  0  0  0
   25.9559  -13.8552   -9.2869 O   0  0  0  0  0  0  0  0  0  0  0  0
   26.3541  -14.9375  -10.0137 O   0  0  0  0  0  0  0  0  0  0  0  0
   27.7160  -14.8883   -9.9807 O   0  0  0  0  0  0  0  0  0  0  0  0
   28.1142  -15.9706  -10.7075 O   0  0  0  0  0  0  0  0  0  0  0  0
   29.4761  -15.9214  -10.6745 O   0  0  0  0  0  0  0  0  0  0  0  0
   29.8742  -17.0037  -11.4014 O   0  0  0  0  0  0  0  0  0  0  0  0
   31.2360  -16.9547  -11.3684 O   0  0  0  0  0  0  0  0  0  0  0  0
   31.6342  -18.0369  -12.0952 O   0  0  0  0  0  0  0  0  0  0  0  0
   32.9960  -17.9877  -12.0622 O   0  0  0  0  0  0  0  0  0  0  0  0
   33.3942  -19.0700  -12.7890 O   0  0  0  0  0  0  0  0  0  0  0  0
   34.7560  -19.0209  -12.7560 O   0  0  0  0  0  0  0  0  0  0  0  0
   35.1542  -20.1031  -13.4829 O   0  0  0  0  0  0  0  0  0  0  0  0
   36.5160  -20.0540  -13.4499 O   0  0  0  0  0  0  0  0  0  0  0  0
   36.9142  -21.1363  -14.1767 O   0  0  0  0  0  0  0  0  0  0  0  0
   38.2760  -21.0871  -14.1437 O   0  0  0  0  0  0  0  0  0  0  0  0
   38.6742  -22.1694  -14.8706 O   0  0  0  0  0  0  0  0  0  0  0  0
   40.0360  -22.1203  -14.8376 O   0  0  0  0  0  0  0  0  0  0  0  0
   40.4201  -23.2125  -15.5711 O   0  0  0  0  0  0  0  0  0  0  0  0
   41.7958  -23.1501  -15.5292 O   0  0  0  0  0  0  0  0  0  0  0  0
   42.1928  -24.2354  -16.2580 O   0  0  0  0  0  0  0  0  0  0  0  0
   43.5553  -24.1869  -16.2255 O   0  0  0  0  0  0  0  0  0  0  0  0
   43.9582  -25.2688  -16.9521 O   0  0  0  0  0  0  0  0  0  0  0  0
   45.3161  -25.2261  -16.9234 O   0  0  0  0  0  0  0  0  0  0  0  0
   45.7134  -26.3050  -17.6479 O   0  0  0  0  0  0  0  0  0  0  0  0
   47.0772  -26.2584  -17.6166 O   0  0  0  0  0  0  0  0  0  0  0  0
   47.4842  -27.3373  -18.3412 O   0  0  0  0  0  0  0  0  0  0  0  0
   48.8450  -27.2848  -18.3059 O   0  0  0  0  0  0  0  0  0  0  0  0
   49.2375  -28.3677  -19.0332 O   0  0  0  0  0  0  0  0  0  0  0  0
   50.5977  -28.3208  -19.0017 O   0  0  0  0  0  0  0  0  0  0  0  0
   50.9930  -29.4032  -19.7286 O   0  0  0  0  0  0  0  0  0  0  0  0
   52.3561  -29.3538  -19.6954 O   0  0  0  0  0  0  0  0  0  0  0  0
   52.7523  -30.4394  -20.4245 O   0  0  0  0  0  0  0  0  0  0  0  0
   54.1137  -30.3871  -20.3894 O   0  0  0  0  0  0  0  0  0  0  0  0
   54.5208  -31.4650  -21.1133 O   0  0  0  0  0  0  0  0  0  0  0  0
   55.8884  -31.4065  -21.0740 O   0  0  0  0  0  0  0  0  0  0  0  0
   56.2762  -32.4926  -21.8034 O   0  0  0  0  0  0  0  0  0  0  0  0
   57.6378  -32.4520  -21.7762 O   0  0  0  0  0  0  0  0  0  0  0  0
   58.0349  -33.5346  -22.5032 O   0  0  0  0  0  0  0  0  0  0  0  0
   59.3974  -33.4859  -22.4705 O   0  0  0  0  0  0  0  0  0  0  0  0
   59.7968  -34.5685  -23.1975 O   0  0  0  0  0  0  0  0  0  0  0  0
   61.1598  -34.5203  -23.1652 O   0  0  0  0  0  0  0  0  0  0  0  0
   61.5604  -35.6056  -23.8941 O   0  0  0  0  0  0  0  0  0  0  0  0
   62.9266  -35.5579  -23.8620 O   0  0  0  0  0  0  0  0  0  0  0  0
   63.3272  -36.6404  -24.5890 O   0  0  0  0  0  0  0  0  0  0  0  0
   64.6951  -36.5999  -24.5618 O   0  0  0  0  0  0  0  0  0  0  0  0
   65.1097  -37.6864  -25.2915 O   0  0  0  0  0  0  0  0  0  0  0  0
   66.4831  -37.6393  -25.2598 O   0  0  0  0  0  0  0  0  0  0  0  0
   66.9017  -38.7287  -25.9914 O   0  0  0  0  0  0  0  0  0  0  0  0
   68.2795  -38.6886  -25.9651 O   0  0  0  0  0  0  0  0  0  0  0  0
   68.7020  -39.7853  -26.7025 O   0  0  0  0  0  0  0  0  0  0  0  0
   70.0997  -39.7884  -26.6823 O   0  0  0  0  0  0  0  0  0  0  0  0
   70.5449  -40.9184  -27.4245 O   0  0  0  0  0  0  0  0  0  0  0  0
   71.9697  -40.9091  -27.4600 O   0  0  0  0  0  0  0  0  0  0  0  0
   72.4076  -39.6717  -28.0595 O   0  0  0  0  0  0  0  0  0  0  0  0
    0.5334    0.8442    0.5829 H   0  0  0  0  0  0  0  0  0  0  0  0
    0.5071   -0.9259    0.4688 H   0  0  0  0  0  0  0  0  0  0  0  0
    0.5108    0.0729   -1.0087 H   0  0  0  0  0  0  0  0  0  0  0  0
    2.6964   -0.0705    0.9677 H   0  0  0  0  0  0  0  0  0  0  0  0
    2.4800   -1.0959   -1.7919 H   0  0  0  0  0  0  0  0  0  0  0  0
    2.4765   -2.0908   -0.3211 H   0  0  0  0  0  0  0  0  0  0  0  0
    4.7408   -1.2079    0.2702 H   0  0  0  0  0  0  0  0  0  0  0  0
    4.7392   -0.2211   -1.1973 H   0  0  0  0  0  0  0  0  0  0  0  0
    4.4810   -2.2887   -2.5853 H   0  0  0  0  0  0  0  0  0  0  0  0
    4.4811   -3.2738   -1.1180 H   0  0  0  0  0  0  0  0  0  0  0  0
    6.7538   -2.3891   -0.5326 H   0  0  0  0  0  0  0  0  0  0  0  0
    6.7537   -1.4128   -1.9903 H   0  0  0  0  0  0  0  0  0  0  0  0
    6.5024   -3.4669   -3.3865 H   0  0  0  0  0  0  0  0  0  0  0  0
    6.5050   -4.4620   -1.8980 H   0  0  0  0  0  0  0  0  0  0  0  0
   73.3484  -39.8703  -27.9717 H   0  0  0  0  0  0  0  0  0  0  0  0
  1  2  1  0  0  0  0
  1 82  1  0  0  0  0
  1 83  1  0  0  0  0
  1 84  1  0  0  0  0
  2  3  1  0  0  0  0
  2 85  1  0  0  0  0
  3  4  1  0  0  0  0
  3 86  1  0  0  0  0
  3 87  1  0  0  0  0
  4  5  1  0  0  0  0
  4 88  1  0  0  0  0
  4 89  1  0  0  0  0
  5  6  1  0  0  0  0
  5 90  1  0  0  0  0
  5 91  1  0  0  0  0
  6  7  1  0  0  0  0
  6 92  1  0  0  0  0
  6 93  1  0  0  0  0
  7  8  1  0  0  0  0
  7 94  1  0  0  0  0
  7 95  1  0  0  0  0
  8  9  1  0  0  0  0
  9 10  1  0  0  0  0
 10 11  1  0  0  0  0
 11 12  1  0  0  0  0
 12 13  1  0  0  0  0
 13 14  1  0  0  0  0
 14 15  1  0  0  0  0
 15 16  1  0  0  0  0
 16 17  1  0  0  0  0
 17 18  1  0  0  0  0
 18 19  1  0  0  0  0
 19 20  1  0  0  0  0
 20 21  1  0  0  0  0
 21 22  1  0  0  0  0
 22 23  1  0  0  0  0
 23 24  1  0  0  0  0
 24 25  1  0  0  0  0
 25 26  1  0  0  0  0
 26 27  1  0  0  0  0
 27 28  1  0  0  0  0
 28 29  1  0  0  0  0
 29 30  1  0  0  0  0
 30 31  1  0  0  0  0
 31 32  1  0  0  0  0
 32 33  1  0  0  0  0
 33 34  1  0  0  0  0
 34 35  1  0  0  0  0
 35 36  1  0  0  0  0
 36 37  1  0  0  0  0
 37 38  1  0  0  0  0
 38 39  1  0  0  0  0
 39 40  1  0  0  0  0
 40 41  1  0  0  0  0
 41 42  1  0  0  0  0
 42 43  1  0  0  0  0
 43 44  1  0  0  0  0
 44 45  1  0  0  0  0
 45 46  1  0  0  0  0
 46 47  1  0  0  0  0
 47 48  1  0  0  0  0
 48 49  1  0  0  0  0
 49 50  1  0  0  0  0
 50 51  1  0  0  0  0
 51 52  1  0  0  0  0
 52 53  1  0  0  0  0
 53 54  1  0  0  0  0
 54 55  1  0  0  0  0
 55 56  1  0  0  0  0
 56 57  1  0  0  0  0
 57 58  1  0  0  0  0
 58 59  1  0  0  0  0
 59 60  1  0  0  0  0
 60 61  1  0  0  0  0
 61 62  1  0  0  0  0
 62 63  1  0  0  0  0
 63 64  1  0  0  0  0
 64 65  1  0  0  0  0
 65 66  1  0  0  0  0
 66 67  1  0  0  0  0
 67 68  1  0  0  0  0
 68 69  1  0  0  0  0
 69 70  1  0  0  0  0
 70 71  1  0  0  0  0
 71 72  1  0  0  0  0
 72 73  1  0  0  0  0
 73 74  1  0  0  0  0
 74 75  1  0  0  0  0
 75 76  1  0  0  0  0
 76 77  1  0  0  0  0
 77 78  1  0  0  0  0
 78 79  1  0  0  0  0
 79 80  1  0  0  0  0
 80 81  1  0  0  0  0
 81 96  1  0  0  0  0
M  END
$$$$
