
 OpenBabel04232216473D

 64 67  0  0  1  0  0  0  0  0999 V2000
    2.9638    0.7187    0.1296 C   0  0  0  0  0  0  0  0  0  0  0  0
    4.5096    0.5397    0.0116 C   0  0  0  0  0  0  0  0  0  0  0  0
    4.9736   -0.7112    0.5893 C   0  0  0  0  0  0  0  0  0  0  0  0
    5.5026   -1.4149   -0.4171 C   0  0  0  0  0  0  0  0  0  0  0  0
    6.0787   -2.6460   -0.4883 N   0  0  0  0  0  0  0  0  0  0  0  0
    5.0691   -3.7625   -0.8637 C   0  0  0  0  0  0  0  0  0  0  0  0
    4.7504   -4.1849   -2.3641 C   0  0  0  0  0  0  0  0  0  0  0  0
    5.3422   -5.5160   -2.8826 C   0  0  0  0  0  0  0  0  0  0  0  0
    6.6239   -5.2671   -3.7052 C   0  0  0  0  0  0  0  0  0  0  0  0
    7.4069   -4.2295   -2.9579 C   0  0  0  0  0  0  0  0  0  0  0  0
    8.1259   -2.9317   -3.5710 C   0  0  3  0  0  0  0  0  0  0  0  0
    9.5159   -3.3907   -2.9911 C   0  0  0  0  0  0  0  0  0  0  0  0
   10.9884   -3.1664   -3.1038 C   0  0  0  0  0  0  0  0  0  0  0  0
   11.5669   -3.7746   -1.7709 C   0  0  0  0  0  0  0  0  0  0  0  0
   11.6855   -2.7044   -0.6806 C   0  0  0  0  0  0  0  0  0  0  0  0
   10.5082   -2.3848    0.3475 C   0  0  0  0  0  0  0  0  0  0  0  0
    8.9895   -1.8764    0.0321 C   0  0  0  0  0  0  0  0  0  0  0  0
    7.6615   -2.9015   -0.1407 C   0  0  0  0  0  0  0  0  0  0  0  0
    4.7418   -0.6542   -1.4928 C   0  0  0  0  0  0  0  0  0  0  0  0
    4.0548   -0.6639   -2.5564 N   0  0  0  0  0  0  0  0  0  0  0  0
    4.1711   -1.5548   -3.5799 C   0  0  0  0  0  0  0  0  0  0  0  0
    4.9630   -1.0978   -4.5810 C   0  0  0  0  0  0  0  0  0  0  0  0
    4.3214    0.0694   -5.3482 C   0  0  0  0  0  0  0  0  0  0  0  0
    6.4808   -1.0662   -4.5227 C   0  0  0  0  0  0  0  0  0  0  0  0
    7.2520   -1.4056   -3.4403 C   0  0  0  0  0  0  0  0  0  0  0  0
    7.2934   -0.2583   -2.3252 C   0  0  0  0  0  0  0  0  0  0  0  0
    6.4158    0.8094   -2.0786 C   0  0  0  0  0  0  0  0  0  0  0  0
    5.1251    0.7704   -1.1841 C   0  0  0  0  0  0  0  0  0  0  0  0
    2.6047    0.6721    1.1640 H   0  0  0  0  0  0  0  0  0  0  0  0
    2.4221   -0.0839   -0.4034 H   0  0  0  0  0  0  0  0  0  0  0  0
    2.6225    1.6610   -0.3147 H   0  0  0  0  0  0  0  0  0  0  0  0
    4.7095   -1.1403    1.5513 H   0  0  0  0  0  0  0  0  0  0  0  0
    4.0949   -3.3340   -0.5781 H   0  0  0  0  0  0  0  0  0  0  0  0
    5.2101   -4.6253   -0.2190 H   0  0  0  0  0  0  0  0  0  0  0  0
    5.0802   -3.4402   -3.0789 H   0  0  0  0  0  0  0  0  0  0  0  0
    3.6641   -4.2513   -2.4970 H   0  0  0  0  0  0  0  0  0  0  0  0
    4.6319   -6.0305   -3.5399 H   0  0  0  0  0  0  0  0  0  0  0  0
    5.5365   -6.1784   -2.0321 H   0  0  0  0  0  0  0  0  0  0  0  0
    6.4282   -4.9578   -4.7305 H   0  0  0  0  0  0  0  0  0  0  0  0
    7.1945   -6.2093   -3.7446 H   0  0  0  0  0  0  0  0  0  0  0  0
    8.0410   -4.8669   -2.3040 H   0  0  0  0  0  0  0  0  0  0  0  0
    6.7970   -3.8239   -2.2092 H   0  0  0  0  0  0  0  0  0  0  0  0
    8.1867   -3.0877   -4.6545 H   0  0  0  0  0  0  0  0  0  0  0  0
    9.5538   -4.4538   -3.3059 H   0  0  0  0  0  0  0  0  0  0  0  0
    9.3951   -3.4259   -1.9211 H   0  0  0  0  0  0  0  0  0  0  0  0
   11.2671   -2.1272   -3.2395 H   0  0  0  0  0  0  0  0  0  0  0  0
   11.3831   -3.7677   -3.9376 H   0  0  0  0  0  0  0  0  0  0  0  0
   12.5515   -4.2155   -1.9865 H   0  0  0  0  0  0  0  0  0  0  0  0
   10.9810   -4.6216   -1.3737 H   0  0  0  0  0  0  0  0  0  0  0  0
   12.0569   -1.7850   -1.1553 H   0  0  0  0  0  0  0  0  0  0  0  0
   12.5432   -3.0284   -0.0621 H   0  0  0  0  0  0  0  0  0  0  0  0
   10.4970   -3.1524    1.1232 H   0  0  0  0  0  0  0  0  0  0  0  0
   10.9605   -1.5000    0.8375 H   0  0  0  0  0  0  0  0  0  0  0  0
    9.2081   -1.3365   -0.8945 H   0  0  0  0  0  0  0  0  0  0  0  0
    8.7470   -1.1265    0.7933 H   0  0  0  0  0  0  0  0  0  0  0  0
    7.7949   -3.8362    0.3987 H   0  0  0  0  0  0  0  0  0  0  0  0
    7.9281   -3.0837   -1.1338 H   0  0  0  0  0  0  0  0  0  0  0  0
    3.1426   -1.7978   -3.8588 H   0  0  0  0  0  0  0  0  0  0  0  0
    4.4896    1.0140   -4.8078 H   0  0  0  0  0  0  0  0  0  0  0  0
    3.2307   -0.0355   -5.4323 H   0  0  0  0  0  0  0  0  0  0  0  0
    4.7262    0.1792   -6.3543 H   0  0  0  0  0  0  0  0  0  0  0  0
    6.6722   -0.0273   -4.8257 H   0  0  0  0  0  0  0  0  0  0  0  0
    7.6767   -0.6643   -1.4249 H   0  0  0  0  0  0  0  0  0  0  0  0
    6.0810    1.3500   -2.9617 H   0  0  0  0  0  0  0  0  0  0  0  0
  1  2  1  0  0  0  0
  1 29  1  0  0  0  0
  1 30  1  0  0  0  0
  1 31  1  0  0  0  0
  2  3  1  0  0  0  0
  2 28  2  0  0  0  0
  3  4  2  0  0  0  0
  3 32  1  0  0  0  0
  4  5  1  0  0  0  0
  4 19  1  0  0  0  0
  5  6  1  0  0  0  0
  5 18  1  0  0  0  0
  6  7  1  0  0  0  0
  6 33  1  0  0  0  0
  6 34  1  0  0  0  0
  7  8  1  0  0  0  0
  7 35  1  0  0  0  0
  7 36  1  0  0  0  0
  8  9  1  0  0  0  0
  8 37  1  0  0  0  0
  8 38  1  0  0  0  0
  9 10  1  0  0  0  0
  9 39  1  0  0  0  0
  9 40  1  0  0  0  0
 10 11  1  0  0  0  0
 10 41  1  0  0  0  0
 10 42  1  0  0  0  0
 11 12  1  0  0  0  0
 11 25  1  0  0  0  0
 11 43  1  0  0  0  0
 12 13  1  0  0  0  0
 12 44  1  0  0  0  0
 12 45  1  0  0  0  0
 13 14  1  0  0  0  0
 13 46  1  0  0  0  0
 13 47  1  0  0  0  0
 14 15  1  0  0  0  0
 14 48  1  0  0  0  0
 14 49  1  0  0  0  0
 15 16  1  0  0  0  0
 15 50  1  0  0  0  0
 15 51  1  0  0  0  0
 16 17  1  0  0  0  0
 16 52  1  0  0  0  0
 16 53  1  0  0  0  0
 17 18  1  0  0  0  0
 17 54  1  0  0  0  0
 17 55  1  0  0  0  0
 18 56  1  0  0  0  0
 18 57  1  0  0  0  0
 19 20  2  3  0  0  0
 19 28  1  0  0  0  0
 20 21  1  0  0  0  0
 21 22  2  3  0  0  0
 21 58  1  0  0  0  0
 22 23  1  0  0  0  0
 22 24  1  0  0  0  0
 23 59  1  0  0  0  0
 23 60  1  0  0  0  0
 23 61  1  0  0  0  0
 24 25  2  3  0  0  0
 24 62  1  0  0  0  0
 25 26  1  0  0  0  0
 26 27  2  3  0  0  0
 26 63  1  0  0  0  0
 27 28  1  0  0  0  0
 27 64  1  0  0  0  0
M  END
$$$$
