
 OpenBabel04232216413D

230229  0  0  0  0  0  0  0  0999 V2000
    1.5306    0.2557   -0.8600 C   0  0  0  0  0  0  0  0  0  0  0  0
    2.4093   -0.1367    0.0810 C   0  0  0  0  0  0  0  0  0  0  0  0
    3.2026    0.8290    0.9114 C   0  0  0  0  0  0  0  0  0  0  0  0
    4.6453    0.6270    0.7347 N   0  0  0  0  0  0  0  0  0  0  0  0
    5.3440    1.5683    1.5463 N   0  0  0  0  0  0  0  0  0  0  0  0
    6.7357    1.3828    1.3764 N   0  0  0  0  0  0  0  0  0  0  0  0
    7.4461    2.3061    2.1757 N   0  0  0  0  0  0  0  0  0  0  0  0
    8.8415    2.1194    2.0110 N   0  0  0  0  0  0  0  0  0  0  0  0
    9.5596    3.0431    2.8092 N   0  0  0  0  0  0  0  0  0  0  0  0
   10.9493    2.8503    2.6417 N   0  0  0  0  0  0  0  0  0  0  0  0
   11.6603    3.7737    3.4390 N   0  0  0  0  0  0  0  0  0  0  0  0
   13.0524    3.5899    3.2748 N   0  0  0  0  0  0  0  0  0  0  0  0
   13.7559    4.5243    4.0823 N   0  0  0  0  0  0  0  0  0  0  0  0
   15.1837    4.3042    3.8916 C   0  0  0  0  0  0  0  0  0  0  0  0
   15.9507    5.2987    4.7527 C   0  0  0  0  0  0  0  0  0  0  0  0
   17.4482    5.0966    4.5782 C   0  0  0  0  0  0  0  0  0  0  0  0
   18.2152    6.0865    5.4377 C   0  0  0  0  0  0  0  0  0  0  0  0
   19.7090    5.8800    5.2624 C   0  0  0  0  0  0  0  0  0  0  0  0
   20.4731    6.8686    6.1234 C   0  0  0  0  0  0  0  0  0  0  0  0
   21.9656    6.6627    5.9461 C   0  0  0  0  0  0  0  0  0  0  0  0
   22.7286    7.6499    6.8086 C   0  0  0  0  0  0  0  0  0  0  0  0
   24.2207    7.4450    6.6295 C   0  0  0  0  0  0  0  0  0  0  0  0
   24.9833    8.4309    7.4935 C   0  0  0  0  0  0  0  0  0  0  0  0
   26.4752    8.2246    7.3158 C   0  0  0  0  0  0  0  0  0  0  0  0
   27.2378    9.2105    8.1798 C   0  0  0  0  0  0  0  0  0  0  0  0
   28.7297    9.0055    8.0006 C   0  0  0  0  0  0  0  0  0  0  0  0
   29.4922    9.9914    8.8645 C   0  0  0  0  0  0  0  0  0  0  0  0
   30.9841    9.7864    8.6854 C   0  0  0  0  0  0  0  0  0  0  0  0
   31.7466   10.7722    9.5493 C   0  0  0  0  0  0  0  0  0  0  0  0
   33.2385   10.5673    9.3701 C   0  0  0  0  0  0  0  0  0  0  0  0
   34.0010   11.5531   10.2341 C   0  0  0  0  0  0  0  0  0  0  0  0
   35.4929   11.3482   10.0549 C   0  0  0  0  0  0  0  0  0  0  0  0
   36.2555   12.3327   10.9203 C   0  0  0  0  0  0  0  0  0  0  0  0
   37.7473   12.1277   10.7412 C   0  0  0  0  0  0  0  0  0  0  0  0
   38.5099   13.1122   11.6066 C   0  0  0  0  0  0  0  0  0  0  0  0
   40.0017   12.9073   11.4275 C   0  0  0  0  0  0  0  0  0  0  0  0
   40.7643   13.8904   12.2944 C   0  0  0  0  0  0  0  0  0  0  0  0
   42.2561   13.6841   12.1168 C   0  0  0  0  0  0  0  0  0  0  0  0
   43.0187   14.6660   12.9852 C   0  0  0  0  0  0  0  0  0  0  0  0
   44.5105   14.4610   12.8061 C   0  0  0  0  0  0  0  0  0  0  0  0
   45.2731   15.4415   13.6761 C   0  0  0  0  0  0  0  0  0  0  0  0
   46.7649   15.2379   13.4954 C   0  0  0  0  0  0  0  0  0  0  0  0
   47.5275   16.2184   14.3654 C   0  0  0  0  0  0  0  0  0  0  0  0
   49.0194   16.0148   14.1847 C   0  0  0  0  0  0  0  0  0  0  0  0
   49.7819   16.9953   15.0547 C   0  0  0  0  0  0  0  0  0  0  0  0
   51.2738   16.7917   14.8740 C   0  0  0  0  0  0  0  0  0  0  0  0
   52.0363   17.7722   15.7440 C   0  0  0  0  0  0  0  0  0  0  0  0
   53.5282   17.5672   15.5648 C   0  0  0  0  0  0  0  0  0  0  0  0
   54.2907   18.5490   16.4333 C   0  0  0  0  0  0  0  0  0  0  0  0
   55.7826   18.3428   16.2557 C   0  0  0  0  0  0  0  0  0  0  0  0
   56.5451   19.3246   17.1241 C   0  0  0  0  0  0  0  0  0  0  0  0
   58.0370   19.1196   16.9450 C   0  0  0  0  0  0  0  0  0  0  0  0
   58.7995   20.1028   17.8119 C   0  0  0  0  0  0  0  0  0  0  0  0
   60.2914   19.8992   17.6312 C   0  0  0  0  0  0  0  0  0  0  0  0
   61.0539   20.8810   18.4997 C   0  0  0  0  0  0  0  0  0  0  0  0
   62.5458   20.6788   18.3175 C   0  0  0  0  0  0  0  0  0  0  0  0
   63.3084   21.6593   19.1875 C   0  0  0  0  0  0  0  0  0  0  0  0
   64.8002   21.4570   19.0053 C   0  0  0  0  0  0  0  0  0  0  0  0
   65.5628   22.4361   19.8768 C   0  0  0  0  0  0  0  0  0  0  0  0
   67.0546   22.2338   19.6946 C   0  0  0  0  0  0  0  0  0  0  0  0
   67.8172   23.2130   20.5661 C   0  0  0  0  0  0  0  0  0  0  0  0
   69.3090   23.0107   20.3839 C   0  0  0  0  0  0  0  0  0  0  0  0
   70.0716   23.9899   21.2554 C   0  0  0  0  0  0  0  0  0  0  0  0
   71.5635   23.7876   21.0732 C   0  0  0  0  0  0  0  0  0  0  0  0
   72.3260   24.7668   21.9447 C   0  0  0  0  0  0  0  0  0  0  0  0
   73.8179   24.5645   21.7625 C   0  0  0  0  0  0  0  0  0  0  0  0
   74.5804   25.5436   22.6340 C   0  0  0  0  0  0  0  0  0  0  0  0
   76.0723   25.3413   22.4518 C   0  0  0  0  0  0  0  0  0  0  0  0
   76.8348   26.3192   23.3248 C   0  0  0  0  0  0  0  0  0  0  0  0
   78.3267   26.1169   23.1426 C   0  0  0  0  0  0  0  0  0  0  0  0
   79.0893   27.0947   24.0156 C   0  0  0  0  0  0  0  0  0  0  0  0
   80.5812   26.8924   23.8334 C   0  0  0  0  0  0  0  0  0  0  0  0
   81.3438   27.8703   24.7065 C   0  0  0  0  0  0  0  0  0  0  0  0
   82.8360   27.6681   24.5244 C   0  0  0  0  0  0  0  0  0  0  0  0
   83.5990   28.6447   25.3990 C   0  0  0  0  0  0  0  0  0  0  0  0
   85.0917   28.4433   25.2176 C   0  0  0  0  0  0  0  0  0  0  0  0
   85.8558   29.4206   26.0928 C   0  0  0  0  0  0  0  0  0  0  0  0
   87.3504   29.2224   25.9116 C   0  0  0  0  0  0  0  0  0  0  0  0
   88.1231   30.1996   26.7841 C   0  0  0  0  0  0  0  0  0  0  0  0
   89.6135   29.9987   26.6004 C   0  0  0  0  0  0  0  0  0  0  0  0
    0.9900   -0.4817   -1.4349 H   0  0  0  0  0  0  0  0  0  0  0  0
    1.3537    1.3046   -1.0704 H   0  0  0  0  0  0  0  0  0  0  0  0
    2.5263   -1.2055    0.2407 H   0  0  0  0  0  0  0  0  0  0  0  0
    2.9313    0.6790    1.9648 H   0  0  0  0  0  0  0  0  0  0  0  0
    2.9330    1.8603    0.6441 H   0  0  0  0  0  0  0  0  0  0  0  0
    4.8793    0.8121   -0.2408 H   0  0  0  0  0  0  0  0  0  0  0  0
    5.1058    1.4234    2.5272 H   0  0  0  0  0  0  0  0  0  0  0  0
    6.9779    1.5300    0.3985 H   0  0  0  0  0  0  0  0  0  0  0  0
    7.1858    2.1456    3.1456 H   0  0  0  0  0  0  0  0  0  0  0  0
    9.0674    2.2725    1.0305 H   0  0  0  0  0  0  0  0  0  0  0  0
    9.3071    2.8871    3.7838 H   0  0  0  0  0  0  0  0  0  0  0  0
   11.1829    2.9999    1.6615 H   0  0  0  0  0  0  0  0  0  0  0  0
   11.4084    3.6232    4.4143 H   0  0  0  0  0  0  0  0  0  0  0  0
   13.2806    3.7414    2.2929 H   0  0  0  0  0  0  0  0  0  0  0  0
   13.5102    4.3605    5.0581 H   0  0  0  0  0  0  0  0  0  0  0  0
   15.4582    4.4542    2.8396 H   0  0  0  0  0  0  0  0  0  0  0  0
   15.4635    3.2814    4.1745 H   0  0  0  0  0  0  0  0  0  0  0  0
   15.6843    5.1707    5.8097 H   0  0  0  0  0  0  0  0  0  0  0  0
   15.6840    6.3260    4.4722 H   0  0  0  0  0  0  0  0  0  0  0  0
   17.7237    5.2296    3.5247 H   0  0  0  0  0  0  0  0  0  0  0  0
   17.7222    4.0722    4.8592 H   0  0  0  0  0  0  0  0  0  0  0  0
   17.9433    5.9555    6.4923 H   0  0  0  0  0  0  0  0  0  0  0  0
   17.9465    7.1123    5.1570 H   0  0  0  0  0  0  0  0  0  0  0  0
   19.9840    6.0133    4.2089 H   0  0  0  0  0  0  0  0  0  0  0  0
   19.9803    4.8547    5.5427 H   0  0  0  0  0  0  0  0  0  0  0  0
   20.2009    6.7348    7.1776 H   0  0  0  0  0  0  0  0  0  0  0  0
   20.2026    7.8944    5.8447 H   0  0  0  0  0  0  0  0  0  0  0  0
   22.2391    6.7983    4.8925 H   0  0  0  0  0  0  0  0  0  0  0  0
   22.2371    5.6368    6.2239 H   0  0  0  0  0  0  0  0  0  0  0  0
   22.4567    7.5135    7.8625 H   0  0  0  0  0  0  0  0  0  0  0  0
   22.4567    8.6760    6.5320 H   0  0  0  0  0  0  0  0  0  0  0  0
   24.4930    7.5829    5.5759 H   0  0  0  0  0  0  0  0  0  0  0  0
   24.4926    6.4186    6.9049 H   0  0  0  0  0  0  0  0  0  0  0  0
   24.7100    8.2940    8.5470 H   0  0  0  0  0  0  0  0  0  0  0  0
   24.7125    9.4574    7.2172 H   0  0  0  0  0  0  0  0  0  0  0  0
   26.7485    8.3616    6.2623 H   0  0  0  0  0  0  0  0  0  0  0  0
   26.7461    7.1982    7.5921 H   0  0  0  0  0  0  0  0  0  0  0  0
   26.9655    9.0726    9.2334 H   0  0  0  0  0  0  0  0  0  0  0  0
   26.9659   10.2369    7.9045 H   0  0  0  0  0  0  0  0  0  0  0  0
   29.0019    9.1434    6.9470 H   0  0  0  0  0  0  0  0  0  0  0  0
   29.0016    7.9791    8.2759 H   0  0  0  0  0  0  0  0  0  0  0  0
   29.2199    9.8535    9.9182 H   0  0  0  0  0  0  0  0  0  0  0  0
   29.2203   11.0178    8.5892 H   0  0  0  0  0  0  0  0  0  0  0  0
   31.2563    9.9243    7.6317 H   0  0  0  0  0  0  0  0  0  0  0  0
   31.2560    8.7600    8.9607 H   0  0  0  0  0  0  0  0  0  0  0  0
   31.4744   10.6344   10.6029 H   0  0  0  0  0  0  0  0  0  0  0  0
   31.4747   11.7987    9.2740 H   0  0  0  0  0  0  0  0  0  0  0  0
   33.5108   10.7052    8.3165 H   0  0  0  0  0  0  0  0  0  0  0  0
   33.5104    9.5408    9.6454 H   0  0  0  0  0  0  0  0  0  0  0  0
   33.7287   11.4152   11.2877 H   0  0  0  0  0  0  0  0  0  0  0  0
   33.7292   12.5796    9.9588 H   0  0  0  0  0  0  0  0  0  0  0  0
   35.7654   11.4874    9.0015 H   0  0  0  0  0  0  0  0  0  0  0  0
   35.7646   10.3213   10.3289 H   0  0  0  0  0  0  0  0  0  0  0  0
   35.9830   12.1934   11.9737 H   0  0  0  0  0  0  0  0  0  0  0  0
   35.9838   13.3595   10.6464 H   0  0  0  0  0  0  0  0  0  0  0  0
   38.0198   12.2670    9.6878 H   0  0  0  0  0  0  0  0  0  0  0  0
   38.0190   11.1008   11.0151 H   0  0  0  0  0  0  0  0  0  0  0  0
   38.2373   12.9729   12.6600 H   0  0  0  0  0  0  0  0  0  0  0  0
   38.2382   14.1391   11.3327 H   0  0  0  0  0  0  0  0  0  0  0  0
   40.2745   13.0479   10.3743 H   0  0  0  0  0  0  0  0  0  0  0  0
   40.2732   11.8800   11.7000 H   0  0  0  0  0  0  0  0  0  0  0  0
   40.4905   13.7507   13.3474 H   0  0  0  0  0  0  0  0  0  0  0  0
   40.4939   14.9177   12.0209 H   0  0  0  0  0  0  0  0  0  0  0  0
   42.5301   13.8253   11.0640 H   0  0  0  0  0  0  0  0  0  0  0  0
   42.5263   12.6564   12.3889 H   0  0  0  0  0  0  0  0  0  0  0  0
   42.7457   14.5238   14.0381 H   0  0  0  0  0  0  0  0  0  0  0  0
   42.7475   15.6937   12.7141 H   0  0  0  0  0  0  0  0  0  0  0  0
   44.7837   14.6046   11.7534 H   0  0  0  0  0  0  0  0  0  0  0  0
   44.7816   13.4329   13.0759 H   0  0  0  0  0  0  0  0  0  0  0  0
   45.0010   15.2970   14.7288 H   0  0  0  0  0  0  0  0  0  0  0  0
   45.0010   16.4696   13.4072 H   0  0  0  0  0  0  0  0  0  0  0  0
   47.0371   15.3824   12.4426 H   0  0  0  0  0  0  0  0  0  0  0  0
   47.0370   14.2098   13.7642 H   0  0  0  0  0  0  0  0  0  0  0  0
   47.2554   16.0739   15.4182 H   0  0  0  0  0  0  0  0  0  0  0  0
   47.2554   17.2465   14.0966 H   0  0  0  0  0  0  0  0  0  0  0  0
   49.2915   16.1593   13.1319 H   0  0  0  0  0  0  0  0  0  0  0  0
   49.2915   14.9867   14.4535 H   0  0  0  0  0  0  0  0  0  0  0  0
   49.5098   16.8508   16.1075 H   0  0  0  0  0  0  0  0  0  0  0  0
   49.5098   18.0234   14.7859 H   0  0  0  0  0  0  0  0  0  0  0  0
   51.5459   16.9362   13.8212 H   0  0  0  0  0  0  0  0  0  0  0  0
   51.5458   15.7635   15.1428 H   0  0  0  0  0  0  0  0  0  0  0  0
   51.7632   17.6286   16.7966 H   0  0  0  0  0  0  0  0  0  0  0  0
   51.7652   18.8003   15.4742 H   0  0  0  0  0  0  0  0  0  0  0  0
   53.8012   17.7094   14.5119 H   0  0  0  0  0  0  0  0  0  0  0  0
   53.7994   16.5395   15.8360 H   0  0  0  0  0  0  0  0  0  0  0  0
   54.0167   18.4079   17.4861 H   0  0  0  0  0  0  0  0  0  0  0  0
   54.0205   19.5768   16.1612 H   0  0  0  0  0  0  0  0  0  0  0  0
   56.0566   18.4839   15.2029 H   0  0  0  0  0  0  0  0  0  0  0  0
   56.0528   17.3150   16.5278 H   0  0  0  0  0  0  0  0  0  0  0  0
   56.2722   19.1825   18.1770 H   0  0  0  0  0  0  0  0  0  0  0  0
   56.2739   20.3523   16.8529 H   0  0  0  0  0  0  0  0  0  0  0  0
   58.3097   19.2604   15.8918 H   0  0  0  0  0  0  0  0  0  0  0  0
   58.3084   18.0923   17.2175 H   0  0  0  0  0  0  0  0  0  0  0  0
   58.5278   19.9611   18.8652 H   0  0  0  0  0  0  0  0  0  0  0  0
   58.5270   21.1301   17.5404 H   0  0  0  0  0  0  0  0  0  0  0  0
   60.5632   20.0423   16.5782 H   0  0  0  0  0  0  0  0  0  0  0  0
   60.5638   18.8715   17.9015 H   0  0  0  0  0  0  0  0  0  0  0  0
   60.7831   20.7370   19.5529 H   0  0  0  0  0  0  0  0  0  0  0  0
   60.7806   21.9087   18.2305 H   0  0  0  0  0  0  0  0  0  0  0  0
   62.8168   20.8242   17.2646 H   0  0  0  0  0  0  0  0  0  0  0  0
   62.8190   19.6507   18.5854 H   0  0  0  0  0  0  0  0  0  0  0  0
   63.0373   21.5137   20.2404 H   0  0  0  0  0  0  0  0  0  0  0  0
   63.0352   22.6874   18.9197 H   0  0  0  0  0  0  0  0  0  0  0  0
   65.0714   21.6039   17.9526 H   0  0  0  0  0  0  0  0  0  0  0  0
   65.0732   20.4285   19.2718 H   0  0  0  0  0  0  0  0  0  0  0  0
   65.2915   22.2892   20.9295 H   0  0  0  0  0  0  0  0  0  0  0  0
   65.2898   23.4646   19.6103 H   0  0  0  0  0  0  0  0  0  0  0  0
   67.3259   22.3808   18.6419 H   0  0  0  0  0  0  0  0  0  0  0  0
   67.3276   21.2053   19.9611 H   0  0  0  0  0  0  0  0  0  0  0  0
   67.5459   23.0661   21.6188 H   0  0  0  0  0  0  0  0  0  0  0  0
   67.5442   24.2415   20.2997 H   0  0  0  0  0  0  0  0  0  0  0  0
   69.5803   23.1576   19.3312 H   0  0  0  0  0  0  0  0  0  0  0  0
   69.5820   21.9822   20.6504 H   0  0  0  0  0  0  0  0  0  0  0  0
   69.8004   23.8430   22.3081 H   0  0  0  0  0  0  0  0  0  0  0  0
   69.7986   25.0184   20.9890 H   0  0  0  0  0  0  0  0  0  0  0  0
   71.8347   23.9345   20.0205 H   0  0  0  0  0  0  0  0  0  0  0  0
   71.8364   22.7591   21.3397 H   0  0  0  0  0  0  0  0  0  0  0  0
   72.0548   24.6198   22.9974 H   0  0  0  0  0  0  0  0  0  0  0  0
   72.0531   25.7952   21.6783 H   0  0  0  0  0  0  0  0  0  0  0  0
   74.0891   24.7114   20.7098 H   0  0  0  0  0  0  0  0  0  0  0  0
   74.0908   23.5360   22.0290 H   0  0  0  0  0  0  0  0  0  0  0  0
   74.3092   25.3967   23.6867 H   0  0  0  0  0  0  0  0  0  0  0  0
   74.3075   26.5721   22.3676 H   0  0  0  0  0  0  0  0  0  0  0  0
   76.3437   25.4896   21.3994 H   0  0  0  0  0  0  0  0  0  0  0  0
   76.3450   24.3124   22.7169 H   0  0  0  0  0  0  0  0  0  0  0  0
   76.5634   26.1708   24.3772 H   0  0  0  0  0  0  0  0  0  0  0  0
   76.5621   27.3481   23.0597 H   0  0  0  0  0  0  0  0  0  0  0  0
   78.5982   26.2652   22.0902 H   0  0  0  0  0  0  0  0  0  0  0  0
   78.5994   25.0880   23.4077 H   0  0  0  0  0  0  0  0  0  0  0  0
   78.8178   26.9464   25.0681 H   0  0  0  0  0  0  0  0  0  0  0  0
   78.8165   28.1236   23.7505 H   0  0  0  0  0  0  0  0  0  0  0  0
   80.8526   27.0407   22.7810 H   0  0  0  0  0  0  0  0  0  0  0  0
   80.8539   25.8635   24.0985 H   0  0  0  0  0  0  0  0  0  0  0  0
   81.0722   27.7219   25.7589 H   0  0  0  0  0  0  0  0  0  0  0  0
   81.0710   28.8992   24.4414 H   0  0  0  0  0  0  0  0  0  0  0  0
   83.1073   27.8177   23.4721 H   0  0  0  0  0  0  0  0  0  0  0  0
   83.1082   26.6386   24.7880 H   0  0  0  0  0  0  0  0  0  0  0  0
   83.3267   28.4947   26.4510 H   0  0  0  0  0  0  0  0  0  0  0  0
   83.3259   29.6738   25.1351 H   0  0  0  0  0  0  0  0  0  0  0  0
   85.3626   28.5925   24.1650 H   0  0  0  0  0  0  0  0  0  0  0  0
   85.3635   27.4135   25.4808 H   0  0  0  0  0  0  0  0  0  0  0  0
   85.5832   29.2690   27.1445 H   0  0  0  0  0  0  0  0  0  0  0  0
   85.5803   30.4491   25.8293 H   0  0  0  0  0  0  0  0  0  0  0  0
   87.6178   29.3694   24.8577 H   0  0  0  0  0  0  0  0  0  0  0  0
   87.6211   28.1919   26.1736 H   0  0  0  0  0  0  0  0  0  0  0  0
   87.8569   30.0510   27.8370 H   0  0  0  0  0  0  0  0  0  0  0  0
   87.8535   31.2290   26.5206 H   0  0  0  0  0  0  0  0  0  0  0  0
   89.9020   28.9800   26.8785 H   0  0  0  0  0  0  0  0  0  0  0  0
   90.1701   30.7001   27.2266 H   0  0  0  0  0  0  0  0  0  0  0  0
   89.8986   30.1631   25.5563 H   0  0  0  0  0  0  0  0  0  0  0  0
  1  2  2  0  0  0  0
  1 81  1  0  0  0  0
  1 82  1  0  0  0  0
  2  3  1  0  0  0  0
  2 83  1  0  0  0  0
  3  4  1  0  0  0  0
  3 84  1  0  0  0  0
  3 85  1  0  0  0  0
  4  5  1  0  0  0  0
  4 86  1  0  0  0  0
  5  6  1  0  0  0  0
  5 87  1  0  0  0  0
  6  7  1  0  0  0  0
  6 88  1  0  0  0  0
  7  8  1  0  0  0  0
  7 89  1  0  0  0  0
  8  9  1  0  0  0  0
  8 90  1  0  0  0  0
  9 10  1  0  0  0  0
  9 91  1  0  0  0  0
 10 11  1  0  0  0  0
 10 92  1  0  0  0  0
 11 12  1  0  0  0  0
 11 93  1  0  0  0  0
 12 13  1  0  0  0  0
 12 94  1  0  0  0  0
 13 14  1  0  0  0  0
 13 95  1  0  0  0  0
 14 15  1  0  0  0  0
 14 96  1  0  0  0  0
 14 97  1  0  0  0  0
 15 16  1  0  0  0  0
 15 98  1  0  0  0  0
 15 99  1  0  0  0  0
 16 17  1  0  0  0  0
 16100  1  0  0  0  0
 16101  1  0  0  0  0
 17 18  1  0  0  0  0
 17102  1  0  0  0  0
 17103  1  0  0  0  0
 18 19  1  0  0  0  0
 18104  1  0  0  0  0
 18105  1  0  0  0  0
 19 20  1  0  0  0  0
 19106  1  0  0  0  0
 19107  1  0  0  0  0
 20 21  1  0  0  0  0
 20108  1  0  0  0  0
 20109  1  0  0  0  0
 21 22  1  0  0  0  0
 21110  1  0  0  0  0
 21111  1  0  0  0  0
 22 23  1  0  0  0  0
 22112  1  0  0  0  0
 22113  1  0  0  0  0
 23 24  1  0  0  0  0
 23114  1  0  0  0  0
 23115  1  0  0  0  0
 24 25  1  0  0  0  0
 24116  1  0  0  0  0
 24117  1  0  0  0  0
 25 26  1  0  0  0  0
 25118  1  0  0  0  0
 25119  1  0  0  0  0
 26 27  1  0  0  0  0
 26120  1  0  0  0  0
 26121  1  0  0  0  0
 27 28  1  0  0  0  0
 27122  1  0  0  0  0
 27123  1  0  0  0  0
 28 29  1  0  0  0  0
 28124  1  0  0  0  0
 28125  1  0  0  0  0
 29 30  1  0  0  0  0
 29126  1  0  0  0  0
 29127  1  0  0  0  0
 30 31  1  0  0  0  0
 30128  1  0  0  0  0
 30129  1  0  0  0  0
 31 32  1  0  0  0  0
 31130  1  0  0  0  0
 31131  1  0  0  0  0
 32 33  1  0  0  0  0
 32132  1  0  0  0  0
 32133  1  0  0  0  0
 33 34  1  0  0  0  0
 33134  1  0  0  0  0
 33135  1  0  0  0  0
 34 35  1  0  0  0  0
 34136  1  0  0  0  0
 34137  1  0  0  0  0
 35 36  1  0  0  0  0
 35138  1  0  0  0  0
 35139  1  0  0  0  0
 36 37  1  0  0  0  0
 36140  1  0  0  0  0
 36141  1  0  0  0  0
 37 38  1  0  0  0  0
 37142  1  0  0  0  0
 37143  1  0  0  0  0
 38 39  1  0  0  0  0
 38144  1  0  0  0  0
 38145  1  0  0  0  0
 39 40  1  0  0  0  0
 39146  1  0  0  0  0
 39147  1  0  0  0  0
 40 41  1  0  0  0  0
 40148  1  0  0  0  0
 40149  1  0  0  0  0
 41 42  1  0  0  0  0
 41150  1  0  0  0  0
 41151  1  0  0  0  0
 42 43  1  0  0  0  0
 42152  1  0  0  0  0
 42153  1  0  0  0  0
 43 44  1  0  0  0  0
 43154  1  0  0  0  0
 43155  1  0  0  0  0
 44 45  1  0  0  0  0
 44156  1  0  0  0  0
 44157  1  0  0  0  0
 45 46  1  0  0  0  0
 45158  1  0  0  0  0
 45159  1  0  0  0  0
 46 47  1  0  0  0  0
 46160  1  0  0  0  0
 46161  1  0  0  0  0
 47 48  1  0  0  0  0
 47162  1  0  0  0  0
 47163  1  0  0  0  0
 48 49  1  0  0  0  0
 48164  1  0  0  0  0
 48165  1  0  0  0  0
 49 50  1  0  0  0  0
 49166  1  0  0  0  0
 49167  1  0  0  0  0
 50 51  1  0  0  0  0
 50168  1  0  0  0  0
 50169  1  0  0  0  0
 51 52  1  0  0  0  0
 51170  1  0  0  0  0
 51171  1  0  0  0  0
 52 53  1  0  0  0  0
 52172  1  0  0  0  0
 52173  1  0  0  0  0
 53 54  1  0  0  0  0
 53174  1  0  0  0  0
 53175  1  0  0  0  0
 54 55  1  0  0  0  0
 54176  1  0  0  0  0
 54177  1  0  0  0  0
 55 56  1  0  0  0  0
 55178  1  0  0  0  0
 55179  1  0  0  0  0
 56 57  1  0  0  0  0
 56180  1  0  0  0  0
 56181  1  0  0  0  0
 57 58  1  0  0  0  0
 57182  1  0  0  0  0
 57183  1  0  0  0  0
 58 59  1  0  0  0  0
 58184  1  0  0  0  0
 58185  1  0  0  0  0
 59 60  1  0  0  0  0
 59186  1  0  0  0  0
 59187  1  0  0  0  0
 60 61  1  0  0  0  0
 60188  1  0  0  0  0
 60189  1  0  0  0  0
 61 62  1  0  0  0  0
 61190  1  0  0  0  0
 61191  1  0  0  0  0
 62 63  1  0  0  0  0
 62192  1  0  0  0  0
 62193  1  0  0  0  0
 63 64  1  0  0  0  0
 63194  1  0  0  0  0
 63195  1  0  0  0  0
 64 65  1  0  0  0  0
 64196  1  0  0  0  0
 64197  1  0  0  0  0
 65 66  1  0  0  0  0
 65198  1  0  0  0  0
 65199  1  0  0  0  0
 66 67  1  0  0  0  0
 66200  1  0  0  0  0
 66201  1  0  0  0  0
 67 68  1  0  0  0  0
 67202  1  0  0  0  0
 67203  1  0  0  0  0
 68 69  1  0  0  0  0
 68204  1  0  0  0  0
 68205  1  0  0  0  0
 69 70  1  0  0  0  0
 69206  1  0  0  0  0
 69207  1  0  0  0  0
 70 71  1  0  0  0  0
 70208  1  0  0  0  0
 70209  1  0  0  0  0
 71 72  1  0  0  0  0
 71210  1  0  0  0  0
 71211  1  0  0  0  0
 72 73  1  0  0  0  0
 72212  1  0  0  0  0
 72213  1  0  0  0  0
 73 74  1  0  0  0  0
 73214  1  0  0  0  0
 73215  1  0  0  0  0
 74 75  1  0  0  0  0
 74216  1  0  0  0  0
 74217  1  0  0  0  0
 75 76  1  0  0  0  0
 75218  1  0  0  0  0
 75219  1  0  0  0  0
 76 77  1  0  0  0  0
 76220  1  0  0  0  0
 76221  1  0  0  0  0
 77 78  1  0  0  0  0
 77222  1  0  0  0  0
 77223  1  0  0  0  0
 78 79  1  0  0  0  0
 78224  1  0  0  0  0
 78225  1  0  0  0  0
 79 80  1  0  0  0  0
 79226  1  0  0  0  0
 79227  1  0  0  0  0
 80228  1  0  0  0  0
 80229  1  0  0  0  0
 80230  1  0  0  0  0
M  END
$$$$
