
 OpenBabel04232216423D

184183  0  0  0  0  0  0  0  0999 V2000
   24.2379  -15.3707  -26.1571 C   0  0  0  0  0  0  0  0  0  0  0  0
   25.1166  -15.7419  -25.2147 C   0  0  0  0  0  0  0  0  0  0  0  0
   25.2982  -14.9777  -23.9345 C   0  0  0  0  0  0  0  0  0  0  0  0
   26.6753  -14.5048  -23.8025 N   0  0  0  0  0  0  0  0  0  0  0  0
   26.7853  -13.7817  -22.5986 N   0  0  0  0  0  0  0  0  0  0  0  0
   28.1345  -13.3208  -22.4399 N   0  0  0  0  0  0  0  0  0  0  0  0
   28.2643  -12.5999  -21.2356 N   0  0  0  0  0  0  0  0  0  0  0  0
   27.9489  -13.4451  -20.1393 N   0  0  0  0  0  0  0  0  0  0  0  0
   28.8393  -14.5676  -20.1412 N   0  0  0  0  0  0  0  0  0  0  0  0
   30.1997  -14.1171  -20.0158 N   0  0  0  0  0  0  0  0  0  0  0  0
   30.3459  -13.3936  -18.7969 N   0  0  0  0  0  0  0  0  0  0  0  0
   30.0148  -14.2302  -17.6901 N   0  0  0  0  0  0  0  0  0  0  0  0
   30.8694  -15.3666  -17.6803 N   0  0  0  0  0  0  0  0  0  0  0  0
   32.2251  -14.9290  -17.5715 N   0  0  0  0  0  0  0  0  0  0  0  0
   32.4077  -14.1805  -16.3519 N   0  0  0  0  0  0  0  0  0  0  0  0
   32.0777  -14.9880  -15.2201 N   0  0  0  0  0  0  0  0  0  0  0  0
   32.9245  -16.1322  -15.1823 N   0  0  0  0  0  0  0  0  0  0  0  0
   34.2885  -15.7185  -15.1085 N   0  0  0  0  0  0  0  0  0  0  0  0
   34.4851  -14.9509  -13.9208 N   0  0  0  0  0  0  0  0  0  0  0  0
   34.1434  -15.7375  -12.7919 N   0  0  0  0  0  0  0  0  0  0  0  0
   34.9701  -16.9065  -12.7625 N   0  0  0  0  0  0  0  0  0  0  0  0
   36.3495  -16.5292  -12.6878 N   0  0  0  0  0  0  0  0  0  0  0  0
   36.5854  -15.7565  -11.5054 N   0  0  0  0  0  0  0  0  0  0  0  0
   36.2534  -16.5166  -10.3414 N   0  0  0  0  0  0  0  0  0  0  0  0
   37.0367  -17.6979  -10.3087 N   0  0  0  0  0  0  0  0  0  0  0  0
   38.4082  -17.3365  -10.2698 N   0  0  0  0  0  0  0  0  0  0  0  0
   38.6569  -16.5386   -9.1091 N   0  0  0  0  0  0  0  0  0  0  0  0
   38.3157  -17.2898   -7.9350 N   0  0  0  0  0  0  0  0  0  0  0  0
   39.0899  -18.4836   -7.9059 N   0  0  0  0  0  0  0  0  0  0  0  0
   40.4894  -18.1359   -7.8643 N   0  0  0  0  0  0  0  0  0  0  0  0
   40.7487  -17.3362   -6.7112 N   0  0  0  0  0  0  0  0  0  0  0  0
   40.4106  -18.0718   -5.5216 N   0  0  0  0  0  0  0  0  0  0  0  0
   41.1769  -19.2719   -5.4703 N   0  0  0  0  0  0  0  0  0  0  0  0
   42.5777  -18.9483   -5.4492 N   0  0  0  0  0  0  0  0  0  0  0  0
   42.8477  -18.1244   -4.3138 N   0  0  0  0  0  0  0  0  0  0  0  0
   42.5152  -18.8446   -3.1038 N   0  0  0  0  0  0  0  0  0  0  0  0
   43.2597  -20.0576   -3.0524 N   0  0  0  0  0  0  0  0  0  0  0  0
   44.6689  -19.7522   -3.0252 N   0  0  0  0  0  0  0  0  0  0  0  0
   44.9637  -18.9240   -1.9044 N   0  0  0  0  0  0  0  0  0  0  0  0
   44.6158  -19.6143   -0.6944 N   0  0  0  0  0  0  0  0  0  0  0  0
   45.3454  -20.8385   -0.6289 N   0  0  0  0  0  0  0  0  0  0  0  0
   46.7650  -20.5545   -0.6210 N   0  0  0  0  0  0  0  0  0  0  0  0
   47.0922  -19.7241    0.4946 N   0  0  0  0  0  0  0  0  0  0  0  0
   46.7434  -20.3845    1.6979 N   0  0  0  0  0  0  0  0  0  0  0  0
   47.4643  -21.6130    1.7997 N   0  0  0  0  0  0  0  0  0  0  0  0
   48.8682  -21.3648    1.7826 N   0  0  0  0  0  0  0  0  0  0  0  0
   49.2207  -20.5316    2.8641 N   0  0  0  0  0  0  0  0  0  0  0  0
   48.8665  -21.1601    4.0814 N   0  0  0  0  0  0  0  0  0  0  0  0
   49.5596  -22.4090    4.1857 N   0  0  0  0  0  0  0  0  0  0  0  0
   50.9672  -22.1752    4.1247 N   0  0  0  0  0  0  0  0  0  0  0  0
   51.3567  -21.3232    5.2258 N   0  0  0  0  0  0  0  0  0  0  0  0
   51.0100  -21.9552    6.4662 N   0  0  0  0  0  0  0  0  0  0  0  0
   51.6855  -23.2120    6.5845 N   0  0  0  0  0  0  0  0  0  0  0  0
   53.0869  -23.0067    6.5295 N   0  0  0  0  0  0  0  0  0  0  0  0
   53.4881  -22.1566    7.5992 N   0  0  0  0  0  0  0  0  0  0  0  0
   53.1365  -22.7456    8.8465 N   0  0  0  0  0  0  0  0  0  0  0  0
   53.7780  -24.0010    8.9710 N   0  0  0  0  0  0  0  0  0  0  0  0
   55.2019  -23.8414    8.9314 N   0  0  0  0  0  0  0  0  0  0  0  0
   55.6319  -22.9661    9.9802 N   0  0  0  0  0  0  0  0  0  0  0  0
   55.2481  -23.5661   11.2508 C   0  0  0  0  0  0  0  0  0  0  0  0
   55.6894  -22.6608   12.3803 C   0  0  0  0  0  0  0  0  0  0  0  0
   55.3129  -23.2664   13.7191 C   0  0  0  0  0  0  0  0  0  0  0  0
   55.7581  -22.3626   14.8498 C   0  0  0  0  0  0  0  0  0  0  0  0
   55.3820  -22.9685   16.1850 C   0  0  0  0  0  0  0  0  0  0  0  0
   55.8274  -22.0645   17.3139 C   0  0  0  0  0  0  0  0  0  0  0  0
   55.4514  -22.6705   18.6485 C   0  0  0  0  0  0  0  0  0  0  0  0
   55.8968  -21.7665   19.7772 C   0  0  0  0  0  0  0  0  0  0  0  0
   55.5207  -22.3725   21.1117 C   0  0  0  0  0  0  0  0  0  0  0  0
   55.9643  -21.4675   22.2403 C   0  0  0  0  0  0  0  0  0  0  0  0
   55.5882  -22.0735   23.5749 C   0  0  0  0  0  0  0  0  0  0  0  0
   56.0318  -21.1685   24.7035 C   0  0  0  0  0  0  0  0  0  0  0  0
   55.6558  -21.7745   26.0380 C   0  0  0  0  0  0  0  0  0  0  0  0
   56.0994  -20.8696   27.1666 C   0  0  0  0  0  0  0  0  0  0  0  0
   55.7233  -21.4755   28.5011 C   0  0  0  0  0  0  0  0  0  0  0  0
   56.1652  -20.5696   29.6297 C   0  0  0  0  0  0  0  0  0  0  0  0
   55.7891  -21.1756   30.9642 C   0  0  0  0  0  0  0  0  0  0  0  0
   56.2311  -20.2695   32.0927 C   0  0  0  0  0  0  0  0  0  0  0  0
   55.8570  -20.8759   33.4275 C   0  0  0  0  0  0  0  0  0  0  0  0
   56.2971  -19.9691   34.5578 C   0  0  0  0  0  0  0  0  0  0  0  0
   55.9219  -20.5781   35.8867 C   0  0  0  0  0  0  0  0  0  0  0  0
   24.1300  -15.9316  -27.0720 H   0  0  0  0  0  0  0  0  0  0  0  0
   23.6345  -14.4839  -26.0095 H   0  0  0  0  0  0  0  0  0  0  0  0
   25.7107  -16.6358  -25.3903 H   0  0  0  0  0  0  0  0  0  0  0  0
   25.0471  -15.6402  -23.0965 H   0  0  0  0  0  0  0  0  0  0  0  0
   24.5985  -14.1335  -23.9156 H   0  0  0  0  0  0  0  0  0  0  0  0
   26.8910  -13.8616  -24.5608 H   0  0  0  0  0  0  0  0  0  0  0  0
   26.5870  -14.3938  -21.8041 H   0  0  0  0  0  0  0  0  0  0  0  0
   28.3650  -12.7048  -23.2161 H   0  0  0  0  0  0  0  0  0  0  0  0
   27.6359  -11.7887  -21.2529 H   0  0  0  0  0  0  0  0  0  0  0  0
   26.9851  -13.7749  -20.2353 H   0  0  0  0  0  0  0  0  0  0  0  0
   28.7713  -15.0720  -21.0173 H   0  0  0  0  0  0  0  0  0  0  0  0
   30.4162  -13.5075  -20.8158 H   0  0  0  0  0  0  0  0  0  0  0  0
   29.7210  -12.5711  -18.8227 H   0  0  0  0  0  0  0  0  0  0  0  0
   29.0588  -14.5652  -17.7544 H   0  0  0  0  0  0  0  0  0  0  0  0
   30.7744  -15.9082  -18.5378 H   0  0  0  0  0  0  0  0  0  0  0  0
   32.4619  -14.3397  -18.3730 H   0  0  0  0  0  0  0  0  0  0  0  0
   31.7980  -13.3660  -16.3461 H   0  0  0  0  0  0  0  0  0  0  0  0
   31.0843  -15.2701  -15.2873 H   0  0  0  0  0  0  0  0  0  0  0  0
   32.8014  -16.6844  -16.0374 H   0  0  0  0  0  0  0  0  0  0  0  0
   34.5223  -15.1469  -15.9247 H   0  0  0  0  0  0  0  0  0  0  0  0
   33.8789  -14.1359  -13.9369 H   0  0  0  0  0  0  0  0  0  0  0  0
   33.1813  -16.0431  -12.8470 H   0  0  0  0  0  0  0  0  0  0  0  0
   34.7980  -17.4496  -13.6133 H   0  0  0  0  0  0  0  0  0  0  0  0
   36.6040  -15.9632  -13.4878 H   0  0  0  0  0  0  0  0  0  0  0  0
   36.0080  -14.9017  -11.5573 H   0  0  0  0  0  0  0  0  0  0  0  0
   35.2647  -16.7827  -10.3815 H   0  0  0  0  0  0  0  0  0  0  0  0
   36.8360  -18.2478  -11.1591 H   0  0  0  0  0  0  0  0  0  0  0  0
   38.6435  -16.7854  -11.0900 H   0  0  0  0  0  0  0  0  0  0  0  0
   38.0746  -15.6951   -9.1740 H   0  0  0  0  0  0  0  0  0  0  0  0
   37.3306  -17.5494   -7.9746 H   0  0  0  0  0  0  0  0  0  0  0  0
   38.8896  -19.0479   -8.7377 H   0  0  0  0  0  0  0  0  0  0  0  0
   40.7375  -17.6021   -8.7076 H   0  0  0  0  0  0  0  0  0  0  0  0
   40.2001  -16.4827   -6.7132 H   0  0  0  0  0  0  0  0  0  0  0  0
   39.4097  -18.3018   -5.5342 H   0  0  0  0  0  0  0  0  0  0  0  0
   41.0043  -19.8605   -6.2766 H   0  0  0  0  0  0  0  0  0  0  0  0
   42.8108  -18.4433   -6.3149 H   0  0  0  0  0  0  0  0  0  0  0  0
   42.3090  -17.2537   -4.3555 H   0  0  0  0  0  0  0  0  0  0  0  0
   41.5268  -19.0921   -3.1003 H   0  0  0  0  0  0  0  0  0  0  0  0
   43.0388  -20.6511   -3.8581 H   0  0  0  0  0  0  0  0  0  0  0  0
   44.9314  -19.2443   -3.8659 H   0  0  0  0  0  0  0  0  0  0  0  0
   44.4375  -18.0603   -1.9317 H   0  0  0  0  0  0  0  0  0  0  0  0
   43.6060  -19.8057   -0.7081 H   0  0  0  0  0  0  0  0  0  0  0  0
   45.1198  -21.4359   -1.4277 H   0  0  0  0  0  0  0  0  0  0  0  0
   47.0308  -20.0579   -1.4748 H   0  0  0  0  0  0  0  0  0  0  0  0
   46.5813  -18.8491    0.4656 H   0  0  0  0  0  0  0  0  0  0  0  0
   45.7446  -20.5779    1.7133 H   0  0  0  0  0  0  0  0  0  0  0  0
   47.2017  -22.2154    1.0067 H   0  0  0  0  0  0  0  0  0  0  0  0
   49.1290  -20.8942    0.9136 H   0  0  0  0  0  0  0  0  0  0  0  0
   48.7227  -19.6491    2.8073 H   0  0  0  0  0  0  0  0  0  0  0  0
   47.8733  -21.3481    4.0922 H   0  0  0  0  0  0  0  0  0  0  0  0
   49.2746  -22.9810    3.3809 H   0  0  0  0  0  0  0  0  0  0  0  0
   51.1942  -21.7139    3.2381 H   0  0  0  0  0  0  0  0  0  0  0  0
   50.8566  -20.4258    5.1433 H   0  0  0  0  0  0  0  0  0  0  0  0
   49.9871  -22.1030    6.4950 H   0  0  0  0  0  0  0  0  0  0  0  0
   51.3976  -23.8333    5.8092 H   0  0  0  0  0  0  0  0  0  0  0  0
   53.3602  -22.5725    5.6426 H   0  0  0  0  0  0  0  0  0  0  0  0
   53.0109  -21.2687    7.5334 H   0  0  0  0  0  0  0  0  0  0  0  0
   52.1338  -22.8924    8.8684 H   0  0  0  0  0  0  0  0  0  0  0  0
   53.4890  -24.6080    8.2116 H   0  0  0  0  0  0  0  0  0  0  0  0
   55.4303  -23.4144    8.0251 H   0  0  0  0  0  0  0  0  0  0  0  0
   55.1461  -22.0737    9.8671 H   0  0  0  0  0  0  0  0  0  0  0  0
   55.7264  -24.5439   11.3612 H   0  0  0  0  0  0  0  0  0  0  0  0
   54.1616  -23.7051   11.3170 H   0  0  0  0  0  0  0  0  0  0  0  0
   55.2132  -21.6798   12.2813 H   0  0  0  0  0  0  0  0  0  0  0  0
   56.7740  -22.5201   12.3391 H   0  0  0  0  0  0  0  0  0  0  0  0
   55.7877  -24.2470   13.8267 H   0  0  0  0  0  0  0  0  0  0  0  0
   54.2282  -23.4063   13.7688 H   0  0  0  0  0  0  0  0  0  0  0  0
   55.2831  -21.3820   14.7453 H   0  0  0  0  0  0  0  0  0  0  0  0
   56.8428  -22.2226   14.8031 H   0  0  0  0  0  0  0  0  0  0  0  0
   55.8570  -23.9491   16.2905 H   0  0  0  0  0  0  0  0  0  0  0  0
   54.2974  -23.1085   16.2327 H   0  0  0  0  0  0  0  0  0  0  0  0
   55.3524  -21.0839   17.2087 H   0  0  0  0  0  0  0  0  0  0  0  0
   56.9121  -21.9245   17.2665 H   0  0  0  0  0  0  0  0  0  0  0  0
   55.9263  -23.6511   18.7538 H   0  0  0  0  0  0  0  0  0  0  0  0
   54.3667  -22.8104   18.6959 H   0  0  0  0  0  0  0  0  0  0  0  0
   55.4217  -20.7859   19.6719 H   0  0  0  0  0  0  0  0  0  0  0  0
   56.9814  -21.6265   19.7298 H   0  0  0  0  0  0  0  0  0  0  0  0
   55.9968  -23.3524   21.2176 H   0  0  0  0  0  0  0  0  0  0  0  0
   54.4362  -22.5137   21.1586 H   0  0  0  0  0  0  0  0  0  0  0  0
   55.4881  -20.4876   22.1345 H   0  0  0  0  0  0  0  0  0  0  0  0
   57.0488  -21.3262   22.1935 H   0  0  0  0  0  0  0  0  0  0  0  0
   56.0644  -23.0534   23.6807 H   0  0  0  0  0  0  0  0  0  0  0  0
   54.5037  -22.2148   23.6217 H   0  0  0  0  0  0  0  0  0  0  0  0
   55.5557  -20.1886   24.5976 H   0  0  0  0  0  0  0  0  0  0  0  0
   57.1163  -21.0272   24.6566 H   0  0  0  0  0  0  0  0  0  0  0  0
   56.1319  -22.7545   26.1439 H   0  0  0  0  0  0  0  0  0  0  0  0
   54.5713  -21.9158   26.0849 H   0  0  0  0  0  0  0  0  0  0  0  0
   55.6232  -19.8896   27.0607 H   0  0  0  0  0  0  0  0  0  0  0  0
   57.1839  -20.7283   27.1198 H   0  0  0  0  0  0  0  0  0  0  0  0
   56.2006  -22.4549   28.6076 H   0  0  0  0  0  0  0  0  0  0  0  0
   54.6390  -21.6182   28.5475 H   0  0  0  0  0  0  0  0  0  0  0  0
   55.6878  -19.5903   29.5232 H   0  0  0  0  0  0  0  0  0  0  0  0
   57.2495  -20.4270   29.5834 H   0  0  0  0  0  0  0  0  0  0  0  0
   56.2664  -22.1549   31.0707 H   0  0  0  0  0  0  0  0  0  0  0  0
   54.7048  -21.3183   31.0106 H   0  0  0  0  0  0  0  0  0  0  0  0
   55.7525  -19.2908   31.9870 H   0  0  0  0  0  0  0  0  0  0  0  0
   57.3151  -20.1259   32.0456 H   0  0  0  0  0  0  0  0  0  0  0  0
   56.3362  -21.8546   33.5335 H   0  0  0  0  0  0  0  0  0  0  0  0
   54.7729  -21.0216   33.4739 H   0  0  0  0  0  0  0  0  0  0  0  0
   55.8167  -18.9918   34.4546 H   0  0  0  0  0  0  0  0  0  0  0  0
   57.3805  -19.8250   34.5143 H   0  0  0  0  0  0  0  0  0  0  0  0
   54.8391  -20.7164   35.9465 H   0  0  0  0  0  0  0  0  0  0  0  0
   56.2379  -19.9263   36.7030 H   0  0  0  0  0  0  0  0  0  0  0  0
   56.4056  -21.5511   36.0063 H   0  0  0  0  0  0  0  0  0  0  0  0
  1  2  2  0  0  0  0
  1 81  1  0  0  0  0
  1 82  1  0  0  0  0
  2  3  1  0  0  0  0
  2 83  1  0  0  0  0
  3  4  1  0  0  0  0
  3 84  1  0  0  0  0
  3 85  1  0  0  0  0
  4  5  1  0  0  0  0
  4 86  1  0  0  0  0
  5  6  1  0  0  0  0
  5 87  1  0  0  0  0
  6  7  1  0  0  0  0
  6 88  1  0  0  0  0
  7  8  1  0  0  0  0
  7 89  1  0  0  0  0
  8  9  1  0  0  0  0
  8 90  1  0  0  0  0
  9 10  1  0  0  0  0
  9 91  1  0  0  0  0
 10 11  1  0  0  0  0
 10 92  1  0  0  0  0
 11 12  1  0  0  0  0
 11 93  1  0  0  0  0
 12 13  1  0  0  0  0
 12 94  1  0  0  0  0
 13 14  1  0  0  0  0
 13 95  1  0  0  0  0
 14 15  1  0  0  0  0
 14 96  1  0  0  0  0
 15 16  1  0  0  0  0
 15 97  1  0  0  0  0
 16 17  1  0  0  0  0
 16 98  1  0  0  0  0
 17 18  1  0  0  0  0
 17 99  1  0  0  0  0
 18 19  1  0  0  0  0
 18100  1  0  0  0  0
 19 20  1  0  0  0  0
 19101  1  0  0  0  0
 20 21  1  0  0  0  0
 20102  1  0  0  0  0
 21 22  1  0  0  0  0
 21103  1  0  0  0  0
 22 23  1  0  0  0  0
 22104  1  0  0  0  0
 23 24  1  0  0  0  0
 23105  1  0  0  0  0
 24 25  1  0  0  0  0
 24106  1  0  0  0  0
 25 26  1  0  0  0  0
 25107  1  0  0  0  0
 26 27  1  0  0  0  0
 26108  1  0  0  0  0
 27 28  1  0  0  0  0
 27109  1  0  0  0  0
 28 29  1  0  0  0  0
 28110  1  0  0  0  0
 29 30  1  0  0  0  0
 29111  1  0  0  0  0
 30 31  1  0  0  0  0
 30112  1  0  0  0  0
 31 32  1  0  0  0  0
 31113  1  0  0  0  0
 32 33  1  0  0  0  0
 32114  1  0  0  0  0
 33 34  1  0  0  0  0
 33115  1  0  0  0  0
 34 35  1  0  0  0  0
 34116  1  0  0  0  0
 35 36  1  0  0  0  0
 35117  1  0  0  0  0
 36 37  1  0  0  0  0
 36118  1  0  0  0  0
 37 38  1  0  0  0  0
 37119  1  0  0  0  0
 38 39  1  0  0  0  0
 38120  1  0  0  0  0
 39 40  1  0  0  0  0
 39121  1  0  0  0  0
 40 41  1  0  0  0  0
 40122  1  0  0  0  0
 41 42  1  0  0  0  0
 41123  1  0  0  0  0
 42 43  1  0  0  0  0
 42124  1  0  0  0  0
 43 44  1  0  0  0  0
 43125  1  0  0  0  0
 44 45  1  0  0  0  0
 44126  1  0  0  0  0
 45 46  1  0  0  0  0
 45127  1  0  0  0  0
 46 47  1  0  0  0  0
 46128  1  0  0  0  0
 47 48  1  0  0  0  0
 47129  1  0  0  0  0
 48 49  1  0  0  0  0
 48130  1  0  0  0  0
 49 50  1  0  0  0  0
 49131  1  0  0  0  0
 50 51  1  0  0  0  0
 50132  1  0  0  0  0
 51 52  1  0  0  0  0
 51133  1  0  0  0  0
 52 53  1  0  0  0  0
 52134  1  0  0  0  0
 53 54  1  0  0  0  0
 53135  1  0  0  0  0
 54 55  1  0  0  0  0
 54136  1  0  0  0  0
 55 56  1  0  0  0  0
 55137  1  0  0  0  0
 56 57  1  0  0  0  0
 56138  1  0  0  0  0
 57 58  1  0  0  0  0
 57139  1  0  0  0  0
 58 59  1  0  0  0  0
 58140  1  0  0  0  0
 59 60  1  0  0  0  0
 59141  1  0  0  0  0
 60 61  1  0  0  0  0
 60142  1  0  0  0  0
 60143  1  0  0  0  0
 61 62  1  0  0  0  0
 61144  1  0  0  0  0
 61145  1  0  0  0  0
 62 63  1  0  0  0  0
 62146  1  0  0  0  0
 62147  1  0  0  0  0
 63 64  1  0  0  0  0
 63148  1  0  0  0  0
 63149  1  0  0  0  0
 64 65  1  0  0  0  0
 64150  1  0  0  0  0
 64151  1  0  0  0  0
 65 66  1  0  0  0  0
 65152  1  0  0  0  0
 65153  1  0  0  0  0
 66 67  1  0  0  0  0
 66154  1  0  0  0  0
 66155  1  0  0  0  0
 67 68  1  0  0  0  0
 67156  1  0  0  0  0
 67157  1  0  0  0  0
 68 69  1  0  0  0  0
 68158  1  0  0  0  0
 68159  1  0  0  0  0
 69 70  1  0  0  0  0
 69160  1  0  0  0  0
 69161  1  0  0  0  0
 70 71  1  0  0  0  0
 70162  1  0  0  0  0
 70163  1  0  0  0  0
 71 72  1  0  0  0  0
 71164  1  0  0  0  0
 71165  1  0  0  0  0
 72 73  1  0  0  0  0
 72166  1  0  0  0  0
 72167  1  0  0  0  0
 73 74  1  0  0  0  0
 73168  1  0  0  0  0
 73169  1  0  0  0  0
 74 75  1  0  0  0  0
 74170  1  0  0  0  0
 74171  1  0  0  0  0
 75 76  1  0  0  0  0
 75172  1  0  0  0  0
 75173  1  0  0  0  0
 76 77  1  0  0  0  0
 76174  1  0  0  0  0
 76175  1  0  0  0  0
 77 78  1  0  0  0  0
 77176  1  0  0  0  0
 77177  1  0  0  0  0
 78 79  1  0  0  0  0
 78178  1  0  0  0  0
 78179  1  0  0  0  0
 79 80  1  0  0  0  0
 79180  1  0  0  0  0
 79181  1  0  0  0  0
 80182  1  0  0  0  0
 80183  1  0  0  0  0
 80184  1  0  0  0  0
M  END
$$$$
