
 OpenBabel04232216423D

 25 25  0  0  0  0  0  0  0  0999 V2000
    0.8308   -0.7450    0.4919 C   0  0  0  0  0  0  0  0  0  0  0  0
    0.1496   -1.0897   -0.7976 C   0  0  0  0  0  0  0  0  0  0  0  0
   -0.7981   -0.1815   -1.0686 C   0  0  0  0  0  0  0  0  0  0  0  0
   -0.8371    0.8078   -0.0093 C   0  0  0  0  0  0  0  0  0  0  0  0
   -1.7983    1.9588   -0.0163 C   0  0  0  0  0  0  0  0  0  0  0  0
   -3.2610    1.4868   -0.0115 C   0  0  0  0  0  0  0  0  0  0  0  0
   -4.2120    2.6064   -0.0272 N   0  0  0  0  0  0  0  0  0  0  0  0
   -5.5830    2.0884   -0.0229 C   0  0  0  0  0  0  0  0  0  0  0  0
   -6.5822    3.2323   -0.0373 C   0  0  0  0  0  0  0  0  0  0  0  0
    0.1021    0.5043    0.9003 C   0  0  0  0  0  0  0  0  0  0  0  0
    1.8959   -0.5509    0.3376 H   0  0  0  0  0  0  0  0  0  0  0  0
    0.7022   -1.5377    1.2339 H   0  0  0  0  0  0  0  0  0  0  0  0
    0.3934   -1.9447   -1.4102 H   0  0  0  0  0  0  0  0  0  0  0  0
   -1.4479   -0.1807   -1.9307 H   0  0  0  0  0  0  0  0  0  0  0  0
   -1.6084    2.5770   -0.9030 H   0  0  0  0  0  0  0  0  0  0  0  0
   -1.6178    2.5980    0.8576 H   0  0  0  0  0  0  0  0  0  0  0  0
   -3.4341    0.8770    0.8837 H   0  0  0  0  0  0  0  0  0  0  0  0
   -3.4440    0.8552   -0.8892 H   0  0  0  0  0  0  0  0  0  0  0  0
   -4.0636    3.1707   -0.8633 H   0  0  0  0  0  0  0  0  0  0  0  0
   -5.7533    1.4819    0.8739 H   0  0  0  0  0  0  0  0  0  0  0  0
   -5.7549    1.4529   -0.8996 H   0  0  0  0  0  0  0  0  0  0  0  0
   -6.4609    3.8736    0.8417 H   0  0  0  0  0  0  0  0  0  0  0  0
   -7.6031    2.8363   -0.0278 H   0  0  0  0  0  0  0  0  0  0  0  0
   -6.4678    3.8484   -0.9350 H   0  0  0  0  0  0  0  0  0  0  0  0
    0.3248    1.0577    1.8004 H   0  0  0  0  0  0  0  0  0  0  0  0
  1  2  1  0  0  0  0
  1 10  1  0  0  0  0
  1 11  1  0  0  0  0
  1 12  1  0  0  0  0
  2  3  2  0  0  0  0
  2 13  1  0  0  0  0
  3  4  1  0  0  0  0
  3 14  1  0  0  0  0
  4  5  1  0  0  0  0
  4 10  2  0  0  0  0
  5  6  1  0  0  0  0
  5 15  1  0  0  0  0
  5 16  1  0  0  0  0
  6  7  1  0  0  0  0
  6 17  1  0  0  0  0
  6 18  1  0  0  0  0
  7  8  1  0  0  0  0
  7 19  1  0  0  0  0
  8  9  1  0  0  0  0
  8 20  1  0  0  0  0
  8 21  1  0  0  0  0
  9 22  1  0  0  0  0
  9 23  1  0  0  0  0
  9 24  1  0  0  0  0
 10 25  1  0  0  0  0
M  END
$$$$
