
 OpenBabel04232216513D

 52 53  0  0  0  0  0  0  0  0999 V2000
    4.9090    0.5864   -0.7142 C   0  0  0  0  0  0  0  0  0  0  0  0
    5.7802    1.8066   -1.2209 C   0  0  0  0  0  0  0  0  0  0  0  0
    4.6672    2.6407   -1.5415 N   0  0  0  0  0  0  0  0  0  0  0  0
    4.4432    3.8964   -1.8094 C   0  0  0  0  0  0  0  0  0  0  0  0
    5.2802    4.9870   -2.4170 C   0  0  0  0  0  0  0  0  0  0  0  0
    4.8730    5.5670   -3.6647 N   0  0  0  0  0  0  0  0  0  0  0  0
    4.8143    7.0144   -3.9902 C   0  0  0  0  0  0  0  0  0  0  0  0
    6.1282    7.7421   -4.4554 C   0  0  0  0  0  0  0  0  0  0  0  0
    7.3710    6.9326   -4.1507 C   0  0  0  0  0  0  0  0  0  0  0  0
    8.8509    7.3264   -4.2375 C   0  0  0  0  0  0  0  0  0  0  0  0
    9.9208    6.3974   -3.2922 C   0  0  0  0  0  0  0  0  0  0  0  0
   10.0012    5.0023   -2.2240 C   0  0  0  0  0  0  0  0  0  0  0  0
    6.4634    4.4657   -2.2272 C   0  0  0  0  0  0  0  0  0  0  0  0
    6.5417    4.5187   -0.5039 C   0  0  0  0  0  0  0  0  0  0  0  0
    6.5447    3.2025   -3.3184 C   0  0  0  0  0  0  0  0  0  0  0  0
    7.4308    2.4163   -4.0054 C   0  0  0  0  0  0  0  0  0  0  0  0
    7.5074    1.0281   -3.9641 N   0  0  0  0  0  0  0  0  0  0  0  0
    8.6770    2.9682   -4.4914 C   0  0  0  0  0  0  0  0  0  0  0  0
    8.2673    4.2089   -5.2250 C   0  0  0  0  0  0  0  0  0  0  0  0
    9.6044    3.0534   -3.5485 C   0  0  0  0  0  0  0  0  0  0  0  0
    9.2510    3.5635   -2.2472 C   0  0  0  0  0  0  0  0  0  0  0  0
    8.5204    2.8830   -1.2644 C   0  0  0  0  0  0  0  0  0  0  0  0
    7.2058    1.8074   -1.0633 C   0  0  0  0  0  0  0  0  0  0  0  0
    3.8237    0.8026   -0.8849 H   0  0  0  0  0  0  0  0  0  0  0  0
    4.9496    0.4583    0.3703 H   0  0  0  0  0  0  0  0  0  0  0  0
    5.0788   -0.3108   -1.2841 H   0  0  0  0  0  0  0  0  0  0  0  0
    3.5857    4.2793   -1.2123 H   0  0  0  0  0  0  0  0  0  0  0  0
    4.0198    5.0955   -3.9607 H   0  0  0  0  0  0  0  0  0  0  0  0
    4.1028    7.0914   -4.8221 H   0  0  0  0  0  0  0  0  0  0  0  0
    4.3661    7.5600   -3.1538 H   0  0  0  0  0  0  0  0  0  0  0  0
    6.1672    8.7492   -4.0270 H   0  0  0  0  0  0  0  0  0  0  0  0
    6.0537    7.8917   -5.5435 H   0  0  0  0  0  0  0  0  0  0  0  0
    7.2234    6.1895   -4.9227 H   0  0  0  0  0  0  0  0  0  0  0  0
    7.2656    6.5443   -3.1509 H   0  0  0  0  0  0  0  0  0  0  0  0
    8.9937    8.3851   -3.9817 H   0  0  0  0  0  0  0  0  0  0  0  0
    9.1885    7.2753   -5.2903 H   0  0  0  0  0  0  0  0  0  0  0  0
   10.1158    5.7794   -4.1566 H   0  0  0  0  0  0  0  0  0  0  0  0
    9.4510    6.9221   -2.4729 H   0  0  0  0  0  0  0  0  0  0  0  0
    9.9596    5.4099   -1.2022 H   0  0  0  0  0  0  0  0  0  0  0  0
   11.0758    4.7531   -2.3379 H   0  0  0  0  0  0  0  0  0  0  0  0
    5.5674    4.3616    0.0054 H   0  0  0  0  0  0  0  0  0  0  0  0
    6.8590    5.5066   -0.1629 H   0  0  0  0  0  0  0  0  0  0  0  0
    7.1026    3.8132    0.0990 H   0  0  0  0  0  0  0  0  0  0  0  0
    5.6056    3.1257   -3.8615 H   0  0  0  0  0  0  0  0  0  0  0  0
    7.0937    0.6813   -3.0976 H   0  0  0  0  0  0  0  0  0  0  0  0
    8.4931    0.7353   -3.9149 H   0  0  0  0  0  0  0  0  0  0  0  0
    7.2433    4.1981   -5.6260 H   0  0  0  0  0  0  0  0  0  0  0  0
    8.9471    4.5523   -5.9930 H   0  0  0  0  0  0  0  0  0  0  0  0
    8.2839    4.9047   -4.4063 H   0  0  0  0  0  0  0  0  0  0  0  0
   10.3903    2.2780   -3.5555 H   0  0  0  0  0  0  0  0  0  0  0  0
    8.7893    3.2438   -0.2581 H   0  0  0  0  0  0  0  0  0  0  0  0
    7.5952    0.9375   -0.5176 H   0  0  0  0  0  0  0  0  0  0  0  0
  1  2  1  0  0  0  0
  1 24  1  0  0  0  0
  1 25  1  0  0  0  0
  1 26  1  0  0  0  0
  2  3  1  0  0  0  0
  2 23  2  3  0  0  0
  3  4  2  3  0  0  0
  4  5  1  0  0  0  0
  4 27  1  0  0  0  0
  5  6  1  0  0  0  0
  5 13  2  3  0  0  0
  6  7  1  0  0  0  0
  6 28  1  0  0  0  0
  7  8  1  0  0  0  0
  7 29  1  0  0  0  0
  7 30  1  0  0  0  0
  8  9  1  0  0  0  0
  8 31  1  0  0  0  0
  8 32  1  0  0  0  0
  9 10  1  0  0  0  0
  9 33  1  0  0  0  0
  9 34  1  0  0  0  0
 10 11  1  0  0  0  0
 10 35  1  0  0  0  0
 10 36  1  0  0  0  0
 11 12  1  0  0  0  0
 11 37  1  0  0  0  0
 11 38  1  0  0  0  0
 12 21  1  0  0  0  0
 12 39  1  0  0  0  0
 12 40  1  0  0  0  0
 13 14  1  0  0  0  0
 13 15  1  0  0  0  0
 14 41  1  0  0  0  0
 14 42  1  0  0  0  0
 14 43  1  0  0  0  0
 15 16  2  3  0  0  0
 15 44  1  0  0  0  0
 16 17  1  0  0  0  0
 16 18  1  0  0  0  0
 17 45  1  0  0  0  0
 17 46  1  0  0  0  0
 18 19  1  0  0  0  0
 18 20  2  3  0  0  0
 19 47  1  0  0  0  0
 19 48  1  0  0  0  0
 19 49  1  0  0  0  0
 20 21  1  0  0  0  0
 20 50  1  0  0  0  0
 21 22  2  3  0  0  0
 22 23  1  0  0  0  0
 22 51  1  0  0  0  0
 23 52  1  0  0  0  0
M  END
$$$$
