
 OpenBabel04232216523D

213212  0  0  0  0  0  0  0  0999 V2000
    0.8847   -0.0395   -0.1060 C   0  0  0  0  0  0  0  0  0  0  0  0
    2.4038   -0.0436   -0.1032 C   0  0  0  0  0  0  0  0  0  0  0  0
    2.9405   -1.4420    0.1817 C   0  0  0  0  0  0  0  0  0  0  0  0
    4.4603   -1.4425    0.1818 C   0  0  0  0  0  0  0  0  0  0  0  0
    4.9657   -2.8596    0.4706 C   0  0  0  0  0  0  0  0  0  0  0  0
    6.4985   -2.8719    0.4730 C   0  0  0  0  0  0  0  0  0  0  0  0
    6.9894   -4.2703    0.7559 C   0  0  0  0  0  0  0  0  0  0  0  0
    8.5360   -4.2678    0.7534 C   0  0  0  0  0  0  0  0  0  0  0  0
    9.0310   -5.6755    1.0382 C   0  0  0  0  0  0  0  0  0  0  0  0
   10.5507   -5.6767    1.0343 C   0  0  0  0  0  0  0  0  0  0  0  0
   11.0579   -7.0805    1.3208 C   0  0  0  0  0  0  0  0  0  0  0  0
   12.5778   -7.0835    1.3148 C   0  0  0  0  0  0  0  0  0  0  0  0
   13.0880   -8.4833    1.5980 C   0  0  0  0  0  0  0  0  0  0  0  0
   14.6047   -8.4888    1.5949 C   0  0  0  0  0  0  0  0  0  0  0  0
   15.1148   -9.8888    1.8782 C   0  0  0  0  0  0  0  0  0  0  0  0
   16.6314   -9.8947    1.8732 C   0  0  0  0  0  0  0  0  0  0  0  0
   17.1415  -11.2950    2.1545 C   0  0  0  0  0  0  0  0  0  0  0  0
   18.6581  -11.3005    2.1514 C   0  0  0  0  0  0  0  0  0  0  0  0
   19.1682  -12.7012    2.4307 C   0  0  0  0  0  0  0  0  0  0  0  0
   20.6848  -12.7071    2.4257 C   0  0  0  0  0  0  0  0  0  0  0  0
   21.1948  -14.1082    2.7030 C   0  0  0  0  0  0  0  0  0  0  0  0
   22.7115  -14.1136    2.7000 C   0  0  0  0  0  0  0  0  0  0  0  0
   23.2215  -15.5151    2.9753 C   0  0  0  0  0  0  0  0  0  0  0  0
   24.7381  -15.5202    2.9742 C   0  0  0  0  0  0  0  0  0  0  0  0
   25.2482  -16.9217    3.2496 C   0  0  0  0  0  0  0  0  0  0  0  0
   26.7648  -16.9272    3.2466 C   0  0  0  0  0  0  0  0  0  0  0  0
   27.2748  -18.3287    3.5219 C   0  0  0  0  0  0  0  0  0  0  0  0
   28.7914  -18.3341    3.5188 C   0  0  0  0  0  0  0  0  0  0  0  0
   29.3015  -19.7357    3.7942 C   0  0  0  0  0  0  0  0  0  0  0  0
   30.8181  -19.7411    3.7911 C   0  0  0  0  0  0  0  0  0  0  0  0
   31.3281  -21.1426    4.0665 C   0  0  0  0  0  0  0  0  0  0  0  0
   32.8448  -21.1481    4.0634 C   0  0  0  0  0  0  0  0  0  0  0  0
   33.3548  -22.5496    4.3388 C   0  0  0  0  0  0  0  0  0  0  0  0
   34.8714  -22.5547    4.3377 C   0  0  0  0  0  0  0  0  0  0  0  0
   35.3814  -23.9562    4.6130 C   0  0  0  0  0  0  0  0  0  0  0  0
   36.8981  -23.9609    4.6139 C   0  0  0  0  0  0  0  0  0  0  0  0
   37.4081  -25.3628    4.8874 C   0  0  0  0  0  0  0  0  0  0  0  0
   38.9247  -25.3670    4.8903 C   0  0  0  0  0  0  0  0  0  0  0  0
   39.4348  -26.7686    5.1656 C   0  0  0  0  0  0  0  0  0  0  0  0
   40.9514  -26.7725    5.1704 C   0  0  0  0  0  0  0  0  0  0  0  0
   41.4614  -28.1744    5.4438 C   0  0  0  0  0  0  0  0  0  0  0  0
   42.9780  -28.1783    5.4487 C   0  0  0  0  0  0  0  0  0  0  0  0
   43.4881  -29.5802    5.7221 C   0  0  0  0  0  0  0  0  0  0  0  0
   45.0047  -29.5841    5.7269 C   0  0  0  0  0  0  0  0  0  0  0  0
   45.5147  -30.9860    6.0003 C   0  0  0  0  0  0  0  0  0  0  0  0
   47.0314  -30.9899    6.0052 C   0  0  0  0  0  0  0  0  0  0  0  0
   47.5414  -32.3918    6.2785 C   0  0  0  0  0  0  0  0  0  0  0  0
   49.0580  -32.3957    6.2834 C   0  0  0  0  0  0  0  0  0  0  0  0
   49.5681  -33.7976    6.5568 C   0  0  0  0  0  0  0  0  0  0  0  0
   51.0847  -33.8012    6.5636 C   0  0  0  0  0  0  0  0  0  0  0  0
   51.5948  -35.2031    6.8370 C   0  0  0  0  0  0  0  0  0  0  0  0
   53.1116  -35.2063    6.8458 C   0  0  0  0  0  0  0  0  0  0  0  0
   53.6216  -36.6081    7.1213 C   0  0  0  0  0  0  0  0  0  0  0  0
   55.1389  -36.6110    7.1320 C   0  0  0  0  0  0  0  0  0  0  0  0
   55.6492  -38.0126    7.4095 C   0  0  0  0  0  0  0  0  0  0  0  0
   57.1668  -38.0165    7.4186 C   0  0  0  0  0  0  0  0  0  0  0  0
   57.6783  -39.4182    7.6980 C   0  0  0  0  0  0  0  0  0  0  0  0
   59.1971  -39.4233    7.7052 C   0  0  0  0  0  0  0  0  0  0  0  0
   59.7097  -40.8282    7.9854 C   0  0  0  0  0  0  0  0  0  0  0  0
   61.2359  -40.8295    7.9939 C   0  0  0  0  0  0  0  0  0  0  0  0
   61.7518  -42.2425    8.2754 C   0  0  0  0  0  0  0  0  0  0  0  0
   63.2814  -42.2489    8.2852 C   0  0  0  0  0  0  0  0  0  0  0  0
   63.8056  -43.6534    8.5650 C   0  0  0  0  0  0  0  0  0  0  0  0
   65.3331  -43.6820    8.5751 C   0  0  0  0  0  0  0  0  0  0  0  0
   65.8804  -45.0643    8.8657 C   0  0  0  0  0  0  0  0  0  0  0  0
   67.7096  -45.1044    8.8963 S   0  0  0  0  0  0  0  0  0  0  0  0
   68.2726  -43.8284   10.4093 S   0  0  0  0  0  0  0  0  0  0  0  0
   67.4837  -44.5826   12.1592 S   0  0  0  0  0  0  0  0  0  0  0  0
   68.3195  -46.4413   12.5048 S   0  0  0  0  0  0  0  0  0  0  0  0
   67.4767  -47.1815   14.2665 S   0  0  0  0  0  0  0  0  0  0  0  0
   68.2673  -49.0938   14.5946 S   0  0  0  0  0  0  0  0  0  0  0  0
   67.4586  -49.8490   16.3796 S   0  0  0  0  0  0  0  0  0  0  0  0
   68.2539  -51.7684   16.7055 S   0  0  0  0  0  0  0  0  0  0  0  0
   67.4476  -52.5308   18.4914 S   0  0  0  0  0  0  0  0  0  0  0  0
   68.2436  -54.4488   18.8152 S   0  0  0  0  0  0  0  0  0  0  0  0
   67.4354  -55.2027   20.5985 S   0  0  0  0  0  0  0  0  0  0  0  0
   68.2302  -57.1119   20.9166 S   0  0  0  0  0  0  0  0  0  0  0  0
   67.3945  -57.8564   22.6732 S   0  0  0  0  0  0  0  0  0  0  0  0
   68.2465  -59.7143   23.0287 S   0  0  0  0  0  0  0  0  0  0  0  0
   67.3791  -60.4533   24.7559 S   0  0  0  0  0  0  0  0  0  0  0  0
   68.0019  -59.2067   26.2665 S   0  0  0  0  0  0  0  0  0  0  0  0
    0.5002    0.9542   -0.3085 H   0  0  0  0  0  0  0  0  0  0  0  0
    0.4971   -0.3700    0.8669 H   0  0  0  0  0  0  0  0  0  0  0  0
    0.4993   -0.7238   -0.8737 H   0  0  0  0  0  0  0  0  0  0  0  0
    2.7694    0.6600    0.6554 H   0  0  0  0  0  0  0  0  0  0  0  0
    2.7715    0.3082   -1.0755 H   0  0  0  0  0  0  0  0  0  0  0  0
    2.5654   -2.1396   -0.5776 H   0  0  0  0  0  0  0  0  0  0  0  0
    2.5654   -1.7868    1.1535 H   0  0  0  0  0  0  0  0  0  0  0  0
    4.8371   -0.7554    0.9415 H   0  0  0  0  0  0  0  0  0  0  0  0
    4.8370   -1.1075   -0.7863 H   0  0  0  0  0  0  0  0  0  0  0  0
    4.5963   -3.5489   -0.2888 H   0  0  0  0  0  0  0  0  0  0  0  0
    4.5964   -3.1968    1.4391 H   0  0  0  0  0  0  0  0  0  0  0  0
    6.8721   -2.1782    1.2338 H   0  0  0  0  0  0  0  0  0  0  0  0
    6.8718   -2.5285   -0.4978 H   0  0  0  0  0  0  0  0  0  0  0  0
    6.6285   -4.9654   -0.0021 H   0  0  0  0  0  0  0  0  0  0  0  0
    6.6307   -4.6150    1.7257 H   0  0  0  0  0  0  0  0  0  0  0  0
    8.8964   -3.5795    1.5116 H   0  0  0  0  0  0  0  0  0  0  0  0
    8.8940   -3.9295   -0.2142 H   0  0  0  0  0  0  0  0  0  0  0  0
    8.6573   -6.3701    0.2798 H   0  0  0  0  0  0  0  0  0  0  0  0
    8.6618   -6.0183    2.0095 H   0  0  0  0  0  0  0  0  0  0  0  0
   10.9293   -4.9802    1.7920 H   0  0  0  0  0  0  0  0  0  0  0  0
   10.9244   -5.3345    0.0617 H   0  0  0  0  0  0  0  0  0  0  0  0
   10.6820   -7.7753    0.5630 H   0  0  0  0  0  0  0  0  0  0  0  0
   10.6891   -7.4202    2.2930 H   0  0  0  0  0  0  0  0  0  0  0  0
   12.9573   -6.3865    2.0724 H   0  0  0  0  0  0  0  0  0  0  0  0
   12.9504   -6.7394    0.3418 H   0  0  0  0  0  0  0  0  0  0  0  0
   12.7099   -9.1799    0.8396 H   0  0  0  0  0  0  0  0  0  0  0  0
   12.7147   -8.8281    2.5702 H   0  0  0  0  0  0  0  0  0  0  0  0
   14.9830   -7.7924    2.3534 H   0  0  0  0  0  0  0  0  0  0  0  0
   14.9781   -8.1442    0.6227 H   0  0  0  0  0  0  0  0  0  0  0  0
   14.7355  -10.5856    1.1206 H   0  0  0  0  0  0  0  0  0  0  0  0
   14.7426  -10.2329    2.8510 H   0  0  0  0  0  0  0  0  0  0  0  0
   17.0107   -9.1989    2.6318 H   0  0  0  0  0  0  0  0  0  0  0  0
   17.0038   -9.5493    0.9008 H   0  0  0  0  0  0  0  0  0  0  0  0
   16.7633  -11.9904    1.3950 H   0  0  0  0  0  0  0  0  0  0  0  0
   16.7682  -11.6411    3.1262 H   0  0  0  0  0  0  0  0  0  0  0  0
   19.0363  -10.6060    2.9118 H   0  0  0  0  0  0  0  0  0  0  0  0
   19.0315  -10.9531    1.1802 H   0  0  0  0  0  0  0  0  0  0  0  0
   18.7889  -13.3959    1.6711 H   0  0  0  0  0  0  0  0  0  0  0  0
   18.7959  -13.0481    3.4026 H   0  0  0  0  0  0  0  0  0  0  0  0
   21.0641  -12.0134    3.1863 H   0  0  0  0  0  0  0  0  0  0  0  0
   21.0571  -12.3589    1.4543 H   0  0  0  0  0  0  0  0  0  0  0  0
   20.8166  -14.8014    1.9416 H   0  0  0  0  0  0  0  0  0  0  0  0
   20.8215  -14.4570    3.6738 H   0  0  0  0  0  0  0  0  0  0  0  0
   23.0895  -13.4213    3.4623 H   0  0  0  0  0  0  0  0  0  0  0  0
   23.0850  -13.7635    1.7297 H   0  0  0  0  0  0  0  0  0  0  0  0
   22.8445  -16.2071    2.2121 H   0  0  0  0  0  0  0  0  0  0  0  0
   22.8469  -15.8658    3.9449 H   0  0  0  0  0  0  0  0  0  0  0  0
   25.1152  -14.8282    3.7374 H   0  0  0  0  0  0  0  0  0  0  0  0
   25.1127  -15.1695    2.0046 H   0  0  0  0  0  0  0  0  0  0  0  0
   24.8701  -17.6140    2.4872 H   0  0  0  0  0  0  0  0  0  0  0  0
   24.8747  -17.2718    4.2198 H   0  0  0  0  0  0  0  0  0  0  0  0
   27.1429  -16.2349    4.0089 H   0  0  0  0  0  0  0  0  0  0  0  0
   27.1382  -16.5770    2.2763 H   0  0  0  0  0  0  0  0  0  0  0  0
   26.8967  -19.0209    2.7595 H   0  0  0  0  0  0  0  0  0  0  0  0
   26.9014  -18.6788    4.4921 H   0  0  0  0  0  0  0  0  0  0  0  0
   29.1696  -17.6419    4.2812 H   0  0  0  0  0  0  0  0  0  0  0  0
   29.1649  -17.9840    2.5486 H   0  0  0  0  0  0  0  0  0  0  0  0
   28.9233  -20.4279    3.0318 H   0  0  0  0  0  0  0  0  0  0  0  0
   28.9280  -20.0858    4.7644 H   0  0  0  0  0  0  0  0  0  0  0  0
   31.1962  -19.0489    4.5535 H   0  0  0  0  0  0  0  0  0  0  0  0
   31.1915  -19.3910    2.8209 H   0  0  0  0  0  0  0  0  0  0  0  0
   30.9500  -21.8349    3.3041 H   0  0  0  0  0  0  0  0  0  0  0  0
   30.9547  -21.4928    5.0367 H   0  0  0  0  0  0  0  0  0  0  0  0
   33.2229  -20.4558    4.8258 H   0  0  0  0  0  0  0  0  0  0  0  0
   33.2182  -20.7980    3.0932 H   0  0  0  0  0  0  0  0  0  0  0  0
   32.9778  -23.2416    3.5756 H   0  0  0  0  0  0  0  0  0  0  0  0
   32.9802  -22.9003    5.3084 H   0  0  0  0  0  0  0  0  0  0  0  0
   35.2484  -21.8627    5.1009 H   0  0  0  0  0  0  0  0  0  0  0  0
   35.2461  -22.2040    3.3682 H   0  0  0  0  0  0  0  0  0  0  0  0
   35.0056  -24.6479    3.8490 H   0  0  0  0  0  0  0  0  0  0  0  0
   35.0057  -24.3075    5.5820 H   0  0  0  0  0  0  0  0  0  0  0  0
   37.2738  -23.2702    5.3790 H   0  0  0  0  0  0  0  0  0  0  0  0
   37.2740  -23.6083    3.6456 H   0  0  0  0  0  0  0  0  0  0  0  0
   37.0335  -26.0532    4.1216 H   0  0  0  0  0  0  0  0  0  0  0  0
   37.0311  -25.7159    5.8551 H   0  0  0  0  0  0  0  0  0  0  0  0
   39.2994  -24.6756    5.6551 H   0  0  0  0  0  0  0  0  0  0  0  0
   39.3017  -25.0152    3.9220 H   0  0  0  0  0  0  0  0  0  0  0  0
   39.0612  -27.4597    4.3999 H   0  0  0  0  0  0  0  0  0  0  0  0
   39.0567  -27.1210    6.1332 H   0  0  0  0  0  0  0  0  0  0  0  0
   41.3248  -26.0823    5.9371 H   0  0  0  0  0  0  0  0  0  0  0  0
   41.3296  -26.4188    4.2033 H   0  0  0  0  0  0  0  0  0  0  0  0
   41.0880  -28.8645    4.6772 H   0  0  0  0  0  0  0  0  0  0  0  0
   41.0833  -28.5281    6.4109 H   0  0  0  0  0  0  0  0  0  0  0  0
   43.3515  -27.4882    6.2153 H   0  0  0  0  0  0  0  0  0  0  0  0
   43.3562  -27.8245    4.4816 H   0  0  0  0  0  0  0  0  0  0  0  0
   43.1146  -30.2703    4.9554 H   0  0  0  0  0  0  0  0  0  0  0  0
   43.1099  -29.9339    6.6892 H   0  0  0  0  0  0  0  0  0  0  0  0
   45.3781  -28.8940    6.4936 H   0  0  0  0  0  0  0  0  0  0  0  0
   45.3828  -29.2303    4.7598 H   0  0  0  0  0  0  0  0  0  0  0  0
   45.1413  -31.6761    5.2337 H   0  0  0  0  0  0  0  0  0  0  0  0
   45.1366  -31.3397    6.9674 H   0  0  0  0  0  0  0  0  0  0  0  0
   47.4048  -30.2998    6.7718 H   0  0  0  0  0  0  0  0  0  0  0  0
   47.4095  -30.6361    5.0381 H   0  0  0  0  0  0  0  0  0  0  0  0
   47.1680  -33.0819    5.5119 H   0  0  0  0  0  0  0  0  0  0  0  0
   47.1632  -32.7455    7.2456 H   0  0  0  0  0  0  0  0  0  0  0  0
   49.4314  -31.7056    7.0501 H   0  0  0  0  0  0  0  0  0  0  0  0
   49.4362  -32.0420    5.3163 H   0  0  0  0  0  0  0  0  0  0  0  0
   49.1957  -34.4874    5.7893 H   0  0  0  0  0  0  0  0  0  0  0  0
   49.1888  -34.1519    7.5232 H   0  0  0  0  0  0  0  0  0  0  0  0
   51.4569  -33.1113    7.3311 H   0  0  0  0  0  0  0  0  0  0  0  0
   51.4640  -33.4468    5.5972 H   0  0  0  0  0  0  0  0  0  0  0  0
   51.2236  -35.8926    6.0688 H   0  0  0  0  0  0  0  0  0  0  0  0
   51.2143  -35.5578    7.8028 H   0  0  0  0  0  0  0  0  0  0  0  0
   53.4824  -34.5156    7.6132 H   0  0  0  0  0  0  0  0  0  0  0  0
   53.4919  -34.8527    5.8796 H   0  0  0  0  0  0  0  0  0  0  0  0
   53.2518  -37.2982    6.3532 H   0  0  0  0  0  0  0  0  0  0  0  0
   53.2402  -36.9618    8.0868 H   0  0  0  0  0  0  0  0  0  0  0  0
   55.5086  -35.9196    7.8990 H   0  0  0  0  0  0  0  0  0  0  0  0
   55.5204  -36.2581    6.1661 H   0  0  0  0  0  0  0  0  0  0  0  0
   55.2779  -38.7038    6.6432 H   0  0  0  0  0  0  0  0  0  0  0  0
   55.2684  -38.3642    8.3761 H   0  0  0  0  0  0  0  0  0  0  0  0
   57.5374  -37.3238    8.1838 H   0  0  0  0  0  0  0  0  0  0  0  0
   57.5466  -37.6658    6.4514 H   0  0  0  0  0  0  0  0  0  0  0  0
   57.3055  -40.1108    6.9335 H   0  0  0  0  0  0  0  0  0  0  0  0
   57.2984  -39.7679    8.6658 H   0  0  0  0  0  0  0  0  0  0  0  0
   59.5681  -38.7303    8.4698 H   0  0  0  0  0  0  0  0  0  0  0  0
   59.5753  -39.0733    6.7373 H   0  0  0  0  0  0  0  0  0  0  0  0
   59.3398  -41.5179    7.2197 H   0  0  0  0  0  0  0  0  0  0  0  0
   59.3305  -41.1759    8.9518 H   0  0  0  0  0  0  0  0  0  0  0  0
   61.6016  -40.1399    8.7587 H   0  0  0  0  0  0  0  0  0  0  0  0
   61.6110  -40.4814    7.0282 H   0  0  0  0  0  0  0  0  0  0  0  0
   61.3821  -42.9236    7.5113 H   0  0  0  0  0  0  0  0  0  0  0  0
   61.3725  -42.5831    9.2374 H   0  0  0  0  0  0  0  0  0  0  0  0
   63.6469  -41.5562    9.0491 H   0  0  0  0  0  0  0  0  0  0  0  0
   63.6563  -41.8975    7.3193 H   0  0  0  0  0  0  0  0  0  0  0  0
   63.4362  -44.3483    7.8006 H   0  0  0  0  0  0  0  0  0  0  0  0
   63.4269  -44.0057    9.5324 H   0  0  0  0  0  0  0  0  0  0  0  0
   65.6773  -42.9572    9.3378 H   0  0  0  0  0  0  0  0  0  0  0  0
   65.7123  -43.3185    7.6066 H   0  0  0  0  0  0  0  0  0  0  0  0
   65.5440  -45.7721    8.0932 H   0  0  0  0  0  0  0  0  0  0  0  0
   65.5227  -45.4387    9.8248 H   0  0  0  0  0  0  0  0  0  0  0  0
   67.4086  -59.7694   27.3338 H   0  0  0  0  0  0  0  0  0  0  0  0
  1  2  1  0  0  0  0
  1 82  1  0  0  0  0
  1 83  1  0  0  0  0
  1 84  1  0  0  0  0
  2  3  1  0  0  0  0
  2 85  1  0  0  0  0
  2 86  1  0  0  0  0
  3  4  1  0  0  0  0
  3 87  1  0  0  0  0
  3 88  1  0  0  0  0
  4  5  1  0  0  0  0
  4 89  1  0  0  0  0
  4 90  1  0  0  0  0
  5  6  1  0  0  0  0
  5 91  1  0  0  0  0
  5 92  1  0  0  0  0
  6  7  1  0  0  0  0
  6 93  1  0  0  0  0
  6 94  1  0  0  0  0
  7  8  1  0  0  0  0
  7 95  1  0  0  0  0
  7 96  1  0  0  0  0
  8  9  1  0  0  0  0
  8 97  1  0  0  0  0
  8 98  1  0  0  0  0
  9 10  1  0  0  0  0
  9 99  1  0  0  0  0
  9100  1  0  0  0  0
 10 11  1  0  0  0  0
 10101  1  0  0  0  0
 10102  1  0  0  0  0
 11 12  1  0  0  0  0
 11103  1  0  0  0  0
 11104  1  0  0  0  0
 12 13  1  0  0  0  0
 12105  1  0  0  0  0
 12106  1  0  0  0  0
 13 14  1  0  0  0  0
 13107  1  0  0  0  0
 13108  1  0  0  0  0
 14 15  1  0  0  0  0
 14109  1  0  0  0  0
 14110  1  0  0  0  0
 15 16  1  0  0  0  0
 15111  1  0  0  0  0
 15112  1  0  0  0  0
 16 17  1  0  0  0  0
 16113  1  0  0  0  0
 16114  1  0  0  0  0
 17 18  1  0  0  0  0
 17115  1  0  0  0  0
 17116  1  0  0  0  0
 18 19  1  0  0  0  0
 18117  1  0  0  0  0
 18118  1  0  0  0  0
 19 20  1  0  0  0  0
 19119  1  0  0  0  0
 19120  1  0  0  0  0
 20 21  1  0  0  0  0
 20121  1  0  0  0  0
 20122  1  0  0  0  0
 21 22  1  0  0  0  0
 21123  1  0  0  0  0
 21124  1  0  0  0  0
 22 23  1  0  0  0  0
 22125  1  0  0  0  0
 22126  1  0  0  0  0
 23 24  1  0  0  0  0
 23127  1  0  0  0  0
 23128  1  0  0  0  0
 24 25  1  0  0  0  0
 24129  1  0  0  0  0
 24130  1  0  0  0  0
 25 26  1  0  0  0  0
 25131  1  0  0  0  0
 25132  1  0  0  0  0
 26 27  1  0  0  0  0
 26133  1  0  0  0  0
 26134  1  0  0  0  0
 27 28  1  0  0  0  0
 27135  1  0  0  0  0
 27136  1  0  0  0  0
 28 29  1  0  0  0  0
 28137  1  0  0  0  0
 28138  1  0  0  0  0
 29 30  1  0  0  0  0
 29139  1  0  0  0  0
 29140  1  0  0  0  0
 30 31  1  0  0  0  0
 30141  1  0  0  0  0
 30142  1  0  0  0  0
 31 32  1  0  0  0  0
 31143  1  0  0  0  0
 31144  1  0  0  0  0
 32 33  1  0  0  0  0
 32145  1  0  0  0  0
 32146  1  0  0  0  0
 33 34  1  0  0  0  0
 33147  1  0  0  0  0
 33148  1  0  0  0  0
 34 35  1  0  0  0  0
 34149  1  0  0  0  0
 34150  1  0  0  0  0
 35 36  1  0  0  0  0
 35151  1  0  0  0  0
 35152  1  0  0  0  0
 36 37  1  0  0  0  0
 36153  1  0  0  0  0
 36154  1  0  0  0  0
 37 38  1  0  0  0  0
 37155  1  0  0  0  0
 37156  1  0  0  0  0
 38 39  1  0  0  0  0
 38157  1  0  0  0  0
 38158  1  0  0  0  0
 39 40  1  0  0  0  0
 39159  1  0  0  0  0
 39160  1  0  0  0  0
 40 41  1  0  0  0  0
 40161  1  0  0  0  0
 40162  1  0  0  0  0
 41 42  1  0  0  0  0
 41163  1  0  0  0  0
 41164  1  0  0  0  0
 42 43  1  0  0  0  0
 42165  1  0  0  0  0
 42166  1  0  0  0  0
 43 44  1  0  0  0  0
 43167  1  0  0  0  0
 43168  1  0  0  0  0
 44 45  1  0  0  0  0
 44169  1  0  0  0  0
 44170  1  0  0  0  0
 45 46  1  0  0  0  0
 45171  1  0  0  0  0
 45172  1  0  0  0  0
 46 47  1  0  0  0  0
 46173  1  0  0  0  0
 46174  1  0  0  0  0
 47 48  1  0  0  0  0
 47175  1  0  0  0  0
 47176  1  0  0  0  0
 48 49  1  0  0  0  0
 48177  1  0  0  0  0
 48178  1  0  0  0  0
 49 50  1  0  0  0  0
 49179  1  0  0  0  0
 49180  1  0  0  0  0
 50 51  1  0  0  0  0
 50181  1  0  0  0  0
 50182  1  0  0  0  0
 51 52  1  0  0  0  0
 51183  1  0  0  0  0
 51184  1  0  0  0  0
 52 53  1  0  0  0  0
 52185  1  0  0  0  0
 52186  1  0  0  0  0
 53 54  1  0  0  0  0
 53187  1  0  0  0  0
 53188  1  0  0  0  0
 54 55  1  0  0  0  0
 54189  1  0  0  0  0
 54190  1  0  0  0  0
 55 56  1  0  0  0  0
 55191  1  0  0  0  0
 55192  1  0  0  0  0
 56 57  1  0  0  0  0
 56193  1  0  0  0  0
 56194  1  0  0  0  0
 57 58  1  0  0  0  0
 57195  1  0  0  0  0
 57196  1  0  0  0  0
 58 59  1  0  0  0  0
 58197  1  0  0  0  0
 58198  1  0  0  0  0
 59 60  1  0  0  0  0
 59199  1  0  0  0  0
 59200  1  0  0  0  0
 60 61  1  0  0  0  0
 60201  1  0  0  0  0
 60202  1  0  0  0  0
 61 62  1  0  0  0  0
 61203  1  0  0  0  0
 61204  1  0  0  0  0
 62 63  1  0  0  0  0
 62205  1  0  0  0  0
 62206  1  0  0  0  0
 63 64  1  0  0  0  0
 63207  1  0  0  0  0
 63208  1  0  0  0  0
 64 65  1  0  0  0  0
 64209  1  0  0  0  0
 64210  1  0  0  0  0
 65 66  1  0  0  0  0
 65211  1  0  0  0  0
 65212  1  0  0  0  0
 66 67  1  0  0  0  0
 67 68  1  0  0  0  0
 68 69  1  0  0  0  0
 69 70  1  0  0  0  0
 70 71  1  0  0  0  0
 71 72  1  0  0  0  0
 72 73  1  0  0  0  0
 73 74  1  0  0  0  0
 74 75  1  0  0  0  0
 75 76  1  0  0  0  0
 76 77  1  0  0  0  0
 77 78  1  0  0  0  0
 78 79  1  0  0  0  0
 79 80  1  0  0  0  0
 80 81  1  0  0  0  0
 81213  1  0  0  0  0
M  END
$$$$
