
 OpenBabel04232216503D

 71 71  0  0  0  0  0  0  0  0999 V2000
   11.9687   -1.6226   -0.1257 C   0  0  0  0  0  0  0  0  0  0  0  0
   12.9058   -2.9238   -1.2340 C   0  0  0  0  0  0  0  0  0  0  0  0
   11.3100   -2.8577   -1.7163 C   0  0  0  0  0  0  0  0  0  0  0  0
    9.4067   -2.2010   -1.6290 C   0  0  0  0  0  0  0  0  0  0  0  0
    7.9014   -2.5214   -1.0643 C   0  0  0  0  0  0  0  0  0  0  0  0
    7.0055   -3.6312   -0.9256 O   0  0  0  0  0  0  0  0  0  0  0  0
    7.5552   -4.9049   -1.0686 C   0  0  0  0  0  0  0  0  0  0  0  0
    8.9791   -4.6958   -1.0153 C   0  0  0  0  0  0  0  0  0  0  0  0
    9.8207   -5.8033   -1.2696 C   0  0  0  0  0  0  0  0  0  0  0  0
   11.1770   -5.2553   -1.2105 C   0  0  0  0  0  0  0  0  0  0  0  0
   11.9419   -6.4175   -1.5004 C   0  0  0  0  0  0  0  0  0  0  0  0
   13.2871   -5.9216   -1.4272 C   0  0  0  0  0  0  0  0  0  0  0  0
   14.0229   -7.1467   -1.6855 C   0  0  0  0  0  0  0  0  0  0  0  0
   15.3809   -6.6612   -1.5300 C   0  0  0  0  0  0  0  0  0  0  0  0
   16.1934   -7.8290   -1.7319 C   0  0  0  0  0  0  0  0  0  0  0  0
   17.6150   -7.5420   -1.6563 C   0  0  0  0  0  0  0  0  0  0  0  0
   18.1442   -8.8528   -2.0443 C   0  0  0  0  0  0  0  0  0  0  0  0
   19.5650   -8.8455   -2.1896 C   0  0  0  0  0  0  0  0  0  0  0  0
   20.0927  -10.2482   -2.4675 C   0  0  0  0  0  0  0  0  0  0  0  0
   21.4427   -9.8132   -2.3020 C   0  0  0  0  0  0  0  0  0  0  0  0
   22.7351  -10.3140   -2.5813 C   0  0  0  0  0  0  0  0  0  0  0  0
   23.2431   -8.7198   -2.3946 C   0  0  0  0  0  0  0  0  0  0  0  0
   21.9106   -7.0914   -2.3312 C   0  0  0  0  0  0  0  0  0  0  0  0
   20.1542   -6.1708   -2.1835 C   0  0  0  0  0  0  0  0  0  0  0  0
   18.6458   -5.2184   -1.5489 C   0  0  0  0  0  0  0  0  0  0  0  0
   16.6562   -4.2849   -1.4410 C   0  0  0  0  0  0  0  0  0  0  0  0
   14.8921   -3.6098   -1.5190 C   0  0  0  0  0  0  0  0  0  0  0  0
   10.8173   -1.3811   -0.0163 H   0  0  0  0  0  0  0  0  0  0  0  0
   11.6051   -0.9340   -0.9398 H   0  0  0  0  0  0  0  0  0  0  0  0
   11.5294   -2.2577    0.6909 H   0  0  0  0  0  0  0  0  0  0  0  0
   10.7346   -3.1117   -0.7607 H   0  0  0  0  0  0  0  0  0  0  0  0
    9.0129   -1.8394   -2.5471 H   0  0  0  0  0  0  0  0  0  0  0  0
    6.8769   -2.0420   -1.1836 H   0  0  0  0  0  0  0  0  0  0  0  0
    7.3306   -5.2130   -2.1052 H   0  0  0  0  0  0  0  0  0  0  0  0
    7.3200   -5.4018   -0.1219 H   0  0  0  0  0  0  0  0  0  0  0  0
    9.2073   -4.2067   -0.0509 H   0  0  0  0  0  0  0  0  0  0  0  0
    9.1341   -4.1750   -1.9629 H   0  0  0  0  0  0  0  0  0  0  0  0
    9.6426   -6.0857   -2.3118 H   0  0  0  0  0  0  0  0  0  0  0  0
    9.6709   -6.5084   -0.4764 H   0  0  0  0  0  0  0  0  0  0  0  0
   11.4491   -4.7587   -0.2554 H   0  0  0  0  0  0  0  0  0  0  0  0
   11.3975   -4.7114   -2.1303 H   0  0  0  0  0  0  0  0  0  0  0  0
   11.7047   -6.6791   -2.5376 H   0  0  0  0  0  0  0  0  0  0  0  0
   11.7134   -7.1450   -0.7363 H   0  0  0  0  0  0  0  0  0  0  0  0
   13.5123   -5.4834   -0.4390 H   0  0  0  0  0  0  0  0  0  0  0  0
   13.4513   -5.2051   -2.2464 H   0  0  0  0  0  0  0  0  0  0  0  0
   13.8427   -7.4679   -2.7207 H   0  0  0  0  0  0  0  0  0  0  0  0
   13.7786   -7.9253   -0.9658 H   0  0  0  0  0  0  0  0  0  0  0  0
   15.5395   -6.1855   -0.5489 H   0  0  0  0  0  0  0  0  0  0  0  0
   15.4774   -5.9888   -2.3870 H   0  0  0  0  0  0  0  0  0  0  0  0
   16.0045   -8.1362   -2.7641 H   0  0  0  0  0  0  0  0  0  0  0  0
   15.9499   -8.6002   -1.0071 H   0  0  0  0  0  0  0  0  0  0  0  0
   17.9365   -7.1742   -0.6613 H   0  0  0  0  0  0  0  0  0  0  0  0
   17.8058   -6.8646   -2.4895 H   0  0  0  0  0  0  0  0  0  0  0  0
   17.7824   -9.0519   -3.0515 H   0  0  0  0  0  0  0  0  0  0  0  0
   17.8876   -9.5751   -1.2797 H   0  0  0  0  0  0  0  0  0  0  0  0
   19.9847   -8.3935   -1.2707 H   0  0  0  0  0  0  0  0  0  0  0  0
   19.7951   -8.2055   -3.0600 H   0  0  0  0  0  0  0  0  0  0  0  0
   19.9662  -10.5516   -3.5089 H   0  0  0  0  0  0  0  0  0  0  0  0
   19.8903  -11.0065   -1.7259 H   0  0  0  0  0  0  0  0  0  0  0  0
   21.5509   -9.4349   -1.2681 H   0  0  0  0  0  0  0  0  0  0  0  0
   21.4489   -9.1355   -3.1652 H   0  0  0  0  0  0  0  0  0  0  0  0
   22.7856  -10.7666   -3.5811 H   0  0  0  0  0  0  0  0  0  0  0  0
   22.9686  -11.0793   -1.8137 H   0  0  0  0  0  0  0  0  0  0  0  0
   23.8750   -8.8088   -1.5200 H   0  0  0  0  0  0  0  0  0  0  0  0
   24.0135   -8.6324   -3.1692 H   0  0  0  0  0  0  0  0  0  0  0  0
   22.0247   -7.2437   -3.4401 H   0  0  0  0  0  0  0  0  0  0  0  0
   22.0896   -7.3462   -1.3153 H   0  0  0  0  0  0  0  0  0  0  0  0
   20.6533   -5.9811   -1.1400 H   0  0  0  0  0  0  0  0  0  0  0  0
   18.8349   -5.1613   -0.5798 H   0  0  0  0  0  0  0  0  0  0  0  0
   16.6625   -4.6593   -2.4751 H   0  0  0  0  0  0  0  0  0  0  0  0
   14.8644   -3.4434   -0.3647 H   0  0  0  0  0  0  0  0  0  0  0  0
  1  2  1  0  0  0  0
  1 28  1  0  0  0  0
  1 29  1  0  0  0  0
  1 30  1  0  0  0  0
  2  3  2  3  0  0  0
  2 27  1  0  0  0  0
  3  4  1  0  0  0  0
  3 31  1  0  0  0  0
  4  5  2  3  0  0  0
  4 32  1  0  0  0  0
  5  6  1  0  0  0  0
  5 33  1  0  0  0  0
  6  7  1  0  0  0  0
  7  8  1  0  0  0  0
  7 34  1  0  0  0  0
  7 35  1  0  0  0  0
  8  9  1  0  0  0  0
  8 36  1  0  0  0  0
  8 37  1  0  0  0  0
  9 10  1  0  0  0  0
  9 38  1  0  0  0  0
  9 39  1  0  0  0  0
 10 11  1  0  0  0  0
 10 40  1  0  0  0  0
 10 41  1  0  0  0  0
 11 12  1  0  0  0  0
 11 42  1  0  0  0  0
 11 43  1  0  0  0  0
 12 13  1  0  0  0  0
 12 44  1  0  0  0  0
 12 45  1  0  0  0  0
 13 14  1  0  0  0  0
 13 46  1  0  0  0  0
 13 47  1  0  0  0  0
 14 15  1  0  0  0  0
 14 48  1  0  0  0  0
 14 49  1  0  0  0  0
 15 16  1  0  0  0  0
 15 50  1  0  0  0  0
 15 51  1  0  0  0  0
 16 17  1  0  0  0  0
 16 52  1  0  0  0  0
 16 53  1  0  0  0  0
 17 18  1  0  0  0  0
 17 54  1  0  0  0  0
 17 55  1  0  0  0  0
 18 19  1  0  0  0  0
 18 56  1  0  0  0  0
 18 57  1  0  0  0  0
 19 20  1  0  0  0  0
 19 58  1  0  0  0  0
 19 59  1  0  0  0  0
 20 21  1  0  0  0  0
 20 60  1  0  0  0  0
 20 61  1  0  0  0  0
 21 22  1  0  0  0  0
 21 62  1  0  0  0  0
 21 63  1  0  0  0  0
 22 23  1  0  0  0  0
 22 64  1  0  0  0  0
 22 65  1  0  0  0  0
 23 24  1  0  0  0  0
 23 66  1  0  0  0  0
 23 67  1  0  0  0  0
 24 25  2  3  0  0  0
 24 68  1  0  0  0  0
 25 26  1  0  0  0  0
 25 69  1  0  0  0  0
 26 27  2  3  0  0  0
 26 70  1  0  0  0  0
 27 71  1  0  0  0  0
M  END
$$$$
