
 OpenBabel04232216473D

181181  0  0  1  0  0  0  0  0999 V2000
    7.9637    8.9431  -24.7950 C   0  0  0  0  0  0  0  0  0  0  0  0
    8.6333    9.9939  -23.9817 C   0  0  3  0  0  0  0  0  0  0  0  0
    7.9658   10.7421  -23.0685 C   0  0  0  0  0  0  0  0  0  0  0  0
    8.1822   11.4962  -24.1167 C   0  0  0  0  0  0  0  0  0  0  0  0
    8.6247   11.9374  -25.4782 C   0  0  0  0  0  0  0  0  0  0  0  0
   10.0449   11.8577  -25.6459 O   0  0  0  0  0  0  0  0  0  0  0  0
   10.4330   12.2353  -26.9725 C   0  0  0  0  0  0  0  0  0  0  0  0
   11.9501   12.1188  -27.1473 C   0  0  0  0  0  0  0  0  0  0  0  0
   12.4895   10.7009  -26.9359 C   0  0  0  0  0  0  0  0  0  0  0  0
   11.8927    9.7033  -27.9268 C   0  0  0  0  0  0  0  0  0  0  0  0
   12.4383    8.2989  -27.7006 C   0  0  0  0  0  0  0  0  0  0  0  0
   11.8139    7.3249  -28.6921 C   0  0  0  0  0  0  0  0  0  0  0  0
   12.3504    5.9101  -28.4765 C   0  0  0  0  0  0  0  0  0  0  0  0
   11.7271    4.9457  -29.4679 C   0  0  0  0  0  0  0  0  0  0  0  0
   12.0551    5.3654  -30.7914 O   0  0  0  0  0  0  0  0  0  0  0  0
   11.4609    4.5275  -31.7707 C   0  0  0  0  0  0  0  0  0  0  0  0
   10.0444    4.5180  -31.6988 O   0  0  0  0  0  0  0  0  0  0  0  0
    9.5284    5.8397  -31.8129 C   0  0  0  0  0  0  0  0  0  0  0  0
    8.1160    5.8617  -31.6553 O   0  0  0  0  0  0  0  0  0  0  0  0
    7.7549    5.3849  -30.3629 C   0  0  0  0  0  0  0  0  0  0  0  0
    6.3444    5.3772  -30.2155 O   0  0  0  0  0  0  0  0  0  0  0  0
    5.7561    4.4930  -31.1677 C   0  0  0  0  0  0  0  0  0  0  0  0
    4.3512    4.5035  -31.0190 O   0  0  0  0  0  0  0  0  0  0  0  0
    3.7565    3.6364  -31.9835 C   0  0  0  0  0  0  0  0  0  0  0  0
    4.2417    2.3138  -31.8099 O   0  0  0  0  0  0  0  0  0  0  0  0
    3.6350    1.4483  -32.7704 C   0  0  0  0  0  0  0  0  0  0  0  0
    3.9777    1.8841  -34.0793 O   0  0  0  0  0  0  0  0  0  0  0  0
    3.3474    1.0325  -35.0471 C   0  0  0  0  0  0  0  0  0  0  0  0
    1.9398    1.0811  -34.8772 O   0  0  0  0  0  0  0  0  0  0  0  0
    1.3130    0.2022  -35.8220 C   0  0  0  0  0  0  0  0  0  0  0  0
    1.7839   -1.1213  -35.6144 O   0  0  0  0  0  0  0  0  0  0  0  0
    1.1971   -1.9917  -36.5895 C   0  0  0  0  0  0  0  0  0  0  0  0
    1.5420   -1.5316  -37.8896 O   0  0  0  0  0  0  0  0  0  0  0  0
    0.9317   -2.3624  -38.8805 C   0  0  0  0  0  0  0  0  0  0  0  0
   -0.4860   -2.3360  -38.7416 O   0  0  0  0  0  0  0  0  0  0  0  0
   -1.0872   -3.1945  -39.7040 C   0  0  0  0  0  0  0  0  0  0  0  0
   -0.6356   -4.5329  -39.5374 O   0  0  0  0  0  0  0  0  0  0  0  0
   -1.1970   -5.3692  -40.5349 C   0  0  0  0  0  0  0  0  0  0  0  0
   -0.8292   -4.9448  -41.8416 O   0  0  0  0  0  0  0  0  0  0  0  0
   -1.4501   -5.7583  -42.8181 C   0  0  0  0  0  0  0  0  0  0  0  0
   -1.0739   -5.2207  -44.1805 C   0  0  0  0  0  0  0  0  0  0  0  0
   -1.6941   -6.0986  -45.2490 C   0  0  0  0  0  0  0  0  0  0  0  0
   -1.3301   -5.5892  -46.6289 C   0  0  0  0  0  0  0  0  0  0  0  0
   -1.9573   -6.4802  -47.6854 C   0  0  0  0  0  0  0  0  0  0  0  0
   -1.5933   -5.9743  -49.0681 C   0  0  0  0  0  0  0  0  0  0  0  0
   -2.2211   -6.8629  -50.1252 C   0  0  0  0  0  0  0  0  0  0  0  0
   -1.8543   -6.3563  -51.5073 C   0  0  0  0  0  0  0  0  0  0  0  0
   -2.4829   -7.2424  -52.5660 C   0  0  0  0  0  0  0  0  0  0  0  0
   -2.1168   -6.7331  -53.9474 C   0  0  0  0  0  0  0  0  0  0  0  0
   -2.7428   -7.6191  -55.0073 C   0  0  0  0  0  0  0  0  0  0  0  0
   -2.3759   -7.1089  -56.3890 C   0  0  0  0  0  0  0  0  0  0  0  0
   -3.0029   -7.9961  -57.4455 C   0  0  0  0  0  0  0  0  0  0  0  0
   -2.6488   -7.4977  -58.8324 C   0  0  0  0  0  0  0  0  0  0  0  0
   -3.2922   -8.3993  -59.8610 C   0  0  0  0  0  0  0  0  0  0  0  0
   -2.9709   -7.9020  -61.1443 O   0  0  0  0  0  0  0  0  0  0  0  0
   -3.5199   -8.7453  -62.1477 C   0  0  0  0  0  0  0  0  0  0  0  0
   -3.1777   -8.2950  -63.4430 O   0  0  0  0  0  0  0  0  0  0  0  0
   -1.7651   -8.2731  -63.6083 C   0  0  0  0  0  0  0  0  0  0  0  0
   -1.4190   -7.7873  -64.8890 O   0  0  0  0  0  0  0  0  0  0  0  0
   -1.8977   -6.4592  -65.0761 C   0  0  0  0  0  0  0  0  0  0  0  0
   -1.5896   -6.0030  -66.3703 O   0  0  0  0  0  0  0  0  0  0  0  0
   -2.1541   -6.8791  -67.3361 C   0  0  0  0  0  0  0  0  0  0  0  0
   -1.8232   -6.4651  -68.6474 O   0  0  0  0  0  0  0  0  0  0  0  0
   -0.4081   -6.4654  -68.8322 C   0  0  0  0  0  0  0  0  0  0  0  0
   -0.0676   -6.0126  -70.1265 O   0  0  0  0  0  0  0  0  0  0  0  0
   -0.5525   -4.6930  -70.3277 C   0  0  0  0  0  0  0  0  0  0  0  0
   -0.2482   -4.2511  -71.6276 O   0  0  0  0  0  0  0  0  0  0  0  0
   -0.8205   -5.1173  -72.6030 C   0  0  0  0  0  0  0  0  0  0  0  0
   -0.4825   -4.7023  -73.9184 O   0  0  0  0  0  0  0  0  0  0  0  0
    0.9304   -4.7153  -74.0850 C   0  0  0  0  0  0  0  0  0  0  0  0
    1.2795   -4.2732  -75.3803 O   0  0  0  0  0  0  0  0  0  0  0  0
    0.7965   -2.9541  -75.5875 C   0  0  0  0  0  0  0  0  0  0  0  0
    1.1452   -2.5163  -76.8909 O   0  0  0  0  0  0  0  0  0  0  0  0
    0.5440   -3.3822  -77.8454 C   0  0  0  0  0  0  0  0  0  0  0  0
    0.8779   -2.9687  -79.1669 O   0  0  0  0  0  0  0  0  0  0  0  0
    0.2381   -3.8058  -80.1326 C   0  0  0  0  0  0  0  0  0  0  0  0
   -1.1857   -3.7965  -80.0383 O   0  0  0  0  0  0  0  0  0  0  0  0
   -1.7069   -2.4809  -80.1811 C   0  0  0  0  0  0  0  0  0  0  0  0
   -3.1130   -2.4871  -80.0032 O   0  0  0  0  0  0  0  0  0  0  0  0
    8.1744    7.9580  -24.3702 H   0  0  0  0  0  0  0  0  0  0  0  0
    8.3575    8.9615  -25.8145 H   0  0  0  0  0  0  0  0  0  0  0  0
    6.8785    9.0774  -24.8350 H   0  0  0  0  0  0  0  0  0  0  0  0
    9.7020    9.8264  -23.8643 H   0  0  0  0  0  0  0  0  0  0  0  0
    7.5329   10.6819  -22.0955 H   0  0  0  0  0  0  0  0  0  0  0  0
    8.3076   12.9718  -25.6419 H   0  0  0  0  0  0  0  0  0  0  0  0
    8.1286   11.3215  -26.2356 H   0  0  0  0  0  0  0  0  0  0  0  0
   10.1296   13.2714  -27.1560 H   0  0  0  0  0  0  0  0  0  0  0  0
    9.9172   11.6058  -27.7054 H   0  0  0  0  0  0  0  0  0  0  0  0
   12.4485   12.7870  -26.4349 H   0  0  0  0  0  0  0  0  0  0  0  0
   12.2248   12.4615  -28.1531 H   0  0  0  0  0  0  0  0  0  0  0  0
   12.2857   10.3745  -25.9096 H   0  0  0  0  0  0  0  0  0  0  0  0
   13.5813   10.7128  -27.0513 H   0  0  0  0  0  0  0  0  0  0  0  0
   12.1090   10.0271  -28.9526 H   0  0  0  0  0  0  0  0  0  0  0  0
   10.8034    9.6701  -27.8209 H   0  0  0  0  0  0  0  0  0  0  0  0
   12.2144    7.9740  -26.6780 H   0  0  0  0  0  0  0  0  0  0  0  0
   13.5274    8.2975  -27.8183 H   0  0  0  0  0  0  0  0  0  0  0  0
   12.0296    7.6602  -29.7134 H   0  0  0  0  0  0  0  0  0  0  0  0
   10.7224    7.3262  -28.5804 H   0  0  0  0  0  0  0  0  0  0  0  0
   12.1285    5.5742  -27.4574 H   0  0  0  0  0  0  0  0  0  0  0  0
   13.4383    5.9103  -28.6040 H   0  0  0  0  0  0  0  0  0  0  0  0
   10.6405    4.9420  -29.3259 H   0  0  0  0  0  0  0  0  0  0  0  0
   12.1062    3.9324  -29.3076 H   0  0  0  0  0  0  0  0  0  0  0  0
   11.8329    3.5070  -31.6443 H   0  0  0  0  0  0  0  0  0  0  0  0
   11.7561    4.8794  -32.7636 H   0  0  0  0  0  0  0  0  0  0  0  0
    9.7546    6.2146  -32.8146 H   0  0  0  0  0  0  0  0  0  0  0  0
    9.9578    6.5268  -31.0759 H   0  0  0  0  0  0  0  0  0  0  0  0
    8.1716    6.0487  -29.5984 H   0  0  0  0  0  0  0  0  0  0  0  0
    8.1373    4.3710  -30.1872 H   0  0  0  0  0  0  0  0  0  0  0  0
    6.1613    3.4862  -31.0106 H   0  0  0  0  0  0  0  0  0  0  0  0
    6.0076    4.8336  -32.1799 H   0  0  0  0  0  0  0  0  0  0  0  0
    3.9961    4.0171  -32.9841 H   0  0  0  0  0  0  0  0  0  0  0  0
    2.6735    3.6681  -31.8365 H   0  0  0  0  0  0  0  0  0  0  0  0
    2.5512    1.4586  -32.6071 H   0  0  0  0  0  0  0  0  0  0  0  0
    4.0172    0.4367  -32.6047 H   0  0  0  0  0  0  0  0  0  0  0  0
    3.7429    0.0199  -34.9104 H   0  0  0  0  0  0  0  0  0  0  0  0
    3.6161    1.3980  -36.0426 H   0  0  0  0  0  0  0  0  0  0  0  0
    1.5494    0.5695  -36.8273 H   0  0  0  0  0  0  0  0  0  0  0  0
    0.2317    0.2449  -35.6632 H   0  0  0  0  0  0  0  0  0  0  0  0
    0.1109   -1.9888  -36.4387 H   0  0  0  0  0  0  0  0  0  0  0  0
    1.5835   -3.0027  -36.4326 H   0  0  0  0  0  0  0  0  0  0  0  0
    1.3249   -3.3788  -38.7610 H   0  0  0  0  0  0  0  0  0  0  0  0
    1.2126   -1.9821  -39.8671 H   0  0  0  0  0  0  0  0  0  0  0  0
   -0.8369   -2.8128  -40.7008 H   0  0  0  0  0  0  0  0  0  0  0  0
   -2.1720   -3.1573  -39.5697 H   0  0  0  0  0  0  0  0  0  0  0  0
   -2.2869   -5.3748  -40.4188 H   0  0  0  0  0  0  0  0  0  0  0  0
   -0.8178   -6.3835  -40.3768 H   0  0  0  0  0  0  0  0  0  0  0  0
   -2.5391   -5.7377  -42.6903 H   0  0  0  0  0  0  0  0  0  0  0  0
   -1.0914   -6.7862  -42.7008 H   0  0  0  0  0  0  0  0  0  0  0  0
    0.0182   -5.1930  -44.2829 H   0  0  0  0  0  0  0  0  0  0  0  0
   -1.4137   -4.1820  -44.2829 H   0  0  0  0  0  0  0  0  0  0  0  0
   -2.7849   -6.1122  -45.1319 H   0  0  0  0  0  0  0  0  0  0  0  0
   -1.3439   -7.1315  -45.1288 H   0  0  0  0  0  0  0  0  0  0  0  0
   -0.2398   -5.5781  -46.7478 H   0  0  0  0  0  0  0  0  0  0  0  0
   -1.6824   -4.5579  -46.7518 H   0  0  0  0  0  0  0  0  0  0  0  0
   -3.0479   -6.4918  -47.5665 H   0  0  0  0  0  0  0  0  0  0  0  0
   -1.6073   -7.5126  -47.5610 H   0  0  0  0  0  0  0  0  0  0  0  0
   -0.5029   -5.9648  -49.1872 H   0  0  0  0  0  0  0  0  0  0  0  0
   -1.9427   -4.9419  -49.1921 H   0  0  0  0  0  0  0  0  0  0  0  0
   -3.3117   -6.8715  -50.0073 H   0  0  0  0  0  0  0  0  0  0  0  0
   -1.8729   -7.8957  -50.0002 H   0  0  0  0  0  0  0  0  0  0  0  0
   -0.7637   -6.3487  -51.6255 H   0  0  0  0  0  0  0  0  0  0  0  0
   -2.2011   -5.3229  -51.6308 H   0  0  0  0  0  0  0  0  0  0  0  0
   -3.5735   -7.2508  -52.4473 H   0  0  0  0  0  0  0  0  0  0  0  0
   -2.1351   -8.2755  -52.4435 H   0  0  0  0  0  0  0  0  0  0  0  0
   -1.0263   -6.7233  -54.0653 H   0  0  0  0  0  0  0  0  0  0  0  0
   -2.4660   -5.7004  -54.0698 H   0  0  0  0  0  0  0  0  0  0  0  0
   -3.8336   -7.6293  -54.8892 H   0  0  0  0  0  0  0  0  0  0  0  0
   -2.3942   -8.6520  -54.8846 H   0  0  0  0  0  0  0  0  0  0  0  0
   -1.2856   -7.1001  -56.5075 H   0  0  0  0  0  0  0  0  0  0  0  0
   -2.7259   -6.0768  -56.5120 H   0  0  0  0  0  0  0  0  0  0  0  0
   -4.0933   -8.0080  -57.3234 H   0  0  0  0  0  0  0  0  0  0  0  0
   -2.6536   -9.0288  -57.3211 H   0  0  0  0  0  0  0  0  0  0  0  0
   -1.5605   -7.4802  -58.9750 H   0  0  0  0  0  0  0  0  0  0  0  0
   -2.9892   -6.4645  -58.9753 H   0  0  0  0  0  0  0  0  0  0  0  0
   -4.3809   -8.3983  -59.7425 H   0  0  0  0  0  0  0  0  0  0  0  0
   -2.9168   -9.4239  -59.7547 H   0  0  0  0  0  0  0  0  0  0  0  0
   -4.6108   -8.7265  -62.0685 H   0  0  0  0  0  0  0  0  0  0  0  0
   -3.1662   -9.7748  -62.0275 H   0  0  0  0  0  0  0  0  0  0  0  0
   -1.3733   -9.2902  -63.5097 H   0  0  0  0  0  0  0  0  0  0  0  0
   -1.2839   -7.6350  -62.8579 H   0  0  0  0  0  0  0  0  0  0  0  0
   -1.4281   -5.7925  -64.3479 H   0  0  0  0  0  0  0  0  0  0  0  0
   -2.9852   -6.4176  -64.9489 H   0  0  0  0  0  0  0  0  0  0  0  0
   -3.2452   -6.8592  -67.2469 H   0  0  0  0  0  0  0  0  0  0  0  0
   -1.8086   -7.9114  -67.2102 H   0  0  0  0  0  0  0  0  0  0  0  0
   -0.0253   -7.4831  -68.7092 H   0  0  0  0  0  0  0  0  0  0  0  0
    0.0827   -5.8135  -68.0997 H   0  0  0  0  0  0  0  0  0  0  0  0
   -0.0798   -4.0130  -69.6123 H   0  0  0  0  0  0  0  0  0  0  0  0
   -1.6395   -4.6456  -70.1958 H   0  0  0  0  0  0  0  0  0  0  0  0
   -1.9112   -5.0960  -72.5103 H   0  0  0  0  0  0  0  0  0  0  0  0
   -0.4781   -6.1508  -72.4720 H   0  0  0  0  0  0  0  0  0  0  0  0
    1.3060   -5.7352  -73.9569 H   0  0  0  0  0  0  0  0  0  0  0  0
    1.4200   -4.0629  -73.3529 H   0  0  0  0  0  0  0  0  0  0  0  0
    1.2578   -2.2727  -74.8668 H   0  0  0  0  0  0  0  0  0  0  0  0
   -0.2946   -2.9007  -75.4703 H   0  0  0  0  0  0  0  0  0  0  0  0
   -0.5448   -3.3530  -77.7075 H   0  0  0  0  0  0  0  0  0  0  0  0
    0.8977   -4.4097  -77.7110 H   0  0  0  0  0  0  0  0  0  0  0  0
    0.5921   -4.8352  -80.0046 H   0  0  0  0  0  0  0  0  0  0  0  0
    0.5315   -3.4741  -81.1328 H   0  0  0  0  0  0  0  0  0  0  0  0
   -1.4614   -2.0889  -81.1715 H   0  0  0  0  0  0  0  0  0  0  0  0
   -1.2888   -1.8109  -79.4206 H   0  0  0  0  0  0  0  0  0  0  0  0
   -3.4775   -2.9612  -80.7685 H   0  0  0  0  0  0  0  0  0  0  0  0
  1  2  1  0  0  0  0
  1 80  1  0  0  0  0
  1 81  1  0  0  0  0
  1 82  1  0  0  0  0
  2  3  1  0  0  0  0
  2  4  1  0  0  0  0
  2 83  1  0  0  0  0
  3  4  2  0  0  0  0
  3 84  1  0  0  0  0
  4  5  1  0  0  0  0
  5  6  1  0  0  0  0
  5 85  1  0  0  0  0
  5 86  1  0  0  0  0
  6  7  1  0  0  0  0
  7  8  1  0  0  0  0
  7 87  1  0  0  0  0
  7 88  1  0  0  0  0
  8  9  1  0  0  0  0
  8 89  1  0  0  0  0
  8 90  1  0  0  0  0
  9 10  1  0  0  0  0
  9 91  1  0  0  0  0
  9 92  1  0  0  0  0
 10 11  1  0  0  0  0
 10 93  1  0  0  0  0
 10 94  1  0  0  0  0
 11 12  1  0  0  0  0
 11 95  1  0  0  0  0
 11 96  1  0  0  0  0
 12 13  1  0  0  0  0
 12 97  1  0  0  0  0
 12 98  1  0  0  0  0
 13 14  1  0  0  0  0
 13 99  1  0  0  0  0
 13100  1  0  0  0  0
 14 15  1  0  0  0  0
 14101  1  0  0  0  0
 14102  1  0  0  0  0
 15 16  1  0  0  0  0
 16 17  1  0  0  0  0
 16103  1  0  0  0  0
 16104  1  0  0  0  0
 17 18  1  0  0  0  0
 18 19  1  0  0  0  0
 18105  1  0  0  0  0
 18106  1  0  0  0  0
 19 20  1  0  0  0  0
 20 21  1  0  0  0  0
 20107  1  0  0  0  0
 20108  1  0  0  0  0
 21 22  1  0  0  0  0
 22 23  1  0  0  0  0
 22109  1  0  0  0  0
 22110  1  0  0  0  0
 23 24  1  0  0  0  0
 24 25  1  0  0  0  0
 24111  1  0  0  0  0
 24112  1  0  0  0  0
 25 26  1  0  0  0  0
 26 27  1  0  0  0  0
 26113  1  0  0  0  0
 26114  1  0  0  0  0
 27 28  1  0  0  0  0
 28 29  1  0  0  0  0
 28115  1  0  0  0  0
 28116  1  0  0  0  0
 29 30  1  0  0  0  0
 30 31  1  0  0  0  0
 30117  1  0  0  0  0
 30118  1  0  0  0  0
 31 32  1  0  0  0  0
 32 33  1  0  0  0  0
 32119  1  0  0  0  0
 32120  1  0  0  0  0
 33 34  1  0  0  0  0
 34 35  1  0  0  0  0
 34121  1  0  0  0  0
 34122  1  0  0  0  0
 35 36  1  0  0  0  0
 36 37  1  0  0  0  0
 36123  1  0  0  0  0
 36124  1  0  0  0  0
 37 38  1  0  0  0  0
 38 39  1  0  0  0  0
 38125  1  0  0  0  0
 38126  1  0  0  0  0
 39 40  1  0  0  0  0
 40 41  1  0  0  0  0
 40127  1  0  0  0  0
 40128  1  0  0  0  0
 41 42  1  0  0  0  0
 41129  1  0  0  0  0
 41130  1  0  0  0  0
 42 43  1  0  0  0  0
 42131  1  0  0  0  0
 42132  1  0  0  0  0
 43 44  1  0  0  0  0
 43133  1  0  0  0  0
 43134  1  0  0  0  0
 44 45  1  0  0  0  0
 44135  1  0  0  0  0
 44136  1  0  0  0  0
 45 46  1  0  0  0  0
 45137  1  0  0  0  0
 45138  1  0  0  0  0
 46 47  1  0  0  0  0
 46139  1  0  0  0  0
 46140  1  0  0  0  0
 47 48  1  0  0  0  0
 47141  1  0  0  0  0
 47142  1  0  0  0  0
 48 49  1  0  0  0  0
 48143  1  0  0  0  0
 48144  1  0  0  0  0
 49 50  1  0  0  0  0
 49145  1  0  0  0  0
 49146  1  0  0  0  0
 50 51  1  0  0  0  0
 50147  1  0  0  0  0
 50148  1  0  0  0  0
 51 52  1  0  0  0  0
 51149  1  0  0  0  0
 51150  1  0  0  0  0
 52 53  1  0  0  0  0
 52151  1  0  0  0  0
 52152  1  0  0  0  0
 53 54  1  0  0  0  0
 53153  1  0  0  0  0
 53154  1  0  0  0  0
 54 55  1  0  0  0  0
 54155  1  0  0  0  0
 54156  1  0  0  0  0
 55 56  1  0  0  0  0
 56 57  1  0  0  0  0
 56157  1  0  0  0  0
 56158  1  0  0  0  0
 57 58  1  0  0  0  0
 58 59  1  0  0  0  0
 58159  1  0  0  0  0
 58160  1  0  0  0  0
 59 60  1  0  0  0  0
 60 61  1  0  0  0  0
 60161  1  0  0  0  0
 60162  1  0  0  0  0
 61 62  1  0  0  0  0
 62 63  1  0  0  0  0
 62163  1  0  0  0  0
 62164  1  0  0  0  0
 63 64  1  0  0  0  0
 64 65  1  0  0  0  0
 64165  1  0  0  0  0
 64166  1  0  0  0  0
 65 66  1  0  0  0  0
 66 67  1  0  0  0  0
 66167  1  0  0  0  0
 66168  1  0  0  0  0
 67 68  1  0  0  0  0
 68 69  1  0  0  0  0
 68169  1  0  0  0  0
 68170  1  0  0  0  0
 69 70  1  0  0  0  0
 70 71  1  0  0  0  0
 70171  1  0  0  0  0
 70172  1  0  0  0  0
 71 72  1  0  0  0  0
 72 73  1  0  0  0  0
 72173  1  0  0  0  0
 72174  1  0  0  0  0
 73 74  1  0  0  0  0
 74 75  1  0  0  0  0
 74175  1  0  0  0  0
 74176  1  0  0  0  0
 75 76  1  0  0  0  0
 76 77  1  0  0  0  0
 76177  1  0  0  0  0
 76178  1  0  0  0  0
 77 78  1  0  0  0  0
 78 79  1  0  0  0  0
 78179  1  0  0  0  0
 78180  1  0  0  0  0
 79181  1  0  0  0  0
M  END
$$$$
