
 OpenBabel04232216583D

133132  0  0  0  0  0  0  0  0999 V2000
   15.9429   17.6217   12.2735 N   0  0  0  0  0  0  0  0  0  0  0  0
   17.3593   17.4252   12.2577 N   0  0  0  0  0  0  0  0  0  0  0  0
   17.7188   16.3699   11.3688 N   0  0  0  0  0  0  0  0  0  0  0  0
   17.2887   16.6387   10.0273 N   0  0  0  0  0  0  0  0  0  0  0  0
   17.8872   17.8504    9.5529 N   0  0  0  0  0  0  0  0  0  0  0  0
   19.2990   17.6975    9.5807 N   0  0  0  0  0  0  0  0  0  0  0  0
   19.6540   16.5993    8.7314 N   0  0  0  0  0  0  0  0  0  0  0  0
   19.1960   16.8663    7.3913 N   0  0  0  0  0  0  0  0  0  0  0  0
   19.7827   18.0818    6.8934 N   0  0  0  0  0  0  0  0  0  0  0  0
   21.2172   17.9605    6.8974 N   0  0  0  0  0  0  0  0  0  0  0  0
   21.6078   16.8558    6.0464 N   0  0  0  0  0  0  0  0  0  0  0  0
   21.1422   17.0853    4.7031 N   0  0  0  0  0  0  0  0  0  0  0  0
   21.7061   18.2908    4.2047 N   0  0  0  0  0  0  0  0  0  0  0  0
   23.1164   18.1985    4.2309 N   0  0  0  0  0  0  0  0  0  0  0  0
   23.5237   17.1130    3.3991 N   0  0  0  0  0  0  0  0  0  0  0  0
   23.0824   17.3226    2.0335 N   0  0  0  0  0  0  0  0  0  0  0  0
   23.6186   18.5605    1.5098 N   0  0  0  0  0  0  0  0  0  0  0  0
   25.0472   18.4683    1.5605 N   0  0  0  0  0  0  0  0  0  0  0  0
   25.4373   17.3450    0.7644 N   0  0  0  0  0  0  0  0  0  0  0  0
   24.9635   17.5361   -0.5686 N   0  0  0  0  0  0  0  0  0  0  0  0
   25.4887   18.7620   -1.0950 N   0  0  0  0  0  0  0  0  0  0  0  0
   26.9422   18.7136   -1.1344 N   0  0  0  0  0  0  0  0  0  0  0  0
   27.3721   17.5904   -1.9277 N   0  0  0  0  0  0  0  0  0  0  0  0
   26.8670   17.7520   -3.2578 N   0  0  0  0  0  0  0  0  0  0  0  0
   27.4000   18.9752   -3.8041 N   0  0  0  0  0  0  0  0  0  0  0  0
   28.8318   18.9457   -3.7755 N   0  0  0  0  0  0  0  0  0  0  0  0
   29.3076   17.8582   -4.5797 N   0  0  0  0  0  0  0  0  0  0  0  0
   28.8588   17.9974   -5.9435 N   0  0  0  0  0  0  0  0  0  0  0  0
   29.3139   19.2459   -6.4735 N   0  0  0  0  0  0  0  0  0  0  0  0
   30.7359   19.2199   -6.4307 N   0  0  0  0  0  0  0  0  0  0  0  0
   31.1891   18.0917   -7.1926 N   0  0  0  0  0  0  0  0  0  0  0  0
   30.7496   18.2127   -8.5628 N   0  0  0  0  0  0  0  0  0  0  0  0
   31.2183   19.4506   -9.1476 N   0  0  0  0  0  0  0  0  0  0  0  0
   32.6428   19.4553   -9.1252 N   0  0  0  0  0  0  0  0  0  0  0  0
   33.1302   18.3410   -9.8815 N   0  0  0  0  0  0  0  0  0  0  0  0
   32.6599   18.4390  -11.2302 N   0  0  0  0  0  0  0  0  0  0  0  0
   33.1176   19.6638  -11.8304 N   0  0  0  0  0  0  0  0  0  0  0  0
   34.5452   19.7040  -11.8267 N   0  0  0  0  0  0  0  0  0  0  0  0
   35.0317   18.5686  -12.5240 N   0  0  0  0  0  0  0  0  0  0  0  0
   34.5646   18.6520  -13.8790 N   0  0  0  0  0  0  0  0  0  0  0  0
   34.9841   19.8914  -14.4820 N   0  0  0  0  0  0  0  0  0  0  0  0
   36.4253   19.9597  -14.5219 N   0  0  0  0  0  0  0  0  0  0  0  0
   36.9422   18.8411  -15.2351 N   0  0  0  0  0  0  0  0  0  0  0  0
   36.4358   18.8896  -16.5639 N   0  0  0  0  0  0  0  0  0  0  0  0
   36.8623   20.1223  -17.1867 N   0  0  0  0  0  0  0  0  0  0  0  0
   38.3089   20.2119  -17.1713 N   0  0  0  0  0  0  0  0  0  0  0  0
   38.8214   19.0753  -17.8796 N   0  0  0  0  0  0  0  0  0  0  0  0
   38.3338   19.1206  -19.2467 N   0  0  0  0  0  0  0  0  0  0  0  0
   38.7394   20.3511  -19.9006 N   0  0  0  0  0  0  0  0  0  0  0  0
   40.1578   20.4569  -19.8852 N   0  0  0  0  0  0  0  0  0  0  0  0
   40.6988   19.3382  -20.5983 N   0  0  0  0  0  0  0  0  0  0  0  0
   40.1990   19.3577  -21.9538 N   0  0  0  0  0  0  0  0  0  0  0  0
   40.5628   20.5909  -22.5949 N   0  0  0  0  0  0  0  0  0  0  0  0
   41.9918   20.7167  -22.5797 N   0  0  0  0  0  0  0  0  0  0  0  0
   42.5690   19.6003  -23.2948 N   0  0  0  0  0  0  0  0  0  0  0  0
   42.0710   19.5756  -24.6461 N   0  0  0  0  0  0  0  0  0  0  0  0
   42.4268   20.7992  -25.3181 N   0  0  0  0  0  0  0  0  0  0  0  0
   43.8424   20.9439  -25.3308 N   0  0  0  0  0  0  0  0  0  0  0  0
   44.4192   19.8448  -26.0497 N   0  0  0  0  0  0  0  0  0  0  0  0
   45.8484   19.9800  -26.0013 C   0  0  0  0  0  0  0  0  0  0  0  0
   46.3711   19.9534  -24.6294 N   0  0  0  0  0  0  0  0  0  0  0  0
   46.0032   18.7260  -23.9550 N   0  0  0  0  0  0  0  0  0  0  0  0
   46.5978   17.5990  -24.6874 C   0  0  0  0  0  0  0  0  0  0  0  0
   46.2154   16.3084  -24.0106 C   0  0  0  0  0  0  0  0  0  0  0  0
   15.6807   18.3877   12.9050 H   0  0  0  0  0  0  0  0  0  0  0  0
   15.4689   16.7862   12.6339 H   0  0  0  0  0  0  0  0  0  0  0  0
   17.7529   17.2279   13.1769 H   0  0  0  0  0  0  0  0  0  0  0  0
   17.3371   15.4797   11.6589 H   0  0  0  0  0  0  0  0  0  0  0  0
   16.2895   16.7809   10.0427 H   0  0  0  0  0  0  0  0  0  0  0  0
   17.6134   18.6160   10.1643 H   0  0  0  0  0  0  0  0  0  0  0  0
   19.6172   17.5116   10.5433 H   0  0  0  0  0  0  0  0  0  0  0  0
   19.2249   15.7237    9.0828 H   0  0  0  0  0  0  0  0  0  0  0  0
   18.1786   16.9883    7.3972 H   0  0  0  0  0  0  0  0  0  0  0  0
   19.5336   18.8428    7.5169 H   0  0  0  0  0  0  0  0  0  0  0  0
   21.5080   17.7751    7.8623 H   0  0  0  0  0  0  0  0  0  0  0  0
   21.1474   16.0138    6.3879 H   0  0  0  0  0  0  0  0  0  0  0  0
   20.1326   17.1845    4.7079 H   0  0  0  0  0  0  0  0  0  0  0  0
   21.4348   19.0738    4.7877 H   0  0  0  0  0  0  0  0  0  0  0  0
   23.4310   18.0478    5.1998 H   0  0  0  0  0  0  0  0  0  0  0  0
   23.0878   16.2522    3.7362 H   0  0  0  0  0  0  0  0  0  0  0  0
   22.0657   17.4126    2.0699 H   0  0  0  0  0  0  0  0  0  0  0  0
   23.2822   19.2891    2.1521 H   0  0  0  0  0  0  0  0  0  0  0  0
   25.2869   18.2682    2.5380 H   0  0  0  0  0  0  0  0  0  0  0  0
   25.0072   16.5007    1.1250 H   0  0  0  0  0  0  0  0  0  0  0  0
   23.9408   17.5660   -0.5953 H   0  0  0  0  0  0  0  0  0  0  0  0
   25.1672   19.5501   -0.5110 H   0  0  0  0  0  0  0  0  0  0  0  0
   27.2899   18.5483   -0.1952 H   0  0  0  0  0  0  0  0  0  0  0  0
   26.9733   16.7389   -1.5344 H   0  0  0  0  0  0  0  0  0  0  0  0
   25.8388   17.8020   -3.2012 H   0  0  0  0  0  0  0  0  0  0  0  0
   27.1142   19.7497   -3.2050 H   0  0  0  0  0  0  0  0  0  0  0  0
   29.1460   18.8478   -2.7966 H   0  0  0  0  0  0  0  0  0  0  0  0
   28.9215   16.9905   -4.2041 H   0  0  0  0  0  0  0  0  0  0  0  0
   27.8438   18.0352   -5.9161 H   0  0  0  0  0  0  0  0  0  0  0  0
   28.9450   19.9667   -5.8420 H   0  0  0  0  0  0  0  0  0  0  0  0
   31.0319   19.0503   -5.4778 H   0  0  0  0  0  0  0  0  0  0  0  0
   30.8040   17.2348   -6.7651 H   0  0  0  0  0  0  0  0  0  0  0  0
   29.7337   18.2425   -8.5790 H   0  0  0  0  0  0  0  0  0  0  0  0
   30.8560   20.2117   -8.5638 H   0  0  0  0  0  0  0  0  0  0  0  0
   32.9478   19.3263   -8.1659 H   0  0  0  0  0  0  0  0  0  0  0  0
   32.7607   17.4839   -9.4455 H   0  0  0  0  0  0  0  0  0  0  0  0
   31.6397   18.4490  -11.2285 H   0  0  0  0  0  0  0  0  0  0  0  0
   32.7475   20.4422  -11.2736 H   0  0  0  0  0  0  0  0  0  0  0  0
   34.8527   19.5962  -10.8653 H   0  0  0  0  0  0  0  0  0  0  0  0
   34.6518   17.7290  -12.0770 H   0  0  0  0  0  0  0  0  0  0  0  0
   33.5479   18.6822  -13.8562 H   0  0  0  0  0  0  0  0  0  0  0  0
   34.5977   20.6491  -13.8946 H   0  0  0  0  0  0  0  0  0  0  0  0
   36.7463   19.8716  -13.5584 H   0  0  0  0  0  0  0  0  0  0  0  0
   36.5688   18.0061  -14.7742 H   0  0  0  0  0  0  0  0  0  0  0  0
   35.4076   18.8647  -16.4807 H   0  0  0  0  0  0  0  0  0  0  0  0
   36.5173   20.8799  -16.6019 H   0  0  0  0  0  0  0  0  0  0  0  0
   38.5627   20.1397  -16.1736 H   0  0  0  0  0  0  0  0  0  0  0  0
   38.4615   18.2298  -17.4227 H   0  0  0  0  0  0  0  0  0  0  0  0
   37.3144   19.1178  -19.2333 H   0  0  0  0  0  0  0  0  0  0  0  0
   38.3486   21.1113  -19.3341 H   0  0  0  0  0  0  0  0  0  0  0  0
   40.4424   20.4331  -18.8954 H   0  0  0  0  0  0  0  0  0  0  0  0
   40.3606   18.4822  -20.1332 H   0  0  0  0  0  0  0  0  0  0  0  0
   39.1798   19.3365  -21.9046 H   0  0  0  0  0  0  0  0  0  0  0  0
   40.1870   21.3387  -22.0242 H   0  0  0  0  0  0  0  0  0  0  0  0
   42.2765   20.6513  -21.6000 H   0  0  0  0  0  0  0  0  0  0  0  0
   42.2514   18.7487  -22.8053 H   0  0  0  0  0  0  0  0  0  0  0  0
   41.0394   19.4876  -24.6163 H   0  0  0  0  0  0  0  0  0  0  0  0
   42.0145   21.5821  -24.7876 H   0  0  0  0  0  0  0  0  0  0  0  0
   44.1621   20.8944  -24.3529 H   0  0  0  0  0  0  0  0  0  0  0  0
   44.0545   19.8145  -26.9838 H   0  0  0  0  0  0  0  0  0  0  0  0
   46.1560   20.8963  -26.5088 H   0  0  0  0  0  0  0  0  0  0  0  0
   46.3017   19.1852  -26.6017 H   0  0  0  0  0  0  0  0  0  0  0  0
   45.9856   20.7466  -24.1234 H   0  0  0  0  0  0  0  0  0  0  0  0
   44.9872   18.6382  -23.9769 H   0  0  0  0  0  0  0  0  0  0  0  0
   47.6884   17.6960  -24.7303 H   0  0  0  0  0  0  0  0  0  0  0  0
   46.2218   17.5249  -25.7129 H   0  0  0  0  0  0  0  0  0  0  0  0
   46.5913   16.2981  -22.9866 H   0  0  0  0  0  0  0  0  0  0  0  0
   46.6444   15.4611  -24.5537 H   0  0  0  0  0  0  0  0  0  0  0  0
   45.1267   16.1921  -23.9959 H   0  0  0  0  0  0  0  0  0  0  0  0
  1  2  1  0  0  0  0
  1 65  1  0  0  0  0
  1 66  1  0  0  0  0
  2  3  1  0  0  0  0
  2 67  1  0  0  0  0
  3  4  1  0  0  0  0
  3 68  1  0  0  0  0
  4  5  1  0  0  0  0
  4 69  1  0  0  0  0
  5  6  1  0  0  0  0
  5 70  1  0  0  0  0
  6  7  1  0  0  0  0
  6 71  1  0  0  0  0
  7  8  1  0  0  0  0
  7 72  1  0  0  0  0
  8  9  1  0  0  0  0
  8 73  1  0  0  0  0
  9 10  1  0  0  0  0
  9 74  1  0  0  0  0
 10 11  1  0  0  0  0
 10 75  1  0  0  0  0
 11 12  1  0  0  0  0
 11 76  1  0  0  0  0
 12 13  1  0  0  0  0
 12 77  1  0  0  0  0
 13 14  1  0  0  0  0
 13 78  1  0  0  0  0
 14 15  1  0  0  0  0
 14 79  1  0  0  0  0
 15 16  1  0  0  0  0
 15 80  1  0  0  0  0
 16 17  1  0  0  0  0
 16 81  1  0  0  0  0
 17 18  1  0  0  0  0
 17 82  1  0  0  0  0
 18 19  1  0  0  0  0
 18 83  1  0  0  0  0
 19 20  1  0  0  0  0
 19 84  1  0  0  0  0
 20 21  1  0  0  0  0
 20 85  1  0  0  0  0
 21 22  1  0  0  0  0
 21 86  1  0  0  0  0
 22 23  1  0  0  0  0
 22 87  1  0  0  0  0
 23 24  1  0  0  0  0
 23 88  1  0  0  0  0
 24 25  1  0  0  0  0
 24 89  1  0  0  0  0
 25 26  1  0  0  0  0
 25 90  1  0  0  0  0
 26 27  1  0  0  0  0
 26 91  1  0  0  0  0
 27 28  1  0  0  0  0
 27 92  1  0  0  0  0
 28 29  1  0  0  0  0
 28 93  1  0  0  0  0
 29 30  1  0  0  0  0
 29 94  1  0  0  0  0
 30 31  1  0  0  0  0
 30 95  1  0  0  0  0
 31 32  1  0  0  0  0
 31 96  1  0  0  0  0
 32 33  1  0  0  0  0
 32 97  1  0  0  0  0
 33 34  1  0  0  0  0
 33 98  1  0  0  0  0
 34 35  1  0  0  0  0
 34 99  1  0  0  0  0
 35 36  1  0  0  0  0
 35100  1  0  0  0  0
 36 37  1  0  0  0  0
 36101  1  0  0  0  0
 37 38  1  0  0  0  0
 37102  1  0  0  0  0
 38 39  1  0  0  0  0
 38103  1  0  0  0  0
 39 40  1  0  0  0  0
 39104  1  0  0  0  0
 40 41  1  0  0  0  0
 40105  1  0  0  0  0
 41 42  1  0  0  0  0
 41106  1  0  0  0  0
 42 43  1  0  0  0  0
 42107  1  0  0  0  0
 43 44  1  0  0  0  0
 43108  1  0  0  0  0
 44 45  1  0  0  0  0
 44109  1  0  0  0  0
 45 46  1  0  0  0  0
 45110  1  0  0  0  0
 46 47  1  0  0  0  0
 46111  1  0  0  0  0
 47 48  1  0  0  0  0
 47112  1  0  0  0  0
 48 49  1  0  0  0  0
 48113  1  0  0  0  0
 49 50  1  0  0  0  0
 49114  1  0  0  0  0
 50 51  1  0  0  0  0
 50115  1  0  0  0  0
 51 52  1  0  0  0  0
 51116  1  0  0  0  0
 52 53  1  0  0  0  0
 52117  1  0  0  0  0
 53 54  1  0  0  0  0
 53118  1  0  0  0  0
 54 55  1  0  0  0  0
 54119  1  0  0  0  0
 55 56  1  0  0  0  0
 55120  1  0  0  0  0
 56 57  1  0  0  0  0
 56121  1  0  0  0  0
 57 58  1  0  0  0  0
 57122  1  0  0  0  0
 58 59  1  0  0  0  0
 58123  1  0  0  0  0
 59 60  1  0  0  0  0
 59124  1  0  0  0  0
 60 61  1  0  0  0  0
 60125  1  0  0  0  0
 60126  1  0  0  0  0
 61 62  1  0  0  0  0
 61127  1  0  0  0  0
 62 63  1  0  0  0  0
 62128  1  0  0  0  0
 63 64  1  0  0  0  0
 63129  1  0  0  0  0
 63130  1  0  0  0  0
 64131  1  0  0  0  0
 64132  1  0  0  0  0
 64133  1  0  0  0  0
M  END
$$$$
