
 OpenBabel04232216593D

136135  0  0  0  0  0  0  0  0999 V2000
   13.5225  -42.6368  -13.5945 O   0  0  0  0  0  0  0  0  0  0  0  0
   12.6466  -42.8266  -14.4383 C   0  0  0  0  0  0  0  0  0  0  0  0
   11.1789  -42.7973  -14.1506 C   0  0  0  0  0  0  0  0  0  0  0  0
   12.8330  -43.0958  -15.7589 O   0  0  0  0  0  0  0  0  0  0  0  0
   14.2538  -43.0655  -16.0081 O   0  0  0  0  0  0  0  0  0  0  0  0
   14.7226  -44.3959  -16.3926 O   0  0  0  0  0  0  0  0  0  0  0  0
   16.1685  -44.4543  -16.3887 O   0  0  0  0  0  0  0  0  0  0  0  0
   16.6408  -44.2880  -15.0430 O   0  0  0  0  0  0  0  0  0  0  0  0
   18.0127  -43.9059  -15.0768 O   0  0  0  0  0  0  0  0  0  0  0  0
   18.4159  -43.4931  -13.7865 O   0  0  0  0  0  0  0  0  0  0  0  0
   19.8268  -43.6241  -13.6864 O   0  0  0  0  0  0  0  0  0  0  0  0
   20.2182  -43.2899  -12.3579 O   0  0  0  0  0  0  0  0  0  0  0  0
   21.6237  -43.2134  -12.3157 O   0  0  0  0  0  0  0  0  0  0  0  0
   22.0028  -42.7567  -11.0321 O   0  0  0  0  0  0  0  0  0  0  0  0
   23.3992  -42.6077  -11.0199 O   0  0  0  0  0  0  0  0  0  0  0  0
   23.8118  -42.4884   -9.6825 O   0  0  0  0  0  0  0  0  0  0  0  0
   25.2141  -42.4539   -9.6710 O   0  0  0  0  0  0  0  0  0  0  0  0
   25.6172  -41.9427   -8.4290 O   0  0  0  0  0  0  0  0  0  0  0  0
   27.0178  -41.8831   -8.4315 O   0  0  0  0  0  0  0  0  0  0  0  0
   27.4291  -41.6819   -7.1081 O   0  0  0  0  0  0  0  0  0  0  0  0
   28.8197  -41.5411   -7.1117 O   0  0  0  0  0  0  0  0  0  0  0  0
   29.1972  -41.1745   -5.8133 O   0  0  0  0  0  0  0  0  0  0  0  0
   30.5929  -41.1769   -5.7485 O   0  0  0  0  0  0  0  0  0  0  0  0
   30.9422  -40.8214   -4.4400 O   0  0  0  0  0  0  0  0  0  0  0  0
   32.3345  -40.6740   -4.3977 O   0  0  0  0  0  0  0  0  0  0  0  0
   32.6957  -40.3835   -3.0634 O   0  0  0  0  0  0  0  0  0  0  0  0
   34.0754  -40.3328   -3.1350 C   0  0  0  0  0  0  0  0  0  0  0  0
   34.4884  -39.9807   -1.8538 O   0  0  0  0  0  0  0  0  0  0  0  0
   35.9046  -39.9756   -1.9385 O   0  0  0  0  0  0  0  0  0  0  0  0
   36.2700  -39.6551   -0.6134 C   0  0  0  0  0  0  0  0  0  0  0  0
   37.6580  -39.6579   -0.5405 O   0  0  0  0  0  0  0  0  0  0  0  0
   37.9439  -39.3005    0.8213 O   0  0  0  0  0  0  0  0  0  0  0  0
   39.3513  -39.1763    0.8130 C   0  0  0  0  0  0  0  0  0  0  0  0
   39.7571  -38.1614   -0.0774 O   0  0  0  0  0  0  0  0  0  0  0  0
   41.2006  -38.2490   -0.1320 O   0  0  0  0  0  0  0  0  0  0  0  0
   41.5590  -37.2064   -1.0259 C   0  0  0  0  0  0  0  0  0  0  0  0
   41.0431  -35.9604   -0.5865 O   0  0  0  0  0  0  0  0  0  0  0  0
   41.4029  -35.0179   -1.6205 O   0  0  0  0  0  0  0  0  0  0  0  0
   40.8140  -33.7973   -1.2075 C   0  0  0  0  0  0  0  0  0  0  0  0
   41.2164  -32.7701   -2.0910 O   0  0  0  0  0  0  0  0  0  0  0  0
   40.5893  -31.5608   -1.5896 O   0  0  0  0  0  0  0  0  0  0  0  0
   40.9593  -30.5610   -2.5341 C   0  0  0  0  0  0  0  0  0  0  0  0
   40.4438  -30.8852   -3.8291 O   0  0  0  0  0  0  0  0  0  0  0  0
   40.9187  -29.8223   -4.6924 O   0  0  0  0  0  0  0  0  0  0  0  0
   40.5117  -30.2094   -5.9969 C   0  0  0  0  0  0  0  0  0  0  0  0
   40.9131  -29.2525   -6.9694 O   0  0  0  0  0  0  0  0  0  0  0  0
   42.3665  -29.2369   -6.8923 O   0  0  0  0  0  0  0  0  0  0  0  0
   42.7761  -28.2004   -7.7664 C   0  0  0  0  0  0  0  0  0  0  0  0
   44.5856  -28.1216   -7.8747 S   0  0  0  0  0  0  0  0  0  0  0  0
   44.8816  -29.7269   -8.2347 O   0  0  0  0  0  0  0  0  0  0  0  0
   44.4875  -30.1006   -9.5509 C   0  0  0  0  0  0  0  0  0  0  0  0
   45.0003  -31.7816   -9.9843 S   0  0  0  0  0  0  0  0  0  0  0  0
   44.2594  -31.8502  -11.4794 O   0  0  0  0  0  0  0  0  0  0  0  0
   44.4042  -33.0995  -12.1410 C   0  0  0  0  0  0  0  0  0  0  0  0
   43.5370  -33.1208  -13.7433 S   0  0  0  0  0  0  0  0  0  0  0  0
   44.3613  -31.9174  -14.5670 O   0  0  0  0  0  0  0  0  0  0  0  0
   43.8886  -31.7340  -15.9052 C   0  0  0  0  0  0  0  0  0  0  0  0
   44.6299  -30.5967  -16.6014 C   0  0  0  0  0  0  0  0  0  0  0  0
   44.1119  -30.4745  -17.9276 O   0  0  0  0  0  0  0  0  0  0  0  0
   44.7398  -29.4344  -18.6707 C   0  0  0  0  0  0  0  0  0  0  0  0
   44.1283  -29.3788  -20.0619 C   0  0  0  0  0  0  0  0  0  0  0  0
   44.7567  -28.3380  -20.8050 O   0  0  0  0  0  0  0  0  0  0  0  0
   44.2270  -28.2308  -22.1258 C   0  0  0  0  0  0  0  0  0  0  0  0
   44.9409  -27.1066  -22.8574 C   0  0  0  0  0  0  0  0  0  0  0  0
   44.4122  -27.0101  -24.1603 O   0  0  0  0  0  0  0  0  0  0  0  0
   45.0403  -25.9537  -24.9311 C   0  0  0  0  0  0  0  0  0  0  0  0
   44.4344  -25.8928  -26.3119 C   0  0  0  0  0  0  0  0  0  0  0  0
   45.0624  -24.8585  -27.0454 O   0  0  0  0  0  0  0  0  0  0  0  0
   44.5272  -24.7505  -28.3711 C   0  0  0  0  0  0  0  0  0  0  0  0
   45.2469  -23.6209  -29.0836 C   0  0  0  0  0  0  0  0  0  0  0  0
   44.7268  -23.5093  -30.4027 O   0  0  0  0  0  0  0  0  0  0  0  0
   45.3716  -22.4617  -31.1192 C   0  0  0  0  0  0  0  0  0  0  0  0
   44.7755  -22.3836  -32.5140 C   0  0  0  0  0  0  0  0  0  0  0  0
   45.4404  -21.2720  -33.3176 C   0  0  0  0  0  0  0  0  0  0  0  0
   44.8606  -21.1685  -34.7250 C   0  0  0  0  0  0  0  0  0  0  0  0
   45.5449  -20.0468  -35.5042 C   0  0  0  0  0  0  0  0  0  0  0  0
   44.9803  -19.9272  -36.9167 C   0  0  0  0  0  0  0  0  0  0  0  0
   45.6645  -18.8102  -37.6869 C   0  0  0  0  0  0  0  0  0  0  0  0
   11.0158  -42.5413  -13.1012 H   0  0  0  0  0  0  0  0  0  0  0  0
   10.7394  -43.7792  -14.3492 H   0  0  0  0  0  0  0  0  0  0  0  0
   10.7083  -42.0334  -14.7732 H   0  0  0  0  0  0  0  0  0  0  0  0
   34.3909  -39.5735   -3.8604 H   0  0  0  0  0  0  0  0  0  0  0  0
   34.4732  -41.3126   -3.4219 H   0  0  0  0  0  0  0  0  0  0  0  0
   35.8570  -40.4129    0.0577 H   0  0  0  0  0  0  0  0  0  0  0  0
   35.8575  -38.6679   -0.3701 H   0  0  0  0  0  0  0  0  0  0  0  0
   39.7836  -40.1424    0.5288 H   0  0  0  0  0  0  0  0  0  0  0  0
   39.6659  -38.9194    1.8273 H   0  0  0  0  0  0  0  0  0  0  0  0
   41.1864  -37.4477   -2.0286 H   0  0  0  0  0  0  0  0  0  0  0  0
   42.6529  -37.1478   -1.0526 H   0  0  0  0  0  0  0  0  0  0  0  0
   41.1533  -33.5527   -0.1943 H   0  0  0  0  0  0  0  0  0  0  0  0
   39.7220  -33.8951   -1.2235 H   0  0  0  0  0  0  0  0  0  0  0  0
   42.0449  -30.4844   -2.5689 H   0  0  0  0  0  0  0  0  0  0  0  0
   40.5277  -29.6209   -2.2140 H   0  0  0  0  0  0  0  0  0  0  0  0
   39.4198  -30.2788   -6.0246 H   0  0  0  0  0  0  0  0  0  0  0  0
   40.9361  -31.1865   -6.2576 H   0  0  0  0  0  0  0  0  0  0  0  0
   42.3890  -27.2383   -7.4189 H   0  0  0  0  0  0  0  0  0  0  0  0
   42.3691  -28.3888   -8.7650 H   0  0  0  0  0  0  0  0  0  0  0  0
   44.9154  -29.4130  -10.2884 H   0  0  0  0  0  0  0  0  0  0  0  0
   43.3972  -30.0828   -9.6237 H   0  0  0  0  0  0  0  0  0  0  0  0
   43.9673  -33.8970  -11.5286 H   0  0  0  0  0  0  0  0  0  0  0  0
   45.4639  -33.3169  -12.3114 H   0  0  0  0  0  0  0  0  0  0  0  0
   42.8141  -31.5083  -15.8963 H   0  0  0  0  0  0  0  0  0  0  0  0
   44.0291  -32.6596  -16.4787 H   0  0  0  0  0  0  0  0  0  0  0  0
   45.7048  -30.8094  -16.6343 H   0  0  0  0  0  0  0  0  0  0  0  0
   44.4859  -29.6589  -16.0522 H   0  0  0  0  0  0  0  0  0  0  0  0
   45.8190  -29.6217  -18.7421 H   0  0  0  0  0  0  0  0  0  0  0  0
   44.6014  -28.4723  -18.1604 H   0  0  0  0  0  0  0  0  0  0  0  0
   43.0506  -29.1892  -19.9929 H   0  0  0  0  0  0  0  0  0  0  0  0
   44.2671  -30.3383  -20.5732 H   0  0  0  0  0  0  0  0  0  0  0  0
   43.1519  -28.0226  -22.0885 H   0  0  0  0  0  0  0  0  0  0  0  0
   44.3680  -29.1713  -22.6694 H   0  0  0  0  0  0  0  0  0  0  0  0
   46.0220  -27.3077  -22.8987 H   0  0  0  0  0  0  0  0  0  0  0  0
   44.8013  -26.1555  -22.3185 H   0  0  0  0  0  0  0  0  0  0  0  0
   46.1174  -26.1455  -24.9881 H   0  0  0  0  0  0  0  0  0  0  0  0
   44.9036  -25.0000  -24.4058 H   0  0  0  0  0  0  0  0  0  0  0  0
   43.3597  -25.7031  -26.2371 H   0  0  0  0  0  0  0  0  0  0  0  0
   44.5743  -26.8519  -26.8199 H   0  0  0  0  0  0  0  0  0  0  0  0
   43.4555  -24.5440  -28.3248 H   0  0  0  0  0  0  0  0  0  0  0  0
   44.6701  -25.6933  -28.9086 H   0  0  0  0  0  0  0  0  0  0  0  0
   46.3265  -23.8294  -29.1174 H   0  0  0  0  0  0  0  0  0  0  0  0
   45.1072  -22.6846  -28.5393 H   0  0  0  0  0  0  0  0  0  0  0  0
   46.4470  -22.6722  -31.1801 H   0  0  0  0  0  0  0  0  0  0  0  0
   45.2240  -21.5134  -30.5915 H   0  0  0  0  0  0  0  0  0  0  0  0
   43.6929  -22.2117  -32.4436 H   0  0  0  0  0  0  0  0  0  0  0  0
   44.8939  -23.3494  -33.0224 H   0  0  0  0  0  0  0  0  0  0  0  0
   46.5192  -21.4611  -33.3783 H   0  0  0  0  0  0  0  0  0  0  0  0
   45.3101  -20.3161  -32.7958 H   0  0  0  0  0  0  0  0  0  0  0  0
   43.7823  -20.9765  -34.6679 H   0  0  0  0  0  0  0  0  0  0  0  0
   44.9941  -22.1213  -35.2513 H   0  0  0  0  0  0  0  0  0  0  0  0
   46.6238  -20.2395  -35.5537 H   0  0  0  0  0  0  0  0  0  0  0  0
   45.4119  -19.0965  -34.9725 H   0  0  0  0  0  0  0  0  0  0  0  0
   43.9031  -19.7294  -36.8720 H   0  0  0  0  0  0  0  0  0  0  0  0
   45.1159  -20.8732  -37.4536 H   0  0  0  0  0  0  0  0  0  0  0  0
   45.5212  -17.8464  -37.1877 H   0  0  0  0  0  0  0  0  0  0  0  0
   45.2499  -18.7365  -38.6966 H   0  0  0  0  0  0  0  0  0  0  0  0
   46.7400  -18.9958  -37.7721 H   0  0  0  0  0  0  0  0  0  0  0  0
  1  2  2  0  0  0  0
  2  3  1  0  0  0  0
  2  4  1  0  0  0  0
  3 79  1  0  0  0  0
  3 80  1  0  0  0  0
  3 81  1  0  0  0  0
  4  5  1  0  0  0  0
  5  6  1  0  0  0  0
  6  7  1  0  0  0  0
  7  8  1  0  0  0  0
  8  9  1  0  0  0  0
  9 10  1  0  0  0  0
 10 11  1  0  0  0  0
 11 12  1  0  0  0  0
 12 13  1  0  0  0  0
 13 14  1  0  0  0  0
 14 15  1  0  0  0  0
 15 16  1  0  0  0  0
 16 17  1  0  0  0  0
 17 18  1  0  0  0  0
 18 19  1  0  0  0  0
 19 20  1  0  0  0  0
 20 21  1  0  0  0  0
 21 22  1  0  0  0  0
 22 23  1  0  0  0  0
 23 24  1  0  0  0  0
 24 25  1  0  0  0  0
 25 26  1  0  0  0  0
 26 27  1  0  0  0  0
 27 28  1  0  0  0  0
 27 82  1  0  0  0  0
 27 83  1  0  0  0  0
 28 29  1  0  0  0  0
 29 30  1  0  0  0  0
 30 31  1  0  0  0  0
 30 84  1  0  0  0  0
 30 85  1  0  0  0  0
 31 32  1  0  0  0  0
 32 33  1  0  0  0  0
 33 34  1  0  0  0  0
 33 86  1  0  0  0  0
 33 87  1  0  0  0  0
 34 35  1  0  0  0  0
 35 36  1  0  0  0  0
 36 37  1  0  0  0  0
 36 88  1  0  0  0  0
 36 89  1  0  0  0  0
 37 38  1  0  0  0  0
 38 39  1  0  0  0  0
 39 40  1  0  0  0  0
 39 90  1  0  0  0  0
 39 91  1  0  0  0  0
 40 41  1  0  0  0  0
 41 42  1  0  0  0  0
 42 43  1  0  0  0  0
 42 92  1  0  0  0  0
 42 93  1  0  0  0  0
 43 44  1  0  0  0  0
 44 45  1  0  0  0  0
 45 46  1  0  0  0  0
 45 94  1  0  0  0  0
 45 95  1  0  0  0  0
 46 47  1  0  0  0  0
 47 48  1  0  0  0  0
 48 49  1  0  0  0  0
 48 96  1  0  0  0  0
 48 97  1  0  0  0  0
 49 50  1  0  0  0  0
 50 51  1  0  0  0  0
 51 52  1  0  0  0  0
 51 98  1  0  0  0  0
 51 99  1  0  0  0  0
 52 53  1  0  0  0  0
 53 54  1  0  0  0  0
 54 55  1  0  0  0  0
 54100  1  0  0  0  0
 54101  1  0  0  0  0
 55 56  1  0  0  0  0
 56 57  1  0  0  0  0
 57 58  1  0  0  0  0
 57102  1  0  0  0  0
 57103  1  0  0  0  0
 58 59  1  0  0  0  0
 58104  1  0  0  0  0
 58105  1  0  0  0  0
 59 60  1  0  0  0  0
 60 61  1  0  0  0  0
 60106  1  0  0  0  0
 60107  1  0  0  0  0
 61 62  1  0  0  0  0
 61108  1  0  0  0  0
 61109  1  0  0  0  0
 62 63  1  0  0  0  0
 63 64  1  0  0  0  0
 63110  1  0  0  0  0
 63111  1  0  0  0  0
 64 65  1  0  0  0  0
 64112  1  0  0  0  0
 64113  1  0  0  0  0
 65 66  1  0  0  0  0
 66 67  1  0  0  0  0
 66114  1  0  0  0  0
 66115  1  0  0  0  0
 67 68  1  0  0  0  0
 67116  1  0  0  0  0
 67117  1  0  0  0  0
 68 69  1  0  0  0  0
 69 70  1  0  0  0  0
 69118  1  0  0  0  0
 69119  1  0  0  0  0
 70 71  1  0  0  0  0
 70120  1  0  0  0  0
 70121  1  0  0  0  0
 71 72  1  0  0  0  0
 72 73  1  0  0  0  0
 72122  1  0  0  0  0
 72123  1  0  0  0  0
 73 74  1  0  0  0  0
 73124  1  0  0  0  0
 73125  1  0  0  0  0
 74 75  1  0  0  0  0
 74126  1  0  0  0  0
 74127  1  0  0  0  0
 75 76  1  0  0  0  0
 75128  1  0  0  0  0
 75129  1  0  0  0  0
 76 77  1  0  0  0  0
 76130  1  0  0  0  0
 76131  1  0  0  0  0
 77 78  1  0  0  0  0
 77132  1  0  0  0  0
 77133  1  0  0  0  0
 78134  1  0  0  0  0
 78135  1  0  0  0  0
 78136  1  0  0  0  0
M  END
$$$$
