
 OpenBabel04232216503D

 69 70  0  0  1  0  0  0  0  0999 V2000
    0.5409    1.1954    0.1843 C   0  0  0  0  0  0  0  0  0  0  0  0
    2.0088    0.7039    0.0207 C   0  0  3  0  0  0  0  0  0  0  0  0
    2.9641    1.7947   -0.4939 C   0  0  0  0  0  0  0  0  0  0  0  0
    2.3521    2.8993   -1.3645 C   0  0  0  0  0  0  0  0  0  0  0  0
    2.1749    2.4228   -2.8030 C   0  0  0  0  0  0  0  0  0  0  0  0
    0.8611    2.8979   -3.4378 C   0  0  0  0  0  0  0  0  0  0  0  0
    0.4586    1.9512   -4.5753 C   0  0  0  0  0  0  0  0  0  0  0  0
   -0.1880    0.6447   -4.0602 C   0  0  0  0  0  0  0  0  0  0  0  0
    0.2574   -0.5939   -4.8584 C   0  0  0  0  0  0  0  0  0  0  0  0
   -0.3683   -1.9241   -4.3728 C   0  0  0  0  0  0  0  0  0  0  0  0
    0.6621   -3.0644   -4.0261 C   0  0  0  0  0  0  0  0  0  0  0  0
    0.7679   -3.2389   -2.4973 C   0  0  0  0  0  0  0  0  0  0  0  0
    1.9574   -3.9327   -1.7343 C   0  0  0  0  0  0  0  0  0  0  0  0
    2.2688   -3.8082   -0.0875 C   0  0  0  0  0  0  0  0  0  0  0  0
    2.7653   -4.7636    0.5026 O   0  0  0  0  0  0  0  0  0  0  0  0
    2.1250   -2.4806    0.6944 C   0  0  0  0  0  0  0  0  0  0  0  0
    1.2867   -1.7115    0.0216 C   0  0  0  0  0  0  0  0  0  0  0  0
   -0.1691   -2.2216   -0.0042 C   0  0  0  0  0  0  0  0  0  0  0  0
   -0.5707   -2.4906    1.4208 C   0  0  0  0  0  0  0  0  0  0  0  0
   -2.0200   -2.7090    1.7592 C   0  0  0  0  0  0  0  0  0  0  0  0
   -2.4133   -1.8025    2.8055 O   0  0  0  0  0  0  0  0  0  0  0  0
   -1.8949   -0.4847    2.4264 O   0  0  0  0  0  0  0  0  0  0  0  0
   -0.9602   -0.0681    3.4430 C   0  0  0  0  0  0  0  0  0  0  0  0
    0.2030   -1.0566    3.8870 C   0  0  0  0  0  0  0  0  0  0  0  0
    1.6271   -0.9985    3.1565 C   0  0  0  0  0  0  0  0  0  0  0  0
    2.3969   -2.1384    2.1960 C   0  0  0  0  0  0  0  0  0  0  0  0
    1.9773   -0.6038   -0.7647 C   0  0  0  0  0  0  0  0  0  0  0  0
    0.4771    2.0628    0.8172 H   0  0  0  0  0  0  0  0  0  0  0  0
   -0.0841    0.4083    0.6226 H   0  0  0  0  0  0  0  0  0  0  0  0
    0.0919    1.4230   -0.7855 H   0  0  0  0  0  0  0  0  0  0  0  0
    2.3950    0.4888    1.0027 H   0  0  0  0  0  0  0  0  0  0  0  0
    3.8305    1.3388   -0.9927 H   0  0  0  0  0  0  0  0  0  0  0  0
    3.3739    2.3013    0.3884 H   0  0  0  0  0  0  0  0  0  0  0  0
    3.0341    3.7592   -1.3606 H   0  0  0  0  0  0  0  0  0  0  0  0
    1.4256    3.2656   -0.9270 H   0  0  0  0  0  0  0  0  0  0  0  0
    2.2378    1.3341   -2.8541 H   0  0  0  0  0  0  0  0  0  0  0  0
    3.0154    2.7942   -3.4029 H   0  0  0  0  0  0  0  0  0  0  0  0
    1.0095    3.9125   -3.8260 H   0  0  0  0  0  0  0  0  0  0  0  0
    0.0534    2.9526   -2.7010 H   0  0  0  0  0  0  0  0  0  0  0  0
    1.3402    1.7384   -5.1927 H   0  0  0  0  0  0  0  0  0  0  0  0
   -0.2586    2.4677   -5.2233 H   0  0  0  0  0  0  0  0  0  0  0  0
   -1.2787    0.7555   -4.1125 H   0  0  0  0  0  0  0  0  0  0  0  0
    0.0483    0.4889   -3.0050 H   0  0  0  0  0  0  0  0  0  0  0  0
    1.3558   -0.6598   -4.8296 H   0  0  0  0  0  0  0  0  0  0  0  0
   -0.0255   -0.4374   -5.9065 H   0  0  0  0  0  0  0  0  0  0  0  0
   -1.0225   -2.2853   -5.1791 H   0  0  0  0  0  0  0  0  0  0  0  0
   -1.0448   -1.7354   -3.5244 H   0  0  0  0  0  0  0  0  0  0  0  0
    1.6348   -2.8603   -4.4791 H   0  0  0  0  0  0  0  0  0  0  0  0
    0.2792   -3.9989   -4.4545 H   0  0  0  0  0  0  0  0  0  0  0  0
   -0.1589   -3.7612   -2.2263 H   0  0  0  0  0  0  0  0  0  0  0  0
    0.6935   -2.2178   -2.1716 H   0  0  0  0  0  0  0  0  0  0  0  0
    2.8939   -3.6929   -2.2503 H   0  0  0  0  0  0  0  0  0  0  0  0
    1.7869   -5.0105   -1.8708 H   0  0  0  0  0  0  0  0  0  0  0  0
   -0.2776   -3.2082   -0.4387 H   0  0  0  0  0  0  0  0  0  0  0  0
   -0.8309   -1.5235   -0.5196 H   0  0  0  0  0  0  0  0  0  0  0  0
   -0.2282   -1.5835    1.8527 H   0  0  0  0  0  0  0  0  0  0  0  0
    0.0098   -3.2978    1.8836 H   0  0  0  0  0  0  0  0  0  0  0  0
   -2.1339   -3.7203    2.1681 H   0  0  0  0  0  0  0  0  0  0  0  0
   -2.6826   -2.6157    0.8958 H   0  0  0  0  0  0  0  0  0  0  0  0
   -1.5823    0.1764    4.3122 H   0  0  0  0  0  0  0  0  0  0  0  0
   -0.5336    0.8770    3.0905 H   0  0  0  0  0  0  0  0  0  0  0  0
    0.4062   -0.7078    4.9107 H   0  0  0  0  0  0  0  0  0  0  0  0
   -0.1532   -2.0834    3.9983 H   0  0  0  0  0  0  0  0  0  0  0  0
    2.3143   -0.9509    4.0170 H   0  0  0  0  0  0  0  0  0  0  0  0
    1.7085   -0.0078    2.7126 H   0  0  0  0  0  0  0  0  0  0  0  0
    2.5224   -3.0426    2.7938 H   0  0  0  0  0  0  0  0  0  0  0  0
    3.4126   -1.6907    2.1441 H   0  0  0  0  0  0  0  0  0  0  0  0
    1.5587   -0.4802   -1.7624 H   0  0  0  0  0  0  0  0  0  0  0  0
    3.0253   -0.8976   -0.9423 H   0  0  0  0  0  0  0  0  0  0  0  0
  1  2  1  0  0  0  0
  1 28  1  0  0  0  0
  1 29  1  0  0  0  0
  1 30  1  0  0  0  0
  2  3  1  0  0  0  0
  2 27  1  0  0  0  0
  2 31  1  0  0  0  0
  3  4  1  0  0  0  0
  3 32  1  0  0  0  0
  3 33  1  0  0  0  0
  4  5  1  0  0  0  0
  4 34  1  0  0  0  0
  4 35  1  0  0  0  0
  5  6  1  0  0  0  0
  5 36  1  0  0  0  0
  5 37  1  0  0  0  0
  6  7  1  0  0  0  0
  6 38  1  0  0  0  0
  6 39  1  0  0  0  0
  7  8  1  0  0  0  0
  7 40  1  0  0  0  0
  7 41  1  0  0  0  0
  8  9  1  0  0  0  0
  8 42  1  0  0  0  0
  8 43  1  0  0  0  0
  9 10  1  0  0  0  0
  9 44  1  0  0  0  0
  9 45  1  0  0  0  0
 10 11  1  0  0  0  0
 10 46  1  0  0  0  0
 10 47  1  0  0  0  0
 11 12  1  0  0  0  0
 11 48  1  0  0  0  0
 11 49  1  0  0  0  0
 12 13  1  0  0  0  0
 12 50  1  0  0  0  0
 12 51  1  0  0  0  0
 13 14  1  0  0  0  0
 13 52  1  0  0  0  0
 13 53  1  0  0  0  0
 14 15  2  0  0  0  0
 14 16  1  0  0  0  0
 16 17  2  3  0  0  0
 16 26  1  0  0  0  0
 17 18  1  0  0  0  0
 17 27  1  0  0  0  0
 18 19  1  0  0  0  0
 18 54  1  0  0  0  0
 18 55  1  0  0  0  0
 19 20  1  0  0  0  0
 19 56  1  0  0  0  0
 19 57  1  0  0  0  0
 20 21  1  0  0  0  0
 20 58  1  0  0  0  0
 20 59  1  0  0  0  0
 21 22  1  0  0  0  0
 22 23  1  0  0  0  0
 23 24  1  0  0  0  0
 23 60  1  0  0  0  0
 23 61  1  0  0  0  0
 24 25  1  0  0  0  0
 24 62  1  0  0  0  0
 24 63  1  0  0  0  0
 25 26  1  0  0  0  0
 25 64  1  0  0  0  0
 25 65  1  0  0  0  0
 26 66  1  0  0  0  0
 26 67  1  0  0  0  0
 27 68  1  0  0  0  0
 27 69  1  0  0  0  0
M  END
$$$$
