
 OpenBabel04232216563D

194194  0  0  0  0  0  0  0  0999 V2000
    2.3554   -5.7420    1.5580 C   0  0  0  0  0  0  0  0  0  0  0  0
    2.9359   -4.8571    0.6861 N   0  0  0  0  0  0  0  0  0  0  0  0
    2.9281   -3.7831    0.0465 C   0  0  0  0  0  0  0  0  0  0  0  0
    4.0477   -4.6776   -0.0735 C   0  0  0  0  0  0  0  0  0  0  0  0
    4.9312   -6.1468    0.2891 C   0  0  0  0  0  0  0  0  0  0  0  0
    5.8382   -6.0498    1.4265 O   0  0  0  0  0  0  0  0  0  0  0  0
    6.5869   -7.2767    1.7426 C   0  0  0  0  0  0  0  0  0  0  0  0
    5.6793   -8.3443    2.0513 O   0  0  0  0  0  0  0  0  0  0  0  0
    6.5040   -9.5059    2.3503 O   0  0  0  0  0  0  0  0  0  0  0  0
    5.5878  -10.5522    2.6509 C   0  0  0  0  0  0  0  0  0  0  0  0
    4.7580  -10.7720    1.5183 O   0  0  0  0  0  0  0  0  0  0  0  0
    3.8321  -11.8063    1.7775 C   0  0  0  0  0  0  0  0  0  0  0  0
    3.0170  -11.4510    2.8793 O   0  0  0  0  0  0  0  0  0  0  0  0
    2.0959  -12.4896    3.1306 C   0  0  0  0  0  0  0  0  0  0  0  0
    2.7961  -13.6740    3.4222 O   0  0  0  0  0  0  0  0  0  0  0  0
    1.8860  -14.7295    3.6777 C   0  0  0  0  0  0  0  0  0  0  0  0
    2.6451  -15.8710    3.9566 O   0  0  0  0  0  0  0  0  0  0  0  0
    1.6921  -16.9108    4.2084 O   0  0  0  0  0  0  0  0  0  0  0  0
    2.4355  -18.1008    4.4993 O   0  0  0  0  0  0  0  0  0  0  0  0
    1.4740  -19.0946    4.7397 C   0  0  0  0  0  0  0  0  0  0  0  0
    2.1649  -20.2939    5.0328 O   0  0  0  0  0  0  0  0  0  0  0  0
    1.2405  -21.3319    5.2841 C   0  0  0  0  0  0  0  0  0  0  0  0
    2.0063  -22.5874    5.5910 C   0  0  0  0  0  0  0  0  0  0  0  0
    1.0325  -23.7115    5.8632 C   0  0  0  0  0  0  0  0  0  0  0  0
    1.7810  -24.9871    6.1750 C   0  0  0  0  0  0  0  0  0  0  0  0
    0.8094  -26.1144    6.4480 C   0  0  0  0  0  0  0  0  0  0  0  0
    1.5522  -27.3944    6.7628 C   0  0  0  0  0  0  0  0  0  0  0  0
    0.5791  -28.5196    7.0353 C   0  0  0  0  0  0  0  0  0  0  0  0
    1.3241  -29.7973    7.3476 C   0  0  0  0  0  0  0  0  0  0  0  0
    0.3514  -30.9211    7.6217 C   0  0  0  0  0  0  0  0  0  0  0  0
    1.0964  -32.1985    7.9339 C   0  0  0  0  0  0  0  0  0  0  0  0
    0.1237  -33.3218    8.2100 C   0  0  0  0  0  0  0  0  0  0  0  0
    0.8686  -34.5987    8.5242 C   0  0  0  0  0  0  0  0  0  0  0  0
   -0.1041  -35.7219    8.8003 C   0  0  0  0  0  0  0  0  0  0  0  0
    0.6409  -36.9988    9.1144 C   0  0  0  0  0  0  0  0  0  0  0  0
   -0.3318  -38.1221    9.3905 C   0  0  0  0  0  0  0  0  0  0  0  0
    0.4131  -39.3990    9.7046 C   0  0  0  0  0  0  0  0  0  0  0  0
   -0.5596  -40.5223    9.9807 C   0  0  0  0  0  0  0  0  0  0  0  0
    0.1854  -41.7992   10.2949 C   0  0  0  0  0  0  0  0  0  0  0  0
   -0.7873  -42.9220   10.5729 C   0  0  0  0  0  0  0  0  0  0  0  0
   -0.0424  -44.1984   10.8890 C   0  0  0  0  0  0  0  0  0  0  0  0
   -1.0151  -45.3212   11.1671 C   0  0  0  0  0  0  0  0  0  0  0  0
   -0.2701  -46.5976   11.4831 C   0  0  0  0  0  0  0  0  0  0  0  0
   -1.2428  -47.7204   11.7612 C   0  0  0  0  0  0  0  0  0  0  0  0
   -0.4978  -48.9963   12.0792 C   0  0  0  0  0  0  0  0  0  0  0  0
   -1.4706  -50.1196   12.3553 C   0  0  0  0  0  0  0  0  0  0  0  0
   -0.7256  -51.3950   12.6753 C   0  0  0  0  0  0  0  0  0  0  0  0
   -1.6983  -52.5178   12.9533 C   0  0  0  0  0  0  0  0  0  0  0  0
   -0.9533  -53.7938   13.2714 C   0  0  0  0  0  0  0  0  0  0  0  0
   -1.9261  -54.9161   13.5514 C   0  0  0  0  0  0  0  0  0  0  0  0
   -1.1811  -56.1920   13.8694 C   0  0  0  0  0  0  0  0  0  0  0  0
   -2.1538  -57.3143   14.1494 C   0  0  0  0  0  0  0  0  0  0  0  0
   -1.4089  -58.5898   14.4694 C   0  0  0  0  0  0  0  0  0  0  0  0
   -2.3817  -59.7124   14.7494 C   0  0  0  0  0  0  0  0  0  0  0  0
   -1.6366  -60.9889   15.0697 C   0  0  0  0  0  0  0  0  0  0  0  0
   -2.6080  -62.1138   15.3524 C   0  0  0  0  0  0  0  0  0  0  0  0
   -1.8647  -63.3921   15.6731 C   0  0  0  0  0  0  0  0  0  0  0  0
   -2.8401  -64.5137   15.9529 C   0  0  0  0  0  0  0  0  0  0  0  0
   -2.0921  -65.7889   16.2749 C   0  0  0  0  0  0  0  0  0  0  0  0
   -3.0774  -66.8920   16.5521 C   0  0  0  0  0  0  0  0  0  0  0  0
   -2.3603  -68.0825   16.8505 O   0  0  0  0  0  0  0  0  0  0  0  0
   -3.2723  -69.1376   17.1140 C   0  0  0  0  0  0  0  0  0  0  0  0
   -2.5692  -70.3334   17.4119 O   0  0  0  0  0  0  0  0  0  0  0  0
   -1.7491  -70.1377   18.5552 C   0  0  0  0  0  0  0  0  0  0  0  0
   -1.0472  -71.3370   18.8531 O   0  0  0  0  0  0  0  0  0  0  0  0
   -0.2318  -71.6989   17.7495 C   0  0  0  0  0  0  0  0  0  0  0  0
    0.4685  -72.8941   18.0445 O   0  0  0  0  0  0  0  0  0  0  0  0
    1.2864  -73.2600   16.9449 C   0  0  0  0  0  0  0  0  0  0  0  0
    1.9844  -74.4569   17.2418 O   0  0  0  0  0  0  0  0  0  0  0  0
    1.0525  -75.4934   17.4989 C   0  0  0  0  0  0  0  0  0  0  0  0
    1.7441  -76.6877   17.7940 O   0  0  0  0  0  0  0  0  0  0  0  0
    2.5674  -76.5060   18.9413 C   0  0  0  0  0  0  0  0  0  0  0  0
    3.2604  -77.7043   19.2349 O   0  0  0  0  0  0  0  0  0  0  0  0
    4.0772  -78.0684   18.1290 C   0  0  0  0  0  0  0  0  0  0  0  0
    4.7734  -79.2698   18.4220 O   0  0  0  0  0  0  0  0  0  0  0  0
    5.5913  -79.6354   17.3199 C   0  0  0  0  0  0  0  0  0  0  0  0
    6.5403  -78.6093   17.0444 O   0  0  0  0  0  0  0  0  0  0  0  0
    7.3641  -78.4003   18.1756 C   0  0  0  0  0  0  0  0  0  0  0  0
    8.3045  -77.3807   17.9014 O   0  0  0  0  0  0  0  0  0  0  0  0
    1.3961   -5.4109    1.9219 H   0  0  0  0  0  0  0  0  0  0  0  0
    3.0366   -5.8992    2.3982 H   0  0  0  0  0  0  0  0  0  0  0  0
    2.2475   -6.7060    1.0537 H   0  0  0  0  0  0  0  0  0  0  0  0
    2.0401   -3.0540    0.1307 H   0  0  0  0  0  0  0  0  0  0  0  0
    5.5789   -6.4940   -0.5440 H   0  0  0  0  0  0  0  0  0  0  0  0
    4.2765   -7.0099    0.5392 H   0  0  0  0  0  0  0  0  0  0  0  0
    7.2448   -7.1238    2.6145 H   0  0  0  0  0  0  0  0  0  0  0  0
    7.2113   -7.5910    0.8918 H   0  0  0  0  0  0  0  0  0  0  0  0
    4.9685  -10.2717    3.5137 H   0  0  0  0  0  0  0  0  0  0  0  0
    6.1365  -11.4733    2.8901 H   0  0  0  0  0  0  0  0  0  0  0  0
    4.3747  -12.7310    2.0043 H   0  0  0  0  0  0  0  0  0  0  0  0
    3.2039  -11.9606    0.8922 H   0  0  0  0  0  0  0  0  0  0  0  0
    1.4690  -12.6523    2.2467 H   0  0  0  0  0  0  0  0  0  0  0  0
    1.4646  -12.2268    3.9866 H   0  0  0  0  0  0  0  0  0  0  0  0
    1.2576  -14.9053    2.7971 H   0  0  0  0  0  0  0  0  0  0  0  0
    1.2548  -14.4813    4.5383 H   0  0  0  0  0  0  0  0  0  0  0  0
    0.8502  -19.2247    3.8492 H   0  0  0  0  0  0  0  0  0  0  0  0
    0.8474  -18.8012    5.5885 H   0  0  0  0  0  0  0  0  0  0  0  0
    0.6135  -21.4866    4.4001 H   0  0  0  0  0  0  0  0  0  0  0  0
    0.6108  -21.0633    6.1385 H   0  0  0  0  0  0  0  0  0  0  0  0
    2.6547  -22.4287    6.4594 H   0  0  0  0  0  0  0  0  0  0  0  0
    2.6573  -22.8452    4.7489 H   0  0  0  0  0  0  0  0  0  0  0  0
    0.3906  -23.8656    4.9886 H   0  0  0  0  0  0  0  0  0  0  0  0
    0.3879  -23.4467    6.7089 H   0  0  0  0  0  0  0  0  0  0  0  0
    2.4225  -24.8370    7.0486 H   0  0  0  0  0  0  0  0  0  0  0  0
    2.4252  -25.2550    5.3321 H   0  0  0  0  0  0  0  0  0  0  0  0
    0.1710  -26.2695    5.5783 H   0  0  0  0  0  0  0  0  0  0  0  0
    0.1664  -25.8516    7.2878 H   0  0  0  0  0  0  0  0  0  0  0  0
    2.1886  -27.2436    7.6323 H   0  0  0  0  0  0  0  0  0  0  0  0
    2.1932  -27.6610    5.9251 H   0  0  0  0  0  0  0  0  0  0  0  0
   -0.0586  -28.6708    6.1668 H   0  0  0  0  0  0  0  0  0  0  0  0
   -0.0613  -28.2551    7.8741 H   0  0  0  0  0  0  0  0  0  0  0  0
    1.9629  -29.6461    8.2152 H   0  0  0  0  0  0  0  0  0  0  0  0
    1.9635  -30.0630    6.5082 H   0  0  0  0  0  0  0  0  0  0  0  0
   -0.2874  -31.0724    6.7541 H   0  0  0  0  0  0  0  0  0  0  0  0
   -0.2879  -30.6555    8.4611 H   0  0  0  0  0  0  0  0  0  0  0  0
    1.7363  -32.0468    8.8007 H   0  0  0  0  0  0  0  0  0  0  0  0
    1.7346  -32.4649    7.0940 H   0  0  0  0  0  0  0  0  0  0  0  0
   -0.5153  -33.4744    7.3427 H   0  0  0  0  0  0  0  0  0  0  0  0
   -0.5156  -33.0548    9.0490 H   0  0  0  0  0  0  0  0  0  0  0  0
    1.5076  -34.4460    9.3915 H   0  0  0  0  0  0  0  0  0  0  0  0
    1.5078  -34.8657    7.6852 H   0  0  0  0  0  0  0  0  0  0  0  0
   -0.7430  -35.8746    7.9329 H   0  0  0  0  0  0  0  0  0  0  0  0
   -0.7433  -35.4550    9.6393 H   0  0  0  0  0  0  0  0  0  0  0  0
    1.2798  -36.8462    9.9817 H   0  0  0  0  0  0  0  0  0  0  0  0
    1.2801  -37.2658    8.2754 H   0  0  0  0  0  0  0  0  0  0  0  0
   -0.9708  -38.2748    8.5232 H   0  0  0  0  0  0  0  0  0  0  0  0
   -0.9710  -37.8551   10.2295 H   0  0  0  0  0  0  0  0  0  0  0  0
    1.0521  -39.2464   10.5720 H   0  0  0  0  0  0  0  0  0  0  0  0
    1.0524  -39.6660    8.8656 H   0  0  0  0  0  0  0  0  0  0  0  0
   -1.1985  -40.6749    9.1134 H   0  0  0  0  0  0  0  0  0  0  0  0
   -1.1988  -40.2553   10.8198 H   0  0  0  0  0  0  0  0  0  0  0  0
    0.8254  -41.6461   11.1613 H   0  0  0  0  0  0  0  0  0  0  0  0
    0.8235  -42.0669    9.4553 H   0  0  0  0  0  0  0  0  0  0  0  0
   -1.4264  -43.0760    9.7059 H   0  0  0  0  0  0  0  0  0  0  0  0
   -1.4264  -42.6536   11.4116 H   0  0  0  0  0  0  0  0  0  0  0  0
    0.5967  -44.0444   11.7560 H   0  0  0  0  0  0  0  0  0  0  0  0
    0.5967  -44.4667   10.0503 H   0  0  0  0  0  0  0  0  0  0  0  0
   -1.6542  -45.4752   10.3001 H   0  0  0  0  0  0  0  0  0  0  0  0
   -1.6542  -45.0528   12.0057 H   0  0  0  0  0  0  0  0  0  0  0  0
    0.3690  -46.4436   12.3501 H   0  0  0  0  0  0  0  0  0  0  0  0
    0.3690  -46.8659   10.6445 H   0  0  0  0  0  0  0  0  0  0  0  0
   -1.8809  -47.8754   10.8937 H   0  0  0  0  0  0  0  0  0  0  0  0
   -1.8829  -47.4514   12.5989 H   0  0  0  0  0  0  0  0  0  0  0  0
    0.1392  -48.8417   12.9476 H   0  0  0  0  0  0  0  0  0  0  0  0
    0.1433  -49.2645   11.2420 H   0  0  0  0  0  0  0  0  0  0  0  0
   -2.1067  -50.2751   11.4864 H   0  0  0  0  0  0  0  0  0  0  0  0
   -2.1126  -49.8508   13.1916 H   0  0  0  0  0  0  0  0  0  0  0  0
   -0.0884  -51.2391   13.5433 H   0  0  0  0  0  0  0  0  0  0  0  0
   -0.0846  -51.6646   11.8385 H   0  0  0  0  0  0  0  0  0  0  0  0
   -2.3364  -52.6728   12.0858 H   0  0  0  0  0  0  0  0  0  0  0  0
   -2.3384  -52.2489   13.7911 H   0  0  0  0  0  0  0  0  0  0  0  0
   -0.3141  -53.6384   14.1380 H   0  0  0  0  0  0  0  0  0  0  0  0
   -0.3144  -54.0635   12.4330 H   0  0  0  0  0  0  0  0  0  0  0  0
   -2.5653  -55.0715   12.6847 H   0  0  0  0  0  0  0  0  0  0  0  0
   -2.5650  -54.6463   14.3897 H   0  0  0  0  0  0  0  0  0  0  0  0
   -0.5419  -56.0366   14.7360 H   0  0  0  0  0  0  0  0  0  0  0  0
   -0.5421  -56.4617   13.0311 H   0  0  0  0  0  0  0  0  0  0  0  0
   -2.7921  -57.4706   13.2822 H   0  0  0  0  0  0  0  0  0  0  0  0
   -2.7937  -57.0440   14.9868 H   0  0  0  0  0  0  0  0  0  0  0  0
   -0.7706  -58.4334   15.3365 H   0  0  0  0  0  0  0  0  0  0  0  0
   -0.7690  -58.8601   13.6319 H   0  0  0  0  0  0  0  0  0  0  0  0
   -3.0198  -59.8685   13.8822 H   0  0  0  0  0  0  0  0  0  0  0  0
   -3.0215  -59.4418   15.5868 H   0  0  0  0  0  0  0  0  0  0  0  0
   -0.9974  -60.8310   15.9358 H   0  0  0  0  0  0  0  0  0  0  0  0
   -0.9979  -61.2589   14.2313 H   0  0  0  0  0  0  0  0  0  0  0  0
   -3.2482  -62.2680   14.4842 H   0  0  0  0  0  0  0  0  0  0  0  0
   -3.2477  -61.8396   16.1908 H   0  0  0  0  0  0  0  0  0  0  0  0
   -1.2223  -63.2335   16.5445 H   0  0  0  0  0  0  0  0  0  0  0  0
   -1.2206  -63.6624   14.8309 H   0  0  0  0  0  0  0  0  0  0  0  0
   -3.4809  -64.6700   15.0778 H   0  0  0  0  0  0  0  0  0  0  0  0
   -3.4845  -64.2385   16.7954 H   0  0  0  0  0  0  0  0  0  0  0  0
   -1.4449  -65.6357   17.1460 H   0  0  0  0  0  0  0  0  0  0  0  0
   -1.4435  -66.0666   15.4362 H   0  0  0  0  0  0  0  0  0  0  0  0
   -3.7085  -67.0581   15.6729 H   0  0  0  0  0  0  0  0  0  0  0  0
   -3.7080  -66.6230   17.4058 H   0  0  0  0  0  0  0  0  0  0  0  0
   -3.9046  -69.3028   16.2339 H   0  0  0  0  0  0  0  0  0  0  0  0
   -3.9046  -68.8702   17.9685 H   0  0  0  0  0  0  0  0  0  0  0  0
   -2.3767  -69.8638   19.4118 H   0  0  0  0  0  0  0  0  0  0  0  0
   -1.0284  -69.3359   18.3561 H   0  0  0  0  0  0  0  0  0  0  0  0
    0.4868  -70.8957   17.5483 H   0  0  0  0  0  0  0  0  0  0  0  0
   -0.8621  -71.8541   16.8657 H   0  0  0  0  0  0  0  0  0  0  0  0
    2.0057  -72.4564   16.7468 H   0  0  0  0  0  0  0  0  0  0  0  0
    0.6568  -73.4125   16.0603 H   0  0  0  0  0  0  0  0  0  0  0  0
    0.4221  -75.6467   16.6152 H   0  0  0  0  0  0  0  0  0  0  0  0
    0.4221  -75.2174   18.3524 H   0  0  0  0  0  0  0  0  0  0  0  0
    1.9388  -76.2265   19.7955 H   0  0  0  0  0  0  0  0  0  0  0  0
    3.2890  -75.7033   18.7446 H   0  0  0  0  0  0  0  0  0  0  0  0
    4.7972  -77.2648   17.9308 H   0  0  0  0  0  0  0  0  0  0  0  0
    3.4454  -78.2176   17.2448 H   0  0  0  0  0  0  0  0  0  0  0  0
    4.9566  -79.7947   16.4390 H   0  0  0  0  0  0  0  0  0  0  0  0
    6.1159  -80.5700   17.5567 H   0  0  0  0  0  0  0  0  0  0  0  0
    7.8866  -79.3265   18.4360 H   0  0  0  0  0  0  0  0  0  0  0  0
    6.7497  -78.0843   19.0247 H   0  0  0  0  0  0  0  0  0  0  0  0
    8.8176  -77.7065   17.1447 H   0  0  0  0  0  0  0  0  0  0  0  0
  1  2  1  0  0  0  0
  1 80  1  0  0  0  0
  1 81  1  0  0  0  0
  1 82  1  0  0  0  0
  2  3  1  0  0  0  0
  2  4  1  0  0  0  0
  3  4  2  0  0  0  0
  3 83  1  0  0  0  0
  4  5  1  0  0  0  0
  5  6  1  0  0  0  0
  5 84  1  0  0  0  0
  5 85  1  0  0  0  0
  6  7  1  0  0  0  0
  7  8  1  0  0  0  0
  7 86  1  0  0  0  0
  7 87  1  0  0  0  0
  8  9  1  0  0  0  0
  9 10  1  0  0  0  0
 10 11  1  0  0  0  0
 10 88  1  0  0  0  0
 10 89  1  0  0  0  0
 11 12  1  0  0  0  0
 12 13  1  0  0  0  0
 12 90  1  0  0  0  0
 12 91  1  0  0  0  0
 13 14  1  0  0  0  0
 14 15  1  0  0  0  0
 14 92  1  0  0  0  0
 14 93  1  0  0  0  0
 15 16  1  0  0  0  0
 16 17  1  0  0  0  0
 16 94  1  0  0  0  0
 16 95  1  0  0  0  0
 17 18  1  0  0  0  0
 18 19  1  0  0  0  0
 19 20  1  0  0  0  0
 20 21  1  0  0  0  0
 20 96  1  0  0  0  0
 20 97  1  0  0  0  0
 21 22  1  0  0  0  0
 22 23  1  0  0  0  0
 22 98  1  0  0  0  0
 22 99  1  0  0  0  0
 23 24  1  0  0  0  0
 23100  1  0  0  0  0
 23101  1  0  0  0  0
 24 25  1  0  0  0  0
 24102  1  0  0  0  0
 24103  1  0  0  0  0
 25 26  1  0  0  0  0
 25104  1  0  0  0  0
 25105  1  0  0  0  0
 26 27  1  0  0  0  0
 26106  1  0  0  0  0
 26107  1  0  0  0  0
 27 28  1  0  0  0  0
 27108  1  0  0  0  0
 27109  1  0  0  0  0
 28 29  1  0  0  0  0
 28110  1  0  0  0  0
 28111  1  0  0  0  0
 29 30  1  0  0  0  0
 29112  1  0  0  0  0
 29113  1  0  0  0  0
 30 31  1  0  0  0  0
 30114  1  0  0  0  0
 30115  1  0  0  0  0
 31 32  1  0  0  0  0
 31116  1  0  0  0  0
 31117  1  0  0  0  0
 32 33  1  0  0  0  0
 32118  1  0  0  0  0
 32119  1  0  0  0  0
 33 34  1  0  0  0  0
 33120  1  0  0  0  0
 33121  1  0  0  0  0
 34 35  1  0  0  0  0
 34122  1  0  0  0  0
 34123  1  0  0  0  0
 35 36  1  0  0  0  0
 35124  1  0  0  0  0
 35125  1  0  0  0  0
 36 37  1  0  0  0  0
 36126  1  0  0  0  0
 36127  1  0  0  0  0
 37 38  1  0  0  0  0
 37128  1  0  0  0  0
 37129  1  0  0  0  0
 38 39  1  0  0  0  0
 38130  1  0  0  0  0
 38131  1  0  0  0  0
 39 40  1  0  0  0  0
 39132  1  0  0  0  0
 39133  1  0  0  0  0
 40 41  1  0  0  0  0
 40134  1  0  0  0  0
 40135  1  0  0  0  0
 41 42  1  0  0  0  0
 41136  1  0  0  0  0
 41137  1  0  0  0  0
 42 43  1  0  0  0  0
 42138  1  0  0  0  0
 42139  1  0  0  0  0
 43 44  1  0  0  0  0
 43140  1  0  0  0  0
 43141  1  0  0  0  0
 44 45  1  0  0  0  0
 44142  1  0  0  0  0
 44143  1  0  0  0  0
 45 46  1  0  0  0  0
 45144  1  0  0  0  0
 45145  1  0  0  0  0
 46 47  1  0  0  0  0
 46146  1  0  0  0  0
 46147  1  0  0  0  0
 47 48  1  0  0  0  0
 47148  1  0  0  0  0
 47149  1  0  0  0  0
 48 49  1  0  0  0  0
 48150  1  0  0  0  0
 48151  1  0  0  0  0
 49 50  1  0  0  0  0
 49152  1  0  0  0  0
 49153  1  0  0  0  0
 50 51  1  0  0  0  0
 50154  1  0  0  0  0
 50155  1  0  0  0  0
 51 52  1  0  0  0  0
 51156  1  0  0  0  0
 51157  1  0  0  0  0
 52 53  1  0  0  0  0
 52158  1  0  0  0  0
 52159  1  0  0  0  0
 53 54  1  0  0  0  0
 53160  1  0  0  0  0
 53161  1  0  0  0  0
 54 55  1  0  0  0  0
 54162  1  0  0  0  0
 54163  1  0  0  0  0
 55 56  1  0  0  0  0
 55164  1  0  0  0  0
 55165  1  0  0  0  0
 56 57  1  0  0  0  0
 56166  1  0  0  0  0
 56167  1  0  0  0  0
 57 58  1  0  0  0  0
 57168  1  0  0  0  0
 57169  1  0  0  0  0
 58 59  1  0  0  0  0
 58170  1  0  0  0  0
 58171  1  0  0  0  0
 59 60  1  0  0  0  0
 59172  1  0  0  0  0
 59173  1  0  0  0  0
 60 61  1  0  0  0  0
 60174  1  0  0  0  0
 60175  1  0  0  0  0
 61 62  1  0  0  0  0
 62 63  1  0  0  0  0
 62176  1  0  0  0  0
 62177  1  0  0  0  0
 63 64  1  0  0  0  0
 64 65  1  0  0  0  0
 64178  1  0  0  0  0
 64179  1  0  0  0  0
 65 66  1  0  0  0  0
 66 67  1  0  0  0  0
 66180  1  0  0  0  0
 66181  1  0  0  0  0
 67 68  1  0  0  0  0
 68 69  1  0  0  0  0
 68182  1  0  0  0  0
 68183  1  0  0  0  0
 69 70  1  0  0  0  0
 70 71  1  0  0  0  0
 70184  1  0  0  0  0
 70185  1  0  0  0  0
 71 72  1  0  0  0  0
 72 73  1  0  0  0  0
 72186  1  0  0  0  0
 72187  1  0  0  0  0
 73 74  1  0  0  0  0
 74 75  1  0  0  0  0
 74188  1  0  0  0  0
 74189  1  0  0  0  0
 75 76  1  0  0  0  0
 76 77  1  0  0  0  0
 76190  1  0  0  0  0
 76191  1  0  0  0  0
 77 78  1  0  0  0  0
 78 79  1  0  0  0  0
 78192  1  0  0  0  0
 78193  1  0  0  0  0
 79194  1  0  0  0  0
M  END
$$$$
