
 OpenBabel04232216393D

 75 75  0  0  0  0  0  0  0  0999 V2000
   15.5300   -3.9073   -1.6854 C   0  0  0  0  0  0  0  0  0  0  0  0
   16.8444   -4.9573   -0.8882 C   0  0  0  0  0  0  0  0  0  0  0  0
   14.5710   -4.6112   -0.4701 C   0  0  0  0  0  0  0  0  0  0  0  0
   12.5728   -4.1084   -0.4015 C   0  0  0  0  0  0  0  0  0  0  0  0
   10.5525   -3.4225   -0.5426 C   0  0  0  0  0  0  0  0  0  0  0  0
    9.0322   -2.6187   -1.1988 C   0  0  0  0  0  0  0  0  0  0  0  0
    7.7447   -3.6858   -2.0204 C   0  0  0  0  0  0  0  0  0  0  0  0
    8.8207   -4.3569   -2.2667 C   0  0  0  0  0  0  0  0  0  0  0  0
    9.5235   -5.5302   -2.5019 C   0  0  0  0  0  0  0  0  0  0  0  0
   10.9728   -5.1788   -2.4164 C   0  0  0  0  0  0  0  0  0  0  0  0
   11.9009   -6.0348   -2.7058 C   0  0  0  0  0  0  0  0  0  0  0  0
   13.2670   -5.7585   -2.7404 C   0  0  0  0  0  0  0  0  0  0  0  0
   14.2817   -6.5639   -2.9524 C   0  0  0  0  0  0  0  0  0  0  0  0
   15.6904   -6.2465   -3.0011 C   0  0  0  0  0  0  0  0  0  0  0  0
   16.7041   -7.0500   -3.2721 C   0  0  0  0  0  0  0  0  0  0  0  0
   18.1314   -6.8261   -3.3580 C   0  0  0  0  0  0  0  0  0  0  0  0
   18.9173   -7.8668   -3.5721 C   0  0  0  0  0  0  0  0  0  0  0  0
   20.2954   -7.6368   -3.5513 C   0  0  0  0  0  0  0  0  0  0  0  0
   21.2107   -8.5266   -3.8513 C   0  0  0  0  0  0  0  0  0  0  0  0
   22.5209   -8.1154   -4.0990 C   0  0  0  0  0  0  0  0  0  0  0  0
   23.4529   -9.0685   -4.2576 C   0  0  0  0  0  0  0  0  0  0  0  0
   24.8290   -8.8422   -4.4758 C   0  0  0  0  0  0  0  0  0  0  0  0
   25.8297   -9.7103   -4.6501 C   0  0  0  0  0  0  0  0  0  0  0  0
   27.1910   -9.2881   -4.8492 C   0  0  0  0  0  0  0  0  0  0  0  0
   28.1072  -10.2485   -5.0522 C   0  0  0  0  0  0  0  0  0  0  0  0
   29.4671   -9.8881   -5.3248 C   0  0  0  0  0  0  0  0  0  0  0  0
   30.2726  -10.9645   -5.5646 C   0  0  0  0  0  0  0  0  0  0  0  0
   31.7009  -10.9663   -5.8677 C   0  0  0  0  0  0  0  0  0  0  0  0
   32.3694  -12.0155   -5.1290 C   0  0  0  0  0  0  0  0  0  0  0  0
   33.1703  -11.1458   -3.7772 C   0  0  0  0  0  0  0  0  0  0  0  0
   31.6453  -10.4558   -3.4025 C   0  0  0  0  0  0  0  0  0  0  0  0
   29.8334   -9.2475   -2.9711 C   0  0  0  0  0  0  0  0  0  0  0  0
   27.9611   -8.5276   -2.5426 C   0  0  0  0  0  0  0  0  0  0  0  0
   25.7435   -7.8891   -2.0534 C   0  0  0  0  0  0  0  0  0  0  0  0
   23.5075   -7.3881   -1.8993 C   0  0  0  0  0  0  0  0  0  0  0  0
   21.3090   -6.4426   -1.4362 C   0  0  0  0  0  0  0  0  0  0  0  0
   19.1926   -5.7275   -1.2167 C   0  0  0  0  0  0  0  0  0  0  0  0
   13.9106   -3.8077   -1.8257 H   0  0  0  0  0  0  0  0  0  0  0  0
   14.1183   -3.2265   -1.7974 H   0  0  0  0  0  0  0  0  0  0  0  0
   13.5213   -3.4825   -0.3099 H   0  0  0  0  0  0  0  0  0  0  0  0
   11.4906   -3.0101   -0.2833 H   0  0  0  0  0  0  0  0  0  0  0  0
    8.9835   -3.3396   -0.2107 H   0  0  0  0  0  0  0  0  0  0  0  0
    9.1485   -1.6625   -1.7669 H   0  0  0  0  0  0  0  0  0  0  0  0
    6.7870   -4.4060   -2.0241 H   0  0  0  0  0  0  0  0  0  0  0  0
    9.6825   -3.7524   -2.2983 H   0  0  0  0  0  0  0  0  0  0  0  0
    9.1895   -5.3601   -3.5100 H   0  0  0  0  0  0  0  0  0  0  0  0
    9.1556   -6.0433   -1.6148 H   0  0  0  0  0  0  0  0  0  0  0  0
   11.4012   -4.1920   -2.2827 H   0  0  0  0  0  0  0  0  0  0  0  0
   11.4651   -6.9180   -3.0473 H   0  0  0  0  0  0  0  0  0  0  0  0
   13.6018   -4.7895   -2.8312 H   0  0  0  0  0  0  0  0  0  0  0  0
   13.9029   -7.4888   -3.2730 H   0  0  0  0  0  0  0  0  0  0  0  0
   16.0504   -5.2675   -2.8563 H   0  0  0  0  0  0  0  0  0  0  0  0
   16.3167   -8.0053   -3.5436 H   0  0  0  0  0  0  0  0  0  0  0  0
   18.8198   -5.9577   -3.2808 H   0  0  0  0  0  0  0  0  0  0  0  0
   18.5296   -8.8054   -3.8653 H   0  0  0  0  0  0  0  0  0  0  0  0
   20.5860   -6.6139   -3.3614 H   0  0  0  0  0  0  0  0  0  0  0  0
   20.9536   -9.4923   -4.1739 H   0  0  0  0  0  0  0  0  0  0  0  0
   22.4590   -7.0125   -4.1484 H   0  0  0  0  0  0  0  0  0  0  0  0
   23.1958  -10.0963   -4.4055 H   0  0  0  0  0  0  0  0  0  0  0  0
   24.8926   -7.7671   -4.4218 H   0  0  0  0  0  0  0  0  0  0  0  0
   25.6784  -10.7826   -4.7285 H   0  0  0  0  0  0  0  0  0  0  0  0
   27.4561   -8.1924   -4.6426 H   0  0  0  0  0  0  0  0  0  0  0  0
   27.9503  -11.3385   -5.0563 H   0  0  0  0  0  0  0  0  0  0  0  0
   29.7369   -8.7587   -4.9871 H   0  0  0  0  0  0  0  0  0  0  0  0
   30.0800  -12.0471   -5.4093 H   0  0  0  0  0  0  0  0  0  0  0  0
   31.9297   -9.7866   -5.6772 H   0  0  0  0  0  0  0  0  0  0  0  0
   32.8232  -12.8585   -5.6681 H   0  0  0  0  0  0  0  0  0  0  0  0
   34.4504  -10.4812   -3.9808 H   0  0  0  0  0  0  0  0  0  0  0  0
   32.8851  -10.4905   -4.4444 H   0  0  0  0  0  0  0  0  0  0  0  0
   31.3304   -9.2805   -3.5828 H   0  0  0  0  0  0  0  0  0  0  0  0
   28.9488   -9.6650   -3.0094 H   0  0  0  0  0  0  0  0  0  0  0  0
   26.7687   -8.4859   -2.9041 H   0  0  0  0  0  0  0  0  0  0  0  0
   24.5574   -7.6108   -2.7769 H   0  0  0  0  0  0  0  0  0  0  0  0
   22.2054   -6.3013   -2.3709 H   0  0  0  0  0  0  0  0  0  0  0  0
   18.4570   -4.9362   -2.0313 H   0  0  0  0  0  0  0  0  0  0  0  0
  1  2  2  0  0  0  0
  1 38  1  0  0  0  0
  1 39  1  0  0  0  0
  2  3  1  0  0  0  0
  2 37  1  0  0  0  0
  3  4  2  3  0  0  0
  3 40  1  0  0  0  0
  4  5  1  0  0  0  0
  4 41  1  0  0  0  0
  5  6  2  3  0  0  0
  5 42  1  0  0  0  0
  6  7  1  0  0  0  0
  6 43  1  0  0  0  0
  7  8  2  3  0  0  0
  7 44  1  0  0  0  0
  8  9  1  0  0  0  0
  8 45  1  0  0  0  0
  9 10  1  0  0  0  0
  9 46  1  0  0  0  0
  9 47  1  0  0  0  0
 10 11  2  3  0  0  0
 10 48  1  0  0  0  0
 11 12  1  0  0  0  0
 11 49  1  0  0  0  0
 12 13  2  3  0  0  0
 12 50  1  0  0  0  0
 13 14  1  0  0  0  0
 13 51  1  0  0  0  0
 14 15  2  3  0  0  0
 14 52  1  0  0  0  0
 15 16  1  0  0  0  0
 15 53  1  0  0  0  0
 16 17  2  3  0  0  0
 16 54  1  0  0  0  0
 17 18  1  0  0  0  0
 17 55  1  0  0  0  0
 18 19  2  3  0  0  0
 18 56  1  0  0  0  0
 19 20  1  0  0  0  0
 19 57  1  0  0  0  0
 20 21  2  3  0  0  0
 20 58  1  0  0  0  0
 21 22  1  0  0  0  0
 21 59  1  0  0  0  0
 22 23  2  3  0  0  0
 22 60  1  0  0  0  0
 23 24  1  0  0  0  0
 23 61  1  0  0  0  0
 24 25  2  3  0  0  0
 24 62  1  0  0  0  0
 25 26  1  0  0  0  0
 25 63  1  0  0  0  0
 26 27  2  3  0  0  0
 26 64  1  0  0  0  0
 27 28  1  0  0  0  0
 27 65  1  0  0  0  0
 28 29  2  3  0  0  0
 28 66  1  0  0  0  0
 29 30  1  0  0  0  0
 29 67  1  0  0  0  0
 30 31  2  3  0  0  0
 30 68  1  0  0  0  0
 31 32  1  0  0  0  0
 31 69  1  0  0  0  0
 32 33  2  3  0  0  0
 32 70  1  0  0  0  0
 33 34  1  0  0  0  0
 33 71  1  0  0  0  0
 34 35  2  3  0  0  0
 34 72  1  0  0  0  0
 35 36  1  0  0  0  0
 35 73  1  0  0  0  0
 36 37  2  3  0  0  0
 36 74  1  0  0  0  0
 37 75  1  0  0  0  0
M  END
$$$$
