
 OpenBabel04232216593D

229229  0  0  1  0  0  0  0  0999 V2000
    3.8584    2.0459    1.5829 O   0  0  0  0  0  0  0  0  0  0  0  0
    2.8097    2.5047    1.9492 C   0  0  0  0  0  0  0  0  0  0  0  0
    2.4427    3.0149    3.1568 N   0  0  0  0  0  0  0  0  0  0  0  0
    1.1911    3.5868    2.6817 C   0  0  0  0  0  0  0  0  0  0  0  0
    1.4385    2.8670    1.3371 C   0  0  3  0  0  0  0  0  0  0  0  0
    1.4916    3.7867    0.1306 C   0  0  0  0  0  0  0  0  0  0  0  0
    1.7653    2.9721   -1.1331 C   0  0  0  0  0  0  0  0  0  0  0  0
    1.8229    3.8539   -2.3735 C   0  0  0  0  0  0  0  0  0  0  0  0
    2.9378    4.8854   -2.2634 C   0  0  0  0  0  0  0  0  0  0  0  0
    2.9842    5.7569   -3.4991 C   0  0  0  0  0  0  0  0  0  0  0  0
    4.0904    6.7862   -3.3516 C   0  0  0  0  0  0  0  0  0  0  0  0
    4.1368    7.6611   -4.5876 C   0  0  0  0  0  0  0  0  0  0  0  0
    5.2448    8.6869   -4.4521 C   0  0  0  0  0  0  0  0  0  0  0  0
    5.2897    9.5585   -5.6919 C   0  0  0  0  0  0  0  0  0  0  0  0
    6.3975   10.5845   -5.5593 C   0  0  0  0  0  0  0  0  0  0  0  0
    6.4420   11.4554   -6.7994 C   0  0  0  0  0  0  0  0  0  0  0  0
    7.5498   12.4822   -6.6678 C   0  0  0  0  0  0  0  0  0  0  0  0
    7.5940   13.3542   -7.9078 C   0  0  0  0  0  0  0  0  0  0  0  0
    8.7003   14.3832   -7.7763 C   0  0  0  0  0  0  0  0  0  0  0  0
    8.7457   15.2560   -9.0145 C   0  0  0  0  0  0  0  0  0  0  0  0
    9.8542   16.2809   -8.8825 C   0  0  0  0  0  0  0  0  0  0  0  0
    9.8986   17.1554  -10.1205 C   0  0  0  0  0  0  0  0  0  0  0  0
   11.0073   18.1816   -9.9871 C   0  0  0  0  0  0  0  0  0  0  0  0
   11.0509   19.0554  -11.2260 C   0  0  0  0  0  0  0  0  0  0  0  0
   12.1596   20.0818  -11.0943 C   0  0  0  0  0  0  0  0  0  0  0  0
   12.2032   20.9544  -12.3341 C   0  0  0  0  0  0  0  0  0  0  0  0
   13.3118   21.9810  -12.2016 C   0  0  0  0  0  0  0  0  0  0  0  0
   13.3568   22.8528  -13.4419 C   0  0  0  0  0  0  0  0  0  0  0  0
   14.4652   23.8795  -13.3092 C   0  0  0  0  0  0  0  0  0  0  0  0
   14.5091   24.7523  -14.5488 C   0  0  0  0  0  0  0  0  0  0  0  0
   15.6175   25.7790  -14.4161 C   0  0  0  0  0  0  0  0  0  0  0  0
   15.6626   26.6507  -15.6564 C   0  0  0  0  0  0  0  0  0  0  0  0
   16.7711   27.6773  -15.5238 C   0  0  0  0  0  0  0  0  0  0  0  0
   16.8173   28.5478  -16.7649 C   0  0  0  0  0  0  0  0  0  0  0  0
   17.9270   29.5732  -16.6333 C   0  0  0  0  0  0  0  0  0  0  0  0
   17.9721   30.4446  -17.8738 C   0  0  0  0  0  0  0  0  0  0  0  0
   19.0820   31.4697  -17.7426 C   0  0  0  0  0  0  0  0  0  0  0  0
   19.1268   32.3414  -18.9829 C   0  0  0  0  0  0  0  0  0  0  0  0
   20.2366   33.3667  -18.8509 C   0  0  0  0  0  0  0  0  0  0  0  0
   20.2817   34.2387  -20.0909 C   0  0  0  0  0  0  0  0  0  0  0  0
   21.3913   35.2640  -19.9588 C   0  0  0  0  0  0  0  0  0  0  0  0
   21.4363   36.1359  -21.1990 C   0  0  0  0  0  0  0  0  0  0  0  0
   22.5448   37.1623  -21.0664 C   0  0  0  0  0  0  0  0  0  0  0  0
   22.5887   38.0352  -22.3059 C   0  0  0  0  0  0  0  0  0  0  0  0
   23.6983   39.0605  -22.1735 C   0  0  0  0  0  0  0  0  0  0  0  0
   23.7434   39.9326  -23.4133 C   0  0  0  0  0  0  0  0  0  0  0  0
   24.8523   40.9586  -23.2794 C   0  0  0  0  0  0  0  0  0  0  0  0
   24.8959   41.8322  -24.5185 C   0  0  0  0  0  0  0  0  0  0  0  0
   26.0058   42.8577  -24.3883 C   0  0  0  0  0  0  0  0  0  0  0  0
   26.0497   43.7299  -25.6288 C   0  0  0  0  0  0  0  0  0  0  0  0
   27.1604   44.7545  -25.4972 C   0  0  0  0  0  0  0  0  0  0  0  0
   27.2059   45.6260  -26.7376 C   0  0  0  0  0  0  0  0  0  0  0  0
   28.3166   46.6502  -26.6069 C   0  0  0  0  0  0  0  0  0  0  0  0
   28.3613   47.5217  -27.8474 C   0  0  0  0  0  0  0  0  0  0  0  0
   29.4711   48.5470  -27.7158 C   0  0  0  0  0  0  0  0  0  0  0  0
   29.5160   49.4185  -28.9561 C   0  0  0  0  0  0  0  0  0  0  0  0
   30.6270   50.4427  -28.8251 C   0  0  0  0  0  0  0  0  0  0  0  0
   30.6710   51.3153  -30.0647 C   0  0  0  0  0  0  0  0  0  0  0  0
   31.7809   52.3405  -29.9330 C   0  0  0  0  0  0  0  0  0  0  0  0
   31.8233   53.2152  -31.1713 C   0  0  0  0  0  0  0  0  0  0  0  0
   32.9342   54.2395  -31.0403 C   0  0  0  0  0  0  0  0  0  0  0  0
   32.9754   55.1149  -32.2782 C   0  0  0  0  0  0  0  0  0  0  0  0
   34.0876   56.1378  -32.1481 C   0  0  0  0  0  0  0  0  0  0  0  0
   34.1301   57.0121  -33.3867 C   0  0  0  0  0  0  0  0  0  0  0  0
   35.2410   58.0360  -33.2555 C   0  0  0  0  0  0  0  0  0  0  0  0
   35.2828   58.9112  -34.4937 C   0  0  0  0  0  0  0  0  0  0  0  0
   36.3956   59.9335  -34.3645 C   0  0  0  0  0  0  0  0  0  0  0  0
   36.4380   60.8098  -35.6032 C   0  0  0  0  0  0  0  0  0  0  0  0
   37.5508   61.8321  -35.4743 C   0  0  0  0  0  0  0  0  0  0  0  0
   37.5928   62.7076  -36.7138 C   0  0  0  0  0  0  0  0  0  0  0  0
   38.7063   63.7310  -36.5836 C   0  0  0  0  0  0  0  0  0  0  0  0
   38.7510   64.6088  -37.8214 C   0  0  0  0  0  0  0  0  0  0  0  0
   39.8638   65.6338  -37.6919 C   0  0  0  0  0  0  0  0  0  0  0  0
   39.9077   66.5109  -38.9304 C   0  0  0  0  0  0  0  0  0  0  0  0
   41.0208   67.5390  -38.8026 C   0  0  0  0  0  0  0  0  0  0  0  0
   41.0663   68.4188  -40.0401 C   0  0  0  0  0  0  0  0  0  0  0  0
   42.1790   69.4516  -39.9241 C   0  0  0  0  0  0  0  0  0  0  0  0
   42.2235   70.3299  -41.1610 C   0  0  0  0  0  0  0  0  0  0  0  0
    3.1294    3.3446    3.8189 H   0  0  0  0  0  0  0  0  0  0  0  0
    1.1799    4.6803    2.6555 H   0  0  0  0  0  0  0  0  0  0  0  0
    0.3301    3.2151    3.2451 H   0  0  0  0  0  0  0  0  0  0  0  0
    0.7966    1.9925    1.1834 H   0  0  0  0  0  0  0  0  0  0  0  0
    2.2692    4.5381    0.2935 H   0  0  0  0  0  0  0  0  0  0  0  0
    0.5442    4.3276    0.0170 H   0  0  0  0  0  0  0  0  0  0  0  0
    0.9805    2.2177   -1.2672 H   0  0  0  0  0  0  0  0  0  0  0  0
    2.7099    2.4235   -1.0323 H   0  0  0  0  0  0  0  0  0  0  0  0
    0.8587    4.3578   -2.5161 H   0  0  0  0  0  0  0  0  0  0  0  0
    1.9886    3.2258   -3.2562 H   0  0  0  0  0  0  0  0  0  0  0  0
    3.9002    4.3794   -2.1160 H   0  0  0  0  0  0  0  0  0  0  0  0
    2.7821    5.5406   -1.4010 H   0  0  0  0  0  0  0  0  0  0  0  0
    2.0189    6.2667   -3.6276 H   0  0  0  0  0  0  0  0  0  0  0  0
    3.1533    5.1416   -4.3877 H   0  0  0  0  0  0  0  0  0  0  0  0
    5.0547    6.2821   -3.2104 H   0  0  0  0  0  0  0  0  0  0  0  0
    3.9170    7.4046   -2.4617 H   0  0  0  0  0  0  0  0  0  0  0  0
    3.1728    8.1667   -4.7231 H   0  0  0  0  0  0  0  0  0  0  0  0
    4.3067    7.0410   -5.4762 H   0  0  0  0  0  0  0  0  0  0  0  0
    6.2084    8.1810   -4.3150 H   0  0  0  0  0  0  0  0  0  0  0  0
    5.0742    9.3077   -3.5638 H   0  0  0  0  0  0  0  0  0  0  0  0
    4.3255   10.0639   -5.8293 H   0  0  0  0  0  0  0  0  0  0  0  0
    5.4590    8.9372   -6.5803 H   0  0  0  0  0  0  0  0  0  0  0  0
    7.3616   10.0790   -5.4217 H   0  0  0  0  0  0  0  0  0  0  0  0
    6.2278   11.2059   -4.6710 H   0  0  0  0  0  0  0  0  0  0  0  0
    5.4777   11.9612   -6.9366 H   0  0  0  0  0  0  0  0  0  0  0  0
    6.6117   10.8329   -7.6884 H   0  0  0  0  0  0  0  0  0  0  0  0
    8.5140   11.9772   -6.5318 H   0  0  0  0  0  0  0  0  0  0  0  0
    7.3807   13.1026   -5.7785 H   0  0  0  0  0  0  0  0  0  0  0  0
    6.6286   13.8572   -8.0447 H   0  0  0  0  0  0  0  0  0  0  0  0
    7.7665   12.7335   -8.7951 H   0  0  0  0  0  0  0  0  0  0  0  0
    9.6653   13.8775   -7.6420 H   0  0  0  0  0  0  0  0  0  0  0  0
    8.5333   15.0033   -6.8858 H   0  0  0  0  0  0  0  0  0  0  0  0
    7.7806   15.7625   -9.1513 H   0  0  0  0  0  0  0  0  0  0  0  0
    8.9151   14.6346   -9.9033 H   0  0  0  0  0  0  0  0  0  0  0  0
   10.8184   15.7757   -8.7467 H   0  0  0  0  0  0  0  0  0  0  0  0
    9.6864   16.9019   -7.9927 H   0  0  0  0  0  0  0  0  0  0  0  0
    8.9346   17.6613  -10.2557 H   0  0  0  0  0  0  0  0  0  0  0  0
   10.0675   16.5355  -11.0097 H   0  0  0  0  0  0  0  0  0  0  0  0
   11.9710   17.6752   -9.8517 H   0  0  0  0  0  0  0  0  0  0  0  0
   10.8387   18.8016   -9.0979 H   0  0  0  0  0  0  0  0  0  0  0  0
   10.0869   19.5612  -11.3613 H   0  0  0  0  0  0  0  0  0  0  0  0
   11.2196   18.4350  -12.1148 H   0  0  0  0  0  0  0  0  0  0  0  0
   13.1234   19.5758  -10.9589 H   0  0  0  0  0  0  0  0  0  0  0  0
   11.9911   20.7026  -10.2056 H   0  0  0  0  0  0  0  0  0  0  0  0
   11.2393   21.4601  -12.4700 H   0  0  0  0  0  0  0  0  0  0  0  0
   12.3722   20.3338  -13.2228 H   0  0  0  0  0  0  0  0  0  0  0  0
   14.2756   21.4754  -12.0646 H   0  0  0  0  0  0  0  0  0  0  0  0
   13.1421   22.6023  -11.3136 H   0  0  0  0  0  0  0  0  0  0  0  0
   12.3930   23.3584  -13.5789 H   0  0  0  0  0  0  0  0  0  0  0  0
   13.5267   22.2316  -14.3299 H   0  0  0  0  0  0  0  0  0  0  0  0
   15.4292   23.3738  -13.1734 H   0  0  0  0  0  0  0  0  0  0  0  0
   14.2962   24.5000  -12.4205 H   0  0  0  0  0  0  0  0  0  0  0  0
   13.5452   25.2580  -14.6846 H   0  0  0  0  0  0  0  0  0  0  0  0
   14.6783   24.1318  -15.4375 H   0  0  0  0  0  0  0  0  0  0  0  0
   16.5813   25.2735  -14.2790 H   0  0  0  0  0  0  0  0  0  0  0  0
   15.4476   26.4003  -13.5281 H   0  0  0  0  0  0  0  0  0  0  0  0
   14.6988   27.1564  -15.7935 H   0  0  0  0  0  0  0  0  0  0  0  0
   15.8323   26.0293  -16.5443 H   0  0  0  0  0  0  0  0  0  0  0  0
   17.7347   27.1716  -15.3854 H   0  0  0  0  0  0  0  0  0  0  0  0
   16.6006   28.2995  -14.6366 H   0  0  0  0  0  0  0  0  0  0  0  0
   15.8541   29.0544  -16.9026 H   0  0  0  0  0  0  0  0  0  0  0  0
   16.9865   27.9255  -17.6523 H   0  0  0  0  0  0  0  0  0  0  0  0
   18.8903   29.0665  -16.4968 H   0  0  0  0  0  0  0  0  0  0  0  0
   17.7586   30.1950  -15.7452 H   0  0  0  0  0  0  0  0  0  0  0  0
   17.0088   30.9515  -18.0101 H   0  0  0  0  0  0  0  0  0  0  0  0
   18.1402   29.8228  -18.7619 H   0  0  0  0  0  0  0  0  0  0  0  0
   20.0453   30.9630  -17.6066 H   0  0  0  0  0  0  0  0  0  0  0  0
   18.9139   32.0914  -16.8546 H   0  0  0  0  0  0  0  0  0  0  0  0
   18.1635   32.8483  -19.1189 H   0  0  0  0  0  0  0  0  0  0  0  0
   19.2951   31.7200  -19.8712 H   0  0  0  0  0  0  0  0  0  0  0  0
   21.1999   32.8600  -18.7145 H   0  0  0  0  0  0  0  0  0  0  0  0
   20.0680   33.9879  -17.9626 H   0  0  0  0  0  0  0  0  0  0  0  0
   19.3183   34.7455  -20.2271 H   0  0  0  0  0  0  0  0  0  0  0  0
   20.4501   33.6175  -20.9793 H   0  0  0  0  0  0  0  0  0  0  0  0
   22.3548   34.7574  -19.8225 H   0  0  0  0  0  0  0  0  0  0  0  0
   21.2228   35.8853  -19.0705 H   0  0  0  0  0  0  0  0  0  0  0  0
   20.4726   36.6416  -21.3360 H   0  0  0  0  0  0  0  0  0  0  0  0
   21.6061   35.5146  -22.0871 H   0  0  0  0  0  0  0  0  0  0  0  0
   23.5088   36.6565  -20.9307 H   0  0  0  0  0  0  0  0  0  0  0  0
   22.3759   37.7829  -20.1777 H   0  0  0  0  0  0  0  0  0  0  0  0
   21.6252   38.5420  -22.4409 H   0  0  0  0  0  0  0  0  0  0  0  0
   22.7567   37.4148  -23.1948 H   0  0  0  0  0  0  0  0  0  0  0  0
   24.6617   38.5539  -22.0373 H   0  0  0  0  0  0  0  0  0  0  0  0
   23.5298   39.6817  -21.2851 H   0  0  0  0  0  0  0  0  0  0  0  0
   22.7798   40.4388  -23.5504 H   0  0  0  0  0  0  0  0  0  0  0  0
   23.9134   39.3117  -24.3016 H   0  0  0  0  0  0  0  0  0  0  0  0
   25.8158   40.4517  -23.1433 H   0  0  0  0  0  0  0  0  0  0  0  0
   24.6830   41.5783  -22.3905 H   0  0  0  0  0  0  0  0  0  0  0  0
   23.9326   42.3383  -24.6532 H   0  0  0  0  0  0  0  0  0  0  0  0
   25.0629   41.2108  -25.4079 H   0  0  0  0  0  0  0  0  0  0  0  0
   26.9693   42.3513  -24.2529 H   0  0  0  0  0  0  0  0  0  0  0  0
   25.8390   43.4800  -23.5003 H   0  0  0  0  0  0  0  0  0  0  0  0
   25.0865   44.2371  -25.7648 H   0  0  0  0  0  0  0  0  0  0  0  0
   26.2179   43.1086  -26.5168 H   0  0  0  0  0  0  0  0  0  0  0  0
   28.1229   44.2462  -25.3619 H   0  0  0  0  0  0  0  0  0  0  0  0
   26.9933   45.3766  -24.6093 H   0  0  0  0  0  0  0  0  0  0  0  0
   26.2429   46.1340  -26.8729 H   0  0  0  0  0  0  0  0  0  0  0  0
   27.3728   45.0043  -27.6259 H   0  0  0  0  0  0  0  0  0  0  0  0
   29.2796   46.1425  -26.4715 H   0  0  0  0  0  0  0  0  0  0  0  0
   28.1495   47.2720  -25.7187 H   0  0  0  0  0  0  0  0  0  0  0  0
   27.3980   48.0285  -27.9837 H   0  0  0  0  0  0  0  0  0  0  0  0
   28.5295   46.9001  -28.7355 H   0  0  0  0  0  0  0  0  0  0  0  0
   30.4344   48.0401  -27.5795 H   0  0  0  0  0  0  0  0  0  0  0  0
   29.3028   49.1685  -26.8277 H   0  0  0  0  0  0  0  0  0  0  0  0
   28.5531   49.9263  -29.0915 H   0  0  0  0  0  0  0  0  0  0  0  0
   29.6831   48.7971  -29.8445 H   0  0  0  0  0  0  0  0  0  0  0  0
   31.5900   49.9349  -28.6906 H   0  0  0  0  0  0  0  0  0  0  0  0
   30.4604   51.0635  -27.9360 H   0  0  0  0  0  0  0  0  0  0  0  0
   29.7076   51.8222  -30.1999 H   0  0  0  0  0  0  0  0  0  0  0  0
   30.8386   50.6945  -30.9535 H   0  0  0  0  0  0  0  0  0  0  0  0
   32.7445   51.8335  -29.7994 H   0  0  0  0  0  0  0  0  0  0  0  0
   31.6140   52.9600  -29.0432 H   0  0  0  0  0  0  0  0  0  0  0  0
   30.8600   53.7230  -31.3038 H   0  0  0  0  0  0  0  0  0  0  0  0
   31.9888   52.5958  -32.0615 H   0  0  0  0  0  0  0  0  0  0  0  0
   33.8976   53.7316  -30.9091 H   0  0  0  0  0  0  0  0  0  0  0  0
   32.7696   54.8585  -30.1497 H   0  0  0  0  0  0  0  0  0  0  0  0
   32.0124   55.6239  -32.4087 H   0  0  0  0  0  0  0  0  0  0  0  0
   33.1388   54.4959  -33.1690 H   0  0  0  0  0  0  0  0  0  0  0  0
   35.0505   55.6290  -32.0164 H   0  0  0  0  0  0  0  0  0  0  0  0
   33.9236   56.7577  -31.2580 H   0  0  0  0  0  0  0  0  0  0  0  0
   33.1669   57.5201  -33.5193 H   0  0  0  0  0  0  0  0  0  0  0  0
   34.2954   56.3923  -34.2766 H   0  0  0  0  0  0  0  0  0  0  0  0
   36.2044   57.5281  -33.1233 H   0  0  0  0  0  0  0  0  0  0  0  0
   35.0759   58.6559  -32.3660 H   0  0  0  0  0  0  0  0  0  0  0  0
   34.3202   59.4196  -34.6261 H   0  0  0  0  0  0  0  0  0  0  0  0
   35.4474   58.2909  -35.3840 H   0  0  0  0  0  0  0  0  0  0  0  0
   37.3566   59.4284  -34.2345 H   0  0  0  0  0  0  0  0  0  0  0  0
   36.2328   60.5530  -33.4738 H   0  0  0  0  0  0  0  0  0  0  0  0
   35.4758   61.3199  -35.7329 H   0  0  0  0  0  0  0  0  0  0  0  0
   36.5998   60.1898  -36.4932 H   0  0  0  0  0  0  0  0  0  0  0  0
   38.5130   61.3218  -35.3428 H   0  0  0  0  0  0  0  0  0  0  0  0
   37.3885   62.4509  -34.5832 H   0  0  0  0  0  0  0  0  0  0  0  0
   36.6313   63.2172  -36.8520 H   0  0  0  0  0  0  0  0  0  0  0  0
   37.7581   62.0856  -37.6023 H   0  0  0  0  0  0  0  0  0  0  0  0
   39.6689   63.2203  -36.4521 H   0  0  0  0  0  0  0  0  0  0  0  0
   38.5429   64.3493  -35.6927 H   0  0  0  0  0  0  0  0  0  0  0  0
   37.7877   65.1163  -37.9548 H   0  0  0  0  0  0  0  0  0  0  0  0
   38.9152   63.9878  -38.7105 H   0  0  0  0  0  0  0  0  0  0  0  0
   40.8252   65.1228  -37.5621 H   0  0  0  0  0  0  0  0  0  0  0  0
   39.7050   66.2579  -36.8042 H   0  0  0  0  0  0  0  0  0  0  0  0
   38.9434   67.0167  -39.0605 H   0  0  0  0  0  0  0  0  0  0  0  0
   40.0720   65.8897  -39.8195 H   0  0  0  0  0  0  0  0  0  0  0  0
   41.9826   67.0273  -38.6689 H   0  0  0  0  0  0  0  0  0  0  0  0
   40.8543   68.1547  -37.9092 H   0  0  0  0  0  0  0  0  0  0  0  0
   40.1008   68.9236  -40.1692 H   0  0  0  0  0  0  0  0  0  0  0  0
   41.2263   67.7964  -40.9292 H   0  0  0  0  0  0  0  0  0  0  0  0
   43.1443   68.9478  -39.7976 H   0  0  0  0  0  0  0  0  0  0  0  0
   42.0184   70.0755  -39.0372 H   0  0  0  0  0  0  0  0  0  0  0  0
   42.4068   69.7280  -42.0570 H   0  0  0  0  0  0  0  0  0  0  0  0
   43.0234   71.0689  -41.0728 H   0  0  0  0  0  0  0  0  0  0  0  0
   41.2754   70.8613  -41.2930 H   0  0  0  0  0  0  0  0  0  0  0  0
  1  2  2  0  0  0  0
  2  3  1  0  0  0  0
  2  5  1  0  0  0  0
  3  4  1  0  0  0  0
  3 79  1  0  0  0  0
  4  5  1  0  0  0  0
  4 80  1  0  0  0  0
  4 81  1  0  0  0  0
  5  6  1  0  0  0  0
  5 82  1  0  0  0  0
  6  7  1  0  0  0  0
  6 83  1  0  0  0  0
  6 84  1  0  0  0  0
  7  8  1  0  0  0  0
  7 85  1  0  0  0  0
  7 86  1  0  0  0  0
  8  9  1  0  0  0  0
  8 87  1  0  0  0  0
  8 88  1  0  0  0  0
  9 10  1  0  0  0  0
  9 89  1  0  0  0  0
  9 90  1  0  0  0  0
 10 11  1  0  0  0  0
 10 91  1  0  0  0  0
 10 92  1  0  0  0  0
 11 12  1  0  0  0  0
 11 93  1  0  0  0  0
 11 94  1  0  0  0  0
 12 13  1  0  0  0  0
 12 95  1  0  0  0  0
 12 96  1  0  0  0  0
 13 14  1  0  0  0  0
 13 97  1  0  0  0  0
 13 98  1  0  0  0  0
 14 15  1  0  0  0  0
 14 99  1  0  0  0  0
 14100  1  0  0  0  0
 15 16  1  0  0  0  0
 15101  1  0  0  0  0
 15102  1  0  0  0  0
 16 17  1  0  0  0  0
 16103  1  0  0  0  0
 16104  1  0  0  0  0
 17 18  1  0  0  0  0
 17105  1  0  0  0  0
 17106  1  0  0  0  0
 18 19  1  0  0  0  0
 18107  1  0  0  0  0
 18108  1  0  0  0  0
 19 20  1  0  0  0  0
 19109  1  0  0  0  0
 19110  1  0  0  0  0
 20 21  1  0  0  0  0
 20111  1  0  0  0  0
 20112  1  0  0  0  0
 21 22  1  0  0  0  0
 21113  1  0  0  0  0
 21114  1  0  0  0  0
 22 23  1  0  0  0  0
 22115  1  0  0  0  0
 22116  1  0  0  0  0
 23 24  1  0  0  0  0
 23117  1  0  0  0  0
 23118  1  0  0  0  0
 24 25  1  0  0  0  0
 24119  1  0  0  0  0
 24120  1  0  0  0  0
 25 26  1  0  0  0  0
 25121  1  0  0  0  0
 25122  1  0  0  0  0
 26 27  1  0  0  0  0
 26123  1  0  0  0  0
 26124  1  0  0  0  0
 27 28  1  0  0  0  0
 27125  1  0  0  0  0
 27126  1  0  0  0  0
 28 29  1  0  0  0  0
 28127  1  0  0  0  0
 28128  1  0  0  0  0
 29 30  1  0  0  0  0
 29129  1  0  0  0  0
 29130  1  0  0  0  0
 30 31  1  0  0  0  0
 30131  1  0  0  0  0
 30132  1  0  0  0  0
 31 32  1  0  0  0  0
 31133  1  0  0  0  0
 31134  1  0  0  0  0
 32 33  1  0  0  0  0
 32135  1  0  0  0  0
 32136  1  0  0  0  0
 33 34  1  0  0  0  0
 33137  1  0  0  0  0
 33138  1  0  0  0  0
 34 35  1  0  0  0  0
 34139  1  0  0  0  0
 34140  1  0  0  0  0
 35 36  1  0  0  0  0
 35141  1  0  0  0  0
 35142  1  0  0  0  0
 36 37  1  0  0  0  0
 36143  1  0  0  0  0
 36144  1  0  0  0  0
 37 38  1  0  0  0  0
 37145  1  0  0  0  0
 37146  1  0  0  0  0
 38 39  1  0  0  0  0
 38147  1  0  0  0  0
 38148  1  0  0  0  0
 39 40  1  0  0  0  0
 39149  1  0  0  0  0
 39150  1  0  0  0  0
 40 41  1  0  0  0  0
 40151  1  0  0  0  0
 40152  1  0  0  0  0
 41 42  1  0  0  0  0
 41153  1  0  0  0  0
 41154  1  0  0  0  0
 42 43  1  0  0  0  0
 42155  1  0  0  0  0
 42156  1  0  0  0  0
 43 44  1  0  0  0  0
 43157  1  0  0  0  0
 43158  1  0  0  0  0
 44 45  1  0  0  0  0
 44159  1  0  0  0  0
 44160  1  0  0  0  0
 45 46  1  0  0  0  0
 45161  1  0  0  0  0
 45162  1  0  0  0  0
 46 47  1  0  0  0  0
 46163  1  0  0  0  0
 46164  1  0  0  0  0
 47 48  1  0  0  0  0
 47165  1  0  0  0  0
 47166  1  0  0  0  0
 48 49  1  0  0  0  0
 48167  1  0  0  0  0
 48168  1  0  0  0  0
 49 50  1  0  0  0  0
 49169  1  0  0  0  0
 49170  1  0  0  0  0
 50 51  1  0  0  0  0
 50171  1  0  0  0  0
 50172  1  0  0  0  0
 51 52  1  0  0  0  0
 51173  1  0  0  0  0
 51174  1  0  0  0  0
 52 53  1  0  0  0  0
 52175  1  0  0  0  0
 52176  1  0  0  0  0
 53 54  1  0  0  0  0
 53177  1  0  0  0  0
 53178  1  0  0  0  0
 54 55  1  0  0  0  0
 54179  1  0  0  0  0
 54180  1  0  0  0  0
 55 56  1  0  0  0  0
 55181  1  0  0  0  0
 55182  1  0  0  0  0
 56 57  1  0  0  0  0
 56183  1  0  0  0  0
 56184  1  0  0  0  0
 57 58  1  0  0  0  0
 57185  1  0  0  0  0
 57186  1  0  0  0  0
 58 59  1  0  0  0  0
 58187  1  0  0  0  0
 58188  1  0  0  0  0
 59 60  1  0  0  0  0
 59189  1  0  0  0  0
 59190  1  0  0  0  0
 60 61  1  0  0  0  0
 60191  1  0  0  0  0
 60192  1  0  0  0  0
 61 62  1  0  0  0  0
 61193  1  0  0  0  0
 61194  1  0  0  0  0
 62 63  1  0  0  0  0
 62195  1  0  0  0  0
 62196  1  0  0  0  0
 63 64  1  0  0  0  0
 63197  1  0  0  0  0
 63198  1  0  0  0  0
 64 65  1  0  0  0  0
 64199  1  0  0  0  0
 64200  1  0  0  0  0
 65 66  1  0  0  0  0
 65201  1  0  0  0  0
 65202  1  0  0  0  0
 66 67  1  0  0  0  0
 66203  1  0  0  0  0
 66204  1  0  0  0  0
 67 68  1  0  0  0  0
 67205  1  0  0  0  0
 67206  1  0  0  0  0
 68 69  1  0  0  0  0
 68207  1  0  0  0  0
 68208  1  0  0  0  0
 69 70  1  0  0  0  0
 69209  1  0  0  0  0
 69210  1  0  0  0  0
 70 71  1  0  0  0  0
 70211  1  0  0  0  0
 70212  1  0  0  0  0
 71 72  1  0  0  0  0
 71213  1  0  0  0  0
 71214  1  0  0  0  0
 72 73  1  0  0  0  0
 72215  1  0  0  0  0
 72216  1  0  0  0  0
 73 74  1  0  0  0  0
 73217  1  0  0  0  0
 73218  1  0  0  0  0
 74 75  1  0  0  0  0
 74219  1  0  0  0  0
 74220  1  0  0  0  0
 75 76  1  0  0  0  0
 75221  1  0  0  0  0
 75222  1  0  0  0  0
 76 77  1  0  0  0  0
 76223  1  0  0  0  0
 76224  1  0  0  0  0
 77 78  1  0  0  0  0
 77225  1  0  0  0  0
 77226  1  0  0  0  0
 78227  1  0  0  0  0
 78228  1  0  0  0  0
 78229  1  0  0  0  0
M  END
$$$$
