
 OpenBabel04232216473D

 48 49  0  0  0  0  0  0  0  0999 V2000
    2.5970    4.6396    1.6407 C   0  0  0  0  0  0  0  0  0  0  0  0
    1.1347    4.8988    1.4886 C   0  0  0  0  0  0  0  0  0  0  0  0
    0.4258    4.5715    0.3307 C   0  0  0  0  0  0  0  0  0  0  0  0
   -0.9447    4.8522    0.2370 C   0  0  0  0  0  0  0  0  0  0  0  0
   -1.6273    5.4666    1.2980 C   0  0  0  0  0  0  0  0  0  0  0  0
   -3.1042    5.7929    1.1891 C   0  0  0  0  0  0  0  0  0  0  0  0
   -4.0063    4.6099    0.9686 C   0  0  0  0  0  0  0  0  0  0  0  0
   -4.8105    4.4207   -0.0811 C   0  0  0  0  0  0  0  0  0  0  0  0
   -5.6320    3.1769   -0.0977 C   0  0  0  0  0  0  0  0  0  0  0  0
   -5.1424    2.0579   -0.0808 O   0  0  0  0  0  0  0  0  0  0  0  0
   -6.9746    3.4041   -0.1188 N   0  0  0  0  0  0  0  0  0  0  0  0
   -7.4804    4.7490   -0.1370 C   0  0  0  0  0  0  0  0  0  0  0  0
   -8.9908    4.7361   -0.1608 C   0  0  0  0  0  0  0  0  0  0  0  0
   -9.8512    4.0415    1.0295 C   0  0  0  0  0  0  0  0  0  0  0  0
  -11.2585    4.0576    0.9846 C   0  0  0  0  0  0  0  0  0  0  0  0
  -12.0443    3.4007    2.1078 C   0  0  0  0  0  0  0  0  0  0  0  0
  -13.3715    4.1060    2.2870 C   0  0  0  0  0  0  0  0  0  0  0  0
  -14.1708    3.4645    3.4093 C   0  0  0  0  0  0  0  0  0  0  0  0
  -15.5014    4.1739    3.5892 C   0  0  0  0  0  0  0  0  0  0  0  0
  -16.2353    3.5612    4.6375 O   0  0  0  0  0  0  0  0  0  0  0  0
   -9.7694    5.3024   -1.1438 C   0  0  0  0  0  0  0  0  0  0  0  0
   -0.8928    5.7832    2.4517 C   0  0  0  0  0  0  0  0  0  0  0  0
    0.4638    5.5007    2.5450 C   0  0  0  0  0  0  0  0  0  0  0  0
    3.0032    4.1553    0.7518 H   0  0  0  0  0  0  0  0  0  0  0  0
    2.7711    3.9888    2.5041 H   0  0  0  0  0  0  0  0  0  0  0  0
    3.1235    5.5879    1.7949 H   0  0  0  0  0  0  0  0  0  0  0  0
    0.9384    4.0971   -0.5036 H   0  0  0  0  0  0  0  0  0  0  0  0
   -1.4693    4.5822   -0.6779 H   0  0  0  0  0  0  0  0  0  0  0  0
   -3.2409    6.5137    0.3711 H   0  0  0  0  0  0  0  0  0  0  0  0
   -3.4052    6.2967    2.1173 H   0  0  0  0  0  0  0  0  0  0  0  0
   -4.0326    3.8269    1.7130 H   0  0  0  0  0  0  0  0  0  0  0  0
   -4.8860    5.1427   -0.8817 H   0  0  0  0  0  0  0  0  0  0  0  0
   -7.6054    2.6056   -0.1344 H   0  0  0  0  0  0  0  0  0  0  0  0
   -7.1001    5.3003   -0.9951 H   0  0  0  0  0  0  0  0  0  0  0  0
   -7.1377    5.2949    0.7508 H   0  0  0  0  0  0  0  0  0  0  0  0
   -9.2871    3.5702    1.8516 H   0  0  0  0  0  0  0  0  0  0  0  0
  -11.4412    3.4061    3.0252 H   0  0  0  0  0  0  0  0  0  0  0  0
  -12.1726    2.3341    1.8828 H   0  0  0  0  0  0  0  0  0  0  0  0
  -13.9432    4.0728    1.3530 H   0  0  0  0  0  0  0  0  0  0  0  0
  -13.1993    5.1686    2.5144 H   0  0  0  0  0  0  0  0  0  0  0  0
  -13.6043    3.4955    4.3484 H   0  0  0  0  0  0  0  0  0  0  0  0
  -14.3415    2.4030    3.1913 H   0  0  0  0  0  0  0  0  0  0  0  0
  -16.0954    4.1323    2.6705 H   0  0  0  0  0  0  0  0  0  0  0  0
  -15.3436    5.2250    3.8500 H   0  0  0  0  0  0  0  0  0  0  0  0
  -16.3832    2.6331    4.3882 H   0  0  0  0  0  0  0  0  0  0  0  0
  -10.3595    5.7393   -1.9010 H   0  0  0  0  0  0  0  0  0  0  0  0
   -1.3307    6.2377    3.3312 H   0  0  0  0  0  0  0  0  0  0  0  0
    0.9832    5.7540    3.4639 H   0  0  0  0  0  0  0  0  0  0  0  0
  1  2  1  0  0  0  0
  1 24  1  0  0  0  0
  1 25  1  0  0  0  0
  1 26  1  0  0  0  0
  2  3  1  0  0  0  0
  2 23  2  0  0  0  0
  3  4  2  0  0  0  0
  3 27  1  0  0  0  0
  4  5  1  0  0  0  0
  4 28  1  0  0  0  0
  5  6  1  0  0  0  0
  5 22  2  0  0  0  0
  6  7  1  0  0  0  0
  6 29  1  0  0  0  0
  6 30  1  0  0  0  0
  7  8  2  3  0  0  0
  7 31  1  0  0  0  0
  8  9  1  0  0  0  0
  8 32  1  0  0  0  0
  9 10  2  0  0  0  0
  9 11  1  0  0  0  0
 11 12  1  0  0  0  0
 11 33  1  0  0  0  0
 12 13  1  0  0  0  0
 12 34  1  0  0  0  0
 12 35  1  0  0  0  0
 13 14  1  0  0  0  0
 13 21  2  0  0  0  0
 14 15  2  0  0  0  0
 14 36  1  0  0  0  0
 15 16  1  0  0  0  0
 15 21  1  0  0  0  0
 16 17  1  0  0  0  0
 16 37  1  0  0  0  0
 16 38  1  0  0  0  0
 17 18  1  0  0  0  0
 17 39  1  0  0  0  0
 17 40  1  0  0  0  0
 18 19  1  0  0  0  0
 18 41  1  0  0  0  0
 18 42  1  0  0  0  0
 19 20  1  0  0  0  0
 19 43  1  0  0  0  0
 19 44  1  0  0  0  0
 20 45  1  0  0  0  0
 21 46  1  0  0  0  0
 22 23  1  0  0  0  0
 22 47  1  0  0  0  0
 23 48  1  0  0  0  0
M  END
$$$$
