
 OpenBabel04232216513D

153153  0  0  1  0  0  0  0  0999 V2000
 -434.4688  -72.8360  -21.0803 C   0  0  0  0  0  0  0  0  0  0  0  0
 -437.7117  -70.8212  -18.2792 C   0  0  0  0  0  0  0  0  0  0  0  0
 -441.3168  -68.6462  -15.2022 C   0  0  3  0  0  0  0  0  0  0  0  0
 -437.2981  -70.9381  -17.8528 C   0  0  0  0  0  0  0  0  0  0  0  0
 -434.0642  -72.6581  -19.8668 C   0  0  0  0  0  0  0  0  0  0  0  0
 -430.5552  -74.4831  -22.2614 C   0  0  0  0  0  0  0  0  0  0  0  0
 -427.7749  -75.8933  -24.1648 C   0  0  0  0  0  0  0  0  0  0  0  0
 -425.0788  -77.0081  -26.1348 C   0  0  0  0  0  0  0  0  0  0  0  0
 -423.8197  -76.4666  -25.6719 C   0  0  0  0  0  0  0  0  0  0  0  0
 -424.8101  -75.6528  -23.9830 C   0  0  0  0  0  0  0  0  0  0  0  0
 -425.9564  -75.3017  -25.1939 C   0  0  0  0  0  0  0  0  0  0  0  0
 -427.2474  -74.7642  -24.0139 C   0  0  0  0  0  0  0  0  0  0  0  0
 -427.7869  -74.2518  -22.9455 C   0  0  0  0  0  0  0  0  0  0  0  0
 -428.6750  -73.4185  -23.2243 C   0  0  0  0  0  0  0  0  0  0  0  0
 -429.6152  -73.6104  -22.7874 C   0  0  0  0  0  0  0  0  0  0  0  0
 -430.4965  -73.1849  -21.2829 C   0  0  0  0  0  0  0  0  0  0  0  0
 -431.5114  -72.5233  -21.3881 C   0  0  0  0  0  0  0  0  0  0  0  0
 -432.7164  -71.8472  -19.7445 C   0  0  0  0  0  0  0  0  0  0  0  0
 -433.5241  -70.8395  -20.8895 C   0  0  0  0  0  0  0  0  0  0  0  0
 -434.8504  -70.5716  -19.3531 C   0  0  0  0  0  0  0  0  0  0  0  0
 -436.2511  -69.4876  -19.4616 C   0  0  0  0  0  0  0  0  0  0  0  0
 -435.9221  -70.1218  -17.4805 C   0  0  0  0  0  0  0  0  0  0  0  0
 -437.1516  -69.0009  -17.1346 C   0  0  0  0  0  0  0  0  0  0  0  0
 -437.7835  -69.3523  -16.0406 C   0  0  0  0  0  0  0  0  0  0  0  0
 -438.6753  -68.4589  -16.1121 C   0  0  0  0  0  0  0  0  0  0  0  0
 -439.4803  -68.4059  -14.6862 C   0  0  0  0  0  0  0  0  0  0  0  0
 -440.5497  -67.4347  -14.7183 C   0  0  0  0  0  0  0  0  0  0  0  0
 -441.4688  -67.4047  -13.6069 C   0  0  0  0  0  0  0  0  0  0  0  0
 -442.3218  -66.3599  -13.4676 C   0  0  0  0  0  0  0  0  0  0  0  0
 -443.2606  -65.9279  -12.3164 C   0  0  0  0  0  0  0  0  0  0  0  0
 -444.0756  -65.1249  -12.2250 C   0  0  0  0  0  0  0  0  0  0  0  0
 -444.7907  -64.7012  -10.6809 C   0  0  0  0  0  0  0  0  0  0  0  0
 -446.1831  -64.0426  -10.6912 C   0  0  0  0  0  0  0  0  0  0  0  0
 -446.9665  -64.2113   -9.6312 C   0  0  0  0  0  0  0  0  0  0  0  0
 -447.8192  -63.2411   -9.5789 C   0  0  0  0  0  0  0  0  0  0  0  0
 -448.2044  -62.9570   -8.3213 C   0  0  0  0  0  0  0  0  0  0  0  0
 -449.4331  -61.8819   -8.3818 C   0  0  0  0  0  0  0  0  0  0  0  0
 -449.8468  -61.7860   -7.1893 C   0  0  0  0  0  0  0  0  0  0  0  0
 -451.3966  -61.0705   -6.9087 C   0  0  0  0  0  0  0  0  0  0  0  0
 -452.1289  -60.8608   -5.6426 C   0  0  0  0  0  0  0  0  0  0  0  0
 -452.9233  -59.8337   -5.6877 C   0  0  0  0  0  0  0  0  0  0  0  0
 -453.3020  -60.4461   -3.6959 C   0  0  0  0  0  0  0  0  0  0  0  0
 -453.8584  -59.1673   -4.4670 C   0  0  0  0  0  0  0  0  0  0  0  0
 -455.4069  -58.8122   -3.1721 C   0  0  0  0  0  0  0  0  0  0  0  0
 -456.4773  -57.7607   -2.9619 C   0  0  0  0  0  0  0  0  0  0  0  0
 -457.1383  -57.3468   -1.5739 C   0  0  0  0  0  0  0  0  0  0  0  0
 -458.5280  -56.5810   -1.5795 C   0  0  0  0  0  0  0  0  0  0  0  0
 -459.1839  -56.8885    0.2817 C   0  0  0  0  0  0  0  0  0  0  0  0
 -460.5241  -57.1920    1.3313 C   0  0  0  0  0  0  0  0  0  0  0  0
 -460.0664  -56.1768    0.7934 C   0  0  0  0  0  0  0  0  0  0  0  0
 -460.7181  -54.4867    1.1332 C   0  0  0  0  0  0  0  0  0  0  0  0
 -462.4768  -53.8521    1.8002 C   0  0  0  0  0  0  0  0  0  0  0  0
 -463.1230  -52.3693    1.1196 C   0  0  0  0  0  0  0  0  0  0  0  0
 -464.2943  -53.6203    1.5900 C   0  0  0  0  0  0  0  0  0  0  0  0
 -465.5461  -52.6781    2.7902 C   0  0  0  0  0  0  0  0  0  0  0  0
 -465.8664  -52.1416    4.8865 C   0  0  0  0  0  0  0  0  0  0  0  0
 -467.3551  -52.4705    3.9526 C   0  0  0  0  0  0  0  0  0  0  0  0
 -467.9790  -53.6092    5.8961 C   0  0  0  0  0  0  0  0  0  0  0  0
 -469.6932  -52.8389    6.6661 C   0  0  0  0  0  0  0  0  0  0  0  0
 -471.7124  -52.2688    7.3145 C   0  0  0  0  0  0  0  0  0  0  0  0
 -473.1717  -51.3787    7.0075 C   0  0  0  0  0  0  0  0  0  0  0  0
 -473.3038  -49.7431    8.4332 C   0  0  0  0  0  0  0  0  0  0  0  0
 -472.7722  -47.8465    9.2351 C   0  0  0  0  0  0  0  0  0  0  0  0
 -473.5460  -47.0531    8.4297 C   0  0  0  0  0  0  0  0  0  0  0  0
 -474.7193  -46.9803    9.3369 C   0  0  0  0  0  0  0  0  0  0  0  0
 -475.9844  -46.3374    9.5168 C   0  0  0  0  0  0  0  0  0  0  0  0
 -474.0028  -48.1014    9.1764 C   0  0  0  0  0  0  0  0  0  0  0  0
 -470.9106  -50.1586    7.4958 C   0  0  0  0  0  0  0  0  0  0  0  0
 -467.7921  -52.1932    5.2020 C   0  0  0  0  0  0  0  0  0  0  0  0
 -464.2031  -54.4822    2.5643 C   0  0  0  0  0  0  0  0  0  0  0  0
 -461.0586  -56.5595   -0.1415 C   0  0  0  0  0  0  0  0  0  0  0  0
 -457.1832  -58.9956   -3.2843 C   0  0  0  0  0  0  0  0  0  0  0  0
 -453.6635  -61.1293   -5.9515 C   0  0  0  0  0  0  0  0  0  0  0  0
 -449.4573  -63.8350   -8.9862 C   0  0  0  0  0  0  0  0  0  0  0  0
 -445.8413  -66.1004  -11.7440 C   0  0  0  0  0  0  0  0  0  0  0  0
 -432.3218  -74.1743  -22.8998 H   0  0  0  0  0  0  0  0  0  0  0  0
 -432.3332  -74.2062  -22.8895 H   0  0  0  0  0  0  0  0  0  0  0  0
 -432.3071  -74.1907  -22.8705 H   0  0  0  0  0  0  0  0  0  0  0  0
 -435.5771  -72.0596  -19.9524 H   0  0  0  0  0  0  0  0  0  0  0  0
 -435.5546  -72.0407  -19.9385 H   0  0  0  0  0  0  0  0  0  0  0  0
 -439.1846  -69.7801  -16.5422 H   0  0  0  0  0  0  0  0  0  0  0  0
 -435.0362  -72.2407  -19.0161 H   0  0  0  0  0  0  0  0  0  0  0  0
 -431.7969  -73.9969  -21.2097 H   0  0  0  0  0  0  0  0  0  0  0  0
 -428.1185  -75.7893  -23.5229 H   0  0  0  0  0  0  0  0  0  0  0  0
 -425.4465  -76.7597  -25.9102 H   0  0  0  0  0  0  0  0  0  0  0  0
 -423.9406  -78.5319  -27.9620 H   0  0  0  0  0  0  0  0  0  0  0  0
 -424.2110  -76.3457  -27.3889 H   0  0  0  0  0  0  0  0  0  0  0  0
 -425.6787  -75.7656  -25.0146 H   0  0  0  0  0  0  0  0  0  0  0  0
 -426.0474  -75.3094  -26.2359 H   0  0  0  0  0  0  0  0  0  0  0  0
 -427.1004  -76.6727  -23.2967 H   0  0  0  0  0  0  0  0  0  0  0  0
 -427.8689  -74.2344  -24.6491 H   0  0  0  0  0  0  0  0  0  0  0  0
 -428.7466  -74.9994  -24.0600 H   0  0  0  0  0  0  0  0  0  0  0  0
 -429.7309  -73.1815  -23.5730 H   0  0  0  0  0  0  0  0  0  0  0  0
 -431.9843  -72.6869  -20.5227 H   0  0  0  0  0  0  0  0  0  0  0  0
 -431.5325  -72.1071  -22.2504 H   0  0  0  0  0  0  0  0  0  0  0  0
 -432.0294  -73.0050  -19.2622 H   0  0  0  0  0  0  0  0  0  0  0  0
 -434.4253  -69.8556  -21.3039 H   0  0  0  0  0  0  0  0  0  0  0  0
 -436.4515  -70.5649  -19.7493 H   0  0  0  0  0  0  0  0  0  0  0  0
 -435.1729  -69.9229  -19.6133 H   0  0  0  0  0  0  0  0  0  0  0  0
 -435.2639  -70.8368  -16.0790 H   0  0  0  0  0  0  0  0  0  0  0  0
 -437.0338  -68.9043  -18.1989 H   0  0  0  0  0  0  0  0  0  0  0  0
 -437.7730  -70.3328  -15.5696 H   0  0  0  0  0  0  0  0  0  0  0  0
 -438.8302  -67.8469  -16.9279 H   0  0  0  0  0  0  0  0  0  0  0  0
 -440.2628  -67.6896  -14.9090 H   0  0  0  0  0  0  0  0  0  0  0  0
 -440.6636  -66.7613  -15.6226 H   0  0  0  0  0  0  0  0  0  0  0  0
 -441.0831  -67.6528  -12.6742 H   0  0  0  0  0  0  0  0  0  0  0  0
 -442.4775  -65.7241  -14.2795 H   0  0  0  0  0  0  0  0  0  0  0  0
 -444.2752  -66.2508  -12.5399 H   0  0  0  0  0  0  0  0  0  0  0  0
 -444.3086  -64.6330  -12.9754 H   0  0  0  0  0  0  0  0  0  0  0  0
 -444.0962  -65.2348   -9.8477 H   0  0  0  0  0  0  0  0  0  0  0  0
 -446.1406  -63.5877  -11.6278 H   0  0  0  0  0  0  0  0  0  0  0  0
 -446.7566  -64.0048   -8.6427 H   0  0  0  0  0  0  0  0  0  0  0  0
 -447.9562  -62.5240  -10.3034 H   0  0  0  0  0  0  0  0  0  0  0  0
 -448.7261  -63.9581   -7.6015 H   0  0  0  0  0  0  0  0  0  0  0  0
 -449.7986  -61.4217   -9.0246 H   0  0  0  0  0  0  0  0  0  0  0  0
 -448.7910  -62.1249   -6.2309 H   0  0  0  0  0  0  0  0  0  0  0  0
 -451.6113  -60.3895   -7.6596 H   0  0  0  0  0  0  0  0  0  0  0  0
 -451.7328  -61.0736   -4.6636 H   0  0  0  0  0  0  0  0  0  0  0  0
 -453.4396  -59.3077   -6.3579 H   0  0  0  0  0  0  0  0  0  0  0  0
 -452.5715  -60.6600   -1.9583 H   0  0  0  0  0  0  0  0  0  0  0  0
 -455.0907  -58.3601   -4.9764 H   0  0  0  0  0  0  0  0  0  0  0  0
 -455.5942  -58.7250   -2.0503 H   0  0  0  0  0  0  0  0  0  0  0  0
 -457.0664  -57.1981   -3.6730 H   0  0  0  0  0  0  0  0  0  0  0  0
 -456.2410  -57.8149   -0.4536 H   0  0  0  0  0  0  0  0  0  0  0  0
 -458.9247  -56.1124   -2.3624 H   0  0  0  0  0  0  0  0  0  0  0  0
 -458.7388  -56.0564    0.6846 H   0  0  0  0  0  0  0  0  0  0  0  0
 -460.2096  -56.0668    0.1417 H   0  0  0  0  0  0  0  0  0  0  0  0
 -460.0066  -56.4804    2.3424 H   0  0  0  0  0  0  0  0  0  0  0  0
 -462.2684  -54.0990    0.4284 H   0  0  0  0  0  0  0  0  0  0  0  0
 -462.8465  -55.0848    3.0615 H   0  0  0  0  0  0  0  0  0  0  0  0
 -464.3567  -52.8716    1.5977 H   0  0  0  0  0  0  0  0  0  0  0  0
 -465.3137  -55.1740    1.8369 H   0  0  0  0  0  0  0  0  0  0  0  0
 -466.1618  -51.8580    2.8844 H   0  0  0  0  0  0  0  0  0  0  0  0
 -465.7577  -51.7792    5.7848 H   0  0  0  0  0  0  0  0  0  0  0  0
 -467.9376  -50.9613    4.2531 H   0  0  0  0  0  0  0  0  0  0  0  0
 -469.3350  -53.8483    5.3235 H   0  0  0  0  0  0  0  0  0  0  0  0
 -469.9750  -51.2011    5.8485 H   0  0  0  0  0  0  0  0  0  0  0  0
 -472.1500  -52.7465    5.8239 H   0  0  0  0  0  0  0  0  0  0  0  0
 -471.5690  -51.8323    6.4251 H   0  0  0  0  0  0  0  0  0  0  0  0
 -473.5730  -48.8778    8.3415 H   0  0  0  0  0  0  0  0  0  0  0  0
 -473.4929  -47.5754    8.2318 H   0  0  0  0  0  0  0  0  0  0  0  0
 -473.9171  -45.9185    9.6597 H   0  0  0  0  0  0  0  0  0  0  0  0
 -475.3483  -46.3192    9.3618 H   0  0  0  0  0  0  0  0  0  0  0  0
 -476.7388  -47.5749    8.7513 H   0  0  0  0  0  0  0  0  0  0  0  0
 -476.1434  -46.2833   10.3391 H   0  0  0  0  0  0  0  0  0  0  0  0
 -473.1076  -49.0026    9.4397 H   0  0  0  0  0  0  0  0  0  0  0  0
 -470.2192  -50.5659    7.2456 H   0  0  0  0  0  0  0  0  0  0  0  0
 -466.5358  -53.0737    4.5288 H   0  0  0  0  0  0  0  0  0  0  0  0
 -463.2482  -55.2113    1.8472 H   0  0  0  0  0  0  0  0  0  0  0  0
 -459.1903  -57.8252   -1.4469 H   0  0  0  0  0  0  0  0  0  0  0  0
 -455.5053  -60.0728   -4.2272 H   0  0  0  0  0  0  0  0  0  0  0  0
 -450.9231  -62.8832   -7.4821 H   0  0  0  0  0  0  0  0  0  0  0  0
 -443.8425  -67.0597  -12.0462 H   0  0  0  0  0  0  0  0  0  0  0  0
  1  2  1  0  0  0  0
  1 76  1  0  0  0  0
  1 77  1  0  0  0  0
  1 78  1  0  0  0  0
  2  3  1  0  0  0  0
  2 79  1  0  0  0  0
  2 80  1  0  0  0  0
  3  4  1  0  0  0  0
  3 75  1  0  0  0  0
  3 81  1  0  0  0  0
  4  5  2  3  0  0  0
  4 82  1  0  0  0  0
  5  6  1  0  0  0  0
  5 83  1  0  0  0  0
  6  7  2  3  0  0  0
  6 84  1  0  0  0  0
  7  8  1  0  0  0  0
  7 85  1  0  0  0  0
  8  9  2  3  0  0  0
  8 86  1  0  0  0  0
  9 10  1  0  0  0  0
  9 87  1  0  0  0  0
 10 11  2  3  0  0  0
 10 88  1  0  0  0  0
 11 12  1  0  0  0  0
 11 89  1  0  0  0  0
 12 13  2  3  0  0  0
 12 90  1  0  0  0  0
 13 14  1  0  0  0  0
 13 91  1  0  0  0  0
 14 15  2  3  0  0  0
 14 92  1  0  0  0  0
 15 16  1  0  0  0  0
 15 93  1  0  0  0  0
 16 17  2  3  0  0  0
 16 94  1  0  0  0  0
 17 18  1  0  0  0  0
 17 95  1  0  0  0  0
 18 19  2  3  0  0  0
 18 96  1  0  0  0  0
 19 20  1  0  0  0  0
 19 97  1  0  0  0  0
 20 21  2  3  0  0  0
 20 98  1  0  0  0  0
 21 22  1  0  0  0  0
 21 99  1  0  0  0  0
 22 23  2  3  0  0  0
 22100  1  0  0  0  0
 23 24  1  0  0  0  0
 23101  1  0  0  0  0
 24 25  2  3  0  0  0
 24102  1  0  0  0  0
 25 26  1  0  0  0  0
 25103  1  0  0  0  0
 26 27  2  3  0  0  0
 26104  1  0  0  0  0
 27 28  1  0  0  0  0
 27105  1  0  0  0  0
 28 29  2  3  0  0  0
 28106  1  0  0  0  0
 29 30  1  0  0  0  0
 29107  1  0  0  0  0
 30 31  2  3  0  0  0
 30108  1  0  0  0  0
 31 32  1  0  0  0  0
 31109  1  0  0  0  0
 32 33  2  3  0  0  0
 32110  1  0  0  0  0
 33 34  1  0  0  0  0
 33111  1  0  0  0  0
 34 35  2  3  0  0  0
 34112  1  0  0  0  0
 35 36  1  0  0  0  0
 35113  1  0  0  0  0
 36 37  2  3  0  0  0
 36114  1  0  0  0  0
 37 38  1  0  0  0  0
 37115  1  0  0  0  0
 38 39  2  3  0  0  0
 38116  1  0  0  0  0
 39 40  1  0  0  0  0
 39117  1  0  0  0  0
 40 41  2  3  0  0  0
 40118  1  0  0  0  0
 41 42  1  0  0  0  0
 41119  1  0  0  0  0
 42 43  2  3  0  0  0
 42120  1  0  0  0  0
 43 44  1  0  0  0  0
 43121  1  0  0  0  0
 44 45  2  3  0  0  0
 44122  1  0  0  0  0
 45 46  1  0  0  0  0
 45123  1  0  0  0  0
 46 47  2  3  0  0  0
 46124  1  0  0  0  0
 47 48  1  0  0  0  0
 47125  1  0  0  0  0
 48 49  2  3  0  0  0
 48126  1  0  0  0  0
 49 50  1  0  0  0  0
 49127  1  0  0  0  0
 50 51  2  3  0  0  0
 50128  1  0  0  0  0
 51 52  1  0  0  0  0
 51129  1  0  0  0  0
 52 53  2  3  0  0  0
 52130  1  0  0  0  0
 53 54  1  0  0  0  0
 53131  1  0  0  0  0
 54 55  2  3  0  0  0
 54132  1  0  0  0  0
 55 56  1  0  0  0  0
 55133  1  0  0  0  0
 56 57  2  3  0  0  0
 56134  1  0  0  0  0
 57 58  1  0  0  0  0
 57135  1  0  0  0  0
 58 59  2  3  0  0  0
 58136  1  0  0  0  0
 59 60  1  0  0  0  0
 59137  1  0  0  0  0
 60 61  2  3  0  0  0
 60138  1  0  0  0  0
 61 62  1  0  0  0  0
 61139  1  0  0  0  0
 62 63  2  3  0  0  0
 62140  1  0  0  0  0
 63 64  1  0  0  0  0
 63141  1  0  0  0  0
 64 65  2  3  0  0  0
 64142  1  0  0  0  0
 65 66  1  0  0  0  0
 65143  1  0  0  0  0
 66 67  2  3  0  0  0
 66144  1  0  0  0  0
 67 68  1  0  0  0  0
 67145  1  0  0  0  0
 68 69  2  3  0  0  0
 68146  1  0  0  0  0
 69 70  1  0  0  0  0
 69147  1  0  0  0  0
 70 71  2  3  0  0  0
 70148  1  0  0  0  0
 71 72  1  0  0  0  0
 71149  1  0  0  0  0
 72 73  2  3  0  0  0
 72150  1  0  0  0  0
 73 74  1  0  0  0  0
 73151  1  0  0  0  0
 74 75  2  3  0  0  0
 74152  1  0  0  0  0
 75153  1  0  0  0  0
M  END
$$$$
