
 OpenBabel04232216553D

 47 49  0  0  0  0  0  0  0  0999 V2000
   -1.2109    0.5876    0.2350 C   0  0  0  0  0  0  0  0  0  0  0  0
    0.2421    0.6125    0.2579 N   0  0  0  0  0  0  0  0  0  0  0  0
    1.0359    1.7582    0.2248 C   0  0  0  0  0  0  0  0  0  0  0  0
    0.5318    3.1617    0.1863 C   0  0  0  0  0  0  0  0  0  0  0  0
    2.3647    1.3578    0.1694 C   0  0  0  0  0  0  0  0  0  0  0  0
    3.6264    2.1790    0.1141 C   0  0  0  0  0  0  0  0  0  0  0  0
    3.9092    3.0712    1.3297 C   0  0  0  0  0  0  0  0  0  0  0  0
    3.9420    2.4280    2.6439 N   0  0  0  0  0  0  0  0  0  0  0  0
    5.0856    1.5372    2.8503 C   0  0  0  0  0  0  0  0  0  0  0  0
    5.1717    1.1099    4.3199 C   0  0  0  0  0  0  0  0  0  0  0  0
    5.6572   -0.0391    4.9897 N   0  0  0  0  0  0  0  0  0  0  0  0
    5.2921    0.4531    6.1012 C   0  0  0  0  0  0  0  0  0  0  0  0
    4.7702    1.6642    5.4798 C   0  0  0  0  0  0  0  0  0  0  0  0
    4.1886    2.7386    5.9378 N   0  0  0  0  0  0  0  0  0  0  0  0
    2.3236   -0.0391    0.0326 C   0  0  0  0  0  0  0  0  0  0  0  0
    3.4364   -0.8666   -0.1988 C   0  0  0  0  0  0  0  0  0  0  0  0
    3.3396   -1.8199   -1.1436 C   0  0  0  0  0  0  0  0  0  0  0  0
    3.4516   -3.1247   -0.5578 C   0  0  0  0  0  0  0  0  0  0  0  0
    4.8510   -3.5807   -0.2522 C   0  0  0  0  0  0  0  0  0  0  0  0
    2.3755   -3.6489    0.0619 C   0  0  0  0  0  0  0  0  0  0  0  0
    1.0317   -3.0894    0.2458 C   0  0  0  0  0  0  0  0  0  0  0  0
    0.4732   -1.8594    0.3500 C   0  0  0  0  0  0  0  0  0  0  0  0
    1.0461   -0.5361    0.2292 C   0  0  0  0  0  0  0  0  0  0  0  0
   -1.6291    1.5917    0.2355 H   0  0  0  0  0  0  0  0  0  0  0  0
   -1.5723    0.0618    1.1214 H   0  0  0  0  0  0  0  0  0  0  0  0
   -1.5252    0.0763   -0.6802 H   0  0  0  0  0  0  0  0  0  0  0  0
   -0.5520    3.2575    0.1414 H   0  0  0  0  0  0  0  0  0  0  0  0
    0.9349    3.6647   -0.7004 H   0  0  0  0  0  0  0  0  0  0  0  0
    0.8725    3.7087    1.0699 H   0  0  0  0  0  0  0  0  0  0  0  0
    3.5966    2.7980   -0.7891 H   0  0  0  0  0  0  0  0  0  0  0  0
    4.4921    1.5165   -0.0142 H   0  0  0  0  0  0  0  0  0  0  0  0
    3.1424    3.8509    1.3781 H   0  0  0  0  0  0  0  0  0  0  0  0
    4.8537    3.6041    1.1637 H   0  0  0  0  0  0  0  0  0  0  0  0
    3.0921    1.8737    2.7667 H   0  0  0  0  0  0  0  0  0  0  0  0
    6.0137    2.0844    2.6352 H   0  0  0  0  0  0  0  0  0  0  0  0
    5.0995    0.6559    2.2024 H   0  0  0  0  0  0  0  0  0  0  0  0
    5.2913    0.1974    7.1621 H   0  0  0  0  0  0  0  0  0  0  0  0
    3.7967    2.8307    6.8693 H   0  0  0  0  0  0  0  0  0  0  0  0
    3.8350    3.4303    5.2755 H   0  0  0  0  0  0  0  0  0  0  0  0
    4.0881   -0.9997    0.6634 H   0  0  0  0  0  0  0  0  0  0  0  0
    2.5843   -1.7211   -1.9324 H   0  0  0  0  0  0  0  0  0  0  0  0
    5.0572   -4.5825   -0.6252 H   0  0  0  0  0  0  0  0  0  0  0  0
    4.9930   -3.5561    0.8358 H   0  0  0  0  0  0  0  0  0  0  0  0
    5.5952   -2.8906   -0.6696 H   0  0  0  0  0  0  0  0  0  0  0  0
    2.5161   -4.6056    0.5670 H   0  0  0  0  0  0  0  0  0  0  0  0
    0.3340   -3.9098    0.4470 H   0  0  0  0  0  0  0  0  0  0  0  0
   -0.5809   -1.8953    0.6166 H   0  0  0  0  0  0  0  0  0  0  0  0
  1  2  1  0  0  0  0
  1 24  1  0  0  0  0
  1 25  1  0  0  0  0
  1 26  1  0  0  0  0
  2  3  1  0  0  0  0
  2 23  1  0  0  0  0
  3  4  1  0  0  0  0
  3  5  2  0  0  0  0
  4 27  1  0  0  0  0
  4 28  1  0  0  0  0
  4 29  1  0  0  0  0
  5  6  1  0  0  0  0
  5 15  1  0  0  0  0
  6  7  1  0  0  0  0
  6 30  1  0  0  0  0
  6 31  1  0  0  0  0
  7  8  1  0  0  0  0
  7 32  1  0  0  0  0
  7 33  1  0  0  0  0
  8  9  1  0  0  0  0
  8 34  1  0  0  0  0
  9 10  1  0  0  0  0
  9 35  1  0  0  0  0
  9 36  1  0  0  0  0
 10 11  1  0  0  0  0
 10 13  2  0  0  0  0
 11 12  2  0  0  0  0
 12 13  1  0  0  0  0
 12 37  1  0  0  0  0
 13 14  1  0  0  0  0
 14 38  1  0  0  0  0
 14 39  1  0  0  0  0
 15 16  1  0  0  0  0
 15 23  2  0  0  0  0
 16 17  2  0  0  0  0
 16 40  1  0  0  0  0
 17 18  1  0  0  0  0
 17 41  1  0  0  0  0
 18 19  1  0  0  0  0
 18 20  2  0  0  0  0
 19 42  1  0  0  0  0
 19 43  1  0  0  0  0
 19 44  1  0  0  0  0
 20 21  1  0  0  0  0
 20 45  1  0  0  0  0
 21 22  2  0  0  0  0
 21 46  1  0  0  0  0
 22 23  1  0  0  0  0
 22 47  1  0  0  0  0
M  END
$$$$
