
 OpenBabel04232216573D

105104  0  0  0  0  0  0  0  0999 V2000
   15.5501  -20.7227  -15.7058 C   0  0  0  0  0  0  0  0  0  0  0  0
   17.3514  -20.9510  -15.6456 S   0  0  0  0  0  0  0  0  0  0  0  0
   17.9002  -19.5479  -16.7021 C   0  0  0  0  0  0  0  0  0  0  0  0
   17.4794  -18.2028  -16.1503 C   0  0  0  0  0  0  0  0  0  0  0  0
   17.9630  -17.0597  -17.0478 C   0  0  0  0  0  0  0  0  0  0  0  0
   17.5030  -15.7807  -16.4769 N   0  0  0  0  0  0  0  0  0  0  0  0
   17.9403  -14.7328  -17.3530 N   0  0  0  0  0  0  0  0  0  0  0  0
   17.4556  -13.5148  -16.8050 N   0  0  0  0  0  0  0  0  0  0  0  0
   17.9344  -12.4088  -17.5894 N   0  0  0  0  0  0  0  0  0  0  0  0
   17.4474  -11.1507  -17.0837 N   0  0  0  0  0  0  0  0  0  0  0  0
   17.9868  -10.9201  -15.7645 N   0  0  0  0  0  0  0  0  0  0  0  0
   17.5645   -9.6521  -15.2086 C   0  0  0  0  0  0  0  0  0  0  0  0
   18.1789   -9.4901  -13.5058 S   0  0  0  0  0  0  0  0  0  0  0  0
   20.0238   -9.5167  -13.6835 C   0  0  0  0  0  0  0  0  0  0  0  0
   20.6535   -9.3594  -11.9813 S   0  0  0  0  0  0  0  0  0  0  0  0
   22.4654   -9.4409  -12.1687 C   0  0  0  0  0  0  0  0  0  0  0  0
   23.2795   -9.2323  -10.5282 S   0  0  0  0  0  0  0  0  0  0  0  0
   22.6001  -10.6594   -9.5696 C   0  0  0  0  0  0  0  0  0  0  0  0
   23.3395  -10.5941   -7.8862 S   0  0  0  0  0  0  0  0  0  0  0  0
   22.6031  -12.2367   -6.8911 S   0  0  0  0  0  0  0  0  0  0  0  0
   23.3358  -13.9164   -7.8415 S   0  0  0  0  0  0  0  0  0  0  0  0
   25.3954  -13.9654   -7.6410 S   0  0  0  0  0  0  0  0  0  0  0  0
   26.0436  -15.6657   -8.6677 S   0  0  0  0  0  0  0  0  0  0  0  0
   28.1342  -15.6531   -8.6639 S   0  0  0  0  0  0  0  0  0  0  0  0
   28.8068  -17.3974   -9.6187 S   0  0  0  0  0  0  0  0  0  0  0  0
   30.9109  -17.3806   -9.6133 S   0  0  0  0  0  0  0  0  0  0  0  0
   31.5990  -19.1227  -10.5762 S   0  0  0  0  0  0  0  0  0  0  0  0
   33.7072  -19.1098  -10.5686 S   0  0  0  0  0  0  0  0  0  0  0  0
   34.3972  -20.8536  -11.5333 S   0  0  0  0  0  0  0  0  0  0  0  0
   36.5064  -20.8420  -11.5268 S   0  0  0  0  0  0  0  0  0  0  0  0
   37.1969  -22.5861  -12.4914 S   0  0  0  0  0  0  0  0  0  0  0  0
   39.3062  -22.5745  -12.4850 S   0  0  0  0  0  0  0  0  0  0  0  0
   39.9969  -24.3186  -13.4497 S   0  0  0  0  0  0  0  0  0  0  0  0
   42.1062  -24.3070  -13.4433 S   0  0  0  0  0  0  0  0  0  0  0  0
   42.7969  -26.0512  -14.4080 S   0  0  0  0  0  0  0  0  0  0  0  0
   44.9062  -26.0396  -14.4016 S   0  0  0  0  0  0  0  0  0  0  0  0
   45.5968  -27.7837  -15.3662 S   0  0  0  0  0  0  0  0  0  0  0  0
   47.7062  -27.7722  -15.3598 S   0  0  0  0  0  0  0  0  0  0  0  0
   48.3968  -29.5163  -16.3245 S   0  0  0  0  0  0  0  0  0  0  0  0
   50.5062  -29.5047  -16.3181 S   0  0  0  0  0  0  0  0  0  0  0  0
   51.1968  -31.2489  -17.2828 S   0  0  0  0  0  0  0  0  0  0  0  0
   53.3062  -31.2373  -17.2763 S   0  0  0  0  0  0  0  0  0  0  0  0
   53.9968  -32.9814  -18.2410 S   0  0  0  0  0  0  0  0  0  0  0  0
   56.1062  -32.9698  -18.2346 S   0  0  0  0  0  0  0  0  0  0  0  0
   56.7968  -34.7140  -19.1993 S   0  0  0  0  0  0  0  0  0  0  0  0
   58.9062  -34.7024  -19.1929 S   0  0  0  0  0  0  0  0  0  0  0  0
   59.5968  -36.4465  -20.1575 S   0  0  0  0  0  0  0  0  0  0  0  0
   61.7062  -36.4349  -20.1511 S   0  0  0  0  0  0  0  0  0  0  0  0
   62.3968  -38.1791  -21.1158 S   0  0  0  0  0  0  0  0  0  0  0  0
   64.5062  -38.1675  -21.1094 S   0  0  0  0  0  0  0  0  0  0  0  0
   65.1968  -39.9116  -22.0741 S   0  0  0  0  0  0  0  0  0  0  0  0
   67.3062  -39.9000  -22.0676 S   0  0  0  0  0  0  0  0  0  0  0  0
   67.9968  -41.6442  -23.0323 S   0  0  0  0  0  0  0  0  0  0  0  0
   70.1062  -41.6326  -23.0259 S   0  0  0  0  0  0  0  0  0  0  0  0
   70.7968  -43.3767  -23.9906 S   0  0  0  0  0  0  0  0  0  0  0  0
   72.9061  -43.3652  -23.9842 S   0  0  0  0  0  0  0  0  0  0  0  0
   73.5968  -45.1093  -24.9488 S   0  0  0  0  0  0  0  0  0  0  0  0
   75.7061  -45.0977  -24.9424 S   0  0  0  0  0  0  0  0  0  0  0  0
   76.3968  -46.8419  -25.9071 S   0  0  0  0  0  0  0  0  0  0  0  0
   78.5061  -46.8303  -25.9007 S   0  0  0  0  0  0  0  0  0  0  0  0
   79.1968  -48.5744  -26.8654 S   0  0  0  0  0  0  0  0  0  0  0  0
   81.3061  -48.5628  -26.8589 S   0  0  0  0  0  0  0  0  0  0  0  0
   81.9967  -50.3070  -27.8236 S   0  0  0  0  0  0  0  0  0  0  0  0
   84.1061  -50.2954  -27.8172 S   0  0  0  0  0  0  0  0  0  0  0  0
   84.7967  -52.0395  -28.7819 S   0  0  0  0  0  0  0  0  0  0  0  0
   86.9061  -52.0279  -28.7755 S   0  0  0  0  0  0  0  0  0  0  0  0
   87.5967  -53.7721  -29.7401 S   0  0  0  0  0  0  0  0  0  0  0  0
   89.7061  -53.7605  -29.7337 S   0  0  0  0  0  0  0  0  0  0  0  0
   90.3967  -55.5046  -30.6984 S   0  0  0  0  0  0  0  0  0  0  0  0
   92.5060  -55.4930  -30.6920 S   0  0  0  0  0  0  0  0  0  0  0  0
   93.1965  -57.2370  -31.6566 S   0  0  0  0  0  0  0  0  0  0  0  0
   95.3054  -57.2251  -31.6499 S   0  0  0  0  0  0  0  0  0  0  0  0
   95.9945  -58.9685  -32.6145 S   0  0  0  0  0  0  0  0  0  0  0  0
   98.1012  -58.9561  -32.6073 S   0  0  0  0  0  0  0  0  0  0  0  0
   98.7857  -60.6989  -33.5688 S   0  0  0  0  0  0  0  0  0  0  0  0
  100.8852  -60.6756  -33.5661 S   0  0  0  0  0  0  0  0  0  0  0  0
  101.5666  -62.4135  -34.5174 S   0  0  0  0  0  0  0  0  0  0  0  0
  103.6509  -62.3925  -34.4393 S   0  0  0  0  0  0  0  0  0  0  0  0
  104.3412  -64.0049  -35.5484 S   0  0  0  0  0  0  0  0  0  0  0  0
  106.4053  -64.0070  -35.3767 S   0  0  0  0  0  0  0  0  0  0  0  0
  107.0606  -62.4552  -36.5597 S   0  0  0  0  0  0  0  0  0  0  0  0
   15.0931  -21.4907  -15.0749 H   0  0  0  0  0  0  0  0  0  0  0  0
   15.1764  -20.8492  -16.7253 H   0  0  0  0  0  0  0  0  0  0  0  0
   15.2385  -19.7561  -15.3114 H   0  0  0  0  0  0  0  0  0  0  0  0
   17.5343  -19.7125  -17.7188 H   0  0  0  0  0  0  0  0  0  0  0  0
   18.9999  -19.5920  -16.7504 H   0  0  0  0  0  0  0  0  0  0  0  0
   17.8237  -18.0772  -15.1280 H   0  0  0  0  0  0  0  0  0  0  0  0
   16.3668  -18.1490  -16.1191 H   0  0  0  0  0  0  0  0  0  0  0  0
   17.5537  -17.2154  -18.0610 H   0  0  0  0  0  0  0  0  0  0  0  0
   19.0549  -17.0837  -17.0960 H   0  0  0  0  0  0  0  0  0  0  0  0
   17.9123  -15.6391  -15.5658 H   0  0  0  0  0  0  0  0  0  0  0  0
   17.5422  -14.8309  -18.2743 H   0  0  0  0  0  0  0  0  0  0  0  0
   17.8113  -13.4470  -15.8524 H   0  0  0  0  0  0  0  0  0  0  0  0
   17.5778  -12.5721  -18.5228 H   0  0  0  0  0  0  0  0  0  0  0  0
   16.4260  -11.2512  -17.0298 H   0  0  0  0  0  0  0  0  0  0  0  0
   18.9965  -11.0066  -15.7911 H   0  0  0  0  0  0  0  0  0  0  0  0
   16.4679   -9.6343  -15.1391 H   0  0  0  0  0  0  0  0  0  0  0  0
   17.8768   -8.7941  -15.8131 H   0  0  0  0  0  0  0  0  0  0  0  0
   20.3482   -8.6893  -14.3213 H   0  0  0  0  0  0  0  0  0  0  0  0
   20.3363  -10.4724  -14.1079 H   0  0  0  0  0  0  0  0  0  0  0  0
   22.7980   -8.6142  -12.8080 H   0  0  0  0  0  0  0  0  0  0  0  0
   22.7983  -10.3886  -12.6184 H   0  0  0  0  0  0  0  0  0  0  0  0
   22.9219  -11.5825  -10.0474 H   0  0  0  0  0  0  0  0  0  0  0  0
   21.5095  -10.6139   -9.5013 H   0  0  0  0  0  0  0  0  0  0  0  0
  108.3947  -62.5613  -36.4235 H   0  0  0  0  0  0  0  0  0  0  0  0
  1  2  1  0  0  0  0
  1 82  1  0  0  0  0
  1 83  1  0  0  0  0
  1 84  1  0  0  0  0
  2  3  1  0  0  0  0
  3  4  1  0  0  0  0
  3 85  1  0  0  0  0
  3 86  1  0  0  0  0
  4  5  1  0  0  0  0
  4 87  1  0  0  0  0
  4 88  1  0  0  0  0
  5  6  1  0  0  0  0
  5 89  1  0  0  0  0
  5 90  1  0  0  0  0
  6  7  1  0  0  0  0
  6 91  1  0  0  0  0
  7  8  1  0  0  0  0
  7 92  1  0  0  0  0
  8  9  1  0  0  0  0
  8 93  1  0  0  0  0
  9 10  1  0  0  0  0
  9 94  1  0  0  0  0
 10 11  1  0  0  0  0
 10 95  1  0  0  0  0
 11 12  1  0  0  0  0
 11 96  1  0  0  0  0
 12 13  1  0  0  0  0
 12 97  1  0  0  0  0
 12 98  1  0  0  0  0
 13 14  1  0  0  0  0
 14 15  1  0  0  0  0
 14 99  1  0  0  0  0
 14100  1  0  0  0  0
 15 16  1  0  0  0  0
 16 17  1  0  0  0  0
 16101  1  0  0  0  0
 16102  1  0  0  0  0
 17 18  1  0  0  0  0
 18 19  1  0  0  0  0
 18103  1  0  0  0  0
 18104  1  0  0  0  0
 19 20  1  0  0  0  0
 20 21  1  0  0  0  0
 21 22  1  0  0  0  0
 22 23  1  0  0  0  0
 23 24  1  0  0  0  0
 24 25  1  0  0  0  0
 25 26  1  0  0  0  0
 26 27  1  0  0  0  0
 27 28  1  0  0  0  0
 28 29  1  0  0  0  0
 29 30  1  0  0  0  0
 30 31  1  0  0  0  0
 31 32  1  0  0  0  0
 32 33  1  0  0  0  0
 33 34  1  0  0  0  0
 34 35  1  0  0  0  0
 35 36  1  0  0  0  0
 36 37  1  0  0  0  0
 37 38  1  0  0  0  0
 38 39  1  0  0  0  0
 39 40  1  0  0  0  0
 40 41  1  0  0  0  0
 41 42  1  0  0  0  0
 42 43  1  0  0  0  0
 43 44  1  0  0  0  0
 44 45  1  0  0  0  0
 45 46  1  0  0  0  0
 46 47  1  0  0  0  0
 47 48  1  0  0  0  0
 48 49  1  0  0  0  0
 49 50  1  0  0  0  0
 50 51  1  0  0  0  0
 51 52  1  0  0  0  0
 52 53  1  0  0  0  0
 53 54  1  0  0  0  0
 54 55  1  0  0  0  0
 55 56  1  0  0  0  0
 56 57  1  0  0  0  0
 57 58  1  0  0  0  0
 58 59  1  0  0  0  0
 59 60  1  0  0  0  0
 60 61  1  0  0  0  0
 61 62  1  0  0  0  0
 62 63  1  0  0  0  0
 63 64  1  0  0  0  0
 64 65  1  0  0  0  0
 65 66  1  0  0  0  0
 66 67  1  0  0  0  0
 67 68  1  0  0  0  0
 68 69  1  0  0  0  0
 69 70  1  0  0  0  0
 70 71  1  0  0  0  0
 71 72  1  0  0  0  0
 72 73  1  0  0  0  0
 73 74  1  0  0  0  0
 74 75  1  0  0  0  0
 75 76  1  0  0  0  0
 76 77  1  0  0  0  0
 77 78  1  0  0  0  0
 78 79  1  0  0  0  0
 79 80  1  0  0  0  0
 80 81  1  0  0  0  0
 81105  1  0  0  0  0
M  END
$$$$
