
 OpenBabel04232216453D

 59 60  0  0  1  0  0  0  0  0999 V2000
    0.5273   -0.1164    1.4309 C   0  0  0  0  0  0  0  0  0  0  0  0
    1.6496   -0.9772    0.8746 C   0  0  0  0  0  0  0  0  0  0  0  0
    2.9071   -0.7830    1.3858 C   0  0  0  0  0  0  0  0  0  0  0  0
    4.3440   -0.9686    0.8046 C   0  0  0  0  0  0  0  0  0  0  0  0
    4.1365   -1.2931   -0.6383 C   0  0  0  0  0  0  0  0  0  0  0  0
    5.1046    0.4312    0.9102 C   0  0  0  0  0  0  0  0  0  0  0  0
    5.7192    1.0735   -0.3685 C   0  0  0  0  0  0  0  0  0  0  0  0
    6.9913    0.4916   -1.0321 C   0  0  0  0  0  0  0  0  0  0  0  0
    6.8782   -0.6413   -2.0691 C   0  0  0  0  0  0  0  0  0  0  0  0
    7.0096   -2.1260   -1.6339 C   0  0  0  0  0  0  0  0  0  0  0  0
    7.4174   -2.5423   -0.2077 C   0  0  0  0  0  0  0  0  0  0  0  0
    6.7594   -2.0653    1.1180 C   0  0  0  0  0  0  0  0  0  0  0  0
    5.2446   -2.0957    1.3924 C   0  0  0  0  0  0  0  0  0  0  0  0
    4.6770   -3.3624    1.8747 C   0  0  3  0  0  3  0  0  0  0  0  0
    5.2551   -4.1139    3.0458 C   0  0  0  0  0  0  0  0  0  0  0  0
    4.1702   -4.3146    0.8546 C   0  0  0  0  0  0  0  0  0  0  0  0
    4.8667   -4.6576   -0.0825 O   0  0  0  0  0  0  0  0  0  0  0  0
    2.8135   -4.8794    1.0004 C   0  0  0  0  0  0  0  0  0  0  0  0
    1.8361   -4.3161    1.7064 C   0  0  0  0  0  0  0  0  0  0  0  0
    0.4613   -4.5987    1.3404 C   0  0  0  0  0  0  0  0  0  0  0  0
   -0.0803   -5.9805    1.6369 C   0  0  0  0  0  0  0  0  0  0  0  0
   -0.1969   -3.7894    0.4769 C   0  0  0  0  0  0  0  0  0  0  0  0
    0.4121   -2.8028   -0.4102 C   0  0  0  0  0  0  0  0  0  0  0  0
    1.1818   -1.6939   -0.3347 C   0  0  0  0  0  0  0  0  0  0  0  0
    1.3604   -0.9905   -1.6738 C   0  0  0  0  0  0  0  0  0  0  0  0
    0.0001   -0.6065    2.2470 H   0  0  0  0  0  0  0  0  0  0  0  0
   -0.1986    0.1363    0.6437 H   0  0  0  0  0  0  0  0  0  0  0  0
    0.9142    0.8534    1.7730 H   0  0  0  0  0  0  0  0  0  0  0  0
    2.9421   -0.2057    2.3128 H   0  0  0  0  0  0  0  0  0  0  0  0
    3.6651   -0.4705   -1.1697 H   0  0  0  0  0  0  0  0  0  0  0  0
    3.6623   -2.2562   -0.8215 H   0  0  0  0  0  0  0  0  0  0  0  0
    5.0802   -1.3760   -1.0823 H   0  0  0  0  0  0  0  0  0  0  0  0
    5.8719    0.4168    1.6962 H   0  0  0  0  0  0  0  0  0  0  0  0
    4.4003    1.1859    1.2935 H   0  0  0  0  0  0  0  0  0  0  0  0
    6.0028    2.0925   -0.0596 H   0  0  0  0  0  0  0  0  0  0  0  0
    4.9389    1.2411   -1.1199 H   0  0  0  0  0  0  0  0  0  0  0  0
    7.7690    0.2793   -0.2976 H   0  0  0  0  0  0  0  0  0  0  0  0
    7.3855    1.3387   -1.6185 H   0  0  0  0  0  0  0  0  0  0  0  0
    7.6648   -0.4737   -2.8203 H   0  0  0  0  0  0  0  0  0  0  0  0
    5.9589   -0.5064   -2.6619 H   0  0  0  0  0  0  0  0  0  0  0  0
    7.7511   -2.5736   -2.3116 H   0  0  0  0  0  0  0  0  0  0  0  0
    6.1060   -2.6897   -1.9220 H   0  0  0  0  0  0  0  0  0  0  0  0
    8.4848   -2.2935   -0.1219 H   0  0  0  0  0  0  0  0  0  0  0  0
    7.3853   -3.6396   -0.1960 H   0  0  0  0  0  0  0  0  0  0  0  0
    7.1618   -1.0783    1.3534 H   0  0  0  0  0  0  0  0  0  0  0  0
    7.2357   -2.6800    1.8937 H   0  0  0  0  0  0  0  0  0  0  0  0
    6.3064   -4.3800    2.8688 H   0  0  0  0  0  0  0  0  0  0  0  0
    4.7293   -5.0716    3.1942 H   0  0  0  0  0  0  0  0  0  0  0  0
    5.1760   -3.5586    3.9783 H   0  0  0  0  0  0  0  0  0  0  0  0
    2.6153   -5.6914    0.3054 H   0  0  0  0  0  0  0  0  0  0  0  0
    1.9832   -3.4296    2.3181 H   0  0  0  0  0  0  0  0  0  0  0  0
    0.7102   -6.7361    1.5694 H   0  0  0  0  0  0  0  0  0  0  0  0
   -0.8307   -6.2768    0.8920 H   0  0  0  0  0  0  0  0  0  0  0  0
   -0.5341   -6.0426    2.6286 H   0  0  0  0  0  0  0  0  0  0  0  0
   -1.1895   -4.0721    0.1700 H   0  0  0  0  0  0  0  0  0  0  0  0
    0.1209   -3.0926   -1.4217 H   0  0  0  0  0  0  0  0  0  0  0  0
    2.2260   -1.3787   -2.2200 H   0  0  0  0  0  0  0  0  0  0  0  0
    1.4482    0.0929   -1.5590 H   0  0  0  0  0  0  0  0  0  0  0  0
    0.5139   -1.1709   -2.3457 H   0  0  0  0  0  0  0  0  0  0  0  0
  1  2  1  0  0  0  0
  1 26  1  0  0  0  0
  1 27  1  0  0  0  0
  1 28  1  0  0  0  0
  2  3  2  3  0  0  0
  2 24  1  0  0  0  0
  3  4  1  0  0  0  0
  3 29  1  0  0  0  0
  4  5  1  0  0  0  0
  4  6  1  0  0  0  0
  4 13  2  0  0  0  0
  5 30  1  0  0  0  0
  5 31  1  0  0  0  0
  5 32  1  0  0  0  0
  6  7  1  0  0  0  0
  6 33  1  0  0  0  0
  6 34  1  0  0  0  0
  7  8  1  0  0  0  0
  7 35  1  0  0  0  0
  7 36  1  0  0  0  0
  8  9  1  0  0  0  0
  8 37  1  0  0  0  0
  8 38  1  0  0  0  0
  9 10  1  0  0  0  0
  9 39  1  0  0  0  0
  9 40  1  0  0  0  0
 10 11  1  0  0  0  0
 10 41  1  0  0  0  0
 10 42  1  0  0  0  0
 11 12  1  0  0  0  0
 11 43  1  0  0  0  0
 11 44  1  0  0  0  0
 12 13  1  0  0  0  0
 12 45  1  0  0  0  0
 12 46  1  0  0  0  0
 13 14  1  0  0  0  0
 14 15  1  0  0  0  0
 14 16  1  0  0  0  0
 15 47  1  0  0  0  0
 15 48  1  0  0  0  0
 15 49  1  0  0  0  0
 16 17  2  0  0  0  0
 16 18  1  0  0  0  0
 18 19  2  3  0  0  0
 18 50  1  0  0  0  0
 19 20  1  0  0  0  0
 19 51  1  0  0  0  0
 20 21  1  0  0  0  0
 20 22  2  3  0  0  0
 21 52  1  0  0  0  0
 21 53  1  0  0  0  0
 21 54  1  0  0  0  0
 22 23  1  0  0  0  0
 22 55  1  0  0  0  0
 23 24  2  3  0  0  0
 23 56  1  0  0  0  0
 24 25  1  0  0  0  0
 25 57  1  0  0  0  0
 25 58  1  0  0  0  0
 25 59  1  0  0  0  0
M  END
$$$$
