
 OpenBabel04232216523D

 79 80  0  0  1  0  0  0  0  0999 V2000
    0.0987   12.0792   -5.4023 C   0  0  0  0  0  0  0  0  0  0  0  0
    1.5958   12.3064   -5.3296 C   0  0  0  0  0  0  0  0  0  0  0  0
    2.3175   11.0000   -5.0452 C   0  0  0  0  0  0  0  0  0  0  0  0
    3.8182   11.2242   -4.9718 C   0  0  0  0  0  0  0  0  0  0  0  0
    4.5018    9.9037   -4.6860 C   0  0  0  0  0  0  0  0  0  0  0  0
    6.0009   10.0885   -4.6057 C   0  0  0  0  0  0  0  0  0  0  0  0
    6.6214    8.7397   -4.3175 C   0  0  0  0  0  0  0  0  0  0  0  0
    8.1186    8.8694   -4.2276 C   0  0  0  0  0  0  0  0  0  0  0  0
    8.7035    7.5030   -3.9429 C   0  0  0  0  0  0  0  0  0  0  0  0
   10.2009    7.6405   -3.8431 C   0  0  0  0  0  0  0  0  0  0  0  0
   10.8274    6.2889   -3.5433 C   0  0  0  0  0  0  0  0  0  0  0  0
   12.3390    6.4342   -3.4673 C   0  0  3  0  0  0  0  0  0  0  0  0
   12.6735    7.3798   -2.4062 N   0  0  0  0  0  0  0  0  0  0  0  0
   13.7084    8.2533   -2.7009 C   0  0  0  0  0  0  0  0  0  0  0  0
   13.6953    9.0962   -3.5755 O   0  0  0  0  0  0  0  0  0  0  0  0
   14.8699    8.0086   -1.8130 C   0  0  0  0  0  0  0  0  0  0  0  0
   15.2528    6.7083   -1.8857 C   0  0  0  0  0  0  0  0  0  0  0  0
   15.2924    5.9686   -3.1339 C   0  0  0  0  0  0  0  0  0  0  0  0
   14.4848    4.9885   -3.5832 C   0  0  0  0  0  0  0  0  0  0  0  0
   14.8635    3.8760   -4.5489 C   0  0  0  0  0  0  0  0  0  0  0  0
   16.0782    3.8996   -5.4878 C   0  0  0  0  0  0  0  0  0  0  0  0
   17.4576    3.8470   -4.8190 C   0  0  0  0  0  0  0  0  0  0  0  0
   18.1905    5.1846   -4.9133 C   0  0  0  0  0  0  0  0  0  0  0  0
   19.3587    5.2839   -3.9404 C   0  0  0  0  0  0  0  0  0  0  0  0
   19.8167    6.7380   -3.7254 C   0  0  0  0  0  0  0  0  0  0  0  0
   19.2704    7.3840   -2.4364 C   0  0  0  0  0  0  0  0  0  0  0  0
   18.0295    8.2417   -2.6894 C   0  0  0  0  0  0  0  0  0  0  0  0
   17.3285    8.6955   -1.3968 C   0  0  0  0  0  0  0  0  0  0  0  0
   15.8702    9.1334   -1.6565 C   0  0  0  0  0  0  0  0  0  0  0  0
   12.9979    5.0304   -3.2244 C   0  0  0  0  0  0  0  0  0  0  0  0
   -0.4158   13.0211   -5.6080 H   0  0  0  0  0  0  0  0  0  0  0  0
   -0.2790   11.6779   -4.4563 H   0  0  0  0  0  0  0  0  0  0  0  0
   -0.1477   11.3691   -6.1983 H   0  0  0  0  0  0  0  0  0  0  0  0
    1.8209   13.0342   -4.5416 H   0  0  0  0  0  0  0  0  0  0  0  0
    1.9515   12.7285   -6.2765 H   0  0  0  0  0  0  0  0  0  0  0  0
    2.0936   10.2679   -5.8314 H   0  0  0  0  0  0  0  0  0  0  0  0
    1.9630   10.5730   -4.0985 H   0  0  0  0  0  0  0  0  0  0  0  0
    4.0578   11.9460   -4.1817 H   0  0  0  0  0  0  0  0  0  0  0  0
    4.1886   11.6381   -5.9174 H   0  0  0  0  0  0  0  0  0  0  0  0
    4.2622    9.1787   -5.4742 H   0  0  0  0  0  0  0  0  0  0  0  0
    4.1314    9.4863   -3.7411 H   0  0  0  0  0  0  0  0  0  0  0  0
    6.2594   10.8020   -3.8133 H   0  0  0  0  0  0  0  0  0  0  0  0
    6.3906   10.4916   -5.5487 H   0  0  0  0  0  0  0  0  0  0  0  0
    6.3570    8.0273   -5.1093 H   0  0  0  0  0  0  0  0  0  0  0  0
    6.2263    8.3386   -3.3754 H   0  0  0  0  0  0  0  0  0  0  0  0
    8.3911    9.5732   -3.4300 H   0  0  0  0  0  0  0  0  0  0  0  0
    8.5252    9.2693   -5.1652 H   0  0  0  0  0  0  0  0  0  0  0  0
    8.4347    6.7983   -4.7392 H   0  0  0  0  0  0  0  0  0  0  0  0
    8.2975    7.1065   -3.0037 H   0  0  0  0  0  0  0  0  0  0  0  0
   10.4344    8.3604   -3.0492 H   0  0  0  0  0  0  0  0  0  0  0  0
   10.6034    8.0511   -4.7778 H   0  0  0  0  0  0  0  0  0  0  0  0
   10.5627    5.5806   -4.3371 H   0  0  0  0  0  0  0  0  0  0  0  0
   10.4350    5.8956   -2.6003 H   0  0  0  0  0  0  0  0  0  0  0  0
   12.7004    6.8362   -4.4232 H   0  0  0  0  0  0  0  0  0  0  0  0
   12.7052    6.9519   -1.4927 H   0  0  0  0  0  0  0  0  0  0  0  0
   14.8510    6.0790   -1.0918 H   0  0  0  0  0  0  0  0  0  0  0  0
   16.0732    6.2825   -3.7917 H   0  0  0  0  0  0  0  0  0  0  0  0
   14.0015    3.6782   -5.2006 H   0  0  0  0  0  0  0  0  0  0  0  0
   14.9627    2.9783   -3.9211 H   0  0  0  0  0  0  0  0  0  0  0  0
   16.0019    4.7425   -6.1911 H   0  0  0  0  0  0  0  0  0  0  0  0
   15.9979    2.9929   -6.1020 H   0  0  0  0  0  0  0  0  0  0  0  0
   18.0746    3.1021   -5.3401 H   0  0  0  0  0  0  0  0  0  0  0  0
   17.3659    3.4981   -3.7842 H   0  0  0  0  0  0  0  0  0  0  0  0
   17.5194    6.0101   -4.7384 H   0  0  0  0  0  0  0  0  0  0  0  0
   18.5328    5.3470   -5.9412 H   0  0  0  0  0  0  0  0  0  0  0  0
   20.1876    4.7052   -4.3645 H   0  0  0  0  0  0  0  0  0  0  0  0
   19.1096    4.8168   -2.9805 H   0  0  0  0  0  0  0  0  0  0  0  0
   19.5732    7.3549   -4.5996 H   0  0  0  0  0  0  0  0  0  0  0  0
   20.9092    6.7254   -3.6488 H   0  0  0  0  0  0  0  0  0  0  0  0
   20.0454    8.0333   -2.0130 H   0  0  0  0  0  0  0  0  0  0  0  0
   19.0608    6.6147   -1.6836 H   0  0  0  0  0  0  0  0  0  0  0  0
   17.3437    7.6857   -3.3131 H   0  0  0  0  0  0  0  0  0  0  0  0
   18.2997    9.1227   -3.2821 H   0  0  0  0  0  0  0  0  0  0  0  0
   17.8946    9.5400   -0.9799 H   0  0  0  0  0  0  0  0  0  0  0  0
   17.3551    7.9058   -0.6403 H   0  0  0  0  0  0  0  0  0  0  0  0
   15.8614    9.8283   -2.5065 H   0  0  0  0  0  0  0  0  0  0  0  0
   15.5438    9.7381   -0.7647 H   0  0  0  0  0  0  0  0  0  0  0  0
   12.8378    4.6679   -2.2121 H   0  0  0  0  0  0  0  0  0  0  0  0
   12.4767    4.3339   -3.8981 H   0  0  0  0  0  0  0  0  0  0  0  0
  1  2  1  0  0  0  0
  1 31  1  0  0  0  0
  1 32  1  0  0  0  0
  1 33  1  0  0  0  0
  2  3  1  0  0  0  0
  2 34  1  0  0  0  0
  2 35  1  0  0  0  0
  3  4  1  0  0  0  0
  3 36  1  0  0  0  0
  3 37  1  0  0  0  0
  4  5  1  0  0  0  0
  4 38  1  0  0  0  0
  4 39  1  0  0  0  0
  5  6  1  0  0  0  0
  5 40  1  0  0  0  0
  5 41  1  0  0  0  0
  6  7  1  0  0  0  0
  6 42  1  0  0  0  0
  6 43  1  0  0  0  0
  7  8  1  0  0  0  0
  7 44  1  0  0  0  0
  7 45  1  0  0  0  0
  8  9  1  0  0  0  0
  8 46  1  0  0  0  0
  8 47  1  0  0  0  0
  9 10  1  0  0  0  0
  9 48  1  0  0  0  0
  9 49  1  0  0  0  0
 10 11  1  0  0  0  0
 10 50  1  0  0  0  0
 10 51  1  0  0  0  0
 11 12  1  0  0  0  0
 11 52  1  0  0  0  0
 11 53  1  0  0  0  0
 12 13  1  0  0  0  0
 12 30  1  0  0  0  0
 12 54  1  0  0  0  0
 13 14  1  0  0  0  0
 13 55  1  0  0  0  0
 14 15  2  0  0  0  0
 14 16  1  0  0  0  0
 16 17  2  0  0  0  0
 16 29  1  0  0  0  0
 17 18  1  0  0  0  0
 17 56  1  0  0  0  0
 18 19  2  0  0  0  0
 18 57  1  0  0  0  0
 19 20  1  0  0  0  0
 19 30  1  0  0  0  0
 20 21  1  0  0  0  0
 20 58  1  0  0  0  0
 20 59  1  0  0  0  0
 21 22  1  0  0  0  0
 21 60  1  0  0  0  0
 21 61  1  0  0  0  0
 22 23  1  0  0  0  0
 22 62  1  0  0  0  0
 22 63  1  0  0  0  0
 23 24  1  0  0  0  0
 23 64  1  0  0  0  0
 23 65  1  0  0  0  0
 24 25  1  0  0  0  0
 24 66  1  0  0  0  0
 24 67  1  0  0  0  0
 25 26  1  0  0  0  0
 25 68  1  0  0  0  0
 25 69  1  0  0  0  0
 26 27  1  0  0  0  0
 26 70  1  0  0  0  0
 26 71  1  0  0  0  0
 27 28  1  0  0  0  0
 27 72  1  0  0  0  0
 27 73  1  0  0  0  0
 28 29  1  0  0  0  0
 28 74  1  0  0  0  0
 28 75  1  0  0  0  0
 29 76  1  0  0  0  0
 29 77  1  0  0  0  0
 30 78  1  0  0  0  0
 30 79  1  0  0  0  0
M  END
$$$$
