
 OpenBabel04232216463D

 64 65  0  0  0  0  0  0  0  0999 V2000
    7.1921   -2.5290    0.3371 C   0  0  0  0  0  0  0  0  0  0  0  0
    7.3226   -1.6204   -0.8563 C   0  0  0  0  0  0  0  0  0  0  0  0
    6.0472   -1.5588   -1.6131 C   0  0  0  0  0  0  0  0  0  0  0  0
    5.3479   -0.4134   -1.7870 C   0  0  0  0  0  0  0  0  0  0  0  0
    5.5439    0.7665   -0.7626 C   0  0  0  0  0  0  0  0  0  0  0  0
    4.5522    1.2728    0.3715 C   0  0  0  0  0  0  0  0  0  0  0  0
    5.3282    2.0615    1.5389 C   0  0  0  0  0  0  0  0  0  0  0  0
    4.4647    2.9435    2.4899 C   0  0  0  0  0  0  0  0  0  0  0  0
    5.1760    3.8121    3.5844 C   0  0  0  0  0  0  0  0  0  0  0  0
    6.2711    4.8727    3.2688 C   0  0  0  0  0  0  0  0  0  0  0  0
    5.8657    6.1687    2.6175 N   0  0  0  0  0  0  0  0  0  0  0  0
    6.7919    6.6959    1.8643 C   0  0  0  0  0  0  0  0  0  0  0  0
    6.8626    8.1023    1.2066 C   0  0  0  0  0  0  0  0  0  0  0  0
    6.1221    9.1664    1.6499 N   0  0  0  0  0  0  0  0  0  0  0  0
    6.7916    9.9090    2.4750 C   0  0  0  0  0  0  0  0  0  0  0  0
    6.6365   11.3930    2.5983 C   0  0  0  0  0  0  0  0  0  0  0  0
    6.8111   11.9137    1.3666 C   0  0  0  0  0  0  0  0  0  0  0  0
    8.1578   12.3453    1.0069 C   0  0  0  0  0  0  0  0  0  0  0  0
    8.8732   11.7010    0.0703 C   0  0  0  0  0  0  0  0  0  0  0  0
    8.3626   10.6742   -0.8364 C   0  0  0  0  0  0  0  0  0  0  0  0
    7.9203    9.4090   -0.7816 C   0  0  0  0  0  0  0  0  0  0  0  0
    7.7434    8.3123    0.1949 C   0  0  0  0  0  0  0  0  0  0  0  0
    5.0188   -0.4206   -3.2727 C   0  0  0  0  0  0  0  0  0  0  0  0
    6.0239   -0.1803   -4.1608 C   0  0  0  0  0  0  0  0  0  0  0  0
    6.7486   -1.1425   -5.0416 C   0  0  0  0  0  0  0  0  0  0  0  0
    7.9000   -1.7265   -4.6267 C   0  0  0  0  0  0  0  0  0  0  0  0
    9.2019   -1.1276   -4.9648 C   0  0  0  0  0  0  0  0  0  0  0  0
    9.7428   -0.1787   -4.1858 C   0  0  0  0  0  0  0  0  0  0  0  0
    9.0499    0.4826   -3.0971 C   0  0  0  0  0  0  0  0  0  0  0  0
    8.4784    0.1026   -1.9433 C   0  0  0  0  0  0  0  0  0  0  0  0
    8.4574   -1.0374   -1.1541 N   0  0  0  0  0  0  0  0  0  0  0  0
    7.0529   -3.5635    0.0123 H   0  0  0  0  0  0  0  0  0  0  0  0
    6.2898   -2.2283    0.8899 H   0  0  0  0  0  0  0  0  0  0  0  0
    8.0480   -2.4347    1.0018 H   0  0  0  0  0  0  0  0  0  0  0  0
    5.9641   -2.4090   -2.2949 H   0  0  0  0  0  0  0  0  0  0  0  0
    5.8984    1.6465   -1.3044 H   0  0  0  0  0  0  0  0  0  0  0  0
    6.3737    0.4438   -0.1233 H   0  0  0  0  0  0  0  0  0  0  0  0
    4.0168    0.4266    0.8221 H   0  0  0  0  0  0  0  0  0  0  0  0
    3.8086    1.9409   -0.0725 H   0  0  0  0  0  0  0  0  0  0  0  0
    6.0933    2.6985    1.0874 H   0  0  0  0  0  0  0  0  0  0  0  0
    5.8541    1.3147    2.1524 H   0  0  0  0  0  0  0  0  0  0  0  0
    3.7989    2.2577    3.0415 H   0  0  0  0  0  0  0  0  0  0  0  0
    3.8137    3.5972    1.9062 H   0  0  0  0  0  0  0  0  0  0  0  0
    5.6470    3.0955    4.2774 H   0  0  0  0  0  0  0  0  0  0  0  0
    4.3916    4.2938    4.1872 H   0  0  0  0  0  0  0  0  0  0  0  0
    7.1183    4.3889    2.7738 H   0  0  0  0  0  0  0  0  0  0  0  0
    6.6427    5.1811    4.2617 H   0  0  0  0  0  0  0  0  0  0  0  0
    7.6820    6.0866    1.6288 H   0  0  0  0  0  0  0  0  0  0  0  0
    7.7126    9.5366    2.9757 H   0  0  0  0  0  0  0  0  0  0  0  0
    7.1946   11.7839    3.4502 H   0  0  0  0  0  0  0  0  0  0  0  0
    6.3038   11.4254    0.5368 H   0  0  0  0  0  0  0  0  0  0  0  0
    8.5789   13.2102    1.5111 H   0  0  0  0  0  0  0  0  0  0  0  0
    9.8406   12.1282   -0.2232 H   0  0  0  0  0  0  0  0  0  0  0  0
    8.3574   11.0971   -1.8551 H   0  0  0  0  0  0  0  0  0  0  0  0
    7.5858    9.0454   -1.7619 H   0  0  0  0  0  0  0  0  0  0  0  0
    8.2984    7.4243   -0.1449 H   0  0  0  0  0  0  0  0  0  0  0  0
    4.3961   -1.2884   -3.5224 H   0  0  0  0  0  0  0  0  0  0  0  0
    6.6551    0.6865   -3.9917 H   0  0  0  0  0  0  0  0  0  0  0  0
    6.7031   -0.8587   -6.1055 H   0  0  0  0  0  0  0  0  0  0  0  0
    7.9818   -2.0720   -3.5943 H   0  0  0  0  0  0  0  0  0  0  0  0
    9.7334   -1.4666   -5.8555 H   0  0  0  0  0  0  0  0  0  0  0  0
   10.6718    0.3091   -4.5010 H   0  0  0  0  0  0  0  0  0  0  0  0
    8.8879    1.5336   -3.3630 H   0  0  0  0  0  0  0  0  0  0  0  0
    7.9582    0.9341   -1.4739 H   0  0  0  0  0  0  0  0  0  0  0  0
  1  2  1  0  0  0  0
  1 32  1  0  0  0  0
  1 33  1  0  0  0  0
  1 34  1  0  0  0  0
  2  3  1  0  0  0  0
  2 31  2  3  0  0  0
  3  4  2  3  0  0  0
  3 35  1  0  0  0  0
  4  5  1  0  0  0  0
  4 23  1  0  0  0  0
  5  6  1  0  0  0  0
  5 36  1  0  0  0  0
  5 37  1  0  0  0  0
  6  7  1  0  0  0  0
  6 38  1  0  0  0  0
  6 39  1  0  0  0  0
  7  8  1  0  0  0  0
  7 40  1  0  0  0  0
  7 41  1  0  0  0  0
  8  9  1  0  0  0  0
  8 42  1  0  0  0  0
  8 43  1  0  0  0  0
  9 10  1  0  0  0  0
  9 44  1  0  0  0  0
  9 45  1  0  0  0  0
 10 11  1  0  0  0  0
 10 46  1  0  0  0  0
 10 47  1  0  0  0  0
 11 12  2  3  0  0  0
 12 13  1  0  0  0  0
 12 48  1  0  0  0  0
 13 14  1  0  0  0  0
 13 22  2  0  0  0  0
 14 15  2  0  0  0  0
 15 16  1  0  0  0  0
 15 49  1  0  0  0  0
 16 17  2  0  0  0  0
 16 50  1  0  0  0  0
 17 18  1  0  0  0  0
 17 51  1  0  0  0  0
 18 19  2  0  0  0  0
 18 52  1  0  0  0  0
 19 20  1  0  0  0  0
 19 53  1  0  0  0  0
 20 21  2  0  0  0  0
 20 54  1  0  0  0  0
 21 22  1  0  0  0  0
 21 55  1  0  0  0  0
 22 56  1  0  0  0  0
 23 24  2  3  0  0  0
 23 57  1  0  0  0  0
 24 25  1  0  0  0  0
 24 58  1  0  0  0  0
 25 26  2  3  0  0  0
 25 59  1  0  0  0  0
 26 27  1  0  0  0  0
 26 60  1  0  0  0  0
 27 28  2  3  0  0  0
 27 61  1  0  0  0  0
 28 29  1  0  0  0  0
 28 62  1  0  0  0  0
 29 30  2  3  0  0  0
 29 63  1  0  0  0  0
 30 31  1  0  0  0  0
 30 64  1  0  0  0  0
M  END
$$$$
