
 OpenBabel04232216473D

 52 53  0  0  1  0  0  0  0  0999 V2000
    4.7517   -3.0630    1.3729 C   0  0  0  0  0  0  0  0  0  0  0  0
    6.2472   -2.9006    1.1099 C   0  0  3  0  0  0  0  0  0  0  0  0
    6.4468   -2.5749   -0.3636 C   0  0  0  0  0  0  0  0  0  0  0  0
    7.5009   -2.7446   -1.1971 C   0  0  0  0  0  0  0  0  0  0  0  0
    7.6420   -1.7481   -2.1720 N   0  0  0  0  0  0  0  0  0  0  0  0
    8.4418   -0.5177   -1.9399 C   0  0  0  0  0  0  0  0  0  0  0  0
    9.7641   -0.6884   -1.1882 C   0  0  0  0  0  0  0  0  0  0  0  0
    9.8021   -0.2680    0.2926 C   0  0  0  0  0  0  0  0  0  0  0  0
    9.0728   -1.1781    1.2496 C   0  0  0  0  0  0  0  0  0  0  0  0
    7.6836   -4.1592   -1.6440 C   0  0  0  0  0  0  0  0  0  0  0  0
    9.0903   -4.7799   -1.4507 C   0  0  0  0  0  0  0  0  0  0  0  0
    9.6250   -5.5554   -0.1565 C   0  0  0  0  0  0  0  0  0  0  0  0
    9.1732   -5.2035    1.2774 C   0  0  0  0  0  0  0  0  0  0  0  0
    6.5925   -4.7875   -2.2292 C   0  0  0  0  0  0  0  0  0  0  0  0
    6.0560   -6.1139   -1.9075 C   0  0  0  0  0  0  0  0  0  0  0  0
    4.5955   -6.0849   -1.3768 C   0  0  0  0  0  0  0  0  0  0  0  0
    6.8617   -7.0223   -1.3408 C   0  0  0  0  0  0  0  0  0  0  0  0
    6.9534   -7.0280    0.1408 C   0  0  0  0  0  0  0  0  0  0  0  0
    7.1887   -8.3767    0.7315 C   0  0  0  0  0  0  0  0  0  0  0  0
    6.7136   -5.8742    0.8089 C   0  0  0  0  0  0  0  0  0  0  0  0
    7.6846   -4.8854    1.3655 C   0  0  0  0  0  0  0  0  0  0  0  0
    7.3398   -3.7016    1.7071 N   0  0  0  0  0  0  0  0  0  0  0  0
    4.1953   -3.4909    0.5252 H   0  0  0  0  0  0  0  0  0  0  0  0
    4.3100   -2.0415    1.4427 H   0  0  0  0  0  0  0  0  0  0  0  0
    4.4731   -3.5703    2.2928 H   0  0  0  0  0  0  0  0  0  0  0  0
    6.3863   -1.9181    1.5817 H   0  0  0  0  0  0  0  0  0  0  0  0
    5.5659   -2.1214   -0.8122 H   0  0  0  0  0  0  0  0  0  0  0  0
    6.7032   -1.3651   -2.3298 H   0  0  0  0  0  0  0  0  0  0  0  0
    7.8254    0.2763   -1.4954 H   0  0  0  0  0  0  0  0  0  0  0  0
    8.6884   -0.1601   -2.9500 H   0  0  0  0  0  0  0  0  0  0  0  0
   10.4788   -0.0145   -1.6690 H   0  0  0  0  0  0  0  0  0  0  0  0
   10.1599   -1.7021   -1.3089 H   0  0  0  0  0  0  0  0  0  0  0  0
    9.4166    0.7486    0.4180 H   0  0  0  0  0  0  0  0  0  0  0  0
   10.8528   -0.2668    0.6155 H   0  0  0  0  0  0  0  0  0  0  0  0
    8.0005   -0.9284    1.2022 H   0  0  0  0  0  0  0  0  0  0  0  0
    9.3664   -1.0515    2.2814 H   0  0  0  0  0  0  0  0  0  0  0  0
    9.2215   -2.2360    0.9826 H   0  0  0  0  0  0  0  0  0  0  0  0
    9.8599   -4.0518   -1.7025 H   0  0  0  0  0  0  0  0  0  0  0  0
    9.2257   -5.5278   -2.2537 H   0  0  0  0  0  0  0  0  0  0  0  0
    9.4245   -6.6270   -0.2918 H   0  0  0  0  0  0  0  0  0  0  0  0
   10.7196   -5.5307   -0.1817 H   0  0  0  0  0  0  0  0  0  0  0  0
    9.7881   -4.3771    1.6729 H   0  0  0  0  0  0  0  0  0  0  0  0
    9.3780   -6.0580    1.9468 H   0  0  0  0  0  0  0  0  0  0  0  0
    5.7763   -4.0955   -2.5076 H   0  0  0  0  0  0  0  0  0  0  0  0
    4.2157   -5.0711   -1.2038 H   0  0  0  0  0  0  0  0  0  0  0  0
    4.4936   -6.5809   -0.3928 H   0  0  0  0  0  0  0  0  0  0  0  0
    3.9116   -6.6305   -2.0222 H   0  0  0  0  0  0  0  0  0  0  0  0
    7.8480   -7.1859   -1.7751 H   0  0  0  0  0  0  0  0  0  0  0  0
    6.2380   -8.9281    0.7341 H   0  0  0  0  0  0  0  0  0  0  0  0
    7.5657   -8.3314    1.7537 H   0  0  0  0  0  0  0  0  0  0  0  0
    7.8930   -8.9544    0.1200 H   0  0  0  0  0  0  0  0  0  0  0  0
    6.1842   -5.1392    0.2232 H   0  0  0  0  0  0  0  0  0  0  0  0
  1  2  1  0  0  0  0
  1 23  1  0  0  0  0
  1 24  1  0  0  0  0
  1 25  1  0  0  0  0
  2  3  1  0  0  0  0
  2 22  1  0  0  0  0
  2 26  1  0  0  0  0
  3  4  2  3  0  0  0
  3 27  1  0  0  0  0
  4  5  1  0  0  0  0
  4 10  1  0  0  0  0
  5  6  1  0  0  0  0
  5 28  1  0  0  0  0
  6  7  1  0  0  0  0
  6 29  1  0  0  0  0
  6 30  1  0  0  0  0
  7  8  1  0  0  0  0
  7 31  1  0  0  0  0
  7 32  1  0  0  0  0
  8  9  1  0  0  0  0
  8 33  1  0  0  0  0
  8 34  1  0  0  0  0
  9 35  1  0  0  0  0
  9 36  1  0  0  0  0
  9 37  1  0  0  0  0
 10 11  1  0  0  0  0
 10 14  2  3  0  0  0
 11 12  1  0  0  0  0
 11 38  1  0  0  0  0
 11 39  1  0  0  0  0
 12 13  1  0  0  0  0
 12 40  1  0  0  0  0
 12 41  1  0  0  0  0
 13 21  1  0  0  0  0
 13 42  1  0  0  0  0
 13 43  1  0  0  0  0
 14 15  1  0  0  0  0
 14 44  1  0  0  0  0
 15 16  1  0  0  0  0
 15 17  2  3  0  0  0
 16 45  1  0  0  0  0
 16 46  1  0  0  0  0
 16 47  1  0  0  0  0
 17 18  1  0  0  0  0
 17 48  1  0  0  0  0
 18 19  1  0  0  0  0
 18 20  2  3  0  0  0
 19 49  1  0  0  0  0
 19 50  1  0  0  0  0
 19 51  1  0  0  0  0
 20 21  1  0  0  0  0
 20 52  1  0  0  0  0
 21 22  2  3  0  0  0
M  END
$$$$
