
 OpenBabel04232216443D

 55 57  0  0  0  0  0  0  0  0999 V2000
    0.8831    0.0843   -0.3165 C   0  0  0  0  0  0  0  0  0  0  0  0
    1.3538   -0.4715    1.0414 C   0  0  0  0  0  0  0  0  0  0  0  0
    2.8852   -0.6835    1.3348 C   0  0  0  0  0  0  0  0  0  0  0  0
    2.7785   -1.3520    2.5742 C   0  0  0  0  0  0  0  0  0  0  0  0
    4.2669   -0.6265    1.1686 C   0  0  0  0  0  0  0  0  0  0  0  0
    5.3854   -1.1174    2.3596 C   0  0  0  0  0  0  0  0  0  0  0  0
    6.2819   -2.3536    2.1883 C   0  0  0  0  0  0  0  0  0  0  0  0
    7.2048   -2.3095    1.0048 C   0  0  0  0  0  0  0  0  0  0  0  0
    8.0261   -3.5935    0.9638 C   0  0  0  0  0  0  0  0  0  0  0  0
    8.9489   -3.5397   -0.2307 C   0  0  0  0  0  0  0  0  0  0  0  0
    9.7802   -4.8063   -0.2974 C   0  0  0  0  0  0  0  0  0  0  0  0
   10.6944   -4.7233   -1.4999 C   0  0  0  0  0  0  0  0  0  0  0  0
   11.6229   -5.9454   -1.7220 C   0  0  0  0  0  0  0  0  0  0  0  0
   11.3489   -5.7867   -3.2276 C   0  0  0  0  0  0  0  0  0  0  0  0
   10.0280   -5.0883   -2.8444 C   0  0  0  0  0  0  0  0  0  0  0  0
    5.6714    0.0489    3.2497 N   0  0  0  0  0  2  0  0  0  0  0  0
    5.2837   -1.0451    3.8778 C   0  0  0  0  0  0  0  0  0  0  0  0
    4.2565   -1.5356    4.7311 C   0  0  0  0  0  0  0  0  0  0  0  0
    3.3214   -2.0224    5.5656 C   0  0  0  0  0  0  0  0  0  0  0  0
    1.8999   -1.8806    5.2376 C   0  0  0  0  0  0  0  0  0  0  0  0
    0.6476   -2.2339    5.5155 C   0  0  0  0  0  0  0  0  0  0  0  0
   -0.3728   -1.8476    4.4758 C   0  0  0  0  0  0  0  0  0  0  0  0
   -0.4054   -1.3302    3.1970 C   0  0  0  0  0  0  0  0  0  0  0  0
    0.2476   -0.7706    1.8814 C   0  0  0  0  0  0  0  0  0  0  0  0
   -0.2216    0.1002   -0.3715 H   0  0  0  0  0  0  0  0  0  0  0  0
    1.1549   -0.5489   -1.1657 H   0  0  0  0  0  0  0  0  0  0  0  0
    1.1518    1.1301   -0.4870 H   0  0  0  0  0  0  0  0  0  0  0  0
    1.8447   -1.8292    2.7081 H   0  0  0  0  0  0  0  0  0  0  0  0
    2.9148   -0.4821    3.2452 H   0  0  0  0  0  0  0  0  0  0  0  0
    3.3651   -2.2663    2.6068 H   0  0  0  0  0  0  0  0  0  0  0  0
    4.8024   -0.1885    0.3218 H   0  0  0  0  0  0  0  0  0  0  0  0
    5.6731   -3.2682    2.1880 H   0  0  0  0  0  0  0  0  0  0  0  0
    6.9449   -2.4884    3.0685 H   0  0  0  0  0  0  0  0  0  0  0  0
    7.8823   -1.4520    1.0852 H   0  0  0  0  0  0  0  0  0  0  0  0
    6.6180   -2.1964    0.0906 H   0  0  0  0  0  0  0  0  0  0  0  0
    7.3724   -4.4725    0.8972 H   0  0  0  0  0  0  0  0  0  0  0  0
    8.6181   -3.7076    1.8835 H   0  0  0  0  0  0  0  0  0  0  0  0
    9.5964   -2.6575   -0.1482 H   0  0  0  0  0  0  0  0  0  0  0  0
    8.3651   -3.4190   -1.1509 H   0  0  0  0  0  0  0  0  0  0  0  0
    9.1261   -5.6824   -0.3777 H   0  0  0  0  0  0  0  0  0  0  0  0
   10.3575   -4.9170    0.6290 H   0  0  0  0  0  0  0  0  0  0  0  0
   11.2347   -3.7660   -1.5356 H   0  0  0  0  0  0  0  0  0  0  0  0
   11.2361   -6.8834   -1.3047 H   0  0  0  0  0  0  0  0  0  0  0  0
   12.6592   -5.8193   -1.3964 H   0  0  0  0  0  0  0  0  0  0  0  0
   11.2415   -6.7228   -3.7793 H   0  0  0  0  0  0  0  0  0  0  0  0
   12.0661   -5.1385   -3.7421 H   0  0  0  0  0  0  0  0  0  0  0  0
    9.1836   -5.7815   -2.7491 H   0  0  0  0  0  0  0  0  0  0  0  0
    9.7228   -4.2427   -3.4647 H   0  0  0  0  0  0  0  0  0  0  0  0
    5.0288   -2.2251    5.0511 H   0  0  0  0  0  0  0  0  0  0  0  0
    3.5801   -2.7043    6.3439 H   0  0  0  0  0  0  0  0  0  0  0  0
    1.7997   -1.2812    4.3832 H   0  0  0  0  0  0  0  0  0  0  0  0
    0.3652   -2.7828    6.4192 H   0  0  0  0  0  0  0  0  0  0  0  0
   -1.3645   -2.0736    4.9090 H   0  0  0  0  0  0  0  0  0  0  0  0
   -1.4763   -1.2621    2.9488 H   0  0  0  0  0  0  0  0  0  0  0  0
   -0.6735   -0.5395    1.3444 H   0  0  0  0  0  0  0  0  0  0  0  0
  1  2  1  0  0  0  0
  1 25  1  0  0  0  0
  1 26  1  0  0  0  0
  1 27  1  0  0  0  0
  2  3  1  0  0  0  0
  2 24  2  3  0  0  0
  3  4  1  0  0  0  0
  3  5  2  3  0  0  0
  4 28  1  0  0  0  0
  4 29  1  0  0  0  0
  4 30  1  0  0  0  0
  5  6  1  0  0  0  0
  5 31  1  0  0  0  0
  6  7  1  0  0  0  0
  6 16  1  0  0  0  0
  6 17  2  0  0  0  0
  7  8  1  0  0  0  0
  7 32  1  0  0  0  0
  7 33  1  0  0  0  0
  8  9  1  0  0  0  0
  8 34  1  0  0  0  0
  8 35  1  0  0  0  0
  9 10  1  0  0  0  0
  9 36  1  0  0  0  0
  9 37  1  0  0  0  0
 10 11  1  0  0  0  0
 10 38  1  0  0  0  0
 10 39  1  0  0  0  0
 11 12  1  0  0  0  0
 11 40  1  0  0  0  0
 11 41  1  0  0  0  0
 12 13  1  0  0  0  0
 12 15  1  0  0  0  0
 12 42  1  0  0  0  0
 13 14  1  0  0  0  0
 13 43  1  0  0  0  0
 13 44  1  0  0  0  0
 14 15  1  0  0  0  0
 14 45  1  0  0  0  0
 14 46  1  0  0  0  0
 15 47  1  0  0  0  0
 15 48  1  0  0  0  0
 16 17  1  0  0  0  0
 17 18  1  0  0  0  0
 18 19  2  3  0  0  0
 18 49  1  0  0  0  0
 19 20  1  0  0  0  0
 19 50  1  0  0  0  0
 20 21  2  3  0  0  0
 20 51  1  0  0  0  0
 21 22  1  0  0  0  0
 21 52  1  0  0  0  0
 22 23  2  3  0  0  0
 22 53  1  0  0  0  0
 23 24  1  0  0  0  0
 23 54  1  0  0  0  0
 24 55  1  0  0  0  0
M  END
$$$$
