
 OpenBabel04232216503D

 75 76  0  0  1  0  0  0  0  0999 V2000
    6.5024   -2.9734    0.1189 C   0  0  0  0  0  0  0  0  0  0  0  0
    7.2908   -2.7819   -1.3691 C   0  0  3  0  0  0  0  0  0  0  0  0
    5.7126   -2.6047   -2.0991 C   0  0  0  0  0  0  0  0  0  0  0  0
    5.1593   -1.0852   -1.9914 C   0  0  0  0  0  0  0  0  0  0  0  0
    5.3635   -0.3332   -3.3216 C   0  0  0  0  0  0  0  0  0  0  0  0
    6.8178   -0.3000   -3.5314 C   0  0  0  0  0  0  0  0  0  0  0  0
    7.1078   -1.4845   -4.3177 C   0  0  0  0  0  0  0  0  0  0  0  0
    8.5700   -1.7446   -4.3184 C   0  0  0  0  0  0  0  0  0  0  0  0
    8.6546   -2.8892   -5.2822 C   0  0  0  0  0  0  0  0  0  0  0  0
   10.0067   -2.6673   -5.8086 C   0  0  0  0  0  0  0  0  0  0  0  0
   10.4104   -3.7035   -6.7763 C   0  0  0  0  0  0  0  0  0  0  0  0
   11.7529   -3.1395   -7.1661 C   0  0  0  0  0  0  0  0  0  0  0  0
   12.7796   -4.0408   -6.6229 C   0  0  0  0  0  0  0  0  0  0  0  0
   13.5700   -3.1602   -5.6691 C   0  0  0  0  0  0  0  0  0  0  0  0
   14.6158   -2.6751   -6.1703 O   0  0  0  0  0  0  0  0  0  0  0  0
   12.9738   -2.6800   -4.1819 C   0  0  0  0  0  0  0  0  0  0  0  0
   12.4313   -3.7258   -3.4394 C   0  0  0  0  0  0  0  0  0  0  0  0
   13.5382   -4.9070   -3.4391 N   0  0  0  0  0  0  0  0  0  0  0  0
   14.9090   -5.2540   -4.4224 C   0  0  0  0  0  0  0  0  0  0  0  0
   16.5050   -4.7639   -4.5184 C   0  0  0  0  0  0  0  0  0  0  0  0
   16.9353   -3.4122   -3.9841 C   0  0  0  0  0  0  0  0  0  0  0  0
   18.2118   -2.9627   -3.3809 C   0  0  0  0  0  0  0  0  0  0  0  0
   17.7309   -1.8251   -2.4293 C   0  0  0  0  0  0  0  0  0  0  0  0
   16.3406   -1.0790   -2.2187 C   0  0  0  0  0  0  0  0  0  0  0  0
   14.8364   -1.5381   -2.3983 C   0  0  0  0  0  0  0  0  0  0  0  0
   14.3306   -1.9452   -3.7906 C   0  0  0  0  0  0  0  0  0  0  0  0
   10.5941   -3.9573   -2.8329 C   0  0  0  0  0  0  0  0  0  0  0  0
    8.9601   -3.6956   -1.7568 C   0  0  0  0  0  0  0  0  0  0  0  0
    5.5930   -2.3073    0.1321 H   0  0  0  0  0  0  0  0  0  0  0  0
    6.9894   -2.5802    1.0020 H   0  0  0  0  0  0  0  0  0  0  0  0
    6.0138   -3.9478    0.2683 H   0  0  0  0  0  0  0  0  0  0  0  0
    7.6820   -1.7755   -1.2315 H   0  0  0  0  0  0  0  0  0  0  0  0
    5.3375   -3.0375   -3.0394 H   0  0  0  0  0  0  0  0  0  0  0  0
    5.0410   -3.2301   -1.4890 H   0  0  0  0  0  0  0  0  0  0  0  0
    5.6668   -0.5280   -1.1935 H   0  0  0  0  0  0  0  0  0  0  0  0
    4.0819   -1.0385   -1.7574 H   0  0  0  0  0  0  0  0  0  0  0  0
    4.9652    0.6795   -3.3541 H   0  0  0  0  0  0  0  0  0  0  0  0
    4.8689   -0.8971   -4.1136 H   0  0  0  0  0  0  0  0  0  0  0  0
    7.3710   -0.2580   -2.5994 H   0  0  0  0  0  0  0  0  0  0  0  0
    7.2033    0.6551   -4.0670 H   0  0  0  0  0  0  0  0  0  0  0  0
    6.6924   -1.3490   -5.3423 H   0  0  0  0  0  0  0  0  0  0  0  0
    6.7046   -2.4641   -3.9741 H   0  0  0  0  0  0  0  0  0  0  0  0
    8.9710   -1.9818   -3.3450 H   0  0  0  0  0  0  0  0  0  0  0  0
    9.0847   -0.8411   -4.6188 H   0  0  0  0  0  0  0  0  0  0  0  0
    7.9712   -2.8483   -6.1337 H   0  0  0  0  0  0  0  0  0  0  0  0
    8.5024   -3.8624   -4.8127 H   0  0  0  0  0  0  0  0  0  0  0  0
   10.6981   -2.6117   -4.9435 H   0  0  0  0  0  0  0  0  0  0  0  0
   10.0380   -1.6653   -6.2738 H   0  0  0  0  0  0  0  0  0  0  0  0
    9.7524   -3.7808   -7.6263 H   0  0  0  0  0  0  0  0  0  0  0  0
   10.4622   -4.6869   -6.2581 H   0  0  0  0  0  0  0  0  0  0  0  0
   11.9123   -2.1417   -6.7422 H   0  0  0  0  0  0  0  0  0  0  0  0
   11.8034   -2.9538   -8.2494 H   0  0  0  0  0  0  0  0  0  0  0  0
   13.4727   -4.3530   -7.4141 H   0  0  0  0  0  0  0  0  0  0  0  0
   12.4794   -4.9657   -6.1182 H   0  0  0  0  0  0  0  0  0  0  0  0
   12.9856   -5.7655   -3.4940 H   0  0  0  0  0  0  0  0  0  0  0  0
   15.0761   -6.3050   -4.1681 H   0  0  0  0  0  0  0  0  0  0  0  0
   14.5775   -5.3162   -5.4579 H   0  0  0  0  0  0  0  0  0  0  0  0
   16.7668   -4.7371   -5.6028 H   0  0  0  0  0  0  0  0  0  0  0  0
   17.1897   -5.5441   -4.1441 H   0  0  0  0  0  0  0  0  0  0  0  0
   16.3261   -3.3812   -3.1101 H   0  0  0  0  0  0  0  0  0  0  0  0
   16.7842   -2.6633   -4.7603 H   0  0  0  0  0  0  0  0  0  0  0  0
   18.9736   -2.5525   -4.0845 H   0  0  0  0  0  0  0  0  0  0  0  0
   18.7842   -3.7250   -2.8162 H   0  0  0  0  0  0  0  0  0  0  0  0
   17.9058   -2.2684   -1.4444 H   0  0  0  0  0  0  0  0  0  0  0  0
   18.3875   -0.9933   -2.6923 H   0  0  0  0  0  0  0  0  0  0  0  0
   16.4547   -0.0686   -2.6446 H   0  0  0  0  0  0  0  0  0  0  0  0
   16.3853   -0.8592   -1.1334 H   0  0  0  0  0  0  0  0  0  0  0  0
   14.2538   -0.6609   -2.1387 H   0  0  0  0  0  0  0  0  0  0  0  0
   14.6206   -2.3165   -1.6741 H   0  0  0  0  0  0  0  0  0  0  0  0
   14.4927   -1.0929   -4.4628 H   0  0  0  0  0  0  0  0  0  0  0  0
   15.0113   -2.6728   -4.0882 H   0  0  0  0  0  0  0  0  0  0  0  0
   10.9132   -4.7714   -2.1530 H   0  0  0  0  0  0  0  0  0  0  0  0
   10.1703   -4.4901   -3.6923 H   0  0  0  0  0  0  0  0  0  0  0  0
    9.3860   -3.6868   -0.7455 H   0  0  0  0  0  0  0  0  0  0  0  0
    8.5121   -4.6975   -1.9061 H   0  0  0  0  0  0  0  0  0  0  0  0
  1  2  1  0  0  0  0
  1 29  1  0  0  0  0
  1 30  1  0  0  0  0
  1 31  1  0  0  0  0
  2  3  1  0  0  0  0
  2 28  1  0  0  0  0
  2 32  1  0  0  0  0
  3  4  1  0  0  0  0
  3 33  1  0  0  0  0
  3 34  1  0  0  0  0
  4  5  1  0  0  0  0
  4 35  1  0  0  0  0
  4 36  1  0  0  0  0
  5  6  1  0  0  0  0
  5 37  1  0  0  0  0
  5 38  1  0  0  0  0
  6  7  1  0  0  0  0
  6 39  1  0  0  0  0
  6 40  1  0  0  0  0
  7  8  1  0  0  0  0
  7 41  1  0  0  0  0
  7 42  1  0  0  0  0
  8  9  1  0  0  0  0
  8 43  1  0  0  0  0
  8 44  1  0  0  0  0
  9 10  1  0  0  0  0
  9 45  1  0  0  0  0
  9 46  1  0  0  0  0
 10 11  1  0  0  0  0
 10 47  1  0  0  0  0
 10 48  1  0  0  0  0
 11 12  1  0  0  0  0
 11 49  1  0  0  0  0
 11 50  1  0  0  0  0
 12 13  1  0  0  0  0
 12 51  1  0  0  0  0
 12 52  1  0  0  0  0
 13 14  1  0  0  0  0
 13 53  1  0  0  0  0
 13 54  1  0  0  0  0
 14 15  2  0  0  0  0
 14 16  1  0  0  0  0
 16 17  2  3  0  0  0
 16 26  1  0  0  0  0
 17 18  1  0  0  0  0
 17 27  1  0  0  0  0
 18 19  1  0  0  0  0
 18 55  1  0  0  0  0
 19 20  1  0  0  0  0
 19 56  1  0  0  0  0
 19 57  1  0  0  0  0
 20 21  1  0  0  0  0
 20 58  1  0  0  0  0
 20 59  1  0  0  0  0
 21 22  1  0  0  0  0
 21 60  1  0  0  0  0
 21 61  1  0  0  0  0
 22 23  1  0  0  0  0
 22 62  1  0  0  0  0
 22 63  1  0  0  0  0
 23 24  1  0  0  0  0
 23 64  1  0  0  0  0
 23 65  1  0  0  0  0
 24 25  1  0  0  0  0
 24 66  1  0  0  0  0
 24 67  1  0  0  0  0
 25 26  1  0  0  0  0
 25 68  1  0  0  0  0
 25 69  1  0  0  0  0
 26 70  1  0  0  0  0
 26 71  1  0  0  0  0
 27 28  1  0  0  0  0
 27 72  1  0  0  0  0
 27 73  1  0  0  0  0
 28 74  1  0  0  0  0
 28 75  1  0  0  0  0
M  END
$$$$
