
 OpenBabel04232216443D

 54 55  0  0  1  0  0  0  0  0999 V2000
    4.7682   -0.6047    1.3591 C   0  0  0  0  0  0  0  0  0  0  0  0
    5.2124   -1.8855    0.6280 C   0  0  0  0  0  0  0  0  0  0  0  0
    4.2302   -2.3265   -0.2308 C   0  0  0  0  0  0  0  0  0  0  0  0
    2.7389   -1.8526   -0.1549 C   0  0  0  0  0  0  0  0  0  0  0  0
    4.2826   -3.1017   -1.4088 N   0  0  0  0  0  0  0  0  0  0  0  0
    4.4406   -4.6765   -1.2085 C   0  0  3  0  0  0  0  0  0  0  0  0
    2.9421   -4.9083   -0.9206 C   0  0  0  0  0  0  0  0  0  0  0  0
    2.4269   -6.2409   -0.4300 C   0  0  0  0  0  0  0  0  0  0  0  0
    5.3493   -3.6815   -1.7899 C   0  0  0  0  0  0  0  0  0  0  0  0
    6.4765   -3.2665   -2.3413 C   0  0  0  0  0  0  0  0  0  0  0  0
    7.6089   -4.1196   -2.5560 C   0  0  0  0  0  0  0  0  0  0  0  0
    8.9084   -3.7660   -2.4218 C   0  0  0  0  0  0  0  0  0  0  0  0
    9.4102   -2.3835   -1.9167 C   0  0  0  0  0  0  0  0  0  0  0  0
    9.9548   -1.1998   -2.7206 C   0  0  0  0  0  0  0  0  0  0  0  0
   11.2238   -1.4613   -3.5126 C   0  0  0  0  0  0  0  0  0  0  0  0
   10.9863   -2.4493   -4.6317 C   0  0  0  0  0  0  0  0  0  0  0  0
    9.8162   -4.9324   -2.2332 C   0  0  0  0  0  0  0  0  0  0  0  0
   10.2586   -5.2122   -0.9808 C   0  0  0  0  0  0  0  0  0  0  0  0
    9.2653   -5.0007    0.1289 C   0  0  0  0  0  0  0  0  0  0  0  0
    9.1663   -3.8329    0.8244 C   0  0  0  0  0  0  0  0  0  0  0  0
   10.5345   -3.1631    1.1866 C   0  0  0  0  0  0  0  0  0  0  0  0
    7.7402   -3.0892    0.7957 C   0  0  0  0  0  0  0  0  0  0  0  0
    6.7599   -2.1158    0.7619 C   0  0  0  0  0  0  0  0  0  0  0  0
    3.6986   -0.5821    1.6040 H   0  0  0  0  0  0  0  0  0  0  0  0
    4.9398    0.2446    0.6767 H   0  0  0  0  0  0  0  0  0  0  0  0
    5.2841   -0.4190    2.2981 H   0  0  0  0  0  0  0  0  0  0  0  0
    2.5873   -0.7728   -0.1664 H   0  0  0  0  0  0  0  0  0  0  0  0
    2.2282   -2.2964    0.7140 H   0  0  0  0  0  0  0  0  0  0  0  0
    2.1666   -2.2091   -1.0328 H   0  0  0  0  0  0  0  0  0  0  0  0
    4.5584   -5.3966   -2.0163 H   0  0  0  0  0  0  0  0  0  0  0  0
    2.3721   -4.6315   -1.8181 H   0  0  0  0  0  0  0  0  0  0  0  0
    2.6158   -4.2578   -0.1072 H   0  0  0  0  0  0  0  0  0  0  0  0
    2.7187   -7.0794   -1.0591 H   0  0  0  0  0  0  0  0  0  0  0  0
    1.3254   -6.1841   -0.4226 H   0  0  0  0  0  0  0  0  0  0  0  0
    2.7271   -6.4223    0.6066 H   0  0  0  0  0  0  0  0  0  0  0  0
    6.6067   -2.2067   -2.4986 H   0  0  0  0  0  0  0  0  0  0  0  0
    7.3285   -5.1719   -2.6212 H   0  0  0  0  0  0  0  0  0  0  0  0
   10.2234   -2.5731   -1.2101 H   0  0  0  0  0  0  0  0  0  0  0  0
    8.6138   -1.9301   -1.3220 H   0  0  0  0  0  0  0  0  0  0  0  0
   10.2135   -0.4216   -1.9809 H   0  0  0  0  0  0  0  0  0  0  0  0
    9.1726   -0.7585   -3.3446 H   0  0  0  0  0  0  0  0  0  0  0  0
   12.0252   -1.8138   -2.8514 H   0  0  0  0  0  0  0  0  0  0  0  0
   11.5689   -0.5108   -3.9387 H   0  0  0  0  0  0  0  0  0  0  0  0
   10.7904   -3.4462   -4.2385 H   0  0  0  0  0  0  0  0  0  0  0  0
   11.8669   -2.5228   -5.2700 H   0  0  0  0  0  0  0  0  0  0  0  0
   10.1288   -2.1418   -5.2369 H   0  0  0  0  0  0  0  0  0  0  0  0
    9.3178   -5.8169   -2.6700 H   0  0  0  0  0  0  0  0  0  0  0  0
   11.2547   -4.7858   -0.8415 H   0  0  0  0  0  0  0  0  0  0  0  0
    8.3811   -5.6072   -0.0394 H   0  0  0  0  0  0  0  0  0  0  0  0
   10.5779   -2.0875    1.0037 H   0  0  0  0  0  0  0  0  0  0  0  0
   11.3926   -3.5608    0.6174 H   0  0  0  0  0  0  0  0  0  0  0  0
   10.8211   -3.3793    2.2209 H   0  0  0  0  0  0  0  0  0  0  0  0
    8.4649   -2.2749    1.0296 H   0  0  0  0  0  0  0  0  0  0  0  0
    7.1489   -1.0757    0.7962 H   0  0  0  0  0  0  0  0  0  0  0  0
  1  2  1  0  0  0  0
  1 24  1  0  0  0  0
  1 25  1  0  0  0  0
  1 26  1  0  0  0  0
  2  3  2  0  0  0  0
  2 23  1  0  0  0  0
  3  4  1  0  0  0  0
  3  5  1  0  0  0  0
  4 27  1  0  0  0  0
  4 28  1  0  0  0  0
  4 29  1  0  0  0  0
  5  6  1  0  0  0  0
  5  9  1  0  0  0  0
  6  7  1  0  0  0  0
  6  9  1  0  0  0  0
  6 30  1  0  0  0  0
  7  8  1  0  0  0  0
  7 31  1  0  0  0  0
  7 32  1  0  0  0  0
  8 33  1  0  0  0  0
  8 34  1  0  0  0  0
  8 35  1  0  0  0  0
  9 10  2  0  0  0  0
 10 11  1  0  0  0  0
 10 36  1  0  0  0  0
 11 12  2  0  0  0  0
 11 37  1  0  0  0  0
 12 13  1  0  0  0  0
 12 17  1  0  0  0  0
 13 14  1  0  0  0  0
 13 38  1  0  0  0  0
 13 39  1  0  0  0  0
 14 15  1  0  0  0  0
 14 40  1  0  0  0  0
 14 41  1  0  0  0  0
 15 16  1  0  0  0  0
 15 42  1  0  0  0  0
 15 43  1  0  0  0  0
 16 44  1  0  0  0  0
 16 45  1  0  0  0  0
 16 46  1  0  0  0  0
 17 18  2  0  0  0  0
 17 47  1  0  0  0  0
 18 19  1  0  0  0  0
 18 48  1  0  0  0  0
 19 20  2  0  0  0  0
 19 49  1  0  0  0  0
 20 21  1  0  0  0  0
 20 22  1  0  0  0  0
 21 50  1  0  0  0  0
 21 51  1  0  0  0  0
 21 52  1  0  0  0  0
 22 23  2  0  0  0  0
 22 53  1  0  0  0  0
 23 54  1  0  0  0  0
M  END
$$$$
