
 OpenBabel04232216543D

230229  0  0  0  0  0  0  0  0999 V2000
    8.6655    3.6136   -4.1865 C   0  0  0  0  0  0  0  0  0  0  0  0
    8.1856    2.6828   -3.0872 C   0  0  0  0  0  0  0  0  0  0  0  0
    8.6973    1.2639   -3.3192 C   0  0  0  0  0  0  0  0  0  0  0  0
    8.2142    0.3290   -2.2175 C   0  0  0  0  0  0  0  0  0  0  0  0
    8.7213   -1.0137   -2.4757 N   0  0  0  0  0  0  0  0  0  0  0  0
    8.2573   -1.8671   -1.4348 N   0  0  0  0  0  0  0  0  0  0  0  0
    8.7230   -3.1731   -1.6669 N   0  0  0  0  0  0  0  0  0  0  0  0
    8.2826   -4.0397   -0.6308 N   0  0  0  0  0  0  0  0  0  0  0  0
    8.7626   -5.3564   -0.8649 N   0  0  0  0  0  0  0  0  0  0  0  0
   10.1863   -5.3864   -0.8668 N   0  0  0  0  0  0  0  0  0  0  0  0
   10.6672   -6.6856   -1.1051 N   0  0  0  0  0  0  0  0  0  0  0  0
   12.0792   -6.6871   -1.1208 N   0  0  0  0  0  0  0  0  0  0  0  0
   12.5472   -7.9932   -1.3522 N   0  0  0  0  0  0  0  0  0  0  0  0
   13.9542   -7.9950   -1.3638 N   0  0  0  0  0  0  0  0  0  0  0  0
   14.4268   -9.3044   -1.5961 N   0  0  0  0  0  0  0  0  0  0  0  0
   15.8446   -9.3108   -1.6087 N   0  0  0  0  0  0  0  0  0  0  0  0
   16.3407  -10.6152   -1.8352 N   0  0  0  0  0  0  0  0  0  0  0  0
   17.7563  -10.6085   -1.8406 N   0  0  0  0  0  0  0  0  0  0  0  0
   18.2185  -11.9291   -2.0787 N   0  0  0  0  0  0  0  0  0  0  0  0
   19.6862  -11.9311   -2.0907 C   0  0  0  0  0  0  0  0  0  0  0  0
   20.1940  -13.3440   -2.3415 C   0  0  0  0  0  0  0  0  0  0  0  0
   21.7165  -13.3517   -2.3545 C   0  0  0  0  0  0  0  0  0  0  0  0
   22.2332  -14.7574   -2.6062 C   0  0  0  0  0  0  0  0  0  0  0  0
   23.7516  -14.7611   -2.6171 C   0  0  0  0  0  0  0  0  0  0  0  0
   24.2636  -16.1673   -2.8689 C   0  0  0  0  0  0  0  0  0  0  0  0
   25.7808  -16.1714   -2.8779 C   0  0  0  0  0  0  0  0  0  0  0  0
   26.2913  -17.5775   -3.1297 C   0  0  0  0  0  0  0  0  0  0  0  0
   27.8081  -17.5811   -3.1385 C   0  0  0  0  0  0  0  0  0  0  0  0
   28.3183  -18.9870   -3.3903 C   0  0  0  0  0  0  0  0  0  0  0  0
   29.8350  -18.9904   -3.3991 C   0  0  0  0  0  0  0  0  0  0  0  0
   30.3450  -20.3963   -3.6510 C   0  0  0  0  0  0  0  0  0  0  0  0
   31.8619  -20.3989   -3.6598 C   0  0  0  0  0  0  0  0  0  0  0  0
   32.3717  -21.8055   -3.9116 C   0  0  0  0  0  0  0  0  0  0  0  0
   33.8882  -21.8092   -3.9185 C   0  0  0  0  0  0  0  0  0  0  0  0
   34.3984  -23.2150   -4.1703 C   0  0  0  0  0  0  0  0  0  0  0  0
   35.9149  -23.2192   -4.1751 C   0  0  0  0  0  0  0  0  0  0  0  0
   36.4250  -24.6254   -4.4249 C   0  0  0  0  0  0  0  0  0  0  0  0
   37.9415  -24.6299   -4.4276 C   0  0  0  0  0  0  0  0  0  0  0  0
   38.4517  -26.0363   -4.6756 C   0  0  0  0  0  0  0  0  0  0  0  0
   39.9682  -26.0412   -4.6764 C   0  0  0  0  0  0  0  0  0  0  0  0
   40.4784  -27.4473   -4.9260 C   0  0  0  0  0  0  0  0  0  0  0  0
   41.9948  -27.4523   -4.9270 C   0  0  0  0  0  0  0  0  0  0  0  0
   42.5051  -28.8582   -5.1767 C   0  0  0  0  0  0  0  0  0  0  0  0
   44.0214  -28.8632   -5.1776 C   0  0  0  0  0  0  0  0  0  0  0  0
   44.5317  -30.2692   -5.4274 C   0  0  0  0  0  0  0  0  0  0  0  0
   46.0481  -30.2742   -5.4283 C   0  0  0  0  0  0  0  0  0  0  0  0
   46.5583  -31.6803   -5.6779 C   0  0  0  0  0  0  0  0  0  0  0  0
   48.0748  -31.6852   -5.6789 C   0  0  0  0  0  0  0  0  0  0  0  0
   48.5850  -33.0912   -5.9286 C   0  0  0  0  0  0  0  0  0  0  0  0
   50.1015  -33.0957   -5.9314 C   0  0  0  0  0  0  0  0  0  0  0  0
   50.6117  -34.5018   -6.1813 C   0  0  0  0  0  0  0  0  0  0  0  0
   52.1281  -34.5061   -6.1862 C   0  0  0  0  0  0  0  0  0  0  0  0
   52.6383  -35.9119   -6.4379 C   0  0  0  0  0  0  0  0  0  0  0  0
   54.1548  -35.9155   -6.4447 C   0  0  0  0  0  0  0  0  0  0  0  0
   54.6650  -37.3216   -6.6946 C   0  0  0  0  0  0  0  0  0  0  0  0
   56.1814  -37.3252   -6.7033 C   0  0  0  0  0  0  0  0  0  0  0  0
   56.6917  -38.7308   -6.9552 C   0  0  0  0  0  0  0  0  0  0  0  0
   58.2081  -38.7340   -6.9659 C   0  0  0  0  0  0  0  0  0  0  0  0
   58.7183  -40.1397   -7.2177 C   0  0  0  0  0  0  0  0  0  0  0  0
   60.2347  -40.1432   -7.2268 C   0  0  0  0  0  0  0  0  0  0  0  0
   60.7449  -41.5489   -7.4784 C   0  0  0  0  0  0  0  0  0  0  0  0
   62.2612  -41.5526   -7.4872 C   0  0  0  0  0  0  0  0  0  0  0  0
   62.7715  -42.9581   -7.7390 C   0  0  0  0  0  0  0  0  0  0  0  0
   64.2879  -42.9618   -7.7478 C   0  0  0  0  0  0  0  0  0  0  0  0
   64.7982  -44.3673   -7.9996 C   0  0  0  0  0  0  0  0  0  0  0  0
   66.3145  -44.3710   -8.0084 C   0  0  0  0  0  0  0  0  0  0  0  0
   66.8247  -45.7767   -8.2600 C   0  0  0  0  0  0  0  0  0  0  0  0
   68.3411  -45.7802   -8.2690 C   0  0  0  0  0  0  0  0  0  0  0  0
   68.8514  -47.1859   -8.5208 C   0  0  0  0  0  0  0  0  0  0  0  0
   70.3679  -47.1890   -8.5315 C   0  0  0  0  0  0  0  0  0  0  0  0
   70.8780  -48.5949   -8.7834 C   0  0  0  0  0  0  0  0  0  0  0  0
   72.3946  -48.5979   -8.7942 C   0  0  0  0  0  0  0  0  0  0  0  0
   72.9049  -50.0038   -9.0460 C   0  0  0  0  0  0  0  0  0  0  0  0
   74.4218  -50.0072   -9.0568 C   0  0  0  0  0  0  0  0  0  0  0  0
   74.9324  -51.4133   -9.3087 C   0  0  0  0  0  0  0  0  0  0  0  0
   76.4497  -51.4175   -9.3177 C   0  0  0  0  0  0  0  0  0  0  0  0
   76.9624  -52.8239   -9.5695 C   0  0  0  0  0  0  0  0  0  0  0  0
   78.4816  -52.8295   -9.5787 C   0  0  0  0  0  0  0  0  0  0  0  0
   78.9976  -54.2369   -9.8288 C   0  0  0  0  0  0  0  0  0  0  0  0
   80.5196  -54.2527   -9.8378 C   0  0  0  0  0  0  0  0  0  0  0  0
   81.0307  -55.6582  -10.0874 C   0  0  0  0  0  0  0  0  0  0  0  0
    8.2971    4.6286   -4.0142 H   0  0  0  0  0  0  0  0  0  0  0  0
    8.3043    3.2783   -5.1639 H   0  0  0  0  0  0  0  0  0  0  0  0
    9.7593    3.6457   -4.2173 H   0  0  0  0  0  0  0  0  0  0  0  0
    7.0896    2.6863   -3.0595 H   0  0  0  0  0  0  0  0  0  0  0  0
    8.5366    3.0529   -2.1168 H   0  0  0  0  0  0  0  0  0  0  0  0
    9.7943    1.2698   -3.3515 H   0  0  0  0  0  0  0  0  0  0  0  0
    8.3467    0.9027   -4.2948 H   0  0  0  0  0  0  0  0  0  0  0  0
    7.1179    0.3203   -2.2063 H   0  0  0  0  0  0  0  0  0  0  0  0
    8.5613    0.6906   -1.2426 H   0  0  0  0  0  0  0  0  0  0  0  0
    9.7444   -0.9960   -2.4783 H   0  0  0  0  0  0  0  0  0  0  0  0
    7.2335   -1.8993   -1.4159 H   0  0  0  0  0  0  0  0  0  0  0  0
    9.7453   -3.2034   -1.6675 H   0  0  0  0  0  0  0  0  0  0  0  0
    7.2628   -4.0650   -0.6276 H   0  0  0  0  0  0  0  0  0  0  0  0
    8.4218   -5.6546   -1.7757 H   0  0  0  0  0  0  0  0  0  0  0  0
   10.5191   -5.0388    0.0269 H   0  0  0  0  0  0  0  0  0  0  0  0
   10.3359   -6.9889   -2.0185 H   0  0  0  0  0  0  0  0  0  0  0  0
   12.4337   -6.3724   -0.2214 H   0  0  0  0  0  0  0  0  0  0  0  0
   12.1973   -8.3123   -2.2537 H   0  0  0  0  0  0  0  0  0  0  0  0
   14.3009   -7.6580   -0.4672 H   0  0  0  0  0  0  0  0  0  0  0  0
   14.0851   -9.6249   -2.5005 H   0  0  0  0  0  0  0  0  0  0  0  0
   16.1670   -8.9963   -0.6974 H   0  0  0  0  0  0  0  0  0  0  0  0
   16.0269  -10.9518   -2.7403 H   0  0  0  0  0  0  0  0  0  0  0  0
   18.0681  -10.2761   -0.9282 H   0  0  0  0  0  0  0  0  0  0  0  0
   17.8720  -12.2484   -2.9830 H   0  0  0  0  0  0  0  0  0  0  0  0
   20.0687  -11.5795   -1.1238 H   0  0  0  0  0  0  0  0  0  0  0  0
   20.0642  -11.2590   -2.8710 H   0  0  0  0  0  0  0  0  0  0  0  0
   19.8162  -13.7198   -3.3005 H   0  0  0  0  0  0  0  0  0  0  0  0
   19.8300  -14.0224   -1.5592 H   0  0  0  0  0  0  0  0  0  0  0  0
   22.1018  -12.9814   -1.3962 H   0  0  0  0  0  0  0  0  0  0  0  0
   22.0874  -12.6754   -3.1348 H   0  0  0  0  0  0  0  0  0  0  0  0
   21.8537  -15.1284   -3.5661 H   0  0  0  0  0  0  0  0  0  0  0  0
   21.8654  -15.4359   -1.8267 H   0  0  0  0  0  0  0  0  0  0  0  0
   24.1340  -14.3915   -1.6576 H   0  0  0  0  0  0  0  0  0  0  0  0
   24.1223  -14.0843   -3.3968 H   0  0  0  0  0  0  0  0  0  0  0  0
   23.8839  -16.5373   -3.8293 H   0  0  0  0  0  0  0  0  0  0  0  0
   23.8934  -16.8454   -2.0902 H   0  0  0  0  0  0  0  0  0  0  0  0
   26.1616  -15.8022   -1.9176 H   0  0  0  0  0  0  0  0  0  0  0  0
   26.1522  -15.4941   -3.6568 H   0  0  0  0  0  0  0  0  0  0  0  0
   25.9112  -17.9471   -4.0900 H   0  0  0  0  0  0  0  0  0  0  0  0
   25.9206  -18.2552   -2.3508 H   0  0  0  0  0  0  0  0  0  0  0  0
   28.1886  -17.2118   -2.1782 H   0  0  0  0  0  0  0  0  0  0  0  0
   28.1792  -16.9037   -3.9175 H   0  0  0  0  0  0  0  0  0  0  0  0
   27.9381  -19.3565   -4.3507 H   0  0  0  0  0  0  0  0  0  0  0  0
   27.9475  -19.6646   -2.6114 H   0  0  0  0  0  0  0  0  0  0  0  0
   30.2154  -18.6210   -2.4388 H   0  0  0  0  0  0  0  0  0  0  0  0
   30.2060  -18.3129   -4.1781 H   0  0  0  0  0  0  0  0  0  0  0  0
   29.9647  -20.7658   -4.6113 H   0  0  0  0  0  0  0  0  0  0  0  0
   29.9741  -21.0738   -2.8720 H   0  0  0  0  0  0  0  0  0  0  0  0
   32.2420  -20.0302   -2.6994 H   0  0  0  0  0  0  0  0  0  0  0  0
   32.2327  -19.7221   -4.4387 H   0  0  0  0  0  0  0  0  0  0  0  0
   31.9925  -22.1744   -4.8725 H   0  0  0  0  0  0  0  0  0  0  0  0
   31.9996  -22.4833   -3.1334 H   0  0  0  0  0  0  0  0  0  0  0  0
   34.2674  -21.4404   -2.9574 H   0  0  0  0  0  0  0  0  0  0  0  0
   34.2604  -21.1314   -4.6965 H   0  0  0  0  0  0  0  0  0  0  0  0
   34.0203  -23.5835   -5.1318 H   0  0  0  0  0  0  0  0  0  0  0  0
   34.0250  -23.8932   -3.3929 H   0  0  0  0  0  0  0  0  0  0  0  0
   36.2929  -22.8495   -3.2139 H   0  0  0  0  0  0  0  0  0  0  0  0
   36.2882  -22.5421   -4.9532 H   0  0  0  0  0  0  0  0  0  0  0  0
   36.0481  -24.9946   -5.3866 H   0  0  0  0  0  0  0  0  0  0  0  0
   36.0505  -25.3026   -3.6474 H   0  0  0  0  0  0  0  0  0  0  0  0
   38.3184  -24.2593   -3.4663 H   0  0  0  0  0  0  0  0  0  0  0  0
   38.3160  -23.9536   -5.2060 H   0  0  0  0  0  0  0  0  0  0  0  0
   38.0759  -26.4063   -5.6374 H   0  0  0  0  0  0  0  0  0  0  0  0
   38.0761  -26.7129   -3.8979 H   0  0  0  0  0  0  0  0  0  0  0  0
   40.3439  -25.6725   -3.7139 H   0  0  0  0  0  0  0  0  0  0  0  0
   40.3439  -25.3636   -5.4530 H   0  0  0  0  0  0  0  0  0  0  0  0
   40.1027  -27.8160   -5.8886 H   0  0  0  0  0  0  0  0  0  0  0  0
   40.1026  -28.1249   -4.1495 H   0  0  0  0  0  0  0  0  0  0  0  0
   42.3705  -27.0835   -3.9645 H   0  0  0  0  0  0  0  0  0  0  0  0
   42.3705  -26.7746   -5.7036 H   0  0  0  0  0  0  0  0  0  0  0  0
   42.1293  -29.2269   -6.1392 H   0  0  0  0  0  0  0  0  0  0  0  0
   42.1293  -29.5359   -4.4002 H   0  0  0  0  0  0  0  0  0  0  0  0
   44.3972  -28.4945   -4.2152 H   0  0  0  0  0  0  0  0  0  0  0  0
   44.3972  -28.1855   -5.9542 H   0  0  0  0  0  0  0  0  0  0  0  0
   44.1560  -30.6379   -6.3899 H   0  0  0  0  0  0  0  0  0  0  0  0
   44.1560  -30.9469   -4.6508 H   0  0  0  0  0  0  0  0  0  0  0  0
   46.4239  -29.9055   -4.4658 H   0  0  0  0  0  0  0  0  0  0  0  0
   46.4239  -29.5965   -6.2049 H   0  0  0  0  0  0  0  0  0  0  0  0
   46.1826  -32.0489   -6.6405 H   0  0  0  0  0  0  0  0  0  0  0  0
   46.1826  -32.3579   -4.9014 H   0  0  0  0  0  0  0  0  0  0  0  0
   48.4506  -31.3165   -4.7165 H   0  0  0  0  0  0  0  0  0  0  0  0
   48.4505  -31.0075   -6.4556 H   0  0  0  0  0  0  0  0  0  0  0  0
   48.2082  -33.4604   -6.8905 H   0  0  0  0  0  0  0  0  0  0  0  0
   48.2104  -33.7686   -5.1513 H   0  0  0  0  0  0  0  0  0  0  0  0
   50.4784  -32.7265   -4.9697 H   0  0  0  0  0  0  0  0  0  0  0  0
   50.4760  -32.4184   -6.7090 H   0  0  0  0  0  0  0  0  0  0  0  0
   50.2336  -34.8715   -7.1425 H   0  0  0  0  0  0  0  0  0  0  0  0
   50.2383  -35.1789   -5.4032 H   0  0  0  0  0  0  0  0  0  0  0  0
   52.5062  -34.1376   -5.2246 H   0  0  0  0  0  0  0  0  0  0  0  0
   52.5015  -33.8279   -6.9635 H   0  0  0  0  0  0  0  0  0  0  0  0
   52.2591  -36.2807   -7.3990 H   0  0  0  0  0  0  0  0  0  0  0  0
   52.2660  -36.5896   -5.6599 H   0  0  0  0  0  0  0  0  0  0  0  0
   54.5341  -35.5453   -5.4843 H   0  0  0  0  0  0  0  0  0  0  0  0
   54.5269  -35.2388   -7.2239 H   0  0  0  0  0  0  0  0  0  0  0  0
   54.2846  -37.6925   -7.6544 H   0  0  0  0  0  0  0  0  0  0  0  0
   54.2940  -37.9982   -5.9148 H   0  0  0  0  0  0  0  0  0  0  0  0
   56.5618  -36.9556   -5.7431 H   0  0  0  0  0  0  0  0  0  0  0  0
   56.5524  -36.6476   -7.4823 H   0  0  0  0  0  0  0  0  0  0  0  0
   56.3101  -39.1009   -7.9149 H   0  0  0  0  0  0  0  0  0  0  0  0
   56.3217  -39.4082   -6.1755 H   0  0  0  0  0  0  0  0  0  0  0  0
   58.5896  -38.3640   -6.0063 H   0  0  0  0  0  0  0  0  0  0  0  0
   58.5779  -38.0568   -7.7457 H   0  0  0  0  0  0  0  0  0  0  0  0
   58.3378  -40.5092   -8.1781 H   0  0  0  0  0  0  0  0  0  0  0  0
   58.3472  -40.8174   -6.4389 H   0  0  0  0  0  0  0  0  0  0  0  0
   60.6151  -39.7738   -6.2663 H   0  0  0  0  0  0  0  0  0  0  0  0
   60.6057  -39.4656   -8.0055 H   0  0  0  0  0  0  0  0  0  0  0  0
   60.3644  -41.9185   -8.4387 H   0  0  0  0  0  0  0  0  0  0  0  0
   60.3738  -42.2266   -6.6995 H   0  0  0  0  0  0  0  0  0  0  0  0
   62.6417  -41.1830   -6.5269 H   0  0  0  0  0  0  0  0  0  0  0  0
   62.6323  -40.8749   -8.2661 H   0  0  0  0  0  0  0  0  0  0  0  0
   62.3911  -43.3277   -8.6993 H   0  0  0  0  0  0  0  0  0  0  0  0
   62.4005  -43.6358   -6.9601 H   0  0  0  0  0  0  0  0  0  0  0  0
   64.6683  -42.5922   -6.7875 H   0  0  0  0  0  0  0  0  0  0  0  0
   64.6589  -42.2841   -8.5267 H   0  0  0  0  0  0  0  0  0  0  0  0
   64.4177  -44.7369   -8.9599 H   0  0  0  0  0  0  0  0  0  0  0  0
   64.4271  -45.0450   -7.2207 H   0  0  0  0  0  0  0  0  0  0  0  0
   66.6950  -44.0014   -7.0481 H   0  0  0  0  0  0  0  0  0  0  0  0
   66.6856  -43.6933   -8.7873 H   0  0  0  0  0  0  0  0  0  0  0  0
   66.4443  -46.1461   -9.2205 H   0  0  0  0  0  0  0  0  0  0  0  0
   66.4537  -46.4543   -7.4813 H   0  0  0  0  0  0  0  0  0  0  0  0
   68.7216  -45.4107   -7.3087 H   0  0  0  0  0  0  0  0  0  0  0  0
   68.7122  -45.1025   -9.0479 H   0  0  0  0  0  0  0  0  0  0  0  0
   68.4698  -47.5559   -9.4804 H   0  0  0  0  0  0  0  0  0  0  0  0
   68.4815  -47.8632   -7.7411 H   0  0  0  0  0  0  0  0  0  0  0  0
   70.7494  -46.8190   -7.5719 H   0  0  0  0  0  0  0  0  0  0  0  0
   70.7377  -46.5117   -9.3113 H   0  0  0  0  0  0  0  0  0  0  0  0
   70.4964  -48.9648   -9.7430 H   0  0  0  0  0  0  0  0  0  0  0  0
   70.5082  -49.2721   -8.0036 H   0  0  0  0  0  0  0  0  0  0  0  0
   72.7761  -48.2279   -7.8345 H   0  0  0  0  0  0  0  0  0  0  0  0
   72.7643  -47.9206   -9.5739 H   0  0  0  0  0  0  0  0  0  0  0  0
   72.5231  -50.3737  -10.0056 H   0  0  0  0  0  0  0  0  0  0  0  0
   72.5349  -50.6810   -8.2663 H   0  0  0  0  0  0  0  0  0  0  0  0
   74.8029  -49.6370   -8.0971 H   0  0  0  0  0  0  0  0  0  0  0  0
   74.7912  -49.3298   -9.8365 H   0  0  0  0  0  0  0  0  0  0  0  0
   74.5515  -51.7824  -10.2689 H   0  0  0  0  0  0  0  0  0  0  0  0
   74.5609  -52.0905   -8.5297 H   0  0  0  0  0  0  0  0  0  0  0  0
   76.8293  -51.0474   -8.3573 H   0  0  0  0  0  0  0  0  0  0  0  0
   76.8199  -50.7393  -10.0964 H   0  0  0  0  0  0  0  0  0  0  0  0
   76.5804  -53.1926  -10.5296 H   0  0  0  0  0  0  0  0  0  0  0  0
   76.5898  -53.5006   -8.7906 H   0  0  0  0  0  0  0  0  0  0  0  0
   78.8597  -52.4573   -8.6187 H   0  0  0  0  0  0  0  0  0  0  0  0
   78.8503  -52.1516  -10.3582 H   0  0  0  0  0  0  0  0  0  0  0  0
   78.6144  -54.6057  -10.7883 H   0  0  0  0  0  0  0  0  0  0  0  0
   78.6215  -54.9120   -9.0501 H   0  0  0  0  0  0  0  0  0  0  0  0
   80.9008  -53.8854   -8.8778 H   0  0  0  0  0  0  0  0  0  0  0  0
   80.8937  -53.5789  -10.6173 H   0  0  0  0  0  0  0  0  0  0  0  0
   80.6809  -56.3394   -9.3053 H   0  0  0  0  0  0  0  0  0  0  0  0
   82.1227  -55.6682  -10.0936 H   0  0  0  0  0  0  0  0  0  0  0  0
   80.6738  -56.0315  -11.0525 H   0  0  0  0  0  0  0  0  0  0  0  0
  1  2  1  0  0  0  0
  1 82  1  0  0  0  0
  1 83  1  0  0  0  0
  1 84  1  0  0  0  0
  2  3  1  0  0  0  0
  2 85  1  0  0  0  0
  2 86  1  0  0  0  0
  3  4  1  0  0  0  0
  3 87  1  0  0  0  0
  3 88  1  0  0  0  0
  4  5  1  0  0  0  0
  4 89  1  0  0  0  0
  4 90  1  0  0  0  0
  5  6  1  0  0  0  0
  5 91  1  0  0  0  0
  6  7  1  0  0  0  0
  6 92  1  0  0  0  0
  7  8  1  0  0  0  0
  7 93  1  0  0  0  0
  8  9  1  0  0  0  0
  8 94  1  0  0  0  0
  9 10  1  0  0  0  0
  9 95  1  0  0  0  0
 10 11  1  0  0  0  0
 10 96  1  0  0  0  0
 11 12  1  0  0  0  0
 11 97  1  0  0  0  0
 12 13  1  0  0  0  0
 12 98  1  0  0  0  0
 13 14  1  0  0  0  0
 13 99  1  0  0  0  0
 14 15  1  0  0  0  0
 14100  1  0  0  0  0
 15 16  1  0  0  0  0
 15101  1  0  0  0  0
 16 17  1  0  0  0  0
 16102  1  0  0  0  0
 17 18  1  0  0  0  0
 17103  1  0  0  0  0
 18 19  1  0  0  0  0
 18104  1  0  0  0  0
 19 20  1  0  0  0  0
 19105  1  0  0  0  0
 20 21  1  0  0  0  0
 20106  1  0  0  0  0
 20107  1  0  0  0  0
 21 22  1  0  0  0  0
 21108  1  0  0  0  0
 21109  1  0  0  0  0
 22 23  1  0  0  0  0
 22110  1  0  0  0  0
 22111  1  0  0  0  0
 23 24  1  0  0  0  0
 23112  1  0  0  0  0
 23113  1  0  0  0  0
 24 25  1  0  0  0  0
 24114  1  0  0  0  0
 24115  1  0  0  0  0
 25 26  1  0  0  0  0
 25116  1  0  0  0  0
 25117  1  0  0  0  0
 26 27  1  0  0  0  0
 26118  1  0  0  0  0
 26119  1  0  0  0  0
 27 28  1  0  0  0  0
 27120  1  0  0  0  0
 27121  1  0  0  0  0
 28 29  1  0  0  0  0
 28122  1  0  0  0  0
 28123  1  0  0  0  0
 29 30  1  0  0  0  0
 29124  1  0  0  0  0
 29125  1  0  0  0  0
 30 31  1  0  0  0  0
 30126  1  0  0  0  0
 30127  1  0  0  0  0
 31 32  1  0  0  0  0
 31128  1  0  0  0  0
 31129  1  0  0  0  0
 32 33  1  0  0  0  0
 32130  1  0  0  0  0
 32131  1  0  0  0  0
 33 34  1  0  0  0  0
 33132  1  0  0  0  0
 33133  1  0  0  0  0
 34 35  1  0  0  0  0
 34134  1  0  0  0  0
 34135  1  0  0  0  0
 35 36  1  0  0  0  0
 35136  1  0  0  0  0
 35137  1  0  0  0  0
 36 37  1  0  0  0  0
 36138  1  0  0  0  0
 36139  1  0  0  0  0
 37 38  1  0  0  0  0
 37140  1  0  0  0  0
 37141  1  0  0  0  0
 38 39  1  0  0  0  0
 38142  1  0  0  0  0
 38143  1  0  0  0  0
 39 40  1  0  0  0  0
 39144  1  0  0  0  0
 39145  1  0  0  0  0
 40 41  1  0  0  0  0
 40146  1  0  0  0  0
 40147  1  0  0  0  0
 41 42  1  0  0  0  0
 41148  1  0  0  0  0
 41149  1  0  0  0  0
 42 43  1  0  0  0  0
 42150  1  0  0  0  0
 42151  1  0  0  0  0
 43 44  1  0  0  0  0
 43152  1  0  0  0  0
 43153  1  0  0  0  0
 44 45  1  0  0  0  0
 44154  1  0  0  0  0
 44155  1  0  0  0  0
 45 46  1  0  0  0  0
 45156  1  0  0  0  0
 45157  1  0  0  0  0
 46 47  1  0  0  0  0
 46158  1  0  0  0  0
 46159  1  0  0  0  0
 47 48  1  0  0  0  0
 47160  1  0  0  0  0
 47161  1  0  0  0  0
 48 49  1  0  0  0  0
 48162  1  0  0  0  0
 48163  1  0  0  0  0
 49 50  1  0  0  0  0
 49164  1  0  0  0  0
 49165  1  0  0  0  0
 50 51  1  0  0  0  0
 50166  1  0  0  0  0
 50167  1  0  0  0  0
 51 52  1  0  0  0  0
 51168  1  0  0  0  0
 51169  1  0  0  0  0
 52 53  1  0  0  0  0
 52170  1  0  0  0  0
 52171  1  0  0  0  0
 53 54  1  0  0  0  0
 53172  1  0  0  0  0
 53173  1  0  0  0  0
 54 55  1  0  0  0  0
 54174  1  0  0  0  0
 54175  1  0  0  0  0
 55 56  1  0  0  0  0
 55176  1  0  0  0  0
 55177  1  0  0  0  0
 56 57  1  0  0  0  0
 56178  1  0  0  0  0
 56179  1  0  0  0  0
 57 58  1  0  0  0  0
 57180  1  0  0  0  0
 57181  1  0  0  0  0
 58 59  1  0  0  0  0
 58182  1  0  0  0  0
 58183  1  0  0  0  0
 59 60  1  0  0  0  0
 59184  1  0  0  0  0
 59185  1  0  0  0  0
 60 61  1  0  0  0  0
 60186  1  0  0  0  0
 60187  1  0  0  0  0
 61 62  1  0  0  0  0
 61188  1  0  0  0  0
 61189  1  0  0  0  0
 62 63  1  0  0  0  0
 62190  1  0  0  0  0
 62191  1  0  0  0  0
 63 64  1  0  0  0  0
 63192  1  0  0  0  0
 63193  1  0  0  0  0
 64 65  1  0  0  0  0
 64194  1  0  0  0  0
 64195  1  0  0  0  0
 65 66  1  0  0  0  0
 65196  1  0  0  0  0
 65197  1  0  0  0  0
 66 67  1  0  0  0  0
 66198  1  0  0  0  0
 66199  1  0  0  0  0
 67 68  1  0  0  0  0
 67200  1  0  0  0  0
 67201  1  0  0  0  0
 68 69  1  0  0  0  0
 68202  1  0  0  0  0
 68203  1  0  0  0  0
 69 70  1  0  0  0  0
 69204  1  0  0  0  0
 69205  1  0  0  0  0
 70 71  1  0  0  0  0
 70206  1  0  0  0  0
 70207  1  0  0  0  0
 71 72  1  0  0  0  0
 71208  1  0  0  0  0
 71209  1  0  0  0  0
 72 73  1  0  0  0  0
 72210  1  0  0  0  0
 72211  1  0  0  0  0
 73 74  1  0  0  0  0
 73212  1  0  0  0  0
 73213  1  0  0  0  0
 74 75  1  0  0  0  0
 74214  1  0  0  0  0
 74215  1  0  0  0  0
 75 76  1  0  0  0  0
 75216  1  0  0  0  0
 75217  1  0  0  0  0
 76 77  1  0  0  0  0
 76218  1  0  0  0  0
 76219  1  0  0  0  0
 77 78  1  0  0  0  0
 77220  1  0  0  0  0
 77221  1  0  0  0  0
 78 79  1  0  0  0  0
 78222  1  0  0  0  0
 78223  1  0  0  0  0
 79 80  1  0  0  0  0
 79224  1  0  0  0  0
 79225  1  0  0  0  0
 80 81  1  0  0  0  0
 80226  1  0  0  0  0
 80227  1  0  0  0  0
 81228  1  0  0  0  0
 81229  1  0  0  0  0
 81230  1  0  0  0  0
M  END
$$$$
