
 OpenBabel04232217013D

134133  0  0  1  0  0  0  0  0999 V2000
   20.2019  -24.1749   13.0817 O   0  0  0  0  0  0  0  0  0  0  0  0
   19.4340  -23.3977   12.1214 N   0  0  0  0  0  0  0  0  0  0  0  0
   20.1608  -23.5075   10.8519 C   0  0  3  0  0  0  0  0  0  0  0  0
   20.0186  -24.8924   10.2245 C   0  0  0  0  0  0  0  0  0  0  0  0
   19.6884  -22.3959    9.8970 C   0  0  0  0  0  0  0  0  0  0  0  0
   20.4789  -22.3790    8.7114 O   0  0  0  0  0  0  0  0  0  0  0  0
   19.8150  -21.4325    7.8216 O   0  0  0  0  0  0  0  0  0  0  0  0
   20.3132  -20.0861    8.0370 O   0  0  0  0  0  0  0  0  0  0  0  0
   19.4186  -19.1017    7.4423 O   0  0  0  0  0  0  0  0  0  0  0  0
   19.7797  -17.8509    8.0290 C   0  0  0  0  0  0  0  0  0  0  0  0
   21.1893  -17.6646    8.0934 O   0  0  0  0  0  0  0  0  0  0  0  0
   21.4134  -16.3447    8.6767 O   0  0  0  0  0  0  0  0  0  0  0  0
   22.8362  -16.2125    8.7307 C   0  0  0  0  0  0  0  0  0  0  0  0
   23.4138  -16.1811    7.4356 O   0  0  0  0  0  0  0  0  0  0  0  0
   24.8336  -16.1601    7.5088 C   0  0  0  0  0  0  0  0  0  0  0  0
   25.4136  -17.2520    8.2249 O   0  0  0  0  0  0  0  0  0  0  0  0
   24.9418  -18.4538    7.5475 O   0  0  0  0  0  0  0  0  0  0  0  0
   25.4901  -19.5633    8.2697 C   0  0  0  0  0  0  0  0  0  0  0  0
   24.9315  -20.7655    7.7576 O   0  0  0  0  0  0  0  0  0  0  0  0
   25.4717  -21.9264    8.3874 C   0  0  0  0  0  0  0  0  0  0  0  0
   25.0278  -22.1360    9.7264 O   0  0  0  0  0  0  0  0  0  0  0  0
   23.5692  -22.0554    9.6871 O   0  0  0  0  0  0  0  0  0  0  0  0
   23.1706  -21.7342   11.0170 C   0  0  0  0  0  0  0  0  0  0  0  0
   23.6367  -20.4768   11.4691 O   0  0  0  0  0  0  0  0  0  0  0  0
   22.8360  -19.3901   11.0038 C   0  0  0  0  0  0  0  0  0  0  0  0
   23.2570  -18.1700   11.8016 C   0  0  0  0  0  0  0  0  0  0  0  0
   24.6494  -17.9986   11.5700 O   0  0  0  0  0  0  0  0  0  0  0  0
   25.2176  -17.0122   12.4078 C   0  0  0  0  0  0  0  0  0  0  0  0
   26.6373  -17.1146   12.4072 O   0  0  0  0  0  0  0  0  0  0  0  0
   27.1631  -17.1289   11.0882 C   0  0  0  0  0  0  0  0  0  0  0  0
   28.6710  -17.2015   11.1553 C   0  0  0  0  0  0  0  0  0  0  0  0
   29.1779  -17.2306    9.8197 O   0  0  0  0  0  0  0  0  0  0  0  0
   30.5961  -17.3066    9.8260 C   0  0  0  0  0  0  0  0  0  0  0  0
   31.0451  -18.5654   10.3205 O   0  0  0  0  0  0  0  0  0  0  0  0
   32.4973  -18.5108   10.2598 O   0  0  0  0  0  0  0  0  0  0  0  0
   32.9551  -19.6198   11.0343 C   0  0  0  0  0  0  0  0  0  0  0  0
   34.3757  -19.6567   11.1183 O   0  0  0  0  0  0  0  0  0  0  0  0
   34.9018  -18.5682   11.8746 C   0  0  0  0  0  0  0  0  0  0  0  0
   34.4905  -18.6158   13.2380 O   0  0  0  0  0  0  0  0  0  0  0  0
   35.0300  -17.4106   13.8488 O   0  0  0  0  0  0  0  0  0  0  0  0
   34.4134  -17.3257   15.1337 C   0  0  0  0  0  0  0  0  0  0  0  0
   34.8420  -16.1854   15.8602 O   0  0  0  0  0  0  0  0  0  0  0  0
   34.4459  -14.9701   15.2335 C   0  0  0  0  0  0  0  0  0  0  0  0
   35.0189  -13.8449   15.8985 O   0  0  0  0  0  0  0  0  0  0  0  0
   36.4572  -14.0894   15.8739 O   0  0  0  0  0  0  0  0  0  0  0  0
   37.0648  -12.9547   16.4785 C   0  0  0  0  0  0  0  0  0  0  0  0
   38.4845  -13.0077   16.3950 O   0  0  0  0  0  0  0  0  0  0  0  0
   38.9287  -13.0455   15.0427 C   0  0  0  0  0  0  0  0  0  0  0  0
   40.3143  -13.3226   14.9680 O   0  0  0  0  0  0  0  0  0  0  0  0
   40.4494  -14.7145   15.4000 O   0  0  0  0  0  0  0  0  0  0  0  0
   41.8393  -14.9099   15.6237 C   0  0  0  0  0  0  0  0  0  0  0  0
   42.0581  -16.1825   16.2238 O   0  0  0  0  0  0  0  0  0  0  0  0
   43.4553  -16.4159   16.3727 C   0  0  0  0  0  0  0  0  0  0  0  0
   44.0636  -15.4629   17.2342 O   0  0  0  0  0  0  0  0  0  0  0  0
   45.4873  -15.6990   17.0876 O   0  0  0  0  0  0  0  0  0  0  0  0
   46.1190  -14.6306   17.7774 C   0  0  0  0  0  0  0  0  0  0  0  0
   47.5164  -14.8631   17.8314 O   0  0  0  0  0  0  0  0  0  0  0  0
   48.1607  -13.8606   18.5987 C   0  0  0  0  0  0  0  0  0  0  0  0
   49.5056  -14.2366   18.8452 O   0  0  0  0  0  0  0  0  0  0  0  0
   50.0515  -13.1539   19.6426 O   0  0  0  0  0  0  0  0  0  0  0  0
   51.4947  -13.1352   19.5508 O   0  0  0  0  0  0  0  0  0  0  0  0
   51.9091  -13.0228   18.1665 O   0  0  0  0  0  0  0  0  0  0  0  0
   53.2290  -13.5471   18.1339 C   0  0  0  0  0  0  0  0  0  0  0  0
   53.6497  -13.6889   16.7883 O   0  0  0  0  0  0  0  0  0  0  0  0
   55.0302  -14.1118   16.8668 O   0  0  0  0  0  0  0  0  0  0  0  0
   55.7343  -13.7077   15.6725 O   0  0  0  0  0  0  0  0  0  0  0  0
   57.1323  -14.0314   15.7927 O   0  0  0  0  0  0  0  0  0  0  0  0
   57.6737  -14.4290   14.5156 O   0  0  0  0  0  0  0  0  0  0  0  0
   59.1147  -14.3839   14.5739 O   0  0  0  0  0  0  0  0  0  0  0  0
   59.6748  -14.3227   13.2488 O   0  0  0  0  0  0  0  0  0  0  0  0
   61.0377  -14.8014   13.2680 O   0  0  0  0  0  0  0  0  0  0  0  0
   61.6180  -14.6712   11.9544 O   0  0  0  0  0  0  0  0  0  0  0  0
   63.0582  -14.7310   12.0250 O   0  0  0  0  0  0  0  0  0  0  0  0
   63.5942  -15.1466   10.7471 O   0  0  0  0  0  0  0  0  0  0  0  0
   65.0133  -15.3858   10.8562 O   0  0  0  0  0  0  0  0  0  0  0  0
   65.7080  -14.9057    9.6808 O   0  0  0  0  0  0  0  0  0  0  0  0
   67.0453  -15.4629    9.6454 O   0  0  0  0  0  0  0  0  0  0  0  0
   67.5404  -15.5369    8.2876 O   0  0  0  0  0  0  0  0  0  0  0  0
   67.0348  -16.7196    7.6219 O   0  0  0  0  0  0  0  0  0  0  0  0
   19.5234  -24.8001   13.4095 H   0  0  0  0  0  0  0  0  0  0  0  0
   19.5177  -22.4535   12.5074 H   0  0  0  0  0  0  0  0  0  0  0  0
   21.2310  -23.4072   11.0320 H   0  0  0  0  0  0  0  0  0  0  0  0
   18.9718  -25.1360   10.0289 H   0  0  0  0  0  0  0  0  0  0  0  0
   20.4418  -25.6591   10.8823 H   0  0  0  0  0  0  0  0  0  0  0  0
   20.5666  -24.9468    9.2763 H   0  0  0  0  0  0  0  0  0  0  0  0
   19.8184  -21.4066   10.3820 H   0  0  0  0  0  0  0  0  0  0  0  0
   18.6420  -22.5184    9.6441 H   0  0  0  0  0  0  0  0  0  0  0  0
   19.3533  -17.8019    9.0370 H   0  0  0  0  0  0  0  0  0  0  0  0
   19.3389  -17.0560    7.4186 H   0  0  0  0  0  0  0  0  0  0  0  0
   23.2332  -17.0502    9.3040 H   0  0  0  0  0  0  0  0  0  0  0  0
   23.0627  -15.2839    9.2644 H   0  0  0  0  0  0  0  0  0  0  0  0
   25.1595  -15.2289    7.9843 H   0  0  0  0  0  0  0  0  0  0  0  0
   25.2272  -16.1643    6.4865 H   0  0  0  0  0  0  0  0  0  0  0  0
   25.2362  -19.4659    9.3274 H   0  0  0  0  0  0  0  0  0  0  0  0
   26.5770  -19.5618    8.1432 H   0  0  0  0  0  0  0  0  0  0  0  0
   26.5676  -21.8919    8.3869 H   0  0  0  0  0  0  0  0  0  0  0  0
   25.1724  -22.7996    7.7973 H   0  0  0  0  0  0  0  0  0  0  0  0
   23.5094  -22.5214   11.6976 H   0  0  0  0  0  0  0  0  0  0  0  0
   22.0859  -21.7049   11.0537 H   0  0  0  0  0  0  0  0  0  0  0  0
   21.7670  -19.5817   11.1532 H   0  0  0  0  0  0  0  0  0  0  0  0
   23.0264  -19.2640    9.9345 H   0  0  0  0  0  0  0  0  0  0  0  0
   23.0655  -18.3437   12.8652 H   0  0  0  0  0  0  0  0  0  0  0  0
   22.7140  -17.2803   11.4725 H   0  0  0  0  0  0  0  0  0  0  0  0
   24.8858  -17.1391   13.4420 H   0  0  0  0  0  0  0  0  0  0  0  0
   24.9196  -16.0226   12.0502 H   0  0  0  0  0  0  0  0  0  0  0  0
   26.8450  -16.2355   10.5387 H   0  0  0  0  0  0  0  0  0  0  0  0
   26.8040  -18.0076   10.5409 H   0  0  0  0  0  0  0  0  0  0  0  0
   28.9696  -18.1052   11.7004 H   0  0  0  0  0  0  0  0  0  0  0  0
   29.0643  -16.3339   11.6974 H   0  0  0  0  0  0  0  0  0  0  0  0
   31.0193  -16.4831   10.4136 H   0  0  0  0  0  0  0  0  0  0  0  0
   30.9308  -17.2044    8.7893 H   0  0  0  0  0  0  0  0  0  0  0  0
   32.6281  -20.5399   10.5418 H   0  0  0  0  0  0  0  0  0  0  0  0
   32.5097  -19.5928   12.0382 H   0  0  0  0  0  0  0  0  0  0  0  0
   34.5997  -17.6168   11.4195 H   0  0  0  0  0  0  0  0  0  0  0  0
   35.9934  -18.6376   11.8351 H   0  0  0  0  0  0  0  0  0  0  0  0
   34.7049  -18.2084   15.7118 H   0  0  0  0  0  0  0  0  0  0  0  0
   33.3218  -17.3186   15.0320 H   0  0  0  0  0  0  0  0  0  0  0  0
   33.3574  -14.8703   15.2697 H   0  0  0  0  0  0  0  0  0  0  0  0
   34.7691  -14.9436   14.1868 H   0  0  0  0  0  0  0  0  0  0  0  0
   36.7937  -12.9389   17.5395 H   0  0  0  0  0  0  0  0  0  0  0  0
   36.7039  -12.0324   16.0092 H   0  0  0  0  0  0  0  0  0  0  0  0
   38.7437  -12.0740   14.5701 H   0  0  0  0  0  0  0  0  0  0  0  0
   38.3937  -13.8116   14.4656 H   0  0  0  0  0  0  0  0  0  0  0  0
   42.2105  -14.1134   16.2790 H   0  0  0  0  0  0  0  0  0  0  0  0
   42.3446  -14.8602   14.6529 H   0  0  0  0  0  0  0  0  0  0  0  0
   43.9365  -16.4076   15.3865 H   0  0  0  0  0  0  0  0  0  0  0  0
   43.5797  -17.4104   16.8098 H   0  0  0  0  0  0  0  0  0  0  0  0
   45.7113  -14.5800   18.7943 H   0  0  0  0  0  0  0  0  0  0  0  0
   45.9159  -13.6926   17.2480 H   0  0  0  0  0  0  0  0  0  0  0  0
   47.6587  -13.7505   19.5668 H   0  0  0  0  0  0  0  0  0  0  0  0
   48.1317  -12.9090   18.0547 H   0  0  0  0  0  0  0  0  0  0  0  0
   53.2585  -14.5300   18.6190 H   0  0  0  0  0  0  0  0  0  0  0  0
   53.8890  -12.8503   18.6617 H   0  0  0  0  0  0  0  0  0  0  0  0
   67.2524  -16.4200    6.7232 H   0  0  0  0  0  0  0  0  0  0  0  0
  1  2  1  0  0  0  0
  1 80  1  0  0  0  0
  2  3  1  0  0  0  0
  2 81  1  0  0  0  0
  3  4  1  0  0  0  0
  3  5  1  0  0  0  0
  3 82  1  0  0  0  0
  4 83  1  0  0  0  0
  4 84  1  0  0  0  0
  4 85  1  0  0  0  0
  5  6  1  0  0  0  0
  5 86  1  0  0  0  0
  5 87  1  0  0  0  0
  6  7  1  0  0  0  0
  7  8  1  0  0  0  0
  8  9  1  0  0  0  0
  9 10  1  0  0  0  0
 10 11  1  0  0  0  0
 10 88  1  0  0  0  0
 10 89  1  0  0  0  0
 11 12  1  0  0  0  0
 12 13  1  0  0  0  0
 13 14  1  0  0  0  0
 13 90  1  0  0  0  0
 13 91  1  0  0  0  0
 14 15  1  0  0  0  0
 15 16  1  0  0  0  0
 15 92  1  0  0  0  0
 15 93  1  0  0  0  0
 16 17  1  0  0  0  0
 17 18  1  0  0  0  0
 18 19  1  0  0  0  0
 18 94  1  0  0  0  0
 18 95  1  0  0  0  0
 19 20  1  0  0  0  0
 20 21  1  0  0  0  0
 20 96  1  0  0  0  0
 20 97  1  0  0  0  0
 21 22  1  0  0  0  0
 22 23  1  0  0  0  0
 23 24  1  0  0  0  0
 23 98  1  0  0  0  0
 23 99  1  0  0  0  0
 24 25  1  0  0  0  0
 25 26  1  0  0  0  0
 25100  1  0  0  0  0
 25101  1  0  0  0  0
 26 27  1  0  0  0  0
 26102  1  0  0  0  0
 26103  1  0  0  0  0
 27 28  1  0  0  0  0
 28 29  1  0  0  0  0
 28104  1  0  0  0  0
 28105  1  0  0  0  0
 29 30  1  0  0  0  0
 30 31  1  0  0  0  0
 30106  1  0  0  0  0
 30107  1  0  0  0  0
 31 32  1  0  0  0  0
 31108  1  0  0  0  0
 31109  1  0  0  0  0
 32 33  1  0  0  0  0
 33 34  1  0  0  0  0
 33110  1  0  0  0  0
 33111  1  0  0  0  0
 34 35  1  0  0  0  0
 35 36  1  0  0  0  0
 36 37  1  0  0  0  0
 36112  1  0  0  0  0
 36113  1  0  0  0  0
 37 38  1  0  0  0  0
 38 39  1  0  0  0  0
 38114  1  0  0  0  0
 38115  1  0  0  0  0
 39 40  1  0  0  0  0
 40 41  1  0  0  0  0
 41 42  1  0  0  0  0
 41116  1  0  0  0  0
 41117  1  0  0  0  0
 42 43  1  0  0  0  0
 43 44  1  0  0  0  0
 43118  1  0  0  0  0
 43119  1  0  0  0  0
 44 45  1  0  0  0  0
 45 46  1  0  0  0  0
 46 47  1  0  0  0  0
 46120  1  0  0  0  0
 46121  1  0  0  0  0
 47 48  1  0  0  0  0
 48 49  1  0  0  0  0
 48122  1  0  0  0  0
 48123  1  0  0  0  0
 49 50  1  0  0  0  0
 50 51  1  0  0  0  0
 51 52  1  0  0  0  0
 51124  1  0  0  0  0
 51125  1  0  0  0  0
 52 53  1  0  0  0  0
 53 54  1  0  0  0  0
 53126  1  0  0  0  0
 53127  1  0  0  0  0
 54 55  1  0  0  0  0
 55 56  1  0  0  0  0
 56 57  1  0  0  0  0
 56128  1  0  0  0  0
 56129  1  0  0  0  0
 57 58  1  0  0  0  0
 58 59  1  0  0  0  0
 58130  1  0  0  0  0
 58131  1  0  0  0  0
 59 60  1  0  0  0  0
 60 61  1  0  0  0  0
 61 62  1  0  0  0  0
 62 63  1  0  0  0  0
 63 64  1  0  0  0  0
 63132  1  0  0  0  0
 63133  1  0  0  0  0
 64 65  1  0  0  0  0
 65 66  1  0  0  0  0
 66 67  1  0  0  0  0
 67 68  1  0  0  0  0
 68 69  1  0  0  0  0
 69 70  1  0  0  0  0
 70 71  1  0  0  0  0
 71 72  1  0  0  0  0
 72 73  1  0  0  0  0
 73 74  1  0  0  0  0
 74 75  1  0  0  0  0
 75 76  1  0  0  0  0
 76 77  1  0  0  0  0
 77 78  1  0  0  0  0
 78 79  1  0  0  0  0
 79134  1  0  0  0  0
M  END
$$$$
