
 OpenBabel04232216553D

 53 54  0  0  0  0  0  0  0  0999 V2000
    4.3279    2.2250    0.8100 C   0  0  0  0  0  0  0  0  0  0  0  0
    5.2797    2.7878   -0.3402 N   0  0  0  0  0  0  0  0  0  0  0  0
    4.7039    2.0032   -1.3735 C   0  0  0  0  0  0  0  0  0  0  0  0
    3.5957    2.4248   -1.9284 N   0  0  0  0  0  0  0  0  0  0  0  0
    5.1367    0.5702   -1.6079 C   0  0  0  0  0  0  0  0  0  0  0  0
    5.4700   -0.3399   -0.4479 C   0  0  0  0  0  0  0  0  0  0  0  0
    5.7632    0.5980   -2.7934 C   0  0  0  0  0  0  0  0  0  0  0  0
    7.2233    0.7567   -2.8044 C   0  0  0  0  0  0  0  0  0  0  0  0
    7.9857   -0.1432   -1.8665 C   0  0  0  0  0  0  0  0  0  0  0  0
    7.8878   -1.6417   -1.9064 C   0  0  0  0  0  0  0  0  0  0  0  0
    9.1696   -0.9778   -2.2451 C   0  0  0  0  0  0  0  0  0  0  0  0
    7.7161    1.8902   -3.3997 C   0  0  0  0  0  0  0  0  0  0  0  0
    6.7454    3.1446   -3.8077 C   0  0  0  0  0  0  0  0  0  0  0  0
    6.8041    3.5391   -5.1797 O   0  0  0  0  0  0  0  0  0  0  0  0
    9.1111    2.1747   -3.4693 N   0  0  0  0  0  0  0  0  0  0  0  0
   10.1147    1.6952   -2.4780 C   0  0  0  0  0  0  0  0  0  0  0  0
    9.5350    3.0876   -4.4399 C   0  0  0  0  0  0  0  0  0  0  0  0
    9.3753    4.4220   -4.2750 C   0  0  0  0  0  0  0  0  0  0  0  0
   10.5075    5.0223   -3.6593 C   0  0  0  0  0  0  0  0  0  0  0  0
   11.2920    5.6394   -4.8387 C   0  0  0  0  0  0  0  0  0  0  0  0
   10.6406    4.7450   -2.3332 C   0  0  0  0  0  0  0  0  0  0  0  0
    9.6188    4.3214   -1.0663 C   0  0  0  0  0  0  0  0  0  0  0  0
    8.2236    3.9494   -0.7354 C   0  0  0  0  0  0  0  0  0  0  0  0
    7.0042    2.7647   -0.0725 C   0  0  0  0  0  0  0  0  0  0  0  0
    3.2706    2.4832    0.5747 H   0  0  0  0  0  0  0  0  0  0  0  0
    4.5189    2.4476    1.8549 H   0  0  0  0  0  0  0  0  0  0  0  0
    4.2106    1.1250    0.7733 H   0  0  0  0  0  0  0  0  0  0  0  0
    3.1530    1.6934   -2.4974 H   0  0  0  0  0  0  0  0  0  0  0  0
    4.5878   -0.7078    0.0839 H   0  0  0  0  0  0  0  0  0  0  0  0
    6.1420    0.1222    0.2829 H   0  0  0  0  0  0  0  0  0  0  0  0
    5.9130   -1.2707   -0.7848 H   0  0  0  0  0  0  0  0  0  0  0  0
    5.2803    1.1958   -3.5690 H   0  0  0  0  0  0  0  0  0  0  0  0
    8.0606    0.2609   -0.8587 H   0  0  0  0  0  0  0  0  0  0  0  0
    7.2714   -2.0669   -2.6818 H   0  0  0  0  0  0  0  0  0  0  0  0
    7.8510   -2.1514   -0.9466 H   0  0  0  0  0  0  0  0  0  0  0  0
    9.4971   -0.9497   -3.2711 H   0  0  0  0  0  0  0  0  0  0  0  0
    9.9624   -1.0048   -1.4984 H   0  0  0  0  0  0  0  0  0  0  0  0
    6.9701    4.0195   -3.1788 H   0  0  0  0  0  0  0  0  0  0  0  0
    5.6918    3.0336   -3.5831 H   0  0  0  0  0  0  0  0  0  0  0  0
    7.2882    4.3855   -5.2186 H   0  0  0  0  0  0  0  0  0  0  0  0
    9.6656    1.4624   -1.5079 H   0  0  0  0  0  0  0  0  0  0  0  0
   10.8856    2.4114   -2.1973 H   0  0  0  0  0  0  0  0  0  0  0  0
   10.6876    0.8485   -2.8569 H   0  0  0  0  0  0  0  0  0  0  0  0
    9.1209    2.7241   -5.3837 H   0  0  0  0  0  0  0  0  0  0  0  0
    8.6073    4.8222   -3.6181 H   0  0  0  0  0  0  0  0  0  0  0  0
   10.5500    6.1286   -5.5097 H   0  0  0  0  0  0  0  0  0  0  0  0
   11.7954    4.9267   -5.5119 H   0  0  0  0  0  0  0  0  0  0  0  0
   11.9682    6.4562   -4.5808 H   0  0  0  0  0  0  0  0  0  0  0  0
   11.6987    4.6852   -1.9963 H   0  0  0  0  0  0  0  0  0  0  0  0
   10.0990    4.9270   -0.3123 H   0  0  0  0  0  0  0  0  0  0  0  0
    8.1220    3.4058   -1.6445 H   0  0  0  0  0  0  0  0  0  0  0  0
    7.0464    2.8521    0.9754 H   0  0  0  0  0  0  0  0  0  0  0  0
    7.2222    1.8708   -0.4198 H   0  0  0  0  0  0  0  0  0  0  0  0
  1  2  1  0  0  0  0
  1 25  1  0  0  0  0
  1 26  1  0  0  0  0
  1 27  1  0  0  0  0
  2  3  1  0  0  0  0
  2 24  1  0  0  0  0
  3  4  2  0  0  0  0
  3  5  1  0  0  0  0
  4 28  1  0  0  0  0
  5  6  1  0  0  0  0
  5  7  2  3  0  0  0
  6 29  1  0  0  0  0
  6 30  1  0  0  0  0
  6 31  1  0  0  0  0
  7  8  1  0  0  0  0
  7 32  1  0  0  0  0
  8  9  1  0  0  0  0
  8 12  2  3  0  0  0
  9 10  1  0  0  0  0
  9 11  1  0  0  0  0
  9 33  1  0  0  0  0
 10 11  1  0  0  0  0
 10 34  1  0  0  0  0
 10 35  1  0  0  0  0
 11 36  1  0  0  0  0
 11 37  1  0  0  0  0
 12 13  1  0  0  0  0
 12 15  1  0  0  0  0
 13 14  1  0  0  0  0
 13 38  1  0  0  0  0
 13 39  1  0  0  0  0
 14 40  1  0  0  0  0
 15 16  1  0  0  0  0
 15 17  1  0  0  0  0
 16 41  1  0  0  0  0
 16 42  1  0  0  0  0
 16 43  1  0  0  0  0
 17 18  2  3  0  0  0
 17 44  1  0  0  0  0
 18 19  1  0  0  0  0
 18 45  1  0  0  0  0
 19 20  1  0  0  0  0
 19 21  2  3  0  0  0
 20 46  1  0  0  0  0
 20 47  1  0  0  0  0
 20 48  1  0  0  0  0
 21 22  1  0  0  0  0
 21 49  1  0  0  0  0
 22 23  2  3  0  0  0
 22 50  1  0  0  0  0
 23 24  1  0  0  0  0
 23 51  1  0  0  0  0
 24 52  1  0  0  0  0
 24 53  1  0  0  0  0
M  END
$$$$
