
 OpenBabel04232216533D

243242  0  0  0  0  0  0  0  0999 V2000
    0.9363    0.0424    0.0516 C   0  0  0  0  0  0  0  0  0  0  0  0
    2.4538    0.0392    0.0356 C   0  0  0  0  0  0  0  0  0  0  0  0
    2.9809   -1.3090   -0.4324 C   0  0  0  0  0  0  0  0  0  0  0  0
    4.5019   -1.3133   -0.4470 C   0  0  0  0  0  0  0  0  0  0  0  0
    5.0180   -2.6619   -0.9151 C   0  0  0  0  0  0  0  0  0  0  0  0
    6.5381   -2.6739   -0.9320 C   0  0  0  0  0  0  0  0  0  0  0  0
    7.0297   -4.0248   -1.4025 C   0  0  0  0  0  0  0  0  0  0  0  0
    8.4539   -4.0215   -1.4113 O   0  0  0  0  0  0  0  0  0  0  0  0
    8.9263   -5.2872   -1.8529 C   0  0  0  0  0  0  0  0  0  0  0  0
   10.4354   -5.2728   -1.8585 C   0  0  0  0  0  0  0  0  0  0  0  0
   10.9592   -6.6190   -2.3292 C   0  0  0  0  0  0  0  0  0  0  0  0
   12.4740   -6.6249   -2.3403 C   0  0  0  0  0  0  0  0  0  0  0  0
   12.9838   -7.9753   -2.8115 C   0  0  0  0  0  0  0  0  0  0  0  0
   14.5013   -7.9785   -2.8213 C   0  0  0  0  0  0  0  0  0  0  0  0
   15.0123   -9.3294   -3.2922 C   0  0  0  0  0  0  0  0  0  0  0  0
   16.5285   -9.3294   -3.3027 C   0  0  0  0  0  0  0  0  0  0  0  0
   17.0385  -10.6782   -3.7710 C   0  0  0  0  0  0  0  0  0  0  0  0
   18.5553  -10.6805   -3.7803 C   0  0  0  0  0  0  0  0  0  0  0  0
   19.0654  -12.0303   -4.2467 C   0  0  0  0  0  0  0  0  0  0  0  0
   20.5820  -12.0334   -4.2540 C   0  0  0  0  0  0  0  0  0  0  0  0
   21.0922  -13.3836   -4.7186 C   0  0  0  0  0  0  0  0  0  0  0  0
   22.6086  -13.3871   -4.7240 C   0  0  0  0  0  0  0  0  0  0  0  0
   23.1188  -14.7370   -5.1900 C   0  0  0  0  0  0  0  0  0  0  0  0
   24.6353  -14.7408   -5.1939 C   0  0  0  0  0  0  0  0  0  0  0  0
   25.1453  -16.0911   -5.6602 C   0  0  0  0  0  0  0  0  0  0  0  0
   26.6622  -16.0940   -5.6650 C   0  0  0  0  0  0  0  0  0  0  0  0
   27.1721  -17.4443   -6.1319 C   0  0  0  0  0  0  0  0  0  0  0  0
   28.6884  -17.4480   -6.1367 C   0  0  0  0  0  0  0  0  0  0  0  0
   29.1991  -18.7966   -6.6041 C   0  0  0  0  0  0  0  0  0  0  0  0
   30.7153  -18.8003   -6.6088 C   0  0  0  0  0  0  0  0  0  0  0  0
   31.2252  -20.1506   -7.0758 C   0  0  0  0  0  0  0  0  0  0  0  0
   32.7421  -20.1536   -7.0805 C   0  0  0  0  0  0  0  0  0  0  0  0
   33.2520  -21.5039   -7.5469 C   0  0  0  0  0  0  0  0  0  0  0  0
   34.7685  -21.5077   -7.5509 C   0  0  0  0  0  0  0  0  0  0  0  0
   35.2788  -22.8574   -8.0172 C   0  0  0  0  0  0  0  0  0  0  0  0
   36.7952  -22.8609   -8.0222 C   0  0  0  0  0  0  0  0  0  0  0  0
   37.3054  -24.2113   -8.4871 C   0  0  0  0  0  0  0  0  0  0  0  0
   38.8220  -24.2153   -8.4905 C   0  0  0  0  0  0  0  0  0  0  0  0
   39.3317  -25.5657   -8.9565 C   0  0  0  0  0  0  0  0  0  0  0  0
   40.8490  -25.5692   -8.9581 C   0  0  0  0  0  0  0  0  0  0  0  0
   41.3584  -26.9196   -9.4265 C   0  0  0  0  0  0  0  0  0  0  0  0
   42.8756  -26.9235   -9.4281 C   0  0  0  0  0  0  0  0  0  0  0  0
   43.3857  -28.2727   -9.8958 C   0  0  0  0  0  0  0  0  0  0  0  0
   44.9016  -28.2780   -9.8981 C   0  0  0  0  0  0  0  0  0  0  0  0
   45.4122  -29.6267  -10.3657 C   0  0  0  0  0  0  0  0  0  0  0  0
   46.9286  -29.6311  -10.3679 C   0  0  0  0  0  0  0  0  0  0  0  0
   47.4384  -30.9813  -10.8359 C   0  0  0  0  0  0  0  0  0  0  0  0
   48.9554  -30.9852  -10.8376 C   0  0  0  0  0  0  0  0  0  0  0  0
   49.4653  -32.3347  -11.3057 C   0  0  0  0  0  0  0  0  0  0  0  0
   50.9819  -32.3386  -11.3093 C   0  0  0  0  0  0  0  0  0  0  0  0
   51.4920  -33.6878  -11.7777 C   0  0  0  0  0  0  0  0  0  0  0  0
   53.0085  -33.6911  -11.7830 C   0  0  0  0  0  0  0  0  0  0  0  0
   53.5187  -35.0396  -12.2534 C   0  0  0  0  0  0  0  0  0  0  0  0
   55.0351  -35.0436  -12.2571 C   0  0  0  0  0  0  0  0  0  0  0  0
   55.5453  -36.3915  -12.7292 C   0  0  0  0  0  0  0  0  0  0  0  0
   57.0619  -36.3959  -12.7308 C   0  0  0  0  0  0  0  0  0  0  0  0
   57.5720  -37.7445  -13.2010 C   0  0  0  0  0  0  0  0  0  0  0  0
   59.0886  -37.7498  -13.2008 C   0  0  0  0  0  0  0  0  0  0  0  0
   59.5985  -39.0987  -13.6707 C   0  0  0  0  0  0  0  0  0  0  0  0
   61.1155  -39.1039  -13.6686 C   0  0  0  0  0  0  0  0  0  0  0  0
   61.6252  -40.4534  -14.1386 C   0  0  0  0  0  0  0  0  0  0  0  0
   63.1416  -40.4591  -14.1370 C   0  0  0  0  0  0  0  0  0  0  0  0
   63.6522  -41.8073  -14.6064 C   0  0  0  0  0  0  0  0  0  0  0  0
   65.1682  -41.8139  -14.6044 C   0  0  0  0  0  0  0  0  0  0  0  0
   65.6788  -43.1616  -15.0749 C   0  0  0  0  0  0  0  0  0  0  0  0
   67.1952  -43.1678  -15.0721 C   0  0  0  0  0  0  0  0  0  0  0  0
   67.7050  -44.5170  -15.5430 C   0  0  0  0  0  0  0  0  0  0  0  0
   69.2217  -44.5228  -15.5403 C   0  0  0  0  0  0  0  0  0  0  0  0
   69.7319  -45.8712  -16.0104 C   0  0  0  0  0  0  0  0  0  0  0  0
   71.2485  -45.8777  -16.0065 C   0  0  0  0  0  0  0  0  0  0  0  0
   71.7584  -47.2264  -16.4766 C   0  0  0  0  0  0  0  0  0  0  0  0
   73.2753  -47.2331  -16.4724 C   0  0  0  0  0  0  0  0  0  0  0  0
   73.7853  -48.5818  -16.9426 C   0  0  0  0  0  0  0  0  0  0  0  0
   75.3025  -48.5886  -16.9386 C   0  0  0  0  0  0  0  0  0  0  0  0
   75.8128  -49.9374  -17.4088 C   0  0  0  0  0  0  0  0  0  0  0  0
   77.3303  -49.9439  -17.4067 C   0  0  0  0  0  0  0  0  0  0  0  0
   77.8430  -51.2930  -17.8771 C   0  0  0  0  0  0  0  0  0  0  0  0
   79.3619  -51.3010  -17.8757 C   0  0  0  0  0  0  0  0  0  0  0  0
   79.8775  -52.6509  -18.3484 C   0  0  0  0  0  0  0  0  0  0  0  0
   81.3984  -52.6686  -18.3524 C   0  0  0  0  0  0  0  0  0  0  0  0
   81.9105  -54.0162  -18.8244 C   0  0  0  0  0  0  0  0  0  0  0  0
    0.5618    1.0119    0.3881 H   0  0  0  0  0  0  0  0  0  0  0  0
    0.5559   -0.7297    0.7281 H   0  0  0  0  0  0  0  0  0  0  0  0
    0.5394   -0.1537   -0.9497 H   0  0  0  0  0  0  0  0  0  0  0  0
    2.8316    0.2602    1.0417 H   0  0  0  0  0  0  0  0  0  0  0  0
    2.8153    0.8338   -0.6290 H   0  0  0  0  0  0  0  0  0  0  0  0
    2.6001   -1.5288   -1.4384 H   0  0  0  0  0  0  0  0  0  0  0  0
    2.6144   -2.1030    0.2312 H   0  0  0  0  0  0  0  0  0  0  0  0
    4.8846   -1.0976    0.5576 H   0  0  0  0  0  0  0  0  0  0  0  0
    4.8704   -0.5233   -1.1120 H   0  0  0  0  0  0  0  0  0  0  0  0
    4.6347   -2.8799   -1.9195 H   0  0  0  0  0  0  0  0  0  0  0  0
    4.6487   -3.4536   -0.2516 H   0  0  0  0  0  0  0  0  0  0  0  0
    6.9377   -2.4582    0.0672 H   0  0  0  0  0  0  0  0  0  0  0  0
    6.9239   -1.8856   -1.5908 H   0  0  0  0  0  0  0  0  0  0  0  0
    6.6605   -4.2269   -2.4141 H   0  0  0  0  0  0  0  0  0  0  0  0
    6.6722   -4.8099   -0.7283 H   0  0  0  0  0  0  0  0  0  0  0  0
    8.5513   -5.4854   -2.8643 H   0  0  0  0  0  0  0  0  0  0  0  0
    8.5611   -6.0704   -1.1774 H   0  0  0  0  0  0  0  0  0  0  0  0
   10.8130   -5.0439   -0.8500 H   0  0  0  0  0  0  0  0  0  0  0  0
   10.8036   -4.4668   -2.5075 H   0  0  0  0  0  0  0  0  0  0  0  0
   10.5775   -6.8344   -3.3340 H   0  0  0  0  0  0  0  0  0  0  0  0
   10.5883   -7.4145   -1.6665 H   0  0  0  0  0  0  0  0  0  0  0  0
   12.8570   -6.4123   -1.3351 H   0  0  0  0  0  0  0  0  0  0  0  0
   12.8453   -5.8347   -3.0043 H   0  0  0  0  0  0  0  0  0  0  0  0
   12.6040   -8.1895   -3.8180 H   0  0  0  0  0  0  0  0  0  0  0  0
   12.6135   -8.7678   -2.1493 H   0  0  0  0  0  0  0  0  0  0  0  0
   14.8827   -7.7652   -1.8154 H   0  0  0  0  0  0  0  0  0  0  0  0
   14.8740   -7.1868   -3.4825 H   0  0  0  0  0  0  0  0  0  0  0  0
   14.6304   -9.5422   -4.2975 H   0  0  0  0  0  0  0  0  0  0  0  0
   14.6420  -10.1194   -2.6285 H   0  0  0  0  0  0  0  0  0  0  0  0
   16.9102   -9.1136   -2.2970 H   0  0  0  0  0  0  0  0  0  0  0  0
   16.8986   -8.5383   -3.9669 H   0  0  0  0  0  0  0  0  0  0  0  0
   16.6582  -10.8937   -4.7772 H   0  0  0  0  0  0  0  0  0  0  0  0
   16.6678  -11.4695   -3.1075 H   0  0  0  0  0  0  0  0  0  0  0  0
   18.9357  -10.4642   -2.7743 H   0  0  0  0  0  0  0  0  0  0  0  0
   18.9264   -9.8904   -4.4448 H   0  0  0  0  0  0  0  0  0  0  0  0
   18.6860  -12.2464   -5.2533 H   0  0  0  0  0  0  0  0  0  0  0  0
   18.6932  -12.8205   -3.5830 H   0  0  0  0  0  0  0  0  0  0  0  0
   20.9612  -11.8158   -3.2476 H   0  0  0  0  0  0  0  0  0  0  0  0
   20.9543  -11.2434   -4.9188 H   0  0  0  0  0  0  0  0  0  0  0  0
   20.7136  -13.6002   -5.7255 H   0  0  0  0  0  0  0  0  0  0  0  0
   20.7184  -14.1732   -4.0546 H   0  0  0  0  0  0  0  0  0  0  0  0
   22.9865  -13.1714   -3.7167 H   0  0  0  0  0  0  0  0  0  0  0  0
   22.9821  -12.5967   -5.3869 H   0  0  0  0  0  0  0  0  0  0  0  0
   22.7416  -14.9518   -6.1973 H   0  0  0  0  0  0  0  0  0  0  0  0
   22.7442  -15.5276   -4.5278 H   0  0  0  0  0  0  0  0  0  0  0  0
   25.0126  -14.5262   -4.1862 H   0  0  0  0  0  0  0  0  0  0  0  0
   25.0097  -13.9503   -5.8557 H   0  0  0  0  0  0  0  0  0  0  0  0
   24.7675  -16.3064   -6.6671 H   0  0  0  0  0  0  0  0  0  0  0  0
   24.7717  -16.8812   -4.9973 H   0  0  0  0  0  0  0  0  0  0  0  0
   27.0400  -15.8790   -4.6583 H   0  0  0  0  0  0  0  0  0  0  0  0
   27.0354  -15.3040   -6.3280 H   0  0  0  0  0  0  0  0  0  0  0  0
   26.7940  -17.6592   -7.1388 H   0  0  0  0  0  0  0  0  0  0  0  0
   26.7986  -18.2348   -5.4693 H   0  0  0  0  0  0  0  0  0  0  0  0
   29.0670  -17.2320   -5.1300 H   0  0  0  0  0  0  0  0  0  0  0  0
   29.0625  -16.6564   -6.7997 H   0  0  0  0  0  0  0  0  0  0  0  0
   28.8204  -19.0126   -7.6108 H   0  0  0  0  0  0  0  0  0  0  0  0
   28.8249  -19.5883   -5.9411 H   0  0  0  0  0  0  0  0  0  0  0  0
   31.0934  -18.5854   -5.6020 H   0  0  0  0  0  0  0  0  0  0  0  0
   31.0888  -18.0099   -7.2715 H   0  0  0  0  0  0  0  0  0  0  0  0
   30.8474  -20.3657   -8.0825 H   0  0  0  0  0  0  0  0  0  0  0  0
   30.8520  -20.9406   -6.4128 H   0  0  0  0  0  0  0  0  0  0  0  0
   33.1199  -19.9384   -6.0737 H   0  0  0  0  0  0  0  0  0  0  0  0
   33.1157  -19.3634   -7.7435 H   0  0  0  0  0  0  0  0  0  0  0  0
   32.8748  -21.7184   -8.5544 H   0  0  0  0  0  0  0  0  0  0  0  0
   32.8778  -22.2943   -6.8850 H   0  0  0  0  0  0  0  0  0  0  0  0
   35.1459  -21.2927   -6.5435 H   0  0  0  0  0  0  0  0  0  0  0  0
   35.1432  -20.7167   -8.2131 H   0  0  0  0  0  0  0  0  0  0  0  0
   34.9008  -23.0728   -9.0243 H   0  0  0  0  0  0  0  0  0  0  0  0
   34.9049  -23.6477   -7.3543 H   0  0  0  0  0  0  0  0  0  0  0  0
   37.1734  -22.6444   -7.0153 H   0  0  0  0  0  0  0  0  0  0  0  0
   37.1689  -22.0713   -8.6857 H   0  0  0  0  0  0  0  0  0  0  0  0
   36.9282  -24.4272   -9.4944 H   0  0  0  0  0  0  0  0  0  0  0  0
   36.9309  -25.0011   -7.8242 H   0  0  0  0  0  0  0  0  0  0  0  0
   39.1987  -24.0005   -7.4827 H   0  0  0  0  0  0  0  0  0  0  0  0
   39.1967  -23.4249   -9.1524 H   0  0  0  0  0  0  0  0  0  0  0  0
   38.9562  -25.7793   -9.9647 H   0  0  0  0  0  0  0  0  0  0  0  0
   38.9564  -26.3560   -8.2957 H   0  0  0  0  0  0  0  0  0  0  0  0
   41.2245  -25.3571   -7.9499 H   0  0  0  0  0  0  0  0  0  0  0  0
   41.2247  -24.7782   -9.6177 H   0  0  0  0  0  0  0  0  0  0  0  0
   40.9830  -27.1317  -10.4349 H   0  0  0  0  0  0  0  0  0  0  0  0
   40.9826  -27.7107   -8.7668 H   0  0  0  0  0  0  0  0  0  0  0  0
   43.2513  -26.7109   -8.4198 H   0  0  0  0  0  0  0  0  0  0  0  0
   43.2509  -26.1322  -10.0881 H   0  0  0  0  0  0  0  0  0  0  0  0
   43.0090  -28.4861  -10.9051 H   0  0  0  0  0  0  0  0  0  0  0  0
   43.0095  -29.0649   -9.2364 H   0  0  0  0  0  0  0  0  0  0  0  0
   45.2779  -28.0648   -8.8894 H   0  0  0  0  0  0  0  0  0  0  0  0
   45.2781  -27.4854  -10.5578 H   0  0  0  0  0  0  0  0  0  0  0  0
   45.0359  -29.8400  -11.3749 H   0  0  0  0  0  0  0  0  0  0  0  0
   45.0361  -30.4186   -9.7062 H   0  0  0  0  0  0  0  0  0  0  0  0
   47.3045  -29.4184   -9.3594 H   0  0  0  0  0  0  0  0  0  0  0  0
   47.3044  -28.8400  -11.0279 H   0  0  0  0  0  0  0  0  0  0  0  0
   47.0630  -31.1931  -11.8444 H   0  0  0  0  0  0  0  0  0  0  0  0
   47.0629  -31.7723  -10.1762 H   0  0  0  0  0  0  0  0  0  0  0  0
   49.3313  -30.7724   -9.8292 H   0  0  0  0  0  0  0  0  0  0  0  0
   49.3309  -30.1938  -11.4977 H   0  0  0  0  0  0  0  0  0  0  0  0
   49.0885  -32.5478  -12.3136 H   0  0  0  0  0  0  0  0  0  0  0  0
   49.0906  -33.1261  -10.6449 H   0  0  0  0  0  0  0  0  0  0  0  0
   51.3590  -32.1254  -10.3013 H   0  0  0  0  0  0  0  0  0  0  0  0
   51.3563  -31.5471  -11.9700 H   0  0  0  0  0  0  0  0  0  0  0  0
   51.1139  -33.9016  -12.7852 H   0  0  0  0  0  0  0  0  0  0  0  0
   51.1184  -34.4793  -11.1161 H   0  0  0  0  0  0  0  0  0  0  0  0
   53.3866  -33.4786  -10.7752 H   0  0  0  0  0  0  0  0  0  0  0  0
   53.3821  -32.8990  -12.4434 H   0  0  0  0  0  0  0  0  0  0  0  0
   53.1414  -35.2512  -13.2616 H   0  0  0  0  0  0  0  0  0  0  0  0
   53.1443  -35.8322  -11.5936 H   0  0  0  0  0  0  0  0  0  0  0  0
   55.4121  -34.8330  -11.2488 H   0  0  0  0  0  0  0  0  0  0  0  0
   55.4100  -34.2500  -12.9159 H   0  0  0  0  0  0  0  0  0  0  0  0
   55.1694  -36.6013  -13.7382 H   0  0  0  0  0  0  0  0  0  0  0  0
   55.1694  -37.1847  -12.0712 H   0  0  0  0  0  0  0  0  0  0  0  0
   57.4377  -36.1851  -11.7221 H   0  0  0  0  0  0  0  0  0  0  0  0
   57.4377  -35.6034  -13.3896 H   0  0  0  0  0  0  0  0  0  0  0  0
   57.1971  -37.9552  -14.2107 H   0  0  0  0  0  0  0  0  0  0  0  0
   57.1950  -38.5372  -12.5432 H   0  0  0  0  0  0  0  0  0  0  0  0
   59.4629  -37.5394  -12.1914 H   0  0  0  0  0  0  0  0  0  0  0  0
   59.4656  -36.9572  -13.8587 H   0  0  0  0  0  0  0  0  0  0  0  0
   59.2248  -39.3087  -14.6806 H   0  0  0  0  0  0  0  0  0  0  0  0
   59.2205  -39.8913  -13.0134 H   0  0  0  0  0  0  0  0  0  0  0  0
   61.4885  -38.8947  -12.6587 H   0  0  0  0  0  0  0  0  0  0  0  0
   61.4933  -38.3116  -14.3256 H   0  0  0  0  0  0  0  0  0  0  0  0
   61.2517  -40.6634  -15.1485 H   0  0  0  0  0  0  0  0  0  0  0  0
   61.2471  -41.2458  -13.4814 H   0  0  0  0  0  0  0  0  0  0  0  0
   63.5156  -40.2485  -13.1263 H   0  0  0  0  0  0  0  0  0  0  0  0
   63.5201  -39.6660  -14.7936 H   0  0  0  0  0  0  0  0  0  0  0  0
   63.2782  -42.0178  -15.6166 H   0  0  0  0  0  0  0  0  0  0  0  0
   63.2734  -42.6009  -13.9495 H   0  0  0  0  0  0  0  0  0  0  0  0
   65.5422  -41.6033  -13.5942 H   0  0  0  0  0  0  0  0  0  0  0  0
   65.5469  -41.0204  -15.2614 H   0  0  0  0  0  0  0  0  0  0  0  0
   65.3050  -43.3720  -16.0846 H   0  0  0  0  0  0  0  0  0  0  0  0
   65.3000  -43.9556  -14.4177 H   0  0  0  0  0  0  0  0  0  0  0  0
   67.5685  -42.9584  -14.0624 H   0  0  0  0  0  0  0  0  0  0  0  0
   67.5734  -42.3749  -15.7291 H   0  0  0  0  0  0  0  0  0  0  0  0
   67.3319  -44.7264  -16.5524 H   0  0  0  0  0  0  0  0  0  0  0  0
   67.3272  -45.3093  -14.8855 H   0  0  0  0  0  0  0  0  0  0  0  0
   69.5952  -44.3126  -14.5301 H   0  0  0  0  0  0  0  0  0  0  0  0
   69.6004  -43.7295  -16.1973 H   0  0  0  0  0  0  0  0  0  0  0  0
   69.3595  -46.0805  -17.0210 H   0  0  0  0  0  0  0  0  0  0  0  0
   69.3527  -46.6643  -15.3540 H   0  0  0  0  0  0  0  0  0  0  0  0
   71.6209  -45.6686  -14.9961 H   0  0  0  0  0  0  0  0  0  0  0  0
   71.6278  -45.0849  -16.6629 H   0  0  0  0  0  0  0  0  0  0  0  0
   71.3865  -47.4357  -17.4872 H   0  0  0  0  0  0  0  0  0  0  0  0
   71.3794  -48.0196  -15.8202 H   0  0  0  0  0  0  0  0  0  0  0  0
   73.6474  -47.0240  -15.4618 H   0  0  0  0  0  0  0  0  0  0  0  0
   73.6545  -46.4401  -17.1288 H   0  0  0  0  0  0  0  0  0  0  0  0
   73.4131  -48.7908  -17.9530 H   0  0  0  0  0  0  0  0  0  0  0  0
   73.4061  -49.3746  -16.2862 H   0  0  0  0  0  0  0  0  0  0  0  0
   75.6743  -48.3792  -15.9280 H   0  0  0  0  0  0  0  0  0  0  0  0
   75.6812  -47.7954  -17.5948 H   0  0  0  0  0  0  0  0  0  0  0  0
   75.4391  -50.1469  -18.4186 H   0  0  0  0  0  0  0  0  0  0  0  0
   75.4342  -50.7298  -16.7516 H   0  0  0  0  0  0  0  0  0  0  0  0
   77.7028  -49.7336  -16.3966 H   0  0  0  0  0  0  0  0  0  0  0  0
   77.7075  -49.1506  -18.0637 H   0  0  0  0  0  0  0  0  0  0  0  0
   77.4680  -51.5021  -18.8867 H   0  0  0  0  0  0  0  0  0  0  0  0
   77.4634  -52.0852  -17.2199 H   0  0  0  0  0  0  0  0  0  0  0  0
   79.7334  -51.0914  -16.8650 H   0  0  0  0  0  0  0  0  0  0  0  0
   79.7380  -50.5061  -18.5314 H   0  0  0  0  0  0  0  0  0  0  0  0
   79.4981  -52.8577  -19.3568 H   0  0  0  0  0  0  0  0  0  0  0  0
   79.4955  -53.4419  -17.6911 H   0  0  0  0  0  0  0  0  0  0  0  0
   81.7772  -52.4636  -17.3443 H   0  0  0  0  0  0  0  0  0  0  0  0
   81.7796  -51.8791  -19.0106 H   0  0  0  0  0  0  0  0  0  0  0  0
   81.5576  -54.8159  -18.1654 H   0  0  0  0  0  0  0  0  0  0  0  0
   83.0029  -54.0268  -18.8266 H   0  0  0  0  0  0  0  0  0  0  0  0
   81.5600  -54.2286  -19.8394 H   0  0  0  0  0  0  0  0  0  0  0  0
  1  2  1  0  0  0  0
  1 82  1  0  0  0  0
  1 83  1  0  0  0  0
  1 84  1  0  0  0  0
  2  3  1  0  0  0  0
  2 85  1  0  0  0  0
  2 86  1  0  0  0  0
  3  4  1  0  0  0  0
  3 87  1  0  0  0  0
  3 88  1  0  0  0  0
  4  5  1  0  0  0  0
  4 89  1  0  0  0  0
  4 90  1  0  0  0  0
  5  6  1  0  0  0  0
  5 91  1  0  0  0  0
  5 92  1  0  0  0  0
  6  7  1  0  0  0  0
  6 93  1  0  0  0  0
  6 94  1  0  0  0  0
  7  8  1  0  0  0  0
  7 95  1  0  0  0  0
  7 96  1  0  0  0  0
  8  9  1  0  0  0  0
  9 10  1  0  0  0  0
  9 97  1  0  0  0  0
  9 98  1  0  0  0  0
 10 11  1  0  0  0  0
 10 99  1  0  0  0  0
 10100  1  0  0  0  0
 11 12  1  0  0  0  0
 11101  1  0  0  0  0
 11102  1  0  0  0  0
 12 13  1  0  0  0  0
 12103  1  0  0  0  0
 12104  1  0  0  0  0
 13 14  1  0  0  0  0
 13105  1  0  0  0  0
 13106  1  0  0  0  0
 14 15  1  0  0  0  0
 14107  1  0  0  0  0
 14108  1  0  0  0  0
 15 16  1  0  0  0  0
 15109  1  0  0  0  0
 15110  1  0  0  0  0
 16 17  1  0  0  0  0
 16111  1  0  0  0  0
 16112  1  0  0  0  0
 17 18  1  0  0  0  0
 17113  1  0  0  0  0
 17114  1  0  0  0  0
 18 19  1  0  0  0  0
 18115  1  0  0  0  0
 18116  1  0  0  0  0
 19 20  1  0  0  0  0
 19117  1  0  0  0  0
 19118  1  0  0  0  0
 20 21  1  0  0  0  0
 20119  1  0  0  0  0
 20120  1  0  0  0  0
 21 22  1  0  0  0  0
 21121  1  0  0  0  0
 21122  1  0  0  0  0
 22 23  1  0  0  0  0
 22123  1  0  0  0  0
 22124  1  0  0  0  0
 23 24  1  0  0  0  0
 23125  1  0  0  0  0
 23126  1  0  0  0  0
 24 25  1  0  0  0  0
 24127  1  0  0  0  0
 24128  1  0  0  0  0
 25 26  1  0  0  0  0
 25129  1  0  0  0  0
 25130  1  0  0  0  0
 26 27  1  0  0  0  0
 26131  1  0  0  0  0
 26132  1  0  0  0  0
 27 28  1  0  0  0  0
 27133  1  0  0  0  0
 27134  1  0  0  0  0
 28 29  1  0  0  0  0
 28135  1  0  0  0  0
 28136  1  0  0  0  0
 29 30  1  0  0  0  0
 29137  1  0  0  0  0
 29138  1  0  0  0  0
 30 31  1  0  0  0  0
 30139  1  0  0  0  0
 30140  1  0  0  0  0
 31 32  1  0  0  0  0
 31141  1  0  0  0  0
 31142  1  0  0  0  0
 32 33  1  0  0  0  0
 32143  1  0  0  0  0
 32144  1  0  0  0  0
 33 34  1  0  0  0  0
 33145  1  0  0  0  0
 33146  1  0  0  0  0
 34 35  1  0  0  0  0
 34147  1  0  0  0  0
 34148  1  0  0  0  0
 35 36  1  0  0  0  0
 35149  1  0  0  0  0
 35150  1  0  0  0  0
 36 37  1  0  0  0  0
 36151  1  0  0  0  0
 36152  1  0  0  0  0
 37 38  1  0  0  0  0
 37153  1  0  0  0  0
 37154  1  0  0  0  0
 38 39  1  0  0  0  0
 38155  1  0  0  0  0
 38156  1  0  0  0  0
 39 40  1  0  0  0  0
 39157  1  0  0  0  0
 39158  1  0  0  0  0
 40 41  1  0  0  0  0
 40159  1  0  0  0  0
 40160  1  0  0  0  0
 41 42  1  0  0  0  0
 41161  1  0  0  0  0
 41162  1  0  0  0  0
 42 43  1  0  0  0  0
 42163  1  0  0  0  0
 42164  1  0  0  0  0
 43 44  1  0  0  0  0
 43165  1  0  0  0  0
 43166  1  0  0  0  0
 44 45  1  0  0  0  0
 44167  1  0  0  0  0
 44168  1  0  0  0  0
 45 46  1  0  0  0  0
 45169  1  0  0  0  0
 45170  1  0  0  0  0
 46 47  1  0  0  0  0
 46171  1  0  0  0  0
 46172  1  0  0  0  0
 47 48  1  0  0  0  0
 47173  1  0  0  0  0
 47174  1  0  0  0  0
 48 49  1  0  0  0  0
 48175  1  0  0  0  0
 48176  1  0  0  0  0
 49 50  1  0  0  0  0
 49177  1  0  0  0  0
 49178  1  0  0  0  0
 50 51  1  0  0  0  0
 50179  1  0  0  0  0
 50180  1  0  0  0  0
 51 52  1  0  0  0  0
 51181  1  0  0  0  0
 51182  1  0  0  0  0
 52 53  1  0  0  0  0
 52183  1  0  0  0  0
 52184  1  0  0  0  0
 53 54  1  0  0  0  0
 53185  1  0  0  0  0
 53186  1  0  0  0  0
 54 55  1  0  0  0  0
 54187  1  0  0  0  0
 54188  1  0  0  0  0
 55 56  1  0  0  0  0
 55189  1  0  0  0  0
 55190  1  0  0  0  0
 56 57  1  0  0  0  0
 56191  1  0  0  0  0
 56192  1  0  0  0  0
 57 58  1  0  0  0  0
 57193  1  0  0  0  0
 57194  1  0  0  0  0
 58 59  1  0  0  0  0
 58195  1  0  0  0  0
 58196  1  0  0  0  0
 59 60  1  0  0  0  0
 59197  1  0  0  0  0
 59198  1  0  0  0  0
 60 61  1  0  0  0  0
 60199  1  0  0  0  0
 60200  1  0  0  0  0
 61 62  1  0  0  0  0
 61201  1  0  0  0  0
 61202  1  0  0  0  0
 62 63  1  0  0  0  0
 62203  1  0  0  0  0
 62204  1  0  0  0  0
 63 64  1  0  0  0  0
 63205  1  0  0  0  0
 63206  1  0  0  0  0
 64 65  1  0  0  0  0
 64207  1  0  0  0  0
 64208  1  0  0  0  0
 65 66  1  0  0  0  0
 65209  1  0  0  0  0
 65210  1  0  0  0  0
 66 67  1  0  0  0  0
 66211  1  0  0  0  0
 66212  1  0  0  0  0
 67 68  1  0  0  0  0
 67213  1  0  0  0  0
 67214  1  0  0  0  0
 68 69  1  0  0  0  0
 68215  1  0  0  0  0
 68216  1  0  0  0  0
 69 70  1  0  0  0  0
 69217  1  0  0  0  0
 69218  1  0  0  0  0
 70 71  1  0  0  0  0
 70219  1  0  0  0  0
 70220  1  0  0  0  0
 71 72  1  0  0  0  0
 71221  1  0  0  0  0
 71222  1  0  0  0  0
 72 73  1  0  0  0  0
 72223  1  0  0  0  0
 72224  1  0  0  0  0
 73 74  1  0  0  0  0
 73225  1  0  0  0  0
 73226  1  0  0  0  0
 74 75  1  0  0  0  0
 74227  1  0  0  0  0
 74228  1  0  0  0  0
 75 76  1  0  0  0  0
 75229  1  0  0  0  0
 75230  1  0  0  0  0
 76 77  1  0  0  0  0
 76231  1  0  0  0  0
 76232  1  0  0  0  0
 77 78  1  0  0  0  0
 77233  1  0  0  0  0
 77234  1  0  0  0  0
 78 79  1  0  0  0  0
 78235  1  0  0  0  0
 78236  1  0  0  0  0
 79 80  1  0  0  0  0
 79237  1  0  0  0  0
 79238  1  0  0  0  0
 80 81  1  0  0  0  0
 80239  1  0  0  0  0
 80240  1  0  0  0  0
 81241  1  0  0  0  0
 81242  1  0  0  0  0
 81243  1  0  0  0  0
M  END
$$$$
