
 OpenBabel04232216423D

 46 47  0  0  0  0  0  0  0  0999 V2000
    8.3371    3.0253   -1.6640 C   0  0  0  0  0  0  0  0  0  0  0  0
    8.0992    1.1347   -1.8334 C   0  0  0  0  0  0  0  0  0  0  0  0
    8.8489    0.2537   -2.7480 C   0  0  0  0  0  0  0  0  0  0  0  0
    9.8814    0.8192   -4.2942 C   0  0  0  0  0  0  0  0  0  0  0  0
   10.9182    2.2733   -4.3864 N   0  0  0  0  0  0  0  0  0  0  0  0
   12.5555    2.6653   -5.2874 C   0  0  0  0  0  0  0  0  0  0  0  0
   13.3311    3.6727   -6.7898 C   0  0  0  0  0  0  0  0  0  0  0  0
   14.7312    4.6291   -7.7338 C   0  0  0  0  0  0  0  0  0  0  0  0
   14.9351    5.3314   -9.4183 C   0  0  0  0  0  0  0  0  0  0  0  0
   16.2338    6.1629  -10.1708 C   0  0  0  0  0  0  0  0  0  0  0  0
    8.8968    0.4420   -5.2109 N   0  0  0  0  0  0  0  0  0  0  0  0
    7.5108    0.7597   -4.7204 C   0  0  0  0  0  0  0  0  0  0  0  0
    7.3025    1.8867   -4.0165 C   0  0  0  0  0  0  0  0  0  0  0  0
    8.6033    2.5307   -3.7968 C   0  0  0  0  0  0  0  0  0  0  0  0
   10.0885    1.9896   -2.4310 C   0  0  0  0  0  0  0  0  0  0  0  0
    8.5041    3.1886   -5.0065 C   0  0  0  0  0  0  0  0  0  0  0  0
    9.4930    3.3711   -5.9865 C   0  0  0  0  0  0  0  0  0  0  0  0
   10.3563    4.4004   -5.7781 C   0  0  0  0  0  0  0  0  0  0  0  0
   10.8288    4.9052   -7.0199 C   0  0  0  0  0  0  0  0  0  0  0  0
   10.5045    4.8419   -4.4338 N   0  0  0  0  0  0  0  0  0  0  0  0
   10.4086    3.7870   -3.6253 C   0  0  0  0  0  0  0  0  0  0  0  0
    9.2640    3.9868   -2.2883 N   0  0  0  0  0  0  0  0  0  0  0  0
    7.5340    3.3981   -0.9836 H   0  0  0  0  0  0  0  0  0  0  0  0
    7.2129    0.7696   -1.2821 H   0  0  0  0  0  0  0  0  0  0  0  0
    8.4989   -0.7901   -2.8921 H   0  0  0  0  0  0  0  0  0  0  0  0
   13.1316    1.7462   -5.1791 H   0  0  0  0  0  0  0  0  0  0  0  0
   12.9152    3.3353   -4.5132 H   0  0  0  0  0  0  0  0  0  0  0  0
   13.4054    2.7253   -7.4862 H   0  0  0  0  0  0  0  0  0  0  0  0
   14.1979    3.6193   -6.0879 H   0  0  0  0  0  0  0  0  0  0  0  0
   15.6105    3.9633   -7.7135 H   0  0  0  0  0  0  0  0  0  0  0  0
   14.9461    5.5056   -7.1052 H   0  0  0  0  0  0  0  0  0  0  0  0
   14.1304    6.0626   -9.5731 H   0  0  0  0  0  0  0  0  0  0  0  0
   14.8169    4.5043  -10.1288 H   0  0  0  0  0  0  0  0  0  0  0  0
   16.5369    7.1387   -9.7508 H   0  0  0  0  0  0  0  0  0  0  0  0
   15.9223    6.4575  -11.2073 H   0  0  0  0  0  0  0  0  0  0  0  0
   17.1517    5.5843  -10.3861 H   0  0  0  0  0  0  0  0  0  0  0  0
    6.7428    0.0211   -4.5984 H   0  0  0  0  0  0  0  0  0  0  0  0
    6.3350    2.4355   -3.9178 H   0  0  0  0  0  0  0  0  0  0  0  0
    9.8583    1.7291   -1.3729 H   0  0  0  0  0  0  0  0  0  0  0  0
   10.8312    2.7237   -2.0409 H   0  0  0  0  0  0  0  0  0  0  0  0
   10.7836    1.1370   -2.6043 H   0  0  0  0  0  0  0  0  0  0  0  0
    7.5661    3.3999   -5.5183 H   0  0  0  0  0  0  0  0  0  0  0  0
    9.6311    2.6154   -6.7627 H   0  0  0  0  0  0  0  0  0  0  0  0
    9.9566    5.2406   -7.5974 H   0  0  0  0  0  0  0  0  0  0  0  0
   11.2589    4.0833   -7.6147 H   0  0  0  0  0  0  0  0  0  0  0  0
   11.5351    5.7140   -6.9007 H   0  0  0  0  0  0  0  0  0  0  0  0
  1  2  1  0  0  0  0
  1 22  2  0  0  0  0
  1 23  1  0  0  0  0
  2  3  2  0  0  0  0
  2 24  1  0  0  0  0
  3  4  1  0  0  0  0
  3 25  1  0  0  0  0
  4  5  1  0  0  0  0
  4 11  2  0  0  0  0
  5  6  1  0  0  0  0
  5 21  1  0  0  0  0
  6  7  1  0  0  0  0
  6 26  1  0  0  0  0
  6 27  1  0  0  0  0
  7  8  1  0  0  0  0
  7 28  1  0  0  0  0
  7 29  1  0  0  0  0
  8  9  1  0  0  0  0
  8 30  1  0  0  0  0
  8 31  1  0  0  0  0
  9 10  1  0  0  0  0
  9 32  1  0  0  0  0
  9 33  1  0  0  0  0
 10 34  1  0  0  0  0
 10 35  1  0  0  0  0
 10 36  1  0  0  0  0
 11 12  1  0  0  0  0
 12 13  2  0  0  0  0
 12 37  1  0  0  0  0
 13 14  1  0  0  0  0
 13 38  1  0  0  0  0
 14 15  1  0  0  0  0
 14 16  2  0  0  0  0
 15 39  1  0  0  0  0
 15 40  1  0  0  0  0
 15 41  1  0  0  0  0
 16 17  1  0  0  0  0
 16 42  1  0  0  0  0
 17 18  2  0  0  0  0
 17 43  1  0  0  0  0
 18 19  1  0  0  0  0
 18 20  1  0  0  0  0
 19 44  1  0  0  0  0
 19 45  1  0  0  0  0
 19 46  1  0  0  0  0
 20 21  2  0  0  0  0
 21 22  1  0  0  0  0
M  END
$$$$
