
 OpenBabel04232216533D

228227  0  0  0  0  0  0  0  0999 V2000
   10.5772    5.7135    3.8929 C   0  0  0  0  0  0  0  0  0  0  0  0
   10.1006    4.5332    3.0742 C   0  0  0  0  0  0  0  0  0  0  0  0
   10.6266    4.6382    1.6522 C   0  0  0  0  0  0  0  0  0  0  0  0
   10.1531    3.4548    0.8256 C   0  0  0  0  0  0  0  0  0  0  0  0
   10.6801    3.5597   -0.5988 C   0  0  0  0  0  0  0  0  0  0  0  0
   10.2081    2.3732   -1.4308 C   0  0  0  0  0  0  0  0  0  0  0  0
   10.7251    2.4991   -2.7832 N   0  0  0  0  0  0  0  0  0  0  0  0
   10.2703    1.3852   -3.5389 N   0  0  0  0  0  0  0  0  0  0  0  0
   10.7566    1.5010   -4.8367 N   0  0  0  0  0  0  0  0  0  0  0  0
   10.3245    0.3913   -5.6302 N   0  0  0  0  0  0  0  0  0  0  0  0
   10.8202    0.4801   -6.9608 N   0  0  0  0  0  0  0  0  0  0  0  0
   12.2396    0.4828   -6.9773 N   0  0  0  0  0  0  0  0  0  0  0  0
   12.7094    0.5789   -8.2992 N   0  0  0  0  0  0  0  0  0  0  0  0
   14.1189    0.5882   -8.3023 N   0  0  0  0  0  0  0  0  0  0  0  0
   14.5918    0.6783   -9.6257 N   0  0  0  0  0  0  0  0  0  0  0  0
   15.9962    0.6834   -9.6214 N   0  0  0  0  0  0  0  0  0  0  0  0
   16.4675    0.7726  -10.9515 N   0  0  0  0  0  0  0  0  0  0  0  0
   17.8841    0.7823  -10.9579 N   0  0  0  0  0  0  0  0  0  0  0  0
   18.3815    0.8729  -12.2968 N   0  0  0  0  0  0  0  0  0  0  0  0
   19.8063    0.8842  -12.3086 N   0  0  0  0  0  0  0  0  0  0  0  0
   20.2875    0.9779  -13.6422 N   0  0  0  0  0  0  0  0  0  0  0  0
   21.7067    0.9860  -13.6545 N   0  0  0  0  0  0  0  0  0  0  0  0
   22.1714    1.0817  -14.9971 N   0  0  0  0  0  0  0  0  0  0  0  0
   23.6240    1.0859  -14.9670 C   0  0  0  0  0  0  0  0  0  0  0  0
   24.1370    1.1880  -16.3943 C   0  0  0  0  0  0  0  0  0  0  0  0
   25.6560    1.1926  -16.4027 C   0  0  0  0  0  0  0  0  0  0  0  0
   26.1697    1.2945  -17.8264 C   0  0  0  0  0  0  0  0  0  0  0  0
   27.6863    1.2990  -17.8330 C   0  0  0  0  0  0  0  0  0  0  0  0
   28.1978    1.4009  -19.2567 C   0  0  0  0  0  0  0  0  0  0  0  0
   29.7137    1.4054  -19.2626 C   0  0  0  0  0  0  0  0  0  0  0  0
   30.2247    1.5073  -20.6860 C   0  0  0  0  0  0  0  0  0  0  0  0
   31.7405    1.5118  -20.6918 C   0  0  0  0  0  0  0  0  0  0  0  0
   32.2514    1.6136  -22.1152 C   0  0  0  0  0  0  0  0  0  0  0  0
   33.7671    1.6161  -22.1211 C   0  0  0  0  0  0  0  0  0  0  0  0
   34.2781    1.7180  -23.5445 C   0  0  0  0  0  0  0  0  0  0  0  0
   35.7938    1.7184  -23.5505 C   0  0  0  0  0  0  0  0  0  0  0  0
   36.3047    1.8223  -24.9737 C   0  0  0  0  0  0  0  0  0  0  0  0
   37.8205    1.8207  -24.9799 C   0  0  0  0  0  0  0  0  0  0  0  0
   38.3314    1.9266  -26.4030 C   0  0  0  0  0  0  0  0  0  0  0  0
   39.8471    1.9271  -26.4090 C   0  0  0  0  0  0  0  0  0  0  0  0
   40.3581    2.0350  -27.8320 C   0  0  0  0  0  0  0  0  0  0  0  0
   41.8738    2.0354  -27.8380 C   0  0  0  0  0  0  0  0  0  0  0  0
   42.3847    2.1433  -29.2610 C   0  0  0  0  0  0  0  0  0  0  0  0
   43.9004    2.1438  -29.2670 C   0  0  0  0  0  0  0  0  0  0  0  0
   44.4114    2.2517  -30.6899 C   0  0  0  0  0  0  0  0  0  0  0  0
   45.9271    2.2521  -30.6960 C   0  0  0  0  0  0  0  0  0  0  0  0
   46.4380    2.3600  -32.1189 C   0  0  0  0  0  0  0  0  0  0  0  0
   47.9538    2.3605  -32.1249 C   0  0  0  0  0  0  0  0  0  0  0  0
   48.4647    2.4684  -33.5479 C   0  0  0  0  0  0  0  0  0  0  0  0
   49.9804    2.4708  -33.5537 C   0  0  0  0  0  0  0  0  0  0  0  0
   50.4914    2.5787  -34.9767 C   0  0  0  0  0  0  0  0  0  0  0  0
   52.0071    2.5792  -34.9827 C   0  0  0  0  0  0  0  0  0  0  0  0
   52.5180    2.6891  -36.4055 C   0  0  0  0  0  0  0  0  0  0  0  0
   54.0338    2.6876  -36.4117 C   0  0  0  0  0  0  0  0  0  0  0  0
   54.5447    2.7955  -37.8346 C   0  0  0  0  0  0  0  0  0  0  0  0
   56.0604    2.7959  -37.8407 C   0  0  0  0  0  0  0  0  0  0  0  0
   56.5713    2.9018  -39.2637 C   0  0  0  0  0  0  0  0  0  0  0  0
   58.0871    2.9002  -39.2699 C   0  0  0  0  0  0  0  0  0  0  0  0
   58.5980    3.0061  -40.6930 C   0  0  0  0  0  0  0  0  0  0  0  0
   60.1137    3.0026  -40.6994 C   0  0  0  0  0  0  0  0  0  0  0  0
   60.6247    3.1084  -42.1224 C   0  0  0  0  0  0  0  0  0  0  0  0
   62.1404    3.1049  -42.1288 C   0  0  0  0  0  0  0  0  0  0  0  0
   62.6513    3.2108  -43.5519 C   0  0  0  0  0  0  0  0  0  0  0  0
   64.1670    3.2072  -43.5582 C   0  0  0  0  0  0  0  0  0  0  0  0
   64.6780    3.3131  -44.9813 C   0  0  0  0  0  0  0  0  0  0  0  0
   66.1937    3.3095  -44.9876 C   0  0  0  0  0  0  0  0  0  0  0  0
   66.7046    3.4154  -46.4107 C   0  0  0  0  0  0  0  0  0  0  0  0
   68.2203    3.4119  -46.4171 C   0  0  0  0  0  0  0  0  0  0  0  0
   68.7313    3.5177  -47.8401 C   0  0  0  0  0  0  0  0  0  0  0  0
   70.2470    3.5162  -47.8463 C   0  0  0  0  0  0  0  0  0  0  0  0
   70.7579    3.6221  -49.2694 C   0  0  0  0  0  0  0  0  0  0  0  0
   72.2736    3.6205  -49.2756 C   0  0  0  0  0  0  0  0  0  0  0  0
   72.7846    3.7264  -50.6987 C   0  0  0  0  0  0  0  0  0  0  0  0
   74.3003    3.7249  -50.7049 C   0  0  0  0  0  0  0  0  0  0  0  0
   74.8112    3.8307  -52.1280 C   0  0  0  0  0  0  0  0  0  0  0  0
   76.3269    3.8312  -52.1340 C   0  0  0  0  0  0  0  0  0  0  0  0
   76.8381    3.9371  -53.5571 C   0  0  0  0  0  0  0  0  0  0  0  0
   78.3544    3.9375  -53.5630 C   0  0  0  0  0  0  0  0  0  0  0  0
   78.8662    4.0415  -54.9868 C   0  0  0  0  0  0  0  0  0  0  0  0
   80.3846    4.0442  -54.9971 C   0  0  0  0  0  0  0  0  0  0  0  0
   80.8925    4.1480  -56.4183 C   0  0  0  0  0  0  0  0  0  0  0  0
   10.2004    5.6404    4.9156 H   0  0  0  0  0  0  0  0  0  0  0  0
   10.2198    6.6507    3.4546 H   0  0  0  0  0  0  0  0  0  0  0  0
   11.6711    5.7390    3.9242 H   0  0  0  0  0  0  0  0  0  0  0  0
    9.0050    4.5108    3.0642 H   0  0  0  0  0  0  0  0  0  0  0  0
   10.4519    3.6018    3.5324 H   0  0  0  0  0  0  0  0  0  0  0  0
   11.7230    4.6654    1.6656 H   0  0  0  0  0  0  0  0  0  0  0  0
   10.2753    5.5722    1.1969 H   0  0  0  0  0  0  0  0  0  0  0  0
    9.0568    3.4301    0.8166 H   0  0  0  0  0  0  0  0  0  0  0  0
   10.5050    2.5234    1.2850 H   0  0  0  0  0  0  0  0  0  0  0  0
   11.7765    3.5913   -0.5755 H   0  0  0  0  0  0  0  0  0  0  0  0
   10.3279    4.4984   -1.0451 H   0  0  0  0  0  0  0  0  0  0  0  0
    9.1095    2.3653   -1.4359 H   0  0  0  0  0  0  0  0  0  0  0  0
   10.5550    1.4459   -0.9587 H   0  0  0  0  0  0  0  0  0  0  0  0
   11.7449    2.4881   -2.7630 H   0  0  0  0  0  0  0  0  0  0  0  0
    9.2510    1.3796   -3.5734 H   0  0  0  0  0  0  0  0  0  0  0  0
   11.7810    1.5346   -4.7788 H   0  0  0  0  0  0  0  0  0  0  0  0
    9.3012    0.3720   -5.6642 H   0  0  0  0  0  0  0  0  0  0  0  0
   10.5052    1.3440   -7.4053 H   0  0  0  0  0  0  0  0  0  0  0  0
   12.5893   -0.3775   -6.5645 H   0  0  0  0  0  0  0  0  0  0  0  0
   12.3704    1.4437   -8.7186 H   0  0  0  0  0  0  0  0  0  0  0  0
   14.4693   -0.2701   -7.8799 H   0  0  0  0  0  0  0  0  0  0  0  0
   14.2562    1.5377  -10.0541 H   0  0  0  0  0  0  0  0  0  0  0  0
   16.3003   -0.1749   -9.1620 H   0  0  0  0  0  0  0  0  0  0  0  0
   16.0748    1.6300  -11.3598 H   0  0  0  0  0  0  0  0  0  0  0  0
   18.2308   -0.0761  -10.5108 H   0  0  0  0  0  0  0  0  0  0  0  0
   18.0573    1.7350  -12.7496 H   0  0  0  0  0  0  0  0  0  0  0  0
   20.1675    0.0215  -11.9007 H   0  0  0  0  0  0  0  0  0  0  0  0
   19.9555    1.8418  -14.0686 H   0  0  0  0  0  0  0  0  0  0  0  0
   22.0425    0.1179  -13.2373 H   0  0  0  0  0  0  0  0  0  0  0  0
   21.8365    1.9567  -15.3991 H   0  0  0  0  0  0  0  0  0  0  0  0
   24.0003    0.1601  -14.5159 H   0  0  0  0  0  0  0  0  0  0  0  0
   24.0009    1.9345  -14.3834 H   0  0  0  0  0  0  0  0  0  0  0  0
   23.7667    2.1086  -16.8624 H   0  0  0  0  0  0  0  0  0  0  0  0
   23.7709    0.3398  -16.9865 H   0  0  0  0  0  0  0  0  0  0  0  0
   26.0341    0.2730  -15.9397 H   0  0  0  0  0  0  0  0  0  0  0  0
   26.0291    2.0401  -15.8150 H   0  0  0  0  0  0  0  0  0  0  0  0
   25.7954    2.2144  -18.2914 H   0  0  0  0  0  0  0  0  0  0  0  0
   25.8002    0.4471  -18.4162 H   0  0  0  0  0  0  0  0  0  0  0  0
   28.0625    0.3792  -17.3693 H   0  0  0  0  0  0  0  0  0  0  0  0
   28.0577    2.1466  -17.2445 H   0  0  0  0  0  0  0  0  0  0  0  0
   27.8225    2.3208  -19.7210 H   0  0  0  0  0  0  0  0  0  0  0  0
   27.8272    0.5534  -19.8458 H   0  0  0  0  0  0  0  0  0  0  0  0
   30.0894    0.4855  -18.7985 H   0  0  0  0  0  0  0  0  0  0  0  0
   30.0846    2.2530  -18.6737 H   0  0  0  0  0  0  0  0  0  0  0  0
   29.8492    2.4272  -21.1502 H   0  0  0  0  0  0  0  0  0  0  0  0
   29.8539    0.6597  -21.2750 H   0  0  0  0  0  0  0  0  0  0  0  0
   32.1161    0.5919  -20.2277 H   0  0  0  0  0  0  0  0  0  0  0  0
   32.1113    2.3593  -20.1029 H   0  0  0  0  0  0  0  0  0  0  0  0
   31.8770    2.5342  -22.5789 H   0  0  0  0  0  0  0  0  0  0  0  0
   31.8794    0.7668  -22.7045 H   0  0  0  0  0  0  0  0  0  0  0  0
   34.1415    0.6955  -21.6574 H   0  0  0  0  0  0  0  0  0  0  0  0
   34.1392    2.4629  -21.5318 H   0  0  0  0  0  0  0  0  0  0  0  0
   33.9049    2.6393  -24.0077 H   0  0  0  0  0  0  0  0  0  0  0  0
   33.9049    0.8719  -24.1342 H   0  0  0  0  0  0  0  0  0  0  0  0
   36.1670    0.7964  -23.0886 H   0  0  0  0  0  0  0  0  0  0  0  0
   36.1670    2.5636  -22.9596 H   0  0  0  0  0  0  0  0  0  0  0  0
   35.9327    2.7450  -25.4352 H   0  0  0  0  0  0  0  0  0  0  0  0
   35.9304    0.9779  -25.5650 H   0  0  0  0  0  0  0  0  0  0  0  0
   38.1925    0.8974  -24.5198 H   0  0  0  0  0  0  0  0  0  0  0  0
   38.1948    2.6643  -24.3875 H   0  0  0  0  0  0  0  0  0  0  0  0
   37.9582    2.8493  -26.8636 H   0  0  0  0  0  0  0  0  0  0  0  0
   37.9582    1.0823  -26.9951 H   0  0  0  0  0  0  0  0  0  0  0  0
   40.2203    1.0038  -25.9497 H   0  0  0  0  0  0  0  0  0  0  0  0
   40.2203    2.7706  -25.8158 H   0  0  0  0  0  0  0  0  0  0  0  0
   39.9849    2.9583  -28.2913 H   0  0  0  0  0  0  0  0  0  0  0  0
   39.9849    1.1915  -28.4252 H   0  0  0  0  0  0  0  0  0  0  0  0
   42.2470    1.1121  -27.3787 H   0  0  0  0  0  0  0  0  0  0  0  0
   42.2470    2.8789  -27.2448 H   0  0  0  0  0  0  0  0  0  0  0  0
   42.0115    3.0666  -29.7202 H   0  0  0  0  0  0  0  0  0  0  0  0
   42.0115    1.2998  -29.8542 H   0  0  0  0  0  0  0  0  0  0  0  0
   44.2737    1.2205  -28.8077 H   0  0  0  0  0  0  0  0  0  0  0  0
   44.2737    2.9873  -28.6737 H   0  0  0  0  0  0  0  0  0  0  0  0
   44.0382    3.1750  -31.1492 H   0  0  0  0  0  0  0  0  0  0  0  0
   44.0382    1.4082  -31.2832 H   0  0  0  0  0  0  0  0  0  0  0  0
   46.3003    1.3288  -30.2367 H   0  0  0  0  0  0  0  0  0  0  0  0
   46.3003    3.0956  -30.1027 H   0  0  0  0  0  0  0  0  0  0  0  0
   46.0648    3.2833  -32.5782 H   0  0  0  0  0  0  0  0  0  0  0  0
   46.0648    1.5165  -32.7122 H   0  0  0  0  0  0  0  0  0  0  0  0
   48.3270    1.4372  -31.6656 H   0  0  0  0  0  0  0  0  0  0  0  0
   48.3270    3.2040  -31.5317 H   0  0  0  0  0  0  0  0  0  0  0  0
   48.0903    3.3910  -34.0076 H   0  0  0  0  0  0  0  0  0  0  0  0
   48.0927    1.6241  -34.1408 H   0  0  0  0  0  0  0  0  0  0  0  0
   50.3548    1.5483  -33.0940 H   0  0  0  0  0  0  0  0  0  0  0  0
   50.3525    3.3151  -32.9609 H   0  0  0  0  0  0  0  0  0  0  0  0
   50.1182    3.5020  -35.4360 H   0  0  0  0  0  0  0  0  0  0  0  0
   50.1182    1.7353  -35.5699 H   0  0  0  0  0  0  0  0  0  0  0  0
   52.3803    1.6552  -34.5247 H   0  0  0  0  0  0  0  0  0  0  0  0
   52.3803    3.4218  -34.3883 H   0  0  0  0  0  0  0  0  0  0  0  0
   52.1460    3.6138  -36.8630 H   0  0  0  0  0  0  0  0  0  0  0  0
   52.1436    1.8472  -37.0003 H   0  0  0  0  0  0  0  0  0  0  0  0
   54.4058    1.7635  -35.9529 H   0  0  0  0  0  0  0  0  0  0  0  0
   54.4081    3.5303  -35.8180 H   0  0  0  0  0  0  0  0  0  0  0  0
   54.1715    3.7187  -38.2939 H   0  0  0  0  0  0  0  0  0  0  0  0
   54.1715    1.9520  -38.4279 H   0  0  0  0  0  0  0  0  0  0  0  0
   56.4336    1.8732  -37.3801 H   0  0  0  0  0  0  0  0  0  0  0  0
   56.4336    3.6402  -37.2486 H   0  0  0  0  0  0  0  0  0  0  0  0
   56.1993    3.8251  -39.7239 H   0  0  0  0  0  0  0  0  0  0  0  0
   56.1970    2.0582  -39.8562 H   0  0  0  0  0  0  0  0  0  0  0  0
   58.4591    1.9769  -38.8098 H   0  0  0  0  0  0  0  0  0  0  0  0
   58.4615    3.7438  -38.6775 H   0  0  0  0  0  0  0  0  0  0  0  0
   58.2271    3.9302  -41.1527 H   0  0  0  0  0  0  0  0  0  0  0  0
   58.2225    2.1633  -41.2858 H   0  0  0  0  0  0  0  0  0  0  0  0
   60.4846    2.0785  -40.2397 H   0  0  0  0  0  0  0  0  0  0  0  0
   60.4893    3.8453  -40.1066 H   0  0  0  0  0  0  0  0  0  0  0  0
   60.2538    4.0325  -42.5821 H   0  0  0  0  0  0  0  0  0  0  0  0
   60.2491    2.2657  -42.7152 H   0  0  0  0  0  0  0  0  0  0  0  0
   62.5112    2.1808  -41.6691 H   0  0  0  0  0  0  0  0  0  0  0  0
   62.5159    3.9477  -41.5360 H   0  0  0  0  0  0  0  0  0  0  0  0
   62.2805    4.1348  -44.0115 H   0  0  0  0  0  0  0  0  0  0  0  0
   62.2758    2.3680  -44.1447 H   0  0  0  0  0  0  0  0  0  0  0  0
   64.5379    2.2831  -43.0986 H   0  0  0  0  0  0  0  0  0  0  0  0
   64.5426    4.0500  -42.9654 H   0  0  0  0  0  0  0  0  0  0  0  0
   64.3071    4.2372  -45.4409 H   0  0  0  0  0  0  0  0  0  0  0  0
   64.3024    2.4703  -45.5741 H   0  0  0  0  0  0  0  0  0  0  0  0
   66.5645    2.3855  -44.5280 H   0  0  0  0  0  0  0  0  0  0  0  0
   66.5692    4.1523  -44.3948 H   0  0  0  0  0  0  0  0  0  0  0  0
   66.3338    4.3395  -46.8704 H   0  0  0  0  0  0  0  0  0  0  0  0
   66.3291    2.5726  -47.0035 H   0  0  0  0  0  0  0  0  0  0  0  0
   68.5912    2.4878  -45.9574 H   0  0  0  0  0  0  0  0  0  0  0  0
   68.5959    4.2546  -45.8243 H   0  0  0  0  0  0  0  0  0  0  0  0
   68.3592    4.4411  -48.3003 H   0  0  0  0  0  0  0  0  0  0  0  0
   68.3569    2.6742  -48.4326 H   0  0  0  0  0  0  0  0  0  0  0  0
   70.6190    2.5928  -47.3862 H   0  0  0  0  0  0  0  0  0  0  0  0
   70.6214    4.3597  -47.2539 H   0  0  0  0  0  0  0  0  0  0  0  0
   70.3859    4.5454  -49.7295 H   0  0  0  0  0  0  0  0  0  0  0  0
   70.3835    2.7785  -49.8619 H   0  0  0  0  0  0  0  0  0  0  0  0
   72.6457    2.6972  -48.8155 H   0  0  0  0  0  0  0  0  0  0  0  0
   72.6480    4.4641  -48.6832 H   0  0  0  0  0  0  0  0  0  0  0  0
   72.4126    4.6498  -51.1588 H   0  0  0  0  0  0  0  0  0  0  0  0
   72.4102    2.8829  -51.2911 H   0  0  0  0  0  0  0  0  0  0  0  0
   74.6723    2.8015  -50.2448 H   0  0  0  0  0  0  0  0  0  0  0  0
   74.6747    4.5684  -50.1124 H   0  0  0  0  0  0  0  0  0  0  0  0
   74.4380    4.7534  -52.5886 H   0  0  0  0  0  0  0  0  0  0  0  0
   74.4380    2.9864  -52.7200 H   0  0  0  0  0  0  0  0  0  0  0  0
   76.7001    2.9086  -51.6734 H   0  0  0  0  0  0  0  0  0  0  0  0
   76.7001    4.6755  -51.5419 H   0  0  0  0  0  0  0  0  0  0  0  0
   76.4648    4.8597  -54.0177 H   0  0  0  0  0  0  0  0  0  0  0  0
   76.4648    3.0928  -54.1491 H   0  0  0  0  0  0  0  0  0  0  0  0
   78.7271    3.0155  -53.1009 H   0  0  0  0  0  0  0  0  0  0  0  0
   78.7271    4.7828  -52.9719 H   0  0  0  0  0  0  0  0  0  0  0  0
   78.4901    4.9626  -55.4487 H   0  0  0  0  0  0  0  0  0  0  0  0
   78.4924    3.1956  -55.5768 H   0  0  0  0  0  0  0  0  0  0  0  0
   80.7607    3.1233  -54.5373 H   0  0  0  0  0  0  0  0  0  0  0  0
   80.7583    4.8902  -54.4092 H   0  0  0  0  0  0  0  0  0  0  0  0
   80.5381    3.2997  -57.0124 H   0  0  0  0  0  0  0  0  0  0  0  0
   81.9848    4.1502  -56.4294 H   0  0  0  0  0  0  0  0  0  0  0  0
   80.5357    5.0721  -56.8839 H   0  0  0  0  0  0  0  0  0  0  0  0
  1  2  1  0  0  0  0
  1 82  1  0  0  0  0
  1 83  1  0  0  0  0
  1 84  1  0  0  0  0
  2  3  1  0  0  0  0
  2 85  1  0  0  0  0
  2 86  1  0  0  0  0
  3  4  1  0  0  0  0
  3 87  1  0  0  0  0
  3 88  1  0  0  0  0
  4  5  1  0  0  0  0
  4 89  1  0  0  0  0
  4 90  1  0  0  0  0
  5  6  1  0  0  0  0
  5 91  1  0  0  0  0
  5 92  1  0  0  0  0
  6  7  1  0  0  0  0
  6 93  1  0  0  0  0
  6 94  1  0  0  0  0
  7  8  1  0  0  0  0
  7 95  1  0  0  0  0
  8  9  1  0  0  0  0
  8 96  1  0  0  0  0
  9 10  1  0  0  0  0
  9 97  1  0  0  0  0
 10 11  1  0  0  0  0
 10 98  1  0  0  0  0
 11 12  1  0  0  0  0
 11 99  1  0  0  0  0
 12 13  1  0  0  0  0
 12100  1  0  0  0  0
 13 14  1  0  0  0  0
 13101  1  0  0  0  0
 14 15  1  0  0  0  0
 14102  1  0  0  0  0
 15 16  1  0  0  0  0
 15103  1  0  0  0  0
 16 17  1  0  0  0  0
 16104  1  0  0  0  0
 17 18  1  0  0  0  0
 17105  1  0  0  0  0
 18 19  1  0  0  0  0
 18106  1  0  0  0  0
 19 20  1  0  0  0  0
 19107  1  0  0  0  0
 20 21  1  0  0  0  0
 20108  1  0  0  0  0
 21 22  1  0  0  0  0
 21109  1  0  0  0  0
 22 23  1  0  0  0  0
 22110  1  0  0  0  0
 23 24  1  0  0  0  0
 23111  1  0  0  0  0
 24 25  1  0  0  0  0
 24112  1  0  0  0  0
 24113  1  0  0  0  0
 25 26  1  0  0  0  0
 25114  1  0  0  0  0
 25115  1  0  0  0  0
 26 27  1  0  0  0  0
 26116  1  0  0  0  0
 26117  1  0  0  0  0
 27 28  1  0  0  0  0
 27118  1  0  0  0  0
 27119  1  0  0  0  0
 28 29  1  0  0  0  0
 28120  1  0  0  0  0
 28121  1  0  0  0  0
 29 30  1  0  0  0  0
 29122  1  0  0  0  0
 29123  1  0  0  0  0
 30 31  1  0  0  0  0
 30124  1  0  0  0  0
 30125  1  0  0  0  0
 31 32  1  0  0  0  0
 31126  1  0  0  0  0
 31127  1  0  0  0  0
 32 33  1  0  0  0  0
 32128  1  0  0  0  0
 32129  1  0  0  0  0
 33 34  1  0  0  0  0
 33130  1  0  0  0  0
 33131  1  0  0  0  0
 34 35  1  0  0  0  0
 34132  1  0  0  0  0
 34133  1  0  0  0  0
 35 36  1  0  0  0  0
 35134  1  0  0  0  0
 35135  1  0  0  0  0
 36 37  1  0  0  0  0
 36136  1  0  0  0  0
 36137  1  0  0  0  0
 37 38  1  0  0  0  0
 37138  1  0  0  0  0
 37139  1  0  0  0  0
 38 39  1  0  0  0  0
 38140  1  0  0  0  0
 38141  1  0  0  0  0
 39 40  1  0  0  0  0
 39142  1  0  0  0  0
 39143  1  0  0  0  0
 40 41  1  0  0  0  0
 40144  1  0  0  0  0
 40145  1  0  0  0  0
 41 42  1  0  0  0  0
 41146  1  0  0  0  0
 41147  1  0  0  0  0
 42 43  1  0  0  0  0
 42148  1  0  0  0  0
 42149  1  0  0  0  0
 43 44  1  0  0  0  0
 43150  1  0  0  0  0
 43151  1  0  0  0  0
 44 45  1  0  0  0  0
 44152  1  0  0  0  0
 44153  1  0  0  0  0
 45 46  1  0  0  0  0
 45154  1  0  0  0  0
 45155  1  0  0  0  0
 46 47  1  0  0  0  0
 46156  1  0  0  0  0
 46157  1  0  0  0  0
 47 48  1  0  0  0  0
 47158  1  0  0  0  0
 47159  1  0  0  0  0
 48 49  1  0  0  0  0
 48160  1  0  0  0  0
 48161  1  0  0  0  0
 49 50  1  0  0  0  0
 49162  1  0  0  0  0
 49163  1  0  0  0  0
 50 51  1  0  0  0  0
 50164  1  0  0  0  0
 50165  1  0  0  0  0
 51 52  1  0  0  0  0
 51166  1  0  0  0  0
 51167  1  0  0  0  0
 52 53  1  0  0  0  0
 52168  1  0  0  0  0
 52169  1  0  0  0  0
 53 54  1  0  0  0  0
 53170  1  0  0  0  0
 53171  1  0  0  0  0
 54 55  1  0  0  0  0
 54172  1  0  0  0  0
 54173  1  0  0  0  0
 55 56  1  0  0  0  0
 55174  1  0  0  0  0
 55175  1  0  0  0  0
 56 57  1  0  0  0  0
 56176  1  0  0  0  0
 56177  1  0  0  0  0
 57 58  1  0  0  0  0
 57178  1  0  0  0  0
 57179  1  0  0  0  0
 58 59  1  0  0  0  0
 58180  1  0  0  0  0
 58181  1  0  0  0  0
 59 60  1  0  0  0  0
 59182  1  0  0  0  0
 59183  1  0  0  0  0
 60 61  1  0  0  0  0
 60184  1  0  0  0  0
 60185  1  0  0  0  0
 61 62  1  0  0  0  0
 61186  1  0  0  0  0
 61187  1  0  0  0  0
 62 63  1  0  0  0  0
 62188  1  0  0  0  0
 62189  1  0  0  0  0
 63 64  1  0  0  0  0
 63190  1  0  0  0  0
 63191  1  0  0  0  0
 64 65  1  0  0  0  0
 64192  1  0  0  0  0
 64193  1  0  0  0  0
 65 66  1  0  0  0  0
 65194  1  0  0  0  0
 65195  1  0  0  0  0
 66 67  1  0  0  0  0
 66196  1  0  0  0  0
 66197  1  0  0  0  0
 67 68  1  0  0  0  0
 67198  1  0  0  0  0
 67199  1  0  0  0  0
 68 69  1  0  0  0  0
 68200  1  0  0  0  0
 68201  1  0  0  0  0
 69 70  1  0  0  0  0
 69202  1  0  0  0  0
 69203  1  0  0  0  0
 70 71  1  0  0  0  0
 70204  1  0  0  0  0
 70205  1  0  0  0  0
 71 72  1  0  0  0  0
 71206  1  0  0  0  0
 71207  1  0  0  0  0
 72 73  1  0  0  0  0
 72208  1  0  0  0  0
 72209  1  0  0  0  0
 73 74  1  0  0  0  0
 73210  1  0  0  0  0
 73211  1  0  0  0  0
 74 75  1  0  0  0  0
 74212  1  0  0  0  0
 74213  1  0  0  0  0
 75 76  1  0  0  0  0
 75214  1  0  0  0  0
 75215  1  0  0  0  0
 76 77  1  0  0  0  0
 76216  1  0  0  0  0
 76217  1  0  0  0  0
 77 78  1  0  0  0  0
 77218  1  0  0  0  0
 77219  1  0  0  0  0
 78 79  1  0  0  0  0
 78220  1  0  0  0  0
 78221  1  0  0  0  0
 79 80  1  0  0  0  0
 79222  1  0  0  0  0
 79223  1  0  0  0  0
 80 81  1  0  0  0  0
 80224  1  0  0  0  0
 80225  1  0  0  0  0
 81226  1  0  0  0  0
 81227  1  0  0  0  0
 81228  1  0  0  0  0
M  END
$$$$
