
 OpenBabel04232216453D

 38 39  0  0  0  0  0  0  0  0999 V2000
    6.7307    3.9031    0.5162 C   0  0  0  0  0  0  0  0  0  0  0  0
    7.6168    3.1976    1.5323 C   0  0  0  0  0  0  0  0  0  0  0  0
    6.9341    2.1449    2.0637 C   0  0  0  0  0  0  0  0  0  0  0  0
    6.1265    0.9653    1.6453 C   0  0  0  0  0  0  0  0  0  0  0  0
    6.0165    0.5007    0.2145 C   0  0  0  0  0  0  0  0  0  0  0  0
    6.0614   -0.0640    2.5513 C   0  0  0  0  0  0  0  0  0  0  0  0
    7.3879   -0.5172    3.0585 C   0  0  0  0  0  0  0  0  0  0  0  0
    7.8633    0.0225    4.2102 C   0  0  0  0  0  0  0  0  0  0  0  0
    6.9966    0.4205    5.1624 F   0  0  0  0  0  0  0  0  0  0  0  0
    9.0005    0.8945    3.9928 C   0  0  0  0  0  0  0  0  0  0  0  0
    8.8536    2.2381    4.1472 C   0  0  0  0  0  0  0  0  0  0  0  0
    8.0525    3.0739    5.1050 C   0  0  0  0  0  0  0  0  0  0  0  0
    9.5709    3.0616    3.1952 C   0  0  0  0  0  0  0  0  0  0  0  0
   10.5165    3.6051    3.9267 C   0  0  0  0  0  0  0  0  0  0  0  0
   11.7632    3.0363    4.2660 C   0  0  0  0  0  0  0  0  0  0  0  0
   12.6706    3.9996    4.3735 C   0  0  0  0  0  0  0  0  0  0  0  0
   13.1174    4.1747    5.6497 F   0  0  0  0  0  0  0  0  0  0  0  0
   12.6407    5.1815    3.6350 N   0  0  0  0  0  0  0  0  0  0  0  0
   11.8561    5.5938    2.6555 C   0  0  0  0  0  0  0  0  0  0  0  0
   10.7610    5.3501    1.8001 N   0  0  0  0  0  0  0  0  0  0  0  0
    9.6175    4.8422    1.5308 N   0  0  0  0  0  0  0  0  0  0  0  0
    8.8614    3.8165    2.2106 N   0  0  0  0  0  0  0  0  0  0  0  0
    6.9216    3.5907   -0.5122 H   0  0  0  0  0  0  0  0  0  0  0  0
    6.7105    4.9890    0.6166 H   0  0  0  0  0  0  0  0  0  0  0  0
    5.6735    3.6128    0.7040 H   0  0  0  0  0  0  0  0  0  0  0  0
    6.6205    2.3752    3.0796 H   0  0  0  0  0  0  0  0  0  0  0  0
    4.9572    0.4571   -0.0677 H   0  0  0  0  0  0  0  0  0  0  0  0
    6.4046   -0.5235    0.1008 H   0  0  0  0  0  0  0  0  0  0  0  0
    6.5489    1.1254   -0.5016 H   0  0  0  0  0  0  0  0  0  0  0  0
    5.4616    0.1429    3.4443 H   0  0  0  0  0  0  0  0  0  0  0  0
    8.0910   -0.6975    2.2384 H   0  0  0  0  0  0  0  0  0  0  0  0
    9.7146    0.5449    3.2372 H   0  0  0  0  0  0  0  0  0  0  0  0
    6.9779    2.9144    5.0608 H   0  0  0  0  0  0  0  0  0  0  0  0
    8.1875    4.1530    4.9028 H   0  0  0  0  0  0  0  0  0  0  0  0
    8.4331    2.9336    6.1192 H   0  0  0  0  0  0  0  0  0  0  0  0
   10.3750    4.6549    4.1739 H   0  0  0  0  0  0  0  0  0  0  0  0
   12.0761    2.0790    3.8636 H   0  0  0  0  0  0  0  0  0  0  0  0
   12.3207    6.5580    2.3368 H   0  0  0  0  0  0  0  0  0  0  0  0
  1  2  1  0  0  0  0
  1 23  1  0  0  0  0
  1 24  1  0  0  0  0
  1 25  1  0  0  0  0
  2  3  2  3  0  0  0
  2 22  1  0  0  0  0
  3  4  1  0  0  0  0
  3 26  1  0  0  0  0
  4  5  1  0  0  0  0
  4  6  2  3  0  0  0
  5 27  1  0  0  0  0
  5 28  1  0  0  0  0
  5 29  1  0  0  0  0
  6  7  1  0  0  0  0
  6 30  1  0  0  0  0
  7  8  2  3  0  0  0
  7 31  1  0  0  0  0
  8  9  1  0  0  0  0
  8 10  1  0  0  0  0
 10 11  2  3  0  0  0
 10 32  1  0  0  0  0
 11 12  1  0  0  0  0
 11 13  1  0  0  0  0
 12 33  1  0  0  0  0
 12 34  1  0  0  0  0
 12 35  1  0  0  0  0
 13 14  2  0  0  0  0
 13 22  1  0  0  0  0
 14 15  1  0  0  0  0
 14 36  1  0  0  0  0
 15 16  2  0  0  0  0
 15 37  1  0  0  0  0
 16 17  1  0  0  0  0
 16 18  1  0  0  0  0
 18 19  2  0  0  0  0
 19 20  1  0  0  0  0
 19 38  1  0  0  0  0
 20 21  2  0  0  0  0
 21 22  1  0  0  0  0
M  END
$$$$
