
 OpenBabel04232216493D

 65 66  0  0  1  0  0  0  0  0999 V2000
    0.8003   -0.0240   -0.2030 C   0  0  0  0  0  0  0  0  0  0  0  0
    2.3304   -0.0224   -0.1490 C   0  0  3  0  0  0  0  0  0  0  0  0
    2.8631   -1.3908   -0.5967 C   0  0  0  0  0  0  0  0  0  0  0  0
    4.3855   -1.5243   -0.6062 C   0  0  0  0  0  0  0  0  0  0  0  0
    5.0360   -0.7499   -1.7509 C   0  0  0  0  0  0  0  0  0  0  0  0
    5.3895    0.7086   -1.4220 C   0  0  3  0  0  0  0  0  0  0  0  0
    6.7470    0.7647   -0.6916 C   0  0  0  0  0  0  0  0  0  0  0  0
    7.1754    2.1868   -0.3308 C   0  0  0  0  0  0  0  0  0  0  0  0
    8.5194    2.1711    0.3762 C   0  0  0  0  0  0  0  0  0  0  0  0
    8.9622    3.5873    0.7407 C   0  0  0  0  0  0  0  0  0  0  0  0
   10.3158    3.6045    1.4485 C   0  0  0  0  0  0  0  0  0  0  0  0
   11.4110    3.0207    0.5642 C   0  0  0  0  0  0  0  0  0  0  0  0
   12.7724    3.0363    1.2396 C   0  0  0  0  0  0  0  0  0  0  0  0
   13.8279    2.4669    0.3107 C   0  0  0  0  0  0  0  0  0  0  0  0
   13.5319    2.0597   -0.8118 O   0  0  0  0  0  0  0  0  0  0  0  0
   15.1950    2.4729    0.8747 C   0  0  0  0  0  0  0  0  0  0  0  0
   16.3620    2.3313    0.2192 C   0  0  0  0  0  0  0  0  0  0  0  0
   16.8032    2.2017   -1.0056 N   0  0  0  0  0  0  0  0  0  0  0  0
   16.4730    3.1772   -2.0470 C   0  0  0  0  0  0  0  0  0  0  0  0
   17.5450    4.2603   -2.0927 C   0  0  0  0  0  0  0  0  0  0  0  0
   17.2249    5.2562   -3.1677 C   0  0  0  0  0  0  0  0  0  0  0  0
   17.9820    5.5046   -4.1008 O   0  0  0  0  0  0  0  0  0  0  0  0
   17.1467    2.3880    1.5428 C   0  0  0  0  0  0  0  0  0  0  0  0
   15.7867    2.5460    2.2470 C   0  0  0  0  0  0  0  0  0  0  0  0
    4.3192    1.4807   -0.6345 C   0  0  0  0  0  0  0  0  0  0  0  0
    2.8716    1.1534   -0.9765 C   0  0  0  0  0  0  0  0  0  0  0  0
    0.3892   -0.8401    0.4001 H   0  0  0  0  0  0  0  0  0  0  0  0
    0.4387   -0.1401   -1.2305 H   0  0  0  0  0  0  0  0  0  0  0  0
    0.3987    0.9150    0.1939 H   0  0  0  0  0  0  0  0  0  0  0  0
    2.6131    0.1260    0.9016 H   0  0  0  0  0  0  0  0  0  0  0  0
    2.4715   -1.6355   -1.5925 H   0  0  0  0  0  0  0  0  0  0  0  0
    2.4642   -2.1553    0.0825 H   0  0  0  0  0  0  0  0  0  0  0  0
    4.6211   -2.5868   -0.7448 H   0  0  0  0  0  0  0  0  0  0  0  0
    4.8060   -1.2408    0.3652 H   0  0  0  0  0  0  0  0  0  0  0  0
    4.3841   -0.7741   -2.6331 H   0  0  0  0  0  0  0  0  0  0  0  0
    5.9502   -1.2764   -2.0555 H   0  0  0  0  0  0  0  0  0  0  0  0
    5.5247    1.2215   -2.3848 H   0  0  0  0  0  0  0  0  0  0  0  0
    7.5167    0.3119   -1.3318 H   0  0  0  0  0  0  0  0  0  0  0  0
    6.7073    0.1582    0.2216 H   0  0  0  0  0  0  0  0  0  0  0  0
    6.4437    2.6600    0.3323 H   0  0  0  0  0  0  0  0  0  0  0  0
    7.2391    2.7942   -1.2416 H   0  0  0  0  0  0  0  0  0  0  0  0
    9.2419    1.6934   -0.2926 H   0  0  0  0  0  0  0  0  0  0  0  0
    8.4618    1.5590    1.2849 H   0  0  0  0  0  0  0  0  0  0  0  0
    8.2136    4.0495    1.3955 H   0  0  0  0  0  0  0  0  0  0  0  0
    9.0147    4.2029   -0.1658 H   0  0  0  0  0  0  0  0  0  0  0  0
   10.2494    3.0421    2.3872 H   0  0  0  0  0  0  0  0  0  0  0  0
   10.5653    4.6397    1.7101 H   0  0  0  0  0  0  0  0  0  0  0  0
   11.4527    3.5784   -0.3802 H   0  0  0  0  0  0  0  0  0  0  0  0
   11.1827    1.9810    0.3084 H   0  0  0  0  0  0  0  0  0  0  0  0
   12.7415    2.4341    2.1557 H   0  0  0  0  0  0  0  0  0  0  0  0
   13.0525    4.0630    1.4961 H   0  0  0  0  0  0  0  0  0  0  0  0
   17.6843    1.7170   -1.1960 H   0  0  0  0  0  0  0  0  0  0  0  0
   15.4878    3.6298   -1.8781 H   0  0  0  0  0  0  0  0  0  0  0  0
   16.4170    2.6614   -3.0124 H   0  0  0  0  0  0  0  0  0  0  0  0
   18.5298    3.8225   -2.2920 H   0  0  0  0  0  0  0  0  0  0  0  0
   17.6063    4.7990   -1.1409 H   0  0  0  0  0  0  0  0  0  0  0  0
   16.2719    5.8011   -3.0551 H   0  0  0  0  0  0  0  0  0  0  0  0
   17.8093    3.2520    1.6603 H   0  0  0  0  0  0  0  0  0  0  0  0
   17.6994    1.4827    1.8185 H   0  0  0  0  0  0  0  0  0  0  0  0
   15.6517    3.5008    2.7744 H   0  0  0  0  0  0  0  0  0  0  0  0
   15.5329    1.7375    2.9289 H   0  0  0  0  0  0  0  0  0  0  0  0
    4.4704    2.5509   -0.8314 H   0  0  0  0  0  0  0  0  0  0  0  0
    4.4750    1.3524    0.4447 H   0  0  0  0  0  0  0  0  0  0  0  0
    2.7474    0.9802   -2.0518 H   0  0  0  0  0  0  0  0  0  0  0  0
    2.2774    2.0456   -0.7379 H   0  0  0  0  0  0  0  0  0  0  0  0
  1  2  1  0  0  0  0
  1 27  1  0  0  0  0
  1 28  1  0  0  0  0
  1 29  1  0  0  0  0
  2  3  1  0  0  0  0
  2 26  1  0  0  0  0
  2 30  1  0  0  0  0
  3  4  1  0  0  0  0
  3 31  1  0  0  0  0
  3 32  1  0  0  0  0
  4  5  1  0  0  0  0
  4 33  1  0  0  0  0
  4 34  1  0  0  0  0
  5  6  1  0  0  0  0
  5 35  1  0  0  0  0
  5 36  1  0  0  0  0
  6  7  1  0  0  0  0
  6 25  1  0  0  0  0
  6 37  1  0  0  0  0
  7  8  1  0  0  0  0
  7 38  1  0  0  0  0
  7 39  1  0  0  0  0
  8  9  1  0  0  0  0
  8 40  1  0  0  0  0
  8 41  1  0  0  0  0
  9 10  1  0  0  0  0
  9 42  1  0  0  0  0
  9 43  1  0  0  0  0
 10 11  1  0  0  0  0
 10 44  1  0  0  0  0
 10 45  1  0  0  0  0
 11 12  1  0  0  0  0
 11 46  1  0  0  0  0
 11 47  1  0  0  0  0
 12 13  1  0  0  0  0
 12 48  1  0  0  0  0
 12 49  1  0  0  0  0
 13 14  1  0  0  0  0
 13 50  1  0  0  0  0
 13 51  1  0  0  0  0
 14 15  2  0  0  0  0
 14 16  1  0  0  0  0
 16 17  2  0  0  0  0
 16 24  1  0  0  0  0
 17 18  1  0  0  0  0
 17 23  1  0  0  0  0
 18 19  1  0  0  0  0
 18 52  1  0  0  0  0
 19 20  1  0  0  0  0
 19 53  1  0  0  0  0
 19 54  1  0  0  0  0
 20 21  1  0  0  0  0
 20 55  1  0  0  0  0
 20 56  1  0  0  0  0
 21 22  2  0  0  0  0
 21 57  1  0  0  0  0
 23 24  1  0  0  0  0
 23 58  1  0  0  0  0
 23 59  1  0  0  0  0
 24 60  1  0  0  0  0
 24 61  1  0  0  0  0
 25 26  1  0  0  0  0
 25 62  1  0  0  0  0
 25 63  1  0  0  0  0
 26 64  1  0  0  0  0
 26 65  1  0  0  0  0
M  END
$$$$
