
 OpenBabel04232216403D

218217  0  0  0  0  0  0  0  0999 V2000
    1.5798   -0.1159    1.0895 C   0  0  0  0  0  0  0  0  0  0  0  0
    2.4299    0.0102    0.0628 C   0  0  0  0  0  0  0  0  0  0  0  0
    3.2084    1.2700   -0.1697 C   0  0  0  0  0  0  0  0  0  0  0  0
    4.7092    1.0104   -0.1280 C   0  0  0  0  0  0  0  0  0  0  0  0
    5.4296    2.2674   -0.3587 N   0  0  0  0  0  0  0  0  0  0  0  0
    6.8231    1.9991   -0.3153 N   0  0  0  0  0  0  0  0  0  0  0  0
    7.5593    3.2034   -0.5334 N   0  0  0  0  0  0  0  0  0  0  0  0
    8.9385    2.9475   -0.4916 N   0  0  0  0  0  0  0  0  0  0  0  0
    9.6339    4.1535   -0.7091 N   0  0  0  0  0  0  0  0  0  0  0  0
   11.0301    3.9163   -0.6664 N   0  0  0  0  0  0  0  0  0  0  0  0
   11.7412    5.1085   -0.8866 N   0  0  0  0  0  0  0  0  0  0  0  0
   13.1299    4.8563   -0.8450 N   0  0  0  0  0  0  0  0  0  0  0  0
   13.8292    6.0559   -1.0646 N   0  0  0  0  0  0  0  0  0  0  0  0
   15.2254    5.8027   -1.0226 N   0  0  0  0  0  0  0  0  0  0  0  0
   15.9494    7.0069   -1.2452 N   0  0  0  0  0  0  0  0  0  0  0  0
   17.3534    6.7722   -1.2002 N   0  0  0  0  0  0  0  0  0  0  0  0
   18.0624    7.9753   -1.4202 N   0  0  0  0  0  0  0  0  0  0  0  0
   19.4617    7.7269   -1.3787 N   0  0  0  0  0  0  0  0  0  0  0  0
   20.1790    8.9268   -1.5998 N   0  0  0  0  0  0  0  0  0  0  0  0
   21.5590    8.6727   -1.5530 N   0  0  0  0  0  0  0  0  0  0  0  0
   22.2779    9.8776   -1.7733 N   0  0  0  0  0  0  0  0  0  0  0  0
   23.6707    9.6331   -1.7310 N   0  0  0  0  0  0  0  0  0  0  0  0
   24.3867   10.8369   -1.9533 N   0  0  0  0  0  0  0  0  0  0  0  0
   25.7788   10.5902   -1.9122 N   0  0  0  0  0  0  0  0  0  0  0  0
   26.4924   11.7892   -2.1333 N   0  0  0  0  0  0  0  0  0  0  0  0
   27.8923   11.5256   -2.0911 N   0  0  0  0  0  0  0  0  0  0  0  0
   28.6009   12.7773   -2.3220 C   0  0  0  0  0  0  0  0  0  0  0  0
   30.0990   12.5104   -2.2799 C   0  0  0  0  0  0  0  0  0  0  0  0
   30.8685   13.7999   -2.5175 C   0  0  0  0  0  0  0  0  0  0  0  0
   32.3622   13.5342   -2.4756 C   0  0  0  0  0  0  0  0  0  0  0  0
   33.1266   14.8227   -2.7131 C   0  0  0  0  0  0  0  0  0  0  0  0
   34.6185   14.5553   -2.6708 C   0  0  0  0  0  0  0  0  0  0  0  0
   35.3818   15.8437   -2.9063 C   0  0  0  0  0  0  0  0  0  0  0  0
   36.8733   15.5760   -2.8640 C   0  0  0  0  0  0  0  0  0  0  0  0
   37.6364   16.8643   -3.0995 C   0  0  0  0  0  0  0  0  0  0  0  0
   39.1278   16.5966   -3.0571 C   0  0  0  0  0  0  0  0  0  0  0  0
   39.8909   17.8852   -3.2906 C   0  0  0  0  0  0  0  0  0  0  0  0
   41.3822   17.6178   -3.2463 C   0  0  0  0  0  0  0  0  0  0  0  0
   42.1454   18.9061   -3.4817 C   0  0  0  0  0  0  0  0  0  0  0  0
   43.6367   18.6391   -3.4354 C   0  0  0  0  0  0  0  0  0  0  0  0
   44.3998   19.9277   -3.6689 C   0  0  0  0  0  0  0  0  0  0  0  0
   45.8911   19.6611   -3.6206 C   0  0  0  0  0  0  0  0  0  0  0  0
   46.6542   20.9497   -3.8541 C   0  0  0  0  0  0  0  0  0  0  0  0
   48.1455   20.6830   -3.8058 C   0  0  0  0  0  0  0  0  0  0  0  0
   48.9086   21.9716   -4.0393 C   0  0  0  0  0  0  0  0  0  0  0  0
   50.3999   21.7050   -3.9909 C   0  0  0  0  0  0  0  0  0  0  0  0
   51.1630   22.9936   -4.2244 C   0  0  0  0  0  0  0  0  0  0  0  0
   52.6543   22.7273   -4.1741 C   0  0  0  0  0  0  0  0  0  0  0  0
   53.4174   24.0163   -4.4057 C   0  0  0  0  0  0  0  0  0  0  0  0
   54.9087   23.7496   -4.3573 C   0  0  0  0  0  0  0  0  0  0  0  0
   55.6718   25.0386   -4.5889 C   0  0  0  0  0  0  0  0  0  0  0  0
   57.1631   24.7723   -4.5386 C   0  0  0  0  0  0  0  0  0  0  0  0
   57.9262   26.0616   -4.7681 C   0  0  0  0  0  0  0  0  0  0  0  0
   59.4175   25.7950   -4.7198 C   0  0  0  0  0  0  0  0  0  0  0  0
   60.1806   27.0840   -4.9513 C   0  0  0  0  0  0  0  0  0  0  0  0
   61.6719   26.8170   -4.9050 C   0  0  0  0  0  0  0  0  0  0  0  0
   62.4350   28.1063   -5.1345 C   0  0  0  0  0  0  0  0  0  0  0  0
   63.9263   27.8393   -5.0882 C   0  0  0  0  0  0  0  0  0  0  0  0
   64.6894   29.1283   -5.3197 C   0  0  0  0  0  0  0  0  0  0  0  0
   66.1807   28.8613   -5.2734 C   0  0  0  0  0  0  0  0  0  0  0  0
   66.9438   30.1502   -5.5049 C   0  0  0  0  0  0  0  0  0  0  0  0
   68.4351   29.8832   -5.4585 C   0  0  0  0  0  0  0  0  0  0  0  0
   69.1982   31.1722   -5.6901 C   0  0  0  0  0  0  0  0  0  0  0  0
   70.6895   30.9052   -5.6437 C   0  0  0  0  0  0  0  0  0  0  0  0
   71.4526   32.1942   -5.8752 C   0  0  0  0  0  0  0  0  0  0  0  0
   72.9439   31.9272   -5.8289 C   0  0  0  0  0  0  0  0  0  0  0  0
   73.7070   33.2162   -6.0604 C   0  0  0  0  0  0  0  0  0  0  0  0
   75.1983   32.9492   -6.0141 C   0  0  0  0  0  0  0  0  0  0  0  0
   75.9614   34.2378   -6.2476 C   0  0  0  0  0  0  0  0  0  0  0  0
   77.4527   33.9708   -6.2013 C   0  0  0  0  0  0  0  0  0  0  0  0
   78.2158   35.2594   -6.4348 C   0  0  0  0  0  0  0  0  0  0  0  0
   79.7071   34.9924   -6.3884 C   0  0  0  0  0  0  0  0  0  0  0  0
   80.4702   36.2810   -6.6219 C   0  0  0  0  0  0  0  0  0  0  0  0
   81.9616   36.0142   -6.5756 C   0  0  0  0  0  0  0  0  0  0  0  0
   82.7248   37.3025   -6.8111 C   0  0  0  0  0  0  0  0  0  0  0  0
   84.2163   37.0355   -6.7648 C   0  0  0  0  0  0  0  0  0  0  0  0
   84.9796   38.3245   -7.0004 C   0  0  0  0  0  0  0  0  0  0  0  0
   86.4719   38.0593   -6.9523 C   0  0  0  0  0  0  0  0  0  0  0  0
   87.2401   39.3482   -7.1859 C   0  0  0  0  0  0  0  0  0  0  0  0
   88.7281   39.0793   -7.1372 C   0  0  0  0  0  0  0  0  0  0  0  0
    1.0338   -1.0361    1.2330 H   0  0  0  0  0  0  0  0  0  0  0  0
    1.4244    0.6946    1.7974 H   0  0  0  0  0  0  0  0  0  0  0  0
    2.5607   -0.8228   -0.6271 H   0  0  0  0  0  0  0  0  0  0  0  0
    2.9370    2.0033    0.6002 H   0  0  0  0  0  0  0  0  0  0  0  0
    2.9283    1.6848   -1.1449 H   0  0  0  0  0  0  0  0  0  0  0  0
    4.9645    0.2775   -0.9046 H   0  0  0  0  0  0  0  0  0  0  0  0
    4.9751    0.5836    0.8477 H   0  0  0  0  0  0  0  0  0  0  0  0
    5.1979    2.9287    0.3823 H   0  0  0  0  0  0  0  0  0  0  0  0
    7.0677    1.3361   -1.0503 H   0  0  0  0  0  0  0  0  0  0  0  0
    7.3089    3.8779    0.1881 H   0  0  0  0  0  0  0  0  0  0  0  0
    9.1833    2.2823   -1.2208 H   0  0  0  0  0  0  0  0  0  0  0  0
    9.3202    4.7988    0.0192 H   0  0  0  0  0  0  0  0  0  0  0  0
   11.2811    3.2572   -1.4070 H   0  0  0  0  0  0  0  0  0  0  0  0
   11.5482    5.7890   -0.1563 H   0  0  0  0  0  0  0  0  0  0  0  0
   13.3837    4.1863   -1.5694 H   0  0  0  0  0  0  0  0  0  0  0  0
   13.5901    6.7415   -0.3521 H   0  0  0  0  0  0  0  0  0  0  0  0
   15.4308    5.0991   -1.7356 H   0  0  0  0  0  0  0  0  0  0  0  0
   15.6736    7.6756   -0.5184 H   0  0  0  0  0  0  0  0  0  0  0  0
   17.6290    6.1141   -1.9348 H   0  0  0  0  0  0  0  0  0  0  0  0
   17.8496    8.6684   -0.7042 H   0  0  0  0  0  0  0  0  0  0  0  0
   19.7227    7.0541   -2.0985 H   0  0  0  0  0  0  0  0  0  0  0  0
   19.9272    9.5905   -0.8705 H   0  0  0  0  0  0  0  0  0  0  0  0
   21.8045    8.0085   -2.2861 H   0  0  0  0  0  0  0  0  0  0  0  0
   22.0356   10.5504   -1.0475 H   0  0  0  0  0  0  0  0  0  0  0  0
   23.9036    8.9625   -2.4607 H   0  0  0  0  0  0  0  0  0  0  0  0
   24.1397   11.5014   -1.2217 H   0  0  0  0  0  0  0  0  0  0  0  0
   26.0155    9.9179   -2.6399 H   0  0  0  0  0  0  0  0  0  0  0  0
   26.2475   12.4538   -1.3997 H   0  0  0  0  0  0  0  0  0  0  0  0
   28.1215   10.8609   -2.8294 H   0  0  0  0  0  0  0  0  0  0  0  0
   28.3482   13.5101   -1.5457 H   0  0  0  0  0  0  0  0  0  0  0  0
   28.3367   13.2022   -3.2983 H   0  0  0  0  0  0  0  0  0  0  0  0
   30.3738   11.7765   -3.0478 H   0  0  0  0  0  0  0  0  0  0  0  0
   30.3806   12.0932   -1.3047 H   0  0  0  0  0  0  0  0  0  0  0  0
   30.6044   14.5383   -1.7510 H   0  0  0  0  0  0  0  0  0  0  0  0
   30.5969   14.2211   -3.4930 H   0  0  0  0  0  0  0  0  0  0  0  0
   32.6308   12.7982   -3.2429 H   0  0  0  0  0  0  0  0  0  0  0  0
   32.6382   13.1151   -1.5005 H   0  0  0  0  0  0  0  0  0  0  0  0
   32.8604   15.5598   -1.9461 H   0  0  0  0  0  0  0  0  0  0  0  0
   32.8530   15.2429   -3.6884 H   0  0  0  0  0  0  0  0  0  0  0  0
   34.8861   13.8198   -3.4390 H   0  0  0  0  0  0  0  0  0  0  0  0
   34.8931   14.1342   -1.6962 H   0  0  0  0  0  0  0  0  0  0  0  0
   35.1148   16.5795   -2.1382 H   0  0  0  0  0  0  0  0  0  0  0  0
   35.1079   16.2650   -3.8811 H   0  0  0  0  0  0  0  0  0  0  0  0
   37.1406   14.8404   -3.6321 H   0  0  0  0  0  0  0  0  0  0  0  0
   37.1476   15.1548   -1.8893 H   0  0  0  0  0  0  0  0  0  0  0  0
   37.3693   17.5999   -2.3314 H   0  0  0  0  0  0  0  0  0  0  0  0
   37.3624   17.2855   -4.0741 H   0  0  0  0  0  0  0  0  0  0  0  0
   39.3953   15.8621   -3.8261 H   0  0  0  0  0  0  0  0  0  0  0  0
   39.4018   16.1741   -2.0830 H   0  0  0  0  0  0  0  0  0  0  0  0
   39.6224   18.6203   -2.5224 H   0  0  0  0  0  0  0  0  0  0  0  0
   39.6181   18.3070   -4.2654 H   0  0  0  0  0  0  0  0  0  0  0  0
   41.6506   16.8817   -4.0135 H   0  0  0  0  0  0  0  0  0  0  0  0
   41.6553   17.1974   -2.2710 H   0  0  0  0  0  0  0  0  0  0  0  0
   41.8760   19.6427   -2.7153 H   0  0  0  0  0  0  0  0  0  0  0  0
   41.8734   19.3258   -4.4577 H   0  0  0  0  0  0  0  0  0  0  0  0
   43.9063   17.9036   -4.2027 H   0  0  0  0  0  0  0  0  0  0  0  0
   43.9084   18.2181   -2.4600 H   0  0  0  0  0  0  0  0  0  0  0  0
   44.1291   20.6637   -2.9024 H   0  0  0  0  0  0  0  0  0  0  0  0
   44.1291   20.3480   -4.6449 H   0  0  0  0  0  0  0  0  0  0  0  0
   46.1617   18.9250   -4.3871 H   0  0  0  0  0  0  0  0  0  0  0  0
   46.1617   19.2408   -2.6445 H   0  0  0  0  0  0  0  0  0  0  0  0
   46.3835   21.6857   -3.0876 H   0  0  0  0  0  0  0  0  0  0  0  0
   46.3835   21.3699   -4.8301 H   0  0  0  0  0  0  0  0  0  0  0  0
   48.4162   19.9470   -4.5723 H   0  0  0  0  0  0  0  0  0  0  0  0
   48.4162   20.2628   -2.8297 H   0  0  0  0  0  0  0  0  0  0  0  0
   48.6379   22.7077   -3.2728 H   0  0  0  0  0  0  0  0  0  0  0  0
   48.6379   22.3919   -5.0153 H   0  0  0  0  0  0  0  0  0  0  0  0
   50.6706   20.9690   -4.7575 H   0  0  0  0  0  0  0  0  0  0  0  0
   50.6706   21.2847   -3.0149 H   0  0  0  0  0  0  0  0  0  0  0  0
   50.8912   23.7301   -3.4588 H   0  0  0  0  0  0  0  0  0  0  0  0
   50.8934   23.4131   -5.2011 H   0  0  0  0  0  0  0  0  0  0  0  0
   52.9263   21.9919   -4.9408 H   0  0  0  0  0  0  0  0  0  0  0  0
   52.9237   22.3065   -3.1980 H   0  0  0  0  0  0  0  0  0  0  0  0
   53.1465   24.7512   -3.6382 H   0  0  0  0  0  0  0  0  0  0  0  0
   53.1469   24.4379   -5.3812 H   0  0  0  0  0  0  0  0  0  0  0  0
   55.1796   23.0147   -5.1248 H   0  0  0  0  0  0  0  0  0  0  0  0
   55.1791   23.3280   -3.3818 H   0  0  0  0  0  0  0  0  0  0  0  0
   55.3998   25.7740   -3.8222 H   0  0  0  0  0  0  0  0  0  0  0  0
   55.4024   25.4595   -5.5650 H   0  0  0  0  0  0  0  0  0  0  0  0
   57.4353   24.0380   -5.3061 H   0  0  0  0  0  0  0  0  0  0  0  0
   57.4323   24.3501   -3.5629 H   0  0  0  0  0  0  0  0  0  0  0  0
   57.6551   26.7955   -3.9997 H   0  0  0  0  0  0  0  0  0  0  0  0
   57.6559   26.4846   -5.7431 H   0  0  0  0  0  0  0  0  0  0  0  0
   59.6884   25.0601   -5.4873 H   0  0  0  0  0  0  0  0  0  0  0  0
   59.6880   25.3734   -3.7443 H   0  0  0  0  0  0  0  0  0  0  0  0
   59.9107   27.8184   -4.1830 H   0  0  0  0  0  0  0  0  0  0  0  0
   59.9091   27.5063   -5.9262 H   0  0  0  0  0  0  0  0  0  0  0  0
   61.9419   26.0836   -5.6742 H   0  0  0  0  0  0  0  0  0  0  0  0
   61.9432   26.3933   -3.9306 H   0  0  0  0  0  0  0  0  0  0  0  0
   62.1650   28.8397   -4.3652 H   0  0  0  0  0  0  0  0  0  0  0  0
   62.1637   28.5300   -6.1089 H   0  0  0  0  0  0  0  0  0  0  0  0
   64.1961   27.1048   -5.8565 H   0  0  0  0  0  0  0  0  0  0  0  0
   64.1978   27.4169   -4.1133 H   0  0  0  0  0  0  0  0  0  0  0  0
   64.4196   29.8627   -4.5514 H   0  0  0  0  0  0  0  0  0  0  0  0
   64.4179   29.5506   -6.2946 H   0  0  0  0  0  0  0  0  0  0  0  0
   66.4505   28.1268   -6.0417 H   0  0  0  0  0  0  0  0  0  0  0  0
   66.4522   28.4389   -4.2985 H   0  0  0  0  0  0  0  0  0  0  0  0
   66.6740   30.8847   -4.7366 H   0  0  0  0  0  0  0  0  0  0  0  0
   66.6723   30.5726   -6.4798 H   0  0  0  0  0  0  0  0  0  0  0  0
   68.7049   29.1488   -6.2269 H   0  0  0  0  0  0  0  0  0  0  0  0
   68.7066   29.4609   -4.4837 H   0  0  0  0  0  0  0  0  0  0  0  0
   68.9284   31.9067   -4.9217 H   0  0  0  0  0  0  0  0  0  0  0  0
   68.9267   31.5946   -6.6649 H   0  0  0  0  0  0  0  0  0  0  0  0
   70.9593   30.1708   -6.4120 H   0  0  0  0  0  0  0  0  0  0  0  0
   70.9610   30.4828   -4.6688 H   0  0  0  0  0  0  0  0  0  0  0  0
   71.1828   32.9286   -5.1069 H   0  0  0  0  0  0  0  0  0  0  0  0
   71.1811   32.6165   -6.8501 H   0  0  0  0  0  0  0  0  0  0  0  0
   73.2137   31.1927   -6.5972 H   0  0  0  0  0  0  0  0  0  0  0  0
   73.2155   31.5048   -4.8540 H   0  0  0  0  0  0  0  0  0  0  0  0
   73.4372   33.9506   -5.2921 H   0  0  0  0  0  0  0  0  0  0  0  0
   73.4355   33.6385   -7.0353 H   0  0  0  0  0  0  0  0  0  0  0  0
   75.4679   32.2136   -6.7815 H   0  0  0  0  0  0  0  0  0  0  0  0
   75.4701   32.5281   -5.0387 H   0  0  0  0  0  0  0  0  0  0  0  0
   75.6918   34.9733   -5.4802 H   0  0  0  0  0  0  0  0  0  0  0  0
   75.6896   34.6588   -7.2230 H   0  0  0  0  0  0  0  0  0  0  0  0
   77.7223   33.2352   -6.9686 H   0  0  0  0  0  0  0  0  0  0  0  0
   77.7245   33.5497   -5.2259 H   0  0  0  0  0  0  0  0  0  0  0  0
   77.9462   35.9949   -5.6674 H   0  0  0  0  0  0  0  0  0  0  0  0
   77.9440   35.6804   -7.4102 H   0  0  0  0  0  0  0  0  0  0  0  0
   79.9767   34.2569   -7.1558 H   0  0  0  0  0  0  0  0  0  0  0  0
   79.9789   34.5714   -5.4130 H   0  0  0  0  0  0  0  0  0  0  0  0
   80.2006   37.0165   -5.8546 H   0  0  0  0  0  0  0  0  0  0  0  0
   80.1984   36.7020   -7.5973 H   0  0  0  0  0  0  0  0  0  0  0  0
   82.2309   35.2775   -7.3420 H   0  0  0  0  0  0  0  0  0  0  0  0
   82.2335   35.5944   -5.5997 H   0  0  0  0  0  0  0  0  0  0  0  0
   82.4552   38.0390   -6.0446 H   0  0  0  0  0  0  0  0  0  0  0  0
   82.4526   37.7221   -7.7871 H   0  0  0  0  0  0  0  0  0  0  0  0
   84.4854   36.2987   -7.5312 H   0  0  0  0  0  0  0  0  0  0  0  0
   84.4880   36.6156   -5.7888 H   0  0  0  0  0  0  0  0  0  0  0  0
   84.7085   39.0610   -6.2346 H   0  0  0  0  0  0  0  0  0  0  0  0
   84.7080   38.7428   -7.9770 H   0  0  0  0  0  0  0  0  0  0  0  0
   86.7410   37.3218   -7.7183 H   0  0  0  0  0  0  0  0  0  0  0  0
   86.7411   37.6374   -5.9763 H   0  0  0  0  0  0  0  0  0  0  0  0
   86.9728   40.0843   -6.4192 H   0  0  0  0  0  0  0  0  0  0  0  0
   86.9727   39.7685   -8.1621 H   0  0  0  0  0  0  0  0  0  0  0  0
   89.0107   38.6731   -6.1608 H   0  0  0  0  0  0  0  0  0  0  0  0
   89.2835   40.0047   -7.3049 H   0  0  0  0  0  0  0  0  0  0  0  0
   89.0107   38.3563   -7.9089 H   0  0  0  0  0  0  0  0  0  0  0  0
  1  2  2  0  0  0  0
  1 81  1  0  0  0  0
  1 82  1  0  0  0  0
  2  3  1  0  0  0  0
  2 83  1  0  0  0  0
  3  4  1  0  0  0  0
  3 84  1  0  0  0  0
  3 85  1  0  0  0  0
  4  5  1  0  0  0  0
  4 86  1  0  0  0  0
  4 87  1  0  0  0  0
  5  6  1  0  0  0  0
  5 88  1  0  0  0  0
  6  7  1  0  0  0  0
  6 89  1  0  0  0  0
  7  8  1  0  0  0  0
  7 90  1  0  0  0  0
  8  9  1  0  0  0  0
  8 91  1  0  0  0  0
  9 10  1  0  0  0  0
  9 92  1  0  0  0  0
 10 11  1  0  0  0  0
 10 93  1  0  0  0  0
 11 12  1  0  0  0  0
 11 94  1  0  0  0  0
 12 13  1  0  0  0  0
 12 95  1  0  0  0  0
 13 14  1  0  0  0  0
 13 96  1  0  0  0  0
 14 15  1  0  0  0  0
 14 97  1  0  0  0  0
 15 16  1  0  0  0  0
 15 98  1  0  0  0  0
 16 17  1  0  0  0  0
 16 99  1  0  0  0  0
 17 18  1  0  0  0  0
 17100  1  0  0  0  0
 18 19  1  0  0  0  0
 18101  1  0  0  0  0
 19 20  1  0  0  0  0
 19102  1  0  0  0  0
 20 21  1  0  0  0  0
 20103  1  0  0  0  0
 21 22  1  0  0  0  0
 21104  1  0  0  0  0
 22 23  1  0  0  0  0
 22105  1  0  0  0  0
 23 24  1  0  0  0  0
 23106  1  0  0  0  0
 24 25  1  0  0  0  0
 24107  1  0  0  0  0
 25 26  1  0  0  0  0
 25108  1  0  0  0  0
 26 27  1  0  0  0  0
 26109  1  0  0  0  0
 27 28  1  0  0  0  0
 27110  1  0  0  0  0
 27111  1  0  0  0  0
 28 29  1  0  0  0  0
 28112  1  0  0  0  0
 28113  1  0  0  0  0
 29 30  1  0  0  0  0
 29114  1  0  0  0  0
 29115  1  0  0  0  0
 30 31  1  0  0  0  0
 30116  1  0  0  0  0
 30117  1  0  0  0  0
 31 32  1  0  0  0  0
 31118  1  0  0  0  0
 31119  1  0  0  0  0
 32 33  1  0  0  0  0
 32120  1  0  0  0  0
 32121  1  0  0  0  0
 33 34  1  0  0  0  0
 33122  1  0  0  0  0
 33123  1  0  0  0  0
 34 35  1  0  0  0  0
 34124  1  0  0  0  0
 34125  1  0  0  0  0
 35 36  1  0  0  0  0
 35126  1  0  0  0  0
 35127  1  0  0  0  0
 36 37  1  0  0  0  0
 36128  1  0  0  0  0
 36129  1  0  0  0  0
 37 38  1  0  0  0  0
 37130  1  0  0  0  0
 37131  1  0  0  0  0
 38 39  1  0  0  0  0
 38132  1  0  0  0  0
 38133  1  0  0  0  0
 39 40  1  0  0  0  0
 39134  1  0  0  0  0
 39135  1  0  0  0  0
 40 41  1  0  0  0  0
 40136  1  0  0  0  0
 40137  1  0  0  0  0
 41 42  1  0  0  0  0
 41138  1  0  0  0  0
 41139  1  0  0  0  0
 42 43  1  0  0  0  0
 42140  1  0  0  0  0
 42141  1  0  0  0  0
 43 44  1  0  0  0  0
 43142  1  0  0  0  0
 43143  1  0  0  0  0
 44 45  1  0  0  0  0
 44144  1  0  0  0  0
 44145  1  0  0  0  0
 45 46  1  0  0  0  0
 45146  1  0  0  0  0
 45147  1  0  0  0  0
 46 47  1  0  0  0  0
 46148  1  0  0  0  0
 46149  1  0  0  0  0
 47 48  1  0  0  0  0
 47150  1  0  0  0  0
 47151  1  0  0  0  0
 48 49  1  0  0  0  0
 48152  1  0  0  0  0
 48153  1  0  0  0  0
 49 50  1  0  0  0  0
 49154  1  0  0  0  0
 49155  1  0  0  0  0
 50 51  1  0  0  0  0
 50156  1  0  0  0  0
 50157  1  0  0  0  0
 51 52  1  0  0  0  0
 51158  1  0  0  0  0
 51159  1  0  0  0  0
 52 53  1  0  0  0  0
 52160  1  0  0  0  0
 52161  1  0  0  0  0
 53 54  1  0  0  0  0
 53162  1  0  0  0  0
 53163  1  0  0  0  0
 54 55  1  0  0  0  0
 54164  1  0  0  0  0
 54165  1  0  0  0  0
 55 56  1  0  0  0  0
 55166  1  0  0  0  0
 55167  1  0  0  0  0
 56 57  1  0  0  0  0
 56168  1  0  0  0  0
 56169  1  0  0  0  0
 57 58  1  0  0  0  0
 57170  1  0  0  0  0
 57171  1  0  0  0  0
 58 59  1  0  0  0  0
 58172  1  0  0  0  0
 58173  1  0  0  0  0
 59 60  1  0  0  0  0
 59174  1  0  0  0  0
 59175  1  0  0  0  0
 60 61  1  0  0  0  0
 60176  1  0  0  0  0
 60177  1  0  0  0  0
 61 62  1  0  0  0  0
 61178  1  0  0  0  0
 61179  1  0  0  0  0
 62 63  1  0  0  0  0
 62180  1  0  0  0  0
 62181  1  0  0  0  0
 63 64  1  0  0  0  0
 63182  1  0  0  0  0
 63183  1  0  0  0  0
 64 65  1  0  0  0  0
 64184  1  0  0  0  0
 64185  1  0  0  0  0
 65 66  1  0  0  0  0
 65186  1  0  0  0  0
 65187  1  0  0  0  0
 66 67  1  0  0  0  0
 66188  1  0  0  0  0
 66189  1  0  0  0  0
 67 68  1  0  0  0  0
 67190  1  0  0  0  0
 67191  1  0  0  0  0
 68 69  1  0  0  0  0
 68192  1  0  0  0  0
 68193  1  0  0  0  0
 69 70  1  0  0  0  0
 69194  1  0  0  0  0
 69195  1  0  0  0  0
 70 71  1  0  0  0  0
 70196  1  0  0  0  0
 70197  1  0  0  0  0
 71 72  1  0  0  0  0
 71198  1  0  0  0  0
 71199  1  0  0  0  0
 72 73  1  0  0  0  0
 72200  1  0  0  0  0
 72201  1  0  0  0  0
 73 74  1  0  0  0  0
 73202  1  0  0  0  0
 73203  1  0  0  0  0
 74 75  1  0  0  0  0
 74204  1  0  0  0  0
 74205  1  0  0  0  0
 75 76  1  0  0  0  0
 75206  1  0  0  0  0
 75207  1  0  0  0  0
 76 77  1  0  0  0  0
 76208  1  0  0  0  0
 76209  1  0  0  0  0
 77 78  1  0  0  0  0
 77210  1  0  0  0  0
 77211  1  0  0  0  0
 78 79  1  0  0  0  0
 78212  1  0  0  0  0
 78213  1  0  0  0  0
 79 80  1  0  0  0  0
 79214  1  0  0  0  0
 79215  1  0  0  0  0
 80216  1  0  0  0  0
 80217  1  0  0  0  0
 80218  1  0  0  0  0
M  END
$$$$
