
 OpenBabel04232216473D

 87 87  0  0  1  0  0  0  0  0999 V2000
    5.7406   -6.4539    3.7762 C   0  0  0  0  0  0  0  0  0  0  0  0
    6.8371   -6.2258    2.8215 C   0  0  3  0  0  0  0  0  0  0  0  0
    7.2478   -4.9438    2.5884 C   0  0  0  0  0  0  0  0  0  0  0  0
    6.4201   -5.3257    1.5548 C   0  0  0  0  0  0  0  0  0  0  0  0
    5.5410   -6.2889    1.0340 O   0  0  0  0  0  0  0  0  0  0  0  0
    4.9419   -5.8890   -0.2599 O   0  0  0  0  0  0  0  0  0  0  0  0
    3.4869   -6.0029   -0.2111 C   0  0  0  0  0  0  0  0  0  0  0  0
    2.8943   -5.6082   -1.4727 O   0  0  0  0  0  0  0  0  0  0  0  0
    3.3622   -6.5805   -2.4149 O   0  0  0  0  0  0  0  0  0  0  0  0
    2.8686   -7.8392   -2.0084 O   0  0  0  0  0  0  0  0  0  0  0  0
    3.3983   -8.8247   -2.8204 O   0  0  0  0  0  0  0  0  0  0  0  0
    2.9048  -10.0212   -2.3189 O   0  0  0  0  0  0  0  0  0  0  0  0
    3.3658  -10.9958   -3.1598 O   0  0  0  0  0  0  0  0  0  0  0  0
    2.8762  -12.1803   -2.6618 O   0  0  0  0  0  0  0  0  0  0  0  0
    3.3567  -13.1346   -3.5181 O   0  0  0  0  0  0  0  0  0  0  0  0
    2.8831  -14.3264   -3.0466 O   0  0  0  0  0  0  0  0  0  0  0  0
    3.3736  -15.2623   -3.9144 O   0  0  0  0  0  0  0  0  0  0  0  0
    2.9014  -16.4525   -3.4444 O   0  0  0  0  0  0  0  0  0  0  0  0
    3.3861  -17.3952   -4.3050 O   0  0  0  0  0  0  0  0  0  0  0  0
    2.9083  -18.5704   -3.8244 O   0  0  0  0  0  0  0  0  0  0  0  0
    3.3632  -19.5392   -4.6467 O   0  0  0  0  0  0  0  0  0  0  0  0
    2.8674  -20.6981   -4.1375 O   0  0  0  0  0  0  0  0  0  0  0  0
    3.3380  -21.6567   -4.9806 O   0  0  0  0  0  0  0  0  0  0  0  0
    2.8718  -22.8482   -4.5195 O   0  0  0  0  0  0  0  0  0  0  0  0
    3.3672  -23.7711   -5.3921 O   0  0  0  0  0  0  0  0  0  0  0  0
    2.8926  -24.9553   -4.9176 O   0  0  0  0  0  0  0  0  0  0  0  0
    3.3746  -25.8958   -5.7739 O   0  0  0  0  0  0  0  0  0  0  0  0
    2.8919  -27.0746   -5.2869 O   0  0  0  0  0  0  0  0  0  0  0  0
    3.3736  -28.0184   -6.1433 O   0  0  0  0  0  0  0  0  0  0  0  0
    2.8916  -29.1949   -5.6571 O   0  0  0  0  0  0  0  0  0  0  0  0
    3.3736  -30.1434   -6.5147 O   0  0  0  0  0  0  0  0  0  0  0  0
    2.8924  -31.3177   -6.0291 O   0  0  0  0  0  0  0  0  0  0  0  0
    3.3732  -32.2663   -6.8852 O   0  0  0  0  0  0  0  0  0  0  0  0
    2.8914  -33.4451   -6.3994 O   0  0  0  0  0  0  0  0  0  0  0  0
    3.3732  -34.3900   -7.2563 O   0  0  0  0  0  0  0  0  0  0  0  0
    2.8914  -35.5690   -6.7705 O   0  0  0  0  0  0  0  0  0  0  0  0
    3.3732  -36.5133   -7.6273 O   0  0  0  0  0  0  0  0  0  0  0  0
    2.8914  -37.6923   -7.1416 O   0  0  0  0  0  0  0  0  0  0  0  0
    3.3732  -38.6367   -7.9984 O   0  0  0  0  0  0  0  0  0  0  0  0
    2.8914  -39.8157   -7.5126 O   0  0  0  0  0  0  0  0  0  0  0  0
    3.3733  -40.7601   -8.3695 O   0  0  0  0  0  0  0  0  0  0  0  0
    2.8914  -41.9391   -7.8837 O   0  0  0  0  0  0  0  0  0  0  0  0
    3.3733  -42.8834   -8.7405 O   0  0  0  0  0  0  0  0  0  0  0  0
    2.8914  -44.0624   -8.2548 O   0  0  0  0  0  0  0  0  0  0  0  0
    3.3733  -45.0068   -9.1116 O   0  0  0  0  0  0  0  0  0  0  0  0
    2.8914  -46.1858   -8.6258 O   0  0  0  0  0  0  0  0  0  0  0  0
    3.3733  -47.1302   -9.4826 O   0  0  0  0  0  0  0  0  0  0  0  0
    2.8914  -48.3092   -8.9969 O   0  0  0  0  0  0  0  0  0  0  0  0
    3.3706  -49.2587   -9.8508 O   0  0  0  0  0  0  0  0  0  0  0  0
    2.8930  -50.4303   -9.3699 O   0  0  0  0  0  0  0  0  0  0  0  0
    3.3728  -51.3769  -10.2240 O   0  0  0  0  0  0  0  0  0  0  0  0
    2.8915  -52.5558   -9.7390 O   0  0  0  0  0  0  0  0  0  0  0  0
    3.3734  -53.5002  -10.5960 O   0  0  0  0  0  0  0  0  0  0  0  0
    2.8921  -54.6795  -10.1110 O   0  0  0  0  0  0  0  0  0  0  0  0
    3.3712  -55.6241  -10.9639 O   0  0  0  0  0  0  0  0  0  0  0  0
    2.8906  -56.8050  -10.4802 O   0  0  0  0  0  0  0  0  0  0  0  0
    3.3719  -57.7466  -11.3359 O   0  0  0  0  0  0  0  0  0  0  0  0
    2.8912  -58.9263  -10.8519 O   0  0  0  0  0  0  0  0  0  0  0  0
    3.3736  -59.8698  -11.7093 O   0  0  0  0  0  0  0  0  0  0  0  0
    2.8924  -61.0476  -11.2242 O   0  0  0  0  0  0  0  0  0  0  0  0
    3.3711  -61.9938  -12.0769 O   0  0  0  0  0  0  0  0  0  0  0  0
    2.8839  -63.1688  -11.5828 O   0  0  0  0  0  0  0  0  0  0  0  0
    3.3623  -64.1153  -12.4349 O   0  0  0  0  0  0  0  0  0  0  0  0
    2.8839  -65.2997  -11.9551 O   0  0  0  0  0  0  0  0  0  0  0  0
    3.3709  -66.2365  -12.8179 O   0  0  0  0  0  0  0  0  0  0  0  0
    2.8922  -67.4195  -12.3374 O   0  0  0  0  0  0  0  0  0  0  0  0
    3.3721  -68.3669  -13.1920 O   0  0  0  0  0  0  0  0  0  0  0  0
    2.8896  -69.5470  -12.7055 O   0  0  0  0  0  0  0  0  0  0  0  0
    3.3731  -70.4898  -13.5644 O   0  0  0  0  0  0  0  0  0  0  0  0
    2.8942  -71.6737  -13.0837 O   0  0  0  0  0  0  0  0  0  0  0  0
    3.3789  -72.6185  -13.9447 O   0  0  0  0  0  0  0  0  0  0  0  0
    2.8988  -73.8042  -13.4626 O   0  0  0  0  0  0  0  0  0  0  0  0
    3.3784  -74.7621  -14.3185 O   0  0  0  0  0  0  0  0  0  0  0  0
    2.8919  -75.9507  -13.8279 O   0  0  0  0  0  0  0  0  0  0  0  0
    3.3644  -76.9275  -14.6768 O   0  0  0  0  0  0  0  0  0  0  0  0
    2.8827  -78.1375  -14.1967 O   0  0  0  0  0  0  0  0  0  0  0  0
    3.3680  -79.1127  -15.0639 O   0  0  0  0  0  0  0  0  0  0  0  0
    2.9067  -80.3601  -14.6196 O   0  0  0  0  0  0  0  0  0  0  0  0
    3.4059  -81.3474  -15.5087 O   0  0  0  0  0  0  0  0  0  0  0  0
    6.1596   -6.7361    4.7393 H   0  0  0  0  0  0  0  0  0  0  0  0
    5.0984   -7.2415    3.3789 H   0  0  0  0  0  0  0  0  0  0  0  0
    5.1144   -5.5577    3.9161 H   0  0  0  0  0  0  0  0  0  0  0  0
    7.5119   -7.0144    2.5578 H   0  0  0  0  0  0  0  0  0  0  0  0
    7.9096   -4.3642    3.2023 H   0  0  0  0  0  0  0  0  0  0  0  0
    3.0537   -5.3051    0.5007 H   0  0  0  0  0  0  0  0  0  0  0  0
    3.0887   -7.0067    0.0463 H   0  0  0  0  0  0  0  0  0  0  0  0
    2.9853  -82.0697  -15.0312 H   0  0  0  0  0  0  0  0  0  0  0  0
  1  2  1  0  0  0  0
  1 80  1  0  0  0  0
  1 81  1  0  0  0  0
  1 82  1  0  0  0  0
  2  3  1  0  0  0  0
  2  4  1  0  0  0  0
  2 83  1  0  0  0  0
  3  4  2  0  0  0  0
  3 84  1  0  0  0  0
  4  5  1  0  0  0  0
  5  6  1  0  0  0  0
  6  7  1  0  0  0  0
  7  8  1  0  0  0  0
  7 85  1  0  0  0  0
  7 86  1  0  0  0  0
  8  9  1  0  0  0  0
  9 10  1  0  0  0  0
 10 11  1  0  0  0  0
 11 12  1  0  0  0  0
 12 13  1  0  0  0  0
 13 14  1  0  0  0  0
 14 15  1  0  0  0  0
 15 16  1  0  0  0  0
 16 17  1  0  0  0  0
 17 18  1  0  0  0  0
 18 19  1  0  0  0  0
 19 20  1  0  0  0  0
 20 21  1  0  0  0  0
 21 22  1  0  0  0  0
 22 23  1  0  0  0  0
 23 24  1  0  0  0  0
 24 25  1  0  0  0  0
 25 26  1  0  0  0  0
 26 27  1  0  0  0  0
 27 28  1  0  0  0  0
 28 29  1  0  0  0  0
 29 30  1  0  0  0  0
 30 31  1  0  0  0  0
 31 32  1  0  0  0  0
 32 33  1  0  0  0  0
 33 34  1  0  0  0  0
 34 35  1  0  0  0  0
 35 36  1  0  0  0  0
 36 37  1  0  0  0  0
 37 38  1  0  0  0  0
 38 39  1  0  0  0  0
 39 40  1  0  0  0  0
 40 41  1  0  0  0  0
 41 42  1  0  0  0  0
 42 43  1  0  0  0  0
 43 44  1  0  0  0  0
 44 45  1  0  0  0  0
 45 46  1  0  0  0  0
 46 47  1  0  0  0  0
 47 48  1  0  0  0  0
 48 49  1  0  0  0  0
 49 50  1  0  0  0  0
 50 51  1  0  0  0  0
 51 52  1  0  0  0  0
 52 53  1  0  0  0  0
 53 54  1  0  0  0  0
 54 55  1  0  0  0  0
 55 56  1  0  0  0  0
 56 57  1  0  0  0  0
 57 58  1  0  0  0  0
 58 59  1  0  0  0  0
 59 60  1  0  0  0  0
 60 61  1  0  0  0  0
 61 62  1  0  0  0  0
 62 63  1  0  0  0  0
 63 64  1  0  0  0  0
 64 65  1  0  0  0  0
 65 66  1  0  0  0  0
 66 67  1  0  0  0  0
 67 68  1  0  0  0  0
 68 69  1  0  0  0  0
 69 70  1  0  0  0  0
 70 71  1  0  0  0  0
 71 72  1  0  0  0  0
 72 73  1  0  0  0  0
 73 74  1  0  0  0  0
 74 75  1  0  0  0  0
 75 76  1  0  0  0  0
 76 77  1  0  0  0  0
 77 78  1  0  0  0  0
 78 79  1  0  0  0  0
 79 87  1  0  0  0  0
M  END
$$$$
