
 OpenBabel04232217033D

 90 89  0  0  0  0  0  0  0  0999 V2000
    9.7198   -6.2462  -10.3434 S   0  0  0  0  0  0  0  0  0  0  0  0
   11.3612   -6.5310  -10.4730 O   0  0  0  0  0  0  0  0  0  0  0  0
   11.6375   -8.1811  -10.3324 S   0  0  0  0  0  0  0  0  0  0  0  0
   13.6885   -8.2348  -10.5109 S   0  0  0  0  0  0  0  0  0  0  0  0
   14.3213   -7.3585   -9.0261 C   0  0  0  0  0  0  0  0  0  0  0  0
   13.8593   -7.9300   -7.7666 N   0  0  0  0  0  0  0  0  0  0  0  0
   14.3727   -7.2072   -6.6357 N   0  0  0  0  0  0  0  0  0  0  0  0
   13.8949   -7.7564   -5.4168 N   0  0  0  0  0  0  0  0  0  0  0  0
   14.3946   -7.0357   -4.3162 N   0  0  0  0  0  0  0  0  0  0  0  0
   13.9465   -7.5819   -3.0458 N   0  0  0  0  0  0  0  0  0  0  0  0
   14.6077   -6.6860   -1.8003 S   0  0  0  0  0  0  0  0  0  0  0  0
   13.8905   -7.6359   -0.1061 S   0  0  0  0  0  0  0  0  0  0  0  0
   14.6086   -9.5782   -0.0689 S   0  0  0  0  0  0  0  0  0  0  0  0
   16.6852   -9.5690    0.0012 S   0  0  0  0  0  0  0  0  0  0  0  0
   17.3508  -11.5666   -0.0135 S   0  0  0  0  0  0  0  0  0  0  0  0
   19.4618  -11.5620   -0.0131 S   0  0  0  0  0  0  0  0  0  0  0  0
   20.1532  -13.5562   -0.0044 S   0  0  0  0  0  0  0  0  0  0  0  0
   22.2643  -13.5439   -0.0045 S   0  0  0  0  0  0  0  0  0  0  0  0
   22.9561  -15.5375    0.0037 S   0  0  0  0  0  0  0  0  0  0  0  0
   25.0662  -15.5252    0.0038 S   0  0  0  0  0  0  0  0  0  0  0  0
   25.7586  -17.5184    0.0120 S   0  0  0  0  0  0  0  0  0  0  0  0
   27.8682  -17.5034    0.0119 S   0  0  0  0  0  0  0  0  0  0  0  0
   28.5625  -19.4962    0.0232 S   0  0  0  0  0  0  0  0  0  0  0  0
   30.6704  -19.4825    0.0202 S   0  0  0  0  0  0  0  0  0  0  0  0
   31.3584  -21.4772    0.0285 S   0  0  0  0  0  0  0  0  0  0  0  0
   33.4666  -21.4650    0.0286 S   0  0  0  0  0  0  0  0  0  0  0  0
   34.1572  -23.4581    0.0368 S   0  0  0  0  0  0  0  0  0  0  0  0
   36.2657  -23.4439    0.0368 S   0  0  0  0  0  0  0  0  0  0  0  0
   36.9563  -25.4371    0.0451 S   0  0  0  0  0  0  0  0  0  0  0  0
   39.0657  -25.4238    0.0451 S   0  0  0  0  0  0  0  0  0  0  0  0
   39.7563  -27.4170    0.0534 S   0  0  0  0  0  0  0  0  0  0  0  0
   41.8657  -27.4037    0.0533 S   0  0  0  0  0  0  0  0  0  0  0  0
   42.5563  -29.3968    0.0617 S   0  0  0  0  0  0  0  0  0  0  0  0
   44.6657  -29.3836    0.0616 S   0  0  0  0  0  0  0  0  0  0  0  0
   45.3563  -31.3767    0.0699 S   0  0  0  0  0  0  0  0  0  0  0  0
   47.4657  -31.3635    0.0699 S   0  0  0  0  0  0  0  0  0  0  0  0
   48.1563  -33.3566    0.0782 S   0  0  0  0  0  0  0  0  0  0  0  0
   50.2657  -33.3434    0.0781 S   0  0  0  0  0  0  0  0  0  0  0  0
   50.9563  -35.3365    0.0865 S   0  0  0  0  0  0  0  0  0  0  0  0
   53.0657  -35.3232    0.0864 S   0  0  0  0  0  0  0  0  0  0  0  0
   53.7563  -37.3164    0.0947 S   0  0  0  0  0  0  0  0  0  0  0  0
   55.8657  -37.3031    0.0947 S   0  0  0  0  0  0  0  0  0  0  0  0
   56.5563  -39.2963    0.1030 S   0  0  0  0  0  0  0  0  0  0  0  0
   58.6656  -39.2830    0.1030 S   0  0  0  0  0  0  0  0  0  0  0  0
   59.3563  -41.2761    0.1113 S   0  0  0  0  0  0  0  0  0  0  0  0
   61.4656  -41.2629    0.1112 S   0  0  0  0  0  0  0  0  0  0  0  0
   62.1563  -43.2560    0.1196 S   0  0  0  0  0  0  0  0  0  0  0  0
   64.2656  -43.2428    0.1195 S   0  0  0  0  0  0  0  0  0  0  0  0
   64.9563  -45.2359    0.1278 S   0  0  0  0  0  0  0  0  0  0  0  0
   67.0656  -45.2227    0.1278 S   0  0  0  0  0  0  0  0  0  0  0  0
   67.7562  -47.2158    0.1361 S   0  0  0  0  0  0  0  0  0  0  0  0
   69.8656  -47.2026    0.1360 S   0  0  0  0  0  0  0  0  0  0  0  0
   70.5562  -49.1957    0.1444 S   0  0  0  0  0  0  0  0  0  0  0  0
   72.6656  -49.1824    0.1443 S   0  0  0  0  0  0  0  0  0  0  0  0
   73.3562  -51.1756    0.1526 S   0  0  0  0  0  0  0  0  0  0  0  0
   75.4656  -51.1623    0.1526 S   0  0  0  0  0  0  0  0  0  0  0  0
   76.1562  -53.1555    0.1609 S   0  0  0  0  0  0  0  0  0  0  0  0
   78.2656  -53.1422    0.1609 S   0  0  0  0  0  0  0  0  0  0  0  0
   78.9562  -55.1353    0.1692 S   0  0  0  0  0  0  0  0  0  0  0  0
   81.0656  -55.1221    0.1691 S   0  0  0  0  0  0  0  0  0  0  0  0
   81.7562  -57.1152    0.1775 S   0  0  0  0  0  0  0  0  0  0  0  0
   83.8656  -57.1020    0.1774 S   0  0  0  0  0  0  0  0  0  0  0  0
   84.5562  -59.0951    0.1857 S   0  0  0  0  0  0  0  0  0  0  0  0
   86.6656  -59.0819    0.1857 S   0  0  0  0  0  0  0  0  0  0  0  0
   87.3562  -61.0750    0.1940 S   0  0  0  0  0  0  0  0  0  0  0  0
   89.4656  -61.0617    0.1939 S   0  0  0  0  0  0  0  0  0  0  0  0
   90.1562  -63.0549    0.2023 S   0  0  0  0  0  0  0  0  0  0  0  0
   92.2656  -63.0416    0.2022 S   0  0  0  0  0  0  0  0  0  0  0  0
   92.9562  -65.0348    0.2105 S   0  0  0  0  0  0  0  0  0  0  0  0
   95.0655  -65.0215    0.2105 S   0  0  0  0  0  0  0  0  0  0  0  0
   95.7561  -67.0146    0.2188 S   0  0  0  0  0  0  0  0  0  0  0  0
   97.8654  -67.0013    0.2188 S   0  0  0  0  0  0  0  0  0  0  0  0
   98.5557  -68.9942    0.2271 S   0  0  0  0  0  0  0  0  0  0  0  0
  100.6643  -68.9805    0.2270 S   0  0  0  0  0  0  0  0  0  0  0  0
  101.3533  -70.9724    0.2355 S   0  0  0  0  0  0  0  0  0  0  0  0
  103.4585  -70.9559    0.2349 S   0  0  0  0  0  0  0  0  0  0  0  0
  104.1421  -72.9432    0.2435 S   0  0  0  0  0  0  0  0  0  0  0  0
  106.2345  -72.9088    0.2657 S   0  0  0  0  0  0  0  0  0  0  0  0
  106.9133  -74.8761    0.2047 S   0  0  0  0  0  0  0  0  0  0  0  0
  108.9880  -74.8280    0.2609 S   0  0  0  0  0  0  0  0  0  0  0  0
  109.5896  -73.9152   -1.4874 S   0  0  0  0  0  0  0  0  0  0  0  0
    9.6842   -4.9062  -10.4120 H   0  0  0  0  0  0  0  0  0  0  0  0
   13.9923   -6.3223   -9.1371 H   0  0  0  0  0  0  0  0  0  0  0  0
   15.4149   -7.3605   -9.0907 H   0  0  0  0  0  0  0  0  0  0  0  0
   14.2181   -8.8939   -7.6558 H   0  0  0  0  0  0  0  0  0  0  0  0
   14.0423   -6.2266   -6.6764 H   0  0  0  0  0  0  0  0  0  0  0  0
   14.2281   -8.7411   -5.3464 H   0  0  0  0  0  0  0  0  0  0  0  0
   14.0698   -6.0683   -4.4078 H   0  0  0  0  0  0  0  0  0  0  0  0
   14.2886   -8.5175   -3.0024 H   0  0  0  0  0  0  0  0  0  0  0  0
  110.9331  -73.9378   -1.3793 H   0  0  0  0  0  0  0  0  0  0  0  0
  1  2  1  0  0  0  0
  1 82  1  0  0  0  0
  2  3  1  0  0  0  0
  3  4  1  0  0  0  0
  4  5  1  0  0  0  0
  5  6  1  0  0  0  0
  5 83  1  0  0  0  0
  5 84  1  0  0  0  0
  6  7  1  0  0  0  0
  6 85  1  0  0  0  0
  7  8  1  0  0  0  0
  7 86  1  0  0  0  0
  8  9  1  0  0  0  0
  8 87  1  0  0  0  0
  9 10  1  0  0  0  0
  9 88  1  0  0  0  0
 10 11  1  0  0  0  0
 10 89  1  0  0  0  0
 11 12  1  0  0  0  0
 12 13  1  0  0  0  0
 13 14  1  0  0  0  0
 14 15  1  0  0  0  0
 15 16  1  0  0  0  0
 16 17  1  0  0  0  0
 17 18  1  0  0  0  0
 18 19  1  0  0  0  0
 19 20  1  0  0  0  0
 20 21  1  0  0  0  0
 21 22  1  0  0  0  0
 22 23  1  0  0  0  0
 23 24  1  0  0  0  0
 24 25  1  0  0  0  0
 25 26  1  0  0  0  0
 26 27  1  0  0  0  0
 27 28  1  0  0  0  0
 28 29  1  0  0  0  0
 29 30  1  0  0  0  0
 30 31  1  0  0  0  0
 31 32  1  0  0  0  0
 32 33  1  0  0  0  0
 33 34  1  0  0  0  0
 34 35  1  0  0  0  0
 35 36  1  0  0  0  0
 36 37  1  0  0  0  0
 37 38  1  0  0  0  0
 38 39  1  0  0  0  0
 39 40  1  0  0  0  0
 40 41  1  0  0  0  0
 41 42  1  0  0  0  0
 42 43  1  0  0  0  0
 43 44  1  0  0  0  0
 44 45  1  0  0  0  0
 45 46  1  0  0  0  0
 46 47  1  0  0  0  0
 47 48  1  0  0  0  0
 48 49  1  0  0  0  0
 49 50  1  0  0  0  0
 50 51  1  0  0  0  0
 51 52  1  0  0  0  0
 52 53  1  0  0  0  0
 53 54  1  0  0  0  0
 54 55  1  0  0  0  0
 55 56  1  0  0  0  0
 56 57  1  0  0  0  0
 57 58  1  0  0  0  0
 58 59  1  0  0  0  0
 59 60  1  0  0  0  0
 60 61  1  0  0  0  0
 61 62  1  0  0  0  0
 62 63  1  0  0  0  0
 63 64  1  0  0  0  0
 64 65  1  0  0  0  0
 65 66  1  0  0  0  0
 66 67  1  0  0  0  0
 67 68  1  0  0  0  0
 68 69  1  0  0  0  0
 69 70  1  0  0  0  0
 70 71  1  0  0  0  0
 71 72  1  0  0  0  0
 72 73  1  0  0  0  0
 73 74  1  0  0  0  0
 74 75  1  0  0  0  0
 75 76  1  0  0  0  0
 76 77  1  0  0  0  0
 77 78  1  0  0  0  0
 78 79  1  0  0  0  0
 79 80  1  0  0  0  0
 80 81  1  0  0  0  0
 81 90  1  0  0  0  0
M  END
$$$$
