
 OpenBabel04232216563D

226225  0  0  0  0  0  0  0  0999 V2000
   10.8404   10.7296   20.3436 C   0  0  0  0  0  0  0  0  0  0  0  0
   12.2947   10.7003   20.2894 N   0  0  0  0  0  0  0  0  0  0  0  0
   12.7427   10.5991   18.9035 C   0  0  0  0  0  0  0  0  0  0  0  0
   14.2648   10.5660   18.8573 C   0  0  0  0  0  0  0  0  0  0  0  0
   14.7382   10.4603   17.4134 C   0  0  0  0  0  0  0  0  0  0  0  0
   16.2561   10.4269   17.3541 C   0  0  0  0  0  0  0  0  0  0  0  0
   16.7223   10.3231   15.9120 C   0  0  0  0  0  0  0  0  0  0  0  0
   18.2391   10.2923   15.8580 C   0  0  0  0  0  0  0  0  0  0  0  0
   18.7062   10.1888   14.4174 C   0  0  0  0  0  0  0  0  0  0  0  0
   20.2329   10.1599   14.3671 C   0  0  0  0  0  0  0  0  0  0  0  0
   20.6867   10.0527   12.9317 C   0  0  0  0  0  0  0  0  0  0  0  0
   22.2044   10.0251   12.8787 C   0  0  0  0  0  0  0  0  0  0  0  0
   22.6691    9.9206   11.4347 C   0  0  0  0  0  0  0  0  0  0  0  0
   24.1858    9.8916   11.3798 C   0  0  0  0  0  0  0  0  0  0  0  0
   24.6596    9.7831    9.9417 C   0  0  0  0  0  0  0  0  0  0  0  0
   26.1699    9.7568    9.8929 C   0  0  0  0  0  0  0  0  0  0  0  0
   26.6358    9.6459    8.4548 C   0  0  0  0  0  0  0  0  0  0  0  0
   28.1516    9.6156    8.3937 C   0  0  0  0  0  0  0  0  0  0  0  0
   28.5899    9.4917    6.9535 C   0  0  0  0  0  0  0  0  0  0  0  0
   30.0111    9.4440    6.9157 O   0  0  0  0  0  0  0  0  0  0  0  0
   30.4692    9.3820    5.5667 C   0  0  0  0  0  0  0  0  0  0  0  0
   30.0388   10.4838    4.7788 O   0  0  0  0  0  0  0  0  0  0  0  0
   30.5134   11.6924    5.3421 C   0  0  0  0  0  0  0  0  0  0  0  0
   30.0415   12.7825    4.5745 O   0  0  0  0  0  0  0  0  0  0  0  0
   30.5309   13.9989    5.1189 C   0  0  0  0  0  0  0  0  0  0  0  0
   31.9525   14.0269    5.0886 O   0  0  0  0  0  0  0  0  0  0  0  0
   32.4344   15.2237    5.6553 C   0  0  0  0  0  0  0  0  0  0  0  0
   33.8575   15.2233    5.6491 O   0  0  0  0  0  0  0  0  0  0  0  0
   34.3402   16.4391    6.2037 C   0  0  0  0  0  0  0  0  0  0  0  0
   33.9167   16.5776    7.5523 O   0  0  0  0  0  0  0  0  0  0  0  0
   34.3641   17.8033    8.0910 C   0  0  0  0  0  0  0  0  0  0  0  0
   33.8861   17.9466    9.4230 O   0  0  0  0  0  0  0  0  0  0  0  0
   34.3578   19.1679    9.9720 C   0  0  0  0  0  0  0  0  0  0  0  0
   33.8783   20.2820    9.2250 O   0  0  0  0  0  0  0  0  0  0  0  0
   34.3761   21.4971    9.7543 C   0  0  0  0  0  0  0  0  0  0  0  0
   35.7959   21.5346    9.7263 O   0  0  0  0  0  0  0  0  0  0  0  0
   36.2622   22.7401   10.3008 C   0  0  0  0  0  0  0  0  0  0  0  0
   37.7731   22.7116   10.2889 C   0  0  0  0  0  0  0  0  0  0  0  0
   38.2967   24.0090   10.8719 C   0  0  0  0  0  0  0  0  0  0  0  0
   39.8121   24.0136   10.8736 C   0  0  0  0  0  0  0  0  0  0  0  0
   40.3191   25.3185   11.4594 C   0  0  0  0  0  0  0  0  0  0  0  0
   41.8357   25.3261   11.4628 C   0  0  0  0  0  0  0  0  0  0  0  0
   42.3451   26.6293   12.0478 C   0  0  0  0  0  0  0  0  0  0  0  0
   43.8618   26.6341   12.0499 C   0  0  0  0  0  0  0  0  0  0  0  0
   44.3720   27.9370   12.6350 C   0  0  0  0  0  0  0  0  0  0  0  0
   45.8887   27.9415   12.6370 C   0  0  0  0  0  0  0  0  0  0  0  0
   46.3988   29.2445   13.2221 C   0  0  0  0  0  0  0  0  0  0  0  0
   47.9154   29.2489   13.2241 C   0  0  0  0  0  0  0  0  0  0  0  0
   48.4255   30.5518   13.8093 C   0  0  0  0  0  0  0  0  0  0  0  0
   49.9421   30.5554   13.8130 C   0  0  0  0  0  0  0  0  0  0  0  0
   50.4522   31.8583   14.3982 C   0  0  0  0  0  0  0  0  0  0  0  0
   51.9688   31.8626   14.4001 C   0  0  0  0  0  0  0  0  0  0  0  0
   52.4788   33.1648   14.9871 C   0  0  0  0  0  0  0  0  0  0  0  0
   53.9954   33.1699   14.9873 C   0  0  0  0  0  0  0  0  0  0  0  0
   54.5055   34.4712   15.5760 C   0  0  0  0  0  0  0  0  0  0  0  0
   56.0221   34.4756   15.5779 C   0  0  0  0  0  0  0  0  0  0  0  0
   56.5321   35.7777   16.1650 C   0  0  0  0  0  0  0  0  0  0  0  0
   58.0488   35.7829   16.1651 C   0  0  0  0  0  0  0  0  0  0  0  0
   58.5588   37.0850   16.7520 C   0  0  0  0  0  0  0  0  0  0  0  0
   60.0754   37.0910   16.7503 C   0  0  0  0  0  0  0  0  0  0  0  0
   60.5855   38.3931   17.3373 C   0  0  0  0  0  0  0  0  0  0  0  0
   62.1021   38.3991   17.3355 C   0  0  0  0  0  0  0  0  0  0  0  0
   62.6121   39.7013   17.9225 C   0  0  0  0  0  0  0  0  0  0  0  0
   64.1288   39.7073   17.9208 C   0  0  0  0  0  0  0  0  0  0  0  0
   64.6388   41.0094   18.5077 C   0  0  0  0  0  0  0  0  0  0  0  0
   66.1554   41.0154   18.5060 C   0  0  0  0  0  0  0  0  0  0  0  0
   66.6654   42.3175   19.0930 C   0  0  0  0  0  0  0  0  0  0  0  0
   68.1821   42.3235   19.0913 C   0  0  0  0  0  0  0  0  0  0  0  0
   68.6922   43.6257   19.6782 C   0  0  0  0  0  0  0  0  0  0  0  0
   70.2088   43.6325   19.6747 C   0  0  0  0  0  0  0  0  0  0  0  0
   70.7190   44.9347   20.2617 C   0  0  0  0  0  0  0  0  0  0  0  0
   72.2358   44.9417   20.2582 C   0  0  0  0  0  0  0  0  0  0  0  0
   72.7463   46.2440   20.8453 C   0  0  0  0  0  0  0  0  0  0  0  0
   74.2633   46.2515   20.8419 C   0  0  0  0  0  0  0  0  0  0  0  0
   74.7748   47.5539   21.4291 C   0  0  0  0  0  0  0  0  0  0  0  0
   76.2927   47.5629   21.4243 C   0  0  0  0  0  0  0  0  0  0  0  0
   76.8066   48.8657   22.0116 C   0  0  0  0  0  0  0  0  0  0  0  0
   78.3267   48.8767   22.0076 C   0  0  0  0  0  0  0  0  0  0  0  0
   78.8433   50.1799   22.5972 C   0  0  0  0  0  0  0  0  0  0  0  0
   80.3659   50.2023   22.5963 C   0  0  0  0  0  0  0  0  0  0  0  0
   80.8784   51.5026   23.1846 C   0  0  0  0  0  0  0  0  0  0  0  0
   10.5140   10.8040   21.3843 H   0  0  0  0  0  0  0  0  0  0  0  0
   10.4078    9.8199   19.9143 H   0  0  0  0  0  0  0  0  0  0  0  0
   10.4473   11.5997   19.8080 H   0  0  0  0  0  0  0  0  0  0  0  0
   12.6398    9.9002   20.8181 H   0  0  0  0  0  0  0  0  0  0  0  0
   12.3832   11.4598   18.3271 H   0  0  0  0  0  0  0  0  0  0  0  0
   12.3448    9.6885   18.4392 H   0  0  0  0  0  0  0  0  0  0  0  0
   14.6449    9.7117   19.4316 H   0  0  0  0  0  0  0  0  0  0  0  0
   14.6774   11.4744   19.3144 H   0  0  0  0  0  0  0  0  0  0  0  0
   14.3639   11.3135   16.8340 H   0  0  0  0  0  0  0  0  0  0  0  0
   14.3300    9.5525   16.9519 H   0  0  0  0  0  0  0  0  0  0  0  0
   16.6336    9.5722   17.9286 H   0  0  0  0  0  0  0  0  0  0  0  0
   16.6678   11.3342   17.8128 H   0  0  0  0  0  0  0  0  0  0  0  0
   16.3469   11.1766   15.3341 H   0  0  0  0  0  0  0  0  0  0  0  0
   16.3151    9.4149   15.4506 H   0  0  0  0  0  0  0  0  0  0  0  0
   18.6172    9.4385   16.4338 H   0  0  0  0  0  0  0  0  0  0  0  0
   18.6487   11.2002   16.3173 H   0  0  0  0  0  0  0  0  0  0  0  0
   18.3282   11.0419   13.8392 H   0  0  0  0  0  0  0  0  0  0  0  0
   18.2989    9.2793   13.9567 H   0  0  0  0  0  0  0  0  0  0  0  0
   20.5997    9.3069   14.9467 H   0  0  0  0  0  0  0  0  0  0  0  0
   20.6294   11.0711   14.8242 H   0  0  0  0  0  0  0  0  0  0  0  0
   20.3082   10.9054   12.3457 H   0  0  0  0  0  0  0  0  0  0  0  0
   20.2778    9.1436   12.4675 H   0  0  0  0  0  0  0  0  0  0  0  0
   22.5799    9.1724   13.4525 H   0  0  0  0  0  0  0  0  0  0  0  0
   22.6098   10.9320   13.3404 H   0  0  0  0  0  0  0  0  0  0  0  0
   22.2905   10.7714   10.8534 H   0  0  0  0  0  0  0  0  0  0  0  0
   22.2627    9.0111   10.9756 H   0  0  0  0  0  0  0  0  0  0  0  0
   24.5623    9.0405   11.9608 H   0  0  0  0  0  0  0  0  0  0  0  0
   24.5937   10.8014   11.8374 H   0  0  0  0  0  0  0  0  0  0  0  0
   24.2762   10.6336    9.3592 H   0  0  0  0  0  0  0  0  0  0  0  0
   24.2488    8.8714    9.4831 H   0  0  0  0  0  0  0  0  0  0  0  0
   26.5484    8.9073   10.4743 H   0  0  0  0  0  0  0  0  0  0  0  0
   26.5747   10.6683   10.3479 H   0  0  0  0  0  0  0  0  0  0  0  0
   26.2533   10.4944    7.8727 H   0  0  0  0  0  0  0  0  0  0  0  0
   26.2289    8.7346    8.0003 H   0  0  0  0  0  0  0  0  0  0  0  0
   28.5497    8.7747    8.9727 H   0  0  0  0  0  0  0  0  0  0  0  0
   28.5758   10.5248    8.8389 H   0  0  0  0  0  0  0  0  0  0  0  0
   28.2159   10.3565    6.3906 H   0  0  0  0  0  0  0  0  0  0  0  0
   28.1882    8.5796    6.5007 H   0  0  0  0  0  0  0  0  0  0  0  0
   30.0979    8.4599    5.1088 H   0  0  0  0  0  0  0  0  0  0  0  0
   31.5633    9.3387    5.5687 H   0  0  0  0  0  0  0  0  0  0  0  0
   31.6085   11.6662    5.3416 H   0  0  0  0  0  0  0  0  0  0  0  0
   30.1563   11.8101    6.3734 H   0  0  0  0  0  0  0  0  0  0  0  0
   30.1630   14.1150    6.1483 H   0  0  0  0  0  0  0  0  0  0  0  0
   30.1427   14.8217    4.5128 H   0  0  0  0  0  0  0  0  0  0  0  0
   32.0659   15.3077    6.6846 H   0  0  0  0  0  0  0  0  0  0  0  0
   32.0709   16.0682    5.0601 H   0  0  0  0  0  0  0  0  0  0  0  0
   33.9846   17.2801    5.5936 H   0  0  0  0  0  0  0  0  0  0  0  0
   35.4327   16.4163    6.1718 H   0  0  0  0  0  0  0  0  0  0  0  0
   33.9841   18.6257    7.4724 H   0  0  0  0  0  0  0  0  0  0  0  0
   35.4595   17.8115    8.0887 H   0  0  0  0  0  0  0  0  0  0  0  0
   35.4552   19.1443    9.9836 H   0  0  0  0  0  0  0  0  0  0  0  0
   33.9992   19.2411   11.0030 H   0  0  0  0  0  0  0  0  0  0  0  0
   34.0053   21.6102   10.7791 H   0  0  0  0  0  0  0  0  0  0  0  0
   33.9863   22.3128    9.1383 H   0  0  0  0  0  0  0  0  0  0  0  0
   35.8912   22.8332   11.3258 H   0  0  0  0  0  0  0  0  0  0  0  0
   35.8921   23.5824    9.7030 H   0  0  0  0  0  0  0  0  0  0  0  0
   38.1382   22.5681    9.2644 H   0  0  0  0  0  0  0  0  0  0  0  0
   38.1373   21.8505   10.8643 H   0  0  0  0  0  0  0  0  0  0  0  0
   37.9214   24.1354   11.8953 H   0  0  0  0  0  0  0  0  0  0  0  0
   37.9223   24.8569   10.2845 H   0  0  0  0  0  0  0  0  0  0  0  0
   40.1872   23.8911    9.8502 H   0  0  0  0  0  0  0  0  0  0  0  0
   40.1882   23.1670   11.4610 H   0  0  0  0  0  0  0  0  0  0  0  0
   39.9423   25.4420   12.4824 H   0  0  0  0  0  0  0  0  0  0  0  0
   39.9422   26.1650   10.8717 H   0  0  0  0  0  0  0  0  0  0  0  0
   42.2117   25.2033   10.4393 H   0  0  0  0  0  0  0  0  0  0  0  0
   42.2118   24.4797   12.0505 H   0  0  0  0  0  0  0  0  0  0  0  0
   41.9692   26.7524   13.0710 H   0  0  0  0  0  0  0  0  0  0  0  0
   41.9692   27.4758   11.4599 H   0  0  0  0  0  0  0  0  0  0  0  0
   44.2377   26.5111   11.0267 H   0  0  0  0  0  0  0  0  0  0  0  0
   44.2377   25.7876   12.6377 H   0  0  0  0  0  0  0  0  0  0  0  0
   43.9963   28.0601   13.6583 H   0  0  0  0  0  0  0  0  0  0  0  0
   43.9963   28.7836   12.0472 H   0  0  0  0  0  0  0  0  0  0  0  0
   46.2645   27.8185   11.6137 H   0  0  0  0  0  0  0  0  0  0  0  0
   46.2646   27.0950   13.2248 H   0  0  0  0  0  0  0  0  0  0  0  0
   46.0230   29.3675   14.2454 H   0  0  0  0  0  0  0  0  0  0  0  0
   46.0230   30.0910   12.6343 H   0  0  0  0  0  0  0  0  0  0  0  0
   48.2913   29.1258   12.2009 H   0  0  0  0  0  0  0  0  0  0  0  0
   48.2912   28.4023   13.8120 H   0  0  0  0  0  0  0  0  0  0  0  0
   48.0486   30.6756   14.8320 H   0  0  0  0  0  0  0  0  0  0  0  0
   48.0508   31.3983   13.2206 H   0  0  0  0  0  0  0  0  0  0  0  0
   50.3190   30.4316   12.7903 H   0  0  0  0  0  0  0  0  0  0  0  0
   50.3168   29.7089   14.4017 H   0  0  0  0  0  0  0  0  0  0  0  0
   50.0763   31.9813   15.4214 H   0  0  0  0  0  0  0  0  0  0  0  0
   50.0765   32.7049   13.8104 H   0  0  0  0  0  0  0  0  0  0  0  0
   52.3445   31.7410   13.3767 H   0  0  0  0  0  0  0  0  0  0  0  0
   52.3446   31.0153   14.9868 H   0  0  0  0  0  0  0  0  0  0  0  0
   52.1041   33.2856   16.0110 H   0  0  0  0  0  0  0  0  0  0  0  0
   52.1019   34.0123   14.4013 H   0  0  0  0  0  0  0  0  0  0  0  0
   54.3701   33.0504   13.9632 H   0  0  0  0  0  0  0  0  0  0  0  0
   54.3724   32.3217   15.5719 H   0  0  0  0  0  0  0  0  0  0  0  0
   54.1298   34.5915   16.5997 H   0  0  0  0  0  0  0  0  0  0  0  0
   54.1296   35.3194   14.9905 H   0  0  0  0  0  0  0  0  0  0  0  0
   56.3979   34.3540   14.5545 H   0  0  0  0  0  0  0  0  0  0  0  0
   56.3979   33.6282   16.1645 H   0  0  0  0  0  0  0  0  0  0  0  0
   56.1575   35.8986   17.1889 H   0  0  0  0  0  0  0  0  0  0  0  0
   56.1552   36.6252   15.5792 H   0  0  0  0  0  0  0  0  0  0  0  0
   58.4233   35.6620   15.1411 H   0  0  0  0  0  0  0  0  0  0  0  0
   58.4258   34.9354   16.7508 H   0  0  0  0  0  0  0  0  0  0  0  0
   58.1853   37.2053   17.7765 H   0  0  0  0  0  0  0  0  0  0  0  0
   58.1807   37.9326   16.1671 H   0  0  0  0  0  0  0  0  0  0  0  0
   60.4489   36.9708   15.7259 H   0  0  0  0  0  0  0  0  0  0  0  0
   60.4536   36.2435   17.3352 H   0  0  0  0  0  0  0  0  0  0  0  0
   60.2120   38.5135   18.3617 H   0  0  0  0  0  0  0  0  0  0  0  0
   60.2073   39.2407   16.7523 H   0  0  0  0  0  0  0  0  0  0  0  0
   62.4755   38.2789   16.3111 H   0  0  0  0  0  0  0  0  0  0  0  0
   62.4802   37.5516   17.9204 H   0  0  0  0  0  0  0  0  0  0  0  0
   62.2387   39.8215   18.9469 H   0  0  0  0  0  0  0  0  0  0  0  0
   62.2340   40.5488   17.3376 H   0  0  0  0  0  0  0  0  0  0  0  0
   64.5022   39.5870   16.8964 H   0  0  0  0  0  0  0  0  0  0  0  0
   64.5069   38.8597   18.5057 H   0  0  0  0  0  0  0  0  0  0  0  0
   64.2653   41.1296   19.5321 H   0  0  0  0  0  0  0  0  0  0  0  0
   64.2606   41.8569   17.9228 H   0  0  0  0  0  0  0  0  0  0  0  0
   66.5288   40.8952   17.4816 H   0  0  0  0  0  0  0  0  0  0  0  0
   66.5335   40.1679   19.0909 H   0  0  0  0  0  0  0  0  0  0  0  0
   66.2920   42.4377   20.1175 H   0  0  0  0  0  0  0  0  0  0  0  0
   66.2873   43.1650   18.5081 H   0  0  0  0  0  0  0  0  0  0  0  0
   68.5554   42.2033   18.0668 H   0  0  0  0  0  0  0  0  0  0  0  0
   68.5603   41.4760   19.6762 H   0  0  0  0  0  0  0  0  0  0  0  0
   68.3198   43.7452   20.7032 H   0  0  0  0  0  0  0  0  0  0  0  0
   68.3129   44.4733   19.0942 H   0  0  0  0  0  0  0  0  0  0  0  0
   70.5810   43.5130   18.6497 H   0  0  0  0  0  0  0  0  0  0  0  0
   70.5881   42.7849   20.2587 H   0  0  0  0  0  0  0  0  0  0  0  0
   70.3466   45.0542   21.2866 H   0  0  0  0  0  0  0  0  0  0  0  0
   70.3396   45.7822   19.6776 H   0  0  0  0  0  0  0  0  0  0  0  0
   72.6079   44.8221   19.2332 H   0  0  0  0  0  0  0  0  0  0  0  0
   72.6149   44.0940   20.8421 H   0  0  0  0  0  0  0  0  0  0  0  0
   72.3737   46.3633   21.8702 H   0  0  0  0  0  0  0  0  0  0  0  0
   72.3666   47.0914   20.2612 H   0  0  0  0  0  0  0  0  0  0  0  0
   74.6351   46.1316   19.8168 H   0  0  0  0  0  0  0  0  0  0  0  0
   74.6423   45.4036   21.4257 H   0  0  0  0  0  0  0  0  0  0  0  0
   74.4029   47.6724   22.4543 H   0  0  0  0  0  0  0  0  0  0  0  0
   74.3936   48.4012   20.8457 H   0  0  0  0  0  0  0  0  0  0  0  0
   76.6626   47.4433   20.3985 H   0  0  0  0  0  0  0  0  0  0  0  0
   76.6720   46.7145   22.0070 H   0  0  0  0  0  0  0  0  0  0  0  0
   76.4338   48.9837   23.0365 H   0  0  0  0  0  0  0  0  0  0  0  0
   76.4244   49.7125   21.4282 H   0  0  0  0  0  0  0  0  0  0  0  0
   78.6952   48.7579   20.9814 H   0  0  0  0  0  0  0  0  0  0  0  0
   78.7048   48.0270   22.5890 H   0  0  0  0  0  0  0  0  0  0  0  0
   78.4689   50.2946   23.6219 H   0  0  0  0  0  0  0  0  0  0  0  0
   78.4572   51.0261   22.0156 H   0  0  0  0  0  0  0  0  0  0  0  0
   80.7399   50.0894   21.5720 H   0  0  0  0  0  0  0  0  0  0  0  0
   80.7516   49.3576   23.1789 H   0  0  0  0  0  0  0  0  0  0  0  0
   80.5224   52.3583   22.6022 H   0  0  0  0  0  0  0  0  0  0  0  0
   81.9718   51.5149   23.1822 H   0  0  0  0  0  0  0  0  0  0  0  0
   80.5343   51.6231   24.2167 H   0  0  0  0  0  0  0  0  0  0  0  0
  1  2  1  0  0  0  0
  1 82  1  0  0  0  0
  1 83  1  0  0  0  0
  1 84  1  0  0  0  0
  2  3  1  0  0  0  0
  2 85  1  0  0  0  0
  3  4  1  0  0  0  0
  3 86  1  0  0  0  0
  3 87  1  0  0  0  0
  4  5  1  0  0  0  0
  4 88  1  0  0  0  0
  4 89  1  0  0  0  0
  5  6  1  0  0  0  0
  5 90  1  0  0  0  0
  5 91  1  0  0  0  0
  6  7  1  0  0  0  0
  6 92  1  0  0  0  0
  6 93  1  0  0  0  0
  7  8  1  0  0  0  0
  7 94  1  0  0  0  0
  7 95  1  0  0  0  0
  8  9  1  0  0  0  0
  8 96  1  0  0  0  0
  8 97  1  0  0  0  0
  9 10  1  0  0  0  0
  9 98  1  0  0  0  0
  9 99  1  0  0  0  0
 10 11  1  0  0  0  0
 10100  1  0  0  0  0
 10101  1  0  0  0  0
 11 12  1  0  0  0  0
 11102  1  0  0  0  0
 11103  1  0  0  0  0
 12 13  1  0  0  0  0
 12104  1  0  0  0  0
 12105  1  0  0  0  0
 13 14  1  0  0  0  0
 13106  1  0  0  0  0
 13107  1  0  0  0  0
 14 15  1  0  0  0  0
 14108  1  0  0  0  0
 14109  1  0  0  0  0
 15 16  1  0  0  0  0
 15110  1  0  0  0  0
 15111  1  0  0  0  0
 16 17  1  0  0  0  0
 16112  1  0  0  0  0
 16113  1  0  0  0  0
 17 18  1  0  0  0  0
 17114  1  0  0  0  0
 17115  1  0  0  0  0
 18 19  1  0  0  0  0
 18116  1  0  0  0  0
 18117  1  0  0  0  0
 19 20  1  0  0  0  0
 19118  1  0  0  0  0
 19119  1  0  0  0  0
 20 21  1  0  0  0  0
 21 22  1  0  0  0  0
 21120  1  0  0  0  0
 21121  1  0  0  0  0
 22 23  1  0  0  0  0
 23 24  1  0  0  0  0
 23122  1  0  0  0  0
 23123  1  0  0  0  0
 24 25  1  0  0  0  0
 25 26  1  0  0  0  0
 25124  1  0  0  0  0
 25125  1  0  0  0  0
 26 27  1  0  0  0  0
 27 28  1  0  0  0  0
 27126  1  0  0  0  0
 27127  1  0  0  0  0
 28 29  1  0  0  0  0
 29 30  1  0  0  0  0
 29128  1  0  0  0  0
 29129  1  0  0  0  0
 30 31  1  0  0  0  0
 31 32  1  0  0  0  0
 31130  1  0  0  0  0
 31131  1  0  0  0  0
 32 33  1  0  0  0  0
 33 34  1  0  0  0  0
 33132  1  0  0  0  0
 33133  1  0  0  0  0
 34 35  1  0  0  0  0
 35 36  1  0  0  0  0
 35134  1  0  0  0  0
 35135  1  0  0  0  0
 36 37  1  0  0  0  0
 37 38  1  0  0  0  0
 37136  1  0  0  0  0
 37137  1  0  0  0  0
 38 39  1  0  0  0  0
 38138  1  0  0  0  0
 38139  1  0  0  0  0
 39 40  1  0  0  0  0
 39140  1  0  0  0  0
 39141  1  0  0  0  0
 40 41  1  0  0  0  0
 40142  1  0  0  0  0
 40143  1  0  0  0  0
 41 42  1  0  0  0  0
 41144  1  0  0  0  0
 41145  1  0  0  0  0
 42 43  1  0  0  0  0
 42146  1  0  0  0  0
 42147  1  0  0  0  0
 43 44  1  0  0  0  0
 43148  1  0  0  0  0
 43149  1  0  0  0  0
 44 45  1  0  0  0  0
 44150  1  0  0  0  0
 44151  1  0  0  0  0
 45 46  1  0  0  0  0
 45152  1  0  0  0  0
 45153  1  0  0  0  0
 46 47  1  0  0  0  0
 46154  1  0  0  0  0
 46155  1  0  0  0  0
 47 48  1  0  0  0  0
 47156  1  0  0  0  0
 47157  1  0  0  0  0
 48 49  1  0  0  0  0
 48158  1  0  0  0  0
 48159  1  0  0  0  0
 49 50  1  0  0  0  0
 49160  1  0  0  0  0
 49161  1  0  0  0  0
 50 51  1  0  0  0  0
 50162  1  0  0  0  0
 50163  1  0  0  0  0
 51 52  1  0  0  0  0
 51164  1  0  0  0  0
 51165  1  0  0  0  0
 52 53  1  0  0  0  0
 52166  1  0  0  0  0
 52167  1  0  0  0  0
 53 54  1  0  0  0  0
 53168  1  0  0  0  0
 53169  1  0  0  0  0
 54 55  1  0  0  0  0
 54170  1  0  0  0  0
 54171  1  0  0  0  0
 55 56  1  0  0  0  0
 55172  1  0  0  0  0
 55173  1  0  0  0  0
 56 57  1  0  0  0  0
 56174  1  0  0  0  0
 56175  1  0  0  0  0
 57 58  1  0  0  0  0
 57176  1  0  0  0  0
 57177  1  0  0  0  0
 58 59  1  0  0  0  0
 58178  1  0  0  0  0
 58179  1  0  0  0  0
 59 60  1  0  0  0  0
 59180  1  0  0  0  0
 59181  1  0  0  0  0
 60 61  1  0  0  0  0
 60182  1  0  0  0  0
 60183  1  0  0  0  0
 61 62  1  0  0  0  0
 61184  1  0  0  0  0
 61185  1  0  0  0  0
 62 63  1  0  0  0  0
 62186  1  0  0  0  0
 62187  1  0  0  0  0
 63 64  1  0  0  0  0
 63188  1  0  0  0  0
 63189  1  0  0  0  0
 64 65  1  0  0  0  0
 64190  1  0  0  0  0
 64191  1  0  0  0  0
 65 66  1  0  0  0  0
 65192  1  0  0  0  0
 65193  1  0  0  0  0
 66 67  1  0  0  0  0
 66194  1  0  0  0  0
 66195  1  0  0  0  0
 67 68  1  0  0  0  0
 67196  1  0  0  0  0
 67197  1  0  0  0  0
 68 69  1  0  0  0  0
 68198  1  0  0  0  0
 68199  1  0  0  0  0
 69 70  1  0  0  0  0
 69200  1  0  0  0  0
 69201  1  0  0  0  0
 70 71  1  0  0  0  0
 70202  1  0  0  0  0
 70203  1  0  0  0  0
 71 72  1  0  0  0  0
 71204  1  0  0  0  0
 71205  1  0  0  0  0
 72 73  1  0  0  0  0
 72206  1  0  0  0  0
 72207  1  0  0  0  0
 73 74  1  0  0  0  0
 73208  1  0  0  0  0
 73209  1  0  0  0  0
 74 75  1  0  0  0  0
 74210  1  0  0  0  0
 74211  1  0  0  0  0
 75 76  1  0  0  0  0
 75212  1  0  0  0  0
 75213  1  0  0  0  0
 76 77  1  0  0  0  0
 76214  1  0  0  0  0
 76215  1  0  0  0  0
 77 78  1  0  0  0  0
 77216  1  0  0  0  0
 77217  1  0  0  0  0
 78 79  1  0  0  0  0
 78218  1  0  0  0  0
 78219  1  0  0  0  0
 79 80  1  0  0  0  0
 79220  1  0  0  0  0
 79221  1  0  0  0  0
 80 81  1  0  0  0  0
 80222  1  0  0  0  0
 80223  1  0  0  0  0
 81224  1  0  0  0  0
 81225  1  0  0  0  0
 81226  1  0  0  0  0
M  END
$$$$
