
 OpenBabel04232216393D

 33 33  0  0  1  0  0  0  0  0999 V2000
    1.7403   -0.7010    2.8488 C   0  0  0  0  0  0  0  0  0  0  0  0
    2.6716    0.2083    2.5363 C   0  0  0  0  0  0  0  0  0  0  0  0
    3.1013    0.5371    1.1274 C   0  0  0  0  0  0  0  0  0  0  0  0
    4.6131    0.2972    0.8733 C   0  0  3  0  0  0  0  0  0  0  0  0
    4.9732   -1.1586    1.0361 C   0  0  0  0  0  3  0  0  0  0  0  0
    4.5905   -2.1182   -0.0437 C   0  0  0  0  0  0  0  0  0  0  0  0
    4.8798   -1.5874   -1.4476 C   0  0  0  0  0  0  0  0  0  0  0  0
    4.4848   -0.1213   -1.6343 C   0  0  0  0  0  0  0  0  0  0  0  0
    5.0610    0.7937   -0.5333 C   0  0  3  0  0  0  0  0  0  0  0  0
    6.6104    0.9033   -0.5939 C   0  0  0  0  0  0  0  0  0  0  0  0
    7.1517    1.4954   -1.8987 C   0  0  0  0  0  0  0  0  0  0  0  0
    8.6741    1.5392   -1.8958 C   0  0  0  0  0  0  0  0  0  0  0  0
    1.4746   -0.8925    3.8839 H   0  0  0  0  0  0  0  0  0  0  0  0
    1.2276   -1.2800    2.0852 H   0  0  0  0  0  0  0  0  0  0  0  0
    3.1570    0.7613    3.3384 H   0  0  0  0  0  0  0  0  0  0  0  0
    2.8720    1.5960    0.9518 H   0  0  0  0  0  0  0  0  0  0  0  0
    2.4928   -0.0320    0.4148 H   0  0  0  0  0  0  0  0  0  0  0  0
    5.1695    0.8675    1.6303 H   0  0  0  0  0  0  0  0  0  0  0  0
    5.1563   -1.5389    2.0357 H   0  0  0  0  0  0  0  0  0  0  0  0
    3.5232   -2.3474    0.0534 H   0  0  0  0  0  0  0  0  0  0  0  0
    5.1317   -3.0594    0.1034 H   0  0  0  0  0  0  0  0  0  0  0  0
    4.3469   -2.2030   -2.1818 H   0  0  0  0  0  0  0  0  0  0  0  0
    5.9474   -1.7071   -1.6685 H   0  0  0  0  0  0  0  0  0  0  0  0
    3.3911   -0.0433   -1.6388 H   0  0  0  0  0  0  0  0  0  0  0  0
    4.7984    0.2161   -2.6274 H   0  0  0  0  0  0  0  0  0  0  0  0
    4.6596    1.8056   -0.6884 H   0  0  0  0  0  0  0  0  0  0  0  0
    7.0701   -0.0787   -0.4325 H   0  0  0  0  0  0  0  0  0  0  0  0
    6.9482    1.5378    0.2358 H   0  0  0  0  0  0  0  0  0  0  0  0
    6.7598    2.5090   -2.0381 H   0  0  0  0  0  0  0  0  0  0  0  0
    6.8354    0.8992   -2.7597 H   0  0  0  0  0  0  0  0  0  0  0  0
    9.0506    2.1544   -1.0726 H   0  0  0  0  0  0  0  0  0  0  0  0
    9.0437    1.9620   -2.8350 H   0  0  0  0  0  0  0  0  0  0  0  0
    9.0932    0.5321   -1.7918 H   0  0  0  0  0  0  0  0  0  0  0  0
  1  2  2  0  0  0  0
  1 13  1  0  0  0  0
  1 14  1  0  0  0  0
  2  3  1  0  0  0  0
  2 15  1  0  0  0  0
  3  4  1  0  0  0  0
  3 16  1  0  0  0  0
  3 17  1  0  0  0  0
  4  5  1  0  0  0  0
  4  9  1  0  0  0  0
  4 18  1  0  0  0  0
  5  6  1  0  0  0  0
  5 19  1  0  0  0  0
  6  7  1  0  0  0  0
  6 20  1  0  0  0  0
  6 21  1  0  0  0  0
  7  8  1  0  0  0  0
  7 22  1  0  0  0  0
  7 23  1  0  0  0  0
  8  9  1  0  0  0  0
  8 24  1  0  0  0  0
  8 25  1  0  0  0  0
  9 10  1  0  0  0  0
  9 26  1  0  0  0  0
 10 11  1  0  0  0  0
 10 27  1  0  0  0  0
 10 28  1  0  0  0  0
 11 12  1  0  0  0  0
 11 29  1  0  0  0  0
 11 30  1  0  0  0  0
 12 31  1  0  0  0  0
 12 32  1  0  0  0  0
 12 33  1  0  0  0  0
M  END
$$$$
