
 OpenBabel04232216573D

164163  0  0  0  0  0  0  0  0999 V2000
   61.1956   34.4028   -0.6228 C   0  0  0  0  0  0  0  0  0  0  0  0
   60.2939   33.0082    0.0905 S   0  0  0  0  0  0  0  0  0  0  0  0
   61.0975   31.6647   -0.8549 C   0  0  0  0  0  0  0  0  0  0  0  0
   60.4310   30.3044   -0.5888 C   0  0  0  0  0  0  0  0  0  0  0  0
   58.9942   30.2584   -0.9082 N   0  0  0  0  0  0  0  0  0  0  0  0
   58.8235   30.3104   -2.3177 N   0  0  0  0  0  0  0  0  0  0  0  0
   57.4477   30.3938   -2.6140 N   0  0  0  0  0  0  0  0  0  0  0  0
   57.2268   30.5827   -4.0055 N   0  0  0  0  0  0  0  0  0  0  0  0
   57.8461   29.5796   -4.8337 N   0  0  0  0  0  0  0  0  0  0  0  0
   57.1847   28.0654   -4.6887 S   0  0  0  0  0  0  0  0  0  0  0  0
   55.5612   28.2681   -4.9387 N   0  0  0  0  0  0  0  0  0  0  0  0
   55.3002   28.9006   -6.4361 S   0  0  0  0  0  0  0  0  0  0  0  0
   53.8886   28.2640   -6.9603 N   0  0  0  0  0  0  0  0  0  0  0  0
   53.7587   28.6281   -8.5598 S   0  0  0  0  0  0  0  0  0  0  0  0
   54.7421   27.3425   -9.3741 C   0  0  0  0  0  0  0  0  0  0  0  0
   54.7450   27.2913  -11.2629 S   0  0  0  0  0  0  0  0  0  0  0  0
   55.2490   28.9838  -11.7584 C   0  0  0  0  0  0  0  0  0  0  0  0
   55.1598   29.3177  -13.6292 S   0  0  0  0  0  0  0  0  0  0  0  0
   53.3770   29.5598  -14.1662 C   0  0  0  0  0  0  0  0  0  0  0  0
   53.2725   30.5599  -15.7556 S   0  0  0  0  0  0  0  0  0  0  0  0
   51.4732   30.7911  -15.9538 C   0  0  0  0  0  0  0  0  0  0  0  0
   50.8590   32.4188  -16.5828 S   0  0  0  0  0  0  0  0  0  0  0  0
   51.6954   33.7613  -15.6644 C   0  0  0  0  0  0  0  0  0  0  0  0
   50.8760   34.9199  -14.5135 S   0  0  0  0  0  0  0  0  0  0  0  0
   51.4016   34.4466  -12.8317 C   0  0  0  0  0  0  0  0  0  0  0  0
   53.1205   34.0262  -12.5457 S   0  0  0  0  0  0  0  0  0  0  0  0
   53.1095   33.7202  -10.7478 C   0  0  0  0  0  0  0  0  0  0  0  0
   52.6903   32.1026  -10.0176 S   0  0  0  0  0  0  0  0  0  0  0  0
   52.5082   31.0099  -11.4119 C   0  0  0  0  0  0  0  0  0  0  0  0
   52.1780   29.2378  -11.1228 S   0  0  0  0  0  0  0  0  0  0  0  0
   50.5581   28.5789  -11.4762 C   0  0  0  0  0  0  0  0  0  0  0  0
   50.1024   28.5567  -13.2227 S   0  0  0  0  0  0  0  0  0  0  0  0
   48.2898   28.7268  -13.1563 C   0  0  0  0  0  0  0  0  0  0  0  0
   47.6290   29.0433  -11.5240 S   0  0  0  0  0  0  0  0  0  0  0  0
   46.7334   30.5866  -11.6562 C   0  0  0  0  0  0  0  0  0  0  0  0
   45.1579   30.2464  -11.1223 S   0  0  0  0  0  0  0  0  0  0  0  0
   45.4134   29.6514   -9.4622 C   0  0  0  0  0  0  0  0  0  0  0  0
   44.8475   30.9881   -8.4006 S   0  0  0  0  0  0  0  0  0  0  0  0
   45.4958   30.3405   -6.8855 C   0  0  0  0  0  0  0  0  0  0  0  0
   47.3070   30.2906   -6.8306 S   0  0  0  0  0  0  0  0  0  0  0  0
   47.7064   31.9402   -7.4950 C   0  0  0  0  0  0  0  0  0  0  0  0
   49.4837   32.0736   -7.7802 S   0  0  0  0  0  0  0  0  0  0  0  0
   49.5010   31.3528   -9.4479 C   0  0  0  0  0  0  0  0  0  0  0  0
   49.1496   32.6712  -10.7260 S   0  0  0  0  0  0  0  0  0  0  0  0
   49.3595   31.7638  -12.2706 C   0  0  0  0  0  0  0  0  0  0  0  0
   48.9422   32.3909  -13.8970 S   0  0  0  0  0  0  0  0  0  0  0  0
   47.2106   32.3209  -14.0754 C   0  0  0  0  0  0  0  0  0  0  0  0
   46.3677   33.2258  -15.3413 S   0  0  0  0  0  0  0  0  0  0  0  0
   44.6736   32.9287  -14.6750 C   0  0  0  0  0  0  0  0  0  0  0  0
   44.4527   33.7069  -13.0286 S   0  0  0  0  0  0  0  0  0  0  0  0
   42.7674   33.1915  -12.5636 C   0  0  0  0  0  0  0  0  0  0  0  0
   42.4893   31.3854  -12.5672 S   0  0  0  0  0  0  0  0  0  0  0  0
   42.3497   30.8241  -10.8543 C   0  0  0  0  0  0  0  0  0  0  0  0
   42.4745   28.8140  -10.5939 S   0  0  0  0  0  0  0  0  0  0  0  0
   43.2676   27.9859  -12.1197 C   0  0  0  0  0  0  0  0  0  0  0  0
   44.8973   27.2023  -12.1475 S   0  0  0  0  0  0  0  0  0  0  0  0
   45.3136   26.9236  -13.9221 C   0  0  0  0  0  0  0  0  0  0  0  0
   44.4789   27.6931  -15.3393 S   0  0  0  0  0  0  0  0  0  0  0  0
   44.7568   29.4505  -15.3028 C   0  0  0  0  0  0  0  0  0  0  0  0
   43.9202   30.2941  -16.7206 S   0  0  0  0  0  0  0  0  0  0  0  0
   42.1226   30.2696  -16.3062 C   0  0  0  0  0  0  0  0  0  0  0  0
   41.5004   31.7723  -15.5616 S   0  0  0  0  0  0  0  0  0  0  0  0
   39.9119   31.4100  -14.7418 C   0  0  0  0  0  0  0  0  0  0  0  0
   39.2621   29.8775  -14.0172 S   0  0  0  0  0  0  0  0  0  0  0  0
   40.6257   28.9778  -13.3532 C   0  0  0  0  0  0  0  0  0  0  0  0
   40.4827   27.1787  -13.2047 S   0  0  0  0  0  0  0  0  0  0  0  0
   41.1483   26.5517  -14.7793 C   0  0  0  0  0  0  0  0  0  0  0  0
   42.4273   25.2875  -14.7407 S   0  0  0  0  0  0  0  0  0  0  0  0
   42.8145   25.0869  -16.5371 C   0  0  0  0  0  0  0  0  0  0  0  0
   41.5750   25.6029  -17.7637 S   0  0  0  0  0  0  0  0  0  0  0  0
   42.0409   27.3302  -18.0403 C   0  0  0  0  0  0  0  0  0  0  0  0
   40.9741   28.2134  -19.2355 S   0  0  0  0  0  0  0  0  0  0  0  0
   39.2706   28.0377  -18.5599 C   0  0  0  0  0  0  0  0  0  0  0  0
   39.0518   28.8803  -17.0069 S   0  0  0  0  0  0  0  0  0  0  0  0
   37.3641   28.4464  -16.4472 C   0  0  0  0  0  0  0  0  0  0  0  0
   36.9757   26.6457  -16.2635 S   0  0  0  0  0  0  0  0  0  0  0  0
   37.8365   26.2432  -14.6999 C   0  0  0  0  0  0  0  0  0  0  0  0
   37.8899   24.4149  -14.4290 S   0  0  0  0  0  0  0  0  0  0  0  0
   39.2745   24.0301  -13.2389 C   0  0  0  0  0  0  0  0  0  0  0  0
   39.0008   24.4841  -11.5021 S   0  0  0  0  0  0  0  0  0  0  0  0
   40.6905   24.2274  -10.8170 C   0  0  0  0  0  0  0  0  0  0  0  0
   60.8398   35.3305   -0.1685 H   0  0  0  0  0  0  0  0  0  0  0  0
   61.0243   34.4553   -1.7013 H   0  0  0  0  0  0  0  0  0  0  0  0
   62.2658   34.3039   -0.4244 H   0  0  0  0  0  0  0  0  0  0  0  0
   62.1515   31.6191   -0.5603 H   0  0  0  0  0  0  0  0  0  0  0  0
   61.0558   31.9096   -1.9217 H   0  0  0  0  0  0  0  0  0  0  0  0
   60.5377   30.0510    0.4729 H   0  0  0  0  0  0  0  0  0  0  0  0
   60.9672   29.5170   -1.1354 H   0  0  0  0  0  0  0  0  0  0  0  0
   58.5538   31.0670   -0.4624 H   0  0  0  0  0  0  0  0  0  0  0  0
   59.1514   29.4270   -2.7277 H   0  0  0  0  0  0  0  0  0  0  0  0
   56.9814   31.1179   -2.0626 H   0  0  0  0  0  0  0  0  0  0  0  0
   57.5488   31.5121   -4.2930 H   0  0  0  0  0  0  0  0  0  0  0  0
   58.8548   29.5603   -4.7194 H   0  0  0  0  0  0  0  0  0  0  0  0
   55.2283   28.9291   -4.2373 H   0  0  0  0  0  0  0  0  0  0  0  0
   53.1144   28.6817   -6.4250 H   0  0  0  0  0  0  0  0  0  0  0  0
   54.2973   26.3896   -9.0635 H   0  0  0  0  0  0  0  0  0  0  0  0
   55.7721   27.3664   -9.0217 H   0  0  0  0  0  0  0  0  0  0  0  0
   56.3171   29.0122  -11.5511 H   0  0  0  0  0  0  0  0  0  0  0  0
   54.8458   29.7913  -11.1313 H   0  0  0  0  0  0  0  0  0  0  0  0
   52.8355   30.2072  -13.5148 H   0  0  0  0  0  0  0  0  0  0  0  0
   52.8755   28.5958  -14.2648 H   0  0  0  0  0  0  0  0  0  0  0  0
   50.9053   30.5079  -15.0701 H   0  0  0  0  0  0  0  0  0  0  0  0
   51.1563   30.0799  -16.7320 H   0  0  0  0  0  0  0  0  0  0  0  0
   51.7172   34.4702  -16.4990 H   0  0  0  0  0  0  0  0  0  0  0  0
   52.7356   33.5735  -15.4358 H   0  0  0  0  0  0  0  0  0  0  0  0
   50.8723   33.5662  -12.5674 H   0  0  0  0  0  0  0  0  0  0  0  0
   51.0466   35.2066  -12.1236 H   0  0  0  0  0  0  0  0  0  0  0  0
   52.4926   34.4708  -10.2418 H   0  0  0  0  0  0  0  0  0  0  0  0
   54.1357   33.9098  -10.4215 H   0  0  0  0  0  0  0  0  0  0  0  0
   53.5354   31.0138  -11.7584 H   0  0  0  0  0  0  0  0  0  0  0  0
   52.0093   31.4251  -12.2594 H   0  0  0  0  0  0  0  0  0  0  0  0
   49.9003   29.0657  -10.7742 H   0  0  0  0  0  0  0  0  0  0  0  0
   50.5572   27.5248  -11.1615 H   0  0  0  0  0  0  0  0  0  0  0  0
   47.9255   27.7328  -13.3667 H   0  0  0  0  0  0  0  0  0  0  0  0
   47.9250   29.3799  -13.9528 H   0  0  0  0  0  0  0  0  0  0  0  0
   46.4563   30.8753  -12.6347 H   0  0  0  0  0  0  0  0  0  0  0  0
   46.9847   31.4389  -11.0400 H   0  0  0  0  0  0  0  0  0  0  0  0
   46.4534   29.3966   -9.2812 H   0  0  0  0  0  0  0  0  0  0  0  0
   44.8418   28.7402   -9.2813 H   0  0  0  0  0  0  0  0  0  0  0  0
   45.0906   29.3307   -6.7697 H   0  0  0  0  0  0  0  0  0  0  0  0
   45.1106   30.9655   -6.0836 H   0  0  0  0  0  0  0  0  0  0  0  0
   47.3897   32.7033   -6.7848 H   0  0  0  0  0  0  0  0  0  0  0  0
   47.2264   32.1385   -8.4556 H   0  0  0  0  0  0  0  0  0  0  0  0
   48.7926   30.5260   -9.4815 H   0  0  0  0  0  0  0  0  0  0  0  0
   50.4758   30.8944   -9.5624 H   0  0  0  0  0  0  0  0  0  0  0  0
   49.2607   30.7159  -12.1398 H   0  0  0  0  0  0  0  0  0  0  0  0
   50.4088   31.7922  -12.4172 H   0  0  0  0  0  0  0  0  0  0  0  0
   46.8676   32.7333  -13.1371 H   0  0  0  0  0  0  0  0  0  0  0  0
   46.9582   31.2875  -14.2846 H   0  0  0  0  0  0  0  0  0  0  0  0
   44.5523   31.8726  -14.5427 H   0  0  0  0  0  0  0  0  0  0  0  0
   43.9660   33.3358  -15.4036 H   0  0  0  0  0  0  0  0  0  0  0  0
   42.1040   33.6542  -13.3005 H   0  0  0  0  0  0  0  0  0  0  0  0
   42.5289   33.6411  -11.5969 H   0  0  0  0  0  0  0  0  0  0  0  0
   41.4316   31.1428  -10.3608 H   0  0  0  0  0  0  0  0  0  0  0  0
   43.1256   31.3438  -10.2961 H   0  0  0  0  0  0  0  0  0  0  0  0
   43.1603   28.5894  -13.0024 H   0  0  0  0  0  0  0  0  0  0  0  0
   42.6987   27.0662  -12.1669 H   0  0  0  0  0  0  0  0  0  0  0  0
   45.1873   25.8441  -14.0605 H   0  0  0  0  0  0  0  0  0  0  0  0
   46.3795   27.0314  -14.0867 H   0  0  0  0  0  0  0  0  0  0  0  0
   45.8266   29.6363  -15.4185 H   0  0  0  0  0  0  0  0  0  0  0  0
   44.4037   29.8623  -14.3647 H   0  0  0  0  0  0  0  0  0  0  0  0
   41.9041   29.3928  -15.7236 H   0  0  0  0  0  0  0  0  0  0  0  0
   41.6248   30.2178  -17.2693 H   0  0  0  0  0  0  0  0  0  0  0  0
   39.1512   31.7095  -15.4698 H   0  0  0  0  0  0  0  0  0  0  0  0
   39.8279   32.1567  -13.9445 H   0  0  0  0  0  0  0  0  0  0  0  0
   40.6380   29.3213  -12.3266 H   0  0  0  0  0  0  0  0  0  0  0  0
   41.5499   29.2135  -13.8494 H   0  0  0  0  0  0  0  0  0  0  0  0
   41.3888   27.4021  -15.3868 H   0  0  0  0  0  0  0  0  0  0  0  0
   40.3782   25.9673  -15.2592 H   0  0  0  0  0  0  0  0  0  0  0  0
   42.9244   24.0078  -16.6645 H   0  0  0  0  0  0  0  0  0  0  0  0
   43.7996   25.4924  -16.7916 H   0  0  0  0  0  0  0  0  0  0  0  0
   43.0773   27.3941  -18.3922 H   0  0  0  0  0  0  0  0  0  0  0  0
   42.0133   27.8725  -17.1086 H   0  0  0  0  0  0  0  0  0  0  0  0
   39.0406   26.9764  -18.4630 H   0  0  0  0  0  0  0  0  0  0  0  0
   38.6008   28.4908  -19.2983 H   0  0  0  0  0  0  0  0  0  0  0  0
   36.6494   28.9127  -17.1347 H   0  0  0  0  0  0  0  0  0  0  0  0
   37.1688   28.9355  -15.4863 H   0  0  0  0  0  0  0  0  0  0  0  0
   37.3632   26.7333  -13.8448 H   0  0  0  0  0  0  0  0  0  0  0  0
   38.7392   26.6831  -14.8684 H   0  0  0  0  0  0  0  0  0  0  0  0
   40.2361   24.3788  -13.5882 H   0  0  0  0  0  0  0  0  0  0  0  0
   39.3683   22.9370  -13.2522 H   0  0  0  0  0  0  0  0  0  0  0  0
   40.7344   24.6519   -9.8063 H   0  0  0  0  0  0  0  0  0  0  0  0
   41.4648   24.7255  -11.4091 H   0  0  0  0  0  0  0  0  0  0  0  0
   40.9338   23.1630  -10.7355 H   0  0  0  0  0  0  0  0  0  0  0  0
  1  2  1  0  0  0  0
  1 82  1  0  0  0  0
  1 83  1  0  0  0  0
  1 84  1  0  0  0  0
  2  3  1  0  0  0  0
  3  4  1  0  0  0  0
  3 85  1  0  0  0  0
  3 86  1  0  0  0  0
  4  5  1  0  0  0  0
  4 87  1  0  0  0  0
  4 88  1  0  0  0  0
  5  6  1  0  0  0  0
  5 89  1  0  0  0  0
  6  7  1  0  0  0  0
  6 90  1  0  0  0  0
  7  8  1  0  0  0  0
  7 91  1  0  0  0  0
  8  9  1  0  0  0  0
  8 92  1  0  0  0  0
  9 10  1  0  0  0  0
  9 93  1  0  0  0  0
 10 11  1  0  0  0  0
 11 12  1  0  0  0  0
 11 94  1  0  0  0  0
 12 13  1  0  0  0  0
 13 14  1  0  0  0  0
 13 95  1  0  0  0  0
 14 15  1  0  0  0  0
 15 16  1  0  0  0  0
 15 96  1  0  0  0  0
 15 97  1  0  0  0  0
 16 17  1  0  0  0  0
 17 18  1  0  0  0  0
 17 98  1  0  0  0  0
 17 99  1  0  0  0  0
 18 19  1  0  0  0  0
 19 20  1  0  0  0  0
 19100  1  0  0  0  0
 19101  1  0  0  0  0
 20 21  1  0  0  0  0
 21 22  1  0  0  0  0
 21102  1  0  0  0  0
 21103  1  0  0  0  0
 22 23  1  0  0  0  0
 23 24  1  0  0  0  0
 23104  1  0  0  0  0
 23105  1  0  0  0  0
 24 25  1  0  0  0  0
 25 26  1  0  0  0  0
 25106  1  0  0  0  0
 25107  1  0  0  0  0
 26 27  1  0  0  0  0
 27 28  1  0  0  0  0
 27108  1  0  0  0  0
 27109  1  0  0  0  0
 28 29  1  0  0  0  0
 29 30  1  0  0  0  0
 29110  1  0  0  0  0
 29111  1  0  0  0  0
 30 31  1  0  0  0  0
 31 32  1  0  0  0  0
 31112  1  0  0  0  0
 31113  1  0  0  0  0
 32 33  1  0  0  0  0
 33 34  1  0  0  0  0
 33114  1  0  0  0  0
 33115  1  0  0  0  0
 34 35  1  0  0  0  0
 35 36  1  0  0  0  0
 35116  1  0  0  0  0
 35117  1  0  0  0  0
 36 37  1  0  0  0  0
 37 38  1  0  0  0  0
 37118  1  0  0  0  0
 37119  1  0  0  0  0
 38 39  1  0  0  0  0
 39 40  1  0  0  0  0
 39120  1  0  0  0  0
 39121  1  0  0  0  0
 40 41  1  0  0  0  0
 41 42  1  0  0  0  0
 41122  1  0  0  0  0
 41123  1  0  0  0  0
 42 43  1  0  0  0  0
 43 44  1  0  0  0  0
 43124  1  0  0  0  0
 43125  1  0  0  0  0
 44 45  1  0  0  0  0
 45 46  1  0  0  0  0
 45126  1  0  0  0  0
 45127  1  0  0  0  0
 46 47  1  0  0  0  0
 47 48  1  0  0  0  0
 47128  1  0  0  0  0
 47129  1  0  0  0  0
 48 49  1  0  0  0  0
 49 50  1  0  0  0  0
 49130  1  0  0  0  0
 49131  1  0  0  0  0
 50 51  1  0  0  0  0
 51 52  1  0  0  0  0
 51132  1  0  0  0  0
 51133  1  0  0  0  0
 52 53  1  0  0  0  0
 53 54  1  0  0  0  0
 53134  1  0  0  0  0
 53135  1  0  0  0  0
 54 55  1  0  0  0  0
 55 56  1  0  0  0  0
 55136  1  0  0  0  0
 55137  1  0  0  0  0
 56 57  1  0  0  0  0
 57 58  1  0  0  0  0
 57138  1  0  0  0  0
 57139  1  0  0  0  0
 58 59  1  0  0  0  0
 59 60  1  0  0  0  0
 59140  1  0  0  0  0
 59141  1  0  0  0  0
 60 61  1  0  0  0  0
 61 62  1  0  0  0  0
 61142  1  0  0  0  0
 61143  1  0  0  0  0
 62 63  1  0  0  0  0
 63 64  1  0  0  0  0
 63144  1  0  0  0  0
 63145  1  0  0  0  0
 64 65  1  0  0  0  0
 65 66  1  0  0  0  0
 65146  1  0  0  0  0
 65147  1  0  0  0  0
 66 67  1  0  0  0  0
 67 68  1  0  0  0  0
 67148  1  0  0  0  0
 67149  1  0  0  0  0
 68 69  1  0  0  0  0
 69 70  1  0  0  0  0
 69150  1  0  0  0  0
 69151  1  0  0  0  0
 70 71  1  0  0  0  0
 71 72  1  0  0  0  0
 71152  1  0  0  0  0
 71153  1  0  0  0  0
 72 73  1  0  0  0  0
 73 74  1  0  0  0  0
 73154  1  0  0  0  0
 73155  1  0  0  0  0
 74 75  1  0  0  0  0
 75 76  1  0  0  0  0
 75156  1  0  0  0  0
 75157  1  0  0  0  0
 76 77  1  0  0  0  0
 77 78  1  0  0  0  0
 77158  1  0  0  0  0
 77159  1  0  0  0  0
 78 79  1  0  0  0  0
 79 80  1  0  0  0  0
 79160  1  0  0  0  0
 79161  1  0  0  0  0
 80 81  1  0  0  0  0
 81162  1  0  0  0  0
 81163  1  0  0  0  0
 81164  1  0  0  0  0
M  END
$$$$
