
 OpenBabel04232216503D

 65 66  0  0  1  0  0  0  0  0999 V2000
    5.6404    1.0494   -0.3702 C   0  0  0  0  0  0  0  0  0  0  0  0
    5.8224    0.3279   -1.7122 C   0  0  3  0  0  0  0  0  0  0  0  0
    5.9234   -1.2204   -1.4987 C   0  0  0  0  0  0  0  0  0  0  0  0
    4.7795   -1.9871   -0.9224 N   0  0  0  0  0  0  0  0  0  0  0  0
    5.2154   -3.3866   -0.7600 C   0  0  0  0  0  0  0  0  0  0  0  0
    3.5686   -1.9681   -1.7756 C   0  0  0  0  0  0  0  0  0  0  0  0
    2.5043   -0.9747   -1.2782 C   0  0  0  0  0  0  0  0  0  0  0  0
    1.4766   -0.6361   -2.3741 C   0  0  0  0  0  0  0  0  0  0  0  0
    1.3776    0.8543   -2.7672 C   0  0  0  0  0  0  0  0  0  0  0  0
    2.5683    1.4310   -3.5780 C   0  0  3  0  0  0  0  0  0  0  0  0
    2.2161    2.8387   -4.0834 C   0  0  0  0  0  0  0  0  0  0  0  0
    1.5251    3.6085   -3.4062 O   0  0  0  0  0  0  0  0  0  0  0  0
    2.7308    3.3031   -5.4389 C   0  0  3  0  0  0  0  0  0  0  0  0
    4.2659    3.3536   -5.4873 C   0  0  0  0  0  0  0  0  0  0  0  0
    4.7962    4.2864   -6.5898 C   0  0  0  0  0  0  0  0  0  0  0  0
    5.1361    3.5569   -7.8956 C   0  0  0  0  0  0  0  0  0  0  0  0
    4.8991    4.4045   -9.1520 C   0  0  0  0  0  0  0  0  0  0  0  0
    3.4223    4.7127   -9.4290 C   0  0  0  0  0  0  0  0  0  0  0  0
    2.6145    3.4812   -9.8554 C   0  0  0  0  0  0  0  0  0  0  0  0
    1.1089    3.6529   -9.6149 C   0  0  0  0  0  0  0  0  0  0  0  0
    0.5247    2.6596   -8.5991 C   0  0  0  0  0  0  0  0  0  0  0  0
    0.7864    3.0182   -7.1335 C   0  0  0  0  0  0  0  0  0  0  0  0
    2.1079    2.5054   -6.5748 C   0  0  0  0  0  0  0  0  0  0  0  0
    2.5872    1.4313   -6.9397 O   0  0  0  0  0  0  0  0  0  0  0  0
    3.7763    1.5065   -2.6791 C   0  0  0  0  0  0  0  0  0  0  0  0
    4.8203    0.6690   -2.7997 C   0  0  0  0  0  0  0  0  0  0  0  0
    6.4759    0.8246    0.3020 H   0  0  0  0  0  0  0  0  0  0  0  0
    4.7213    0.7529    0.1431 H   0  0  0  0  0  0  0  0  0  0  0  0
    5.6191    2.1363   -0.5046 H   0  0  0  0  0  0  0  0  0  0  0  0
    6.7982    0.6465   -2.1035 H   0  0  0  0  0  0  0  0  0  0  0  0
    6.7770   -1.3671   -0.8208 H   0  0  0  0  0  0  0  0  0  0  0  0
    6.2217   -1.6778   -2.4525 H   0  0  0  0  0  0  0  0  0  0  0  0
    6.1013   -3.4531   -0.1195 H   0  0  0  0  0  0  0  0  0  0  0  0
    5.4528   -3.8566   -1.7241 H   0  0  0  0  0  0  0  0  0  0  0  0
    4.4349   -3.9825   -0.2723 H   0  0  0  0  0  0  0  0  0  0  0  0
    3.0776   -2.9504   -1.7607 H   0  0  0  0  0  0  0  0  0  0  0  0
    3.8311   -1.8127   -2.8279 H   0  0  0  0  0  0  0  0  0  0  0  0
    2.9384   -0.0697   -0.8525 H   0  0  0  0  0  0  0  0  0  0  0  0
    1.9794   -1.4432   -0.4342 H   0  0  0  0  0  0  0  0  0  0  0  0
    0.4894   -0.9318   -1.9945 H   0  0  0  0  0  0  0  0  0  0  0  0
    1.6429   -1.2356   -3.2760 H   0  0  0  0  0  0  0  0  0  0  0  0
    1.2115    1.4477   -1.8566 H   0  0  0  0  0  0  0  0  0  0  0  0
    0.4665    0.9739   -3.3678 H   0  0  0  0  0  0  0  0  0  0  0  0
    2.7459    0.7796   -4.4385 H   0  0  0  0  0  0  0  0  0  0  0  0
    2.3739    4.3378   -5.5463 H   0  0  0  0  0  0  0  0  0  0  0  0
    4.6972    2.3515   -5.5915 H   0  0  0  0  0  0  0  0  0  0  0  0
    4.6246    3.7473   -4.5275 H   0  0  0  0  0  0  0  0  0  0  0  0
    5.7186    4.7591   -6.2283 H   0  0  0  0  0  0  0  0  0  0  0  0
    4.0948    5.1108   -6.7485 H   0  0  0  0  0  0  0  0  0  0  0  0
    4.5960    2.6118   -7.9784 H   0  0  0  0  0  0  0  0  0  0  0  0
    6.1981    3.2817   -7.8629 H   0  0  0  0  0  0  0  0  0  0  0  0
    5.3262    3.8844  -10.0181 H   0  0  0  0  0  0  0  0  0  0  0  0
    5.4483    5.3496   -9.0533 H   0  0  0  0  0  0  0  0  0  0  0  0
    3.3696    5.4551  -10.2369 H   0  0  0  0  0  0  0  0  0  0  0  0
    2.9672    5.1866   -8.5544 H   0  0  0  0  0  0  0  0  0  0  0  0
    2.9752    2.5708   -9.3759 H   0  0  0  0  0  0  0  0  0  0  0  0
    2.7821    3.3317  -10.9311 H   0  0  0  0  0  0  0  0  0  0  0  0
    0.5983    3.4844  -10.5707 H   0  0  0  0  0  0  0  0  0  0  0  0
    0.8615    4.6816   -9.3217 H   0  0  0  0  0  0  0  0  0  0  0  0
    0.8622    1.6426   -8.8302 H   0  0  0  0  0  0  0  0  0  0  0  0
   -0.5634    2.6619   -8.7443 H   0  0  0  0  0  0  0  0  0  0  0  0
    0.0057    2.5640   -6.5107 H   0  0  0  0  0  0  0  0  0  0  0  0
    0.7193    4.1023   -6.9980 H   0  0  0  0  0  0  0  0  0  0  0  0
    3.6635    2.1275   -1.7949 H   0  0  0  0  0  0  0  0  0  0  0  0
    4.8876    0.0461   -3.6901 H   0  0  0  0  0  0  0  0  0  0  0  0
  1  2  1  0  0  0  0
  1 27  1  0  0  0  0
  1 28  1  0  0  0  0
  1 29  1  0  0  0  0
  2  3  1  0  0  0  0
  2 26  1  0  0  0  0
  2 30  1  0  0  0  0
  3  4  1  0  0  0  0
  3 31  1  0  0  0  0
  3 32  1  0  0  0  0
  4  5  1  0  0  0  0
  4  6  1  0  0  0  0
  5 33  1  0  0  0  0
  5 34  1  0  0  0  0
  5 35  1  0  0  0  0
  6  7  1  0  0  0  0
  6 36  1  0  0  0  0
  6 37  1  0  0  0  0
  7  8  1  0  0  0  0
  7 38  1  0  0  0  0
  7 39  1  0  0  0  0
  8  9  1  0  0  0  0
  8 40  1  0  0  0  0
  8 41  1  0  0  0  0
  9 10  1  0  0  0  0
  9 42  1  0  0  0  0
  9 43  1  0  0  0  0
 10 11  1  0  0  0  0
 10 25  1  0  0  0  0
 10 44  1  0  0  0  0
 11 12  2  0  0  0  0
 11 13  1  0  0  0  0
 13 14  1  0  0  0  0
 13 23  1  0  0  0  0
 13 45  1  0  0  0  0
 14 15  1  0  0  0  0
 14 46  1  0  0  0  0
 14 47  1  0  0  0  0
 15 16  1  0  0  0  0
 15 48  1  0  0  0  0
 15 49  1  0  0  0  0
 16 17  1  0  0  0  0
 16 50  1  0  0  0  0
 16 51  1  0  0  0  0
 17 18  1  0  0  0  0
 17 52  1  0  0  0  0
 17 53  1  0  0  0  0
 18 19  1  0  0  0  0
 18 54  1  0  0  0  0
 18 55  1  0  0  0  0
 19 20  1  0  0  0  0
 19 56  1  0  0  0  0
 19 57  1  0  0  0  0
 20 21  1  0  0  0  0
 20 58  1  0  0  0  0
 20 59  1  0  0  0  0
 21 22  1  0  0  0  0
 21 60  1  0  0  0  0
 21 61  1  0  0  0  0
 22 23  1  0  0  0  0
 22 62  1  0  0  0  0
 22 63  1  0  0  0  0
 23 24  2  0  0  0  0
 25 26  2  3  0  0  0
 25 64  1  0  0  0  0
 26 65  1  0  0  0  0
M  END
$$$$
