
 OpenBabel04232216553D

 48 48  0  0  0  0  0  0  0  0999 V2000
    4.5904    3.2071   -0.3331 C   0  0  0  0  0  0  0  0  0  0  0  0
    5.2648    2.8963    0.9400 N   0  0  0  0  0  0  0  0  0  0  0  0
    4.3195    1.9471    1.5409 C   0  0  0  0  0  0  0  0  0  0  0  0
    3.1544    2.2788    1.7898 O   0  0  0  0  0  0  0  0  0  0  0  0
    4.7004    0.6257    1.6614 N   0  0  0  0  0  0  0  0  0  0  0  0
    4.8635   -0.1890    0.4780 C   0  0  0  0  0  0  0  0  0  0  0  0
    3.6606   -0.2671   -0.2706 O   0  0  0  0  0  0  0  0  0  0  0  0
    5.3230    0.3264    2.8871 C   0  0  0  0  0  0  0  0  0  0  0  0
    4.3876    0.6609    4.0599 C   0  0  0  0  0  0  0  0  0  0  0  0
    6.6794    0.1791    2.9291 C   0  0  0  0  0  0  0  0  0  0  0  0
    7.4588   -0.4158    1.7821 C   0  0  0  0  0  0  0  0  0  0  0  0
    7.5296    0.9353    3.9240 C   0  0  0  0  0  0  0  0  0  0  0  0
    6.7584    2.0672    4.6271 C   0  0  0  0  0  0  0  0  0  0  0  0
    8.8979    0.9484    3.9990 C   0  0  0  0  0  0  0  0  0  0  0  0
    9.9548    0.2789    3.0918 C   0  0  0  0  0  0  0  0  0  0  0  0
    9.6031    1.9640    4.8242 C   0  0  0  0  0  0  0  0  0  0  0  0
    9.1930    2.3727    6.2353 C   0  0  0  0  0  0  0  0  0  0  0  0
   10.1943    2.8936    4.0399 C   0  0  0  0  0  0  0  0  0  0  0  0
    9.4706    3.9349    3.3188 C   0  0  0  0  0  0  0  0  0  0  0  0
    8.4307    4.0154    2.4099 C   0  0  0  0  0  0  0  0  0  0  0  0
    7.8307    3.0894    1.4285 C   0  0  0  0  0  0  0  0  0  0  0  0
    6.6659    2.6964    0.8218 C   0  0  0  0  0  0  0  0  0  0  0  0
    3.6192    3.6872   -0.1500 H   0  0  0  0  0  0  0  0  0  0  0  0
    4.3708    2.2673   -0.8716 H   0  0  0  0  0  0  0  0  0  0  0  0
    5.2023    3.8382   -0.9630 H   0  0  0  0  0  0  0  0  0  0  0  0
    5.0974   -1.2272    0.7425 H   0  0  0  0  0  0  0  0  0  0  0  0
    5.6282    0.2338   -0.1816 H   0  0  0  0  0  0  0  0  0  0  0  0
    3.1078   -0.9124    0.2022 H   0  0  0  0  0  0  0  0  0  0  0  0
    3.4341    0.1354    3.9360 H   0  0  0  0  0  0  0  0  0  0  0  0
    4.1308    1.7282    4.1114 H   0  0  0  0  0  0  0  0  0  0  0  0
    4.7887    0.3483    5.0229 H   0  0  0  0  0  0  0  0  0  0  0  0
    6.9297   -0.9400    1.0021 H   0  0  0  0  0  0  0  0  0  0  0  0
    8.0718   -1.2325    2.1699 H   0  0  0  0  0  0  0  0  0  0  0  0
    8.0324    0.3501    1.2534 H   0  0  0  0  0  0  0  0  0  0  0  0
    5.9869    2.5095    3.9975 H   0  0  0  0  0  0  0  0  0  0  0  0
    7.3447    2.9631    4.8246 H   0  0  0  0  0  0  0  0  0  0  0  0
    6.3356    1.7239    5.5761 H   0  0  0  0  0  0  0  0  0  0  0  0
    9.6454   -0.3003    2.2359 H   0  0  0  0  0  0  0  0  0  0  0  0
   10.6306   -0.3599    3.6604 H   0  0  0  0  0  0  0  0  0  0  0  0
   10.5581    1.0368    2.5725 H   0  0  0  0  0  0  0  0  0  0  0  0
    8.1821    2.1077    6.5490 H   0  0  0  0  0  0  0  0  0  0  0  0
    9.2659    3.4638    6.3478 H   0  0  0  0  0  0  0  0  0  0  0  0
    9.8525    1.9300    6.9880 H   0  0  0  0  0  0  0  0  0  0  0  0
   11.1992    2.6796    3.7003 H   0  0  0  0  0  0  0  0  0  0  0  0
    9.9042    4.8763    3.6196 H   0  0  0  0  0  0  0  0  0  0  0  0
    8.2221    5.0593    2.1381 H   0  0  0  0  0  0  0  0  0  0  0  0
    8.6959    2.7202    0.8473 H   0  0  0  0  0  0  0  0  0  0  0  0
    6.8577    2.1733   -0.1108 H   0  0  0  0  0  0  0  0  0  0  0  0
  1  2  1  0  0  0  0
  1 23  1  0  0  0  0
  1 24  1  0  0  0  0
  1 25  1  0  0  0  0
  2  3  1  0  0  0  0
  2 22  1  0  0  0  0
  3  4  2  0  0  0  0
  3  5  1  0  0  0  0
  5  6  1  0  0  0  0
  5  8  1  0  0  0  0
  6  7  1  0  0  0  0
  6 26  1  0  0  0  0
  6 27  1  0  0  0  0
  7 28  1  0  0  0  0
  8  9  1  0  0  0  0
  8 10  2  0  0  0  0
  9 29  1  0  0  0  0
  9 30  1  0  0  0  0
  9 31  1  0  0  0  0
 10 11  1  0  0  0  0
 10 12  1  0  0  0  0
 11 32  1  0  0  0  0
 11 33  1  0  0  0  0
 11 34  1  0  0  0  0
 12 13  1  0  0  0  0
 12 14  2  0  0  0  0
 13 35  1  0  0  0  0
 13 36  1  0  0  0  0
 13 37  1  0  0  0  0
 14 15  1  0  0  0  0
 14 16  1  0  0  0  0
 15 38  1  0  0  0  0
 15 39  1  0  0  0  0
 15 40  1  0  0  0  0
 16 17  1  0  0  0  0
 16 18  2  0  0  0  0
 17 41  1  0  0  0  0
 17 42  1  0  0  0  0
 17 43  1  0  0  0  0
 18 19  1  0  0  0  0
 18 44  1  0  0  0  0
 19 20  2  0  0  0  0
 19 45  1  0  0  0  0
 20 21  1  0  0  0  0
 20 46  1  0  0  0  0
 21 22  2  0  0  0  0
 21 47  1  0  0  0  0
 22 48  1  0  0  0  0
M  END
$$$$
