
 OpenBabel04232216523D

 59 60  0  0  0  0  0  0  0  0999 V2000
    4.6379    1.6953    2.0415 C   0  0  0  0  0  0  0  0  0  0  0  0
    6.2389    1.4400    1.9003 C   0  0  0  0  0  0  0  0  0  0  0  0
    7.7906    1.6323    2.9765 C   0  0  0  0  0  0  0  0  0  0  0  0
    8.7196    0.4471    4.0842 C   0  0  0  0  0  0  0  0  0  0  0  0
    7.4220   -0.4784    4.1523 C   0  0  0  0  0  0  0  0  0  0  0  0
    7.2624   -1.6077    3.0895 C   0  0  0  0  0  0  0  0  0  0  0  0
    7.6196   -2.8625    3.8451 C   0  0  0  0  0  0  0  0  0  0  0  0
    9.1074   -2.6450    3.8559 C   0  0  0  0  0  0  0  0  0  0  0  0
    9.8750   -3.2064    4.9507 C   0  0  0  0  0  0  0  0  0  0  0  0
   11.1794   -3.2628    4.2141 C   0  0  0  0  0  0  0  0  0  0  0  0
   12.1402   -4.0375    4.9526 C   0  0  0  0  0  0  0  0  0  0  0  0
   13.3729   -3.7663    4.1407 C   0  0  0  0  0  0  0  0  0  0  0  0
   14.5070   -4.1678    4.9959 C   0  0  0  0  0  0  0  0  0  0  0  0
   15.4218   -2.9942    4.8319 C   0  0  0  0  0  0  0  0  0  0  0  0
   16.3256   -2.9624    4.0096 O   0  0  0  0  0  0  0  0  0  0  0  0
   15.2239   -1.9081    5.8463 C   0  0  0  0  0  0  0  0  0  0  0  0
   14.4922   -0.7197    5.7923 C   0  0  0  0  0  0  0  0  0  0  0  0
   13.1093   -0.1121    5.1342 C   0  0  0  0  0  0  0  0  0  0  0  0
   11.7277   -0.3233    5.4880 C   0  0  0  0  0  0  0  0  0  0  0  0
   11.9717   -1.1809    7.0312 C   0  0  0  0  0  0  0  0  0  0  0  0
   13.3656   -1.4638    8.2246 C   0  0  0  0  0  0  0  0  0  0  0  0
   13.5831   -0.6543    9.1232 O   0  0  0  0  0  0  0  0  0  0  0  0
   14.3726   -2.7210    8.1521 C   0  0  0  0  0  0  0  0  0  0  0  0
   15.5955   -2.6159    7.1994 C   0  0  0  0  0  0  0  0  0  0  0  0
   10.2678    0.4238    4.5903 C   0  0  0  0  0  0  0  0  0  0  0  0
    4.2401    2.0481    1.0567 H   0  0  0  0  0  0  0  0  0  0  0  0
    4.2668    2.4417    2.7511 H   0  0  0  0  0  0  0  0  0  0  0  0
    4.0416    0.7697    2.1611 H   0  0  0  0  0  0  0  0  0  0  0  0
    6.4541    2.1430    1.0793 H   0  0  0  0  0  0  0  0  0  0  0  0
    6.2674    0.4323    1.4639 H   0  0  0  0  0  0  0  0  0  0  0  0
    7.0830    1.9309    3.7501 H   0  0  0  0  0  0  0  0  0  0  0  0
    8.1962    1.0993    2.1203 H   0  0  0  0  0  0  0  0  0  0  0  0
    6.5176    0.0908    3.8975 H   0  0  0  0  0  0  0  0  0  0  0  0
    7.1685   -0.7498    5.1791 H   0  0  0  0  0  0  0  0  0  0  0  0
    7.9343   -1.4200    2.2210 H   0  0  0  0  0  0  0  0  0  0  0  0
    6.2691   -1.7168    2.6382 H   0  0  0  0  0  0  0  0  0  0  0  0
    7.3459   -3.7901    3.3462 H   0  0  0  0  0  0  0  0  0  0  0  0
    7.1929   -2.8454    4.8521 H   0  0  0  0  0  0  0  0  0  0  0  0
    9.3813   -1.6343    3.8656 H   0  0  0  0  0  0  0  0  0  0  0  0
    9.4205   -2.9356    2.8181 H   0  0  0  0  0  0  0  0  0  0  0  0
    9.5368   -4.1895    5.3026 H   0  0  0  0  0  0  0  0  0  0  0  0
    9.8887   -2.5277    5.8010 H   0  0  0  0  0  0  0  0  0  0  0  0
   11.4965   -2.2155    3.9819 H   0  0  0  0  0  0  0  0  0  0  0  0
   11.0785   -3.7175    3.2264 H   0  0  0  0  0  0  0  0  0  0  0  0
   11.9121   -5.1678    4.9443 H   0  0  0  0  0  0  0  0  0  0  0  0
   12.1895   -3.7016    5.9808 H   0  0  0  0  0  0  0  0  0  0  0  0
   13.4669   -2.7438    3.8328 H   0  0  0  0  0  0  0  0  0  0  0  0
   13.3912   -4.3293    3.1802 H   0  0  0  0  0  0  0  0  0  0  0  0
   14.9410   -5.1449    4.7717 H   0  0  0  0  0  0  0  0  0  0  0  0
   14.1794   -4.2403    6.0368 H   0  0  0  0  0  0  0  0  0  0  0  0
   14.9930    0.0558    6.3436 H   0  0  0  0  0  0  0  0  0  0  0  0
   13.3490    0.8373    4.6450 H   0  0  0  0  0  0  0  0  0  0  0  0
   12.0615   -0.1767    7.4705 H   0  0  0  0  0  0  0  0  0  0  0  0
   12.4969   -1.9582    6.4997 H   0  0  0  0  0  0  0  0  0  0  0  0
   14.8246   -2.8890    9.1538 H   0  0  0  0  0  0  0  0  0  0  0  0
   13.8251   -3.6680    8.0141 H   0  0  0  0  0  0  0  0  0  0  0  0
   15.8958   -3.6828    7.0052 H   0  0  0  0  0  0  0  0  0  0  0  0
   16.5441   -2.2992    7.6647 H   0  0  0  0  0  0  0  0  0  0  0  0
   10.8030    1.2581    4.0935 H   0  0  0  0  0  0  0  0  0  0  0  0
  1  2  1  0  0  0  0
  1 26  1  0  0  0  0
  1 27  1  0  0  0  0
  1 28  1  0  0  0  0
  2  3  1  0  0  0  0
  2 29  1  0  0  0  0
  2 30  1  0  0  0  0
  3  4  1  0  0  0  0
  3 31  1  0  0  0  0
  3 32  1  0  0  0  0
  4  5  1  0  0  0  0
  4 25  2  3  0  0  0
  5  6  1  0  0  0  0
  5 33  1  0  0  0  0
  5 34  1  0  0  0  0
  6  7  1  0  0  0  0
  6 35  1  0  0  0  0
  6 36  1  0  0  0  0
  7  8  1  0  0  0  0
  7 37  1  0  0  0  0
  7 38  1  0  0  0  0
  8  9  1  0  0  0  0
  8 39  1  0  0  0  0
  8 40  1  0  0  0  0
  9 10  1  0  0  0  0
  9 41  1  0  0  0  0
  9 42  1  0  0  0  0
 10 11  1  0  0  0  0
 10 43  1  0  0  0  0
 10 44  1  0  0  0  0
 11 12  1  0  0  0  0
 11 45  1  0  0  0  0
 11 46  1  0  0  0  0
 12 13  1  0  0  0  0
 12 47  1  0  0  0  0
 12 48  1  0  0  0  0
 13 14  1  0  0  0  0
 13 49  1  0  0  0  0
 13 50  1  0  0  0  0
 14 15  2  0  0  0  0
 14 16  1  0  0  0  0
 16 17  2  0  0  0  0
 16 24  1  0  0  0  0
 17 18  1  0  0  0  0
 17 51  1  0  0  0  0
 18 19  2  0  0  0  0
 18 52  1  0  0  0  0
 19 20  1  0  0  0  0
 19 25  1  0  0  0  0
 20 21  1  0  0  0  0
 20 53  1  0  0  0  0
 20 54  1  0  0  0  0
 21 22  2  0  0  0  0
 21 23  1  0  0  0  0
 23 24  1  0  0  0  0
 23 55  1  0  0  0  0
 23 56  1  0  0  0  0
 24 57  1  0  0  0  0
 24 58  1  0  0  0  0
 25 59  1  0  0  0  0
M  END
$$$$
