
 OpenBabel04232216513D

 20 20  0  0  0  0  0  0  0  0999 V2000
    1.1457   -0.0885   -0.0443 C   0  0  0  0  0  0  0  0  0  0  0  0
    2.6453    0.0581    0.0850 C   0  0  0  0  0  0  0  0  0  0  0  0
    3.2448   -1.0660    0.5683 N   0  0  0  0  0  0  0  0  0  0  0  0
    4.4571   -1.3276    0.5486 N   0  0  0  0  0  0  0  0  0  0  0  0
    5.4643   -0.5335    0.0894 C   0  0  0  0  0  0  0  0  0  0  0  0
    6.7901   -1.2742   -0.0175 C   0  0  0  0  0  0  0  0  0  0  0  0
    7.4012   -1.4532    1.3690 C   0  0  0  0  0  0  0  0  0  0  0  0
    5.5019    0.7208   -0.1393 N   0  0  0  0  0  0  0  0  0  0  0  0
    4.4470    1.6451    0.1059 C   0  0  0  0  0  0  0  0  0  0  0  0
    3.1108    1.2183   -0.1484 N   0  0  0  0  0  0  0  0  0  0  0  0
    0.8450   -1.1380   -0.0850 H   0  0  0  0  0  0  0  0  0  0  0  0
    0.7902    0.4308   -0.9376 H   0  0  0  0  0  0  0  0  0  0  0  0
    0.6820    0.3745    0.8347 H   0  0  0  0  0  0  0  0  0  0  0  0
    7.4834   -0.7041   -0.6444 H   0  0  0  0  0  0  0  0  0  0  0  0
    6.6309   -2.2508   -0.4855 H   0  0  0  0  0  0  0  0  0  0  0  0
    7.5702   -0.4859    1.8565 H   0  0  0  0  0  0  0  0  0  0  0  0
    8.3607   -1.9779    1.3086 H   0  0  0  0  0  0  0  0  0  0  0  0
    6.7409   -2.0355    2.0220 H   0  0  0  0  0  0  0  0  0  0  0  0
    4.6304    2.4849   -0.5747 H   0  0  0  0  0  0  0  0  0  0  0  0
    4.5358    2.0729    1.1116 H   0  0  0  0  0  0  0  0  0  0  0  0
  1  2  1  0  0  0  0
  1 11  1  0  0  0  0
  1 12  1  0  0  0  0
  1 13  1  0  0  0  0
  2  3  1  0  0  0  0
  2 10  2  0  0  0  0
  3  4  2  0  0  0  0
  4  5  1  0  0  0  0
  5  6  1  0  0  0  0
  5  8  2  0  0  0  0
  6  7  1  0  0  0  0
  6 14  1  0  0  0  0
  6 15  1  0  0  0  0
  7 16  1  0  0  0  0
  7 17  1  0  0  0  0
  7 18  1  0  0  0  0
  8  9  1  0  0  0  0
  9 10  1  0  0  0  0
  9 19  1  0  0  0  0
  9 20  1  0  0  0  0
M  END
$$$$
