
 OpenBabel04232216503D

 64 65  0  0  1  0  0  0  0  0999 V2000
    0.6376   -0.2310   -0.0710 C   0  0  0  0  0  0  0  0  0  0  0  0
    2.1817   -0.4215   -0.0423 C   0  0  3  0  0  0  0  0  0  0  0  0
    2.5240   -1.5582   -1.1822 C   0  0  0  0  0  0  0  0  0  0  0  0
    3.7763   -2.4200   -0.8526 C   0  0  0  0  0  0  0  0  0  0  0  0
    4.5460   -3.5805   -1.5442 C   0  0  0  0  0  0  0  0  0  0  0  0
    5.9322   -3.9698   -0.7855 C   0  0  0  0  0  0  0  0  0  0  0  0
    7.3876   -3.4446   -1.2459 C   0  0  0  0  0  0  0  0  0  0  0  0
    8.0774   -2.2885   -0.4436 C   0  0  0  0  0  0  0  0  0  0  0  0
    9.5330   -1.8226   -0.6336 C   0  0  0  0  0  0  0  0  0  0  0  0
    9.8755   -0.5119    0.1803 C   0  0  0  0  0  0  0  0  0  0  0  0
    9.5372    0.8471   -0.4982 C   0  0  0  0  0  0  0  0  0  0  0  0
    8.3771    1.6331    0.1345 C   0  0  0  0  0  0  0  0  0  0  0  0
    7.5726    2.4705   -0.8632 C   0  0  0  0  0  0  0  0  0  0  0  0
    6.1495    2.7070   -0.3804 C   0  0  0  0  0  0  0  0  0  0  0  0
    5.7889    3.8543   -0.0936 O   0  0  0  0  0  0  0  0  0  0  0  0
    5.3011    1.6063   -0.2149 N   0  0  0  0  0  0  0  0  0  0  0  0
    4.0680    1.7484    0.5613 C   0  0  3  0  0  0  0  0  0  0  0  0
    4.5257    1.8297    2.0456 C   0  0  0  0  0  0  0  0  0  0  0  0
    4.3824    0.6963    3.0187 C   0  0  0  0  0  0  0  0  0  0  0  0
    3.4845    0.6567    3.8512 O   0  0  0  0  0  0  0  0  0  0  0  0
    5.4169   -0.4001    2.9512 C   0  0  0  0  0  0  0  0  0  0  0  0
    5.0666   -1.1823    1.7199 C   0  0  0  0  0  0  0  0  0  0  0  0
    5.8799   -0.7265    0.5198 C   0  0  0  0  0  0  0  0  0  0  0  0
    5.5967    0.2765   -0.6236 C   0  0  0  0  0  0  0  0  0  0  0  0
    2.7871    1.0589   -0.1127 C   0  0  0  0  0  0  0  0  0  0  0  0
    0.1271   -1.1617    0.1938 H   0  0  0  0  0  0  0  0  0  0  0  0
    0.2884    0.1001   -1.0534 H   0  0  0  0  0  0  0  0  0  0  0  0
    0.3213    0.5146    0.6713 H   0  0  0  0  0  0  0  0  0  0  0  0
    2.3438   -0.8368    0.9440 H   0  0  0  0  0  0  0  0  0  0  0  0
    2.6378   -1.0573   -2.1526 H   0  0  0  0  0  0  0  0  0  0  0  0
    1.6626   -2.2319   -1.2775 H   0  0  0  0  0  0  0  0  0  0  0  0
    3.6791   -2.7110    0.1915 H   0  0  0  0  0  0  0  0  0  0  0  0
    4.5051   -1.6835   -1.0416 H   0  0  0  0  0  0  0  0  0  0  0  0
    4.7575   -3.3657   -2.5955 H   0  0  0  0  0  0  0  0  0  0  0  0
    3.8994   -4.4677   -1.5099 H   0  0  0  0  0  0  0  0  0  0  0  0
    5.9980   -5.0609   -0.9100 H   0  0  0  0  0  0  0  0  0  0  0  0
    5.8103   -3.8337    0.2965 H   0  0  0  0  0  0  0  0  0  0  0  0
    7.3424   -3.1650   -2.3001 H   0  0  0  0  0  0  0  0  0  0  0  0
    8.0642   -4.3037   -1.1572 H   0  0  0  0  0  0  0  0  0  0  0  0
    7.9254   -2.4624    0.6308 H   0  0  0  0  0  0  0  0  0  0  0  0
    7.5833   -1.3998   -0.8019 H   0  0  0  0  0  0  0  0  0  0  0  0
    9.7271   -1.6406   -1.6944 H   0  0  0  0  0  0  0  0  0  0  0  0
   10.2103   -2.6143   -0.2976 H   0  0  0  0  0  0  0  0  0  0  0  0
   10.9650   -0.5117    0.3181 H   0  0  0  0  0  0  0  0  0  0  0  0
    9.4509   -0.5566    1.1912 H   0  0  0  0  0  0  0  0  0  0  0  0
    9.3785    0.6989   -1.5708 H   0  0  0  0  0  0  0  0  0  0  0  0
   10.4132    1.5038   -0.4047 H   0  0  0  0  0  0  0  0  0  0  0  0
    8.7421    2.2816    0.9408 H   0  0  0  0  0  0  0  0  0  0  0  0
    7.7294    0.9585    0.6610 H   0  0  0  0  0  0  0  0  0  0  0  0
    7.5351    2.0342   -1.8666 H   0  0  0  0  0  0  0  0  0  0  0  0
    8.0596    3.4480   -0.9738 H   0  0  0  0  0  0  0  0  0  0  0  0
    3.7957    2.8029    0.3851 H   0  0  0  0  0  0  0  0  0  0  0  0
    4.0607    2.7108    2.5239 H   0  0  0  0  0  0  0  0  0  0  0  0
    5.5870    2.0657    2.0787 H   0  0  0  0  0  0  0  0  0  0  0  0
    5.3309   -1.0388    3.8418 H   0  0  0  0  0  0  0  0  0  0  0  0
    6.4409   -0.0070    2.9410 H   0  0  0  0  0  0  0  0  0  0  0  0
    5.3320   -2.2331    1.9254 H   0  0  0  0  0  0  0  0  0  0  0  0
    4.0049   -1.1893    1.5685 H   0  0  0  0  0  0  0  0  0  0  0  0
    5.9515   -1.6712   -0.0044 H   0  0  0  0  0  0  0  0  0  0  0  0
    6.8425   -0.5505    0.9253 H   0  0  0  0  0  0  0  0  0  0  0  0
    4.7918    0.0318   -1.3101 H   0  0  0  0  0  0  0  0  0  0  0  0
    6.4557    0.2767   -1.2930 H   0  0  0  0  0  0  0  0  0  0  0  0
    2.8469    1.2939   -1.1878 H   0  0  0  0  0  0  0  0  0  0  0  0
    1.9853    1.7170    0.2520 H   0  0  0  0  0  0  0  0  0  0  0  0
  1  2  1  0  0  0  0
  1 26  1  0  0  0  0
  1 27  1  0  0  0  0
  1 28  1  0  0  0  0
  2  3  1  0  0  0  0
  2 25  1  0  0  0  0
  2 29  1  0  0  0  0
  3  4  1  0  0  0  0
  3 30  1  0  0  0  0
  3 31  1  0  0  0  0
  4  5  1  0  0  0  0
  4 32  1  0  0  0  0
  4 33  1  0  0  0  0
  5  6  1  0  0  0  0
  5 34  1  0  0  0  0
  5 35  1  0  0  0  0
  6  7  1  0  0  0  0
  6 36  1  0  0  0  0
  6 37  1  0  0  0  0
  7  8  1  0  0  0  0
  7 38  1  0  0  0  0
  7 39  1  0  0  0  0
  8  9  1  0  0  0  0
  8 40  1  0  0  0  0
  8 41  1  0  0  0  0
  9 10  1  0  0  0  0
  9 42  1  0  0  0  0
  9 43  1  0  0  0  0
 10 11  1  0  0  0  0
 10 44  1  0  0  0  0
 10 45  1  0  0  0  0
 11 12  1  0  0  0  0
 11 46  1  0  0  0  0
 11 47  1  0  0  0  0
 12 13  1  0  0  0  0
 12 48  1  0  0  0  0
 12 49  1  0  0  0  0
 13 14  1  0  0  0  0
 13 50  1  0  0  0  0
 13 51  1  0  0  0  0
 14 15  2  0  0  0  0
 14 16  1  0  0  0  0
 16 17  1  0  0  0  0
 16 24  1  0  0  0  0
 17 18  1  0  0  0  0
 17 25  1  0  0  0  0
 17 52  1  0  0  0  0
 18 19  1  0  0  0  0
 18 53  1  0  0  0  0
 18 54  1  0  0  0  0
 19 20  2  0  0  0  0
 19 21  1  0  0  0  0
 21 22  1  0  0  0  0
 21 55  1  0  0  0  0
 21 56  1  0  0  0  0
 22 23  1  0  0  0  0
 22 57  1  0  0  0  0
 22 58  1  0  0  0  0
 23 24  1  0  0  0  0
 23 59  1  0  0  0  0
 23 60  1  0  0  0  0
 24 61  1  0  0  0  0
 24 62  1  0  0  0  0
 25 63  1  0  0  0  0
 25 64  1  0  0  0  0
M  END
$$$$
