
 OpenBabel04232217023D

105105  0  0  1  0  0  0  0  0999 V2000
   29.3444    9.6449    8.4623 O   0  0  0  0  0  0  0  0  0  0  0  0
   29.6645   11.0338    8.0838 O   0  0  0  0  0  0  0  0  0  0  0  0
   28.6012   11.3860    7.1869 C   0  0  3  0  0  0  0  0  0  0  0  0
   28.1333   12.7976    6.9910 C   0  0  0  0  0  0  0  0  0  0  0  0
   28.9531   12.1574    5.9372 C   0  0  3  0  0  0  0  0  0  0  0  0
   28.3474   11.6690    4.7178 O   0  0  0  0  0  0  0  0  0  0  0  0
   27.7654   12.7599    3.9948 O   0  0  0  0  0  0  0  0  0  0  0  0
   28.7537   13.7445    3.6173 O   0  0  0  0  0  0  0  0  0  0  0  0
   28.1196   15.0035    3.2631 O   0  0  0  0  0  0  0  0  0  0  0  0
   27.2217   15.3362    4.3246 C   0  0  0  0  0  0  0  0  0  0  0  0
   27.8189   15.4322    5.6118 O   0  0  0  0  0  0  0  0  0  0  0  0
   28.9365   16.3534    5.4620 O   0  0  0  0  0  0  0  0  0  0  0  0
   29.6601   16.2813    6.6878 C   0  0  0  0  0  0  0  0  0  0  0  0
   30.2594   15.0226    6.9277 O   0  0  0  0  0  0  0  0  0  0  0  0
   31.2613   14.7075    5.9703 C   0  0  0  0  0  0  0  0  0  0  0  0
   31.9304   13.5073    6.3705 O   0  0  0  0  0  0  0  0  0  0  0  0
   32.5261   12.9481    5.1557 O   0  0  0  0  0  0  0  0  0  0  0  0
   32.8751   11.5855    5.4624 C   0  0  0  0  0  0  0  0  0  0  0  0
   31.7446   10.6901    5.5241 O   0  0  0  0  0  0  0  0  0  0  0  0
   31.1088   10.4896    4.2531 C   0  0  0  0  0  0  0  0  0  0  0  0
   30.0831    9.4348    4.1792 O   0  0  0  0  0  0  0  0  0  0  0  0
   29.2324    9.4594    5.4087 O   0  0  0  0  0  0  0  0  0  0  0  0
   27.8945    8.9584    5.0887 C   0  0  0  0  0  0  0  0  0  0  0  0
   26.7646    9.2314    6.0182 O   0  0  0  0  0  0  0  0  0  0  0  0
   26.2130   10.6119    5.8354 O   0  0  0  0  0  0  0  0  0  0  0  0
   25.3504   11.0903    7.0078 O   0  0  0  0  0  0  0  0  0  0  0  0
   26.0842   11.2182    8.2950 O   0  0  0  0  0  0  0  0  0  0  0  0
   25.7122   12.4322    8.9789 C   0  0  0  0  0  0  0  0  0  0  0  0
   26.5698   12.6361   10.1205 O   0  0  0  0  0  0  0  0  0  0  0  0
   25.7826   13.3550   11.1171 O   0  0  0  0  0  0  0  0  0  0  0  0
   26.5567   13.5413   12.3336 O   0  0  0  0  0  0  0  0  0  0  0  0
   27.6191   14.4844   12.0823 O   0  0  0  0  0  0  0  0  0  0  0  0
   28.4328   14.4863   13.2371 C   0  0  0  0  0  0  0  0  0  0  0  0
   29.6049   15.2059   12.9210 O   0  0  0  0  0  0  0  0  0  0  0  0
   30.3528   15.1700   14.1302 O   0  0  0  0  0  0  0  0  0  0  0  0
   31.4593   16.0509   14.0155 O   0  0  0  0  0  0  0  0  0  0  0  0
   32.0724   16.1475   15.2908 O   0  0  0  0  0  0  0  0  0  0  0  0
   33.2577   16.8348   15.0426 C   0  0  0  0  0  0  0  0  0  0  0  0
   33.9378   16.8607   16.2540 O   0  0  0  0  0  0  0  0  0  0  0  0
   35.0401   17.6803   15.9494 O   0  0  0  0  0  0  0  0  0  0  0  0
   35.7665   17.8934   17.1270 O   0  0  0  0  0  0  0  0  0  0  0  0
   36.9016   18.6386   16.7730 O   0  0  0  0  0  0  0  0  0  0  0  0
   37.6121   18.6824   17.9566 C   0  0  0  0  0  0  0  0  0  0  0  0
   38.7761   19.3437   17.6081 O   0  0  0  0  0  0  0  0  0  0  0  0
   39.4558   19.3804   18.8265 O   0  0  0  0  0  0  0  0  0  0  0  0
   40.3022   20.4917   18.8055 O   0  0  0  0  0  0  0  0  0  0  0  0
   41.0790   20.3840   19.9520 O   0  0  0  0  0  0  0  0  0  0  0  0
   42.3756   20.7938   19.6553 O   0  0  0  0  0  0  0  0  0  0  0  0
   42.9020   21.1840   20.8817 O   0  0  0  0  0  0  0  0  0  0  0  0
   43.9859   22.0067   20.6415 O   0  0  0  0  0  0  0  0  0  0  0  0
   44.8059   21.8723   21.7525 O   0  0  0  0  0  0  0  0  0  0  0  0
   45.8768   22.7139   21.5368 O   0  0  0  0  0  0  0  0  0  0  0  0
   46.4653   22.9259   22.7668 O   0  0  0  0  0  0  0  0  0  0  0  0
   47.6841   23.5066   22.4862 O   0  0  0  0  0  0  0  0  0  0  0  0
   48.3539   23.5910   23.6847 O   0  0  0  0  0  0  0  0  0  0  0  0
   49.4082   24.4461   23.4551 O   0  0  0  0  0  0  0  0  0  0  0  0
   50.0931   24.5142   24.6448 O   0  0  0  0  0  0  0  0  0  0  0  0
   51.2504   25.2015   24.3660 O   0  0  0  0  0  0  0  0  0  0  0  0
   51.9162   25.2964   25.5647 O   0  0  0  0  0  0  0  0  0  0  0  0
   53.0088   26.0915   25.3160 O   0  0  0  0  0  0  0  0  0  0  0  0
   53.6709   26.1924   26.5164 O   0  0  0  0  0  0  0  0  0  0  0  0
   54.8296   26.8782   26.2382 O   0  0  0  0  0  0  0  0  0  0  0  0
   55.5102   26.9558   27.4305 O   0  0  0  0  0  0  0  0  0  0  0  0
   56.5831   27.7840   27.1897 O   0  0  0  0  0  0  0  0  0  0  0  0
   57.2590   27.8760   28.3868 O   0  0  0  0  0  0  0  0  0  0  0  0
   58.4376   28.5392   28.1028 O   0  0  0  0  0  0  0  0  0  0  0  0
   59.0894   28.6611   29.3160 O   0  0  0  0  0  0  0  0  0  0  0  0
   60.1870   29.4874   29.0889 O   0  0  0  0  0  0  0  0  0  0  0  0
   60.8855   29.5076   30.2978 O   0  0  0  0  0  0  0  0  0  0  0  0
   62.0381   30.2258   30.0513 O   0  0  0  0  0  0  0  0  0  0  0  0
   62.6986   30.3842   31.2478 O   0  0  0  0  0  0  0  0  0  0  0  0
   63.8659   31.1313   30.9854 O   0  0  0  0  0  0  0  0  0  0  0  0
   64.5732   31.2209   32.1919 O   0  0  0  0  0  0  0  0  0  0  0  0
   65.7137   31.9761   32.0011 O   0  0  0  0  0  0  0  0  0  0  0  0
   66.4264   32.0842   33.2278 O   0  0  0  0  0  0  0  0  0  0  0  0
   67.6020   32.8518   33.0084 O   0  0  0  0  0  0  0  0  0  0  0  0
   68.3168   32.9607   34.2371 O   0  0  0  0  0  0  0  0  0  0  0  0
   69.5000   33.7312   34.0248 O   0  0  0  0  0  0  0  0  0  0  0  0
   70.2247   33.8452   35.2567 O   0  0  0  0  0  0  0  0  0  0  0  0
   30.2315    9.2855    8.3094 H   0  0  0  0  0  0  0  0  0  0  0  0
   27.8287   10.6633    7.1903 H   0  0  0  0  0  0  0  0  0  0  0  0
   28.5563   13.5450    7.6435 H   0  0  0  0  0  0  0  0  0  0  0  0
   27.1254   13.0278    6.6703 H   0  0  0  0  0  0  0  0  0  0  0  0
   29.9710   12.4619    5.8620 H   0  0  0  0  0  0  0  0  0  0  0  0
   26.4069   14.6045    4.3659 H   0  0  0  0  0  0  0  0  0  0  0  0
   26.7634   16.2970    4.0762 H   0  0  0  0  0  0  0  0  0  0  0  0
   28.9819   16.5075    7.5178 H   0  0  0  0  0  0  0  0  0  0  0  0
   30.4284   17.0618    6.6773 H   0  0  0  0  0  0  0  0  0  0  0  0
   31.9997   15.5107    5.9045 H   0  0  0  0  0  0  0  0  0  0  0  0
   30.7852   14.5587    4.9957 H   0  0  0  0  0  0  0  0  0  0  0  0
   33.3832   11.5644    6.4360 H   0  0  0  0  0  0  0  0  0  0  0  0
   33.6050   11.2478    4.7176 H   0  0  0  0  0  0  0  0  0  0  0  0
   31.8745   10.2264    3.5126 H   0  0  0  0  0  0  0  0  0  0  0  0
   30.6760   11.4375    3.9155 H   0  0  0  0  0  0  0  0  0  0  0  0
   28.0153    7.8770    5.1890 H   0  0  0  0  0  0  0  0  0  0  0  0
   27.6144    9.1713    4.0521 H   0  0  0  0  0  0  0  0  0  0  0  0
   24.6814   12.3374    9.3302 H   0  0  0  0  0  0  0  0  0  0  0  0
   25.7944   13.3269    8.3504 H   0  0  0  0  0  0  0  0  0  0  0  0
   28.7133   13.4662   13.5365 H   0  0  0  0  0  0  0  0  0  0  0  0
   27.9077   14.9847   14.0626 H   0  0  0  0  0  0  0  0  0  0  0  0
   33.0359   17.8553   14.6991 H   0  0  0  0  0  0  0  0  0  0  0  0
   33.8759   16.3238   14.2917 H   0  0  0  0  0  0  0  0  0  0  0  0
   37.8560   17.6748   18.3211 H   0  0  0  0  0  0  0  0  0  0  0  0
   37.0451   19.2258   18.7265 H   0  0  0  0  0  0  0  0  0  0  0  0
   70.9364   34.3763   34.8716 H   0  0  0  0  0  0  0  0  0  0  0  0
  1  2  1  0  0  0  0
  1 80  1  0  0  0  0
  2  3  1  0  0  0  0
  3  4  1  0  0  0  0
  3  5  1  0  0  0  0
  3 81  1  0  0  0  0
  4  5  1  0  0  0  0
  4 82  1  0  0  0  0
  4 83  1  0  0  0  0
  5  6  1  0  0  0  0
  5 84  1  0  0  0  0
  6  7  1  0  0  0  0
  7  8  1  0  0  0  0
  8  9  1  0  0  0  0
  9 10  1  0  0  0  0
 10 11  1  0  0  0  0
 10 85  1  0  0  0  0
 10 86  1  0  0  0  0
 11 12  1  0  0  0  0
 12 13  1  0  0  0  0
 13 14  1  0  0  0  0
 13 87  1  0  0  0  0
 13 88  1  0  0  0  0
 14 15  1  0  0  0  0
 15 16  1  0  0  0  0
 15 89  1  0  0  0  0
 15 90  1  0  0  0  0
 16 17  1  0  0  0  0
 17 18  1  0  0  0  0
 18 19  1  0  0  0  0
 18 91  1  0  0  0  0
 18 92  1  0  0  0  0
 19 20  1  0  0  0  0
 20 21  1  0  0  0  0
 20 93  1  0  0  0  0
 20 94  1  0  0  0  0
 21 22  1  0  0  0  0
 22 23  1  0  0  0  0
 23 24  1  0  0  0  0
 23 95  1  0  0  0  0
 23 96  1  0  0  0  0
 24 25  1  0  0  0  0
 25 26  1  0  0  0  0
 26 27  1  0  0  0  0
 27 28  1  0  0  0  0
 28 29  1  0  0  0  0
 28 97  1  0  0  0  0
 28 98  1  0  0  0  0
 29 30  1  0  0  0  0
 30 31  1  0  0  0  0
 31 32  1  0  0  0  0
 32 33  1  0  0  0  0
 33 34  1  0  0  0  0
 33 99  1  0  0  0  0
 33100  1  0  0  0  0
 34 35  1  0  0  0  0
 35 36  1  0  0  0  0
 36 37  1  0  0  0  0
 37 38  1  0  0  0  0
 38 39  1  0  0  0  0
 38101  1  0  0  0  0
 38102  1  0  0  0  0
 39 40  1  0  0  0  0
 40 41  1  0  0  0  0
 41 42  1  0  0  0  0
 42 43  1  0  0  0  0
 43 44  1  0  0  0  0
 43103  1  0  0  0  0
 43104  1  0  0  0  0
 44 45  1  0  0  0  0
 45 46  1  0  0  0  0
 46 47  1  0  0  0  0
 47 48  1  0  0  0  0
 48 49  1  0  0  0  0
 49 50  1  0  0  0  0
 50 51  1  0  0  0  0
 51 52  1  0  0  0  0
 52 53  1  0  0  0  0
 53 54  1  0  0  0  0
 54 55  1  0  0  0  0
 55 56  1  0  0  0  0
 56 57  1  0  0  0  0
 57 58  1  0  0  0  0
 58 59  1  0  0  0  0
 59 60  1  0  0  0  0
 60 61  1  0  0  0  0
 61 62  1  0  0  0  0
 62 63  1  0  0  0  0
 63 64  1  0  0  0  0
 64 65  1  0  0  0  0
 65 66  1  0  0  0  0
 66 67  1  0  0  0  0
 67 68  1  0  0  0  0
 68 69  1  0  0  0  0
 69 70  1  0  0  0  0
 70 71  1  0  0  0  0
 71 72  1  0  0  0  0
 72 73  1  0  0  0  0
 73 74  1  0  0  0  0
 74 75  1  0  0  0  0
 75 76  1  0  0  0  0
 76 77  1  0  0  0  0
 77 78  1  0  0  0  0
 78 79  1  0  0  0  0
 79105  1  0  0  0  0
M  END
$$$$
