
 OpenBabel04232216413D

225224  0  0  0  0  0  0  0  0999 V2000
    1.4139   -0.9362   -0.1076 C   0  0  0  0  0  0  0  0  0  0  0  0
    2.2785    0.0875   -0.0646 C   0  0  0  0  0  0  0  0  0  0  0  0
    3.0681    0.5294   -1.2651 C   0  0  0  0  0  0  0  0  0  0  0  0
    4.5214    0.4454   -1.0224 N   0  0  0  0  0  0  0  0  0  0  0  0
    5.2383    0.8731   -2.2042 N   0  0  0  0  0  0  0  0  0  0  0  0
    6.6423    0.7906   -1.9764 N   0  0  0  0  0  0  0  0  0  0  0  0
    7.3553    1.2068   -3.1266 N   0  0  0  0  0  0  0  0  0  0  0  0
    8.7385    1.1162   -2.8824 N   0  0  0  0  0  0  0  0  0  0  0  0
    9.4493    1.5296   -4.0225 N   0  0  0  0  0  0  0  0  0  0  0  0
   10.8259    1.4402   -3.7739 N   0  0  0  0  0  0  0  0  0  0  0  0
   11.5275    1.8526   -4.9175 N   0  0  0  0  0  0  0  0  0  0  0  0
   12.9331    1.7656   -4.6772 N   0  0  0  0  0  0  0  0  0  0  0  0
   13.6467    2.1979   -5.8754 C   0  0  0  0  0  0  0  0  0  0  0  0
   15.1486    2.1074   -5.6221 C   0  0  0  0  0  0  0  0  0  0  0  0
   15.9210    2.5538   -6.8558 C   0  0  0  0  0  0  0  0  0  0  0  0
   17.4165    2.4618   -6.6037 C   0  0  0  0  0  0  0  0  0  0  0  0
   18.1817    2.9096   -7.8361 C   0  0  0  0  0  0  0  0  0  0  0  0
   19.6745    2.8148   -7.5822 C   0  0  0  0  0  0  0  0  0  0  0  0
   20.4379    3.2644   -8.8134 C   0  0  0  0  0  0  0  0  0  0  0  0
   21.9299    3.1712   -8.5581 C   0  0  0  0  0  0  0  0  0  0  0  0
   22.6927    3.6188   -9.7898 C   0  0  0  0  0  0  0  0  0  0  0  0
   24.1845    3.5275   -9.5338 C   0  0  0  0  0  0  0  0  0  0  0  0
   24.9473    3.9770  -10.7648 C   0  0  0  0  0  0  0  0  0  0  0  0
   26.4390    3.8837  -10.5094 C   0  0  0  0  0  0  0  0  0  0  0  0
   27.2017    4.3333  -11.7404 C   0  0  0  0  0  0  0  0  0  0  0  0
   28.6934    4.2381  -11.4856 C   0  0  0  0  0  0  0  0  0  0  0  0
   29.4561    4.6877  -12.7167 C   0  0  0  0  0  0  0  0  0  0  0  0
   30.9479    4.5925  -12.4619 C   0  0  0  0  0  0  0  0  0  0  0  0
   31.7105    5.0420  -13.6929 C   0  0  0  0  0  0  0  0  0  0  0  0
   33.2023    4.9469  -13.4382 C   0  0  0  0  0  0  0  0  0  0  0  0
   33.9649    5.3964  -14.6692 C   0  0  0  0  0  0  0  0  0  0  0  0
   35.4567    5.3012  -14.4145 C   0  0  0  0  0  0  0  0  0  0  0  0
   36.2194    5.7489  -15.6462 C   0  0  0  0  0  0  0  0  0  0  0  0
   37.7111    5.6537  -15.3915 C   0  0  0  0  0  0  0  0  0  0  0  0
   38.4738    6.1014  -16.6232 C   0  0  0  0  0  0  0  0  0  0  0  0
   39.9655    6.0062  -16.3684 C   0  0  0  0  0  0  0  0  0  0  0  0
   40.7282    6.4557  -17.5994 C   0  0  0  0  0  0  0  0  0  0  0  0
   42.2199    6.3586  -17.3454 C   0  0  0  0  0  0  0  0  0  0  0  0
   42.9826    6.8063  -18.5771 C   0  0  0  0  0  0  0  0  0  0  0  0
   44.4743    6.7111  -18.3224 C   0  0  0  0  0  0  0  0  0  0  0  0
   45.2370    7.1607  -19.5534 C   0  0  0  0  0  0  0  0  0  0  0  0
   46.7287    7.0674  -19.2980 C   0  0  0  0  0  0  0  0  0  0  0  0
   47.4914    7.5169  -20.5290 C   0  0  0  0  0  0  0  0  0  0  0  0
   48.9831    7.4237  -20.2735 C   0  0  0  0  0  0  0  0  0  0  0  0
   49.7458    7.8732  -21.5046 C   0  0  0  0  0  0  0  0  0  0  0  0
   51.2375    7.7799  -21.2491 C   0  0  0  0  0  0  0  0  0  0  0  0
   52.0002    8.2294  -22.4802 C   0  0  0  0  0  0  0  0  0  0  0  0
   53.4919    8.1343  -22.2254 C   0  0  0  0  0  0  0  0  0  0  0  0
   54.2546    8.5857  -23.4557 C   0  0  0  0  0  0  0  0  0  0  0  0
   55.7463    8.4924  -23.2003 C   0  0  0  0  0  0  0  0  0  0  0  0
   56.5090    8.9439  -24.4306 C   0  0  0  0  0  0  0  0  0  0  0  0
   58.0007    8.8487  -24.1759 C   0  0  0  0  0  0  0  0  0  0  0  0
   58.7634    9.2983  -25.4069 C   0  0  0  0  0  0  0  0  0  0  0  0
   60.2551    9.2049  -25.1515 C   0  0  0  0  0  0  0  0  0  0  0  0
   61.0178    9.6564  -26.3818 C   0  0  0  0  0  0  0  0  0  0  0  0
   62.5095    9.5612  -26.1271 C   0  0  0  0  0  0  0  0  0  0  0  0
   63.2722   10.0146  -27.3567 C   0  0  0  0  0  0  0  0  0  0  0  0
   64.7640    9.9194  -27.1020 C   0  0  0  0  0  0  0  0  0  0  0  0
   65.5266   10.3746  -28.3309 C   0  0  0  0  0  0  0  0  0  0  0  0
   67.0184   10.2794  -28.0762 C   0  0  0  0  0  0  0  0  0  0  0  0
   67.7810   10.7347  -29.3051 C   0  0  0  0  0  0  0  0  0  0  0  0
   69.2728   10.6395  -29.0504 C   0  0  0  0  0  0  0  0  0  0  0  0
   70.0355   11.0947  -30.2793 C   0  0  0  0  0  0  0  0  0  0  0  0
   71.5272   10.9995  -30.0246 C   0  0  0  0  0  0  0  0  0  0  0  0
   72.2900   11.4548  -31.2535 C   0  0  0  0  0  0  0  0  0  0  0  0
   73.7817   11.3596  -30.9988 C   0  0  0  0  0  0  0  0  0  0  0  0
   74.5446   11.8148  -32.2278 C   0  0  0  0  0  0  0  0  0  0  0  0
   76.0365   11.7197  -31.9732 C   0  0  0  0  0  0  0  0  0  0  0  0
   76.7998   12.1769  -33.2016 C   0  0  0  0  0  0  0  0  0  0  0  0
   78.2925   12.0820  -32.9476 C   0  0  0  0  0  0  0  0  0  0  0  0
   79.0572   12.5393  -34.1764 C   0  0  0  0  0  0  0  0  0  0  0  0
   80.5520   12.4453  -33.9248 C   0  0  0  0  0  0  0  0  0  0  0  0
   81.3223   12.9033  -35.1546 C   0  0  0  0  0  0  0  0  0  0  0  0
   82.8214   12.8087  -34.9015 C   0  0  0  0  0  0  0  0  0  0  0  0
   83.5346   13.2536  -36.0940 N   0  0  0  0  0  0  0  0  0  0  0  0
   84.9309   13.1594  -35.8414 N   0  0  0  0  0  0  0  0  0  0  0  0
   85.6507   13.5882  -36.9849 N   0  0  0  0  0  0  0  0  0  0  0  0
   87.0392   13.5041  -36.7529 N   0  0  0  0  0  0  0  0  0  0  0  0
   87.7531   13.9305  -37.9019 N   0  0  0  0  0  0  0  0  0  0  0  0
   89.1539   13.8483  -37.6721 N   0  0  0  0  0  0  0  0  0  0  0  0
    0.8700   -1.2275    0.7803 H   0  0  0  0  0  0  0  0  0  0  0  0
    1.2655   -1.4976   -1.0251 H   0  0  0  0  0  0  0  0  0  0  0  0
    2.3918    0.6208    0.8793 H   0  0  0  0  0  0  0  0  0  0  0  0
    2.8035    1.5685   -1.4984 H   0  0  0  0  0  0  0  0  0  0  0  0
    2.8023   -0.0863   -2.1350 H   0  0  0  0  0  0  0  0  0  0  0  0
    4.7810   -0.5295   -0.8447 H   0  0  0  0  0  0  0  0  0  0  0  0
    5.0355    1.8494   -2.4377 H   0  0  0  0  0  0  0  0  0  0  0  0
    6.9224   -0.1664   -1.7704 H   0  0  0  0  0  0  0  0  0  0  0  0
    7.1244    2.1757   -3.3388 H   0  0  0  0  0  0  0  0  0  0  0  0
    8.9958    0.1548   -2.6684 H   0  0  0  0  0  0  0  0  0  0  0  0
    9.2300    2.4968   -4.2469 H   0  0  0  0  0  0  0  0  0  0  0  0
   11.0518    0.4736   -3.5560 H   0  0  0  0  0  0  0  0  0  0  0  0
   11.2783    2.8187   -5.1236 H   0  0  0  0  0  0  0  0  0  0  0  0
   13.1684    0.7951   -4.4720 H   0  0  0  0  0  0  0  0  0  0  0  0
   13.3909    3.2360   -6.1220 H   0  0  0  0  0  0  0  0  0  0  0  0
   13.3868    1.5677   -6.7352 H   0  0  0  0  0  0  0  0  0  0  0  0
   15.4304    1.0770   -5.3703 H   0  0  0  0  0  0  0  0  0  0  0  0
   15.4278    2.7401   -4.7696 H   0  0  0  0  0  0  0  0  0  0  0  0
   15.6534    3.5864   -7.1117 H   0  0  0  0  0  0  0  0  0  0  0  0
   15.6525    1.9243   -7.7130 H   0  0  0  0  0  0  0  0  0  0  0  0
   17.6903    1.4297   -6.3524 H   0  0  0  0  0  0  0  0  0  0  0  0
   17.6909    3.0912   -5.7483 H   0  0  0  0  0  0  0  0  0  0  0  0
   17.9124    3.9427   -8.0881 H   0  0  0  0  0  0  0  0  0  0  0  0
   17.9098    2.2817   -8.6934 H   0  0  0  0  0  0  0  0  0  0  0  0
   19.9459    1.7818   -7.3324 H   0  0  0  0  0  0  0  0  0  0  0  0
   19.9480    3.4420   -6.7248 H   0  0  0  0  0  0  0  0  0  0  0  0
   20.1665    4.2971   -9.0644 H   0  0  0  0  0  0  0  0  0  0  0  0
   20.1665    2.6365   -9.6708 H   0  0  0  0  0  0  0  0  0  0  0  0
   22.2016    2.1388   -8.3059 H   0  0  0  0  0  0  0  0  0  0  0  0
   22.2020    3.8003   -7.7018 H   0  0  0  0  0  0  0  0  0  0  0  0
   22.4202    4.6507  -10.0430 H   0  0  0  0  0  0  0  0  0  0  0  0
   22.4219    2.9888  -10.6459 H   0  0  0  0  0  0  0  0  0  0  0  0
   24.4574    2.4953   -9.2821 H   0  0  0  0  0  0  0  0  0  0  0  0
   24.4553    4.1564   -8.6769 H   0  0  0  0  0  0  0  0  0  0  0  0
   24.6755    5.0096  -11.0156 H   0  0  0  0  0  0  0  0  0  0  0  0
   24.6756    3.3490  -11.6221 H   0  0  0  0  0  0  0  0  0  0  0  0
   26.7108    2.8511  -10.2585 H   0  0  0  0  0  0  0  0  0  0  0  0
   26.7108    4.5117   -9.6521 H   0  0  0  0  0  0  0  0  0  0  0  0
   26.9310    5.3664  -11.9904 H   0  0  0  0  0  0  0  0  0  0  0  0
   26.9289    3.7062  -12.5980 H   0  0  0  0  0  0  0  0  0  0  0  0
   28.9641    3.2050  -11.2356 H   0  0  0  0  0  0  0  0  0  0  0  0
   28.9663    4.8652  -10.6280 H   0  0  0  0  0  0  0  0  0  0  0  0
   29.1855    5.7208  -12.9667 H   0  0  0  0  0  0  0  0  0  0  0  0
   29.1833    4.0606  -13.5743 H   0  0  0  0  0  0  0  0  0  0  0  0
   31.2185    3.5594  -12.2119 H   0  0  0  0  0  0  0  0  0  0  0  0
   31.2207    5.2195  -11.6043 H   0  0  0  0  0  0  0  0  0  0  0  0
   31.4399    6.0751  -13.9429 H   0  0  0  0  0  0  0  0  0  0  0  0
   31.4377    4.4150  -14.5505 H   0  0  0  0  0  0  0  0  0  0  0  0
   33.4729    3.9137  -13.1882 H   0  0  0  0  0  0  0  0  0  0  0  0
   33.4751    5.5739  -12.5806 H   0  0  0  0  0  0  0  0  0  0  0  0
   33.6943    6.4295  -14.9192 H   0  0  0  0  0  0  0  0  0  0  0  0
   33.6921    4.7693  -15.5268 H   0  0  0  0  0  0  0  0  0  0  0  0
   35.7271    4.2684  -14.1631 H   0  0  0  0  0  0  0  0  0  0  0  0
   35.7297    5.9294  -13.5578 H   0  0  0  0  0  0  0  0  0  0  0  0
   35.9489    6.7817  -15.8976 H   0  0  0  0  0  0  0  0  0  0  0  0
   35.9463    5.1207  -16.5029 H   0  0  0  0  0  0  0  0  0  0  0  0
   37.9815    4.6208  -15.1400 H   0  0  0  0  0  0  0  0  0  0  0  0
   37.9841    6.2819  -14.5347 H   0  0  0  0  0  0  0  0  0  0  0  0
   38.2033    7.1342  -16.8746 H   0  0  0  0  0  0  0  0  0  0  0  0
   38.2007    5.4732  -17.4799 H   0  0  0  0  0  0  0  0  0  0  0  0
   40.2361    4.9730  -16.1184 H   0  0  0  0  0  0  0  0  0  0  0  0
   40.2383    6.6332  -15.5108 H   0  0  0  0  0  0  0  0  0  0  0  0
   40.4586    7.4893  -17.8486 H   0  0  0  0  0  0  0  0  0  0  0  0
   40.4543    5.8296  -18.4574 H   0  0  0  0  0  0  0  0  0  0  0  0
   42.4893    5.3253  -17.0948 H   0  0  0  0  0  0  0  0  0  0  0  0
   42.4940    6.9859  -16.4883 H   0  0  0  0  0  0  0  0  0  0  0  0
   42.7121    7.8391  -18.8285 H   0  0  0  0  0  0  0  0  0  0  0  0
   42.7095    6.1781  -19.4338 H   0  0  0  0  0  0  0  0  0  0  0  0
   44.7449    5.6780  -18.0723 H   0  0  0  0  0  0  0  0  0  0  0  0
   44.7471    7.3382  -17.4648 H   0  0  0  0  0  0  0  0  0  0  0  0
   44.9653    8.1933  -19.8042 H   0  0  0  0  0  0  0  0  0  0  0  0
   44.9652    6.5327  -20.4107 H   0  0  0  0  0  0  0  0  0  0  0  0
   47.0004    6.0347  -19.0471 H   0  0  0  0  0  0  0  0  0  0  0  0
   47.0004    7.6954  -18.4407 H   0  0  0  0  0  0  0  0  0  0  0  0
   47.2196    8.5496  -20.7798 H   0  0  0  0  0  0  0  0  0  0  0  0
   47.2196    6.8890  -21.3862 H   0  0  0  0  0  0  0  0  0  0  0  0
   49.2548    6.3910  -20.0227 H   0  0  0  0  0  0  0  0  0  0  0  0
   49.2548    8.0516  -19.4163 H   0  0  0  0  0  0  0  0  0  0  0  0
   49.4740    8.9058  -21.7554 H   0  0  0  0  0  0  0  0  0  0  0  0
   49.4740    7.2452  -22.3618 H   0  0  0  0  0  0  0  0  0  0  0  0
   51.5092    6.7473  -20.9983 H   0  0  0  0  0  0  0  0  0  0  0  0
   51.5093    8.4079  -20.3919 H   0  0  0  0  0  0  0  0  0  0  0  0
   51.7295    9.2626  -22.7301 H   0  0  0  0  0  0  0  0  0  0  0  0
   51.7274    7.6024  -23.3378 H   0  0  0  0  0  0  0  0  0  0  0  0
   53.7628    7.1009  -21.9768 H   0  0  0  0  0  0  0  0  0  0  0  0
   53.7645    8.7602  -21.3669 H   0  0  0  0  0  0  0  0  0  0  0  0
   53.9827    9.6186  -23.7052 H   0  0  0  0  0  0  0  0  0  0  0  0
   53.9831    7.9589  -24.3139 H   0  0  0  0  0  0  0  0  0  0  0  0
   56.0183    7.4595  -22.9509 H   0  0  0  0  0  0  0  0  0  0  0  0
   56.0179    9.1193  -22.3421 H   0  0  0  0  0  0  0  0  0  0  0  0
   56.2381    9.9773  -24.6792 H   0  0  0  0  0  0  0  0  0  0  0  0
   56.2364    8.3179  -25.2891 H   0  0  0  0  0  0  0  0  0  0  0  0
   58.2714    7.8156  -23.9259 H   0  0  0  0  0  0  0  0  0  0  0  0
   58.2735    9.4757  -23.3183 H   0  0  0  0  0  0  0  0  0  0  0  0
   58.4917   10.3309  -25.6577 H   0  0  0  0  0  0  0  0  0  0  0  0
   58.4917    8.6703  -26.2642 H   0  0  0  0  0  0  0  0  0  0  0  0
   60.5271    8.1720  -24.9020 H   0  0  0  0  0  0  0  0  0  0  0  0
   60.5267    9.8318  -24.2933 H   0  0  0  0  0  0  0  0  0  0  0  0
   60.7469   10.6898  -26.6304 H   0  0  0  0  0  0  0  0  0  0  0  0
   60.7453    9.0305  -27.2403 H   0  0  0  0  0  0  0  0  0  0  0  0
   62.7806    8.5275  -25.8799 H   0  0  0  0  0  0  0  0  0  0  0  0
   62.7819   10.1860  -25.2677 H   0  0  0  0  0  0  0  0  0  0  0  0
   63.0011   11.0482  -27.6039 H   0  0  0  0  0  0  0  0  0  0  0  0
   62.9999    9.3898  -28.2161 H   0  0  0  0  0  0  0  0  0  0  0  0
   65.0353    8.8854  -26.8562 H   0  0  0  0  0  0  0  0  0  0  0  0
   65.0361   10.5431  -26.2417 H   0  0  0  0  0  0  0  0  0  0  0  0
   65.2553   11.4086  -28.5767 H   0  0  0  0  0  0  0  0  0  0  0  0
   65.2545    9.7509  -29.1912 H   0  0  0  0  0  0  0  0  0  0  0  0
   67.2897    9.2455  -27.8304 H   0  0  0  0  0  0  0  0  0  0  0  0
   67.2905   10.9031  -27.2159 H   0  0  0  0  0  0  0  0  0  0  0  0
   67.5097   11.7686  -29.5509 H   0  0  0  0  0  0  0  0  0  0  0  0
   67.5089   10.1110  -30.1654 H   0  0  0  0  0  0  0  0  0  0  0  0
   69.5441    9.6055  -28.8046 H   0  0  0  0  0  0  0  0  0  0  0  0
   69.5449   11.2631  -28.1901 H   0  0  0  0  0  0  0  0  0  0  0  0
   69.7641   12.1287  -30.5250 H   0  0  0  0  0  0  0  0  0  0  0  0
   69.7633   10.4710  -31.1396 H   0  0  0  0  0  0  0  0  0  0  0  0
   71.7985    9.9656  -29.7788 H   0  0  0  0  0  0  0  0  0  0  0  0
   71.7993   11.6232  -29.1643 H   0  0  0  0  0  0  0  0  0  0  0  0
   72.0186   12.4887  -31.4993 H   0  0  0  0  0  0  0  0  0  0  0  0
   72.0177   10.8311  -32.1138 H   0  0  0  0  0  0  0  0  0  0  0  0
   74.0530   10.3256  -30.7530 H   0  0  0  0  0  0  0  0  0  0  0  0
   74.0538   11.9832  -30.1385 H   0  0  0  0  0  0  0  0  0  0  0  0
   74.2731   12.8488  -32.4735 H   0  0  0  0  0  0  0  0  0  0  0  0
   74.2723   11.1912  -33.0880 H   0  0  0  0  0  0  0  0  0  0  0  0
   76.3078   10.6854  -31.7287 H   0  0  0  0  0  0  0  0  0  0  0  0
   76.3082   12.3422  -31.1119 H   0  0  0  0  0  0  0  0  0  0  0  0
   76.5277   13.2110  -33.4457 H   0  0  0  0  0  0  0  0  0  0  0  0
   76.5273   11.5543  -34.0625 H   0  0  0  0  0  0  0  0  0  0  0  0
   78.5631   11.0476  -32.7027 H   0  0  0  0  0  0  0  0  0  0  0  0
   78.5635   12.7043  -32.0859 H   0  0  0  0  0  0  0  0  0  0  0  0
   78.7837   13.5733  -34.4199 H   0  0  0  0  0  0  0  0  0  0  0  0
   78.7833   11.9165  -35.0368 H   0  0  0  0  0  0  0  0  0  0  0  0
   80.8207   11.4107  -33.6785 H   0  0  0  0  0  0  0  0  0  0  0  0
   80.8211   13.0672  -33.0622 H   0  0  0  0  0  0  0  0  0  0  0  0
   81.0428   13.9365  -35.3963 H   0  0  0  0  0  0  0  0  0  0  0  0
   81.0437   12.2790  -36.0133 H   0  0  0  0  0  0  0  0  0  0  0  0
   83.0782   11.7675  -34.6678 H   0  0  0  0  0  0  0  0  0  0  0  0
   83.0841   13.4280  -34.0345 H   0  0  0  0  0  0  0  0  0  0  0  0
   83.3101   14.2284  -36.2866 H   0  0  0  0  0  0  0  0  0  0  0  0
   85.1753   12.1897  -35.6442 H   0  0  0  0  0  0  0  0  0  0  0  0
   85.4014   14.5536  -37.1931 H   0  0  0  0  0  0  0  0  0  0  0  0
   87.2826   12.5347  -36.5526 H   0  0  0  0  0  0  0  0  0  0  0  0
   87.4805   14.8882  -38.1309 H   0  0  0  0  0  0  0  0  0  0  0  0
   89.3912   12.8815  -37.4509 H   0  0  0  0  0  0  0  0  0  0  0  0
   89.3986   14.3840  -36.8387 H   0  0  0  0  0  0  0  0  0  0  0  0
  1  2  2  0  0  0  0
  1 81  1  0  0  0  0
  1 82  1  0  0  0  0
  2  3  1  0  0  0  0
  2 83  1  0  0  0  0
  3  4  1  0  0  0  0
  3 84  1  0  0  0  0
  3 85  1  0  0  0  0
  4  5  1  0  0  0  0
  4 86  1  0  0  0  0
  5  6  1  0  0  0  0
  5 87  1  0  0  0  0
  6  7  1  0  0  0  0
  6 88  1  0  0  0  0
  7  8  1  0  0  0  0
  7 89  1  0  0  0  0
  8  9  1  0  0  0  0
  8 90  1  0  0  0  0
  9 10  1  0  0  0  0
  9 91  1  0  0  0  0
 10 11  1  0  0  0  0
 10 92  1  0  0  0  0
 11 12  1  0  0  0  0
 11 93  1  0  0  0  0
 12 13  1  0  0  0  0
 12 94  1  0  0  0  0
 13 14  1  0  0  0  0
 13 95  1  0  0  0  0
 13 96  1  0  0  0  0
 14 15  1  0  0  0  0
 14 97  1  0  0  0  0
 14 98  1  0  0  0  0
 15 16  1  0  0  0  0
 15 99  1  0  0  0  0
 15100  1  0  0  0  0
 16 17  1  0  0  0  0
 16101  1  0  0  0  0
 16102  1  0  0  0  0
 17 18  1  0  0  0  0
 17103  1  0  0  0  0
 17104  1  0  0  0  0
 18 19  1  0  0  0  0
 18105  1  0  0  0  0
 18106  1  0  0  0  0
 19 20  1  0  0  0  0
 19107  1  0  0  0  0
 19108  1  0  0  0  0
 20 21  1  0  0  0  0
 20109  1  0  0  0  0
 20110  1  0  0  0  0
 21 22  1  0  0  0  0
 21111  1  0  0  0  0
 21112  1  0  0  0  0
 22 23  1  0  0  0  0
 22113  1  0  0  0  0
 22114  1  0  0  0  0
 23 24  1  0  0  0  0
 23115  1  0  0  0  0
 23116  1  0  0  0  0
 24 25  1  0  0  0  0
 24117  1  0  0  0  0
 24118  1  0  0  0  0
 25 26  1  0  0  0  0
 25119  1  0  0  0  0
 25120  1  0  0  0  0
 26 27  1  0  0  0  0
 26121  1  0  0  0  0
 26122  1  0  0  0  0
 27 28  1  0  0  0  0
 27123  1  0  0  0  0
 27124  1  0  0  0  0
 28 29  1  0  0  0  0
 28125  1  0  0  0  0
 28126  1  0  0  0  0
 29 30  1  0  0  0  0
 29127  1  0  0  0  0
 29128  1  0  0  0  0
 30 31  1  0  0  0  0
 30129  1  0  0  0  0
 30130  1  0  0  0  0
 31 32  1  0  0  0  0
 31131  1  0  0  0  0
 31132  1  0  0  0  0
 32 33  1  0  0  0  0
 32133  1  0  0  0  0
 32134  1  0  0  0  0
 33 34  1  0  0  0  0
 33135  1  0  0  0  0
 33136  1  0  0  0  0
 34 35  1  0  0  0  0
 34137  1  0  0  0  0
 34138  1  0  0  0  0
 35 36  1  0  0  0  0
 35139  1  0  0  0  0
 35140  1  0  0  0  0
 36 37  1  0  0  0  0
 36141  1  0  0  0  0
 36142  1  0  0  0  0
 37 38  1  0  0  0  0
 37143  1  0  0  0  0
 37144  1  0  0  0  0
 38 39  1  0  0  0  0
 38145  1  0  0  0  0
 38146  1  0  0  0  0
 39 40  1  0  0  0  0
 39147  1  0  0  0  0
 39148  1  0  0  0  0
 40 41  1  0  0  0  0
 40149  1  0  0  0  0
 40150  1  0  0  0  0
 41 42  1  0  0  0  0
 41151  1  0  0  0  0
 41152  1  0  0  0  0
 42 43  1  0  0  0  0
 42153  1  0  0  0  0
 42154  1  0  0  0  0
 43 44  1  0  0  0  0
 43155  1  0  0  0  0
 43156  1  0  0  0  0
 44 45  1  0  0  0  0
 44157  1  0  0  0  0
 44158  1  0  0  0  0
 45 46  1  0  0  0  0
 45159  1  0  0  0  0
 45160  1  0  0  0  0
 46 47  1  0  0  0  0
 46161  1  0  0  0  0
 46162  1  0  0  0  0
 47 48  1  0  0  0  0
 47163  1  0  0  0  0
 47164  1  0  0  0  0
 48 49  1  0  0  0  0
 48165  1  0  0  0  0
 48166  1  0  0  0  0
 49 50  1  0  0  0  0
 49167  1  0  0  0  0
 49168  1  0  0  0  0
 50 51  1  0  0  0  0
 50169  1  0  0  0  0
 50170  1  0  0  0  0
 51 52  1  0  0  0  0
 51171  1  0  0  0  0
 51172  1  0  0  0  0
 52 53  1  0  0  0  0
 52173  1  0  0  0  0
 52174  1  0  0  0  0
 53 54  1  0  0  0  0
 53175  1  0  0  0  0
 53176  1  0  0  0  0
 54 55  1  0  0  0  0
 54177  1  0  0  0  0
 54178  1  0  0  0  0
 55 56  1  0  0  0  0
 55179  1  0  0  0  0
 55180  1  0  0  0  0
 56 57  1  0  0  0  0
 56181  1  0  0  0  0
 56182  1  0  0  0  0
 57 58  1  0  0  0  0
 57183  1  0  0  0  0
 57184  1  0  0  0  0
 58 59  1  0  0  0  0
 58185  1  0  0  0  0
 58186  1  0  0  0  0
 59 60  1  0  0  0  0
 59187  1  0  0  0  0
 59188  1  0  0  0  0
 60 61  1  0  0  0  0
 60189  1  0  0  0  0
 60190  1  0  0  0  0
 61 62  1  0  0  0  0
 61191  1  0  0  0  0
 61192  1  0  0  0  0
 62 63  1  0  0  0  0
 62193  1  0  0  0  0
 62194  1  0  0  0  0
 63 64  1  0  0  0  0
 63195  1  0  0  0  0
 63196  1  0  0  0  0
 64 65  1  0  0  0  0
 64197  1  0  0  0  0
 64198  1  0  0  0  0
 65 66  1  0  0  0  0
 65199  1  0  0  0  0
 65200  1  0  0  0  0
 66 67  1  0  0  0  0
 66201  1  0  0  0  0
 66202  1  0  0  0  0
 67 68  1  0  0  0  0
 67203  1  0  0  0  0
 67204  1  0  0  0  0
 68 69  1  0  0  0  0
 68205  1  0  0  0  0
 68206  1  0  0  0  0
 69 70  1  0  0  0  0
 69207  1  0  0  0  0
 69208  1  0  0  0  0
 70 71  1  0  0  0  0
 70209  1  0  0  0  0
 70210  1  0  0  0  0
 71 72  1  0  0  0  0
 71211  1  0  0  0  0
 71212  1  0  0  0  0
 72 73  1  0  0  0  0
 72213  1  0  0  0  0
 72214  1  0  0  0  0
 73 74  1  0  0  0  0
 73215  1  0  0  0  0
 73216  1  0  0  0  0
 74 75  1  0  0  0  0
 74217  1  0  0  0  0
 74218  1  0  0  0  0
 75 76  1  0  0  0  0
 75219  1  0  0  0  0
 76 77  1  0  0  0  0
 76220  1  0  0  0  0
 77 78  1  0  0  0  0
 77221  1  0  0  0  0
 78 79  1  0  0  0  0
 78222  1  0  0  0  0
 79 80  1  0  0  0  0
 79223  1  0  0  0  0
 80224  1  0  0  0  0
 80225  1  0  0  0  0
M  END
$$$$
