
 OpenBabel04232216553D

 55 59  0  0  0  0  0  0  0  0999 V2000
    1.8405   -0.2445   -1.9606 C   0  0  0  0  0  0  0  0  0  0  0  0
    3.2282   -0.0068   -1.5501 N   0  0  0  0  0  0  0  0  0  0  0  0
    4.3053   -0.2652   -2.4659 C   0  0  0  0  0  0  0  0  0  0  0  0
    4.3126   -1.4045   -3.6799 C   0  0  0  0  0  0  0  0  0  0  0  0
    3.3701   -2.4073   -4.5124 C   0  0  0  0  0  0  0  0  0  0  0  0
    3.8315   -3.9236   -4.7154 C   0  0  0  0  0  0  0  0  0  0  0  0
    3.6278   -4.9353   -3.5677 C   0  0  0  0  0  0  0  0  0  0  0  0
    4.8652   -5.0643   -2.6895 C   0  0  0  0  0  0  0  0  0  0  0  0
    4.9107   -3.9642   -1.6534 C   0  0  0  0  0  0  0  0  0  0  0  0
    6.2936   -3.2985   -1.7395 C   0  0  0  0  0  0  0  0  0  0  0  0
    6.2402   -1.9189   -1.1501 C   0  0  0  0  0  0  0  0  0  0  0  0
    6.6784   -0.7474   -2.0927 C   0  0  0  0  0  0  0  0  0  0  0  0
    5.5364    0.2740   -2.1514 C   0  0  0  0  0  0  0  0  0  0  0  0
    5.7096    1.5447   -1.5622 N   0  0  0  0  0  0  0  0  0  0  0  0
    6.3294    1.6739   -0.4301 C   0  0  0  0  0  0  0  0  0  0  0  0
    6.6690    2.9873    0.2549 C   0  0  0  0  0  0  0  0  0  0  0  0
    7.7924    3.0251    1.0113 C   0  0  0  0  0  0  0  0  0  0  0  0
    8.7075    1.8981    1.0627 C   0  0  0  0  0  0  0  0  0  0  0  0
    8.2093    0.6688    0.8454 C   0  0  0  0  0  0  0  0  0  0  0  0
    6.7993    0.5954    0.4712 C   0  0  0  0  0  0  0  0  0  0  0  0
    5.8391   -0.0824    1.1060 C   0  0  0  0  0  0  0  0  0  0  0  0
    4.3859   -0.1821    0.8034 C   0  0  0  0  0  0  0  0  0  0  0  0
    3.3885    0.1904   -0.2088 C   0  0  0  0  0  0  0  0  0  0  0  0
    2.5807    0.2711    0.8864 C   0  0  0  0  0  0  0  0  0  0  0  0
    1.4288   -0.4235    1.3264 C   0  0  0  0  0  0  0  0  0  0  0  0
    2.2139   -1.4681    1.6855 C   0  0  0  0  0  0  0  0  0  0  0  0
    3.4170   -0.6405    1.6283 C   0  0  0  0  0  0  0  0  0  0  0  0
    1.5422   -1.2599   -1.6732 H   0  0  0  0  0  0  0  0  0  0  0  0
    1.6905   -0.1136   -3.0331 H   0  0  0  0  0  0  0  0  0  0  0  0
    1.1576    0.4571   -1.4593 H   0  0  0  0  0  0  0  0  0  0  0  0
    5.0824   -2.0953   -3.3912 H   0  0  0  0  0  0  0  0  0  0  0  0
    4.7870   -0.8286   -4.4946 H   0  0  0  0  0  0  0  0  0  0  0  0
    2.3097   -2.3653   -4.2645 H   0  0  0  0  0  0  0  0  0  0  0  0
    3.4382   -2.0470   -5.5577 H   0  0  0  0  0  0  0  0  0  0  0  0
    4.8727   -3.9675   -5.0699 H   0  0  0  0  0  0  0  0  0  0  0  0
    3.2554   -4.3399   -5.5603 H   0  0  0  0  0  0  0  0  0  0  0  0
    3.4648   -5.9371   -3.9925 H   0  0  0  0  0  0  0  0  0  0  0  0
    2.7268   -4.6989   -2.9929 H   0  0  0  0  0  0  0  0  0  0  0  0
    5.7526   -5.0360   -3.3337 H   0  0  0  0  0  0  0  0  0  0  0  0
    4.9093   -6.0311   -2.1787 H   0  0  0  0  0  0  0  0  0  0  0  0
    4.7287   -4.3589   -0.6458 H   0  0  0  0  0  0  0  0  0  0  0  0
    4.0832   -3.2582   -1.8136 H   0  0  0  0  0  0  0  0  0  0  0  0
    6.6502   -3.2372   -2.7681 H   0  0  0  0  0  0  0  0  0  0  0  0
    7.0089   -3.9051   -1.1814 H   0  0  0  0  0  0  0  0  0  0  0  0
    6.8335   -1.9367   -0.2361 H   0  0  0  0  0  0  0  0  0  0  0  0
    5.2109   -1.7817   -0.8130 H   0  0  0  0  0  0  0  0  0  0  0  0
    6.9627   -1.0677   -3.0973 H   0  0  0  0  0  0  0  0  0  0  0  0
    7.5926   -0.3035   -1.6933 H   0  0  0  0  0  0  0  0  0  0  0  0
    5.9422    3.7773    0.2389 H   0  0  0  0  0  0  0  0  0  0  0  0
    8.0300    3.8806    1.6339 H   0  0  0  0  0  0  0  0  0  0  0  0
    9.7638    2.0747    1.2495 H   0  0  0  0  0  0  0  0  0  0  0  0
    8.8470   -0.2079    0.7676 H   0  0  0  0  0  0  0  0  0  0  0  0
    6.1565   -0.6804    1.9500 H   0  0  0  0  0  0  0  0  0  0  0  0
    0.3657   -0.2135    1.2619 H   0  0  0  0  0  0  0  0  0  0  0  0
    2.0676   -2.4800    1.9797 H   0  0  0  0  0  0  0  0  0  0  0  0
  1  2  1  0  0  0  0
  1 28  1  0  0  0  0
  1 29  1  0  0  0  0
  1 30  1  0  0  0  0
  2  3  1  0  0  0  0
  2 23  1  0  0  0  0
  3  4  1  0  0  0  0
  3 13  2  0  0  0  0
  4  5  1  0  0  0  0
  4 31  1  0  0  0  0
  4 32  1  0  0  0  0
  5  6  1  0  0  0  0
  5 33  1  0  0  0  0
  5 34  1  0  0  0  0
  6  7  1  0  0  0  0
  6 35  1  0  0  0  0
  6 36  1  0  0  0  0
  7  8  1  0  0  0  0
  7 37  1  0  0  0  0
  7 38  1  0  0  0  0
  8  9  1  0  0  0  0
  8 39  1  0  0  0  0
  8 40  1  0  0  0  0
  9 10  1  0  0  0  0
  9 41  1  0  0  0  0
  9 42  1  0  0  0  0
 10 11  1  0  0  0  0
 10 43  1  0  0  0  0
 10 44  1  0  0  0  0
 11 12  1  0  0  0  0
 11 45  1  0  0  0  0
 11 46  1  0  0  0  0
 12 13  1  0  0  0  0
 12 47  1  0  0  0  0
 12 48  1  0  0  0  0
 13 14  1  0  0  0  0
 14 15  2  0  0  0  0
 15 16  1  0  0  0  0
 15 20  1  0  0  0  0
 16 17  2  0  0  0  0
 16 49  1  0  0  0  0
 17 18  1  0  0  0  0
 17 50  1  0  0  0  0
 18 19  2  0  0  0  0
 18 51  1  0  0  0  0
 19 20  1  0  0  0  0
 19 52  1  0  0  0  0
 20 21  2  0  0  0  0
 21 22  1  0  0  0  0
 21 53  1  0  0  0  0
 22 23  1  0  0  0  0
 22 27  2  0  0  0  0
 23 24  2  0  0  0  0
 24 25  1  0  0  0  0
 24 27  1  0  0  0  0
 25 26  2  0  0  0  0
 25 54  1  0  0  0  0
 26 27  1  0  0  0  0
 26 55  1  0  0  0  0
M  END
$$$$
