
 OpenBabel04232216573D

243242  0  0  0  0  0  0  0  0999 V2000
    0.9862   -0.0694   -0.1199 C   0  0  0  0  0  0  0  0  0  0  0  0
    2.7810    0.0917   -0.0019 S   0  0  0  0  0  0  0  0  0  0  0  0
    3.2819   -1.3100   -1.0551 C   0  0  0  0  0  0  0  0  0  0  0  0
    4.8067   -1.3531   -1.0924 C   0  0  0  0  0  0  0  0  0  0  0  0
    5.3220   -2.5030   -1.9568 C   0  0  0  0  0  0  0  0  0  0  0  0
    6.8477   -2.5128   -1.9692 C   0  0  0  0  0  0  0  0  0  0  0  0
    7.3743   -3.6533   -2.8290 C   0  0  0  0  0  0  0  0  0  0  0  0
    8.8960   -3.6583   -2.8355 C   0  0  0  0  0  0  0  0  0  0  0  0
    9.4142   -4.7993   -3.6955 C   0  0  0  0  0  0  0  0  0  0  0  0
   10.9339   -4.8055   -3.7004 C   0  0  0  0  0  0  0  0  0  0  0  0
   11.4468   -5.9476   -4.5585 C   0  0  0  0  0  0  0  0  0  0  0  0
   12.9653   -5.9521   -4.5644 C   0  0  0  0  0  0  0  0  0  0  0  0
   13.4760   -7.0952   -5.4213 C   0  0  0  0  0  0  0  0  0  0  0  0
   14.9934   -7.0978   -5.4282 C   0  0  0  0  0  0  0  0  0  0  0  0
   15.5037   -8.2409   -6.2850 C   0  0  0  0  0  0  0  0  0  0  0  0
   17.0205   -8.2438   -6.2898 C   0  0  0  0  0  0  0  0  0  0  0  0
   17.5308   -9.3856   -7.1480 C   0  0  0  0  0  0  0  0  0  0  0  0
   19.0475   -9.3894   -7.1509 C   0  0  0  0  0  0  0  0  0  0  0  0
   19.5578  -10.5299   -8.0106 C   0  0  0  0  0  0  0  0  0  0  0  0
   21.0744  -10.5348   -8.0118 C   0  0  0  0  0  0  0  0  0  0  0  0
   21.5846  -11.6765   -8.8700 C   0  0  0  0  0  0  0  0  0  0  0  0
   23.1014  -11.6803   -8.8728 C   0  0  0  0  0  0  0  0  0  0  0  0
   23.6114  -12.8233   -9.7293 C   0  0  0  0  0  0  0  0  0  0  0  0
   25.1281  -12.8283   -9.7307 C   0  0  0  0  0  0  0  0  0  0  0  0
   25.6382  -13.9712  -10.5872 C   0  0  0  0  0  0  0  0  0  0  0  0
   27.1547  -13.9774  -10.5868 C   0  0  0  0  0  0  0  0  0  0  0  0
   27.6648  -15.1204  -11.4435 C   0  0  0  0  0  0  0  0  0  0  0  0
   29.1815  -15.1267  -11.4431 C   0  0  0  0  0  0  0  0  0  0  0  0
   29.6915  -16.2696  -12.2997 C   0  0  0  0  0  0  0  0  0  0  0  0
   31.2081  -16.2758  -12.2993 C   0  0  0  0  0  0  0  0  0  0  0  0
   31.7181  -17.4185  -13.1562 C   0  0  0  0  0  0  0  0  0  0  0  0
   33.2348  -17.4250  -13.1555 C   0  0  0  0  0  0  0  0  0  0  0  0
   33.7448  -18.5679  -14.0121 C   0  0  0  0  0  0  0  0  0  0  0  0
   35.2614  -18.5730  -14.0134 C   0  0  0  0  0  0  0  0  0  0  0  0
   35.7715  -19.7159  -14.8699 C   0  0  0  0  0  0  0  0  0  0  0  0
   37.2881  -19.7196  -14.8729 C   0  0  0  0  0  0  0  0  0  0  0  0
   37.7981  -20.8639  -15.7277 C   0  0  0  0  0  0  0  0  0  0  0  0
   39.3148  -20.8664  -15.7324 C   0  0  0  0  0  0  0  0  0  0  0  0
   39.8248  -22.0095  -16.5888 C   0  0  0  0  0  0  0  0  0  0  0  0
   41.3414  -22.0132  -16.5917 C   0  0  0  0  0  0  0  0  0  0  0  0
   41.8515  -23.1549  -17.4499 C   0  0  0  0  0  0  0  0  0  0  0  0
   43.3681  -23.1587  -17.4528 C   0  0  0  0  0  0  0  0  0  0  0  0
   43.8781  -24.3005  -18.3110 C   0  0  0  0  0  0  0  0  0  0  0  0
   45.3948  -24.3043  -18.3138 C   0  0  0  0  0  0  0  0  0  0  0  0
   45.9048  -25.4460  -19.1720 C   0  0  0  0  0  0  0  0  0  0  0  0
   47.4214  -25.4498  -19.1749 C   0  0  0  0  0  0  0  0  0  0  0  0
   47.9314  -26.5916  -20.0331 C   0  0  0  0  0  0  0  0  0  0  0  0
   49.4481  -26.5954  -20.0360 C   0  0  0  0  0  0  0  0  0  0  0  0
   49.9581  -27.7371  -20.8942 C   0  0  0  0  0  0  0  0  0  0  0  0
   51.4748  -27.7396  -20.8986 C   0  0  0  0  0  0  0  0  0  0  0  0
   51.9848  -28.8815  -21.7568 C   0  0  0  0  0  0  0  0  0  0  0  0
   53.5014  -28.8852  -21.7597 C   0  0  0  0  0  0  0  0  0  0  0  0
   54.0114  -30.0258  -22.6195 C   0  0  0  0  0  0  0  0  0  0  0  0
   55.5282  -30.0285  -22.6239 C   0  0  0  0  0  0  0  0  0  0  0  0
   56.0380  -31.1677  -23.4853 C   0  0  0  0  0  0  0  0  0  0  0  0
   57.5547  -31.1714  -23.4883 C   0  0  0  0  0  0  0  0  0  0  0  0
   58.0647  -32.3096  -24.3512 C   0  0  0  0  0  0  0  0  0  0  0  0
   59.5813  -32.3119  -24.3557 C   0  0  0  0  0  0  0  0  0  0  0  0
   60.0919  -33.4495  -25.2180 C   0  0  0  0  0  0  0  0  0  0  0  0
   61.6073  -33.4501  -25.2259 C   0  0  0  0  0  0  0  0  0  0  0  0
   62.1167  -34.5934  -26.0827 C   0  0  0  0  0  0  0  0  0  0  0  0
   63.6325  -34.5912  -26.0960 C   0  0  0  0  0  0  0  0  0  0  0  0
   64.1431  -35.7309  -26.9555 C   0  0  0  0  0  0  0  0  0  0  0  0
   65.6592  -35.7318  -26.9642 C   0  0  0  0  0  0  0  0  0  0  0  0
   66.1713  -36.8687  -27.8265 C   0  0  0  0  0  0  0  0  0  0  0  0
   67.6877  -36.8699  -27.8315 C   0  0  0  0  0  0  0  0  0  0  0  0
   68.1989  -38.0065  -28.6950 C   0  0  0  0  0  0  0  0  0  0  0  0
   69.7153  -38.0098  -28.6996 C   0  0  0  0  0  0  0  0  0  0  0  0
   70.2268  -39.1472  -29.5635 C   0  0  0  0  0  0  0  0  0  0  0  0
   71.7428  -39.1476  -29.5720 C   0  0  0  0  0  0  0  0  0  0  0  0
   72.2533  -40.2859  -30.4352 C   0  0  0  0  0  0  0  0  0  0  0  0
   73.7708  -40.2870  -30.4436 C   0  0  0  0  0  0  0  0  0  0  0  0
   74.2817  -41.4256  -31.3071 C   0  0  0  0  0  0  0  0  0  0  0  0
   75.8000  -41.4274  -31.3160 C   0  0  0  0  0  0  0  0  0  0  0  0
   76.3131  -42.5661  -32.1795 C   0  0  0  0  0  0  0  0  0  0  0  0
   77.8324  -42.5696  -32.1872 C   0  0  0  0  0  0  0  0  0  0  0  0
   78.3503  -43.7082  -33.0506 C   0  0  0  0  0  0  0  0  0  0  0  0
   79.8726  -43.7140  -33.0601 C   0  0  0  0  0  0  0  0  0  0  0  0
   80.3916  -44.8548  -33.9227 C   0  0  0  0  0  0  0  0  0  0  0  0
   81.9165  -44.8717  -33.9430 C   0  0  0  0  0  0  0  0  0  0  0  0
   82.4275  -46.0097  -34.8035 C   0  0  0  0  0  0  0  0  0  0  0  0
    0.5273    0.7242    0.4766 H   0  0  0  0  0  0  0  0  0  0  0  0
    0.6571   -1.0330    0.2765 H   0  0  0  0  0  0  0  0  0  0  0  0
    0.6548    0.0418   -1.1552 H   0  0  0  0  0  0  0  0  0  0  0  0
    2.8793   -1.1737   -2.0642 H   0  0  0  0  0  0  0  0  0  0  0  0
    2.8840   -2.2419   -0.6401 H   0  0  0  0  0  0  0  0  0  0  0  0
    5.2048   -1.4708   -0.0768 H   0  0  0  0  0  0  0  0  0  0  0  0
    5.2001   -0.4096   -1.4914 H   0  0  0  0  0  0  0  0  0  0  0  0
    4.9455   -2.3984   -2.9813 H   0  0  0  0  0  0  0  0  0  0  0  0
    4.9503   -3.4585   -1.5682 H   0  0  0  0  0  0  0  0  0  0  0  0
    7.2287   -2.6181   -0.9457 H   0  0  0  0  0  0  0  0  0  0  0  0
    7.2242   -1.5574   -2.3558 H   0  0  0  0  0  0  0  0  0  0  0  0
    7.0012   -3.5488   -3.8551 H   0  0  0  0  0  0  0  0  0  0  0  0
    7.0037   -4.6112   -2.4444 H   0  0  0  0  0  0  0  0  0  0  0  0
    9.2744   -3.7651   -1.8112 H   0  0  0  0  0  0  0  0  0  0  0  0
    9.2721   -2.7029   -3.2216 H   0  0  0  0  0  0  0  0  0  0  0  0
    9.0407   -4.6937   -4.7216 H   0  0  0  0  0  0  0  0  0  0  0  0
    9.0408   -5.7566   -3.3115 H   0  0  0  0  0  0  0  0  0  0  0  0
   11.3105   -4.9115   -2.6754 H   0  0  0  0  0  0  0  0  0  0  0  0
   11.3103   -3.8504   -4.0869 H   0  0  0  0  0  0  0  0  0  0  0  0
   11.0712   -5.8437   -5.5840 H   0  0  0  0  0  0  0  0  0  0  0  0
   11.0737   -6.9038   -4.1714 H   0  0  0  0  0  0  0  0  0  0  0  0
   13.3429   -6.0558   -3.5397 H   0  0  0  0  0  0  0  0  0  0  0  0
   13.3405   -4.9972   -4.9533 H   0  0  0  0  0  0  0  0  0  0  0  0
   13.0983   -6.9927   -6.4461 H   0  0  0  0  0  0  0  0  0  0  0  0
   13.1029   -8.0505   -5.0319 H   0  0  0  0  0  0  0  0  0  0  0  0
   15.3719   -7.2006   -4.4037 H   0  0  0  0  0  0  0  0  0  0  0  0
   15.3673   -6.1430   -5.8180 H   0  0  0  0  0  0  0  0  0  0  0  0
   15.1268   -8.1374   -7.3100 H   0  0  0  0  0  0  0  0  0  0  0  0
   15.1293   -9.1960   -5.8964 H   0  0  0  0  0  0  0  0  0  0  0  0
   17.3976   -8.3488   -5.2649 H   0  0  0  0  0  0  0  0  0  0  0  0
   17.3954   -7.2884   -6.6773 H   0  0  0  0  0  0  0  0  0  0  0  0
   17.1551   -9.2798   -8.1732 H   0  0  0  0  0  0  0  0  0  0  0  0
   17.1552  -10.3411   -6.7615 H   0  0  0  0  0  0  0  0  0  0  0  0
   19.4233   -9.4965   -6.1258 H   0  0  0  0  0  0  0  0  0  0  0  0
   19.4235   -8.4335   -7.5361 H   0  0  0  0  0  0  0  0  0  0  0  0
   19.1833  -10.4220   -9.0360 H   0  0  0  0  0  0  0  0  0  0  0  0
   19.1810  -11.4858   -7.6262 H   0  0  0  0  0  0  0  0  0  0  0  0
   21.4493  -10.6414   -6.9863 H   0  0  0  0  0  0  0  0  0  0  0  0
   21.4514   -9.5795   -8.3975 H   0  0  0  0  0  0  0  0  0  0  0  0
   21.2091  -11.5709   -9.8952 H   0  0  0  0  0  0  0  0  0  0  0  0
   21.2089  -12.6319   -8.4834 H   0  0  0  0  0  0  0  0  0  0  0  0
   23.4772  -11.7847   -7.8474 H   0  0  0  0  0  0  0  0  0  0  0  0
   23.4772  -10.7255   -9.2607 H   0  0  0  0  0  0  0  0  0  0  0  0
   23.2368  -12.7182  -10.7551 H   0  0  0  0  0  0  0  0  0  0  0  0
   23.2346  -13.7780   -9.3423 H   0  0  0  0  0  0  0  0  0  0  0  0
   25.5027  -12.9334   -8.7050 H   0  0  0  0  0  0  0  0  0  0  0  0
   25.5052  -11.8736  -10.1177 H   0  0  0  0  0  0  0  0  0  0  0  0
   25.2646  -13.8654  -11.6132 H   0  0  0  0  0  0  0  0  0  0  0  0
   25.2601  -14.9259  -10.2010 H   0  0  0  0  0  0  0  0  0  0  0  0
   27.5283  -14.0833   -9.5609 H   0  0  0  0  0  0  0  0  0  0  0  0
   27.5329  -13.0229  -10.9731 H   0  0  0  0  0  0  0  0  0  0  0  0
   27.2914  -15.0146  -12.4695 H   0  0  0  0  0  0  0  0  0  0  0  0
   27.2867  -16.0750  -11.0573 H   0  0  0  0  0  0  0  0  0  0  0  0
   29.5549  -15.2325  -10.4171 H   0  0  0  0  0  0  0  0  0  0  0  0
   29.5596  -14.1720  -11.8293 H   0  0  0  0  0  0  0  0  0  0  0  0
   29.3180  -16.1638  -13.3257 H   0  0  0  0  0  0  0  0  0  0  0  0
   29.3134  -17.2242  -11.9135 H   0  0  0  0  0  0  0  0  0  0  0  0
   31.5816  -16.3817  -11.2733 H   0  0  0  0  0  0  0  0  0  0  0  0
   31.5863  -15.3212  -12.6855 H   0  0  0  0  0  0  0  0  0  0  0  0
   31.3447  -17.3129  -14.1819 H   0  0  0  0  0  0  0  0  0  0  0  0
   31.3400  -18.3734  -12.7697 H   0  0  0  0  0  0  0  0  0  0  0  0
   33.6083  -17.5309  -12.1295 H   0  0  0  0  0  0  0  0  0  0  0  0
   33.6128  -16.4704  -13.5417 H   0  0  0  0  0  0  0  0  0  0  0  0
   33.3702  -18.4629  -15.0378 H   0  0  0  0  0  0  0  0  0  0  0  0
   33.3678  -19.5227  -13.6251 H   0  0  0  0  0  0  0  0  0  0  0  0
   35.6361  -18.6780  -12.9877 H   0  0  0  0  0  0  0  0  0  0  0  0
   35.6384  -17.6182  -14.4004 H   0  0  0  0  0  0  0  0  0  0  0  0
   35.3958  -19.6117  -15.8953 H   0  0  0  0  0  0  0  0  0  0  0  0
   35.3956  -20.6707  -14.4820 H   0  0  0  0  0  0  0  0  0  0  0  0
   37.6640  -19.8226  -13.8474 H   0  0  0  0  0  0  0  0  0  0  0  0
   37.6638  -18.7654  -15.2620 H   0  0  0  0  0  0  0  0  0  0  0  0
   37.4212  -20.7618  -16.7529 H   0  0  0  0  0  0  0  0  0  0  0  0
   37.4235  -21.8183  -15.3377 H   0  0  0  0  0  0  0  0  0  0  0  0
   39.6917  -20.9699  -14.7072 H   0  0  0  0  0  0  0  0  0  0  0  0
   39.6895  -19.9116  -16.1211 H   0  0  0  0  0  0  0  0  0  0  0  0
   39.4489  -21.9051  -17.6141 H   0  0  0  0  0  0  0  0  0  0  0  0
   39.4491  -22.9643  -16.2010 H   0  0  0  0  0  0  0  0  0  0  0  0
   41.7172  -22.1189  -15.5665 H   0  0  0  0  0  0  0  0  0  0  0  0
   41.7172  -21.0578  -16.9783 H   0  0  0  0  0  0  0  0  0  0  0  0
   41.4757  -23.0492  -18.4751 H   0  0  0  0  0  0  0  0  0  0  0  0
   41.4757  -24.1103  -17.0633 H   0  0  0  0  0  0  0  0  0  0  0  0
   43.7439  -23.2645  -16.4276 H   0  0  0  0  0  0  0  0  0  0  0  0
   43.7439  -22.2034  -17.8393 H   0  0  0  0  0  0  0  0  0  0  0  0
   43.5023  -24.1948  -19.3362 H   0  0  0  0  0  0  0  0  0  0  0  0
   43.5023  -25.2559  -17.9244 H   0  0  0  0  0  0  0  0  0  0  0  0
   45.7706  -24.4100  -17.2887 H   0  0  0  0  0  0  0  0  0  0  0  0
   45.7705  -23.3489  -18.7004 H   0  0  0  0  0  0  0  0  0  0  0  0
   45.5290  -25.3403  -20.1972 H   0  0  0  0  0  0  0  0  0  0  0  0
   45.5290  -26.4014  -18.7855 H   0  0  0  0  0  0  0  0  0  0  0  0
   47.7972  -25.5556  -18.1497 H   0  0  0  0  0  0  0  0  0  0  0  0
   47.7972  -24.4944  -19.5615 H   0  0  0  0  0  0  0  0  0  0  0  0
   47.5556  -26.4858  -21.0583 H   0  0  0  0  0  0  0  0  0  0  0  0
   47.5557  -27.5470  -19.6465 H   0  0  0  0  0  0  0  0  0  0  0  0
   49.8239  -26.7011  -19.0108 H   0  0  0  0  0  0  0  0  0  0  0  0
   49.8238  -25.6399  -20.4225 H   0  0  0  0  0  0  0  0  0  0  0  0
   49.5812  -27.6321  -21.9190 H   0  0  0  0  0  0  0  0  0  0  0  0
   49.5834  -28.6926  -20.5068 H   0  0  0  0  0  0  0  0  0  0  0  0
   51.8516  -27.8447  -19.8737 H   0  0  0  0  0  0  0  0  0  0  0  0
   51.8494  -26.7843  -21.2860 H   0  0  0  0  0  0  0  0  0  0  0  0
   51.6088  -28.7756  -22.7819 H   0  0  0  0  0  0  0  0  0  0  0  0
   51.6091  -29.8369  -21.3703 H   0  0  0  0  0  0  0  0  0  0  0  0
   53.8773  -28.9924  -20.7347 H   0  0  0  0  0  0  0  0  0  0  0  0
   53.8771  -27.9293  -22.1450 H   0  0  0  0  0  0  0  0  0  0  0  0
   53.6345  -29.9193  -23.6442 H   0  0  0  0  0  0  0  0  0  0  0  0
   53.6367  -30.9818  -22.2335 H   0  0  0  0  0  0  0  0  0  0  0  0
   55.9049  -30.1362  -21.5994 H   0  0  0  0  0  0  0  0  0  0  0  0
   55.9028  -29.0718  -23.0087 H   0  0  0  0  0  0  0  0  0  0  0  0
   55.6622  -31.0590  -24.5102 H   0  0  0  0  0  0  0  0  0  0  0  0
   55.6624  -32.1242  -23.1016 H   0  0  0  0  0  0  0  0  0  0  0  0
   57.9305  -31.2815  -22.4636 H   0  0  0  0  0  0  0  0  0  0  0  0
   57.9305  -30.2145  -23.8708 H   0  0  0  0  0  0  0  0  0  0  0  0
   57.6879  -32.2003  -25.3757 H   0  0  0  0  0  0  0  0  0  0  0  0
   57.6901  -33.2667  -23.9680 H   0  0  0  0  0  0  0  0  0  0  0  0
   59.9583  -32.4214  -23.3314 H   0  0  0  0  0  0  0  0  0  0  0  0
   59.9559  -31.3549  -24.7390 H   0  0  0  0  0  0  0  0  0  0  0  0
   59.7131  -33.3418  -26.2430 H   0  0  0  0  0  0  0  0  0  0  0  0
   59.7179  -34.4069  -24.8340 H   0  0  0  0  0  0  0  0  0  0  0  0
   61.9868  -33.5578  -24.2005 H   0  0  0  0  0  0  0  0  0  0  0  0
   61.9811  -32.4946  -25.6108 H   0  0  0  0  0  0  0  0  0  0  0  0
   61.7363  -34.4856  -27.1116 H   0  0  0  0  0  0  0  0  0  0  0  0
   61.7460  -35.5454  -25.6994 H   0  0  0  0  0  0  0  0  0  0  0  0
   64.0142  -34.6986  -25.0714 H   0  0  0  0  0  0  0  0  0  0  0  0
   64.0067  -33.6360  -26.4817 H   0  0  0  0  0  0  0  0  0  0  0  0
   63.7676  -35.6157  -27.9799 H   0  0  0  0  0  0  0  0  0  0  0  0
   63.7692  -36.6867  -26.5754 H   0  0  0  0  0  0  0  0  0  0  0  0
   66.0374  -35.8396  -25.9391 H   0  0  0  0  0  0  0  0  0  0  0  0
   66.0326  -34.7736  -27.3479 H   0  0  0  0  0  0  0  0  0  0  0  0
   65.7933  -36.7601  -28.8509 H   0  0  0  0  0  0  0  0  0  0  0  0
   65.7973  -37.8269  -27.4430 H   0  0  0  0  0  0  0  0  0  0  0  0
   68.0649  -36.9776  -26.8068 H   0  0  0  0  0  0  0  0  0  0  0  0
   68.0606  -35.9112  -28.2148 H   0  0  0  0  0  0  0  0  0  0  0  0
   67.8209  -37.8986  -29.7185 H   0  0  0  0  0  0  0  0  0  0  0  0
   67.8258  -38.9650  -28.3104 H   0  0  0  0  0  0  0  0  0  0  0  0
   70.0935  -38.1190  -27.6759 H   0  0  0  0  0  0  0  0  0  0  0  0
   70.0901  -37.0515  -29.0827 H   0  0  0  0  0  0  0  0  0  0  0  0
   69.8465  -39.0400  -30.5874 H   0  0  0  0  0  0  0  0  0  0  0  0
   69.8543  -40.1045  -29.1785 H   0  0  0  0  0  0  0  0  0  0  0  0
   72.1224  -39.2549  -28.5483 H   0  0  0  0  0  0  0  0  0  0  0  0
   72.1150  -38.1900  -29.9572 H   0  0  0  0  0  0  0  0  0  0  0  0
   71.8738  -40.1779  -31.4589 H   0  0  0  0  0  0  0  0  0  0  0  0
   71.8809  -41.2430  -30.0502 H   0  0  0  0  0  0  0  0  0  0  0  0
   74.1496  -40.3945  -29.4199 H   0  0  0  0  0  0  0  0  0  0  0  0
   74.1426  -39.3295  -30.8286 H   0  0  0  0  0  0  0  0  0  0  0  0
   73.9020  -41.3175  -32.3303 H   0  0  0  0  0  0  0  0  0  0  0  0
   73.9090  -42.3825  -30.9217 H   0  0  0  0  0  0  0  0  0  0  0  0
   76.1783  -41.5345  -30.2919 H   0  0  0  0  0  0  0  0  0  0  0  0
   76.1714  -40.4696  -31.7005 H   0  0  0  0  0  0  0  0  0  0  0  0
   75.9339  -42.4571  -33.2030 H   0  0  0  0  0  0  0  0  0  0  0  0
   75.9387  -43.5228  -31.7949 H   0  0  0  0  0  0  0  0  0  0  0  0
   78.2085  -42.6769  -31.1624 H   0  0  0  0  0  0  0  0  0  0  0  0
   78.2038  -41.6113  -32.5705 H   0  0  0  0  0  0  0  0  0  0  0  0
   77.9708  -43.5994  -34.0741 H   0  0  0  0  0  0  0  0  0  0  0  0
   77.9754  -44.6648  -32.6662 H   0  0  0  0  0  0  0  0  0  0  0  0
   80.2478  -43.8195  -32.0348 H   0  0  0  0  0  0  0  0  0  0  0  0
   80.2428  -42.7557  -33.4443 H   0  0  0  0  0  0  0  0  0  0  0  0
   80.0085  -44.7474  -34.9450 H   0  0  0  0  0  0  0  0  0  0  0  0
   80.0155  -45.8098  -33.5356 H   0  0  0  0  0  0  0  0  0  0  0  0
   82.3009  -44.9813  -32.9220 H   0  0  0  0  0  0  0  0  0  0  0  0
   82.2938  -43.9185  -34.3319 H   0  0  0  0  0  0  0  0  0  0  0  0
   82.0829  -46.9748  -34.4183 H   0  0  0  0  0  0  0  0  0  0  0  0
   83.5227  -46.0164  -34.8140 H   0  0  0  0  0  0  0  0  0  0  0  0
   82.0758  -45.9068  -35.8350 H   0  0  0  0  0  0  0  0  0  0  0  0
  1  2  1  0  0  0  0
  1 82  1  0  0  0  0
  1 83  1  0  0  0  0
  1 84  1  0  0  0  0
  2  3  1  0  0  0  0
  3  4  1  0  0  0  0
  3 85  1  0  0  0  0
  3 86  1  0  0  0  0
  4  5  1  0  0  0  0
  4 87  1  0  0  0  0
  4 88  1  0  0  0  0
  5  6  1  0  0  0  0
  5 89  1  0  0  0  0
  5 90  1  0  0  0  0
  6  7  1  0  0  0  0
  6 91  1  0  0  0  0
  6 92  1  0  0  0  0
  7  8  1  0  0  0  0
  7 93  1  0  0  0  0
  7 94  1  0  0  0  0
  8  9  1  0  0  0  0
  8 95  1  0  0  0  0
  8 96  1  0  0  0  0
  9 10  1  0  0  0  0
  9 97  1  0  0  0  0
  9 98  1  0  0  0  0
 10 11  1  0  0  0  0
 10 99  1  0  0  0  0
 10100  1  0  0  0  0
 11 12  1  0  0  0  0
 11101  1  0  0  0  0
 11102  1  0  0  0  0
 12 13  1  0  0  0  0
 12103  1  0  0  0  0
 12104  1  0  0  0  0
 13 14  1  0  0  0  0
 13105  1  0  0  0  0
 13106  1  0  0  0  0
 14 15  1  0  0  0  0
 14107  1  0  0  0  0
 14108  1  0  0  0  0
 15 16  1  0  0  0  0
 15109  1  0  0  0  0
 15110  1  0  0  0  0
 16 17  1  0  0  0  0
 16111  1  0  0  0  0
 16112  1  0  0  0  0
 17 18  1  0  0  0  0
 17113  1  0  0  0  0
 17114  1  0  0  0  0
 18 19  1  0  0  0  0
 18115  1  0  0  0  0
 18116  1  0  0  0  0
 19 20  1  0  0  0  0
 19117  1  0  0  0  0
 19118  1  0  0  0  0
 20 21  1  0  0  0  0
 20119  1  0  0  0  0
 20120  1  0  0  0  0
 21 22  1  0  0  0  0
 21121  1  0  0  0  0
 21122  1  0  0  0  0
 22 23  1  0  0  0  0
 22123  1  0  0  0  0
 22124  1  0  0  0  0
 23 24  1  0  0  0  0
 23125  1  0  0  0  0
 23126  1  0  0  0  0
 24 25  1  0  0  0  0
 24127  1  0  0  0  0
 24128  1  0  0  0  0
 25 26  1  0  0  0  0
 25129  1  0  0  0  0
 25130  1  0  0  0  0
 26 27  1  0  0  0  0
 26131  1  0  0  0  0
 26132  1  0  0  0  0
 27 28  1  0  0  0  0
 27133  1  0  0  0  0
 27134  1  0  0  0  0
 28 29  1  0  0  0  0
 28135  1  0  0  0  0
 28136  1  0  0  0  0
 29 30  1  0  0  0  0
 29137  1  0  0  0  0
 29138  1  0  0  0  0
 30 31  1  0  0  0  0
 30139  1  0  0  0  0
 30140  1  0  0  0  0
 31 32  1  0  0  0  0
 31141  1  0  0  0  0
 31142  1  0  0  0  0
 32 33  1  0  0  0  0
 32143  1  0  0  0  0
 32144  1  0  0  0  0
 33 34  1  0  0  0  0
 33145  1  0  0  0  0
 33146  1  0  0  0  0
 34 35  1  0  0  0  0
 34147  1  0  0  0  0
 34148  1  0  0  0  0
 35 36  1  0  0  0  0
 35149  1  0  0  0  0
 35150  1  0  0  0  0
 36 37  1  0  0  0  0
 36151  1  0  0  0  0
 36152  1  0  0  0  0
 37 38  1  0  0  0  0
 37153  1  0  0  0  0
 37154  1  0  0  0  0
 38 39  1  0  0  0  0
 38155  1  0  0  0  0
 38156  1  0  0  0  0
 39 40  1  0  0  0  0
 39157  1  0  0  0  0
 39158  1  0  0  0  0
 40 41  1  0  0  0  0
 40159  1  0  0  0  0
 40160  1  0  0  0  0
 41 42  1  0  0  0  0
 41161  1  0  0  0  0
 41162  1  0  0  0  0
 42 43  1  0  0  0  0
 42163  1  0  0  0  0
 42164  1  0  0  0  0
 43 44  1  0  0  0  0
 43165  1  0  0  0  0
 43166  1  0  0  0  0
 44 45  1  0  0  0  0
 44167  1  0  0  0  0
 44168  1  0  0  0  0
 45 46  1  0  0  0  0
 45169  1  0  0  0  0
 45170  1  0  0  0  0
 46 47  1  0  0  0  0
 46171  1  0  0  0  0
 46172  1  0  0  0  0
 47 48  1  0  0  0  0
 47173  1  0  0  0  0
 47174  1  0  0  0  0
 48 49  1  0  0  0  0
 48175  1  0  0  0  0
 48176  1  0  0  0  0
 49 50  1  0  0  0  0
 49177  1  0  0  0  0
 49178  1  0  0  0  0
 50 51  1  0  0  0  0
 50179  1  0  0  0  0
 50180  1  0  0  0  0
 51 52  1  0  0  0  0
 51181  1  0  0  0  0
 51182  1  0  0  0  0
 52 53  1  0  0  0  0
 52183  1  0  0  0  0
 52184  1  0  0  0  0
 53 54  1  0  0  0  0
 53185  1  0  0  0  0
 53186  1  0  0  0  0
 54 55  1  0  0  0  0
 54187  1  0  0  0  0
 54188  1  0  0  0  0
 55 56  1  0  0  0  0
 55189  1  0  0  0  0
 55190  1  0  0  0  0
 56 57  1  0  0  0  0
 56191  1  0  0  0  0
 56192  1  0  0  0  0
 57 58  1  0  0  0  0
 57193  1  0  0  0  0
 57194  1  0  0  0  0
 58 59  1  0  0  0  0
 58195  1  0  0  0  0
 58196  1  0  0  0  0
 59 60  1  0  0  0  0
 59197  1  0  0  0  0
 59198  1  0  0  0  0
 60 61  1  0  0  0  0
 60199  1  0  0  0  0
 60200  1  0  0  0  0
 61 62  1  0  0  0  0
 61201  1  0  0  0  0
 61202  1  0  0  0  0
 62 63  1  0  0  0  0
 62203  1  0  0  0  0
 62204  1  0  0  0  0
 63 64  1  0  0  0  0
 63205  1  0  0  0  0
 63206  1  0  0  0  0
 64 65  1  0  0  0  0
 64207  1  0  0  0  0
 64208  1  0  0  0  0
 65 66  1  0  0  0  0
 65209  1  0  0  0  0
 65210  1  0  0  0  0
 66 67  1  0  0  0  0
 66211  1  0  0  0  0
 66212  1  0  0  0  0
 67 68  1  0  0  0  0
 67213  1  0  0  0  0
 67214  1  0  0  0  0
 68 69  1  0  0  0  0
 68215  1  0  0  0  0
 68216  1  0  0  0  0
 69 70  1  0  0  0  0
 69217  1  0  0  0  0
 69218  1  0  0  0  0
 70 71  1  0  0  0  0
 70219  1  0  0  0  0
 70220  1  0  0  0  0
 71 72  1  0  0  0  0
 71221  1  0  0  0  0
 71222  1  0  0  0  0
 72 73  1  0  0  0  0
 72223  1  0  0  0  0
 72224  1  0  0  0  0
 73 74  1  0  0  0  0
 73225  1  0  0  0  0
 73226  1  0  0  0  0
 74 75  1  0  0  0  0
 74227  1  0  0  0  0
 74228  1  0  0  0  0
 75 76  1  0  0  0  0
 75229  1  0  0  0  0
 75230  1  0  0  0  0
 76 77  1  0  0  0  0
 76231  1  0  0  0  0
 76232  1  0  0  0  0
 77 78  1  0  0  0  0
 77233  1  0  0  0  0
 77234  1  0  0  0  0
 78 79  1  0  0  0  0
 78235  1  0  0  0  0
 78236  1  0  0  0  0
 79 80  1  0  0  0  0
 79237  1  0  0  0  0
 79238  1  0  0  0  0
 80 81  1  0  0  0  0
 80239  1  0  0  0  0
 80240  1  0  0  0  0
 81241  1  0  0  0  0
 81242  1  0  0  0  0
 81243  1  0  0  0  0
M  END
$$$$
