
 OpenBabel04232216393D

 73 73  0  0  0  0  0  0  0  0999 V2000
   15.5123    3.0494   11.2269 C   0  0  0  0  0  0  0  0  0  0  0  0
   13.4035    2.8177    9.6061 C   0  0  0  0  0  3  0  0  0  0  0  0
   11.4320    2.4783    7.8957 C   0  0  0  0  0  0  0  0  0  0  0  0
    9.7846    2.0256    6.4973 C   0  0  0  0  0  0  0  0  0  0  0  0
    7.8494    1.4522    5.1724 C   0  0  0  0  0  0  0  0  0  0  0  0
    7.1702    0.1125    4.0656 C   0  0  0  0  0  0  0  0  0  0  0  0
    6.5754   -0.2611    5.5144 C   0  0  0  0  0  0  0  0  0  0  0  0
    7.7745   -0.3252    6.2204 C   0  0  0  0  0  0  0  0  0  0  0  0
    8.3163    0.3446    7.6375 C   0  0  0  0  0  0  0  0  0  0  0  0
    9.7479    0.1095    7.5003 C   0  0  0  0  0  0  0  0  0  0  0  0
   10.7241    0.3591    8.6946 C   0  0  0  0  0  0  0  0  0  0  0  0
   12.1079    0.3277    8.9289 C   0  0  0  0  0  0  0  0  0  0  0  0
   12.4645    0.8289   10.3266 C   0  0  0  0  0  0  0  0  0  0  0  0
   13.7854    0.7087   10.6894 C   0  0  0  0  0  0  0  0  0  0  0  0
   14.3697    0.9998   11.9970 C   0  0  0  0  0  0  0  0  0  0  0  0
   15.6546    0.8843   12.3095 C   0  0  0  0  0  0  0  0  0  0  0  0
   15.9771    1.3264   13.5887 C   0  0  0  0  0  0  0  0  0  0  0  0
   17.2930    1.1587   13.6901 C   0  0  0  0  0  0  0  0  0  0  0  0
   17.7565    1.5579   14.9284 C   0  0  0  0  0  0  0  0  0  0  0  0
   19.0283    1.2586   15.1244 C   0  0  0  0  0  0  0  0  0  0  0  0
   19.5416    1.4764   16.4378 C   0  0  0  0  0  0  0  0  0  0  0  0
   20.8638    1.3452   16.7442 C   0  0  0  0  0  0  0  0  0  0  0  0
   20.8539    1.9501   18.1461 C   0  0  0  0  0  0  0  0  0  0  0  0
   21.8547    2.0106   18.9427 C   0  0  0  0  0  0  0  0  0  0  0  0
   22.7629    2.1531   19.9593 C   0  0  0  0  0  0  0  0  0  0  0  0
   24.0678    1.7890   20.0542 C   0  0  0  0  0  0  0  0  0  0  0  0
   24.4896    2.1212   21.3750 C   0  0  0  0  0  0  0  0  0  0  0  0
   25.6388    1.9158   21.9409 C   0  0  0  0  0  0  0  0  0  0  0  0
   25.6606    2.4588   23.3072 C   0  0  0  0  0  0  0  0  0  0  0  0
   26.9284    2.1137   23.3371 C   0  0  0  0  0  0  0  0  0  0  0  0
   27.5196    3.2618   22.7418 C   0  0  0  0  0  0  0  0  0  0  0  0
   26.7375    3.5536   20.9033 C   0  0  0  0  0  0  0  0  0  0  0  0
   25.0993    3.7686   19.1128 C   0  0  0  0  0  0  0  0  0  0  0  0
   23.4017    3.6506   17.7418 C   0  0  0  0  0  0  0  0  0  0  0  0
   21.4311    3.4434   15.9917 C   0  0  0  0  0  0  0  0  0  0  0  0
   19.4977    3.3413   14.5497 C   0  0  0  0  0  0  0  0  0  0  0  0
   17.3304    3.2060   12.6881 C   0  0  0  0  0  3  0  0  0  0  0  0
   14.6653    2.3985   10.0992 H   0  0  0  0  0  0  0  0  0  0  0  0
   12.3563    2.1936    8.4701 H   0  0  0  0  0  0  0  0  0  0  0  0
    9.9280    2.0808    7.1274 H   0  0  0  0  0  0  0  0  0  0  0  0
    8.5457    1.7973    5.2294 H   0  0  0  0  0  0  0  0  0  0  0  0
    6.2375    1.0641    4.5368 H   0  0  0  0  0  0  0  0  0  0  0  0
    6.8689    0.1944    2.6729 H   0  0  0  0  0  0  0  0  0  0  0  0
    5.6802    0.4744    5.8289 H   0  0  0  0  0  0  0  0  0  0  0  0
    8.5977   -0.1290    5.1638 H   0  0  0  0  0  0  0  0  0  0  0  0
    7.6769    1.1198    7.1578 H   0  0  0  0  0  0  0  0  0  0  0  0
   10.3301    0.2842    6.3338 H   0  0  0  0  0  0  0  0  0  0  0  0
    9.9128    0.9818    9.1644 H   0  0  0  0  0  0  0  0  0  0  0  0
   12.7303    0.5249    7.9080 H   0  0  0  0  0  0  0  0  0  0  0  0
   11.4876    1.2147   10.7454 H   0  0  0  0  0  0  0  0  0  0  0  0
   14.5055    0.7346    9.7385 H   0  0  0  0  0  0  0  0  0  0  0  0
   13.5056    1.4238   12.4483 H   0  0  0  0  0  0  0  0  0  0  0  0
   16.1591    1.0268   11.3448 H   0  0  0  0  0  0  0  0  0  0  0  0
   15.0686    1.6661   14.1233 H   0  0  0  0  0  0  0  0  0  0  0  0
   17.9974    1.1728   12.7200 H   0  0  0  0  0  0  0  0  0  0  0  0
   17.0189    1.8278   15.6498 H   0  0  0  0  0  0  0  0  0  0  0  0
   19.6875    1.3387   14.1950 H   0  0  0  0  0  0  0  0  0  0  0  0
   18.8381    1.9528   17.1933 H   0  0  0  0  0  0  0  0  0  0  0  0
   21.9215    1.4545   15.8913 H   0  0  0  0  0  0  0  0  0  0  0  0
   20.2281    2.2259   18.9245 H   0  0  0  0  0  0  0  0  0  0  0  0
   22.3813    1.7288   18.1407 H   0  0  0  0  0  0  0  0  0  0  0  0
   22.3629    2.4670   20.8680 H   0  0  0  0  0  0  0  0  0  0  0  0
   25.0058    1.6654   19.2379 H   0  0  0  0  0  0  0  0  0  0  0  0
   23.9639    2.6642   22.1265 H   0  0  0  0  0  0  0  0  0  0  0  0
   26.6010    1.6906   21.1161 H   0  0  0  0  0  0  0  0  0  0  0  0
   25.9851    2.9945   24.2079 H   0  0  0  0  0  0  0  0  0  0  0  0
   27.7836    1.6745   22.6817 H   0  0  0  0  0  0  0  0  0  0  0  0
   27.9052    3.0227   24.4319 H   0  0  0  0  0  0  0  0  0  0  0  0
   28.2714    3.2223   21.6919 H   0  0  0  0  0  0  0  0  0  0  0  0
   26.0251    3.6496   20.5610 H   0  0  0  0  0  0  0  0  0  0  0  0
   24.3894    3.2893   18.9483 H   0  0  0  0  0  0  0  0  0  0  0  0
   22.4714    3.0270   16.9890 H   0  0  0  0  0  0  0  0  0  0  0  0
   20.6170    2.7200   15.1960 H   0  0  0  0  0  0  0  0  0  0  0  0
  1  2  1  0  0  0  0
  1 37  2  3  0  0  0
  1 38  1  0  0  0  0
  2  3  1  0  0  0  0
  2 39  1  0  0  0  0
  3  4  2  3  0  0  0
  3 40  1  0  0  0  0
  4  5  1  0  0  0  0
  4 41  1  0  0  0  0
  5  6  2  3  0  0  0
  5 42  1  0  0  0  0
  6  7  1  0  0  0  0
  6 43  1  0  0  0  0
  7  8  2  3  0  0  0
  7 44  1  0  0  0  0
  8  9  1  0  0  0  0
  8 45  1  0  0  0  0
  9 10  2  3  0  0  0
  9 46  1  0  0  0  0
 10 11  1  0  0  0  0
 10 47  1  0  0  0  0
 11 12  2  3  0  0  0
 11 48  1  0  0  0  0
 12 13  1  0  0  0  0
 12 49  1  0  0  0  0
 13 14  2  3  0  0  0
 13 50  1  0  0  0  0
 14 15  1  0  0  0  0
 14 51  1  0  0  0  0
 15 16  2  3  0  0  0
 15 52  1  0  0  0  0
 16 17  1  0  0  0  0
 16 53  1  0  0  0  0
 17 18  2  3  0  0  0
 17 54  1  0  0  0  0
 18 19  1  0  0  0  0
 18 55  1  0  0  0  0
 19 20  2  3  0  0  0
 19 56  1  0  0  0  0
 20 21  1  0  0  0  0
 20 57  1  0  0  0  0
 21 22  2  3  0  0  0
 21 58  1  0  0  0  0
 22 23  1  0  0  0  0
 22 59  1  0  0  0  0
 23 24  2  3  0  0  0
 23 60  1  0  0  0  0
 24 25  1  0  0  0  0
 24 61  1  0  0  0  0
 25 26  2  3  0  0  0
 25 62  1  0  0  0  0
 26 27  1  0  0  0  0
 26 63  1  0  0  0  0
 27 28  2  3  0  0  0
 27 64  1  0  0  0  0
 28 29  1  0  0  0  0
 28 65  1  0  0  0  0
 29 30  2  3  0  0  0
 29 66  1  0  0  0  0
 30 31  1  0  0  0  0
 30 67  1  0  0  0  0
 31 32  2  3  0  0  0
 31 68  1  0  0  0  0
 32 33  1  0  0  0  0
 32 69  1  0  0  0  0
 33 34  2  3  0  0  0
 33 70  1  0  0  0  0
 34 35  1  0  0  0  0
 34 71  1  0  0  0  0
 35 36  2  3  0  0  0
 35 72  1  0  0  0  0
 36 37  1  0  0  0  0
 36 73  1  0  0  0  0
M  END
$$$$
