
 OpenBabel04232216523D

 44 44  0  0  0  0  0  0  0  0999 V2000
    0.9451   -0.1321   -1.6349 C   0  0  0  0  0  0  0  0  0  0  0  0
    2.4621   -0.0974   -1.7136 C   0  0  0  0  0  0  0  0  0  0  0  0
    3.0282    1.1296   -0.9867 C   0  0  0  0  0  0  0  0  0  0  0  0
    4.5752    1.2103   -1.0445 C   0  0  0  0  0  0  0  0  0  0  0  0
    5.0682    1.2881   -2.5130 C   0  0  0  0  0  0  0  0  0  0  0  0
    5.8060    0.0547   -2.9341 C   0  0  0  0  0  3  0  0  0  0  0  0
    7.2350    0.1222   -3.3709 C   0  0  0  0  0  0  0  0  0  0  0  0
    8.1761   -0.6108   -2.4039 C   0  0  0  0  0  0  0  0  0  0  0  0
    9.3207    0.2796   -1.8887 C   0  0  0  0  0  0  0  0  0  0  0  0
    9.5240    0.1922   -0.3672 C   0  0  0  0  0  0  0  0  0  0  0  0
    9.3727    1.5507    0.3402 C   0  0  0  0  0  0  0  0  0  0  0  0
    8.2958    1.5579    1.4373 C   0  0  0  0  0  0  0  0  0  0  0  0
    7.2090    2.6254    1.2239 C   0  0  0  0  0  0  0  0  0  0  0  0
    5.7894    2.0392    1.0946 C   0  0  0  0  0  0  0  0  0  0  0  0
    5.0958    2.4257   -0.2257 C   0  0  0  0  0  0  0  0  0  0  0  0
    0.5523   -0.9773   -2.2050 H   0  0  0  0  0  0  0  0  0  0  0  0
    0.5105    0.7869   -2.0477 H   0  0  0  0  0  0  0  0  0  0  0  0
    0.6118   -0.2318   -0.5981 H   0  0  0  0  0  0  0  0  0  0  0  0
    2.7489   -0.0738   -2.7699 H   0  0  0  0  0  0  0  0  0  0  0  0
    2.8760   -1.0176   -1.2859 H   0  0  0  0  0  0  0  0  0  0  0  0
    2.6830    1.1172    0.0564 H   0  0  0  0  0  0  0  0  0  0  0  0
    2.5922    2.0276   -1.4456 H   0  0  0  0  0  0  0  0  0  0  0  0
    4.9743    0.2870   -0.5955 H   0  0  0  0  0  0  0  0  0  0  0  0
    5.7200    2.1633   -2.6741 H   0  0  0  0  0  0  0  0  0  0  0  0
    4.2328    1.4380   -3.2060 H   0  0  0  0  0  0  0  0  0  0  0  0
    5.2726   -0.8923   -2.9966 H   0  0  0  0  0  0  0  0  0  0  0  0
    7.5313    1.1684   -3.5119 H   0  0  0  0  0  0  0  0  0  0  0  0
    7.3043   -0.3424   -4.3603 H   0  0  0  0  0  0  0  0  0  0  0  0
    8.6284   -1.4537   -2.9444 H   0  0  0  0  0  0  0  0  0  0  0  0
    7.6139   -1.0574   -1.5756 H   0  0  0  0  0  0  0  0  0  0  0  0
    9.1874    1.3192   -2.2049 H   0  0  0  0  0  0  0  0  0  0  0  0
   10.2488   -0.0518   -2.3739 H   0  0  0  0  0  0  0  0  0  0  0  0
   10.5474   -0.1630   -0.1872 H   0  0  0  0  0  0  0  0  0  0  0  0
    8.8740   -0.5677    0.0799 H   0  0  0  0  0  0  0  0  0  0  0  0
    9.2125    2.3606   -0.3796 H   0  0  0  0  0  0  0  0  0  0  0  0
   10.3342    1.7816    0.8186 H   0  0  0  0  0  0  0  0  0  0  0  0
    8.7976    1.7847    2.3880 H   0  0  0  0  0  0  0  0  0  0  0  0
    7.8572    0.5642    1.5751 H   0  0  0  0  0  0  0  0  0  0  0  0
    7.4554    3.2762    0.3775 H   0  0  0  0  0  0  0  0  0  0  0  0
    7.2168    3.2873    2.1003 H   0  0  0  0  0  0  0  0  0  0  0  0
    5.1866    2.4433    1.9191 H   0  0  0  0  0  0  0  0  0  0  0  0
    5.7908    0.9543    1.2450 H   0  0  0  0  0  0  0  0  0  0  0  0
    5.7820    3.0277   -0.8324 H   0  0  0  0  0  0  0  0  0  0  0  0
    4.2668    3.1056    0.0135 H   0  0  0  0  0  0  0  0  0  0  0  0
  1  2  1  0  0  0  0
  1 16  1  0  0  0  0
  1 17  1  0  0  0  0
  1 18  1  0  0  0  0
  2  3  1  0  0  0  0
  2 19  1  0  0  0  0
  2 20  1  0  0  0  0
  3  4  1  0  0  0  0
  3 21  1  0  0  0  0
  3 22  1  0  0  0  0
  4  5  1  0  0  0  0
  4 15  1  0  0  0  0
  4 23  1  0  0  0  0
  5  6  1  0  0  0  0
  5 24  1  0  0  0  0
  5 25  1  0  0  0  0
  6  7  1  0  0  0  0
  6 26  1  0  0  0  0
  7  8  1  0  0  0  0
  7 27  1  0  0  0  0
  7 28  1  0  0  0  0
  8  9  1  0  0  0  0
  8 29  1  0  0  0  0
  8 30  1  0  0  0  0
  9 10  1  0  0  0  0
  9 31  1  0  0  0  0
  9 32  1  0  0  0  0
 10 11  1  0  0  0  0
 10 33  1  0  0  0  0
 10 34  1  0  0  0  0
 11 12  1  0  0  0  0
 11 35  1  0  0  0  0
 11 36  1  0  0  0  0
 12 13  1  0  0  0  0
 12 37  1  0  0  0  0
 12 38  1  0  0  0  0
 13 14  1  0  0  0  0
 13 39  1  0  0  0  0
 13 40  1  0  0  0  0
 14 15  1  0  0  0  0
 14 41  1  0  0  0  0
 14 42  1  0  0  0  0
 15 43  1  0  0  0  0
 15 44  1  0  0  0  0
M  END
$$$$
