
 OpenBabel04232216523D

 59 60  0  0  0  0  0  0  0  0999 V2000
    3.3986    2.5795    0.9941 C   0  0  0  0  0  0  0  0  0  0  0  0
    4.9184    2.1972    1.2652 C   0  0  0  0  0  0  0  0  0  0  0  0
    6.2336    3.3000    1.2690 C   0  0  0  0  0  0  0  0  0  0  0  0
    7.6368    3.4055    2.3294 C   0  0  0  0  0  0  0  0  0  0  0  0
    7.4963    2.3449    3.3357 C   0  0  0  0  0  0  0  0  0  0  0  0
    8.2666    1.2371    3.2690 C   0  0  0  0  0  0  0  0  0  0  0  0
    8.4902    0.5276    1.9620 C   0  0  0  0  0  0  0  0  0  0  0  0
    9.1048    1.0039    4.4681 C   0  0  0  0  0  0  0  0  0  0  0  0
   10.4571    1.2056    4.3778 C   0  0  0  0  0  0  0  0  0  0  0  0
   11.2984    2.3457    5.0914 C   0  0  0  0  0  0  0  0  0  0  0  0
   10.1324    3.0664    5.9678 C   0  0  0  0  0  0  0  0  0  0  0  0
    9.9836    4.2756    6.8869 C   0  0  0  0  0  0  0  0  0  0  0  0
   10.8280    4.7033    7.6764 O   0  0  0  0  0  0  0  0  0  0  0  0
   12.1323    3.0142    4.1509 C   0  0  0  0  0  0  0  0  0  0  0  0
   11.3011    3.4709    3.0027 C   0  0  0  0  0  0  0  0  0  0  0  0
   10.2686    4.3989    3.2441 C   0  0  0  0  0  0  0  0  0  0  0  0
   10.9115    5.6554    4.3466 C   0  0  0  0  0  0  0  0  0  0  0  0
   12.4599    5.4367    5.1841 C   0  0  0  0  0  0  0  0  0  0  0  0
   13.3925    5.8497    6.4570 C   0  0  0  0  0  0  0  0  0  0  0  0
   14.5528    4.7780    6.9285 C   0  0  0  0  0  0  0  0  0  0  0  0
   15.9998    5.1104    6.5716 C   0  0  0  0  0  0  0  0  0  0  0  0
   16.3314    4.6690    5.1496 C   0  0  0  0  0  0  0  0  0  0  0  0
   15.1664    4.3489    4.0905 C   0  0  0  0  0  0  0  0  0  0  0  0
   13.8920    3.1193    4.0839 C   0  0  0  0  0  0  0  0  0  0  0  0
    8.7945    4.2785    2.3639 C   0  0  0  0  0  0  0  0  0  0  0  0
    2.8372    1.6843    0.6453 H   0  0  0  0  0  0  0  0  0  0  0  0
    3.2291    3.3250    0.2079 H   0  0  0  0  0  0  0  0  0  0  0  0
    2.8484    2.8831    1.8950 H   0  0  0  0  0  0  0  0  0  0  0  0
    5.1067    1.5303    0.4056 H   0  0  0  0  0  0  0  0  0  0  0  0
    4.9209    1.5507    2.1460 H   0  0  0  0  0  0  0  0  0  0  0  0
    5.7972    4.2956    1.1463 H   0  0  0  0  0  0  0  0  0  0  0  0
    6.6997    3.0311    0.3075 H   0  0  0  0  0  0  0  0  0  0  0  0
    7.1292    2.7483    4.2743 H   0  0  0  0  0  0  0  0  0  0  0  0
    7.5203    0.2061    1.5609 H   0  0  0  0  0  0  0  0  0  0  0  0
    9.1075   -0.3735    2.0737 H   0  0  0  0  0  0  0  0  0  0  0  0
    8.9726    1.1816    1.2231 H   0  0  0  0  0  0  0  0  0  0  0  0
    8.5592    1.3274    5.3493 H   0  0  0  0  0  0  0  0  0  0  0  0
   10.9386    0.8955    3.4522 H   0  0  0  0  0  0  0  0  0  0  0  0
    9.7703    2.2983    6.6594 H   0  0  0  0  0  0  0  0  0  0  0  0
    9.3204    3.3163    5.2729 H   0  0  0  0  0  0  0  0  0  0  0  0
    8.9678    4.7301    6.9209 H   0  0  0  0  0  0  0  0  0  0  0  0
   11.1671    2.7948    2.1939 H   0  0  0  0  0  0  0  0  0  0  0  0
   10.1373    5.9222    5.0676 H   0  0  0  0  0  0  0  0  0  0  0  0
   11.0801    6.5212    3.6851 H   0  0  0  0  0  0  0  0  0  0  0  0
   13.1176    5.5348    4.3341 H   0  0  0  0  0  0  0  0  0  0  0  0
   12.3444    4.4520    5.5816 H   0  0  0  0  0  0  0  0  0  0  0  0
   12.7726    5.9045    7.3531 H   0  0  0  0  0  0  0  0  0  0  0  0
   13.8807    6.8198    6.3314 H   0  0  0  0  0  0  0  0  0  0  0  0
   14.3661    3.7522    6.5884 H   0  0  0  0  0  0  0  0  0  0  0  0
   14.5503    4.6952    8.0264 H   0  0  0  0  0  0  0  0  0  0  0  0
   16.7137    4.5992    7.2536 H   0  0  0  0  0  0  0  0  0  0  0  0
   16.2282    6.1733    6.7585 H   0  0  0  0  0  0  0  0  0  0  0  0
   16.9425    5.5042    4.7440 H   0  0  0  0  0  0  0  0  0  0  0  0
   17.0760    3.8551    5.1859 H   0  0  0  0  0  0  0  0  0  0  0  0
   14.8189    5.3272    3.7491 H   0  0  0  0  0  0  0  0  0  0  0  0
   15.7978    4.0212    3.2484 H   0  0  0  0  0  0  0  0  0  0  0  0
   14.2814    2.3167    4.7197 H   0  0  0  0  0  0  0  0  0  0  0  0
   14.0323    2.7907    3.0442 H   0  0  0  0  0  0  0  0  0  0  0  0
    8.8506    4.9733    1.5195 H   0  0  0  0  0  0  0  0  0  0  0  0
  1  2  1  0  0  0  0
  1 26  1  0  0  0  0
  1 27  1  0  0  0  0
  1 28  1  0  0  0  0
  2  3  1  0  0  0  0
  2 29  1  0  0  0  0
  2 30  1  0  0  0  0
  3  4  1  0  0  0  0
  3 31  1  0  0  0  0
  3 32  1  0  0  0  0
  4  5  1  0  0  0  0
  4 25  2  0  0  0  0
  5  6  2  0  0  0  0
  5 33  1  0  0  0  0
  6  7  1  0  0  0  0
  6  8  1  0  0  0  0
  7 34  1  0  0  0  0
  7 35  1  0  0  0  0
  7 36  1  0  0  0  0
  8  9  2  0  0  0  0
  8 37  1  0  0  0  0
  9 10  1  0  0  0  0
  9 38  1  0  0  0  0
 10 11  1  0  0  0  0
 10 14  2  0  0  0  0
 11 12  1  0  0  0  0
 11 39  1  0  0  0  0
 11 40  1  0  0  0  0
 12 13  2  0  0  0  0
 12 41  1  0  0  0  0
 14 15  1  0  0  0  0
 14 24  1  0  0  0  0
 15 16  2  0  0  0  0
 15 42  1  0  0  0  0
 16 17  1  0  0  0  0
 16 25  1  0  0  0  0
 17 18  1  0  0  0  0
 17 43  1  0  0  0  0
 17 44  1  0  0  0  0
 18 19  1  0  0  0  0
 18 45  1  0  0  0  0
 18 46  1  0  0  0  0
 19 20  1  0  0  0  0
 19 47  1  0  0  0  0
 19 48  1  0  0  0  0
 20 21  1  0  0  0  0
 20 49  1  0  0  0  0
 20 50  1  0  0  0  0
 21 22  1  0  0  0  0
 21 51  1  0  0  0  0
 21 52  1  0  0  0  0
 22 23  1  0  0  0  0
 22 53  1  0  0  0  0
 22 54  1  0  0  0  0
 23 24  1  0  0  0  0
 23 55  1  0  0  0  0
 23 56  1  0  0  0  0
 24 57  1  0  0  0  0
 24 58  1  0  0  0  0
 25 59  1  0  0  0  0
M  END
$$$$
