
 OpenBabel04232216483D

 59 59  0  0  0  0  0  0  0  0999 V2000
    2.1703    1.2650    0.5617 C   0  0  0  0  0  0  0  0  0  0  0  0
    2.9883    0.0817    1.0900 C   0  0  0  0  0  0  0  0  0  0  0  0
    2.2782   -1.1367    0.7569 C   0  0  0  0  0  0  0  0  0  0  0  0
    2.6374   -1.5974   -0.4495 C   0  0  0  0  0  0  0  0  0  0  0  0
    3.5588   -2.7205   -0.3935 C   0  0  0  0  0  0  0  0  0  0  0  0
    2.8945   -3.9779   -0.7452 C   0  0  0  0  0  0  0  0  0  0  0  0
    3.0873   -3.8372   -2.2689 C   0  0  0  0  0  0  0  0  0  0  0  0
    2.1673   -4.6963   -3.0192 C   0  0  0  0  0  0  0  0  0  0  0  0
    0.7550   -4.2260   -2.7736 C   0  0  0  0  0  0  0  0  0  0  0  0
   -0.0987   -5.3005   -3.3408 C   0  0  0  0  0  0  0  0  0  0  0  0
   -1.5289   -4.9807   -3.0442 C   0  0  0  0  0  0  0  0  0  0  0  0
   -2.2977   -6.1111   -3.6435 C   0  0  0  0  0  0  0  0  0  0  0  0
   -3.7537   -5.8547   -3.4654 C   0  0  0  0  0  0  0  0  0  0  0  0
   -4.5070   -6.9558   -4.1681 C   0  0  0  0  0  0  0  0  0  0  0  0
   -5.9907   -6.7105   -4.0302 C   0  0  0  0  0  0  0  0  0  0  0  0
   -6.7601   -7.8252   -4.7180 C   0  0  0  0  0  0  0  0  0  0  0  0
   -8.2474   -7.5860   -4.5664 C   0  0  0  0  0  0  0  0  0  0  0  0
    4.8684   -2.4906   -0.5334 C   0  0  0  0  0  0  0  0  0  0  0  0
    5.9317   -3.3611   -0.0742 C   0  0  0  0  0  0  0  0  0  0  0  0
    6.6349   -2.6751    0.8523 C   0  0  0  0  0  0  0  0  0  0  0  0
    5.9472   -2.0216    2.0026 C   0  0  0  0  0  0  0  0  0  0  0  0
    5.0599   -1.0200    2.2295 C   0  0  0  0  0  0  0  0  0  0  0  0
    4.2735    0.0530    1.5568 C   0  0  0  0  0  0  0  0  0  0  0  0
    1.3994    0.9322   -0.1611 H   0  0  0  0  0  0  0  0  0  0  0  0
    2.7680    1.9900    0.0062 H   0  0  0  0  0  0  0  0  0  0  0  0
    1.6014    1.7604    1.3557 H   0  0  0  0  0  0  0  0  0  0  0  0
    1.1929   -1.1143    0.9194 H   0  0  0  0  0  0  0  0  0  0  0  0
    3.1393   -0.8593   -1.1002 H   0  0  0  0  0  0  0  0  0  0  0  0
    1.8661   -3.9572   -0.3618 H   0  0  0  0  0  0  0  0  0  0  0  0
    3.3390   -4.8915   -0.3323 H   0  0  0  0  0  0  0  0  0  0  0  0
    4.1097   -4.0239   -2.5336 H   0  0  0  0  0  0  0  0  0  0  0  0
    2.8570   -2.8004   -2.5987 H   0  0  0  0  0  0  0  0  0  0  0  0
    2.3325   -5.7346   -2.7188 H   0  0  0  0  0  0  0  0  0  0  0  0
    2.4107   -4.5961   -4.0817 H   0  0  0  0  0  0  0  0  0  0  0  0
    0.5643   -3.2490   -3.2386 H   0  0  0  0  0  0  0  0  0  0  0  0
    0.4998   -4.1086   -1.7156 H   0  0  0  0  0  0  0  0  0  0  0  0
    0.1689   -6.2599   -2.8782 H   0  0  0  0  0  0  0  0  0  0  0  0
    0.0834   -5.3843   -4.4173 H   0  0  0  0  0  0  0  0  0  0  0  0
   -1.8072   -4.0145   -3.4828 H   0  0  0  0  0  0  0  0  0  0  0  0
   -1.7028   -4.9138   -1.9622 H   0  0  0  0  0  0  0  0  0  0  0  0
   -2.0189   -7.0592   -3.1605 H   0  0  0  0  0  0  0  0  0  0  0  0
   -2.0501   -6.2074   -4.7093 H   0  0  0  0  0  0  0  0  0  0  0  0
   -4.0299   -4.8752   -3.8999 H   0  0  0  0  0  0  0  0  0  0  0  0
   -4.0117   -5.8123   -2.4006 H   0  0  0  0  0  0  0  0  0  0  0  0
   -4.2298   -7.9215   -3.7295 H   0  0  0  0  0  0  0  0  0  0  0  0
   -4.2221   -6.9846   -5.2276 H   0  0  0  0  0  0  0  0  0  0  0  0
   -6.2470   -5.7418   -4.4726 H   0  0  0  0  0  0  0  0  0  0  0  0
   -6.2545   -6.6628   -2.9669 H   0  0  0  0  0  0  0  0  0  0  0  0
   -6.4883   -8.7900   -4.2661 H   0  0  0  0  0  0  0  0  0  0  0  0
   -6.4885   -7.8734   -5.7763 H   0  0  0  0  0  0  0  0  0  0  0  0
   -8.5281   -7.5640   -3.5087 H   0  0  0  0  0  0  0  0  0  0  0  0
   -8.8224   -8.3734   -5.0568 H   0  0  0  0  0  0  0  0  0  0  0  0
   -8.5326   -6.6327   -5.0200 H   0  0  0  0  0  0  0  0  0  0  0  0
    5.1860   -1.4591   -0.6460 H   0  0  0  0  0  0  0  0  0  0  0  0
    5.6102   -4.3766    0.1335 H   0  0  0  0  0  0  0  0  0  0  0  0
    7.3317   -1.9561    0.4248 H   0  0  0  0  0  0  0  0  0  0  0  0
    6.3034   -2.5350    2.9041 H   0  0  0  0  0  0  0  0  0  0  0  0
    4.8809   -0.8980    3.2996 H   0  0  0  0  0  0  0  0  0  0  0  0
    4.7590    1.0208    1.6521 H   0  0  0  0  0  0  0  0  0  0  0  0
  1  2  1  0  0  0  0
  1 24  1  0  0  0  0
  1 25  1  0  0  0  0
  1 26  1  0  0  0  0
  2  3  1  0  0  0  0
  2 23  2  0  0  0  0
  3  4  2  0  0  0  0
  3 27  1  0  0  0  0
  4  5  1  0  0  0  0
  4 28  1  0  0  0  0
  5  6  1  0  0  0  0
  5 18  2  0  0  0  0
  6  7  1  0  0  0  0
  6 29  1  0  0  0  0
  6 30  1  0  0  0  0
  7  8  1  0  0  0  0
  7 31  1  0  0  0  0
  7 32  1  0  0  0  0
  8  9  1  0  0  0  0
  8 33  1  0  0  0  0
  8 34  1  0  0  0  0
  9 10  1  0  0  0  0
  9 35  1  0  0  0  0
  9 36  1  0  0  0  0
 10 11  1  0  0  0  0
 10 37  1  0  0  0  0
 10 38  1  0  0  0  0
 11 12  1  0  0  0  0
 11 39  1  0  0  0  0
 11 40  1  0  0  0  0
 12 13  1  0  0  0  0
 12 41  1  0  0  0  0
 12 42  1  0  0  0  0
 13 14  1  0  0  0  0
 13 43  1  0  0  0  0
 13 44  1  0  0  0  0
 14 15  1  0  0  0  0
 14 45  1  0  0  0  0
 14 46  1  0  0  0  0
 15 16  1  0  0  0  0
 15 47  1  0  0  0  0
 15 48  1  0  0  0  0
 16 17  1  0  0  0  0
 16 49  1  0  0  0  0
 16 50  1  0  0  0  0
 17 51  1  0  0  0  0
 17 52  1  0  0  0  0
 17 53  1  0  0  0  0
 18 19  1  0  0  0  0
 18 54  1  0  0  0  0
 19 20  2  0  0  0  0
 19 55  1  0  0  0  0
 20 21  1  0  0  0  0
 20 56  1  0  0  0  0
 21 22  2  0  0  0  0
 21 57  1  0  0  0  0
 22 23  1  0  0  0  0
 22 58  1  0  0  0  0
 23 59  1  0  0  0  0
M  END
$$$$
