
 OpenBabel04232216473D

 72 74  0  0  0  0  0  0  0  0999 V2000
    8.3376    1.1006   -1.6300 C   0  0  0  0  0  0  0  0  0  0  0  0
    8.3193    0.5577   -3.0344 C   0  0  0  0  0  0  0  0  0  0  0  0
    7.5241   -0.5598   -3.5090 C   0  0  0  0  0  0  0  0  0  0  0  0
    6.5588   -1.5055   -3.4500 C   0  0  0  0  0  0  0  0  0  0  0  0
    5.8126   -1.9783   -2.4004 N   0  0  0  0  0  0  0  0  0  0  0  0
    6.5319   -2.1617   -1.1947 N   0  0  0  0  0  0  0  0  0  0  0  0
    5.6015   -2.4092   -0.0950 C   0  0  0  0  0  0  0  0  0  0  0  0
    4.8246   -3.7151   -0.2883 C   0  0  0  0  0  0  0  0  0  0  0  0
    5.7886   -4.8830   -0.4775 C   0  0  0  0  0  0  0  0  0  0  0  0
    5.0623   -6.1794   -0.7878 C   0  0  0  0  0  0  0  0  0  0  0  0
    6.0380   -7.3659   -0.8932 C   0  0  0  0  0  0  0  0  0  0  0  0
    5.2237   -8.6563   -1.1394 C   0  0  0  0  0  0  0  0  0  0  0  0
    5.9663   -9.8956   -0.6283 C   0  0  0  0  0  0  0  0  0  0  0  0
    6.6255  -10.7147   -1.7393 C   0  0  0  0  0  0  0  0  0  0  0  0
    7.8510  -11.4991   -1.2521 C   0  0  0  0  0  0  0  0  0  0  0  0
    9.0320  -10.6202   -0.8098 C   0  0  0  0  0  0  0  0  0  0  0  0
    9.6713   -9.8340   -1.9610 C   0  0  0  0  0  0  0  0  0  0  0  0
   10.3190   -8.5190   -1.5079 C   0  0  0  0  0  0  0  0  0  0  0  0
    9.6979   -7.2674   -2.1559 C   0  0  0  0  0  0  0  0  0  0  0  0
    8.4858   -6.7176   -1.3881 C   0  0  0  0  0  0  0  0  0  0  0  0
    7.1342   -7.1656   -1.9718 C   0  0  0  0  0  0  0  0  0  0  0  0
    6.1867   -1.9779   -4.8679 C   0  0  0  0  0  0  0  0  0  0  0  0
    5.4395   -3.0111   -5.4929 C   0  0  0  0  0  0  0  0  0  0  0  0
    5.8945   -2.5877   -6.7127 C   0  0  0  0  0  0  0  0  0  0  0  0
    6.5159   -1.4819   -6.0872 C   0  0  0  0  0  0  0  0  0  0  0  0
    7.1760   -0.2089   -6.3261 C   0  0  0  0  0  0  0  0  0  0  0  0
    8.0564    0.4641   -7.0817 C   0  0  0  0  0  0  0  0  0  0  0  0
    8.5741    1.6927   -6.4190 C   0  0  0  0  0  0  0  0  0  0  0  0
    8.9292    1.9339   -5.1223 C   0  0  0  0  0  0  0  0  0  0  0  0
    9.2289    1.0626   -3.9358 C   0  0  0  0  0  0  0  0  0  0  0  0
    8.9491    2.0088   -1.5831 H   0  0  0  0  0  0  0  0  0  0  0  0
    8.8176    0.3793   -0.9538 H   0  0  0  0  0  0  0  0  0  0  0  0
    7.3622    1.3618   -1.2400 H   0  0  0  0  0  0  0  0  0  0  0  0
    8.1165   -0.8596   -4.3821 H   0  0  0  0  0  0  0  0  0  0  0  0
    5.3307   -2.8298   -2.7098 H   0  0  0  0  0  0  0  0  0  0  0  0
    7.0902   -1.3297   -0.9866 H   0  0  0  0  0  0  0  0  0  0  0  0
    4.9183   -1.5637    0.0283 H   0  0  0  0  0  0  0  0  0  0  0  0
    6.1918   -2.4880    0.8256 H   0  0  0  0  0  0  0  0  0  0  0  0
    4.1551   -3.6400   -1.1545 H   0  0  0  0  0  0  0  0  0  0  0  0
    4.1825   -3.8902    0.5811 H   0  0  0  0  0  0  0  0  0  0  0  0
    6.4038   -4.9988    0.4226 H   0  0  0  0  0  0  0  0  0  0  0  0
    6.4664   -4.6626   -1.3065 H   0  0  0  0  0  0  0  0  0  0  0  0
    4.4851   -6.0780   -1.7149 H   0  0  0  0  0  0  0  0  0  0  0  0
    4.3421   -6.3764    0.0176 H   0  0  0  0  0  0  0  0  0  0  0  0
    6.5133   -7.4543    0.0924 H   0  0  0  0  0  0  0  0  0  0  0  0
    4.9525   -8.7488   -2.1991 H   0  0  0  0  0  0  0  0  0  0  0  0
    4.2795   -8.5918   -0.5859 H   0  0  0  0  0  0  0  0  0  0  0  0
    5.2440  -10.5481   -0.1190 H   0  0  0  0  0  0  0  0  0  0  0  0
    6.6790   -9.6037    0.1451 H   0  0  0  0  0  0  0  0  0  0  0  0
    6.8975  -10.0958   -2.5950 H   0  0  0  0  0  0  0  0  0  0  0  0
    5.8841  -11.4235   -2.1273 H   0  0  0  0  0  0  0  0  0  0  0  0
    8.1807  -12.1685   -2.0529 H   0  0  0  0  0  0  0  0  0  0  0  0
    7.5486  -12.1353   -0.4119 H   0  0  0  0  0  0  0  0  0  0  0  0
    9.7972  -11.2739   -0.3717 H   0  0  0  0  0  0  0  0  0  0  0  0
    8.7220   -9.9493   -0.0045 H   0  0  0  0  0  0  0  0  0  0  0  0
    8.9639   -9.6495   -2.7713 H   0  0  0  0  0  0  0  0  0  0  0  0
   10.4514  -10.4698   -2.4000 H   0  0  0  0  0  0  0  0  0  0  0  0
   11.3758   -8.5508   -1.8023 H   0  0  0  0  0  0  0  0  0  0  0  0
   10.3198   -8.4192   -0.4162 H   0  0  0  0  0  0  0  0  0  0  0  0
    9.4572   -7.4471   -3.2099 H   0  0  0  0  0  0  0  0  0  0  0  0
   10.4710   -6.4877   -2.1535 H   0  0  0  0  0  0  0  0  0  0  0  0
    8.5302   -5.6226   -1.4338 H   0  0  0  0  0  0  0  0  0  0  0  0
    8.5691   -6.9780   -0.3276 H   0  0  0  0  0  0  0  0  0  0  0  0
    7.2809   -8.0850   -2.5365 H   0  0  0  0  0  0  0  0  0  0  0  0
    6.8082   -6.4305   -2.7179 H   0  0  0  0  0  0  0  0  0  0  0  0
    4.8215   -3.8253   -5.1388 H   0  0  0  0  0  0  0  0  0  0  0  0
    5.7452   -2.9181   -7.7364 H   0  0  0  0  0  0  0  0  0  0  0  0
    6.8860    0.4114   -5.4813 H   0  0  0  0  0  0  0  0  0  0  0  0
    8.4781    0.1147   -8.0081 H   0  0  0  0  0  0  0  0  0  0  0  0
    8.6218    2.5367   -7.1116 H   0  0  0  0  0  0  0  0  0  0  0  0
    9.1822    2.9719   -4.8847 H   0  0  0  0  0  0  0  0  0  0  0  0
    9.7774    0.2484   -4.4355 H   0  0  0  0  0  0  0  0  0  0  0  0
  1  2  1  0  0  0  0
  1 31  1  0  0  0  0
  1 32  1  0  0  0  0
  1 33  1  0  0  0  0
  2  3  1  0  0  0  0
  2 30  2  0  0  0  0
  3  4  2  0  0  0  0
  3 34  1  0  0  0  0
  4  5  1  0  0  0  0
  4 22  1  0  0  0  0
  5  6  1  0  0  0  0
  5 35  1  0  0  0  0
  6  7  1  0  0  0  0
  6 36  1  0  0  0  0
  7  8  1  0  0  0  0
  7 37  1  0  0  0  0
  7 38  1  0  0  0  0
  8  9  1  0  0  0  0
  8 39  1  0  0  0  0
  8 40  1  0  0  0  0
  9 10  1  0  0  0  0
  9 41  1  0  0  0  0
  9 42  1  0  0  0  0
 10 11  1  0  0  0  0
 10 43  1  0  0  0  0
 10 44  1  0  0  0  0
 11 12  1  0  0  0  0
 11 21  1  0  0  0  0
 11 45  1  0  0  0  0
 12 13  1  0  0  0  0
 12 46  1  0  0  0  0
 12 47  1  0  0  0  0
 13 14  1  0  0  0  0
 13 48  1  0  0  0  0
 13 49  1  0  0  0  0
 14 15  1  0  0  0  0
 14 50  1  0  0  0  0
 14 51  1  0  0  0  0
 15 16  1  0  0  0  0
 15 52  1  0  0  0  0
 15 53  1  0  0  0  0
 16 17  1  0  0  0  0
 16 54  1  0  0  0  0
 16 55  1  0  0  0  0
 17 18  1  0  0  0  0
 17 56  1  0  0  0  0
 17 57  1  0  0  0  0
 18 19  1  0  0  0  0
 18 58  1  0  0  0  0
 18 59  1  0  0  0  0
 19 20  1  0  0  0  0
 19 60  1  0  0  0  0
 19 61  1  0  0  0  0
 20 21  1  0  0  0  0
 20 62  1  0  0  0  0
 20 63  1  0  0  0  0
 21 64  1  0  0  0  0
 21 65  1  0  0  0  0
 22 23  1  0  0  0  0
 22 25  2  0  0  0  0
 23 24  2  0  0  0  0
 23 66  1  0  0  0  0
 24 25  1  0  0  0  0
 24 67  1  0  0  0  0
 25 26  1  0  0  0  0
 26 27  2  0  0  0  0
 26 68  1  0  0  0  0
 27 28  1  0  0  0  0
 27 69  1  0  0  0  0
 28 29  2  0  0  0  0
 28 70  1  0  0  0  0
 29 30  1  0  0  0  0
 29 71  1  0  0  0  0
 30 72  1  0  0  0  0
M  END
$$$$
