
 OpenBabel04232216503D

 65 66  0  0  1  0  0  0  0  0999 V2000
    4.7590    0.4807   -2.3975 C   0  0  0  0  0  0  0  0  0  0  0  0
    6.1024    0.0747   -1.8425 C   0  0  0  0  0  0  0  0  0  0  0  0
    6.1497   -0.4355   -0.6371 N   0  0  0  0  0  0  0  0  0  0  0  0
    5.4070    0.2079    0.3472 C   0  0  0  0  0  0  0  0  0  0  0  0
    5.0428   -0.4926    1.6387 C   0  0  0  0  0  0  0  0  0  0  0  0
    6.2776   -0.3096    2.5598 C   0  0  0  0  0  0  0  0  0  0  0  0
    7.5186    0.2893    1.8094 C   0  0  3  0  0  0  0  0  0  0  0  0
    8.2187   -0.9022    1.0683 C   0  0  0  0  0  0  0  0  0  0  0  0
    9.0618   -1.7426    1.9993 C   0  0  0  0  0  0  0  0  0  0  0  0
    9.6572   -2.9627    1.2940 C   0  0  0  0  0  0  0  0  0  0  0  0
   10.2980   -3.8233    2.3698 C   0  0  0  0  0  0  0  0  0  0  0  0
   10.9553   -5.0721    1.8183 C   0  0  0  0  0  0  0  0  0  0  0  0
   11.5653   -5.8542    2.9785 C   0  0  0  0  0  0  0  0  0  0  0  0
   12.2624   -7.1073    2.4875 C   0  0  0  0  0  0  0  0  0  0  0  0
    5.7143    1.4439    0.5844 N   0  0  0  0  0  0  0  0  0  0  0  0
    7.0845    1.4688    0.8517 C   0  0  0  0  0  0  0  0  0  0  0  0
    7.8368    2.3619    0.1570 C   0  0  0  0  0  0  0  0  0  0  0  0
    7.0999    3.2312   -0.8788 C   0  0  0  0  0  0  0  0  0  0  0  0
    9.3155    2.4821    0.1660 C   0  0  0  0  0  0  0  0  0  0  0  0
   10.2021    1.4813    0.8649 C   0  0  0  0  0  0  0  0  0  0  0  0
    9.9334    3.4144   -0.5913 C   0  0  0  0  0  0  0  0  0  0  0  0
   11.2936    3.2147   -1.0410 C   0  0  0  0  0  0  0  0  0  0  0  0
   11.4869    3.4757   -2.3347 C   0  0  0  0  0  0  0  0  0  0  0  0
   11.8140    2.3692   -3.2052 C   0  0  0  0  0  0  0  0  0  0  0  0
   11.0759    1.2657   -3.4595 C   0  0  0  0  0  0  0  0  0  0  0  0
    9.8153    0.6124   -2.9855 C   0  0  0  0  0  0  0  0  0  0  0  0
    8.4899    0.9332   -3.0153 C   0  0  0  0  0  0  0  0  0  0  0  0
    7.3310   -0.0917   -2.8065 C   0  0  0  0  0  0  0  0  0  0  0  0
    7.3388   -1.1135   -3.4896 O   0  0  0  0  0  0  0  0  0  0  0  0
    4.1084    0.8843   -1.6155 H   0  0  0  0  0  0  0  0  0  0  0  0
    4.2685   -0.4461   -2.7350 H   0  0  0  0  0  0  0  0  0  0  0  0
    4.8285    1.1907   -3.2118 H   0  0  0  0  0  0  0  0  0  0  0  0
    4.7633   -1.5367    1.5031 H   0  0  0  0  0  0  0  0  0  0  0  0
    4.2041    0.0399    2.1115 H   0  0  0  0  0  0  0  0  0  0  0  0
    6.5171   -1.2708    3.0277 H   0  0  0  0  0  0  0  0  0  0  0  0
    6.0320    0.3579    3.3977 H   0  0  0  0  0  0  0  0  0  0  0  0
    8.1547    0.7000    2.5979 H   0  0  0  0  0  0  0  0  0  0  0  0
    8.7979   -0.5764    0.2009 H   0  0  0  0  0  0  0  0  0  0  0  0
    7.4783   -1.6064    0.6718 H   0  0  0  0  0  0  0  0  0  0  0  0
    8.4461   -2.0972    2.8272 H   0  0  0  0  0  0  0  0  0  0  0  0
    9.8775   -1.1483    2.4307 H   0  0  0  0  0  0  0  0  0  0  0  0
   10.3941   -2.6529    0.5401 H   0  0  0  0  0  0  0  0  0  0  0  0
    8.8760   -3.5307    0.7719 H   0  0  0  0  0  0  0  0  0  0  0  0
    9.5272   -4.1131    3.0960 H   0  0  0  0  0  0  0  0  0  0  0  0
   11.0393   -3.2237    2.9125 H   0  0  0  0  0  0  0  0  0  0  0  0
   11.7293   -4.8000    1.0929 H   0  0  0  0  0  0  0  0  0  0  0  0
   10.2135   -5.6880    1.2956 H   0  0  0  0  0  0  0  0  0  0  0  0
   10.7820   -6.1271    3.6966 H   0  0  0  0  0  0  0  0  0  0  0  0
   12.2841   -5.2217    3.5140 H   0  0  0  0  0  0  0  0  0  0  0  0
   11.5524   -7.7697    1.9846 H   0  0  0  0  0  0  0  0  0  0  0  0
   12.7010   -7.6453    3.3322 H   0  0  0  0  0  0  0  0  0  0  0  0
   13.0606   -6.8524    1.7856 H   0  0  0  0  0  0  0  0  0  0  0  0
    6.0100    3.0615   -0.9463 H   0  0  0  0  0  0  0  0  0  0  0  0
    7.4331    2.9813   -1.9033 H   0  0  0  0  0  0  0  0  0  0  0  0
    7.2361    4.2903   -0.7423 H   0  0  0  0  0  0  0  0  0  0  0  0
    9.7943    1.0711    1.7793 H   0  0  0  0  0  0  0  0  0  0  0  0
   11.1045    1.9636    1.2511 H   0  0  0  0  0  0  0  0  0  0  0  0
   10.5101    0.6604    0.2080 H   0  0  0  0  0  0  0  0  0  0  0  0
    9.3717    4.1421   -1.1692 H   0  0  0  0  0  0  0  0  0  0  0  0
   11.8661    2.3953   -0.6210 H   0  0  0  0  0  0  0  0  0  0  0  0
   11.0100    4.3224   -2.8406 H   0  0  0  0  0  0  0  0  0  0  0  0
   12.7986    2.4784   -3.6787 H   0  0  0  0  0  0  0  0  0  0  0  0
   11.5865    0.5900   -4.1479 H   0  0  0  0  0  0  0  0  0  0  0  0
   10.0495   -0.4078   -2.6752 H   0  0  0  0  0  0  0  0  0  0  0  0
    8.1751    1.8780   -3.4355 H   0  0  0  0  0  0  0  0  0  0  0  0
  1  2  1  0  0  0  0
  1 30  1  0  0  0  0
  1 31  1  0  0  0  0
  1 32  1  0  0  0  0
  2  3  2  3  0  0  0
  2 28  1  0  0  0  0
  3  4  1  0  0  0  0
  4  5  1  0  0  0  0
  4 15  2  0  0  0  0
  5  6  1  0  0  0  0
  5 33  1  0  0  0  0
  5 34  1  0  0  0  0
  6  7  1  0  0  0  0
  6 35  1  0  0  0  0
  6 36  1  0  0  0  0
  7  8  1  0  0  0  0
  7 16  1  0  0  0  0
  7 37  1  0  0  0  0
  8  9  1  0  0  0  0
  8 38  1  0  0  0  0
  8 39  1  0  0  0  0
  9 10  1  0  0  0  0
  9 40  1  0  0  0  0
  9 41  1  0  0  0  0
 10 11  1  0  0  0  0
 10 42  1  0  0  0  0
 10 43  1  0  0  0  0
 11 12  1  0  0  0  0
 11 44  1  0  0  0  0
 11 45  1  0  0  0  0
 12 13  1  0  0  0  0
 12 46  1  0  0  0  0
 12 47  1  0  0  0  0
 13 14  1  0  0  0  0
 13 48  1  0  0  0  0
 13 49  1  0  0  0  0
 14 50  1  0  0  0  0
 14 51  1  0  0  0  0
 14 52  1  0  0  0  0
 15 16  1  0  0  0  0
 16 17  2  3  0  0  0
 17 18  1  0  0  0  0
 17 19  1  0  0  0  0
 18 53  1  0  0  0  0
 18 54  1  0  0  0  0
 18 55  1  0  0  0  0
 19 20  1  0  0  0  0
 19 21  2  3  0  0  0
 20 56  1  0  0  0  0
 20 57  1  0  0  0  0
 20 58  1  0  0  0  0
 21 22  1  0  0  0  0
 21 59  1  0  0  0  0
 22 23  2  3  0  0  0
 22 60  1  0  0  0  0
 23 24  1  0  0  0  0
 23 61  1  0  0  0  0
 24 25  2  3  0  0  0
 24 62  1  0  0  0  0
 25 26  1  0  0  0  0
 25 63  1  0  0  0  0
 26 27  2  3  0  0  0
 26 64  1  0  0  0  0
 27 28  1  0  0  0  0
 27 65  1  0  0  0  0
 28 29  2  0  0  0  0
M  END
$$$$
