
 OpenBabel04232216533D

155154  0  0  0  0  0  0  0  0999 V2000
    1.6079   12.9956    2.7604 C   0  0  0  0  0  0  0  0  0  0  0  0
    3.1175   12.8576    2.7280 C   0  0  0  0  0  0  0  0  0  0  0  0
    3.5287   11.4559    3.1566 C   0  0  0  0  0  0  0  0  0  0  0  0
    5.0419   11.3094    3.1286 C   0  0  0  0  0  0  0  0  0  0  0  0
    5.4410    9.9057    3.5585 C   0  0  0  0  0  0  0  0  0  0  0  0
    6.9524    9.7587    3.5307 C   0  0  0  0  0  0  0  0  0  0  0  0
    7.3604    8.3581    3.9600 C   0  0  0  0  0  0  0  0  0  0  0  0
    8.8682    8.2309    3.9250 C   0  0  0  0  0  0  0  0  0  0  0  0
    9.2350    6.9120    4.3242 O   0  0  0  0  0  0  0  0  0  0  0  0
   10.6567    6.7973    4.3030 C   0  0  0  0  0  0  0  0  0  0  0  0
   11.0880    5.4147    4.7601 C   0  0  0  0  0  0  0  0  0  0  0  0
   12.9023    5.2378    4.6923 S   0  0  0  0  0  0  0  0  0  0  0  0
   13.4175    6.5627    5.8419 C   0  0  0  0  0  0  0  0  0  0  0  0
   14.9395    6.6037    5.8635 C   0  0  0  0  0  0  0  0  0  0  0  0
   15.4514    7.6761    6.8190 C   0  0  0  0  0  0  0  0  0  0  0  0
   16.9746    7.6883    6.8236 C   0  0  0  0  0  0  0  0  0  0  0  0
   17.4939    8.7509    7.7780 C   0  0  0  0  0  0  0  0  0  0  0  0
   19.0134    8.7587    7.7796 C   0  0  0  0  0  0  0  0  0  0  0  0
   19.5269    9.8226    8.7336 C   0  0  0  0  0  0  0  0  0  0  0  0
   21.0446    9.8288    8.7362 C   0  0  0  0  0  0  0  0  0  0  0  0
   21.5557   10.8914    9.6912 C   0  0  0  0  0  0  0  0  0  0  0  0
   23.0727   10.8980    9.6919 C   0  0  0  0  0  0  0  0  0  0  0  0
   23.5831   11.9616   10.6454 C   0  0  0  0  0  0  0  0  0  0  0  0
   25.0999   11.9666   10.6471 C   0  0  0  0  0  0  0  0  0  0  0  0
   25.6100   13.0302   11.6005 C   0  0  0  0  0  0  0  0  0  0  0  0
   27.1266   13.0338   11.6037 C   0  0  0  0  0  0  0  0  0  0  0  0
   27.6365   14.0972   12.5570 C   0  0  0  0  0  0  0  0  0  0  0  0
   29.1529   14.1006   12.5601 C   0  0  0  0  0  0  0  0  0  0  0  0
   29.6623   15.1640   13.5133 C   0  0  0  0  0  0  0  0  0  0  0  0
   31.1782   15.1669   13.5159 C   0  0  0  0  0  0  0  0  0  0  0  0
   31.6860   16.2299   14.4689 C   0  0  0  0  0  0  0  0  0  0  0  0
   33.2001   16.2314   14.4702 C   0  0  0  0  0  0  0  0  0  0  0  0
   33.7038   17.2936   15.4224 C   0  0  0  0  0  0  0  0  0  0  0  0
   35.2138   17.2908   15.4173 C   0  0  0  0  0  0  0  0  0  0  0  0
   35.7116   18.3497   16.3664 C   0  0  0  0  0  0  0  0  0  0  0  0
   37.2140   18.3323   16.3455 C   0  0  0  0  0  0  0  0  0  0  0  0
   37.6936   19.3856   17.2872 C   0  0  0  0  0  0  0  0  0  0  0  0
   39.1756   19.3647   17.2605 C   0  0  0  0  0  0  0  0  0  0  0  0
   39.4879   20.3722   18.1639 O   0  0  0  0  0  0  0  0  0  0  0  0
   40.8838   20.3468   18.1307 O   0  0  0  0  0  0  0  0  0  0  0  0
   41.3275   21.3238   19.0100 O   0  0  0  0  0  0  0  0  0  0  0  0
   42.7115   21.2888   18.9684 O   0  0  0  0  0  0  0  0  0  0  0  0
   43.1474   22.2647   19.8455 O   0  0  0  0  0  0  0  0  0  0  0  0
   44.5250   22.2308   19.8052 O   0  0  0  0  0  0  0  0  0  0  0  0
   44.9469   23.2065   20.6824 O   0  0  0  0  0  0  0  0  0  0  0  0
   46.3212   23.1749   20.6441 O   0  0  0  0  0  0  0  0  0  0  0  0
   46.7312   24.1482   21.5192 O   0  0  0  0  0  0  0  0  0  0  0  0
   48.1029   24.1186   21.4826 O   0  0  0  0  0  0  0  0  0  0  0  0
   48.5064   25.0906   22.3567 O   0  0  0  0  0  0  0  0  0  0  0  0
   49.8725   25.0584   22.3179 O   0  0  0  0  0  0  0  0  0  0  0  0
   50.2758   26.0302   23.1917 O   0  0  0  0  0  0  0  0  0  0  0  0
   51.6414   25.9953   23.1505 O   0  0  0  0  0  0  0  0  0  0  0  0
   52.0448   26.9679   24.0250 O   0  0  0  0  0  0  0  0  0  0  0  0
   53.4056   26.9323   23.9832 O   0  0  0  0  0  0  0  0  0  0  0  0
   53.8072   27.9044   24.8572 O   0  0  0  0  0  0  0  0  0  0  0  0
   55.1730   27.8633   24.8104 O   0  0  0  0  0  0  0  0  0  0  0  0
   55.5799   28.8313   25.6808 O   0  0  0  0  0  0  0  0  0  0  0  0
   56.9407   28.7899   25.6337 O   0  0  0  0  0  0  0  0  0  0  0  0
   57.3460   29.7573   26.5035 O   0  0  0  0  0  0  0  0  0  0  0  0
   58.6997   29.7236   26.4635 O   0  0  0  0  0  0  0  0  0  0  0  0
   59.0996   30.6933   27.3354 O   0  0  0  0  0  0  0  0  0  0  0  0
   60.4550   30.6605   27.2962 O   0  0  0  0  0  0  0  0  0  0  0  0
   60.8527   31.6136   28.1532 O   0  0  0  0  0  0  0  0  0  0  0  0
   62.2220   31.5880   28.1204 O   0  0  0  0  0  0  0  0  0  0  0  0
   62.6259   32.5604   28.9945 O   0  0  0  0  0  0  0  0  0  0  0  0
   64.0020   32.5171   28.9457 O   0  0  0  0  0  0  0  0  0  0  0  0
   64.3959   33.4935   29.8268 O   0  0  0  0  0  0  0  0  0  0  0  0
   65.7583   33.4602   29.7843 O   0  0  0  0  0  0  0  0  0  0  0  0
   66.1607   34.4436   30.6649 O   0  0  0  0  0  0  0  0  0  0  0  0
   67.5268   34.4118   30.6282 O   0  0  0  0  0  0  0  0  0  0  0  0
   67.9500   35.3747   31.4986 O   0  0  0  0  0  0  0  0  0  0  0  0
   69.3233   35.3377   31.4534 O   0  0  0  0  0  0  0  0  0  0  0  0
   69.7528   36.3204   32.3210 O   0  0  0  0  0  0  0  0  0  0  0  0
   71.1294   36.2868   32.3002 O   0  0  0  0  0  0  0  0  0  0  0  0
   71.5598   37.2389   33.2176 O   0  0  0  0  0  0  0  0  0  0  0  0
   72.9441   37.2926   33.1412 O   0  0  0  0  0  0  0  0  0  0  0  0
   73.3727   38.2971   34.0253 O   0  0  0  0  0  0  0  0  0  0  0  0
   74.7687   38.1837   34.1535 O   0  0  0  0  0  0  0  0  0  0  0  0
   75.2389   39.2102   35.0199 O   0  0  0  0  0  0  0  0  0  0  0  0
   76.6625   39.2934   34.8957 O   0  0  0  0  0  0  0  0  0  0  0  0
   77.0211   39.5353   33.5144 O   0  0  0  0  0  0  0  0  0  0  0  0
    1.3119   14.0017    2.4528 H   0  0  0  0  0  0  0  0  0  0  0  0
    1.2254   12.8156    3.7702 H   0  0  0  0  0  0  0  0  0  0  0  0
    1.1396   12.2744    2.0829 H   0  0  0  0  0  0  0  0  0  0  0  0
    3.5700   13.6006    3.3950 H   0  0  0  0  0  0  0  0  0  0  0  0
    3.4848   13.0620    1.7154 H   0  0  0  0  0  0  0  0  0  0  0  0
    3.0737   10.7136    2.4891 H   0  0  0  0  0  0  0  0  0  0  0  0
    3.1569   11.2513    4.1683 H   0  0  0  0  0  0  0  0  0  0  0  0
    5.5004   12.0480    3.7975 H   0  0  0  0  0  0  0  0  0  0  0  0
    5.4174   11.5100    2.1176 H   0  0  0  0  0  0  0  0  0  0  0  0
    4.9838    9.1665    2.8895 H   0  0  0  0  0  0  0  0  0  0  0  0
    5.0669    9.7049    4.5698 H   0  0  0  0  0  0  0  0  0  0  0  0
    7.4094   10.5012    4.1971 H   0  0  0  0  0  0  0  0  0  0  0  0
    7.3261    9.9620    2.5192 H   0  0  0  0  0  0  0  0  0  0  0  0
    6.9099    7.6054    3.3019 H   0  0  0  0  0  0  0  0  0  0  0  0
    6.9928    8.1416    4.9704 H   0  0  0  0  0  0  0  0  0  0  0  0
    9.3195    8.9613    4.6082 H   0  0  0  0  0  0  0  0  0  0  0  0
    9.2387    8.4203    2.9105 H   0  0  0  0  0  0  0  0  0  0  0  0
   11.0541    7.5622    4.9745 H   0  0  0  0  0  0  0  0  0  0  0  0
   11.0136    6.9885    3.2839 H   0  0  0  0  0  0  0  0  0  0  0  0
   10.6455    4.6571    4.1024 H   0  0  0  0  0  0  0  0  0  0  0  0
   10.7222    5.1942    5.7684 H   0  0  0  0  0  0  0  0  0  0  0  0
   13.0195    6.3565    6.8407 H   0  0  0  0  0  0  0  0  0  0  0  0
   13.0503    7.5392    5.5124 H   0  0  0  0  0  0  0  0  0  0  0  0
   15.3221    6.8164    4.8565 H   0  0  0  0  0  0  0  0  0  0  0  0
   15.3382    5.6297    6.1709 H   0  0  0  0  0  0  0  0  0  0  0  0
   15.0803    7.4828    7.8326 H   0  0  0  0  0  0  0  0  0  0  0  0
   15.0760    8.6619    6.5175 H   0  0  0  0  0  0  0  0  0  0  0  0
   17.3507    7.8846    5.8117 H   0  0  0  0  0  0  0  0  0  0  0  0
   17.3550    6.7041    7.1240 H   0  0  0  0  0  0  0  0  0  0  0  0
   17.1232    8.5555    8.7917 H   0  0  0  0  0  0  0  0  0  0  0  0
   17.1184    9.7372    7.4792 H   0  0  0  0  0  0  0  0  0  0  0  0
   19.3883    8.9546    6.7675 H   0  0  0  0  0  0  0  0  0  0  0  0
   19.3927    7.7744    8.0811 H   0  0  0  0  0  0  0  0  0  0  0  0
   19.1533    9.6286    9.7466 H   0  0  0  0  0  0  0  0  0  0  0  0
   19.1508   10.8081    8.4323 H   0  0  0  0  0  0  0  0  0  0  0  0
   21.4197   10.0250    7.7242 H   0  0  0  0  0  0  0  0  0  0  0  0
   21.4224    8.8439    9.0372 H   0  0  0  0  0  0  0  0  0  0  0  0
   21.1826   10.6949   10.7040 H   0  0  0  0  0  0  0  0  0  0  0  0
   21.1780   11.8768    9.3916 H   0  0  0  0  0  0  0  0  0  0  0  0
   23.4465   11.0935    8.6793 H   0  0  0  0  0  0  0  0  0  0  0  0
   23.4509    9.9133    9.9931 H   0  0  0  0  0  0  0  0  0  0  0  0
   23.2087   11.7671   11.6580 H   0  0  0  0  0  0  0  0  0  0  0  0
   23.2063   12.9466   10.3435 H   0  0  0  0  0  0  0  0  0  0  0  0
   25.4746   12.1612    9.6347 H   0  0  0  0  0  0  0  0  0  0  0  0
   25.4768   10.9817   10.9492 H   0  0  0  0  0  0  0  0  0  0  0  0
   25.2344   12.8365   12.6129 H   0  0  0  0  0  0  0  0  0  0  0  0
   25.2342   14.0153   11.2978 H   0  0  0  0  0  0  0  0  0  0  0  0
   27.5024   13.2276   10.5915 H   0  0  0  0  0  0  0  0  0  0  0  0
   27.5024   12.0487   11.9066 H   0  0  0  0  0  0  0  0  0  0  0  0
   27.2609   13.9035   13.5694 H   0  0  0  0  0  0  0  0  0  0  0  0
   27.2609   15.0825   12.2543 H   0  0  0  0  0  0  0  0  0  0  0  0
   29.5289   14.2945   11.5479 H   0  0  0  0  0  0  0  0  0  0  0  0
   29.5289   13.1156   12.8630 H   0  0  0  0  0  0  0  0  0  0  0  0
   29.2870   14.9704   14.5258 H   0  0  0  0  0  0  0  0  0  0  0  0
   29.2871   16.1493   13.2106 H   0  0  0  0  0  0  0  0  0  0  0  0
   31.5548   15.3611   12.5040 H   0  0  0  0  0  0  0  0  0  0  0  0
   31.5548   14.1821   13.8192 H   0  0  0  0  0  0  0  0  0  0  0  0
   31.3117   16.0367   15.4818 H   0  0  0  0  0  0  0  0  0  0  0  0
   31.3117   17.2157   14.1665 H   0  0  0  0  0  0  0  0  0  0  0  0
   33.5782   16.4265   13.4590 H   0  0  0  0  0  0  0  0  0  0  0  0
   33.5784   15.2475   14.7742 H   0  0  0  0  0  0  0  0  0  0  0  0
   33.3334   17.1007   16.4368 H   0  0  0  0  0  0  0  0  0  0  0  0
   33.3312   18.2806   15.1218 H   0  0  0  0  0  0  0  0  0  0  0  0
   35.5932   17.4886   14.4071 H   0  0  0  0  0  0  0  0  0  0  0  0
   35.5957   16.3085   15.7222 H   0  0  0  0  0  0  0  0  0  0  0  0
   35.3490   18.1595   17.3845 H   0  0  0  0  0  0  0  0  0  0  0  0
   35.3443   19.3402   16.0696 H   0  0  0  0  0  0  0  0  0  0  0  0
   37.5957   18.5336   15.3369 H   0  0  0  0  0  0  0  0  0  0  0  0
   37.6005   17.3533   16.6546 H   0  0  0  0  0  0  0  0  0  0  0  0
   37.3424   19.2143   18.3138 H   0  0  0  0  0  0  0  0  0  0  0  0
   37.3356   20.3856   17.0073 H   0  0  0  0  0  0  0  0  0  0  0  0
   39.5888   19.6091   16.2740 H   0  0  0  0  0  0  0  0  0  0  0  0
   39.5963   18.4122   17.6061 H   0  0  0  0  0  0  0  0  0  0  0  0
   77.9685   39.3843   33.6472 H   0  0  0  0  0  0  0  0  0  0  0  0
  1  2  1  0  0  0  0
  1 82  1  0  0  0  0
  1 83  1  0  0  0  0
  1 84  1  0  0  0  0
  2  3  1  0  0  0  0
  2 85  1  0  0  0  0
  2 86  1  0  0  0  0
  3  4  1  0  0  0  0
  3 87  1  0  0  0  0
  3 88  1  0  0  0  0
  4  5  1  0  0  0  0
  4 89  1  0  0  0  0
  4 90  1  0  0  0  0
  5  6  1  0  0  0  0
  5 91  1  0  0  0  0
  5 92  1  0  0  0  0
  6  7  1  0  0  0  0
  6 93  1  0  0  0  0
  6 94  1  0  0  0  0
  7  8  1  0  0  0  0
  7 95  1  0  0  0  0
  7 96  1  0  0  0  0
  8  9  1  0  0  0  0
  8 97  1  0  0  0  0
  8 98  1  0  0  0  0
  9 10  1  0  0  0  0
 10 11  1  0  0  0  0
 10 99  1  0  0  0  0
 10100  1  0  0  0  0
 11 12  1  0  0  0  0
 11101  1  0  0  0  0
 11102  1  0  0  0  0
 12 13  1  0  0  0  0
 13 14  1  0  0  0  0
 13103  1  0  0  0  0
 13104  1  0  0  0  0
 14 15  1  0  0  0  0
 14105  1  0  0  0  0
 14106  1  0  0  0  0
 15 16  1  0  0  0  0
 15107  1  0  0  0  0
 15108  1  0  0  0  0
 16 17  1  0  0  0  0
 16109  1  0  0  0  0
 16110  1  0  0  0  0
 17 18  1  0  0  0  0
 17111  1  0  0  0  0
 17112  1  0  0  0  0
 18 19  1  0  0  0  0
 18113  1  0  0  0  0
 18114  1  0  0  0  0
 19 20  1  0  0  0  0
 19115  1  0  0  0  0
 19116  1  0  0  0  0
 20 21  1  0  0  0  0
 20117  1  0  0  0  0
 20118  1  0  0  0  0
 21 22  1  0  0  0  0
 21119  1  0  0  0  0
 21120  1  0  0  0  0
 22 23  1  0  0  0  0
 22121  1  0  0  0  0
 22122  1  0  0  0  0
 23 24  1  0  0  0  0
 23123  1  0  0  0  0
 23124  1  0  0  0  0
 24 25  1  0  0  0  0
 24125  1  0  0  0  0
 24126  1  0  0  0  0
 25 26  1  0  0  0  0
 25127  1  0  0  0  0
 25128  1  0  0  0  0
 26 27  1  0  0  0  0
 26129  1  0  0  0  0
 26130  1  0  0  0  0
 27 28  1  0  0  0  0
 27131  1  0  0  0  0
 27132  1  0  0  0  0
 28 29  1  0  0  0  0
 28133  1  0  0  0  0
 28134  1  0  0  0  0
 29 30  1  0  0  0  0
 29135  1  0  0  0  0
 29136  1  0  0  0  0
 30 31  1  0  0  0  0
 30137  1  0  0  0  0
 30138  1  0  0  0  0
 31 32  1  0  0  0  0
 31139  1  0  0  0  0
 31140  1  0  0  0  0
 32 33  1  0  0  0  0
 32141  1  0  0  0  0
 32142  1  0  0  0  0
 33 34  1  0  0  0  0
 33143  1  0  0  0  0
 33144  1  0  0  0  0
 34 35  1  0  0  0  0
 34145  1  0  0  0  0
 34146  1  0  0  0  0
 35 36  1  0  0  0  0
 35147  1  0  0  0  0
 35148  1  0  0  0  0
 36 37  1  0  0  0  0
 36149  1  0  0  0  0
 36150  1  0  0  0  0
 37 38  1  0  0  0  0
 37151  1  0  0  0  0
 37152  1  0  0  0  0
 38 39  1  0  0  0  0
 38153  1  0  0  0  0
 38154  1  0  0  0  0
 39 40  1  0  0  0  0
 40 41  1  0  0  0  0
 41 42  1  0  0  0  0
 42 43  1  0  0  0  0
 43 44  1  0  0  0  0
 44 45  1  0  0  0  0
 45 46  1  0  0  0  0
 46 47  1  0  0  0  0
 47 48  1  0  0  0  0
 48 49  1  0  0  0  0
 49 50  1  0  0  0  0
 50 51  1  0  0  0  0
 51 52  1  0  0  0  0
 52 53  1  0  0  0  0
 53 54  1  0  0  0  0
 54 55  1  0  0  0  0
 55 56  1  0  0  0  0
 56 57  1  0  0  0  0
 57 58  1  0  0  0  0
 58 59  1  0  0  0  0
 59 60  1  0  0  0  0
 60 61  1  0  0  0  0
 61 62  1  0  0  0  0
 62 63  1  0  0  0  0
 63 64  1  0  0  0  0
 64 65  1  0  0  0  0
 65 66  1  0  0  0  0
 66 67  1  0  0  0  0
 67 68  1  0  0  0  0
 68 69  1  0  0  0  0
 69 70  1  0  0  0  0
 70 71  1  0  0  0  0
 71 72  1  0  0  0  0
 72 73  1  0  0  0  0
 73 74  1  0  0  0  0
 74 75  1  0  0  0  0
 75 76  1  0  0  0  0
 76 77  1  0  0  0  0
 77 78  1  0  0  0  0
 78 79  1  0  0  0  0
 79 80  1  0  0  0  0
 80 81  1  0  0  0  0
 81155  1  0  0  0  0
M  END
$$$$
