
 OpenBabel04232216533D

193192  0  0  0  0  0  0  0  0999 V2000
    0.9001    0.0429   -0.0138 C   0  0  0  0  0  0  0  0  0  0  0  0
    2.4159    0.0548   -0.0156 C   0  0  0  0  0  0  0  0  0  0  0  0
    2.9355    0.0381   -1.4430 C   0  0  0  0  0  0  0  0  0  0  0  0
    4.4523    0.0480   -1.4501 C   0  0  0  0  0  0  0  0  0  0  0  0
    4.9573    0.0311   -2.8787 C   0  0  0  0  0  0  0  0  0  0  0  0
    6.4671    0.0410   -2.8821 C   0  0  0  0  0  0  0  0  0  0  0  0
    6.9727    0.0263   -4.2939 C   0  0  0  0  0  0  0  0  0  0  0  0
    8.3801    0.0349   -4.1954 O   0  0  0  0  0  0  0  0  0  0  0  0
    8.7893    0.0204   -5.5612 O   0  0  0  0  0  0  0  0  0  0  0  0
   10.1823    0.0262   -5.5223 C   0  0  0  0  0  0  0  0  0  0  0  0
   10.5505    0.0137   -6.8570 O   0  0  0  0  0  0  0  0  0  0  0  0
   11.9484    0.0182   -6.7855 O   0  0  0  0  0  0  0  0  0  0  0  0
   12.4027    0.0085   -8.0985 O   0  0  0  0  0  0  0  0  0  0  0  0
   13.7784    0.0102   -8.0437 O   0  0  0  0  0  0  0  0  0  0  0  0
   14.1962   -0.0000   -9.3748 O   0  0  0  0  0  0  0  0  0  0  0  0
   15.5621    0.0020   -9.3406 O   0  0  0  0  0  0  0  0  0  0  0  0
   15.9674   -0.0081  -10.6544 O   0  0  0  0  0  0  0  0  0  0  0  0
   17.3360   -0.0059  -10.6043 O   0  0  0  0  0  0  0  0  0  0  0  0
   17.7399   -0.0160  -11.9082 O   0  0  0  0  0  0  0  0  0  0  0  0
   19.1101   -0.0138  -11.8466 O   0  0  0  0  0  0  0  0  0  0  0  0
   19.5104   -0.0238  -13.1502 O   0  0  0  0  0  0  0  0  0  0  0  0
   20.8788   -0.0216  -13.0922 O   0  0  0  0  0  0  0  0  0  0  0  0
   21.2717   -0.0318  -14.4018 O   0  0  0  0  0  0  0  0  0  0  0  0
   22.6523   -0.0294  -14.3324 O   0  0  0  0  0  0  0  0  0  0  0  0
   23.0554   -0.0395  -15.6387 O   0  0  0  0  0  0  0  0  0  0  0  0
   24.4216   -0.0373  -15.5803 O   0  0  0  0  0  0  0  0  0  0  0  0
   24.8271   -0.0474  -16.8875 O   0  0  0  0  0  0  0  0  0  0  0  0
   26.1973   -0.0452  -16.8381 O   0  0  0  0  0  0  0  0  0  0  0  0
   26.6046   -0.0554  -18.1502 O   0  0  0  0  0  0  0  0  0  0  0  0
   27.9763   -0.0533  -18.1096 O   0  0  0  0  0  0  0  0  0  0  0  0
   28.3946   -0.0636  -19.4358 O   0  0  0  0  0  0  0  0  0  0  0  0
   29.7673   -0.0602  -19.3763 O   0  0  0  0  0  0  0  0  0  0  0  0
   30.2270   -0.0713  -20.6929 O   0  0  0  0  0  0  0  0  0  0  0  0
   31.6278   -0.0713  -20.6465 O   0  0  0  0  0  0  0  0  0  0  0  0
   31.9608   -0.0815  -22.0009 C   0  0  0  0  0  0  0  0  0  0  0  0
   33.4487   -0.0793  -21.9710 C   0  0  0  0  0  0  0  0  0  0  0  0
   33.9443   -0.0880  -23.3818 C   0  0  0  0  0  0  0  0  0  0  0  0
   35.4542   -0.0879  -23.3704 C   0  0  0  0  0  0  0  0  0  0  0  0
   35.9584   -0.0986  -24.7942 C   0  0  0  0  0  0  0  0  0  0  0  0
   37.4721   -0.1006  -24.7968 C   0  0  0  0  0  0  0  0  0  0  0  0
   37.9808   -0.1094  -26.2242 C   0  0  0  0  0  0  0  0  0  0  0  0
   39.4969   -0.1115  -26.2292 C   0  0  0  0  0  0  0  0  0  0  0  0
   40.0066   -0.1202  -27.6569 C   0  0  0  0  0  0  0  0  0  0  0  0
   41.5229   -0.1223  -27.6620 C   0  0  0  0  0  0  0  0  0  0  0  0
   42.0331   -0.1310  -29.0899 C   0  0  0  0  0  0  0  0  0  0  0  0
   43.5497   -0.1331  -29.0949 C   0  0  0  0  0  0  0  0  0  0  0  0
   44.0598   -0.1418  -30.5230 C   0  0  0  0  0  0  0  0  0  0  0  0
   45.5762   -0.1439  -30.5279 C   0  0  0  0  0  0  0  0  0  0  0  0
   46.0864   -0.1526  -31.9560 C   0  0  0  0  0  0  0  0  0  0  0  0
   47.6029   -0.1527  -31.9610 C   0  0  0  0  0  0  0  0  0  0  0  0
   48.1131   -0.1614  -33.3891 C   0  0  0  0  0  0  0  0  0  0  0  0
   49.6295   -0.1635  -33.3940 C   0  0  0  0  0  0  0  0  0  0  0  0
   50.1397   -0.1702  -34.8221 C   0  0  0  0  0  0  0  0  0  0  0  0
   51.6562   -0.1743  -34.8271 C   0  0  0  0  0  0  0  0  0  0  0  0
   52.1664   -0.1790  -36.2552 C   0  0  0  0  0  0  0  0  0  0  0  0
   53.6829   -0.1851  -36.2601 C   0  0  0  0  0  0  0  0  0  0  0  0
   54.1931   -0.1878  -37.6882 C   0  0  0  0  0  0  0  0  0  0  0  0
   55.7095   -0.1959  -37.6931 C   0  0  0  0  0  0  0  0  0  0  0  0
   56.2197   -0.1986  -39.1212 C   0  0  0  0  0  0  0  0  0  0  0  0
   57.7362   -0.2087  -39.1262 C   0  0  0  0  0  0  0  0  0  0  0  0
   58.2464   -0.2114  -40.5543 C   0  0  0  0  0  0  0  0  0  0  0  0
   59.7628   -0.2216  -40.5592 C   0  0  0  0  0  0  0  0  0  0  0  0
   60.2730   -0.2243  -41.9873 C   0  0  0  0  0  0  0  0  0  0  0  0
   61.7895   -0.2344  -41.9922 C   0  0  0  0  0  0  0  0  0  0  0  0
   62.2996   -0.2371  -43.4203 C   0  0  0  0  0  0  0  0  0  0  0  0
   63.8161   -0.2472  -43.4253 C   0  0  0  0  0  0  0  0  0  0  0  0
   64.3263   -0.2499  -44.8534 C   0  0  0  0  0  0  0  0  0  0  0  0
   65.8427   -0.2600  -44.8583 C   0  0  0  0  0  0  0  0  0  0  0  0
   66.3529   -0.2627  -46.2864 C   0  0  0  0  0  0  0  0  0  0  0  0
   67.8694   -0.2709  -46.2914 C   0  0  0  0  0  0  0  0  0  0  0  0
   68.3795   -0.2735  -47.7194 C   0  0  0  0  0  0  0  0  0  0  0  0
   69.8960   -0.2816  -47.7245 C   0  0  0  0  0  0  0  0  0  0  0  0
   70.4063   -0.2843  -49.1525 C   0  0  0  0  0  0  0  0  0  0  0  0
   71.9226   -0.2925  -49.1576 C   0  0  0  0  0  0  0  0  0  0  0  0
   72.4332   -0.2952  -50.5855 C   0  0  0  0  0  0  0  0  0  0  0  0
   73.9497   -0.3053  -50.5903 C   0  0  0  0  0  0  0  0  0  0  0  0
   74.4614   -0.3080  -52.0181 C   0  0  0  0  0  0  0  0  0  0  0  0
   75.9789   -0.3181  -52.0239 C   0  0  0  0  0  0  0  0  0  0  0  0
   76.4908   -0.3188  -53.4531 C   0  0  0  0  0  0  0  0  0  0  0  0
   78.0104   -0.3309  -53.4685 C   0  0  0  0  0  0  0  0  0  0  0  0
   78.5177   -0.3316  -54.8973 C   0  0  0  0  0  0  0  0  0  0  0  0
    0.5235    0.0549    1.0097 H   0  0  0  0  0  0  0  0  0  0  0  0
    0.5217   -0.8562   -0.5115 H   0  0  0  0  0  0  0  0  0  0  0  0
    0.5077    0.9210   -0.5375 H   0  0  0  0  0  0  0  0  0  0  0  0
    2.7948   -0.8176    0.5295 H   0  0  0  0  0  0  0  0  0  0  0  0
    2.7809    0.9486    0.5037 H   0  0  0  0  0  0  0  0  0  0  0  0
    2.5579    0.9116   -1.9888 H   0  0  0  0  0  0  0  0  0  0  0  0
    2.5696   -0.8553   -1.9639 H   0  0  0  0  0  0  0  0  0  0  0  0
    4.8363   -0.8259   -0.9097 H   0  0  0  0  0  0  0  0  0  0  0  0
    4.8247    0.9417   -0.9346 H   0  0  0  0  0  0  0  0  0  0  0  0
    4.5795    0.9052   -3.4232 H   0  0  0  0  0  0  0  0  0  0  0  0
    4.5911   -0.8628   -3.3983 H   0  0  0  0  0  0  0  0  0  0  0  0
    6.8668   -0.8272   -2.3431 H   0  0  0  0  0  0  0  0  0  0  0  0
    6.8554    0.9276   -2.3655 H   0  0  0  0  0  0  0  0  0  0  0  0
    6.6389    0.9108   -4.8507 H   0  0  0  0  0  0  0  0  0  0  0  0
    6.6483   -0.8749   -4.8289 H   0  0  0  0  0  0  0  0  0  0  0  0
   10.5791   -0.8662   -5.0216 H   0  0  0  0  0  0  0  0  0  0  0  0
   10.5722    0.9320   -5.0404 H   0  0  0  0  0  0  0  0  0  0  0  0
   31.5428    0.8096  -22.4851 H   0  0  0  0  0  0  0  0  0  0  0  0
   31.5451   -0.9813  -22.4708 H   0  0  0  0  0  0  0  0  0  0  0  0
   33.8020   -0.9522  -21.4055 H   0  0  0  0  0  0  0  0  0  0  0  0
   33.7998    0.8020  -21.4172 H   0  0  0  0  0  0  0  0  0  0  0  0
   33.5625    0.7938  -23.9110 H   0  0  0  0  0  0  0  0  0  0  0  0
   33.5625   -0.9762  -23.9001 H   0  0  0  0  0  0  0  0  0  0  0  0
   35.8209   -0.9678  -22.8278 H   0  0  0  0  0  0  0  0  0  0  0  0
   35.8209    0.8001  -22.8411 H   0  0  0  0  0  0  0  0  0  0  0  0
   35.5814    0.7820  -25.3288 H   0  0  0  0  0  0  0  0  0  0  0  0
   35.5792   -0.9857  -25.3164 H   0  0  0  0  0  0  0  0  0  0  0  0
   37.8444   -0.9821  -24.2606 H   0  0  0  0  0  0  0  0  0  0  0  0
   37.8468    0.7859  -24.2706 H   0  0  0  0  0  0  0  0  0  0  0  0
   37.6062    0.7720  -26.7590 H   0  0  0  0  0  0  0  0  0  0  0  0
   37.6038   -0.9958  -26.7490 H   0  0  0  0  0  0  0  0  0  0  0  0
   39.8701   -0.9929  -25.6936 H   0  0  0  0  0  0  0  0  0  0  0  0
   39.8725    0.7750  -25.7036 H   0  0  0  0  0  0  0  0  0  0  0  0
   39.6326    0.7612  -28.1921 H   0  0  0  0  0  0  0  0  0  0  0  0
   39.6303   -1.0066  -28.1821 H   0  0  0  0  0  0  0  0  0  0  0  0
   41.8966   -1.0037  -27.1266 H   0  0  0  0  0  0  0  0  0  0  0  0
   41.8990    0.7642  -27.1367 H   0  0  0  0  0  0  0  0  0  0  0  0
   41.6593    0.7504  -29.6252 H   0  0  0  0  0  0  0  0  0  0  0  0
   41.6570   -1.0174  -29.6152 H   0  0  0  0  0  0  0  0  0  0  0  0
   43.9233   -1.0145  -28.5597 H   0  0  0  0  0  0  0  0  0  0  0  0
   43.9257    0.7534  -28.5697 H   0  0  0  0  0  0  0  0  0  0  0  0
   43.6860    0.7396  -31.0582 H   0  0  0  0  0  0  0  0  0  0  0  0
   43.6836   -1.0283  -31.0482 H   0  0  0  0  0  0  0  0  0  0  0  0
   45.9500   -1.0253  -29.9927 H   0  0  0  0  0  0  0  0  0  0  0  0
   45.9523    0.7426  -30.0027 H   0  0  0  0  0  0  0  0  0  0  0  0
   45.7115    0.7281  -32.4917 H   0  0  0  0  0  0  0  0  0  0  0  0
   45.7114   -1.0398  -32.4808 H   0  0  0  0  0  0  0  0  0  0  0  0
   47.9778   -1.0334  -31.4253 H   0  0  0  0  0  0  0  0  0  0  0  0
   47.9779    0.7344  -31.4362 H   0  0  0  0  0  0  0  0  0  0  0  0
   47.7392    0.7200  -33.9243 H   0  0  0  0  0  0  0  0  0  0  0  0
   47.7370   -1.0478  -33.9143 H   0  0  0  0  0  0  0  0  0  0  0  0
   50.0032   -1.0457  -32.8600 H   0  0  0  0  0  0  0  0  0  0  0  0
   50.0057    0.7222  -32.8676 H   0  0  0  0  0  0  0  0  0  0  0  0
   49.7671    0.7127  -35.3556 H   0  0  0  0  0  0  0  0  0  0  0  0
   49.7625   -1.0551  -35.3490 H   0  0  0  0  0  0  0  0  0  0  0  0
   52.0287   -1.0580  -34.2947 H   0  0  0  0  0  0  0  0  0  0  0  0
   52.0335    0.7099  -34.2989 H   0  0  0  0  0  0  0  0  0  0  0  0
   51.7949    0.7054  -36.7870 H   0  0  0  0  0  0  0  0  0  0  0  0
   51.7880   -1.0624  -36.7838 H   0  0  0  0  0  0  0  0  0  0  0  0
   54.0542   -1.0703  -35.7294 H   0  0  0  0  0  0  0  0  0  0  0  0
   54.0614    0.6976  -35.7303 H   0  0  0  0  0  0  0  0  0  0  0  0
   53.8228    0.6981  -38.2184 H   0  0  0  0  0  0  0  0  0  0  0  0
   53.8134   -1.0697  -38.2184 H   0  0  0  0  0  0  0  0  0  0  0  0
   56.0797   -1.0818  -37.1629 H   0  0  0  0  0  0  0  0  0  0  0  0
   56.0892    0.6860  -37.1629 H   0  0  0  0  0  0  0  0  0  0  0  0
   55.8506    0.6881  -39.6510 H   0  0  0  0  0  0  0  0  0  0  0  0
   55.8389   -1.0798  -39.6519 H   0  0  0  0  0  0  0  0  0  0  0  0
   58.1052   -1.0954  -38.5964 H   0  0  0  0  0  0  0  0  0  0  0  0
   58.1170    0.6724  -38.5955 H   0  0  0  0  0  0  0  0  0  0  0  0
   57.8773    0.6752  -41.0841 H   0  0  0  0  0  0  0  0  0  0  0  0
   57.8655   -1.0926  -41.0849 H   0  0  0  0  0  0  0  0  0  0  0  0
   60.1318   -1.1082  -40.0294 H   0  0  0  0  0  0  0  0  0  0  0  0
   60.1436    0.6596  -40.0285 H   0  0  0  0  0  0  0  0  0  0  0  0
   59.9040    0.6624  -42.5171 H   0  0  0  0  0  0  0  0  0  0  0  0
   59.8922   -1.1054  -42.5180 H   0  0  0  0  0  0  0  0  0  0  0  0
   62.1585   -1.1211  -41.4624 H   0  0  0  0  0  0  0  0  0  0  0  0
   62.1703    0.6468  -41.4616 H   0  0  0  0  0  0  0  0  0  0  0  0
   61.9306    0.6496  -43.9502 H   0  0  0  0  0  0  0  0  0  0  0  0
   61.9188   -1.1182  -43.9510 H   0  0  0  0  0  0  0  0  0  0  0  0
   64.1851   -1.1339  -42.8955 H   0  0  0  0  0  0  0  0  0  0  0  0
   64.1969    0.6339  -42.8946 H   0  0  0  0  0  0  0  0  0  0  0  0
   63.9573    0.6367  -45.3832 H   0  0  0  0  0  0  0  0  0  0  0  0
   63.9455   -1.1311  -45.3841 H   0  0  0  0  0  0  0  0  0  0  0  0
   66.2118   -1.1467  -44.3285 H   0  0  0  0  0  0  0  0  0  0  0  0
   66.2235    0.6211  -44.3276 H   0  0  0  0  0  0  0  0  0  0  0  0
   65.9828    0.6232  -46.8167 H   0  0  0  0  0  0  0  0  0  0  0  0
   65.9732   -1.1446  -46.8167 H   0  0  0  0  0  0  0  0  0  0  0  0
   68.2396   -1.1568  -45.7611 H   0  0  0  0  0  0  0  0  0  0  0  0
   68.2490    0.6110  -45.7611 H   0  0  0  0  0  0  0  0  0  0  0  0
   68.0094    0.6124  -48.2497 H   0  0  0  0  0  0  0  0  0  0  0  0
   67.9999   -1.1555  -48.2497 H   0  0  0  0  0  0  0  0  0  0  0  0
   70.2662   -1.1676  -47.1942 H   0  0  0  0  0  0  0  0  0  0  0  0
   70.2757    0.6003  -47.1942 H   0  0  0  0  0  0  0  0  0  0  0  0
   70.0360    0.6016  -49.6827 H   0  0  0  0  0  0  0  0  0  0  0  0
   70.0266   -1.1663  -49.6827 H   0  0  0  0  0  0  0  0  0  0  0  0
   72.2928   -1.1784  -48.6272 H   0  0  0  0  0  0  0  0  0  0  0  0
   72.3023    0.5894  -48.6272 H   0  0  0  0  0  0  0  0  0  0  0  0
   72.0640    0.5915  -51.1154 H   0  0  0  0  0  0  0  0  0  0  0  0
   72.0523   -1.1763  -51.1162 H   0  0  0  0  0  0  0  0  0  0  0  0
   74.3183   -1.1920  -50.0602 H   0  0  0  0  0  0  0  0  0  0  0  0
   74.3301    0.5759  -50.0593 H   0  0  0  0  0  0  0  0  0  0  0  0
   74.0918    0.5786  -52.5478 H   0  0  0  0  0  0  0  0  0  0  0  0
   74.0800   -1.1890  -52.5487 H   0  0  0  0  0  0  0  0  0  0  0  0
   76.3468   -1.2056  -51.4946 H   0  0  0  0  0  0  0  0  0  0  0  0
   76.3587    0.5623  -51.4913 H   0  0  0  0  0  0  0  0  0  0  0  0
   76.1191    0.5690  -53.9796 H   0  0  0  0  0  0  0  0  0  0  0  0
   76.1050   -1.1981  -53.9838 H   0  0  0  0  0  0  0  0  0  0  0  0
   78.3814   -1.2184  -52.9426 H   0  0  0  0  0  0  0  0  0  0  0  0
   78.3955    0.5479  -52.9384 H   0  0  0  0  0  0  0  0  0  0  0  0
   78.1574   -1.2161  -55.4334 H   0  0  0  0  0  0  0  0  0  0  0  0
   79.6081   -0.3403  -54.9111 H   0  0  0  0  0  0  0  0  0  0  0  0
   78.1716    0.5611  -55.4291 H   0  0  0  0  0  0  0  0  0  0  0  0
  1  2  1  0  0  0  0
  1 82  1  0  0  0  0
  1 83  1  0  0  0  0
  1 84  1  0  0  0  0
  2  3  1  0  0  0  0
  2 85  1  0  0  0  0
  2 86  1  0  0  0  0
  3  4  1  0  0  0  0
  3 87  1  0  0  0  0
  3 88  1  0  0  0  0
  4  5  1  0  0  0  0
  4 89  1  0  0  0  0
  4 90  1  0  0  0  0
  5  6  1  0  0  0  0
  5 91  1  0  0  0  0
  5 92  1  0  0  0  0
  6  7  1  0  0  0  0
  6 93  1  0  0  0  0
  6 94  1  0  0  0  0
  7  8  1  0  0  0  0
  7 95  1  0  0  0  0
  7 96  1  0  0  0  0
  8  9  1  0  0  0  0
  9 10  1  0  0  0  0
 10 11  1  0  0  0  0
 10 97  1  0  0  0  0
 10 98  1  0  0  0  0
 11 12  1  0  0  0  0
 12 13  1  0  0  0  0
 13 14  1  0  0  0  0
 14 15  1  0  0  0  0
 15 16  1  0  0  0  0
 16 17  1  0  0  0  0
 17 18  1  0  0  0  0
 18 19  1  0  0  0  0
 19 20  1  0  0  0  0
 20 21  1  0  0  0  0
 21 22  1  0  0  0  0
 22 23  1  0  0  0  0
 23 24  1  0  0  0  0
 24 25  1  0  0  0  0
 25 26  1  0  0  0  0
 26 27  1  0  0  0  0
 27 28  1  0  0  0  0
 28 29  1  0  0  0  0
 29 30  1  0  0  0  0
 30 31  1  0  0  0  0
 31 32  1  0  0  0  0
 32 33  1  0  0  0  0
 33 34  1  0  0  0  0
 34 35  1  0  0  0  0
 35 36  1  0  0  0  0
 35 99  1  0  0  0  0
 35100  1  0  0  0  0
 36 37  1  0  0  0  0
 36101  1  0  0  0  0
 36102  1  0  0  0  0
 37 38  1  0  0  0  0
 37103  1  0  0  0  0
 37104  1  0  0  0  0
 38 39  1  0  0  0  0
 38105  1  0  0  0  0
 38106  1  0  0  0  0
 39 40  1  0  0  0  0
 39107  1  0  0  0  0
 39108  1  0  0  0  0
 40 41  1  0  0  0  0
 40109  1  0  0  0  0
 40110  1  0  0  0  0
 41 42  1  0  0  0  0
 41111  1  0  0  0  0
 41112  1  0  0  0  0
 42 43  1  0  0  0  0
 42113  1  0  0  0  0
 42114  1  0  0  0  0
 43 44  1  0  0  0  0
 43115  1  0  0  0  0
 43116  1  0  0  0  0
 44 45  1  0  0  0  0
 44117  1  0  0  0  0
 44118  1  0  0  0  0
 45 46  1  0  0  0  0
 45119  1  0  0  0  0
 45120  1  0  0  0  0
 46 47  1  0  0  0  0
 46121  1  0  0  0  0
 46122  1  0  0  0  0
 47 48  1  0  0  0  0
 47123  1  0  0  0  0
 47124  1  0  0  0  0
 48 49  1  0  0  0  0
 48125  1  0  0  0  0
 48126  1  0  0  0  0
 49 50  1  0  0  0  0
 49127  1  0  0  0  0
 49128  1  0  0  0  0
 50 51  1  0  0  0  0
 50129  1  0  0  0  0
 50130  1  0  0  0  0
 51 52  1  0  0  0  0
 51131  1  0  0  0  0
 51132  1  0  0  0  0
 52 53  1  0  0  0  0
 52133  1  0  0  0  0
 52134  1  0  0  0  0
 53 54  1  0  0  0  0
 53135  1  0  0  0  0
 53136  1  0  0  0  0
 54 55  1  0  0  0  0
 54137  1  0  0  0  0
 54138  1  0  0  0  0
 55 56  1  0  0  0  0
 55139  1  0  0  0  0
 55140  1  0  0  0  0
 56 57  1  0  0  0  0
 56141  1  0  0  0  0
 56142  1  0  0  0  0
 57 58  1  0  0  0  0
 57143  1  0  0  0  0
 57144  1  0  0  0  0
 58 59  1  0  0  0  0
 58145  1  0  0  0  0
 58146  1  0  0  0  0
 59 60  1  0  0  0  0
 59147  1  0  0  0  0
 59148  1  0  0  0  0
 60 61  1  0  0  0  0
 60149  1  0  0  0  0
 60150  1  0  0  0  0
 61 62  1  0  0  0  0
 61151  1  0  0  0  0
 61152  1  0  0  0  0
 62 63  1  0  0  0  0
 62153  1  0  0  0  0
 62154  1  0  0  0  0
 63 64  1  0  0  0  0
 63155  1  0  0  0  0
 63156  1  0  0  0  0
 64 65  1  0  0  0  0
 64157  1  0  0  0  0
 64158  1  0  0  0  0
 65 66  1  0  0  0  0
 65159  1  0  0  0  0
 65160  1  0  0  0  0
 66 67  1  0  0  0  0
 66161  1  0  0  0  0
 66162  1  0  0  0  0
 67 68  1  0  0  0  0
 67163  1  0  0  0  0
 67164  1  0  0  0  0
 68 69  1  0  0  0  0
 68165  1  0  0  0  0
 68166  1  0  0  0  0
 69 70  1  0  0  0  0
 69167  1  0  0  0  0
 69168  1  0  0  0  0
 70 71  1  0  0  0  0
 70169  1  0  0  0  0
 70170  1  0  0  0  0
 71 72  1  0  0  0  0
 71171  1  0  0  0  0
 71172  1  0  0  0  0
 72 73  1  0  0  0  0
 72173  1  0  0  0  0
 72174  1  0  0  0  0
 73 74  1  0  0  0  0
 73175  1  0  0  0  0
 73176  1  0  0  0  0
 74 75  1  0  0  0  0
 74177  1  0  0  0  0
 74178  1  0  0  0  0
 75 76  1  0  0  0  0
 75179  1  0  0  0  0
 75180  1  0  0  0  0
 76 77  1  0  0  0  0
 76181  1  0  0  0  0
 76182  1  0  0  0  0
 77 78  1  0  0  0  0
 77183  1  0  0  0  0
 77184  1  0  0  0  0
 78 79  1  0  0  0  0
 78185  1  0  0  0  0
 78186  1  0  0  0  0
 79 80  1  0  0  0  0
 79187  1  0  0  0  0
 79188  1  0  0  0  0
 80 81  1  0  0  0  0
 80189  1  0  0  0  0
 80190  1  0  0  0  0
 81191  1  0  0  0  0
 81192  1  0  0  0  0
 81193  1  0  0  0  0
M  END
$$$$
