
 OpenBabel04232216583D

165164  0  0  0  0  0  0  0  0999 V2000
   25.9309   19.1837  -21.3936 N   0  0  0  0  0  0  0  0  0  0  0  0
   25.3540   19.3957  -20.1330 N   0  0  0  0  0  0  0  0  0  0  0  0
   25.7388   18.3234  -19.2606 N   0  0  0  0  0  0  0  0  0  0  0  0
   25.1380   18.5678  -17.9588 C   0  0  0  0  0  0  0  0  0  0  0  0
   23.6607   18.5637  -18.0332 N   0  0  0  0  0  0  0  0  0  0  0  0
   23.1995   17.3320  -18.5669 N   0  0  0  0  0  0  0  0  0  0  0  0
   23.5753   16.2633  -17.7096 N   0  0  0  0  0  0  0  0  0  0  0  0
   23.1191   15.0415  -18.2321 N   0  0  0  0  0  0  0  0  0  0  0  0
   23.6845   14.8226  -19.5247 N   0  0  0  0  0  0  0  0  0  0  0  0
   25.1109   14.7932  -19.4254 N   0  0  0  0  0  0  0  0  0  0  0  0
   25.5087   13.7430  -18.5462 N   0  0  0  0  0  0  0  0  0  0  0  0
   25.0322   12.4949  -19.0575 N   0  0  0  0  0  0  0  0  0  0  0  0
   25.5815   12.2759  -20.3620 N   0  0  0  0  0  0  0  0  0  0  0  0
   27.0099   12.2566  -20.2759 N   0  0  0  0  0  0  0  0  0  0  0  0
   27.4170   11.2102  -19.3917 N   0  0  0  0  0  0  0  0  0  0  0  0
   26.9397    9.9579  -19.8897 N   0  0  0  0  0  0  0  0  0  0  0  0
   27.4755    9.7354  -21.1980 N   0  0  0  0  0  0  0  0  0  0  0  0
   28.9070    9.7246  -21.1210 N   0  0  0  0  0  0  0  0  0  0  0  0
   29.3207    8.6803  -20.2275 N   0  0  0  0  0  0  0  0  0  0  0  0
   28.8372    7.4214  -20.7194 N   0  0  0  0  0  0  0  0  0  0  0  0
   29.3693    7.1927  -22.0328 N   0  0  0  0  0  0  0  0  0  0  0  0
   30.8010    7.1783  -21.9682 N   0  0  0  0  0  0  0  0  0  0  0  0
   31.2250    6.1489  -21.0779 N   0  0  0  0  0  0  0  0  0  0  0  0
   30.7473    4.8933  -21.5480 N   0  0  0  0  0  0  0  0  0  0  0  0
   31.2602    4.6518  -22.8550 N   0  0  0  0  0  0  0  0  0  0  0  0
   32.6865    4.6445  -22.8125 N   0  0  0  0  0  0  0  0  0  0  0  0
   33.1298    3.6199  -21.9204 N   0  0  0  0  0  0  0  0  0  0  0  0
   32.6535    2.3546  -22.3767 N   0  0  0  0  0  0  0  0  0  0  0  0
   33.1542    2.1068  -23.6915 N   0  0  0  0  0  0  0  0  0  0  0  0
   34.5836    2.1090  -23.6545 N   0  0  0  0  0  0  0  0  0  0  0  0
   35.0289    1.0920  -22.7535 N   0  0  0  0  0  0  0  0  0  0  0  0
   34.5529   -0.1747  -23.2067 N   0  0  0  0  0  0  0  0  0  0  0  0
   35.0578   -0.4472  -24.5163 N   0  0  0  0  0  0  0  0  0  0  0  0
   36.4824   -0.4586  -24.4998 N   0  0  0  0  0  0  0  0  0  0  0  0
   36.9498   -1.4671  -23.6149 N   0  0  0  0  0  0  0  0  0  0  0  0
   36.4820   -2.7387  -24.0435 N   0  0  0  0  0  0  0  0  0  0  0  0
   36.9627   -3.0130  -25.3542 N   0  0  0  0  0  0  0  0  0  0  0  0
   38.3919   -3.0136  -25.3529 N   0  0  0  0  0  0  0  0  0  0  0  0
   38.8681   -4.0198  -24.4515 N   0  0  0  0  0  0  0  0  0  0  0  0
   38.3907   -5.3031  -24.8728 N   0  0  0  0  0  0  0  0  0  0  0  0
   38.8690   -5.5801  -26.1937 N   0  0  0  0  0  0  0  0  0  0  0  0
   40.2979   -5.5788  -26.2007 N   0  0  0  0  0  0  0  0  0  0  0  0
   40.7862   -6.5712  -25.2942 N   0  0  0  0  0  0  0  0  0  0  0  0
   40.2913   -7.8452  -25.6995 N   0  0  0  0  0  0  0  0  0  0  0  0
   40.7486   -8.1137  -27.0259 N   0  0  0  0  0  0  0  0  0  0  0  0
   42.1792   -8.0931  -27.0328 N   0  0  0  0  0  0  0  0  0  0  0  0
   42.6658   -9.0834  -26.1267 N   0  0  0  0  0  0  0  0  0  0  0  0
   42.1886  -10.3604  -26.5232 N   0  0  0  0  0  0  0  0  0  0  0  0
   42.6424  -10.6606  -27.8366 N   0  0  0  0  0  0  0  0  0  0  0  0
   44.0587  -10.6415  -27.8673 N   0  0  0  0  0  0  0  0  0  0  0  0
   44.5594  -11.6177  -26.9667 N   0  0  0  0  0  0  0  0  0  0  0  0
   44.0921  -12.9035  -27.3491 N   0  0  0  0  0  0  0  0  0  0  0  0
   44.5335  -13.2100  -28.6638 N   0  0  0  0  0  0  0  0  0  0  0  0
   45.9544  -13.1924  -28.7126 N   0  0  0  0  0  0  0  0  0  0  0  0
   46.4726  -14.1614  -27.8058 N   0  0  0  0  0  0  0  0  0  0  0  0
   46.0027  -15.4564  -28.1741 N   0  0  0  0  0  0  0  0  0  0  0  0
   46.4344  -15.7708  -29.4996 N   0  0  0  0  0  0  0  0  0  0  0  0
   47.8576  -15.7420  -29.5586 N   0  0  0  0  0  0  0  0  0  0  0  0
   48.3867  -16.7038  -28.6463 N   0  0  0  0  0  0  0  0  0  0  0  0
   47.9120  -18.0012  -29.0019 N   0  0  0  0  0  0  0  0  0  0  0  0
   48.3240  -18.3118  -30.3345 N   0  0  0  0  0  0  0  0  0  0  0  0
   49.7591  -18.2893  -30.4037 N   0  0  0  0  0  0  0  0  0  0  0  0
   50.3005  -19.2554  -29.4857 N   0  0  0  0  0  0  0  0  0  0  0  0
   49.8009  -20.5531  -29.8313 N   0  0  0  0  0  0  0  0  0  0  0  0
   50.2148  -20.8623  -31.1714 N   0  0  0  0  0  0  0  0  0  0  0  0
   51.6519  -20.8198  -31.2423 N   0  0  0  0  0  0  0  0  0  0  0  0
   52.1929  -21.7814  -30.3182 N   0  0  0  0  0  0  0  0  0  0  0  0
   51.7036  -23.0914  -30.6545 N   0  0  0  0  0  0  0  0  0  0  0  0
   52.1122  -23.4215  -31.9986 N   0  0  0  0  0  0  0  0  0  0  0  0
   53.5515  -23.3842  -32.0865 N   0  0  0  0  0  0  0  0  0  0  0  0
   54.1056  -24.3373  -31.1591 N   0  0  0  0  0  0  0  0  0  0  0  0
   53.6155  -25.6478  -31.4873 N   0  0  0  0  0  0  0  0  0  0  0  0
   54.0081  -25.9687  -32.8299 N   0  0  0  0  0  0  0  0  0  0  0  0
   55.4410  -25.9329  -32.9230 N   0  0  0  0  0  0  0  0  0  0  0  0
   55.9997  -26.8721  -31.9959 N   0  0  0  0  0  0  0  0  0  0  0  0
   55.5170  -28.1837  -32.3109 N   0  0  0  0  0  0  0  0  0  0  0  0
   55.8998  -28.5172  -33.6510 N   0  0  0  0  0  0  0  0  0  0  0  0
   57.3284  -28.4785  -33.7603 N   0  0  0  0  0  0  0  0  0  0  0  0
   57.9077  -29.4184  -32.8454 N   0  0  0  0  0  0  0  0  0  0  0  0
   57.4379  -30.7333  -33.1392 N   0  0  0  0  0  0  0  0  0  0  0  0
   57.7998  -31.0880  -34.4706 N   0  0  0  0  0  0  0  0  0  0  0  0
   25.6481   19.9322  -22.0316 H   0  0  0  0  0  0  0  0  0  0  0  0
   25.5995   18.3033  -21.7899 H   0  0  0  0  0  0  0  0  0  0  0  0
   24.3412   19.4430  -20.2462 H   0  0  0  0  0  0  0  0  0  0  0  0
   26.7643   18.3524  -19.1888 H   0  0  0  0  0  0  0  0  0  0  0  0
   25.4855   19.5029  -17.5246 H   0  0  0  0  0  0  0  0  0  0  0  0
   25.4444   17.7631  -17.2671 H   0  0  0  0  0  0  0  0  0  0  0  0
   23.3823   19.3453  -18.6476 H   0  0  0  0  0  0  0  0  0  0  0  0
   23.6027   17.2036  -19.4953 H   0  0  0  0  0  0  0  0  0  0  0  0
   23.1801   16.4495  -16.7929 H   0  0  0  0  0  0  0  0  0  0  0  0
   22.1115   15.0925  -18.3077 H   0  0  0  0  0  0  0  0  0  0  0  0
   23.4106   15.5966  -20.1340 H   0  0  0  0  0  0  0  0  0  0  0  0
   25.4190   15.7010  -19.0515 H   0  0  0  0  0  0  0  0  0  0  0  0
   25.0935   13.9204  -17.6327 H   0  0  0  0  0  0  0  0  0  0  0  0
   24.0156   12.5479  -19.1252 H   0  0  0  0  0  0  0  0  0  0  0  0
   25.2942   13.0462  -20.9703 H   0  0  0  0  0  0  0  0  0  0  0  0
   27.3268   13.1556  -19.9071 H   0  0  0  0  0  0  0  0  0  0  0  0
   27.0121   11.3832  -18.4724 H   0  0  0  0  0  0  0  0  0  0  0  0
   25.9229    9.9956  -19.9494 H   0  0  0  0  0  0  0  0  0  0  0  0
   27.1706   10.4981  -21.8157 H   0  0  0  0  0  0  0  0  0  0  0  0
   29.2288   10.6368  -20.7623 H   0  0  0  0  0  0  0  0  0  0  0  0
   28.9275    8.8630  -19.2913 H   0  0  0  0  0  0  0  0  0  0  0  0
   27.8065    7.4448  -20.7605 H   0  0  0  0  0  0  0  0  0  0  0  0
   29.0577    7.9422  -22.6674 H   0  0  0  0  0  0  0  0  0  0  0  0
   31.1442    8.0752  -21.6214 H   0  0  0  0  0  0  0  0  0  0  0  0
   30.8574    6.3082  -20.1465 H   0  0  0  0  0  0  0  0  0  0  0  0
   29.7381    4.8880  -21.5945 H   0  0  0  0  0  0  0  0  0  0  0  0
   30.9688    5.3748  -23.4955 H   0  0  0  0  0  0  0  0  0  0  0  0
   33.0366    5.5296  -22.4741 H   0  0  0  0  0  0  0  0  0  0  0  0
   32.7661    3.7762  -20.9919 H   0  0  0  0  0  0  0  0  0  0  0  0
   31.6474    2.3457  -22.4212 H   0  0  0  0  0  0  0  0  0  0  0  0
   32.8451    2.8297  -24.3331 H   0  0  0  0  0  0  0  0  0  0  0  0
   34.9329    3.0063  -23.3264 H   0  0  0  0  0  0  0  0  0  0  0  0
   34.6767    1.2569  -21.8125 H   0  0  0  0  0  0  0  0  0  0  0  0
   33.5331   -0.1976  -23.2334 H   0  0  0  0  0  0  0  0  0  0  0  0
   34.7580    0.2661  -25.1731 H   0  0  0  0  0  0  0  0  0  0  0  0
   36.8391    0.4320  -24.1782 H   0  0  0  0  0  0  0  0  0  0  0  0
   36.5963   -1.2998  -22.6815 H   0  0  0  0  0  0  0  0  0  0  0  0
   35.4683   -2.7317  -24.0736 H   0  0  0  0  0  0  0  0  0  0  0  0
   36.6343   -2.2824  -25.9827 H   0  0  0  0  0  0  0  0  0  0  0  0
   38.7096   -2.0864  -25.0288 H   0  0  0  0  0  0  0  0  0  0  0  0
   38.4894   -3.7926  -23.5119 H   0  0  0  0  0  0  0  0  0  0  0  0
   37.3506   -5.2560  -24.8699 H   0  0  0  0  0  0  0  0  0  0  0  0
   38.5177   -4.8320  -26.8128 H   0  0  0  0  0  0  0  0  0  0  0  0
   40.6023   -4.6503  -25.8858 H   0  0  0  0  0  0  0  0  0  0  0  0
   40.4124   -6.3442  -24.3689 H   0  0  0  0  0  0  0  0  0  0  0  0
   39.2664   -7.8051  -25.6917 H   0  0  0  0  0  0  0  0  0  0  0  0
   40.3901   -7.3755  -27.6475 H   0  0  0  0  0  0  0  0  0  0  0  0
   42.4963   -7.1634  -26.7315 H   0  0  0  0  0  0  0  0  0  0  0  0
   42.3320   -8.8859  -25.1858 H   0  0  0  0  0  0  0  0  0  0  0  0
   41.1797  -10.3849  -26.5182 H   0  0  0  0  0  0  0  0  0  0  0  0
   42.2925   -9.9643  -28.4887 H   0  0  0  0  0  0  0  0  0  0  0  0
   44.4078   -9.7214  -27.5864 H   0  0  0  0  0  0  0  0  0  0  0  0
   44.2388  -11.4124  -26.0151 H   0  0  0  0  0  0  0  0  0  0  0  0
   43.0750  -12.9180  -27.3434 H   0  0  0  0  0  0  0  0  0  0  0  0
   44.1827  -12.5091  -29.3074 H   0  0  0  0  0  0  0  0  0  0  0  0
   46.2816  -12.2642  -28.4365 H   0  0  0  0  0  0  0  0  0  0  0  0
   46.1383  -13.9354  -26.8612 H   0  0  0  0  0  0  0  0  0  0  0  0
   44.9808  -15.4525  -28.1562 H   0  0  0  0  0  0  0  0  0  0  0  0
   46.0548  -15.0596  -30.1350 H   0  0  0  0  0  0  0  0  0  0  0  0
   48.1717  -14.8004  -29.2873 H   0  0  0  0  0  0  0  0  0  0  0  0
   48.0506  -16.4647  -27.7019 H   0  0  0  0  0  0  0  0  0  0  0  0
   46.8876  -17.9954  -28.9556 H   0  0  0  0  0  0  0  0  0  0  0  0
   47.9266  -17.5928  -30.9670 H   0  0  0  0  0  0  0  0  0  0  0  0
   50.0665  -17.3422  -30.1281 H   0  0  0  0  0  0  0  0  0  0  0  0
   49.9635  -18.9972  -28.5420 H   0  0  0  0  0  0  0  0  0  0  0  0
   48.7695  -20.5227  -29.7775 H   0  0  0  0  0  0  0  0  0  0  0  0
   49.8295  -20.1574  -31.8043 H   0  0  0  0  0  0  0  0  0  0  0  0
   51.9700  -19.8736  -30.9832 H   0  0  0  0  0  0  0  0  0  0  0  0
   51.8835  -21.5501  -29.3725 H   0  0  0  0  0  0  0  0  0  0  0  0
   50.6773  -23.0942  -30.5935 H   0  0  0  0  0  0  0  0  0  0  0  0
   51.7234  -22.7268  -32.6425 H   0  0  0  0  0  0  0  0  0  0  0  0
   53.8666  -22.4317  -31.8434 H   0  0  0  0  0  0  0  0  0  0  0  0
   53.8044  -24.0868  -30.2049 H   0  0  0  0  0  0  0  0  0  0  0  0
   52.5852  -25.6520  -31.4157 H   0  0  0  0  0  0  0  0  0  0  0  0
   53.5977  -25.2831  -33.4827 H   0  0  0  0  0  0  0  0  0  0  0  0
   55.7857  -24.9945  -32.6975 H   0  0  0  0  0  0  0  0  0  0  0  0
   55.7242  -26.6278  -31.0349 H   0  0  0  0  0  0  0  0  0  0  0  0
   54.4922  -28.2114  -32.2297 H   0  0  0  0  0  0  0  0  0  0  0  0
   55.4931  -27.8448  -34.3135 H   0  0  0  0  0  0  0  0  0  0  0  0
   57.6771  -27.5379  -33.5447 H   0  0  0  0  0  0  0  0  0  0  0  0
   57.6378  -29.1755  -31.8832 H   0  0  0  0  0  0  0  0  0  0  0  0
   56.4161  -30.7684  -33.0454 H   0  0  0  0  0  0  0  0  0  0  0  0
   58.8208  -31.0525  -34.5683 H   0  0  0  0  0  0  0  0  0  0  0  0
   57.4051  -30.4189  -35.1385 H   0  0  0  0  0  0  0  0  0  0  0  0
  1  2  1  0  0  0  0
  1 82  1  0  0  0  0
  1 83  1  0  0  0  0
  2  3  1  0  0  0  0
  2 84  1  0  0  0  0
  3  4  1  0  0  0  0
  3 85  1  0  0  0  0
  4  5  1  0  0  0  0
  4 86  1  0  0  0  0
  4 87  1  0  0  0  0
  5  6  1  0  0  0  0
  5 88  1  0  0  0  0
  6  7  1  0  0  0  0
  6 89  1  0  0  0  0
  7  8  1  0  0  0  0
  7 90  1  0  0  0  0
  8  9  1  0  0  0  0
  8 91  1  0  0  0  0
  9 10  1  0  0  0  0
  9 92  1  0  0  0  0
 10 11  1  0  0  0  0
 10 93  1  0  0  0  0
 11 12  1  0  0  0  0
 11 94  1  0  0  0  0
 12 13  1  0  0  0  0
 12 95  1  0  0  0  0
 13 14  1  0  0  0  0
 13 96  1  0  0  0  0
 14 15  1  0  0  0  0
 14 97  1  0  0  0  0
 15 16  1  0  0  0  0
 15 98  1  0  0  0  0
 16 17  1  0  0  0  0
 16 99  1  0  0  0  0
 17 18  1  0  0  0  0
 17100  1  0  0  0  0
 18 19  1  0  0  0  0
 18101  1  0  0  0  0
 19 20  1  0  0  0  0
 19102  1  0  0  0  0
 20 21  1  0  0  0  0
 20103  1  0  0  0  0
 21 22  1  0  0  0  0
 21104  1  0  0  0  0
 22 23  1  0  0  0  0
 22105  1  0  0  0  0
 23 24  1  0  0  0  0
 23106  1  0  0  0  0
 24 25  1  0  0  0  0
 24107  1  0  0  0  0
 25 26  1  0  0  0  0
 25108  1  0  0  0  0
 26 27  1  0  0  0  0
 26109  1  0  0  0  0
 27 28  1  0  0  0  0
 27110  1  0  0  0  0
 28 29  1  0  0  0  0
 28111  1  0  0  0  0
 29 30  1  0  0  0  0
 29112  1  0  0  0  0
 30 31  1  0  0  0  0
 30113  1  0  0  0  0
 31 32  1  0  0  0  0
 31114  1  0  0  0  0
 32 33  1  0  0  0  0
 32115  1  0  0  0  0
 33 34  1  0  0  0  0
 33116  1  0  0  0  0
 34 35  1  0  0  0  0
 34117  1  0  0  0  0
 35 36  1  0  0  0  0
 35118  1  0  0  0  0
 36 37  1  0  0  0  0
 36119  1  0  0  0  0
 37 38  1  0  0  0  0
 37120  1  0  0  0  0
 38 39  1  0  0  0  0
 38121  1  0  0  0  0
 39 40  1  0  0  0  0
 39122  1  0  0  0  0
 40 41  1  0  0  0  0
 40123  1  0  0  0  0
 41 42  1  0  0  0  0
 41124  1  0  0  0  0
 42 43  1  0  0  0  0
 42125  1  0  0  0  0
 43 44  1  0  0  0  0
 43126  1  0  0  0  0
 44 45  1  0  0  0  0
 44127  1  0  0  0  0
 45 46  1  0  0  0  0
 45128  1  0  0  0  0
 46 47  1  0  0  0  0
 46129  1  0  0  0  0
 47 48  1  0  0  0  0
 47130  1  0  0  0  0
 48 49  1  0  0  0  0
 48131  1  0  0  0  0
 49 50  1  0  0  0  0
 49132  1  0  0  0  0
 50 51  1  0  0  0  0
 50133  1  0  0  0  0
 51 52  1  0  0  0  0
 51134  1  0  0  0  0
 52 53  1  0  0  0  0
 52135  1  0  0  0  0
 53 54  1  0  0  0  0
 53136  1  0  0  0  0
 54 55  1  0  0  0  0
 54137  1  0  0  0  0
 55 56  1  0  0  0  0
 55138  1  0  0  0  0
 56 57  1  0  0  0  0
 56139  1  0  0  0  0
 57 58  1  0  0  0  0
 57140  1  0  0  0  0
 58 59  1  0  0  0  0
 58141  1  0  0  0  0
 59 60  1  0  0  0  0
 59142  1  0  0  0  0
 60 61  1  0  0  0  0
 60143  1  0  0  0  0
 61 62  1  0  0  0  0
 61144  1  0  0  0  0
 62 63  1  0  0  0  0
 62145  1  0  0  0  0
 63 64  1  0  0  0  0
 63146  1  0  0  0  0
 64 65  1  0  0  0  0
 64147  1  0  0  0  0
 65 66  1  0  0  0  0
 65148  1  0  0  0  0
 66 67  1  0  0  0  0
 66149  1  0  0  0  0
 67 68  1  0  0  0  0
 67150  1  0  0  0  0
 68 69  1  0  0  0  0
 68151  1  0  0  0  0
 69 70  1  0  0  0  0
 69152  1  0  0  0  0
 70 71  1  0  0  0  0
 70153  1  0  0  0  0
 71 72  1  0  0  0  0
 71154  1  0  0  0  0
 72 73  1  0  0  0  0
 72155  1  0  0  0  0
 73 74  1  0  0  0  0
 73156  1  0  0  0  0
 74 75  1  0  0  0  0
 74157  1  0  0  0  0
 75 76  1  0  0  0  0
 75158  1  0  0  0  0
 76 77  1  0  0  0  0
 76159  1  0  0  0  0
 77 78  1  0  0  0  0
 77160  1  0  0  0  0
 78 79  1  0  0  0  0
 78161  1  0  0  0  0
 79 80  1  0  0  0  0
 79162  1  0  0  0  0
 80 81  1  0  0  0  0
 80163  1  0  0  0  0
 81164  1  0  0  0  0
 81165  1  0  0  0  0
M  END
$$$$
