
 OpenBabel04232216423D

 61 61  0  0  0  0  0  0  0  0999 V2000
    8.3631   -1.2903   -4.4697 C   0  0  0  0  0  0  0  0  0  0  0  0
    6.6249   -1.2110   -4.2525 C   0  0  0  0  0  0  0  0  0  0  0  0
    5.6687   -1.0484   -3.2768 C   0  0  0  0  0  0  0  0  0  0  0  0
    4.2719   -1.2269   -3.2262 N   0  0  0  0  0  0  0  0  0  0  0  0
    3.0793   -1.5059   -4.0151 C   0  0  0  0  0  0  0  0  0  0  0  0
    2.9926   -2.7233   -4.9293 C   0  0  0  0  0  0  0  0  0  0  0  0
    3.1645   -4.1431   -4.3541 C   0  0  0  0  0  0  0  0  0  0  0  0
    1.9683   -4.7974   -3.6170 C   0  0  0  0  0  0  0  0  0  0  0  0
    2.3053   -6.2633   -3.2392 C   0  0  0  0  0  0  0  0  0  0  0  0
    1.2114   -6.9758   -2.4316 C   0  0  0  0  0  0  0  0  0  0  0  0
    1.6225   -8.3941   -2.0295 C   0  0  0  0  0  0  0  0  0  0  0  0
    6.0857   -0.6553   -1.9370 C   0  0  0  0  0  0  0  0  0  0  0  0
    6.2524   -1.5665   -0.9477 C   0  0  0  0  0  0  0  0  0  0  0  0
    7.7091   -1.6925   -0.6966 C   0  0  0  0  0  0  0  0  0  0  0  0
    8.3827   -0.4682   -0.1437 C   0  0  0  0  0  0  0  0  0  0  0  0
    8.2582   -2.7034   -1.3770 C   0  0  0  0  0  0  0  0  0  0  0  0
    9.6156   -2.9009   -1.7636 C   0  0  0  0  0  0  0  0  0  0  0  0
    9.8631   -3.8257   -2.7015 C   0  0  0  0  0  0  0  0  0  0  0  0
   11.1875   -4.1238   -3.1353 C   0  0  0  0  0  0  0  0  0  0  0  0
   11.4707   -4.8561   -4.2216 C   0  0  0  0  0  0  0  0  0  0  0  0
   12.8207   -4.7337   -4.7400 C   0  0  0  0  0  0  0  0  0  0  0  0
   12.8525   -4.4565   -6.0568 C   0  0  0  0  0  0  0  0  0  0  0  0
   13.3295   -3.3115   -6.6088 N   0  0  0  0  0  0  0  0  0  0  0  0
   12.7278   -2.1629   -6.3099 C   0  0  0  0  0  0  0  0  0  0  0  0
   12.0683   -1.6124   -5.0284 C   0  0  0  0  0  0  0  0  0  0  0  0
   13.0917   -1.3649   -4.0659 O   0  0  0  0  0  0  0  0  0  0  0  0
   10.7957   -1.2125   -4.6567 C   0  0  0  0  0  0  0  0  0  0  0  0
    9.5097   -1.3394   -5.1983 N   0  0  0  0  0  0  0  0  0  0  0  0
    8.0703   -1.8133   -5.4195 H   0  0  0  0  0  0  0  0  0  0  0  0
    6.1925   -1.4285   -5.2288 H   0  0  0  0  0  0  0  0  0  0  0  0
    3.9257   -0.8382   -2.3433 H   0  0  0  0  0  0  0  0  0  0  0  0
    2.8043   -0.6042   -4.5763 H   0  0  0  0  0  0  0  0  0  0  0  0
    2.2610   -1.6261   -3.2861 H   0  0  0  0  0  0  0  0  0  0  0  0
    3.7199   -2.5839   -5.7348 H   0  0  0  0  0  0  0  0  0  0  0  0
    2.0015   -2.6888   -5.4080 H   0  0  0  0  0  0  0  0  0  0  0  0
    4.0533   -4.1764   -3.7181 H   0  0  0  0  0  0  0  0  0  0  0  0
    3.3693   -4.7874   -5.2202 H   0  0  0  0  0  0  0  0  0  0  0  0
    1.0783   -4.7964   -4.2601 H   0  0  0  0  0  0  0  0  0  0  0  0
    1.7194   -4.2301   -2.7140 H   0  0  0  0  0  0  0  0  0  0  0  0
    3.2358   -6.2765   -2.6599 H   0  0  0  0  0  0  0  0  0  0  0  0
    2.4933   -6.8381   -4.1559 H   0  0  0  0  0  0  0  0  0  0  0  0
    0.2861   -7.0341   -3.0158 H   0  0  0  0  0  0  0  0  0  0  0  0
    0.9892   -6.4095   -1.5209 H   0  0  0  0  0  0  0  0  0  0  0  0
    1.8014   -9.0232   -2.9074 H   0  0  0  0  0  0  0  0  0  0  0  0
    0.8334   -8.8676   -1.4366 H   0  0  0  0  0  0  0  0  0  0  0  0
    2.5339   -8.3874   -1.4227 H   0  0  0  0  0  0  0  0  0  0  0  0
    5.8978    0.3661   -1.6156 H   0  0  0  0  0  0  0  0  0  0  0  0
    5.8304   -2.5660   -1.1217 H   0  0  0  0  0  0  0  0  0  0  0  0
    7.6727    0.1428    0.4298 H   0  0  0  0  0  0  0  0  0  0  0  0
    8.7663    0.1645   -0.9532 H   0  0  0  0  0  0  0  0  0  0  0  0
    9.1996   -0.7378    0.5267 H   0  0  0  0  0  0  0  0  0  0  0  0
    7.5859   -3.4348   -1.8325 H   0  0  0  0  0  0  0  0  0  0  0  0
   10.3935   -2.2650   -1.3517 H   0  0  0  0  0  0  0  0  0  0  0  0
    9.0499   -4.3412   -3.2119 H   0  0  0  0  0  0  0  0  0  0  0  0
   11.9848   -3.6047   -2.6095 H   0  0  0  0  0  0  0  0  0  0  0  0
   10.6780   -5.2431   -4.8647 H   0  0  0  0  0  0  0  0  0  0  0  0
   13.5371   -4.2821   -4.0586 H   0  0  0  0  0  0  0  0  0  0  0  0
   12.1991   -4.9984   -6.7298 H   0  0  0  0  0  0  0  0  0  0  0  0
   13.1051   -1.3588   -6.9609 H   0  0  0  0  0  0  0  0  0  0  0  0
   13.8985   -1.7947   -4.4093 H   0  0  0  0  0  0  0  0  0  0  0  0
   10.8144   -0.7504   -3.6481 H   0  0  0  0  0  0  0  0  0  0  0  0
  1  2  1  0  0  0  0
  1 28  2  3  0  0  0
  1 29  1  0  0  0  0
  2  3  2  3  0  0  0
  2 30  1  0  0  0  0
  3  4  1  0  0  0  0
  3 12  1  0  0  0  0
  4  5  1  0  0  0  0
  4 31  1  0  0  0  0
  5  6  1  0  0  0  0
  5 32  1  0  0  0  0
  5 33  1  0  0  0  0
  6  7  1  0  0  0  0
  6 34  1  0  0  0  0
  6 35  1  0  0  0  0
  7  8  1  0  0  0  0
  7 36  1  0  0  0  0
  7 37  1  0  0  0  0
  8  9  1  0  0  0  0
  8 38  1  0  0  0  0
  8 39  1  0  0  0  0
  9 10  1  0  0  0  0
  9 40  1  0  0  0  0
  9 41  1  0  0  0  0
 10 11  1  0  0  0  0
 10 42  1  0  0  0  0
 10 43  1  0  0  0  0
 11 44  1  0  0  0  0
 11 45  1  0  0  0  0
 11 46  1  0  0  0  0
 12 13  2  3  0  0  0
 12 47  1  0  0  0  0
 13 14  1  0  0  0  0
 13 48  1  0  0  0  0
 14 15  1  0  0  0  0
 14 16  2  3  0  0  0
 15 49  1  0  0  0  0
 15 50  1  0  0  0  0
 15 51  1  0  0  0  0
 16 17  1  0  0  0  0
 16 52  1  0  0  0  0
 17 18  2  3  0  0  0
 17 53  1  0  0  0  0
 18 19  1  0  0  0  0
 18 54  1  0  0  0  0
 19 20  2  3  0  0  0
 19 55  1  0  0  0  0
 20 21  1  0  0  0  0
 20 56  1  0  0  0  0
 21 22  2  3  0  0  0
 21 57  1  0  0  0  0
 22 23  1  0  0  0  0
 22 58  1  0  0  0  0
 23 24  2  3  0  0  0
 24 25  1  0  0  0  0
 24 59  1  0  0  0  0
 25 26  1  0  0  0  0
 25 27  2  3  0  0  0
 26 60  1  0  0  0  0
 27 28  1  0  0  0  0
 27 61  1  0  0  0  0
M  END
$$$$
