
 OpenBabel04232216533D

 97 96  0  0  0  0  0  0  0  0999 V2000
    0.9561   -0.0763    0.0630 C   0  0  0  0  0  0  0  0  0  0  0  0
    2.4737   -0.0751    0.0627 C   0  0  0  0  0  0  0  0  0  0  0  0
    3.0060   -1.4022    0.5901 C   0  0  0  0  0  0  0  0  0  0  0  0
    4.5323   -1.4097    0.5954 C   0  0  0  0  0  0  0  0  0  0  0  0
    5.0657   -2.7390    1.1237 C   0  0  0  0  0  0  0  0  0  0  0  0
    6.6002   -2.7645    1.1361 C   0  0  0  0  0  0  0  0  0  0  0  0
    7.1087   -4.3824    1.7815 S   0  0  0  0  0  0  0  0  0  0  0  0
    8.9447   -4.2952    1.7469 C   0  0  0  0  0  0  0  0  0  0  0  0
    9.4607   -5.9058    2.3898 S   0  0  0  0  0  0  0  0  0  0  0  0
   11.1159   -5.8443    2.3626 O   0  0  0  0  0  0  0  0  0  0  0  0
   11.5806   -7.3228    2.9497 S   0  0  0  0  0  0  0  0  0  0  0  0
   13.2126   -7.1592    2.8850 O   0  0  0  0  0  0  0  0  0  0  0  0
   13.7330   -8.3891    3.3736 O   0  0  0  0  0  0  0  0  0  0  0  0
   15.1378   -8.3652    3.3641 O   0  0  0  0  0  0  0  0  0  0  0  0
   15.5711   -9.6076    3.8577 O   0  0  0  0  0  0  0  0  0  0  0  0
   16.9643   -9.5987    3.8542 O   0  0  0  0  0  0  0  0  0  0  0  0
   17.3830  -10.8303    4.3435 O   0  0  0  0  0  0  0  0  0  0  0  0
   18.7669  -10.7990    4.3311 O   0  0  0  0  0  0  0  0  0  0  0  0
   19.1863  -12.0198    4.8161 O   0  0  0  0  0  0  0  0  0  0  0  0
   20.5617  -11.9743    4.7980 O   0  0  0  0  0  0  0  0  0  0  0  0
   20.9746  -13.1908    5.2814 O   0  0  0  0  0  0  0  0  0  0  0  0
   22.3470  -13.1450    5.2631 O   0  0  0  0  0  0  0  0  0  0  0  0
   22.7489  -14.3564    5.7445 O   0  0  0  0  0  0  0  0  0  0  0  0
   24.1148  -14.3044    5.7238 O   0  0  0  0  0  0  0  0  0  0  0  0
   24.5154  -15.5180    6.2060 O   0  0  0  0  0  0  0  0  0  0  0  0
   25.8791  -15.4654    6.1851 O   0  0  0  0  0  0  0  0  0  0  0  0
   26.2787  -16.6769    6.6664 O   0  0  0  0  0  0  0  0  0  0  0  0
   27.6413  -16.6224    6.6448 O   0  0  0  0  0  0  0  0  0  0  0  0
   28.0400  -17.8344    7.1263 O   0  0  0  0  0  0  0  0  0  0  0  0
   29.4022  -17.7795    7.1045 O   0  0  0  0  0  0  0  0  0  0  0  0
   29.8005  -18.9912    7.5859 O   0  0  0  0  0  0  0  0  0  0  0  0
   31.1625  -18.9363    7.5641 O   0  0  0  0  0  0  0  0  0  0  0  0
   31.5607  -20.1479    8.0454 O   0  0  0  0  0  0  0  0  0  0  0  0
   32.9226  -20.0929    8.0236 O   0  0  0  0  0  0  0  0  0  0  0  0
   33.3207  -21.3045    8.5050 O   0  0  0  0  0  0  0  0  0  0  0  0
   34.6826  -21.2495    8.4831 O   0  0  0  0  0  0  0  0  0  0  0  0
   35.0807  -22.4611    8.9645 O   0  0  0  0  0  0  0  0  0  0  0  0
   36.4426  -22.4061    8.9426 O   0  0  0  0  0  0  0  0  0  0  0  0
   36.8407  -23.6176    9.4240 O   0  0  0  0  0  0  0  0  0  0  0  0
   38.2026  -23.5626    9.4021 O   0  0  0  0  0  0  0  0  0  0  0  0
   38.6007  -24.7742    9.8835 O   0  0  0  0  0  0  0  0  0  0  0  0
   39.9626  -24.7192    9.8617 O   0  0  0  0  0  0  0  0  0  0  0  0
   40.3607  -25.9308   10.3430 O   0  0  0  0  0  0  0  0  0  0  0  0
   41.7230  -25.8803   10.3229 O   0  0  0  0  0  0  0  0  0  0  0  0
   42.1207  -27.0873   10.8025 O   0  0  0  0  0  0  0  0  0  0  0  0
   43.4819  -27.0333   10.7811 O   0  0  0  0  0  0  0  0  0  0  0  0
   43.8807  -28.2440   11.2621 O   0  0  0  0  0  0  0  0  0  0  0  0
   45.2506  -28.1779   11.2358 O   0  0  0  0  0  0  0  0  0  0  0  0
   45.6402  -29.4015   11.7220 O   0  0  0  0  0  0  0  0  0  0  0  0
   47.0065  -29.3426   11.6986 O   0  0  0  0  0  0  0  0  0  0  0  0
   47.3967  -30.5666   12.1849 O   0  0  0  0  0  0  0  0  0  0  0  0
   48.7622  -30.5023   12.1593 O   0  0  0  0  0  0  0  0  0  0  0  0
   49.1608  -31.7137   12.6406 O   0  0  0  0  0  0  0  0  0  0  0  0
   50.5227  -31.6588   12.6188 O   0  0  0  0  0  0  0  0  0  0  0  0
   50.9201  -32.8703   13.1001 O   0  0  0  0  0  0  0  0  0  0  0  0
   52.2817  -32.8175   13.0791 O   0  0  0  0  0  0  0  0  0  0  0  0
   52.6815  -34.0283   13.5602 O   0  0  0  0  0  0  0  0  0  0  0  0
   54.0440  -33.9763   13.5396 O   0  0  0  0  0  0  0  0  0  0  0  0
   54.4357  -35.1910   14.0222 O   0  0  0  0  0  0  0  0  0  0  0  0
   55.7974  -35.1394   14.0016 O   0  0  0  0  0  0  0  0  0  0  0  0
   56.1972  -36.3495   14.4824 O   0  0  0  0  0  0  0  0  0  0  0  0
   57.5565  -36.2906   14.4590 O   0  0  0  0  0  0  0  0  0  0  0  0
   57.9587  -37.5020   14.9403 O   0  0  0  0  0  0  0  0  0  0  0  0
   59.3251  -37.4343   14.9134 O   0  0  0  0  0  0  0  0  0  0  0  0
   59.7289  -38.6534   15.3978 O   0  0  0  0  0  0  0  0  0  0  0  0
   61.0832  -38.6014   15.3771 O   0  0  0  0  0  0  0  0  0  0  0  0
   61.4746  -39.8143   15.8590 O   0  0  0  0  0  0  0  0  0  0  0  0
   62.8343  -39.7693   15.8412 O   0  0  0  0  0  0  0  0  0  0  0  0
   63.2334  -40.9771   16.3210 O   0  0  0  0  0  0  0  0  0  0  0  0
   64.5991  -40.9296   16.3021 O   0  0  0  0  0  0  0  0  0  0  0  0
   64.9970  -42.1484   16.7864 O   0  0  0  0  0  0  0  0  0  0  0  0
   66.3690  -42.1099   16.7711 O   0  0  0  0  0  0  0  0  0  0  0  0
   66.7810  -43.3333   17.2571 O   0  0  0  0  0  0  0  0  0  0  0  0
   68.1587  -43.2819   17.2367 O   0  0  0  0  0  0  0  0  0  0  0  0
   68.5815  -44.4945   17.7189 O   0  0  0  0  0  0  0  0  0  0  0  0
   69.9658  -44.4648   17.7061 O   0  0  0  0  0  0  0  0  0  0  0  0
   70.3819  -45.7019   18.1885 O   0  0  0  0  0  0  0  0  0  0  0  0
   71.7893  -45.6756   18.2122 O   0  0  0  0  0  0  0  0  0  0  0  0
   72.2488  -46.9139   18.7136 O   0  0  0  0  0  0  0  0  0  0  0  0
   73.6705  -46.9120   18.6696 O   0  0  0  0  0  0  0  0  0  0  0  0
   74.1078  -46.7166   17.3006 O   0  0  0  0  0  0  0  0  0  0  0  0
    0.5757    0.8760   -0.3155 H   0  0  0  0  0  0  0  0  0  0  0  0
    0.5684   -0.2248    1.0760 H   0  0  0  0  0  0  0  0  0  0  0  0
    0.5686   -0.8797   -0.5718 H   0  0  0  0  0  0  0  0  0  0  0  0
    2.8416    0.7491    0.6849 H   0  0  0  0  0  0  0  0  0  0  0  0
    2.8418    0.0973   -0.9555 H   0  0  0  0  0  0  0  0  0  0  0  0
    2.6309   -2.2229   -0.0342 H   0  0  0  0  0  0  0  0  0  0  0  0
    2.6285   -1.5720    1.6063 H   0  0  0  0  0  0  0  0  0  0  0  0
    4.8999   -0.5876    1.2206 H   0  0  0  0  0  0  0  0  0  0  0  0
    4.9024   -1.2395   -0.4224 H   0  0  0  0  0  0  0  0  0  0  0  0
    4.6744   -3.5505    0.4948 H   0  0  0  0  0  0  0  0  0  0  0  0
    4.6718   -2.8988    2.1369 H   0  0  0  0  0  0  0  0  0  0  0  0
    6.9791   -1.9639    1.7783 H   0  0  0  0  0  0  0  0  0  0  0  0
    6.9815   -2.6244    0.1203 H   0  0  0  0  0  0  0  0  0  0  0  0
    9.3137   -3.4968    2.3961 H   0  0  0  0  0  0  0  0  0  0  0  0
    9.3138   -4.1629    0.7264 H   0  0  0  0  0  0  0  0  0  0  0  0
   75.0515  -46.7071   17.5336 H   0  0  0  0  0  0  0  0  0  0  0  0
  1  2  1  0  0  0  0
  1 82  1  0  0  0  0
  1 83  1  0  0  0  0
  1 84  1  0  0  0  0
  2  3  1  0  0  0  0
  2 85  1  0  0  0  0
  2 86  1  0  0  0  0
  3  4  1  0  0  0  0
  3 87  1  0  0  0  0
  3 88  1  0  0  0  0
  4  5  1  0  0  0  0
  4 89  1  0  0  0  0
  4 90  1  0  0  0  0
  5  6  1  0  0  0  0
  5 91  1  0  0  0  0
  5 92  1  0  0  0  0
  6  7  1  0  0  0  0
  6 93  1  0  0  0  0
  6 94  1  0  0  0  0
  7  8  1  0  0  0  0
  8  9  1  0  0  0  0
  8 95  1  0  0  0  0
  8 96  1  0  0  0  0
  9 10  1  0  0  0  0
 10 11  1  0  0  0  0
 11 12  1  0  0  0  0
 12 13  1  0  0  0  0
 13 14  1  0  0  0  0
 14 15  1  0  0  0  0
 15 16  1  0  0  0  0
 16 17  1  0  0  0  0
 17 18  1  0  0  0  0
 18 19  1  0  0  0  0
 19 20  1  0  0  0  0
 20 21  1  0  0  0  0
 21 22  1  0  0  0  0
 22 23  1  0  0  0  0
 23 24  1  0  0  0  0
 24 25  1  0  0  0  0
 25 26  1  0  0  0  0
 26 27  1  0  0  0  0
 27 28  1  0  0  0  0
 28 29  1  0  0  0  0
 29 30  1  0  0  0  0
 30 31  1  0  0  0  0
 31 32  1  0  0  0  0
 32 33  1  0  0  0  0
 33 34  1  0  0  0  0
 34 35  1  0  0  0  0
 35 36  1  0  0  0  0
 36 37  1  0  0  0  0
 37 38  1  0  0  0  0
 38 39  1  0  0  0  0
 39 40  1  0  0  0  0
 40 41  1  0  0  0  0
 41 42  1  0  0  0  0
 42 43  1  0  0  0  0
 43 44  1  0  0  0  0
 44 45  1  0  0  0  0
 45 46  1  0  0  0  0
 46 47  1  0  0  0  0
 47 48  1  0  0  0  0
 48 49  1  0  0  0  0
 49 50  1  0  0  0  0
 50 51  1  0  0  0  0
 51 52  1  0  0  0  0
 52 53  1  0  0  0  0
 53 54  1  0  0  0  0
 54 55  1  0  0  0  0
 55 56  1  0  0  0  0
 56 57  1  0  0  0  0
 57 58  1  0  0  0  0
 58 59  1  0  0  0  0
 59 60  1  0  0  0  0
 60 61  1  0  0  0  0
 61 62  1  0  0  0  0
 62 63  1  0  0  0  0
 63 64  1  0  0  0  0
 64 65  1  0  0  0  0
 65 66  1  0  0  0  0
 66 67  1  0  0  0  0
 67 68  1  0  0  0  0
 68 69  1  0  0  0  0
 69 70  1  0  0  0  0
 70 71  1  0  0  0  0
 71 72  1  0  0  0  0
 72 73  1  0  0  0  0
 73 74  1  0  0  0  0
 74 75  1  0  0  0  0
 75 76  1  0  0  0  0
 76 77  1  0  0  0  0
 77 78  1  0  0  0  0
 78 79  1  0  0  0  0
 79 80  1  0  0  0  0
 80 81  1  0  0  0  0
 81 97  1  0  0  0  0
M  END
$$$$
