
 OpenBabel04232216463D

 36 37  0  0  0  0  0  0  0  0999 V2000
    2.2546    3.0248    0.1528 C   0  0  0  0  0  0  0  0  0  0  0  0
    3.6480    2.6816   -0.2980 C   0  0  0  0  0  0  0  0  0  0  0  0
    3.8617    1.3660   -0.8899 C   0  0  0  0  0  3  0  0  0  0  0  0
    4.6616    0.6324    0.1579 C   0  0  0  0  0  0  0  0  0  0  0  0
    3.5404   -0.0913    0.9879 C   0  0  0  0  0  0  0  0  0  0  0  0
    2.5233   -0.6825    0.1357 O   0  0  0  0  0  0  0  0  0  0  0  0
    5.6177   -0.4900   -0.3091 C   0  0  0  0  0  0  0  0  0  0  0  0
    5.4883    1.8347    0.7478 C   0  0  0  0  0  0  0  0  0  0  0  0
    6.8432    1.8526    0.5602 N   0  0  0  0  0  0  0  0  0  0  0  0
    7.1344    2.2125   -0.6033 N   0  0  0  0  0  0  0  0  0  0  0  0
    8.4209    2.5280   -0.8484 N   0  0  0  0  0  0  0  0  0  0  0  0
    9.5002    2.0439   -0.0113 C   0  0  0  0  0  0  0  0  0  0  0  0
    8.6070    3.7252   -1.4987 N   0  0  0  0  0  0  0  0  0  0  0  0
    8.2491    4.7602   -0.8711 N   0  0  0  0  0  0  0  0  0  0  0  0
    8.3721    4.6715    0.5267 N   0  0  0  0  0  0  0  0  0  0  0  0
    7.3238    4.4509    1.1884 N   0  0  0  0  0  0  0  0  0  0  0  0
    6.1457    4.9927    0.7497 C   0  0  0  0  0  0  0  0  0  0  0  0
    6.2178    6.5099    0.5312 C   0  0  0  0  0  0  0  0  0  0  0  0
    5.0086    4.4107    0.5465 N   0  0  0  0  0  0  0  0  0  0  0  0
    4.7198    3.0651    0.4286 C   0  0  0  0  0  0  0  0  0  0  0  0
    1.6865    2.1025    0.3319 H   0  0  0  0  0  0  0  0  0  0  0  0
    1.7063    3.6202   -0.5754 H   0  0  0  0  0  0  0  0  0  0  0  0
    2.2656    3.5408    1.1190 H   0  0  0  0  0  0  0  0  0  0  0  0
    4.1120    1.2995   -1.9468 H   0  0  0  0  0  0  0  0  0  0  0  0
    3.0241    0.5645    1.6922 H   0  0  0  0  0  0  0  0  0  0  0  0
    3.9447   -0.9363    1.5506 H   0  0  0  0  0  0  0  0  0  0  0  0
    2.0699    0.0358   -0.3501 H   0  0  0  0  0  0  0  0  0  0  0  0
    5.0832   -1.3981   -0.6064 H   0  0  0  0  0  0  0  0  0  0  0  0
    6.2709   -0.7809    0.5279 H   0  0  0  0  0  0  0  0  0  0  0  0
    6.2590   -0.1976   -1.1452 H   0  0  0  0  0  0  0  0  0  0  0  0
    9.3892    0.9695    0.1377 H   0  0  0  0  0  0  0  0  0  0  0  0
    9.5030    2.5541    0.9554 H   0  0  0  0  0  0  0  0  0  0  0  0
   10.4445    2.2414   -0.5260 H   0  0  0  0  0  0  0  0  0  0  0  0
    5.2244    6.9563    0.5724 H   0  0  0  0  0  0  0  0  0  0  0  0
    6.6547    6.7376   -0.4483 H   0  0  0  0  0  0  0  0  0  0  0  0
    6.8478    6.9710    1.2995 H   0  0  0  0  0  0  0  0  0  0  0  0
  1  2  1  0  0  0  0
  1 21  1  0  0  0  0
  1 22  1  0  0  0  0
  1 23  1  0  0  0  0
  2  3  1  0  0  0  0
  2 20  2  0  0  0  0
  3  4  1  0  0  0  0
  3 24  1  0  0  0  0
  4  5  1  0  0  0  0
  4  7  1  0  0  0  0
  4  8  2  0  0  0  0
  5  6  1  0  0  0  0
  5 25  1  0  0  0  0
  5 26  1  0  0  0  0
  6 27  1  0  0  0  0
  7 28  1  0  0  0  0
  7 29  1  0  0  0  0
  7 30  1  0  0  0  0
  8  9  1  0  0  0  0
  8 20  1  0  0  0  0
  9 10  2  3  0  0  0
 10 11  1  0  0  0  0
 11 12  1  0  0  0  0
 11 13  1  0  0  0  0
 12 31  1  0  0  0  0
 12 32  1  0  0  0  0
 12 33  1  0  0  0  0
 13 14  2  3  0  0  0
 14 15  1  0  0  0  0
 15 16  2  3  0  0  0
 16 17  1  0  0  0  0
 17 18  1  0  0  0  0
 17 19  2  3  0  0  0
 18 34  1  0  0  0  0
 18 35  1  0  0  0  0
 18 36  1  0  0  0  0
 19 20  1  0  0  0  0
M  END
$$$$
