
 OpenBabel04232217023D

238237  0  0  0  0  0  0  0  0999 V2000
    1.0054    0.0363   -0.1317 O   0  0  0  0  0  0  0  0  0  0  0  0
    2.4469    0.1120   -0.0713 N   0  0  0  0  0  0  0  0  0  0  0  0
    2.9122   -0.5003   -1.3252 C   0  0  0  0  0  0  0  0  0  0  0  0
    4.4451   -0.5237   -1.3502 C   0  0  0  0  0  0  0  0  0  0  0  0
    4.9724   -1.1671   -2.6345 C   0  0  0  0  0  0  0  0  0  0  0  0
    6.4406   -1.1615   -2.6324 N   0  0  0  0  0  0  0  0  0  0  0  0
    6.9080   -1.7739   -3.8314 N   0  0  0  0  0  0  0  0  0  0  0  0
    8.3236   -1.7749   -3.8511 N   0  0  0  0  0  0  0  0  0  0  0  0
    8.7881   -2.3834   -5.0433 N   0  0  0  0  0  0  0  0  0  0  0  0
   10.2430   -2.3661   -5.0199 C   0  0  0  0  0  0  0  0  0  0  0  0
   10.7567   -3.0085   -6.2984 C   0  0  0  0  0  0  0  0  0  0  0  0
   12.2770   -3.0152   -6.3063 C   0  0  0  0  0  0  0  0  0  0  0  0
   12.7913   -3.6553   -7.5846 C   0  0  0  0  0  0  0  0  0  0  0  0
   14.3100   -3.6578   -7.5896 C   0  0  0  0  0  0  0  0  0  0  0  0
   14.8214   -4.2970   -8.8673 C   0  0  0  0  0  0  0  0  0  0  0  0
   16.3384   -4.3012   -8.8713 C   0  0  0  0  0  0  0  0  0  0  0  0
   16.8490   -4.9386  -10.1495 C   0  0  0  0  0  0  0  0  0  0  0  0
   18.3656   -4.9445  -10.1524 C   0  0  0  0  0  0  0  0  0  0  0  0
   18.8760   -5.5834  -11.4295 C   0  0  0  0  0  0  0  0  0  0  0  0
   20.3924   -5.5911  -11.4315 C   0  0  0  0  0  0  0  0  0  0  0  0
   20.9027   -6.2283  -12.7094 C   0  0  0  0  0  0  0  0  0  0  0  0
   22.4190   -6.2342  -12.7122 C   0  0  0  0  0  0  0  0  0  0  0  0
   22.9293   -6.8695  -13.9910 C   0  0  0  0  0  0  0  0  0  0  0  0
   24.4457   -6.8736  -13.9948 C   0  0  0  0  0  0  0  0  0  0  0  0
   24.9560   -7.5089  -15.2736 C   0  0  0  0  0  0  0  0  0  0  0  0
   26.4724   -7.5112  -15.2782 C   0  0  0  0  0  0  0  0  0  0  0  0
   26.9827   -8.1465  -16.5570 C   0  0  0  0  0  0  0  0  0  0  0  0
   28.4990   -8.1487  -16.5616 C   0  0  0  0  0  0  0  0  0  0  0  0
   29.0093   -8.7840  -17.8404 C   0  0  0  0  0  0  0  0  0  0  0  0
   30.5257   -8.7863  -17.8451 C   0  0  0  0  0  0  0  0  0  0  0  0
   31.0360   -9.4216  -19.1239 C   0  0  0  0  0  0  0  0  0  0  0  0
   32.5523   -9.4239  -19.1285 C   0  0  0  0  0  0  0  0  0  0  0  0
   33.0626  -10.0593  -20.4072 C   0  0  0  0  0  0  0  0  0  0  0  0
   34.5790  -10.0633  -20.4110 C   0  0  0  0  0  0  0  0  0  0  0  0
   35.0893  -10.6986  -21.6898 C   0  0  0  0  0  0  0  0  0  0  0  0
   36.6056  -10.7009  -21.6944 C   0  0  0  0  0  0  0  0  0  0  0  0
   37.1160  -11.3345  -22.9741 C   0  0  0  0  0  0  0  0  0  0  0  0
   38.6323  -11.3385  -22.9779 C   0  0  0  0  0  0  0  0  0  0  0  0
   39.1426  -11.9702  -24.2584 C   0  0  0  0  0  0  0  0  0  0  0  0
   40.6590  -11.9725  -24.2631 C   0  0  0  0  0  0  0  0  0  0  0  0
   41.1693  -12.6024  -25.5445 C   0  0  0  0  0  0  0  0  0  0  0  0
   42.6856  -12.6046  -25.5492 C   0  0  0  0  0  0  0  0  0  0  0  0
   43.1959  -13.2345  -26.8306 C   0  0  0  0  0  0  0  0  0  0  0  0
   44.7123  -13.2368  -26.8353 C   0  0  0  0  0  0  0  0  0  0  0  0
   45.2226  -13.8667  -28.1168 C   0  0  0  0  0  0  0  0  0  0  0  0
   46.7389  -13.8690  -28.1214 C   0  0  0  0  0  0  0  0  0  0  0  0
   47.2493  -14.4989  -29.4028 C   0  0  0  0  0  0  0  0  0  0  0  0
   48.7656  -14.5011  -29.4075 C   0  0  0  0  0  0  0  0  0  0  0  0
   49.2759  -15.1310  -30.6889 C   0  0  0  0  0  0  0  0  0  0  0  0
   50.7923  -15.1315  -30.6945 C   0  0  0  0  0  0  0  0  0  0  0  0
   51.3026  -15.7614  -31.9759 C   0  0  0  0  0  0  0  0  0  0  0  0
   52.8189  -15.7600  -31.9824 C   0  0  0  0  0  0  0  0  0  0  0  0
   53.3292  -16.3882  -33.2647 C   0  0  0  0  0  0  0  0  0  0  0  0
   54.8456  -16.3850  -33.2720 C   0  0  0  0  0  0  0  0  0  0  0  0
   55.3559  -17.0148  -34.5535 C   0  0  0  0  0  0  0  0  0  0  0  0
   56.8722  -17.0099  -34.5617 C   0  0  0  0  0  0  0  0  0  0  0  0
   57.3825  -17.6380  -35.8440 C   0  0  0  0  0  0  0  0  0  0  0  0
   58.8988  -17.6348  -35.8514 C   0  0  0  0  0  0  0  0  0  0  0  0
   59.4092  -18.2629  -37.1337 C   0  0  0  0  0  0  0  0  0  0  0  0
   60.9255  -18.2615  -37.1402 C   0  0  0  0  0  0  0  0  0  0  0  0
   61.4358  -18.8896  -38.4225 C   0  0  0  0  0  0  0  0  0  0  0  0
   62.9521  -18.8883  -38.4289 C   0  0  0  0  0  0  0  0  0  0  0  0
   63.4625  -19.5164  -39.7113 C   0  0  0  0  0  0  0  0  0  0  0  0
   64.9788  -19.5150  -39.7177 C   0  0  0  0  0  0  0  0  0  0  0  0
   65.4891  -20.1431  -41.0001 C   0  0  0  0  0  0  0  0  0  0  0  0
   67.0054  -20.1418  -41.0065 C   0  0  0  0  0  0  0  0  0  0  0  0
   67.5157  -20.7698  -42.2888 C   0  0  0  0  0  0  0  0  0  0  0  0
   69.0321  -20.7685  -42.2952 C   0  0  0  0  0  0  0  0  0  0  0  0
   69.5424  -21.3966  -43.5776 C   0  0  0  0  0  0  0  0  0  0  0  0
   71.0587  -21.3970  -43.5831 C   0  0  0  0  0  0  0  0  0  0  0  0
   71.5691  -22.0251  -44.8655 C   0  0  0  0  0  0  0  0  0  0  0  0
   73.0854  -22.0256  -44.8711 C   0  0  0  0  0  0  0  0  0  0  0  0
   73.5958  -22.6537  -46.1534 C   0  0  0  0  0  0  0  0  0  0  0  0
   75.1122  -22.6542  -46.1591 C   0  0  0  0  0  0  0  0  0  0  0  0
   75.6227  -23.2823  -47.4415 C   0  0  0  0  0  0  0  0  0  0  0  0
   77.1395  -23.2847  -47.4463 C   0  0  0  0  0  0  0  0  0  0  0  0
   77.6511  -23.9130  -48.7292 C   0  0  0  0  0  0  0  0  0  0  0  0
   79.1698  -23.9158  -48.7347 C   0  0  0  0  0  0  0  0  0  0  0  0
   79.6906  -24.5478  -50.0206 C   0  0  0  0  0  0  0  0  0  0  0  0
   81.2095  -24.5558  -50.0323 C   0  0  0  0  0  0  0  0  0  0  0  0
   81.7138  -25.1843  -51.3110 C   0  0  0  0  0  0  0  0  0  0  0  0
    0.7931    0.5854    0.6474 H   0  0  0  0  0  0  0  0  0  0  0  0
    2.6448   -0.5327    0.6866 H   0  0  0  0  0  0  0  0  0  0  0  0
    2.5393    0.0670   -2.1823 H   0  0  0  0  0  0  0  0  0  0  0  0
    2.5305   -1.5246   -1.4038 H   0  0  0  0  0  0  0  0  0  0  0  0
    4.8239   -1.0772   -0.4820 H   0  0  0  0  0  0  0  0  0  0  0  0
    4.8288    0.5028   -1.2736 H   0  0  0  0  0  0  0  0  0  0  0  0
    4.5974   -0.6042   -3.5008 H   0  0  0  0  0  0  0  0  0  0  0  0
    4.5935   -2.1953   -2.7140 H   0  0  0  0  0  0  0  0  0  0  0  0
    6.7729   -1.7051   -1.8313 H   0  0  0  0  0  0  0  0  0  0  0  0
    6.5725   -1.2315   -4.6320 H   0  0  0  0  0  0  0  0  0  0  0  0
    8.6562   -2.3056   -3.0429 H   0  0  0  0  0  0  0  0  0  0  0  0
    8.4512   -1.8403   -5.8421 H   0  0  0  0  0  0  0  0  0  0  0  0
   10.6194   -2.9302   -4.1567 H   0  0  0  0  0  0  0  0  0  0  0  0
   10.6214   -1.3373   -4.9442 H   0  0  0  0  0  0  0  0  0  0  0  0
   10.3866   -2.4600   -7.1746 H   0  0  0  0  0  0  0  0  0  0  0  0
   10.3836   -4.0379   -6.3799 H   0  0  0  0  0  0  0  0  0  0  0  0
   12.6535   -3.5682   -5.4362 H   0  0  0  0  0  0  0  0  0  0  0  0
   12.6561   -1.9887   -6.2259 H   0  0  0  0  0  0  0  0  0  0  0  0
   12.4174   -3.1033   -8.4550 H   0  0  0  0  0  0  0  0  0  0  0  0
   12.4171   -4.6828   -7.6647 H   0  0  0  0  0  0  0  0  0  0  0  0
   14.6863   -4.2100   -6.7196 H   0  0  0  0  0  0  0  0  0  0  0  0
   14.6864   -2.6306   -7.5099 H   0  0  0  0  0  0  0  0  0  0  0  0
   14.4472   -3.7443   -9.7378 H   0  0  0  0  0  0  0  0  0  0  0  0
   14.4451   -5.3243   -8.9484 H   0  0  0  0  0  0  0  0  0  0  0  0
   16.7133   -4.8554   -8.0019 H   0  0  0  0  0  0  0  0  0  0  0  0
   16.7158   -3.2744   -8.7893 H   0  0  0  0  0  0  0  0  0  0  0  0
   16.4757   -4.3837  -11.0193 H   0  0  0  0  0  0  0  0  0  0  0  0
   16.4711   -5.9651  -10.2326 H   0  0  0  0  0  0  0  0  0  0  0  0
   18.7392   -5.4983   -9.2821 H   0  0  0  0  0  0  0  0  0  0  0  0
   18.7439   -3.9179  -10.0708 H   0  0  0  0  0  0  0  0  0  0  0  0
   18.5036   -5.0289  -12.2999 H   0  0  0  0  0  0  0  0  0  0  0  0
   18.4968   -6.6097  -11.5119 H   0  0  0  0  0  0  0  0  0  0  0  0
   20.7648   -6.1469  -10.5619 H   0  0  0  0  0  0  0  0  0  0  0  0
   20.7717   -4.5650  -11.3478 H   0  0  0  0  0  0  0  0  0  0  0  0
   20.5292   -5.6733  -13.5790 H   0  0  0  0  0  0  0  0  0  0  0  0
   20.5244   -7.2549  -12.7925 H   0  0  0  0  0  0  0  0  0  0  0  0
   22.7926   -6.7902  -11.8433 H   0  0  0  0  0  0  0  0  0  0  0  0
   22.7972   -5.2077  -12.6278 H   0  0  0  0  0  0  0  0  0  0  0  0
   22.5547   -6.3142  -14.8599 H   0  0  0  0  0  0  0  0  0  0  0  0
   22.5522   -7.8964  -14.0748 H   0  0  0  0  0  0  0  0  0  0  0  0
   24.8205   -7.4288  -13.1258 H   0  0  0  0  0  0  0  0  0  0  0  0
   24.8227   -5.8466  -13.9110 H   0  0  0  0  0  0  0  0  0  0  0  0
   24.5802   -6.9544  -16.1425 H   0  0  0  0  0  0  0  0  0  0  0  0
   24.5801   -8.5363  -15.3567 H   0  0  0  0  0  0  0  0  0  0  0  0
   26.8482   -8.0656  -14.4092 H   0  0  0  0  0  0  0  0  0  0  0  0
   26.8482   -6.4837  -15.1951 H   0  0  0  0  0  0  0  0  0  0  0  0
   26.6068   -7.5920  -17.4260 H   0  0  0  0  0  0  0  0  0  0  0  0
   26.6068   -9.1739  -16.6401 H   0  0  0  0  0  0  0  0  0  0  0  0
   28.8749   -8.7031  -15.6926 H   0  0  0  0  0  0  0  0  0  0  0  0
   28.8749   -7.1213  -16.4785 H   0  0  0  0  0  0  0  0  0  0  0  0
   28.6334   -8.2296  -18.7094 H   0  0  0  0  0  0  0  0  0  0  0  0
   28.6335   -9.8115  -17.9235 H   0  0  0  0  0  0  0  0  0  0  0  0
   30.9015   -9.3407  -16.9761 H   0  0  0  0  0  0  0  0  0  0  0  0
   30.9015   -7.7589  -17.7620 H   0  0  0  0  0  0  0  0  0  0  0  0
   30.6601   -8.8672  -19.9928 H   0  0  0  0  0  0  0  0  0  0  0  0
   30.6601  -10.4490  -19.2069 H   0  0  0  0  0  0  0  0  0  0  0  0
   32.9281   -9.9783  -18.2595 H   0  0  0  0  0  0  0  0  0  0  0  0
   32.9282   -8.3965  -19.0454 H   0  0  0  0  0  0  0  0  0  0  0  0
   32.6879   -9.5040  -21.2762 H   0  0  0  0  0  0  0  0  0  0  0  0
   32.6857  -11.0862  -20.4911 H   0  0  0  0  0  0  0  0  0  0  0  0
   34.9538  -10.6186  -19.5421 H   0  0  0  0  0  0  0  0  0  0  0  0
   34.9559   -9.0363  -20.3272 H   0  0  0  0  0  0  0  0  0  0  0  0
   34.7135  -10.1441  -22.5588 H   0  0  0  0  0  0  0  0  0  0  0  0
   34.7134  -11.7260  -21.7729 H   0  0  0  0  0  0  0  0  0  0  0  0
   36.9814  -11.2565  -20.8261 H   0  0  0  0  0  0  0  0  0  0  0  0
   36.9816   -9.6737  -21.6099 H   0  0  0  0  0  0  0  0  0  0  0  0
   36.7412  -10.7779  -23.8422 H   0  0  0  0  0  0  0  0  0  0  0  0
   36.7390  -12.3613  -23.0594 H   0  0  0  0  0  0  0  0  0  0  0  0
   39.0071  -11.8962  -22.1105 H   0  0  0  0  0  0  0  0  0  0  0  0
   39.0093  -10.3118  -22.8912 H   0  0  0  0  0  0  0  0  0  0  0  0
   38.7668  -11.4133  -25.1258 H   0  0  0  0  0  0  0  0  0  0  0  0
   38.7667  -12.9974  -24.3445 H   0  0  0  0  0  0  0  0  0  0  0  0
   41.0348  -12.5305  -23.3964 H   0  0  0  0  0  0  0  0  0  0  0  0
   41.0349  -10.9454  -24.1757 H   0  0  0  0  0  0  0  0  0  0  0  0
   40.7934  -12.0443  -26.4111 H   0  0  0  0  0  0  0  0  0  0  0  0
   40.7934  -13.6294  -25.6320 H   0  0  0  0  0  0  0  0  0  0  0  0
   43.0615  -13.1627  -24.6826 H   0  0  0  0  0  0  0  0  0  0  0  0
   43.0615  -11.5776  -25.4617 H   0  0  0  0  0  0  0  0  0  0  0  0
   42.8201  -12.6764  -27.6973 H   0  0  0  0  0  0  0  0  0  0  0  0
   42.8201  -14.2616  -26.9181 H   0  0  0  0  0  0  0  0  0  0  0  0
   45.0881  -13.7949  -25.9687 H   0  0  0  0  0  0  0  0  0  0  0  0
   45.0881  -12.2097  -26.7478 H   0  0  0  0  0  0  0  0  0  0  0  0
   44.8467  -13.3086  -28.9834 H   0  0  0  0  0  0  0  0  0  0  0  0
   44.8467  -14.8937  -28.2042 H   0  0  0  0  0  0  0  0  0  0  0  0
   47.1148  -14.4271  -27.2548 H   0  0  0  0  0  0  0  0  0  0  0  0
   47.1148  -12.8419  -28.0339 H   0  0  0  0  0  0  0  0  0  0  0  0
   46.8734  -13.9407  -30.2695 H   0  0  0  0  0  0  0  0  0  0  0  0
   46.8734  -15.5259  -29.4903 H   0  0  0  0  0  0  0  0  0  0  0  0
   49.1415  -15.0592  -28.5409 H   0  0  0  0  0  0  0  0  0  0  0  0
   49.1414  -13.4740  -29.3200 H   0  0  0  0  0  0  0  0  0  0  0  0
   48.8989  -14.5738  -31.5556 H   0  0  0  0  0  0  0  0  0  0  0  0
   48.9012  -16.1586  -30.7757 H   0  0  0  0  0  0  0  0  0  0  0  0
   51.1694  -15.6887  -29.8278 H   0  0  0  0  0  0  0  0  0  0  0  0
   51.1669  -14.1039  -30.6077 H   0  0  0  0  0  0  0  0  0  0  0  0
   50.9244  -15.2049  -32.8426 H   0  0  0  0  0  0  0  0  0  0  0  0
   50.9290  -16.7894  -32.0621 H   0  0  0  0  0  0  0  0  0  0  0  0
   53.1971  -16.3176  -31.1164 H   0  0  0  0  0  0  0  0  0  0  0  0
   53.1924  -14.7321  -31.8950 H   0  0  0  0  0  0  0  0  0  0  0  0
   52.9500  -15.8314  -34.1307 H   0  0  0  0  0  0  0  0  0  0  0  0
   52.9568  -17.4165  -33.3514 H   0  0  0  0  0  0  0  0  0  0  0  0
   55.2251  -16.9405  -32.4053 H   0  0  0  0  0  0  0  0  0  0  0  0
   55.2178  -15.3564  -33.1866 H   0  0  0  0  0  0  0  0  0  0  0  0
   54.9753  -16.4601  -35.4203 H   0  0  0  0  0  0  0  0  0  0  0  0
   54.9847  -18.0438  -34.6382 H   0  0  0  0  0  0  0  0  0  0  0  0
   57.2527  -17.5657  -33.6956 H   0  0  0  0  0  0  0  0  0  0  0  0
   57.2435  -15.9810  -34.4757 H   0  0  0  0  0  0  0  0  0  0  0  0
   57.0031  -17.0812  -36.7100 H   0  0  0  0  0  0  0  0  0  0  0  0
   57.0102  -18.6664  -35.9308 H   0  0  0  0  0  0  0  0  0  0  0  0
   59.2782  -18.1915  -34.9854 H   0  0  0  0  0  0  0  0  0  0  0  0
   59.2712  -16.6064  -35.7646 H   0  0  0  0  0  0  0  0  0  0  0  0
   59.0309  -17.7053  -37.9996 H   0  0  0  0  0  0  0  0  0  0  0  0
   59.0357  -19.2908  -37.2212 H   0  0  0  0  0  0  0  0  0  0  0  0
   61.3037  -18.8191  -36.2742 H   0  0  0  0  0  0  0  0  0  0  0  0
   61.2990  -17.2336  -37.0526 H   0  0  0  0  0  0  0  0  0  0  0  0
   61.0576  -18.3320  -39.2884 H   0  0  0  0  0  0  0  0  0  0  0  0
   61.0623  -19.9175  -38.5100 H   0  0  0  0  0  0  0  0  0  0  0  0
   63.3304  -19.4459  -37.5630 H   0  0  0  0  0  0  0  0  0  0  0  0
   63.3257  -17.8604  -38.3414 H   0  0  0  0  0  0  0  0  0  0  0  0
   63.0842  -18.9588  -40.5772 H   0  0  0  0  0  0  0  0  0  0  0  0
   63.0889  -20.5443  -39.7988 H   0  0  0  0  0  0  0  0  0  0  0  0
   65.3570  -20.0726  -38.8518 H   0  0  0  0  0  0  0  0  0  0  0  0
   65.3523  -18.4871  -39.6302 H   0  0  0  0  0  0  0  0  0  0  0  0
   65.1109  -19.5855  -41.8660 H   0  0  0  0  0  0  0  0  0  0  0  0
   65.1156  -21.1710  -41.0875 H   0  0  0  0  0  0  0  0  0  0  0  0
   67.3837  -20.6994  -40.1406 H   0  0  0  0  0  0  0  0  0  0  0  0
   67.3790  -19.1138  -40.9190 H   0  0  0  0  0  0  0  0  0  0  0  0
   67.1375  -20.2122  -43.1548 H   0  0  0  0  0  0  0  0  0  0  0  0
   67.1422  -21.7977  -42.3763 H   0  0  0  0  0  0  0  0  0  0  0  0
   69.4102  -21.3261  -41.4293 H   0  0  0  0  0  0  0  0  0  0  0  0
   69.4057  -19.7406  -42.2078 H   0  0  0  0  0  0  0  0  0  0  0  0
   69.1653  -20.8381  -44.4435 H   0  0  0  0  0  0  0  0  0  0  0  0
   69.1678  -22.4240  -43.6658 H   0  0  0  0  0  0  0  0  0  0  0  0
   71.4358  -21.9555  -42.7173 H   0  0  0  0  0  0  0  0  0  0  0  0
   71.4334  -20.3696  -43.4949 H   0  0  0  0  0  0  0  0  0  0  0  0
   71.1920  -21.4667  -45.7314 H   0  0  0  0  0  0  0  0  0  0  0  0
   71.1944  -23.0526  -44.9537 H   0  0  0  0  0  0  0  0  0  0  0  0
   73.4624  -22.5841  -44.0052 H   0  0  0  0  0  0  0  0  0  0  0  0
   73.4601  -20.9982  -44.7828 H   0  0  0  0  0  0  0  0  0  0  0  0
   73.2187  -22.0952  -47.0193 H   0  0  0  0  0  0  0  0  0  0  0  0
   73.2210  -23.6811  -46.2416 H   0  0  0  0  0  0  0  0  0  0  0  0
   75.4891  -23.2127  -45.2931 H   0  0  0  0  0  0  0  0  0  0  0  0
   75.4869  -21.6268  -46.0708 H   0  0  0  0  0  0  0  0  0  0  0  0
   75.2466  -22.7230  -48.3072 H   0  0  0  0  0  0  0  0  0  0  0  0
   75.2467  -24.3092  -47.5303 H   0  0  0  0  0  0  0  0  0  0  0  0
   77.5149  -23.8439  -46.5804 H   0  0  0  0  0  0  0  0  0  0  0  0
   77.5149  -22.2577  -47.3572 H   0  0  0  0  0  0  0  0  0  0  0  0
   77.2747  -23.3536  -49.5945 H   0  0  0  0  0  0  0  0  0  0  0  0
   77.2746  -24.9396  -48.8175 H   0  0  0  0  0  0  0  0  0  0  0  0
   79.5436  -24.4735  -47.8672 H   0  0  0  0  0  0  0  0  0  0  0  0
   79.5437  -22.8883  -48.6463 H   0  0  0  0  0  0  0  0  0  0  0  0
   79.3051  -23.9868  -50.8822 H   0  0  0  0  0  0  0  0  0  0  0  0
   79.3029  -25.5717  -50.1042 H   0  0  0  0  0  0  0  0  0  0  0  0
   81.5824  -25.1148  -49.1673 H   0  0  0  0  0  0  0  0  0  0  0  0
   81.5847  -23.5304  -49.9451 H   0  0  0  0  0  0  0  0  0  0  0  0
   81.3631  -26.2160  -51.4015 H   0  0  0  0  0  0  0  0  0  0  0  0
   82.8040  -25.1915  -51.3223 H   0  0  0  0  0  0  0  0  0  0  0  0
   81.3655  -24.6241  -52.1830 H   0  0  0  0  0  0  0  0  0  0  0  0
  1  2  1  0  0  0  0
  1 82  1  0  0  0  0
  2  3  1  0  0  0  0
  2 83  1  0  0  0  0
  3  4  1  0  0  0  0
  3 84  1  0  0  0  0
  3 85  1  0  0  0  0
  4  5  1  0  0  0  0
  4 86  1  0  0  0  0
  4 87  1  0  0  0  0
  5  6  1  0  0  0  0
  5 88  1  0  0  0  0
  5 89  1  0  0  0  0
  6  7  1  0  0  0  0
  6 90  1  0  0  0  0
  7  8  1  0  0  0  0
  7 91  1  0  0  0  0
  8  9  1  0  0  0  0
  8 92  1  0  0  0  0
  9 10  1  0  0  0  0
  9 93  1  0  0  0  0
 10 11  1  0  0  0  0
 10 94  1  0  0  0  0
 10 95  1  0  0  0  0
 11 12  1  0  0  0  0
 11 96  1  0  0  0  0
 11 97  1  0  0  0  0
 12 13  1  0  0  0  0
 12 98  1  0  0  0  0
 12 99  1  0  0  0  0
 13 14  1  0  0  0  0
 13100  1  0  0  0  0
 13101  1  0  0  0  0
 14 15  1  0  0  0  0
 14102  1  0  0  0  0
 14103  1  0  0  0  0
 15 16  1  0  0  0  0
 15104  1  0  0  0  0
 15105  1  0  0  0  0
 16 17  1  0  0  0  0
 16106  1  0  0  0  0
 16107  1  0  0  0  0
 17 18  1  0  0  0  0
 17108  1  0  0  0  0
 17109  1  0  0  0  0
 18 19  1  0  0  0  0
 18110  1  0  0  0  0
 18111  1  0  0  0  0
 19 20  1  0  0  0  0
 19112  1  0  0  0  0
 19113  1  0  0  0  0
 20 21  1  0  0  0  0
 20114  1  0  0  0  0
 20115  1  0  0  0  0
 21 22  1  0  0  0  0
 21116  1  0  0  0  0
 21117  1  0  0  0  0
 22 23  1  0  0  0  0
 22118  1  0  0  0  0
 22119  1  0  0  0  0
 23 24  1  0  0  0  0
 23120  1  0  0  0  0
 23121  1  0  0  0  0
 24 25  1  0  0  0  0
 24122  1  0  0  0  0
 24123  1  0  0  0  0
 25 26  1  0  0  0  0
 25124  1  0  0  0  0
 25125  1  0  0  0  0
 26 27  1  0  0  0  0
 26126  1  0  0  0  0
 26127  1  0  0  0  0
 27 28  1  0  0  0  0
 27128  1  0  0  0  0
 27129  1  0  0  0  0
 28 29  1  0  0  0  0
 28130  1  0  0  0  0
 28131  1  0  0  0  0
 29 30  1  0  0  0  0
 29132  1  0  0  0  0
 29133  1  0  0  0  0
 30 31  1  0  0  0  0
 30134  1  0  0  0  0
 30135  1  0  0  0  0
 31 32  1  0  0  0  0
 31136  1  0  0  0  0
 31137  1  0  0  0  0
 32 33  1  0  0  0  0
 32138  1  0  0  0  0
 32139  1  0  0  0  0
 33 34  1  0  0  0  0
 33140  1  0  0  0  0
 33141  1  0  0  0  0
 34 35  1  0  0  0  0
 34142  1  0  0  0  0
 34143  1  0  0  0  0
 35 36  1  0  0  0  0
 35144  1  0  0  0  0
 35145  1  0  0  0  0
 36 37  1  0  0  0  0
 36146  1  0  0  0  0
 36147  1  0  0  0  0
 37 38  1  0  0  0  0
 37148  1  0  0  0  0
 37149  1  0  0  0  0
 38 39  1  0  0  0  0
 38150  1  0  0  0  0
 38151  1  0  0  0  0
 39 40  1  0  0  0  0
 39152  1  0  0  0  0
 39153  1  0  0  0  0
 40 41  1  0  0  0  0
 40154  1  0  0  0  0
 40155  1  0  0  0  0
 41 42  1  0  0  0  0
 41156  1  0  0  0  0
 41157  1  0  0  0  0
 42 43  1  0  0  0  0
 42158  1  0  0  0  0
 42159  1  0  0  0  0
 43 44  1  0  0  0  0
 43160  1  0  0  0  0
 43161  1  0  0  0  0
 44 45  1  0  0  0  0
 44162  1  0  0  0  0
 44163  1  0  0  0  0
 45 46  1  0  0  0  0
 45164  1  0  0  0  0
 45165  1  0  0  0  0
 46 47  1  0  0  0  0
 46166  1  0  0  0  0
 46167  1  0  0  0  0
 47 48  1  0  0  0  0
 47168  1  0  0  0  0
 47169  1  0  0  0  0
 48 49  1  0  0  0  0
 48170  1  0  0  0  0
 48171  1  0  0  0  0
 49 50  1  0  0  0  0
 49172  1  0  0  0  0
 49173  1  0  0  0  0
 50 51  1  0  0  0  0
 50174  1  0  0  0  0
 50175  1  0  0  0  0
 51 52  1  0  0  0  0
 51176  1  0  0  0  0
 51177  1  0  0  0  0
 52 53  1  0  0  0  0
 52178  1  0  0  0  0
 52179  1  0  0  0  0
 53 54  1  0  0  0  0
 53180  1  0  0  0  0
 53181  1  0  0  0  0
 54 55  1  0  0  0  0
 54182  1  0  0  0  0
 54183  1  0  0  0  0
 55 56  1  0  0  0  0
 55184  1  0  0  0  0
 55185  1  0  0  0  0
 56 57  1  0  0  0  0
 56186  1  0  0  0  0
 56187  1  0  0  0  0
 57 58  1  0  0  0  0
 57188  1  0  0  0  0
 57189  1  0  0  0  0
 58 59  1  0  0  0  0
 58190  1  0  0  0  0
 58191  1  0  0  0  0
 59 60  1  0  0  0  0
 59192  1  0  0  0  0
 59193  1  0  0  0  0
 60 61  1  0  0  0  0
 60194  1  0  0  0  0
 60195  1  0  0  0  0
 61 62  1  0  0  0  0
 61196  1  0  0  0  0
 61197  1  0  0  0  0
 62 63  1  0  0  0  0
 62198  1  0  0  0  0
 62199  1  0  0  0  0
 63 64  1  0  0  0  0
 63200  1  0  0  0  0
 63201  1  0  0  0  0
 64 65  1  0  0  0  0
 64202  1  0  0  0  0
 64203  1  0  0  0  0
 65 66  1  0  0  0  0
 65204  1  0  0  0  0
 65205  1  0  0  0  0
 66 67  1  0  0  0  0
 66206  1  0  0  0  0
 66207  1  0  0  0  0
 67 68  1  0  0  0  0
 67208  1  0  0  0  0
 67209  1  0  0  0  0
 68 69  1  0  0  0  0
 68210  1  0  0  0  0
 68211  1  0  0  0  0
 69 70  1  0  0  0  0
 69212  1  0  0  0  0
 69213  1  0  0  0  0
 70 71  1  0  0  0  0
 70214  1  0  0  0  0
 70215  1  0  0  0  0
 71 72  1  0  0  0  0
 71216  1  0  0  0  0
 71217  1  0  0  0  0
 72 73  1  0  0  0  0
 72218  1  0  0  0  0
 72219  1  0  0  0  0
 73 74  1  0  0  0  0
 73220  1  0  0  0  0
 73221  1  0  0  0  0
 74 75  1  0  0  0  0
 74222  1  0  0  0  0
 74223  1  0  0  0  0
 75 76  1  0  0  0  0
 75224  1  0  0  0  0
 75225  1  0  0  0  0
 76 77  1  0  0  0  0
 76226  1  0  0  0  0
 76227  1  0  0  0  0
 77 78  1  0  0  0  0
 77228  1  0  0  0  0
 77229  1  0  0  0  0
 78 79  1  0  0  0  0
 78230  1  0  0  0  0
 78231  1  0  0  0  0
 79 80  1  0  0  0  0
 79232  1  0  0  0  0
 79233  1  0  0  0  0
 80 81  1  0  0  0  0
 80234  1  0  0  0  0
 80235  1  0  0  0  0
 81236  1  0  0  0  0
 81237  1  0  0  0  0
 81238  1  0  0  0  0
M  END
$$$$
