
 OpenBabel04232216443D

 49 50  0  0  1  0  0  0  0  0999 V2000
    2.6694    0.0008    0.3684 C   0  0  0  0  0  0  0  0  0  0  0  0
    3.6497   -1.1046   -0.0836 C   0  0  3  0  0  0  0  0  0  0  0  0
    2.7565   -2.3354   -0.4953 C   0  0  0  0  0  0  0  0  0  0  0  0
    1.5708   -2.7795    0.3511 C   0  0  0  0  0  0  0  0  0  0  0  0
    1.9485   -3.3423    1.7042 C   0  0  0  0  0  0  0  0  0  0  0  0
    2.9907   -3.0153   -1.5899 N   0  0  0  0  0  0  0  0  0  0  0  0
    3.7990   -4.2496   -1.3013 C   0  0  0  0  0  0  0  0  0  0  0  0
    4.9495   -3.6809   -0.5466 C   0  0  0  0  0  0  0  0  0  0  0  0
    6.1986   -4.1356    0.0842 C   0  0  0  0  0  0  0  0  0  0  0  0
    6.8059   -2.7855    0.5747 C   0  0  3  0  0  0  0  0  0  0  0  0
    7.9613   -3.1030    1.5552 C   0  0  0  0  0  0  0  0  0  0  0  0
    8.1625   -4.2505    1.9617 O   0  0  0  0  0  0  0  0  0  0  0  0
    8.8477   -1.9794    1.8797 C   0  0  0  0  0  0  0  0  0  0  0  0
    8.9076   -0.6235    1.4853 C   0  0  0  0  0  0  0  0  0  0  0  0
   10.1251   -0.5384    2.0621 C   0  0  0  0  0  0  0  0  0  0  0  0
   11.2477    0.4547    2.1357 C   0  0  0  0  0  0  0  0  0  0  0  0
   11.1343    1.7027    1.2899 C   0  0  0  0  0  0  0  0  0  0  0  0
   10.1283    2.0000    0.6372 O   0  0  0  0  0  0  0  0  0  0  0  0
   12.3686    2.5783    1.3175 C   0  0  0  0  0  0  0  0  0  0  0  0
   12.2527    3.8167    0.4545 C   0  0  0  0  0  0  0  0  0  0  0  0
    9.9732   -1.8684    2.5919 C   0  0  0  0  0  0  0  0  0  0  0  0
    5.8651   -1.8390    1.2453 N   0  0  0  0  0  0  0  0  0  0  0  0
    4.7479   -1.2196    1.0386 C   0  0  0  0  0  0  0  0  0  0  0  0
    1.8393    0.1199   -0.3372 H   0  0  0  0  0  0  0  0  0  0  0  0
    3.1674    0.9692    0.4761 H   0  0  0  0  0  0  0  0  0  0  0  0
    2.2332   -0.2410    1.3476 H   0  0  0  0  0  0  0  0  0  0  0  0
    4.1545   -0.7432   -0.9882 H   0  0  0  0  0  0  0  0  0  0  0  0
    1.0203   -3.5483   -0.2077 H   0  0  0  0  0  0  0  0  0  0  0  0
    0.8814   -1.9384    0.4605 H   0  0  0  0  0  0  0  0  0  0  0  0
    2.2821   -4.3812    1.6090 H   0  0  0  0  0  0  0  0  0  0  0  0
    1.0755   -3.3357    2.3640 H   0  0  0  0  0  0  0  0  0  0  0  0
    2.7476   -2.7760    2.1866 H   0  0  0  0  0  0  0  0  0  0  0  0
    4.1154   -4.7148   -2.2375 H   0  0  0  0  0  0  0  0  0  0  0  0
    3.2157   -4.9705   -0.7182 H   0  0  0  0  0  0  0  0  0  0  0  0
    4.4378   -3.4300    0.3833 H   0  0  0  0  0  0  0  0  0  0  0  0
    5.2543   -2.8123   -1.1494 H   0  0  0  0  0  0  0  0  0  0  0  0
    6.8727   -4.6415   -0.6181 H   0  0  0  0  0  0  0  0  0  0  0  0
    5.9954   -4.8247    0.9146 H   0  0  0  0  0  0  0  0  0  0  0  0
    7.2567   -2.2789   -0.2911 H   0  0  0  0  0  0  0  0  0  0  0  0
    8.2907    0.0272    0.8744 H   0  0  0  0  0  0  0  0  0  0  0  0
   12.1717   -0.0791    1.8772 H   0  0  0  0  0  0  0  0  0  0  0  0
   11.4075    0.7303    3.1846 H   0  0  0  0  0  0  0  0  0  0  0  0
   13.2189    1.9747    0.9806 H   0  0  0  0  0  0  0  0  0  0  0  0
   12.5428    2.8734    2.3555 H   0  0  0  0  0  0  0  0  0  0  0  0
   12.1121    3.5494   -0.5971 H   0  0  0  0  0  0  0  0  0  0  0  0
   13.1637    4.4159    0.5385 H   0  0  0  0  0  0  0  0  0  0  0  0
   11.4045    4.4357    0.7630 H   0  0  0  0  0  0  0  0  0  0  0  0
   10.5829   -2.5373    3.1900 H   0  0  0  0  0  0  0  0  0  0  0  0
    4.5281   -0.5453    1.8897 H   0  0  0  0  0  0  0  0  0  0  0  0
  1  2  1  0  0  0  0
  1 24  1  0  0  0  0
  1 25  1  0  0  0  0
  1 26  1  0  0  0  0
  2  3  1  0  0  0  0
  2 23  1  0  0  0  0
  2 27  1  0  0  0  0
  3  4  1  0  0  0  0
  3  6  2  3  0  0  0
  4  5  1  0  0  0  0
  4 28  1  0  0  0  0
  4 29  1  0  0  0  0
  5 30  1  0  0  0  0
  5 31  1  0  0  0  0
  5 32  1  0  0  0  0
  6  7  1  0  0  0  0
  7  8  1  0  0  0  0
  7 33  1  0  0  0  0
  7 34  1  0  0  0  0
  8  9  1  0  0  0  0
  8 35  1  0  0  0  0
  8 36  1  0  0  0  0
  9 10  1  0  0  0  0
  9 37  1  0  0  0  0
  9 38  1  0  0  0  0
 10 11  1  0  0  0  0
 10 22  1  0  0  0  0
 10 39  1  0  0  0  0
 11 12  2  0  0  0  0
 11 13  1  0  0  0  0
 13 14  1  0  0  0  0
 13 21  2  0  0  0  0
 14 15  2  0  0  0  0
 14 40  1  0  0  0  0
 15 16  1  0  0  0  0
 15 21  1  0  0  0  0
 16 17  1  0  0  0  0
 16 41  1  0  0  0  0
 16 42  1  0  0  0  0
 17 18  2  0  0  0  0
 17 19  1  0  0  0  0
 19 20  1  0  0  0  0
 19 43  1  0  0  0  0
 19 44  1  0  0  0  0
 20 45  1  0  0  0  0
 20 46  1  0  0  0  0
 20 47  1  0  0  0  0
 21 48  1  0  0  0  0
 22 23  2  3  0  0  0
 23 49  1  0  0  0  0
M  END
$$$$
