
 OpenBabel04232216423D

 33 36  0  0  1  0  0  0  0  0999 V2000
    0.4242   -2.7783   -0.7442 C   0  0  0  0  0  0  0  0  0  0  0  0
   -0.0636   -4.0151   -0.5611 C   0  0  0  0  0  0  0  0  0  0  0  0
    0.5527   -5.3035   -0.8957 C   0  0  0  0  0  0  0  0  0  0  0  0
    1.8471   -5.7153   -0.8904 C   0  0  0  0  0  0  0  0  0  0  0  0
    2.2447   -7.1509   -1.4830 C   0  0  0  0  0  0  0  0  0  0  0  0
    2.6883   -8.5976   -0.9088 C   0  0  3  0  0  0  0  0  0  0  0  0
    3.8558   -9.2947   -1.6933 C   0  0  0  0  0  0  0  0  0  0  0  0
    4.6045   -9.5419   -0.5834 C   0  0  0  0  0  0  0  0  0  0  0  0
    3.4673   -9.1751    0.2736 C   0  0  0  0  0  0  0  0  0  0  0  0
    3.2683   -9.6761    1.4270 N   0  0  0  0  0  0  0  0  0  0  0  0
    2.0620   -9.6217    2.0469 C   0  0  0  0  0  0  0  0  0  0  0  0
    0.8487   -9.3943    1.6455 C   0  0  0  0  0  0  0  0  0  0  0  0
    1.4241   -8.4739    2.6042 C   0  0  0  0  0  0  0  0  0  0  0  0
    2.0891   -7.3349    2.3688 C   0  0  0  0  0  0  0  0  0  0  0  0
    2.8036   -4.5423   -0.6078 C   0  0  0  0  0  0  0  0  0  0  0  0
    3.4087   -4.3083    0.5297 N   0  0  0  0  0  0  0  0  0  0  0  0
    2.6362   -4.8274    1.5278 N   0  0  0  0  0  0  0  0  0  0  0  0
    3.2481   -5.0748    2.5718 N   0  0  0  0  0  0  0  0  0  0  0  0
    2.2598   -6.0599    3.5229 S   0  0  0  0  0  0  0  0  0  0  0  0
    2.7608   -3.2726   -1.4541 C   0  0  0  0  0  0  0  0  0  0  0  0
    1.7020   -2.4486   -1.3284 C   0  0  0  0  0  0  0  0  0  0  0  0
   -0.1995   -1.9290   -0.4524 H   0  0  0  0  0  0  0  0  0  0  0  0
   -1.0732   -4.0799   -0.1774 H   0  0  0  0  0  0  0  0  0  0  0  0
   -0.2179   -6.0179   -1.1786 H   0  0  0  0  0  0  0  0  0  0  0  0
    2.7174   -7.0019   -2.4606 H   0  0  0  0  0  0  0  0  0  0  0  0
    1.2265   -7.4587   -1.7828 H   0  0  0  0  0  0  0  0  0  0  0  0
    1.7776   -9.2080   -1.0369 H   0  0  0  0  0  0  0  0  0  0  0  0
    4.0110   -9.6979   -2.6998 H   0  0  0  0  0  0  0  0  0  0  0  0
    5.5061  -10.1356   -0.4131 H   0  0  0  0  0  0  0  0  0  0  0  0
    0.5499   -9.3578    0.6184 H   0  0  0  0  0  0  0  0  0  0  0  0
    2.6973   -7.2195    1.4769 H   0  0  0  0  0  0  0  0  0  0  0  0
    3.7003   -2.8530   -1.7590 H   0  0  0  0  0  0  0  0  0  0  0  0
    1.8125   -1.3952   -1.6100 H   0  0  0  0  0  0  0  0  0  0  0  0
  1  2  2  0  0  0  0
  1 21  1  0  0  0  0
  1 22  1  0  0  0  0
  2  3  1  0  0  0  0
  2 23  1  0  0  0  0
  3  4  2  0  0  0  0
  3 24  1  0  0  0  0
  4  5  1  0  0  0  0
  4 15  1  0  0  0  0
  5  6  1  0  0  0  0
  5 25  1  0  0  0  0
  5 26  1  0  0  0  0
  6  7  1  0  0  0  0
  6  9  1  0  0  0  0
  6 27  1  0  0  0  0
  7  8  2  0  0  0  0
  7 28  1  0  0  0  0
  8  9  1  0  0  0  0
  8 29  1  0  0  0  0
  9 10  2  3  0  0  0
 10 11  1  0  0  0  0
 11 12  2  0  0  0  0
 11 13  1  0  0  0  0
 12 13  1  0  0  0  0
 12 30  1  0  0  0  0
 13 14  2  3  0  0  0
 14 19  1  0  0  0  0
 14 31  1  0  0  0  0
 15 16  2  3  0  0  0
 15 20  1  0  0  0  0
 16 17  1  0  0  0  0
 17 18  2  3  0  0  0
 18 19  1  0  0  0  0
 20 21  2  0  0  0  0
 20 32  1  0  0  0  0
 21 33  1  0  0  0  0
M  END
$$$$
