
 OpenBabel04232216493D

 64 65  0  0  1  0  0  0  0  0999 V2000
    7.3052   -2.2260   -2.9341 C   0  0  0  0  0  0  0  0  0  0  0  0
    7.8586   -3.4676   -2.0160 C   0  0  3  0  0  0  0  0  0  0  0  0
    6.2478   -3.8440   -1.4388 C   0  0  0  0  0  0  0  0  0  0  0  0
    5.6053   -2.7813   -0.3289 C   0  0  0  0  0  0  0  0  0  0  0  0
    5.4846   -3.2693    1.1269 C   0  0  0  0  0  0  0  0  0  0  0  0
    6.8600   -3.6474    1.6070 C   0  0  0  0  0  0  0  0  0  0  0  0
    7.0608   -5.0270    1.1208 C   0  0  0  0  0  0  0  0  0  0  0  0
    8.2284   -5.3837    0.6454 C   0  0  0  0  0  0  0  0  0  0  0  0
    8.3601   -6.7115   -0.0029 C   0  0  0  0  0  0  0  0  0  0  0  0
    9.6468   -7.1999    0.5528 C   0  0  0  0  0  0  0  0  0  0  0  0
    9.9731   -8.5783    0.0152 C   0  0  0  0  0  0  0  0  0  0  0  0
   11.3607   -8.5542   -0.5193 C   0  0  0  0  0  0  0  0  0  0  0  0
   12.3648   -8.7334    0.1500 O   0  0  0  0  0  0  0  0  0  0  0  0
   11.3289   -7.9726   -1.7679 N   0  0  0  0  0  0  0  0  0  0  0  0
   11.5906   -6.4698   -1.6053 C   0  0  0  0  0  0  0  0  0  0  0  0
   11.0505   -5.2990   -2.5383 C   0  0  3  0  0  0  0  0  0  0  0  0
   12.4585   -5.4570   -3.7077 C   0  0  0  0  0  0  0  0  0  0  0  0
   13.7853   -6.6570   -3.4359 C   0  0  0  0  0  0  0  0  0  0  0  0
   14.7924   -7.3359   -4.4540 C   0  0  0  0  0  0  0  0  0  0  0  0
   14.3909   -8.6060   -5.2611 C   0  0  0  0  0  0  0  0  0  0  0  0
   13.1170   -8.4107   -6.0634 C   0  0  0  0  0  0  0  0  0  0  0  0
   11.8776   -9.1095   -5.4606 C   0  0  0  0  0  0  0  0  0  0  0  0
   11.3082   -8.3814   -4.2086 C   0  0  0  0  0  0  0  0  0  0  0  0
   11.4249   -8.9315   -2.8360 C   0  0  0  0  0  0  0  0  0  0  0  0
   11.4782  -10.1159   -2.7250 O   0  0  0  0  0  0  0  0  0  0  0  0
    9.4499   -4.2711   -2.6065 C   0  0  0  0  0  3  0  0  0  0  0  0
    6.8991   -2.5324   -3.9090 H   0  0  0  0  0  0  0  0  0  0  0  0
    7.9740   -1.3720   -3.0132 H   0  0  0  0  0  0  0  0  0  0  0  0
    6.4047   -1.7553   -2.4679 H   0  0  0  0  0  0  0  0  0  0  0  0
    8.2325   -2.9443   -1.1252 H   0  0  0  0  0  0  0  0  0  0  0  0
    5.5396   -3.6938   -2.2797 H   0  0  0  0  0  0  0  0  0  0  0  0
    6.0594   -4.8816   -1.1702 H   0  0  0  0  0  0  0  0  0  0  0  0
    4.5881   -2.4669   -0.6174 H   0  0  0  0  0  0  0  0  0  0  0  0
    6.1910   -1.8517   -0.3029 H   0  0  0  0  0  0  0  0  0  0  0  0
    4.7684   -4.1042    1.1859 H   0  0  0  0  0  0  0  0  0  0  0  0
    5.0826   -2.5024    1.8043 H   0  0  0  0  0  0  0  0  0  0  0  0
    6.9935   -3.6114    2.6844 H   0  0  0  0  0  0  0  0  0  0  0  0
    7.5982   -2.9627    1.1577 H   0  0  0  0  0  0  0  0  0  0  0  0
    6.2014   -5.6802    0.9323 H   0  0  0  0  0  0  0  0  0  0  0  0
    9.0899   -4.7207    0.7482 H   0  0  0  0  0  0  0  0  0  0  0  0
    8.3996   -6.5639   -1.0979 H   0  0  0  0  0  0  0  0  0  0  0  0
    7.5459   -7.3949    0.2274 H   0  0  0  0  0  0  0  0  0  0  0  0
    9.7739   -7.1370    1.6283 H   0  0  0  0  0  0  0  0  0  0  0  0
   10.3152   -6.4260    0.2440 H   0  0  0  0  0  0  0  0  0  0  0  0
    9.3037   -8.8517   -0.7958 H   0  0  0  0  0  0  0  0  0  0  0  0
    9.8528   -9.3273    0.8039 H   0  0  0  0  0  0  0  0  0  0  0  0
   12.6820   -6.4186   -1.6153 H   0  0  0  0  0  0  0  0  0  0  0  0
   11.6569   -6.1173   -0.5841 H   0  0  0  0  0  0  0  0  0  0  0  0
   11.5382   -4.4736   -1.9770 H   0  0  0  0  0  0  0  0  0  0  0  0
   12.0861   -5.5432   -4.7274 H   0  0  0  0  0  0  0  0  0  0  0  0
   12.9972   -4.5122   -3.5955 H   0  0  0  0  0  0  0  0  0  0  0  0
   13.4428   -7.5436   -2.8941 H   0  0  0  0  0  0  0  0  0  0  0  0
   14.4536   -6.1532   -2.7196 H   0  0  0  0  0  0  0  0  0  0  0  0
   15.6307   -7.7291   -3.8406 H   0  0  0  0  0  0  0  0  0  0  0  0
   15.2600   -6.6022   -5.1137 H   0  0  0  0  0  0  0  0  0  0  0  0
   14.3240   -9.4971   -4.6238 H   0  0  0  0  0  0  0  0  0  0  0  0
   15.2094   -8.8329   -5.9548 H   0  0  0  0  0  0  0  0  0  0  0  0
   13.2780   -8.7959   -7.0787 H   0  0  0  0  0  0  0  0  0  0  0  0
   12.9275   -7.3407   -6.1839 H   0  0  0  0  0  0  0  0  0  0  0  0
   12.1076  -10.1820   -5.2526 H   0  0  0  0  0  0  0  0  0  0  0  0
   11.1296   -9.0966   -6.2296 H   0  0  0  0  0  0  0  0  0  0  0  0
   10.2331   -8.2164   -4.4152 H   0  0  0  0  0  0  0  0  0  0  0  0
   11.7479   -7.3750   -4.2829 H   0  0  0  0  0  0  0  0  0  0  0  0
    9.9481   -3.4876   -1.9833 H   0  0  0  0  0  0  0  0  0  0  0  0
  1  2  1  0  0  0  0
  1 27  1  0  0  0  0
  1 28  1  0  0  0  0
  1 29  1  0  0  0  0
  2  3  1  0  0  0  0
  2 26  1  0  0  0  0
  2 30  1  0  0  0  0
  3  4  1  0  0  0  0
  3 31  1  0  0  0  0
  3 32  1  0  0  0  0
  4  5  1  0  0  0  0
  4 33  1  0  0  0  0
  4 34  1  0  0  0  0
  5  6  1  0  0  0  0
  5 35  1  0  0  0  0
  5 36  1  0  0  0  0
  6  7  1  0  0  0  0
  6 37  1  0  0  0  0
  6 38  1  0  0  0  0
  7  8  2  3  0  0  0
  7 39  1  0  0  0  0
  8  9  1  0  0  0  0
  8 40  1  0  0  0  0
  9 10  1  0  0  0  0
  9 41  1  0  0  0  0
  9 42  1  0  0  0  0
 10 11  1  0  0  0  0
 10 43  1  0  0  0  0
 10 44  1  0  0  0  0
 11 12  1  0  0  0  0
 11 45  1  0  0  0  0
 11 46  1  0  0  0  0
 12 13  2  0  0  0  0
 12 14  1  0  0  0  0
 14 15  1  0  0  0  0
 14 24  1  0  0  0  0
 15 16  1  0  0  0  0
 15 47  1  0  0  0  0
 15 48  1  0  0  0  0
 16 17  1  0  0  0  0
 16 26  1  0  0  0  0
 16 49  1  0  0  0  0
 17 18  1  0  0  0  0
 17 50  1  0  0  0  0
 17 51  1  0  0  0  0
 18 19  1  0  0  0  0
 18 52  1  0  0  0  0
 18 53  1  0  0  0  0
 19 20  1  0  0  0  0
 19 54  1  0  0  0  0
 19 55  1  0  0  0  0
 20 21  1  0  0  0  0
 20 56  1  0  0  0  0
 20 57  1  0  0  0  0
 21 22  1  0  0  0  0
 21 58  1  0  0  0  0
 21 59  1  0  0  0  0
 22 23  1  0  0  0  0
 22 60  1  0  0  0  0
 22 61  1  0  0  0  0
 23 24  1  0  0  0  0
 23 62  1  0  0  0  0
 23 63  1  0  0  0  0
 24 25  2  0  0  0  0
 26 64  1  0  0  0  0
M  END
$$$$
