
 OpenBabel04232216393D

 61 61  0  0  0  0  0  0  0  0999 V2000
    3.8526    0.1799   -0.8462 C   0  0  0  0  0  0  0  0  0  0  0  0
    4.2754    0.8743    0.2383 C   0  0  0  0  0  0  0  0  0  0  0  0
    5.4033    1.8885    0.5880 C   0  0  0  0  0  0  0  0  0  0  0  0
    6.3629    2.5274   -0.4569 C   0  0  0  0  0  0  0  0  0  0  0  0
    6.1345    2.1965   -1.7594 C   0  0  0  0  0  0  0  0  0  0  0  0
    4.9588    2.6756   -2.6184 C   0  0  0  0  0  0  0  0  0  0  0  0
    3.5658    3.1352   -2.1257 C   0  0  0  0  0  0  0  0  0  0  0  0
    3.4848    4.2870   -1.1285 C   0  0  0  0  0  0  0  0  0  0  0  0
    4.1772    5.5617   -1.5973 C   0  0  0  0  0  0  0  0  0  0  0  0
    4.1043    6.6369   -0.5173 C   0  0  0  0  0  0  0  0  0  0  0  0
    4.7996    7.9130   -0.9791 C   0  0  0  0  0  0  0  0  0  0  0  0
    4.7575    8.9839    0.1070 C   0  0  0  0  0  0  0  0  0  0  0  0
    5.4439   10.2570   -0.3559 C   0  0  0  0  0  0  0  0  0  0  0  0
    7.0892    1.1413   -2.2728 C   0  0  0  0  0  0  0  0  0  0  0  0
    7.0424   -0.1579   -1.4890 C   0  0  0  0  0  0  0  0  0  0  0  0
    8.1601    1.5337   -3.0406 C   0  0  0  0  0  0  0  0  0  0  0  0
    7.9743    2.8028   -3.8798 C   0  0  0  0  0  0  0  0  0  0  0  0
    9.4987    0.9613   -2.9959 N   0  0  0  0  0  0  0  0  0  0  0  0
    9.9765    0.1226   -1.8442 C   0  0  0  0  0  0  0  0  0  0  0  0
   10.5740    1.7212   -3.5577 C   0  0  0  0  0  0  0  0  0  0  0  0
   11.4705    2.4206   -2.8055 C   0  0  0  0  0  0  0  0  0  0  0  0
   10.7202    3.3928   -1.8757 C   0  0  0  0  0  0  0  0  0  0  0  0
   10.0537    2.9808   -0.8265 N   0  0  0  0  0  0  0  0  0  0  0  0
    8.7733    3.4911   -0.6070 C   0  0  0  0  0  0  0  0  0  0  0  0
    7.8346    2.6624   -0.0546 C   0  0  0  0  0  0  0  0  0  0  0  0
    3.0151   -0.5005   -0.7854 H   0  0  0  0  0  0  0  0  0  0  0  0
    4.2982    0.2213   -1.8362 H   0  0  0  0  0  0  0  0  0  0  0  0
    3.6719    0.6678    1.1254 H   0  0  0  0  0  0  0  0  0  0  0  0
    6.0224    1.3580    1.3242 H   0  0  0  0  0  0  0  0  0  0  0  0
    4.9187    2.6985    1.1390 H   0  0  0  0  0  0  0  0  0  0  0  0
    4.7823    1.9200   -3.3947 H   0  0  0  0  0  0  0  0  0  0  0  0
    5.3236    3.5595   -3.1537 H   0  0  0  0  0  0  0  0  0  0  0  0
    2.9834    2.3003   -1.7371 H   0  0  0  0  0  0  0  0  0  0  0  0
    3.0097    3.4485   -3.0216 H   0  0  0  0  0  0  0  0  0  0  0  0
    3.8826    3.9900   -0.1595 H   0  0  0  0  0  0  0  0  0  0  0  0
    2.4226    4.5076   -0.9529 H   0  0  0  0  0  0  0  0  0  0  0  0
    3.6934    5.9216   -2.5118 H   0  0  0  0  0  0  0  0  0  0  0  0
    5.2290    5.3660   -1.8362 H   0  0  0  0  0  0  0  0  0  0  0  0
    4.5839    6.2681    0.3978 H   0  0  0  0  0  0  0  0  0  0  0  0
    3.0571    6.8516   -0.2705 H   0  0  0  0  0  0  0  0  0  0  0  0
    4.3148    8.2886   -1.8892 H   0  0  0  0  0  0  0  0  0  0  0  0
    5.8422    7.6907   -1.2368 H   0  0  0  0  0  0  0  0  0  0  0  0
    5.2514    8.6142    1.0133 H   0  0  0  0  0  0  0  0  0  0  0  0
    3.7174    9.2072    0.3717 H   0  0  0  0  0  0  0  0  0  0  0  0
    6.4944   10.0676   -0.5989 H   0  0  0  0  0  0  0  0  0  0  0  0
    5.4060   11.0158    0.4311 H   0  0  0  0  0  0  0  0  0  0  0  0
    4.9532   10.6625   -1.2465 H   0  0  0  0  0  0  0  0  0  0  0  0
    6.0518   -0.5775   -1.3726 H   0  0  0  0  0  0  0  0  0  0  0  0
    7.4223   -0.0438   -0.4648 H   0  0  0  0  0  0  0  0  0  0  0  0
    7.5726   -0.9684   -1.9960 H   0  0  0  0  0  0  0  0  0  0  0  0
    6.9385    3.0775   -4.0520 H   0  0  0  0  0  0  0  0  0  0  0  0
    8.3428    2.6622   -4.8959 H   0  0  0  0  0  0  0  0  0  0  0  0
    8.4667    3.6647   -3.4217 H   0  0  0  0  0  0  0  0  0  0  0  0
    9.2482   -0.4078   -1.2534 H   0  0  0  0  0  0  0  0  0  0  0  0
   10.5147    0.7082   -1.0925 H   0  0  0  0  0  0  0  0  0  0  0  0
   10.6737   -0.6346   -2.2137 H   0  0  0  0  0  0  0  0  0  0  0  0
   10.2373    2.1787   -4.4829 H   0  0  0  0  0  0  0  0  0  0  0  0
   12.0821    1.8013   -2.1519 H   0  0  0  0  0  0  0  0  0  0  0  0
   10.6897    4.4286   -2.2670 H   0  0  0  0  0  0  0  0  0  0  0  0
    8.4827    4.3731   -1.1717 H   0  0  0  0  0  0  0  0  0  0  0  0
    8.2179    1.7912    0.4711 H   0  0  0  0  0  0  0  0  0  0  0  0
  1  2  2  0  0  0  0
  1 26  1  0  0  0  0
  1 27  1  0  0  0  0
  2  3  1  0  0  0  0
  2 28  1  0  0  0  0
  3  4  1  0  0  0  0
  3 29  1  0  0  0  0
  3 30  1  0  0  0  0
  4  5  2  3  0  0  0
  4 25  1  0  0  0  0
  5  6  1  0  0  0  0
  5 14  1  0  0  0  0
  6  7  1  0  0  0  0
  6 31  1  0  0  0  0
  6 32  1  0  0  0  0
  7  8  1  0  0  0  0
  7 33  1  0  0  0  0
  7 34  1  0  0  0  0
  8  9  1  0  0  0  0
  8 35  1  0  0  0  0
  8 36  1  0  0  0  0
  9 10  1  0  0  0  0
  9 37  1  0  0  0  0
  9 38  1  0  0  0  0
 10 11  1  0  0  0  0
 10 39  1  0  0  0  0
 10 40  1  0  0  0  0
 11 12  1  0  0  0  0
 11 41  1  0  0  0  0
 11 42  1  0  0  0  0
 12 13  1  0  0  0  0
 12 43  1  0  0  0  0
 12 44  1  0  0  0  0
 13 45  1  0  0  0  0
 13 46  1  0  0  0  0
 13 47  1  0  0  0  0
 14 15  1  0  0  0  0
 14 16  2  3  0  0  0
 15 48  1  0  0  0  0
 15 49  1  0  0  0  0
 15 50  1  0  0  0  0
 16 17  1  0  0  0  0
 16 18  1  0  0  0  0
 17 51  1  0  0  0  0
 17 52  1  0  0  0  0
 17 53  1  0  0  0  0
 18 19  1  0  0  0  0
 18 20  1  0  0  0  0
 19 54  1  0  0  0  0
 19 55  1  0  0  0  0
 19 56  1  0  0  0  0
 20 21  2  3  0  0  0
 20 57  1  0  0  0  0
 21 22  1  0  0  0  0
 21 58  1  0  0  0  0
 22 23  2  3  0  0  0
 22 59  1  0  0  0  0
 23 24  1  0  0  0  0
 24 25  2  3  0  0  0
 24 60  1  0  0  0  0
 25 61  1  0  0  0  0
M  END
$$$$
