
 OpenBabel04232216473D

121121  0  0  1  0  0  0  0  0999 V2000
   13.3030   20.2698   31.6342 C   0  0  0  0  0  0  0  0  0  0  0  0
   14.2233   19.4062   30.8649 C   0  0  3  0  0  0  0  0  0  0  0  0
   15.0049   19.9028   29.8542 C   0  0  0  0  0  0  0  0  0  0  0  0
   13.9732   19.3802   29.2416 C   0  0  0  0  0  0  0  0  0  0  0  0
   12.8277   18.6906   29.1631 O   0  0  0  0  0  0  0  0  0  0  0  0
   12.4509   18.8584   27.7533 O   0  0  0  0  0  0  0  0  0  0  0  0
   11.0231   18.7673   27.7116 C   0  0  0  0  0  0  0  0  0  0  0  0
   10.5974   17.4882   28.1664 O   0  0  0  0  0  0  0  0  0  0  0  0
    9.1527   17.5266   28.3011 O   0  0  0  0  0  0  0  0  0  0  0  0
    8.7151   16.2883   28.9058 O   0  0  0  0  0  0  0  0  0  0  0  0
    7.2770   16.1118   28.8859 O   0  0  0  0  0  0  0  0  0  0  0  0
    6.9424   14.9737   29.7468 O   0  0  0  0  0  0  0  0  0  0  0  0
    5.7368   14.2751   29.3055 O   0  0  0  0  0  0  0  0  0  0  0  0
    5.0602   13.6487   30.4454 O   0  0  0  0  0  0  0  0  0  0  0  0
    3.6093   13.6178   30.2656 O   0  0  0  0  0  0  0  0  0  0  0  0
    2.9272   13.9080   31.5244 O   0  0  0  0  0  0  0  0  0  0  0  0
    1.6874   14.5285   31.1865 C   0  0  0  0  0  0  0  0  0  0  0  0
    1.5969   15.7634   31.8660 O   0  0  0  0  0  0  0  0  0  0  0  0
    1.2790   16.8561   31.0521 C   0  0  0  0  0  0  0  0  0  0  0  0
    1.5076   16.7339   29.6958 O   0  0  0  0  0  0  0  0  0  0  0  0
    0.2980   17.0809   29.1375 C   0  0  0  0  0  0  0  0  0  0  0  0
   -0.2737   18.2820   29.5894 O   0  0  0  0  0  0  0  0  0  0  0  0
    0.0511   19.6560   29.6165 C   0  0  0  0  0  0  0  0  0  0  0  0
   -0.7830   20.4726   28.7987 O   0  0  0  0  0  0  0  0  0  0  0  0
   -0.1777   21.4778   28.0409 C   0  0  0  0  0  0  0  0  0  0  0  0
    1.3055   21.3126   27.7844 C   0  0  0  0  0  0  0  0  0  0  0  0
    1.9694   20.0166   27.2618 C   0  0  0  0  0  0  0  0  0  0  0  0
    1.4528   18.7325   27.5334 O   0  0  0  0  0  0  0  0  0  0  0  0
    2.0733   17.6629   26.7799 C   0  0  0  0  0  0  0  0  0  0  0  0
    3.4883   17.5927   26.8405 O   0  0  0  0  0  0  0  0  0  0  0  0
    4.0564   17.6719   28.1558 C   0  0  0  0  0  0  0  0  0  0  0  0
    3.9506   16.5263   28.9704 O   0  0  0  0  0  0  0  0  0  0  0  0
    4.3085   16.7434   30.3479 C   0  0  0  0  0  0  0  0  0  0  0  0
    4.0176   17.9934   31.0082 O   0  0  0  0  0  0  0  0  0  0  0  0
    3.6736   17.8270   32.4169 C   0  0  0  0  0  0  0  0  0  0  0  0
    2.8368   18.9088   32.9569 O   0  0  0  0  0  0  0  0  0  0  0  0
    1.4078   18.6355   33.2919 C   0  0  0  0  0  0  0  0  0  0  0  0
    0.3479   19.1868   32.4186 O   0  0  0  0  0  0  0  0  0  0  0  0
   -1.0221   18.5728   32.4205 C   0  0  0  0  0  0  0  0  0  0  0  0
   -2.0649   18.7836   31.2757 O   0  0  0  0  0  0  0  0  0  0  0  0
   -2.3723   17.7183   30.2255 C   0  0  0  0  0  0  0  0  0  0  0  0
   -2.7842   17.9973   28.6596 O   0  0  0  0  0  0  0  0  0  0  0  0
   -1.7700   18.1383   27.5082 C   0  0  0  0  0  0  0  0  0  0  0  0
   -2.1259   18.3789   26.0680 O   0  0  0  0  0  0  0  0  0  0  0  0
   -1.2896   19.3837   25.3374 C   0  0  0  0  0  0  0  0  0  0  0  0
    0.0809   19.1478   24.8772 O   0  0  0  0  0  0  0  0  0  0  0  0
    0.7119   20.3653   24.3184 C   0  0  0  0  0  0  0  0  0  0  0  0
    2.1563   20.2905   24.1355 O   0  0  0  0  0  0  0  0  0  0  0  0
    2.6869   21.5685   24.6550 O   0  0  0  0  0  0  0  0  0  0  0  0
    4.1337   21.5530   24.7551 O   0  0  0  0  0  0  0  0  0  0  0  0
    4.6972   22.4281   23.7504 O   0  0  0  0  0  0  0  0  0  0  0  0
    6.0974   22.6311   24.0018 O   0  0  0  0  0  0  0  0  0  0  0  0
    6.5116   23.9257   23.5358 O   0  0  0  0  0  0  0  0  0  0  0  0
    7.8791   23.8441   23.1154 O   0  0  0  0  0  0  0  0  0  0  0  0
    8.2633   25.0465   22.4529 O   0  0  0  0  0  0  0  0  0  0  0  0
    9.6870   25.1700   22.4997 O   0  0  0  0  0  0  0  0  0  0  0  0
   10.0577   26.3708   21.8361 O   0  0  0  0  0  0  0  0  0  0  0  0
   11.4738   26.5364   21.8600 O   0  0  0  0  0  0  0  0  0  0  0  0
   11.8042   27.4879   20.8512 O   0  0  0  0  0  0  0  0  0  0  0  0
   13.2139   27.5614   20.6641 O   0  0  0  0  0  0  0  0  0  0  0  0
   13.5776   28.9444   20.6373 O   0  0  0  0  0  0  0  0  0  0  0  0
   14.9945   29.0839   20.5518 O   0  0  0  0  0  0  0  0  0  0  0  0
   15.3116   29.7880   19.3469 O   0  0  0  0  0  0  0  0  0  0  0  0
   16.7289   29.8482   19.1723 O   0  0  0  0  0  0  0  0  0  0  0  0
   17.1075   31.2025   18.9031 O   0  0  0  0  0  0  0  0  0  0  0  0
   18.5133   31.3691   19.1163 O   0  0  0  0  0  0  0  0  0  0  0  0
   18.9751   32.5052   18.3723 O   0  0  0  0  0  0  0  0  0  0  0  0
   20.2708   32.2319   17.8170 O   0  0  0  0  0  0  0  0  0  0  0  0
   20.7523   33.3908   17.1155 O   0  0  0  0  0  0  0  0  0  0  0  0
   21.9666   33.8677   17.7261 O   0  0  0  0  0  0  0  0  0  0  0  0
   22.4526   35.0230   17.0159 O   0  0  0  0  0  0  0  0  0  0  0  0
   23.7347   34.7381   16.4185 O   0  0  0  0  0  0  0  0  0  0  0  0
   24.1823   35.8730   15.6499 O   0  0  0  0  0  0  0  0  0  0  0  0
   25.5239   36.2495   16.0327 O   0  0  0  0  0  0  0  0  0  0  0  0
   25.9102   37.4444   15.3216 O   0  0  0  0  0  0  0  0  0  0  0  0
   27.2325   37.3106   14.7536 O   0  0  0  0  0  0  0  0  0  0  0  0
   27.7193   38.6186   14.3636 O   0  0  0  0  0  0  0  0  0  0  0  0
   29.1640   38.6646   14.3946 O   0  0  0  0  0  0  0  0  0  0  0  0
   29.6446   38.7559   15.7574 O   0  0  0  0  0  0  0  0  0  0  0  0
   13.6669   20.3634   32.6603 H   0  0  0  0  0  0  0  0  0  0  0  0
   12.3074   19.8129   31.6712 H   0  0  0  0  0  0  0  0  0  0  0  0
   13.1918   21.2799   31.2254 H   0  0  0  0  0  0  0  0  0  0  0  0
   14.4998   18.4711   31.2805 H   0  0  0  0  0  0  0  0  0  0  0  0
   15.8670   20.4743   29.5713 H   0  0  0  0  0  0  0  0  0  0  0  0
   10.7108   18.9232   26.6682 H   0  0  0  0  0  0  0  0  0  0  0  0
   10.6060   19.5697   28.3217 H   0  0  0  0  0  0  0  0  0  0  0  0
    0.8882   13.9065   31.5937 H   0  0  0  0  0  0  0  0  0  0  0  0
    1.5300   14.5804   30.1042 H   0  0  0  0  0  0  0  0  0  0  0  0
    1.8359   17.7500   31.2571 H   0  0  0  0  0  0  0  0  0  0  0  0
    0.2746   17.1101   31.3175 H   0  0  0  0  0  0  0  0  0  0  0  0
   -0.3463   16.2623   29.4855 H   0  0  0  0  0  0  0  0  0  0  0  0
    0.2552   16.8289   28.0975 H   0  0  0  0  0  0  0  0  0  0  0  0
    1.1101   19.8724   29.6993 H   0  0  0  0  0  0  0  0  0  0  0  0
   -0.3239   20.0295   30.5633 H   0  0  0  0  0  0  0  0  0  0  0  0
   -0.3601   22.4310   28.5554 H   0  0  0  0  0  0  0  0  0  0  0  0
   -0.7464   21.6086   27.1180 H   0  0  0  0  0  0  0  0  0  0  0  0
    1.7848   21.5498   28.7402 H   0  0  0  0  0  0  0  0  0  0  0  0
    1.6030   22.1264   27.1169 H   0  0  0  0  0  0  0  0  0  0  0  0
    2.9996   20.0650   27.6051 H   0  0  0  0  0  0  0  0  0  0  0  0
    2.0199   20.0638   26.2074 H   0  0  0  0  0  0  0  0  0  0  0  0
    1.7401   17.7179   25.7386 H   0  0  0  0  0  0  0  0  0  0  0  0
    1.7119   16.6799   27.0907 H   0  0  0  0  0  0  0  0  0  0  0  0
    3.6384   18.5241   28.6810 H   0  0  0  0  0  0  0  0  0  0  0  0
    5.1149   17.8504   27.9685 H   0  0  0  0  0  0  0  0  0  0  0  0
    5.3579   16.5168   30.4947 H   0  0  0  0  0  0  0  0  0  0  0  0
    3.7754   15.9606   30.8630 H   0  0  0  0  0  0  0  0  0  0  0  0
    4.6357   17.8473   32.9439 H   0  0  0  0  0  0  0  0  0  0  0  0
    3.2819   16.8404   32.6783 H   0  0  0  0  0  0  0  0  0  0  0  0
    1.2931   19.1765   34.2364 H   0  0  0  0  0  0  0  0  0  0  0  0
    1.2582   17.5793   33.5313 H   0  0  0  0  0  0  0  0  0  0  0  0
   -1.4894   19.1477   33.2298 H   0  0  0  0  0  0  0  0  0  0  0  0
   -1.0114   17.5334   32.7649 H   0  0  0  0  0  0  0  0  0  0  0  0
   -3.3433   17.3484   30.5787 H   0  0  0  0  0  0  0  0  0  0  0  0
   -1.8003   16.7979   30.3861 H   0  0  0  0  0  0  0  0  0  0  0  0
   -1.2847   17.1834   27.3839 H   0  0  0  0  0  0  0  0  0  0  0  0
   -1.1159   18.9442   27.6831 H   0  0  0  0  0  0  0  0  0  0  0  0
   -1.3051   20.2973   25.9084 H   0  0  0  0  0  0  0  0  0  0  0  0
   -1.8394   19.5799   24.4107 H   0  0  0  0  0  0  0  0  0  0  0  0
    0.5047   21.2031   24.9938 H   0  0  0  0  0  0  0  0  0  0  0  0
    0.3125   20.6049   23.3314 H   0  0  0  0  0  0  0  0  0  0  0  0
   30.5720   38.5637   15.5397 H   0  0  0  0  0  0  0  0  0  0  0  0
  1  2  1  0  0  0  0
  1 80  1  0  0  0  0
  1 81  1  0  0  0  0
  1 82  1  0  0  0  0
  2  3  1  0  0  0  0
  2  4  1  0  0  0  0
  2 83  1  0  0  0  0
  3  4  2  0  0  0  0
  3 84  1  0  0  0  0
  4  5  1  0  0  0  0
  5  6  1  0  0  0  0
  6  7  1  0  0  0  0
  7  8  1  0  0  0  0
  7 85  1  0  0  0  0
  7 86  1  0  0  0  0
  8  9  1  0  0  0  0
  9 10  1  0  0  0  0
 10 11  1  0  0  0  0
 11 12  1  0  0  0  0
 12 13  1  0  0  0  0
 13 14  1  0  0  0  0
 14 15  1  0  0  0  0
 15 16  1  0  0  0  0
 16 17  1  0  0  0  0
 17 18  1  0  0  0  0
 17 87  1  0  0  0  0
 17 88  1  0  0  0  0
 18 19  1  0  0  0  0
 19 20  1  0  0  0  0
 19 89  1  0  0  0  0
 19 90  1  0  0  0  0
 20 21  1  0  0  0  0
 21 22  1  0  0  0  0
 21 91  1  0  0  0  0
 21 92  1  0  0  0  0
 22 23  1  0  0  0  0
 23 24  1  0  0  0  0
 23 93  1  0  0  0  0
 23 94  1  0  0  0  0
 24 25  1  0  0  0  0
 25 26  1  0  0  0  0
 25 95  1  0  0  0  0
 25 96  1  0  0  0  0
 26 27  1  0  0  0  0
 26 97  1  0  0  0  0
 26 98  1  0  0  0  0
 27 28  1  0  0  0  0
 27 99  1  0  0  0  0
 27100  1  0  0  0  0
 28 29  1  0  0  0  0
 29 30  1  0  0  0  0
 29101  1  0  0  0  0
 29102  1  0  0  0  0
 30 31  1  0  0  0  0
 31 32  1  0  0  0  0
 31103  1  0  0  0  0
 31104  1  0  0  0  0
 32 33  1  0  0  0  0
 33 34  1  0  0  0  0
 33105  1  0  0  0  0
 33106  1  0  0  0  0
 34 35  1  0  0  0  0
 35 36  1  0  0  0  0
 35107  1  0  0  0  0
 35108  1  0  0  0  0
 36 37  1  0  0  0  0
 37 38  1  0  0  0  0
 37109  1  0  0  0  0
 37110  1  0  0  0  0
 38 39  1  0  0  0  0
 39 40  1  0  0  0  0
 39111  1  0  0  0  0
 39112  1  0  0  0  0
 40 41  1  0  0  0  0
 41 42  1  0  0  0  0
 41113  1  0  0  0  0
 41114  1  0  0  0  0
 42 43  1  0  0  0  0
 43 44  1  0  0  0  0
 43115  1  0  0  0  0
 43116  1  0  0  0  0
 44 45  1  0  0  0  0
 45 46  1  0  0  0  0
 45117  1  0  0  0  0
 45118  1  0  0  0  0
 46 47  1  0  0  0  0
 47 48  1  0  0  0  0
 47119  1  0  0  0  0
 47120  1  0  0  0  0
 48 49  1  0  0  0  0
 49 50  1  0  0  0  0
 50 51  1  0  0  0  0
 51 52  1  0  0  0  0
 52 53  1  0  0  0  0
 53 54  1  0  0  0  0
 54 55  1  0  0  0  0
 55 56  1  0  0  0  0
 56 57  1  0  0  0  0
 57 58  1  0  0  0  0
 58 59  1  0  0  0  0
 59 60  1  0  0  0  0
 60 61  1  0  0  0  0
 61 62  1  0  0  0  0
 62 63  1  0  0  0  0
 63 64  1  0  0  0  0
 64 65  1  0  0  0  0
 65 66  1  0  0  0  0
 66 67  1  0  0  0  0
 67 68  1  0  0  0  0
 68 69  1  0  0  0  0
 69 70  1  0  0  0  0
 70 71  1  0  0  0  0
 71 72  1  0  0  0  0
 72 73  1  0  0  0  0
 73 74  1  0  0  0  0
 74 75  1  0  0  0  0
 75 76  1  0  0  0  0
 76 77  1  0  0  0  0
 77 78  1  0  0  0  0
 78 79  1  0  0  0  0
 79121  1  0  0  0  0
M  END
$$$$
