
 OpenBabel04232216483D

 70 71  0  0  1  0  0  0  0  0999 V2000
   -9.2355    6.2185  -12.0239 C   0  0  0  0  0  0  0  0  0  0  0  0
   -8.7315    5.6164  -10.7466 C   0  0  0  0  0  0  0  0  0  0  0  0
   -7.5487    6.0674  -10.1536 C   0  0  0  0  0  0  0  0  0  0  0  0
   -7.0766    5.4819   -8.9753 C   0  0  0  0  0  0  0  0  0  0  0  0
   -7.7749    4.4279   -8.3724 C   0  0  0  0  0  0  0  0  0  0  0  0
   -7.2532    3.7843   -7.1101 C   0  0  0  0  0  0  0  0  0  0  0  0
   -7.7640    4.4909   -5.8537 C   0  0  0  0  0  0  0  0  0  0  0  0
   -7.2146    3.8607   -4.5693 C   0  0  0  0  0  0  0  0  0  0  0  0
   -7.7553    4.5983   -3.3426 C   0  0  0  0  0  0  0  0  0  0  0  0
   -7.2530    3.9933   -2.0275 C   0  0  0  0  0  0  0  0  0  0  0  0
   -7.7838    4.7459   -0.8091 C   0  0  0  0  0  0  0  0  0  0  0  0
   -9.2346    4.7500   -0.7436 N   0  0  0  0  0  0  0  0  0  0  0  0
   -9.9188    5.7670   -0.0959 C   0  0  0  0  0  0  0  0  0  0  0  0
   -9.3225    6.7199    0.4149 O   0  0  0  0  0  0  0  0  0  0  0  0
  -11.4646    5.6329   -0.1268 C   0  0  3  0  0  0  0  0  0  0  0  0
  -12.0833    4.4848    0.6009 C   0  0  3  0  0  3  0  0  0  0  0  0
  -11.3671    3.6153    1.5815 C   0  0  0  0  0  0  0  0  0  0  0  0
  -12.2454    2.4862    2.1278 C   0  0  0  0  0  0  0  0  0  0  0  0
  -12.7088    1.5091    1.0432 C   0  0  0  0  0  0  0  0  0  0  0  0
  -13.5618    0.3972    1.6514 C   0  0  0  0  0  0  0  0  0  0  0  0
  -14.0407   -0.5955    0.5920 C   0  0  0  0  0  0  0  0  0  0  0  0
  -14.8891   -1.6894    1.2401 C   0  0  0  0  0  0  0  0  0  0  0  0
  -15.3806   -2.7148    0.2213 C   0  0  0  0  0  0  0  0  0  0  0  0
  -16.2155   -3.7903    0.8970 C   0  0  0  0  0  0  0  0  0  0  0  0
  -13.2092    5.3434    1.0325 C   0  0  0  0  0  0  0  0  0  0  0  0
  -12.2961    6.5451    0.7956 C   0  0  0  0  0  0  0  0  0  0  0  0
   -8.9732    3.9937   -8.9548 C   0  0  0  0  0  0  0  0  0  0  0  0
   -9.4445    4.5801  -10.1330 C   0  0  0  0  0  0  0  0  0  0  0  0
   -8.5746    7.0156  -12.3817 H   0  0  0  0  0  0  0  0  0  0  0  0
  -10.2302    6.6489  -11.8754 H   0  0  0  0  0  0  0  0  0  0  0  0
   -9.2861    5.4520  -12.8049 H   0  0  0  0  0  0  0  0  0  0  0  0
   -6.9798    6.8777  -10.6060 H   0  0  0  0  0  0  0  0  0  0  0  0
   -6.1523    5.8495   -8.5345 H   0  0  0  0  0  0  0  0  0  0  0  0
   -6.1560    3.7924   -7.1293 H   0  0  0  0  0  0  0  0  0  0  0  0
   -7.5460    2.7268   -7.0945 H   0  0  0  0  0  0  0  0  0  0  0  0
   -8.8607    4.4568   -5.8333 H   0  0  0  0  0  0  0  0  0  0  0  0
   -7.4820    5.5506   -5.8843 H   0  0  0  0  0  0  0  0  0  0  0  0
   -6.1181    3.8996   -4.5734 H   0  0  0  0  0  0  0  0  0  0  0  0
   -7.5013    2.8023   -4.5225 H   0  0  0  0  0  0  0  0  0  0  0  0
   -8.8506    4.5653   -3.3670 H   0  0  0  0  0  0  0  0  0  0  0  0
   -7.4641    5.6547   -3.3915 H   0  0  0  0  0  0  0  0  0  0  0  0
   -6.1572    4.0274   -2.0052 H   0  0  0  0  0  0  0  0  0  0  0  0
   -7.5458    2.9389   -1.9674 H   0  0  0  0  0  0  0  0  0  0  0  0
   -7.4173    5.7787   -0.8209 H   0  0  0  0  0  0  0  0  0  0  0  0
   -7.4214    4.2744    0.1116 H   0  0  0  0  0  0  0  0  0  0  0  0
   -9.7468    3.9203   -1.0062 H   0  0  0  0  0  0  0  0  0  0  0  0
  -11.8348    5.6570   -1.1666 H   0  0  0  0  0  0  0  0  0  0  0  0
  -11.0178    4.2284    2.4210 H   0  0  0  0  0  0  0  0  0  0  0  0
  -10.4797    3.1745    1.1162 H   0  0  0  0  0  0  0  0  0  0  0  0
  -13.1196    2.9052    2.6423 H   0  0  0  0  0  0  0  0  0  0  0  0
  -11.6726    1.9389    2.8865 H   0  0  0  0  0  0  0  0  0  0  0  0
  -11.8355    1.0761    0.5407 H   0  0  0  0  0  0  0  0  0  0  0  0
  -13.2949    2.0358    0.2813 H   0  0  0  0  0  0  0  0  0  0  0  0
  -14.4294    0.8383    2.1559 H   0  0  0  0  0  0  0  0  0  0  0  0
  -12.9798   -0.1339    2.4140 H   0  0  0  0  0  0  0  0  0  0  0  0
  -13.1777   -1.0433    0.0850 H   0  0  0  0  0  0  0  0  0  0  0  0
  -14.6302   -0.0703   -0.1702 H   0  0  0  0  0  0  0  0  0  0  0  0
  -15.7499   -1.2328    1.7429 H   0  0  0  0  0  0  0  0  0  0  0  0
  -14.2980   -2.1983    2.0107 H   0  0  0  0  0  0  0  0  0  0  0  0
  -14.5258   -3.1818   -0.2805 H   0  0  0  0  0  0  0  0  0  0  0  0
  -15.9824   -2.2188   -0.5507 H   0  0  0  0  0  0  0  0  0  0  0  0
  -15.6383   -4.3011    1.6747 H   0  0  0  0  0  0  0  0  0  0  0  0
  -16.5394   -4.5383    0.1671 H   0  0  0  0  0  0  0  0  0  0  0  0
  -17.1078   -3.3584    1.3619 H   0  0  0  0  0  0  0  0  0  0  0  0
  -13.5467    5.2139    2.0636 H   0  0  0  0  0  0  0  0  0  0  0  0
  -14.0691    5.2759    0.3574 H   0  0  0  0  0  0  0  0  0  0  0  0
  -11.7670    6.8749    1.7000 H   0  0  0  0  0  0  0  0  0  0  0  0
  -12.7621    7.4155    0.3271 H   0  0  0  0  0  0  0  0  0  0  0  0
   -9.5454    3.1899   -8.4984 H   0  0  0  0  0  0  0  0  0  0  0  0
  -10.3713    4.2192  -10.5737 H   0  0  0  0  0  0  0  0  0  0  0  0
  1  2  1  0  0  0  0
  1 29  1  0  0  0  0
  1 30  1  0  0  0  0
  1 31  1  0  0  0  0
  2  3  1  0  0  0  0
  2 28  2  0  0  0  0
  3  4  2  0  0  0  0
  3 32  1  0  0  0  0
  4  5  1  0  0  0  0
  4 33  1  0  0  0  0
  5  6  1  0  0  0  0
  5 27  2  0  0  0  0
  6  7  1  0  0  0  0
  6 34  1  0  0  0  0
  6 35  1  0  0  0  0
  7  8  1  0  0  0  0
  7 36  1  0  0  0  0
  7 37  1  0  0  0  0
  8  9  1  0  0  0  0
  8 38  1  0  0  0  0
  8 39  1  0  0  0  0
  9 10  1  0  0  0  0
  9 40  1  0  0  0  0
  9 41  1  0  0  0  0
 10 11  1  0  0  0  0
 10 42  1  0  0  0  0
 10 43  1  0  0  0  0
 11 12  1  0  0  0  0
 11 44  1  0  0  0  0
 11 45  1  0  0  0  0
 12 13  1  0  0  0  0
 12 46  1  0  0  0  0
 13 14  2  0  0  0  0
 13 15  1  0  0  0  0
 15 16  1  0  0  0  0
 15 26  1  0  0  0  0
 15 47  1  0  0  0  0
 16 17  1  0  0  0  0
 16 25  1  0  0  0  0
 17 18  1  0  0  0  0
 17 48  1  0  0  0  0
 17 49  1  0  0  0  0
 18 19  1  0  0  0  0
 18 50  1  0  0  0  0
 18 51  1  0  0  0  0
 19 20  1  0  0  0  0
 19 52  1  0  0  0  0
 19 53  1  0  0  0  0
 20 21  1  0  0  0  0
 20 54  1  0  0  0  0
 20 55  1  0  0  0  0
 21 22  1  0  0  0  0
 21 56  1  0  0  0  0
 21 57  1  0  0  0  0
 22 23  1  0  0  0  0
 22 58  1  0  0  0  0
 22 59  1  0  0  0  0
 23 24  1  0  0  0  0
 23 60  1  0  0  0  0
 23 61  1  0  0  0  0
 24 62  1  0  0  0  0
 24 63  1  0  0  0  0
 24 64  1  0  0  0  0
 25 26  1  0  0  0  0
 25 65  1  0  0  0  0
 25 66  1  0  0  0  0
 26 67  1  0  0  0  0
 26 68  1  0  0  0  0
 27 28  1  0  0  0  0
 27 69  1  0  0  0  0
 28 70  1  0  0  0  0
M  END
$$$$
