
 OpenBabel04232216453D

 53 55  0  0  0  0  0  0  0  0999 V2000
    3.0786    3.2786   -0.6649 C   0  0  0  0  0  0  0  0  0  0  0  0
    4.6423    3.2757   -0.8620 C   0  0  0  0  0  0  0  0  0  0  0  0
    5.0982    1.8004   -0.9204 C   0  0  0  0  0  0  0  0  0  0  0  0
    4.9165    0.1726    0.0310 C   0  0  0  0  0  0  0  0  0  0  0  0
    4.2369    0.2659    1.0679 O   0  0  0  0  0  0  0  0  0  0  0  0
    5.5814   -1.3234   -0.2332 N   0  0  0  0  0  0  0  0  0  0  0  0
    4.8848   -2.6970   -0.7426 C   0  0  0  0  0  0  0  0  0  0  0  0
    4.9499   -4.0673    0.1071 C   0  0  0  0  0  0  0  0  0  0  0  0
    6.1682   -4.1999    0.9129 C   0  0  0  0  0  0  0  0  0  0  0  0
    6.7154   -5.2810    1.4369 N   0  0  0  0  0  0  0  0  0  0  0  0
    7.8716   -4.8626    2.0275 N   0  0  0  0  0  0  0  0  0  0  0  0
    8.0298   -3.5576    1.8660 N   0  0  0  0  0  0  0  0  0  0  0  0
    6.9428   -3.0942    1.1476 N   0  0  0  0  0  0  0  0  0  0  0  0
    6.7273   -1.7789    0.6075 C   0  0  0  0  0  0  0  0  0  0  0  0
    7.8339   -1.0374    0.6427 C   0  0  0  0  0  0  0  0  0  0  0  0
    7.9179   -0.0131   -0.3051 C   0  0  0  0  0  0  0  0  0  0  0  0
    8.5566    1.0876   -0.0139 C   0  0  0  0  0  0  0  0  0  0  0  0
    8.1973    2.2036   -0.7890 C   0  0  0  0  0  0  0  0  0  0  0  0
    8.7414    3.3492   -0.4629 C   0  0  0  0  0  0  0  0  0  0  0  0
    8.4454    4.4309   -1.2900 C   0  0  0  0  0  0  0  0  0  0  0  0
    9.4269    5.3131   -1.4104 C   0  0  0  0  0  0  0  0  0  0  0  0
    9.2138    6.3918   -2.2675 C   0  0  0  0  0  0  0  0  0  0  0  0
    9.8622    7.5607   -2.1289 C   0  0  0  0  0  0  0  0  0  0  0  0
    8.8434    8.5418   -2.4563 C   0  0  0  0  0  0  0  0  0  0  0  0
    8.0927    9.8011   -2.3995 C   0  0  0  0  0  0  0  0  0  0  0  0
    6.5038    9.0840   -2.4547 C   0  0  0  0  0  0  0  0  0  0  0  0
    5.9281    7.7939   -2.0782 C   0  0  0  0  0  0  0  0  0  0  0  0
    5.2291    6.0917   -1.5404 C   0  0  0  0  0  0  0  0  0  0  0  0
    5.2115    4.6196   -1.7060 N   0  0  0  0  0  0  0  0  0  0  0  0
    2.7046    2.2492   -0.5170 H   0  0  0  0  0  0  0  0  0  0  0  0
    2.5309    3.6360   -1.5475 H   0  0  0  0  0  0  0  0  0  0  0  0
    2.7411    3.8203    0.2233 H   0  0  0  0  0  0  0  0  0  0  0  0
    4.3410    1.3473   -1.6001 H   0  0  0  0  0  0  0  0  0  0  0  0
    5.5198   -2.9614   -1.6094 H   0  0  0  0  0  0  0  0  0  0  0  0
    3.8754   -2.5476   -1.1227 H   0  0  0  0  0  0  0  0  0  0  0  0
    4.9413   -4.9446   -0.5711 H   0  0  0  0  0  0  0  0  0  0  0  0
    4.0905   -4.2114    0.7699 H   0  0  0  0  0  0  0  0  0  0  0  0
    8.7352   -1.2944    1.1733 H   0  0  0  0  0  0  0  0  0  0  0  0
    7.2980   -0.0564   -1.2228 H   0  0  0  0  0  0  0  0  0  0  0  0
    9.1642    1.1791    0.8883 H   0  0  0  0  0  0  0  0  0  0  0  0
    7.4510    2.1260   -1.5709 H   0  0  0  0  0  0  0  0  0  0  0  0
    9.5078    3.4061    0.2965 H   0  0  0  0  0  0  0  0  0  0  0  0
    7.5214    4.4515   -1.8585 H   0  0  0  0  0  0  0  0  0  0  0  0
   10.3221    5.2677   -0.8182 H   0  0  0  0  0  0  0  0  0  0  0  0
    8.2496    6.3451   -2.8014 H   0  0  0  0  0  0  0  0  0  0  0  0
   10.7029    7.6977   -1.4660 H   0  0  0  0  0  0  0  0  0  0  0  0
    8.3271    8.2632   -1.5146 H   0  0  0  0  0  0  0  0  0  0  0  0
    8.4766    8.1883   -3.4297 H   0  0  0  0  0  0  0  0  0  0  0  0
    8.4003   10.3534   -3.3203 H   0  0  0  0  0  0  0  0  0  0  0  0
    8.3589   10.4593   -1.5605 H   0  0  0  0  0  0  0  0  0  0  0  0
    6.0313    9.7436   -3.2022 H   0  0  0  0  0  0  0  0  0  0  0  0
    6.1972    7.9449   -1.0084 H   0  0  0  0  0  0  0  0  0  0  0  0
    4.9350    6.0777   -2.6205 H   0  0  0  0  0  0  0  0  0  0  0  0
  1  2  1  0  0  0  0
  1 30  1  0  0  0  0
  1 31  1  0  0  0  0
  1 32  1  0  0  0  0
  2  3  2  3  0  0  0
  2 29  1  0  0  0  0
  3  4  1  0  0  0  0
  3 33  1  0  0  0  0
  4  5  2  0  0  0  0
  4  6  1  0  0  0  0
  6  7  1  0  0  0  0
  6 14  1  0  0  0  0
  7  8  1  0  0  0  0
  7 34  1  0  0  0  0
  7 35  1  0  0  0  0
  8  9  1  0  0  0  0
  8 36  1  0  0  0  0
  8 37  1  0  0  0  0
  9 10  2  0  0  0  0
  9 13  1  0  0  0  0
 10 11  1  0  0  0  0
 11 12  2  0  0  0  0
 12 13  1  0  0  0  0
 13 14  1  0  0  0  0
 14 15  2  3  0  0  0
 15 16  1  0  0  0  0
 15 38  1  0  0  0  0
 16 17  2  3  0  0  0
 16 39  1  0  0  0  0
 17 18  1  0  0  0  0
 17 40  1  0  0  0  0
 18 19  2  3  0  0  0
 18 41  1  0  0  0  0
 19 20  1  0  0  0  0
 19 42  1  0  0  0  0
 20 21  2  3  0  0  0
 20 43  1  0  0  0  0
 21 22  1  0  0  0  0
 21 44  1  0  0  0  0
 22 23  2  3  0  0  0
 22 45  1  0  0  0  0
 23 24  1  0  0  0  0
 23 46  1  0  0  0  0
 24 25  1  0  0  0  0
 24 47  1  0  0  0  0
 24 48  1  0  0  0  0
 25 26  1  0  0  0  0
 25 49  1  0  0  0  0
 25 50  1  0  0  0  0
 26 27  2  3  0  0  0
 26 51  1  0  0  0  0
 27 28  1  0  0  0  0
 27 52  1  0  0  0  0
 28 29  2  3  0  0  0
 28 53  1  0  0  0  0
M  END
$$$$
