
 OpenBabel04232216563D

233233  0  0  1  0  0  0  0  0999 V2000
    0.9685   -0.0013    0.0938 C   0  0  0  0  0  0  0  0  0  0  0  0
    2.4292   -0.0401    0.0845 N   0  0  0  0  0  0  0  0  0  0  0  0
    2.9653    1.1000    0.8314 C   0  0  0  0  0  0  0  0  0  0  0  0
    4.3333    0.7740    1.2065 N   0  0  0  0  0  0  0  0  0  0  0  0
    4.5437   -0.8355    1.5353 S   0  0  0  0  0  0  0  0  0  0  0  0
    2.9804   -1.2833    0.6624 C   0  0  3  0  0  0  0  0  0  0  0  0
    3.3548   -2.3121   -0.4109 C   0  0  0  0  0  0  0  0  0  0  0  0
    2.1501   -2.7503   -1.2267 C   0  0  0  0  0  0  0  0  0  0  0  0
    2.5215   -3.7848   -2.2666 C   0  0  0  0  0  0  0  0  0  0  0  0
    1.2661   -4.1696   -3.0313 C   0  0  0  0  0  0  0  0  0  0  0  0
    1.6097   -5.1915   -4.0937 C   0  0  0  0  0  0  0  0  0  0  0  0
    0.3574   -5.5790   -4.8544 C   0  0  0  0  0  0  0  0  0  0  0  0
    0.7131   -6.6019   -5.9148 C   0  0  0  0  0  0  0  0  0  0  0  0
   -0.5308   -6.9992   -6.6820 C   0  0  0  0  0  0  0  0  0  0  0  0
   -0.1708   -8.0224   -7.7410 C   0  0  0  0  0  0  0  0  0  0  0  0
   -1.4145   -8.4215   -8.5101 C   0  0  0  0  0  0  0  0  0  0  0  0
   -1.0556   -9.4449   -9.5695 C   0  0  0  0  0  0  0  0  0  0  0  0
   -2.2996   -9.8441  -10.3389 C   0  0  0  0  0  0  0  0  0  0  0  0
   -1.9411  -10.8663  -11.3998 C   0  0  0  0  0  0  0  0  0  0  0  0
   -3.1851  -11.2659  -12.1695 C   0  0  0  0  0  0  0  0  0  0  0  0
   -2.8267  -12.2903  -13.2298 C   0  0  0  0  0  0  0  0  0  0  0  0
   -4.0704  -12.6881  -14.0002 C   0  0  0  0  0  0  0  0  0  0  0  0
   -3.7119  -13.7095  -15.0613 C   0  0  0  0  0  0  0  0  0  0  0  0
   -4.9567  -14.1100  -15.8316 C   0  0  0  0  0  0  0  0  0  0  0  0
   -4.5986  -15.1321  -16.8932 C   0  0  0  0  0  0  0  0  0  0  0  0
   -5.8426  -15.5317  -17.6631 C   0  0  0  0  0  0  0  0  0  0  0  0
   -5.4845  -16.5542  -18.7245 C   0  0  0  0  0  0  0  0  0  0  0  0
   -6.7286  -16.9539  -19.4944 C   0  0  0  0  0  0  0  0  0  0  0  0
   -6.3708  -17.9778  -20.5545 C   0  0  0  0  0  0  0  0  0  0  0  0
   -7.6149  -18.3775  -21.3244 C   0  0  0  0  0  0  0  0  0  0  0  0
   -7.2574  -19.4028  -22.3833 C   0  0  0  0  0  0  0  0  0  0  0  0
   -8.5015  -19.8024  -23.1532 C   0  0  0  0  0  0  0  0  0  0  0  0
   -8.1437  -20.8264  -24.2132 C   0  0  0  0  0  0  0  0  0  0  0  0
   -9.3878  -21.2262  -24.9831 C   0  0  0  0  0  0  0  0  0  0  0  0
   -9.0304  -22.2515  -26.0419 C   0  0  0  0  0  0  0  0  0  0  0  0
  -10.2748  -22.6527  -26.8105 C   0  0  0  0  0  0  0  0  0  0  0  0
   -9.9177  -23.6795  -27.8680 C   0  0  0  0  0  0  0  0  0  0  0  0
  -11.1621  -24.0808  -28.6365 C   0  0  0  0  0  0  0  0  0  0  0  0
  -10.8050  -25.1077  -29.6939 C   0  0  0  0  0  0  0  0  0  0  0  0
  -12.0494  -25.5089  -30.4624 C   0  0  0  0  0  0  0  0  0  0  0  0
  -11.6923  -26.5358  -31.5199 C   0  0  0  0  0  0  0  0  0  0  0  0
  -12.9367  -26.9369  -32.2885 C   0  0  0  0  0  0  0  0  0  0  0  0
  -12.5796  -27.9638  -33.3459 C   0  0  0  0  0  0  0  0  0  0  0  0
  -13.8236  -28.3635  -34.1159 C   0  0  0  0  0  0  0  0  0  0  0  0
  -13.4669  -29.3918  -35.1721 C   0  0  0  0  0  0  0  0  0  0  0  0
  -14.7106  -29.7901  -35.9432 C   0  0  0  0  0  0  0  0  0  0  0  0
  -14.3542  -30.8199  -36.9980 C   0  0  0  0  0  0  0  0  0  0  0  0
  -15.5982  -31.2194  -37.7679 C   0  0  0  0  0  0  0  0  0  0  0  0
  -15.2419  -32.2493  -38.8226 C   0  0  0  0  0  0  0  0  0  0  0  0
  -16.4854  -32.6486  -39.5928 C   0  0  0  0  0  0  0  0  0  0  0  0
  -16.1286  -33.6783  -40.6474 C   0  0  0  0  0  0  0  0  0  0  0  0
  -17.3726  -34.0774  -41.4175 C   0  0  0  0  0  0  0  0  0  0  0  0
  -17.0171  -35.1068  -42.4721 C   0  0  0  0  0  0  0  0  0  0  0  0
  -18.2609  -35.5070  -43.2425 C   0  0  0  0  0  0  0  0  0  0  0  0
  -17.9050  -36.5372  -44.2973 C   0  0  0  0  0  0  0  0  0  0  0  0
  -19.1485  -36.9363  -45.0686 C   0  0  0  0  0  0  0  0  0  0  0  0
  -18.7911  -37.9651  -46.1244 C   0  0  0  0  0  0  0  0  0  0  0  0
  -20.0352  -38.3620  -46.8967 C   0  0  0  0  0  0  0  0  0  0  0  0
  -19.6799  -39.3907  -47.9533 C   0  0  0  0  0  0  0  0  0  0  0  0
  -20.9236  -39.7864  -48.7263 C   0  0  0  0  0  0  0  0  0  0  0  0
  -20.5660  -40.8136  -49.7834 C   0  0  0  0  0  0  0  0  0  0  0  0
  -21.8083  -41.2076  -50.5598 C   0  0  0  0  0  0  0  0  0  0  0  0
  -21.4505  -42.2351  -51.6162 C   0  0  0  0  0  0  0  0  0  0  0  0
  -22.6906  -42.6307  -52.3926 C   0  0  0  0  0  0  0  0  0  0  0  0
  -22.3345  -43.6570  -53.4486 C   0  0  0  0  0  0  0  0  0  0  0  0
  -23.5772  -44.0533  -54.2208 C   0  0  0  0  0  0  0  0  0  0  0  0
  -23.2222  -45.0798  -55.2782 C   0  0  0  0  0  0  0  0  0  0  0  0
  -24.4670  -45.4786  -56.0503 C   0  0  0  0  0  0  0  0  0  0  0  0
  -24.1123  -46.5044  -57.1076 C   0  0  0  0  0  0  0  0  0  0  0  0
  -25.3532  -46.9002  -57.8820 C   0  0  0  0  0  0  0  0  0  0  0  0
  -24.9964  -47.9280  -58.9395 C   0  0  0  0  0  0  0  0  0  0  0  0
  -26.2396  -48.3277  -59.7122 C   0  0  0  0  0  0  0  0  0  0  0  0
  -25.8843  -49.3558  -60.7709 C   0  0  0  0  0  0  0  0  0  0  0  0
  -27.1286  -49.7535  -61.5452 C   0  0  0  0  0  0  0  0  0  0  0  0
  -26.7758  -50.7809  -62.6069 C   0  0  0  0  0  0  0  0  0  0  0  0
  -28.0196  -51.1825  -63.3848 C   0  0  0  0  0  0  0  0  0  0  0  0
  -27.6659  -52.2114  -64.4485 C   0  0  0  0  0  0  0  0  0  0  0  0
  -28.9049  -52.6223  -65.2329 C   0  0  0  0  0  0  0  0  0  0  0  0
  -28.5520  -53.6483  -66.2935 C   0  0  0  0  0  0  0  0  0  0  0  0
    0.6119    0.9060   -0.4068 H   0  0  0  0  0  0  0  0  0  0  0  0
    0.5589   -0.0224    1.1104 H   0  0  0  0  0  0  0  0  0  0  0  0
    0.5202   -0.8362   -0.4473 H   0  0  0  0  0  0  0  0  0  0  0  0
    2.3862    1.2788    1.7461 H   0  0  0  0  0  0  0  0  0  0  0  0
    2.9411    2.0090    0.2237 H   0  0  0  0  0  0  0  0  0  0  0  0
    4.6454    1.3747    1.9629 H   0  0  0  0  0  0  0  0  0  0  0  0
    2.3051   -1.7210    1.4071 H   0  0  0  0  0  0  0  0  0  0  0  0
    3.7969   -3.1984    0.0641 H   0  0  0  0  0  0  0  0  0  0  0  0
    4.1147   -1.9067   -1.0945 H   0  0  0  0  0  0  0  0  0  0  0  0
    1.7303   -1.8936   -1.7633 H   0  0  0  0  0  0  0  0  0  0  0  0
    1.3766   -3.1488   -0.5596 H   0  0  0  0  0  0  0  0  0  0  0  0
    2.9659   -4.6668   -1.7923 H   0  0  0  0  0  0  0  0  0  0  0  0
    3.2657   -3.3690   -2.9571 H   0  0  0  0  0  0  0  0  0  0  0  0
    0.8210   -3.2819   -3.4974 H   0  0  0  0  0  0  0  0  0  0  0  0
    0.5178   -4.5802   -2.3422 H   0  0  0  0  0  0  0  0  0  0  0  0
    2.0550   -6.0771   -3.6272 H   0  0  0  0  0  0  0  0  0  0  0  0
    2.3532   -4.7748   -4.7836 H   0  0  0  0  0  0  0  0  0  0  0  0
   -0.0904   -4.6931   -5.3214 H   0  0  0  0  0  0  0  0  0  0  0  0
   -0.3880   -5.9950   -4.1656 H   0  0  0  0  0  0  0  0  0  0  0  0
    1.1627   -7.4854   -5.4449 H   0  0  0  0  0  0  0  0  0  0  0  0
    1.4600   -6.1838   -6.6010 H   0  0  0  0  0  0  0  0  0  0  0  0
   -0.9795   -6.1152   -7.1517 H   0  0  0  0  0  0  0  0  0  0  0  0
   -1.2772   -7.4167   -5.9952 H   0  0  0  0  0  0  0  0  0  0  0  0
    0.2788   -8.9057   -7.2706 H   0  0  0  0  0  0  0  0  0  0  0  0
    0.5763   -7.6044   -8.4269 H   0  0  0  0  0  0  0  0  0  0  0  0
   -1.8635   -7.5376   -8.9797 H   0  0  0  0  0  0  0  0  0  0  0  0
   -2.1611   -8.8390   -7.8233 H   0  0  0  0  0  0  0  0  0  0  0  0
   -0.6062  -10.3283   -9.0994 H   0  0  0  0  0  0  0  0  0  0  0  0
   -0.3087   -9.0269  -10.2557 H   0  0  0  0  0  0  0  0  0  0  0  0
   -2.7495   -8.9602  -10.8075 H   0  0  0  0  0  0  0  0  0  0  0  0
   -3.0458  -10.2629   -9.6524 H   0  0  0  0  0  0  0  0  0  0  0  0
   -1.4910  -11.7501  -10.9311 H   0  0  0  0  0  0  0  0  0  0  0  0
   -1.1948  -10.4473  -12.0861 H   0  0  0  0  0  0  0  0  0  0  0  0
   -3.6352  -10.3820  -12.6381 H   0  0  0  0  0  0  0  0  0  0  0  0
   -3.9314  -11.6848  -11.4831 H   0  0  0  0  0  0  0  0  0  0  0  0
   -2.3766  -13.1719  -12.7619 H   0  0  0  0  0  0  0  0  0  0  0  0
   -2.0804  -11.8690  -13.9169 H   0  0  0  0  0  0  0  0  0  0  0  0
   -4.5210  -11.7998  -14.4725 H   0  0  0  0  0  0  0  0  0  0  0  0
   -4.8173  -13.1070  -13.3142 H   0  0  0  0  0  0  0  0  0  0  0  0
   -3.2625  -14.5940  -14.5933 H   0  0  0  0  0  0  0  0  0  0  0  0
   -2.9663  -13.2911  -15.7483 H   0  0  0  0  0  0  0  0  0  0  0  0
   -5.4068  -13.2258  -16.3004 H   0  0  0  0  0  0  0  0  0  0  0  0
   -5.7029  -14.5286  -15.1455 H   0  0  0  0  0  0  0  0  0  0  0  0
   -4.1486  -16.0160  -16.4246 H   0  0  0  0  0  0  0  0  0  0  0  0
   -3.8523  -14.7131  -17.5796 H   0  0  0  0  0  0  0  0  0  0  0  0
   -6.2927  -14.6479  -18.1318 H   0  0  0  0  0  0  0  0  0  0  0  0
   -6.5889  -15.9506  -16.9768 H   0  0  0  0  0  0  0  0  0  0  0  0
   -5.0345  -17.4380  -18.2558 H   0  0  0  0  0  0  0  0  0  0  0  0
   -4.7383  -16.1354  -19.4109 H   0  0  0  0  0  0  0  0  0  0  0  0
   -7.1779  -16.0702  -19.9642 H   0  0  0  0  0  0  0  0  0  0  0  0
   -7.4754  -17.3715  -18.8079 H   0  0  0  0  0  0  0  0  0  0  0  0
   -5.9216  -18.8614  -20.0846 H   0  0  0  0  0  0  0  0  0  0  0  0
   -5.6240  -17.5602  -21.2411 H   0  0  0  0  0  0  0  0  0  0  0  0
   -8.0634  -17.4941  -21.7952 H   0  0  0  0  0  0  0  0  0  0  0  0
   -8.3622  -18.7940  -20.6377 H   0  0  0  0  0  0  0  0  0  0  0  0
   -6.8090  -20.2863  -21.9124 H   0  0  0  0  0  0  0  0  0  0  0  0
   -6.5101  -18.9864  -23.0699 H   0  0  0  0  0  0  0  0  0  0  0  0
   -8.9507  -18.9188  -23.6231 H   0  0  0  0  0  0  0  0  0  0  0  0
   -9.2483  -20.2199  -22.4666 H   0  0  0  0  0  0  0  0  0  0  0  0
   -7.6945  -21.7100  -23.7432 H   0  0  0  0  0  0  0  0  0  0  0  0
   -7.3969  -20.4090  -24.8998 H   0  0  0  0  0  0  0  0  0  0  0  0
   -9.8363  -20.3428  -25.4541 H   0  0  0  0  0  0  0  0  0  0  0  0
  -10.1351  -21.6425  -24.2963 H   0  0  0  0  0  0  0  0  0  0  0  0
   -8.5807  -23.1344  -25.5709 H   0  0  0  0  0  0  0  0  0  0  0  0
   -8.2840  -21.8348  -26.7294 H   0  0  0  0  0  0  0  0  0  0  0  0
  -10.7237  -21.7700  -27.2825 H   0  0  0  0  0  0  0  0  0  0  0  0
  -11.0216  -23.0682  -26.1227 H   0  0  0  0  0  0  0  0  0  0  0  0
   -9.4687  -24.5621  -27.3959 H   0  0  0  0  0  0  0  0  0  0  0  0
   -9.1708  -23.2641  -28.5558 H   0  0  0  0  0  0  0  0  0  0  0  0
  -11.6111  -23.1982  -29.1086 H   0  0  0  0  0  0  0  0  0  0  0  0
  -11.9089  -24.4962  -27.9486 H   0  0  0  0  0  0  0  0  0  0  0  0
  -10.3560  -25.9903  -29.2218 H   0  0  0  0  0  0  0  0  0  0  0  0
  -10.0582  -24.6923  -30.3817 H   0  0  0  0  0  0  0  0  0  0  0  0
  -12.4983  -24.6263  -30.9346 H   0  0  0  0  0  0  0  0  0  0  0  0
  -12.7962  -25.9243  -29.7746 H   0  0  0  0  0  0  0  0  0  0  0  0
  -11.2434  -27.4184  -31.0478 H   0  0  0  0  0  0  0  0  0  0  0  0
  -10.9454  -26.1203  -32.2077 H   0  0  0  0  0  0  0  0  0  0  0  0
  -13.3855  -26.0542  -32.7607 H   0  0  0  0  0  0  0  0  0  0  0  0
  -13.6836  -27.3523  -31.6008 H   0  0  0  0  0  0  0  0  0  0  0  0
  -12.1320  -28.8470  -32.8736 H   0  0  0  0  0  0  0  0  0  0  0  0
  -11.8317  -27.5490  -34.0330 H   0  0  0  0  0  0  0  0  0  0  0  0
  -14.2704  -27.4804  -34.5892 H   0  0  0  0  0  0  0  0  0  0  0  0
  -14.5722  -28.7772  -33.4288 H   0  0  0  0  0  0  0  0  0  0  0  0
  -13.0213  -30.2752  -34.6985 H   0  0  0  0  0  0  0  0  0  0  0  0
  -12.7175  -28.9787  -35.8586 H   0  0  0  0  0  0  0  0  0  0  0  0
  -15.1555  -28.9069  -36.4178 H   0  0  0  0  0  0  0  0  0  0  0  0
  -15.4606  -30.2020  -35.2566 H   0  0  0  0  0  0  0  0  0  0  0  0
  -13.9083  -31.7028  -36.5235 H   0  0  0  0  0  0  0  0  0  0  0  0
  -13.6052  -30.4076  -37.6853 H   0  0  0  0  0  0  0  0  0  0  0  0
  -16.0442  -30.3368  -38.2426 H   0  0  0  0  0  0  0  0  0  0  0  0
  -16.3474  -31.6318  -37.0806 H   0  0  0  0  0  0  0  0  0  0  0  0
  -14.7960  -33.1322  -38.3480 H   0  0  0  0  0  0  0  0  0  0  0  0
  -14.4927  -31.8372  -39.5099 H   0  0  0  0  0  0  0  0  0  0  0  0
  -16.9318  -31.7661  -40.0672 H   0  0  0  0  0  0  0  0  0  0  0  0
  -17.2348  -33.0612  -38.9054 H   0  0  0  0  0  0  0  0  0  0  0  0
  -15.6840  -34.5617  -40.1726 H   0  0  0  0  0  0  0  0  0  0  0  0
  -15.3791  -33.2667  -41.3344 H   0  0  0  0  0  0  0  0  0  0  0  0
  -17.8183  -33.1946  -41.8927 H   0  0  0  0  0  0  0  0  0  0  0  0
  -18.1216  -34.4877  -40.7288 H   0  0  0  0  0  0  0  0  0  0  0  0
  -16.5706  -35.9903  -41.9984 H   0  0  0  0  0  0  0  0  0  0  0  0
  -16.2678  -34.6952  -43.1598 H   0  0  0  0  0  0  0  0  0  0  0  0
  -18.7066  -34.6243  -43.7174 H   0  0  0  0  0  0  0  0  0  0  0  0
  -19.0106  -35.9186  -42.5552 H   0  0  0  0  0  0  0  0  0  0  0  0
  -17.4596  -37.4203  -43.8227 H   0  0  0  0  0  0  0  0  0  0  0  0
  -17.1557  -36.1252  -44.9843 H   0  0  0  0  0  0  0  0  0  0  0  0
  -19.5931  -36.0530  -45.5434 H   0  0  0  0  0  0  0  0  0  0  0  0
  -19.8990  -37.3479  -44.3824 H   0  0  0  0  0  0  0  0  0  0  0  0
  -18.3452  -38.8491  -45.6519 H   0  0  0  0  0  0  0  0  0  0  0  0
  -18.0411  -37.5516  -46.8098 H   0  0  0  0  0  0  0  0  0  0  0  0
  -20.4790  -37.4778  -47.3704 H   0  0  0  0  0  0  0  0  0  0  0  0
  -20.7858  -38.7742  -46.2112 H   0  0  0  0  0  0  0  0  0  0  0  0
  -19.2368  -40.2754  -47.4795 H   0  0  0  0  0  0  0  0  0  0  0  0
  -18.9284  -38.9788  -48.6380 H   0  0  0  0  0  0  0  0  0  0  0  0
  -21.3670  -38.9011  -49.1999 H   0  0  0  0  0  0  0  0  0  0  0  0
  -21.6737  -40.1986  -48.0425 H   0  0  0  0  0  0  0  0  0  0  0  0
  -20.1233  -41.6985  -49.3105 H   0  0  0  0  0  0  0  0  0  0  0  0
  -19.8146  -40.4007  -50.4678 H   0  0  0  0  0  0  0  0  0  0  0  0
  -22.2495  -40.3217  -51.0338 H   0  0  0  0  0  0  0  0  0  0  0  0
  -22.5620  -41.6190  -49.8764 H   0  0  0  0  0  0  0  0  0  0  0  0
  -21.0076  -43.1199  -51.1427 H   0  0  0  0  0  0  0  0  0  0  0  0
  -20.6985  -41.8225  -52.2998 H   0  0  0  0  0  0  0  0  0  0  0  0
  -23.1438  -41.7459  -52.8649 H   0  0  0  0  0  0  0  0  0  0  0  0
  -23.4421  -43.0441  -51.7091 H   0  0  0  0  0  0  0  0  0  0  0  0
  -21.8905  -44.5419  -52.9779 H   0  0  0  0  0  0  0  0  0  0  0  0
  -21.5832  -43.2430  -54.1375 H   0  0  0  0  0  0  0  0  0  0  0  0
  -24.0236  -43.1695  -54.6934 H   0  0  0  0  0  0  0  0  0  0  0  0
  -24.3280  -44.4679  -53.5358 H   0  0  0  0  0  0  0  0  0  0  0  0
  -22.7769  -45.9653  -54.8065 H   0  0  0  0  0  0  0  0  0  0  0  0
  -22.4731  -44.6678  -55.9647 H   0  0  0  0  0  0  0  0  0  0  0  0
  -24.9140  -44.5927  -56.5212 H   0  0  0  0  0  0  0  0  0  0  0  0
  -25.2156  -45.8929  -55.3631 H   0  0  0  0  0  0  0  0  0  0  0  0
  -23.6658  -47.3901  -56.6357 H   0  0  0  0  0  0  0  0  0  0  0  0
  -23.3591  -46.0912  -57.7929 H   0  0  0  0  0  0  0  0  0  0  0  0
  -25.7966  -46.0153  -58.3553 H   0  0  0  0  0  0  0  0  0  0  0  0
  -26.1050  -47.3127  -57.1977 H   0  0  0  0  0  0  0  0  0  0  0  0
  -24.5504  -48.8116  -58.4662 H   0  0  0  0  0  0  0  0  0  0  0  0
  -24.2467  -47.5139  -59.6250 H   0  0  0  0  0  0  0  0  0  0  0  0
  -26.6857  -47.4435  -60.1841 H   0  0  0  0  0  0  0  0  0  0  0  0
  -26.9884  -48.7417  -59.0257 H   0  0  0  0  0  0  0  0  0  0  0  0
  -25.4397  -50.2398  -60.2972 H   0  0  0  0  0  0  0  0  0  0  0  0
  -25.1332  -48.9424  -61.4552 H   0  0  0  0  0  0  0  0  0  0  0  0
  -27.5734  -48.8675  -62.0149 H   0  0  0  0  0  0  0  0  0  0  0  0
  -27.8773  -50.1671  -60.8583 H   0  0  0  0  0  0  0  0  0  0  0  0
  -26.3292  -51.6643  -62.1341 H   0  0  0  0  0  0  0  0  0  0  0  0
  -26.0254  -50.3651  -63.2907 H   0  0  0  0  0  0  0  0  0  0  0  0
  -28.4646  -50.2967  -63.8542 H   0  0  0  0  0  0  0  0  0  0  0  0
  -28.7680  -51.5963  -62.6979 H   0  0  0  0  0  0  0  0  0  0  0  0
  -27.2160  -53.0921  -63.9736 H   0  0  0  0  0  0  0  0  0  0  0  0
  -26.9147  -51.7930  -65.1299 H   0  0  0  0  0  0  0  0  0  0  0  0
  -29.3535  -51.7426  -65.7090 H   0  0  0  0  0  0  0  0  0  0  0  0
  -29.6547  -53.0421  -64.5523 H   0  0  0  0  0  0  0  0  0  0  0  0
  -27.8214  -53.2409  -66.9997 H   0  0  0  0  0  0  0  0  0  0  0  0
  -29.4458  -53.9384  -66.8522 H   0  0  0  0  0  0  0  0  0  0  0  0
  -28.1241  -54.5467  -65.8372 H   0  0  0  0  0  0  0  0  0  0  0  0
  1  2  1  0  0  0  0
  1 80  1  0  0  0  0
  1 81  1  0  0  0  0
  1 82  1  0  0  0  0
  2  3  1  0  0  0  0
  2  6  1  0  0  0  0
  3  4  1  0  0  0  0
  3 83  1  0  0  0  0
  3 84  1  0  0  0  0
  4  5  1  0  0  0  0
  4 85  1  0  0  0  0
  5  6  1  0  0  0  0
  6  7  1  0  0  0  0
  6 86  1  0  0  0  0
  7  8  1  0  0  0  0
  7 87  1  0  0  0  0
  7 88  1  0  0  0  0
  8  9  1  0  0  0  0
  8 89  1  0  0  0  0
  8 90  1  0  0  0  0
  9 10  1  0  0  0  0
  9 91  1  0  0  0  0
  9 92  1  0  0  0  0
 10 11  1  0  0  0  0
 10 93  1  0  0  0  0
 10 94  1  0  0  0  0
 11 12  1  0  0  0  0
 11 95  1  0  0  0  0
 11 96  1  0  0  0  0
 12 13  1  0  0  0  0
 12 97  1  0  0  0  0
 12 98  1  0  0  0  0
 13 14  1  0  0  0  0
 13 99  1  0  0  0  0
 13100  1  0  0  0  0
 14 15  1  0  0  0  0
 14101  1  0  0  0  0
 14102  1  0  0  0  0
 15 16  1  0  0  0  0
 15103  1  0  0  0  0
 15104  1  0  0  0  0
 16 17  1  0  0  0  0
 16105  1  0  0  0  0
 16106  1  0  0  0  0
 17 18  1  0  0  0  0
 17107  1  0  0  0  0
 17108  1  0  0  0  0
 18 19  1  0  0  0  0
 18109  1  0  0  0  0
 18110  1  0  0  0  0
 19 20  1  0  0  0  0
 19111  1  0  0  0  0
 19112  1  0  0  0  0
 20 21  1  0  0  0  0
 20113  1  0  0  0  0
 20114  1  0  0  0  0
 21 22  1  0  0  0  0
 21115  1  0  0  0  0
 21116  1  0  0  0  0
 22 23  1  0  0  0  0
 22117  1  0  0  0  0
 22118  1  0  0  0  0
 23 24  1  0  0  0  0
 23119  1  0  0  0  0
 23120  1  0  0  0  0
 24 25  1  0  0  0  0
 24121  1  0  0  0  0
 24122  1  0  0  0  0
 25 26  1  0  0  0  0
 25123  1  0  0  0  0
 25124  1  0  0  0  0
 26 27  1  0  0  0  0
 26125  1  0  0  0  0
 26126  1  0  0  0  0
 27 28  1  0  0  0  0
 27127  1  0  0  0  0
 27128  1  0  0  0  0
 28 29  1  0  0  0  0
 28129  1  0  0  0  0
 28130  1  0  0  0  0
 29 30  1  0  0  0  0
 29131  1  0  0  0  0
 29132  1  0  0  0  0
 30 31  1  0  0  0  0
 30133  1  0  0  0  0
 30134  1  0  0  0  0
 31 32  1  0  0  0  0
 31135  1  0  0  0  0
 31136  1  0  0  0  0
 32 33  1  0  0  0  0
 32137  1  0  0  0  0
 32138  1  0  0  0  0
 33 34  1  0  0  0  0
 33139  1  0  0  0  0
 33140  1  0  0  0  0
 34 35  1  0  0  0  0
 34141  1  0  0  0  0
 34142  1  0  0  0  0
 35 36  1  0  0  0  0
 35143  1  0  0  0  0
 35144  1  0  0  0  0
 36 37  1  0  0  0  0
 36145  1  0  0  0  0
 36146  1  0  0  0  0
 37 38  1  0  0  0  0
 37147  1  0  0  0  0
 37148  1  0  0  0  0
 38 39  1  0  0  0  0
 38149  1  0  0  0  0
 38150  1  0  0  0  0
 39 40  1  0  0  0  0
 39151  1  0  0  0  0
 39152  1  0  0  0  0
 40 41  1  0  0  0  0
 40153  1  0  0  0  0
 40154  1  0  0  0  0
 41 42  1  0  0  0  0
 41155  1  0  0  0  0
 41156  1  0  0  0  0
 42 43  1  0  0  0  0
 42157  1  0  0  0  0
 42158  1  0  0  0  0
 43 44  1  0  0  0  0
 43159  1  0  0  0  0
 43160  1  0  0  0  0
 44 45  1  0  0  0  0
 44161  1  0  0  0  0
 44162  1  0  0  0  0
 45 46  1  0  0  0  0
 45163  1  0  0  0  0
 45164  1  0  0  0  0
 46 47  1  0  0  0  0
 46165  1  0  0  0  0
 46166  1  0  0  0  0
 47 48  1  0  0  0  0
 47167  1  0  0  0  0
 47168  1  0  0  0  0
 48 49  1  0  0  0  0
 48169  1  0  0  0  0
 48170  1  0  0  0  0
 49 50  1  0  0  0  0
 49171  1  0  0  0  0
 49172  1  0  0  0  0
 50 51  1  0  0  0  0
 50173  1  0  0  0  0
 50174  1  0  0  0  0
 51 52  1  0  0  0  0
 51175  1  0  0  0  0
 51176  1  0  0  0  0
 52 53  1  0  0  0  0
 52177  1  0  0  0  0
 52178  1  0  0  0  0
 53 54  1  0  0  0  0
 53179  1  0  0  0  0
 53180  1  0  0  0  0
 54 55  1  0  0  0  0
 54181  1  0  0  0  0
 54182  1  0  0  0  0
 55 56  1  0  0  0  0
 55183  1  0  0  0  0
 55184  1  0  0  0  0
 56 57  1  0  0  0  0
 56185  1  0  0  0  0
 56186  1  0  0  0  0
 57 58  1  0  0  0  0
 57187  1  0  0  0  0
 57188  1  0  0  0  0
 58 59  1  0  0  0  0
 58189  1  0  0  0  0
 58190  1  0  0  0  0
 59 60  1  0  0  0  0
 59191  1  0  0  0  0
 59192  1  0  0  0  0
 60 61  1  0  0  0  0
 60193  1  0  0  0  0
 60194  1  0  0  0  0
 61 62  1  0  0  0  0
 61195  1  0  0  0  0
 61196  1  0  0  0  0
 62 63  1  0  0  0  0
 62197  1  0  0  0  0
 62198  1  0  0  0  0
 63 64  1  0  0  0  0
 63199  1  0  0  0  0
 63200  1  0  0  0  0
 64 65  1  0  0  0  0
 64201  1  0  0  0  0
 64202  1  0  0  0  0
 65 66  1  0  0  0  0
 65203  1  0  0  0  0
 65204  1  0  0  0  0
 66 67  1  0  0  0  0
 66205  1  0  0  0  0
 66206  1  0  0  0  0
 67 68  1  0  0  0  0
 67207  1  0  0  0  0
 67208  1  0  0  0  0
 68 69  1  0  0  0  0
 68209  1  0  0  0  0
 68210  1  0  0  0  0
 69 70  1  0  0  0  0
 69211  1  0  0  0  0
 69212  1  0  0  0  0
 70 71  1  0  0  0  0
 70213  1  0  0  0  0
 70214  1  0  0  0  0
 71 72  1  0  0  0  0
 71215  1  0  0  0  0
 71216  1  0  0  0  0
 72 73  1  0  0  0  0
 72217  1  0  0  0  0
 72218  1  0  0  0  0
 73 74  1  0  0  0  0
 73219  1  0  0  0  0
 73220  1  0  0  0  0
 74 75  1  0  0  0  0
 74221  1  0  0  0  0
 74222  1  0  0  0  0
 75 76  1  0  0  0  0
 75223  1  0  0  0  0
 75224  1  0  0  0  0
 76 77  1  0  0  0  0
 76225  1  0  0  0  0
 76226  1  0  0  0  0
 77 78  1  0  0  0  0
 77227  1  0  0  0  0
 77228  1  0  0  0  0
 78 79  1  0  0  0  0
 78229  1  0  0  0  0
 78230  1  0  0  0  0
 79231  1  0  0  0  0
 79232  1  0  0  0  0
 79233  1  0  0  0  0
M  END
$$$$
