
 OpenBabel04232217023D

 88 87  0  0  0  0  0  0  0  0999 V2000
   10.2825   -9.4465   -3.3432 O   0  0  0  0  0  0  0  0  0  0  0  0
    9.8590   -8.1681   -2.3498 S   0  0  0  0  0  0  0  0  0  0  0  0
    8.0360   -8.3302   -2.2571 C   0  0  0  0  0  0  0  0  0  0  0  0
    7.4874   -7.1905   -1.3734 C   0  0  0  0  0  0  0  0  0  0  0  0
    7.7833   -5.7941   -1.8525 N   0  0  0  0  0  0  0  0  0  0  0  0
    7.1591   -5.4132   -3.3794 S   0  0  0  0  0  0  0  0  0  0  0  0
    7.7950   -3.4998   -3.6979 S   0  0  0  0  0  0  0  0  0  0  0  0
    9.8590   -3.4865   -3.7387 S   0  0  0  0  0  0  0  0  0  0  0  0
   10.5442   -4.7391   -5.2442 S   0  0  0  0  0  0  0  0  0  0  0  0
   12.6461   -4.7279   -5.1960 S   0  0  0  0  0  0  0  0  0  0  0  0
   13.3426   -6.0464   -6.6864 S   0  0  0  0  0  0  0  0  0  0  0  0
   15.4517   -6.0378   -6.6778 S   0  0  0  0  0  0  0  0  0  0  0  0
   16.1425   -7.3601   -8.1702 S   0  0  0  0  0  0  0  0  0  0  0  0
   18.2522   -7.3516   -8.1605 S   0  0  0  0  0  0  0  0  0  0  0  0
   18.9429   -8.6734   -9.6525 S   0  0  0  0  0  0  0  0  0  0  0  0
   21.0523   -8.6646   -9.6425 S   0  0  0  0  0  0  0  0  0  0  0  0
   21.7430   -9.9864  -11.1344 S   0  0  0  0  0  0  0  0  0  0  0  0
   23.8523   -9.9776  -11.1245 S   0  0  0  0  0  0  0  0  0  0  0  0
   24.5430  -11.2994  -12.6163 S   0  0  0  0  0  0  0  0  0  0  0  0
   26.6523  -11.2906  -12.6064 S   0  0  0  0  0  0  0  0  0  0  0  0
   27.3429  -12.6123  -14.0982 S   0  0  0  0  0  0  0  0  0  0  0  0
   29.4523  -12.6035  -14.0883 S   0  0  0  0  0  0  0  0  0  0  0  0
   30.1429  -13.9253  -15.5801 S   0  0  0  0  0  0  0  0  0  0  0  0
   32.2523  -13.9165  -15.5702 S   0  0  0  0  0  0  0  0  0  0  0  0
   32.9429  -15.2383  -17.0621 S   0  0  0  0  0  0  0  0  0  0  0  0
   35.0523  -15.2295  -17.0521 S   0  0  0  0  0  0  0  0  0  0  0  0
   35.7429  -16.5513  -18.5440 S   0  0  0  0  0  0  0  0  0  0  0  0
   37.8523  -16.5425  -18.5341 S   0  0  0  0  0  0  0  0  0  0  0  0
   38.5429  -17.8643  -20.0259 S   0  0  0  0  0  0  0  0  0  0  0  0
   40.6523  -17.8555  -20.0160 S   0  0  0  0  0  0  0  0  0  0  0  0
   41.3429  -19.1772  -21.5078 S   0  0  0  0  0  0  0  0  0  0  0  0
   43.4523  -19.1685  -21.4979 S   0  0  0  0  0  0  0  0  0  0  0  0
   44.1429  -20.4902  -22.9897 S   0  0  0  0  0  0  0  0  0  0  0  0
   46.2523  -20.4814  -22.9798 S   0  0  0  0  0  0  0  0  0  0  0  0
   46.9429  -21.8032  -24.4717 S   0  0  0  0  0  0  0  0  0  0  0  0
   49.0523  -21.7944  -24.4617 S   0  0  0  0  0  0  0  0  0  0  0  0
   49.7429  -23.1162  -25.9536 S   0  0  0  0  0  0  0  0  0  0  0  0
   51.8523  -23.1074  -25.9437 S   0  0  0  0  0  0  0  0  0  0  0  0
   52.5429  -24.4292  -27.4355 S   0  0  0  0  0  0  0  0  0  0  0  0
   54.6523  -24.4204  -27.4256 S   0  0  0  0  0  0  0  0  0  0  0  0
   55.3429  -25.7422  -28.9174 S   0  0  0  0  0  0  0  0  0  0  0  0
   57.4522  -25.7334  -28.9075 S   0  0  0  0  0  0  0  0  0  0  0  0
   58.1429  -27.0551  -30.3993 S   0  0  0  0  0  0  0  0  0  0  0  0
   60.2522  -27.0463  -30.3894 S   0  0  0  0  0  0  0  0  0  0  0  0
   60.9429  -28.3681  -31.8813 S   0  0  0  0  0  0  0  0  0  0  0  0
   63.0522  -28.3593  -31.8713 S   0  0  0  0  0  0  0  0  0  0  0  0
   63.7428  -29.6811  -33.3632 S   0  0  0  0  0  0  0  0  0  0  0  0
   65.8522  -29.6723  -33.3533 S   0  0  0  0  0  0  0  0  0  0  0  0
   66.5428  -30.9941  -34.8451 S   0  0  0  0  0  0  0  0  0  0  0  0
   68.6522  -30.9853  -34.8352 S   0  0  0  0  0  0  0  0  0  0  0  0
   69.3428  -32.3071  -36.3270 S   0  0  0  0  0  0  0  0  0  0  0  0
   71.4522  -32.2983  -36.3171 S   0  0  0  0  0  0  0  0  0  0  0  0
   72.1428  -33.6200  -37.8089 S   0  0  0  0  0  0  0  0  0  0  0  0
   74.2522  -33.6113  -37.7990 S   0  0  0  0  0  0  0  0  0  0  0  0
   74.9428  -34.9330  -39.2909 S   0  0  0  0  0  0  0  0  0  0  0  0
   77.0522  -34.9242  -39.2809 S   0  0  0  0  0  0  0  0  0  0  0  0
   77.7428  -36.2460  -40.7728 S   0  0  0  0  0  0  0  0  0  0  0  0
   79.8522  -36.2372  -40.7629 S   0  0  0  0  0  0  0  0  0  0  0  0
   80.5428  -37.5590  -42.2547 S   0  0  0  0  0  0  0  0  0  0  0  0
   82.6522  -37.5502  -42.2448 S   0  0  0  0  0  0  0  0  0  0  0  0
   83.3428  -38.8720  -43.7366 S   0  0  0  0  0  0  0  0  0  0  0  0
   85.4522  -38.8632  -43.7267 S   0  0  0  0  0  0  0  0  0  0  0  0
   86.1428  -40.1850  -45.2186 S   0  0  0  0  0  0  0  0  0  0  0  0
   88.2522  -40.1762  -45.2086 S   0  0  0  0  0  0  0  0  0  0  0  0
   88.9428  -41.4979  -46.7005 S   0  0  0  0  0  0  0  0  0  0  0  0
   91.0522  -41.4891  -46.6905 S   0  0  0  0  0  0  0  0  0  0  0  0
   91.7428  -42.8109  -48.1824 S   0  0  0  0  0  0  0  0  0  0  0  0
   93.8521  -42.8021  -48.1725 S   0  0  0  0  0  0  0  0  0  0  0  0
   94.5428  -44.1239  -49.6643 S   0  0  0  0  0  0  0  0  0  0  0  0
   96.6521  -44.1151  -49.6544 S   0  0  0  0  0  0  0  0  0  0  0  0
   97.3428  -45.4369  -51.1462 S   0  0  0  0  0  0  0  0  0  0  0  0
   99.4521  -45.4281  -51.1363 S   0  0  0  0  0  0  0  0  0  0  0  0
  100.1427  -46.7499  -52.6281 S   0  0  0  0  0  0  0  0  0  0  0  0
  102.2519  -46.7410  -52.6181 S   0  0  0  0  0  0  0  0  0  0  0  0
  102.9419  -48.0623  -54.1096 S   0  0  0  0  0  0  0  0  0  0  0  0
  105.0483  -48.0529  -54.0983 S   0  0  0  0  0  0  0  0  0  0  0  0
  105.7341  -49.3713  -55.5868 S   0  0  0  0  0  0  0  0  0  0  0  0
  107.8287  -49.3335  -55.5768 S   0  0  0  0  0  0  0  0  0  0  0  0
  108.5100  -50.6904  -57.0026 S   0  0  0  0  0  0  0  0  0  0  0  0
  110.5883  -50.6173  -57.0062 S   0  0  0  0  0  0  0  0  0  0  0  0
  111.1989  -51.3118  -55.1674 S   0  0  0  0  0  0  0  0  0  0  0  0
   11.3009   -9.4579   -3.4921 H   0  0  0  0  0  0  0  0  0  0  0  0
    7.7556   -9.3060   -1.8253 H   0  0  0  0  0  0  0  0  0  0  0  0
    7.5829   -8.2879   -3.2567 H   0  0  0  0  0  0  0  0  0  0  0  0
    7.9020   -7.2971   -0.3583 H   0  0  0  0  0  0  0  0  0  0  0  0
    6.3977   -7.3012   -1.2605 H   0  0  0  0  0  0  0  0  0  0  0  0
    8.7763   -5.6892   -1.8473 H   0  0  0  0  0  0  0  0  0  0  0  0
  112.5429  -51.2491  -55.2599 H   0  0  0  0  0  0  0  0  0  0  0  0
  1  2  1  0  0  0  0
  1 82  1  0  0  0  0
  2  3  1  0  0  0  0
  3  4  1  0  0  0  0
  3 83  1  0  0  0  0
  3 84  1  0  0  0  0
  4  5  1  0  0  0  0
  4 85  1  0  0  0  0
  4 86  1  0  0  0  0
  5  6  1  0  0  0  0
  5 87  1  0  0  0  0
  6  7  1  0  0  0  0
  7  8  1  0  0  0  0
  8  9  1  0  0  0  0
  9 10  1  0  0  0  0
 10 11  1  0  0  0  0
 11 12  1  0  0  0  0
 12 13  1  0  0  0  0
 13 14  1  0  0  0  0
 14 15  1  0  0  0  0
 15 16  1  0  0  0  0
 16 17  1  0  0  0  0
 17 18  1  0  0  0  0
 18 19  1  0  0  0  0
 19 20  1  0  0  0  0
 20 21  1  0  0  0  0
 21 22  1  0  0  0  0
 22 23  1  0  0  0  0
 23 24  1  0  0  0  0
 24 25  1  0  0  0  0
 25 26  1  0  0  0  0
 26 27  1  0  0  0  0
 27 28  1  0  0  0  0
 28 29  1  0  0  0  0
 29 30  1  0  0  0  0
 30 31  1  0  0  0  0
 31 32  1  0  0  0  0
 32 33  1  0  0  0  0
 33 34  1  0  0  0  0
 34 35  1  0  0  0  0
 35 36  1  0  0  0  0
 36 37  1  0  0  0  0
 37 38  1  0  0  0  0
 38 39  1  0  0  0  0
 39 40  1  0  0  0  0
 40 41  1  0  0  0  0
 41 42  1  0  0  0  0
 42 43  1  0  0  0  0
 43 44  1  0  0  0  0
 44 45  1  0  0  0  0
 45 46  1  0  0  0  0
 46 47  1  0  0  0  0
 47 48  1  0  0  0  0
 48 49  1  0  0  0  0
 49 50  1  0  0  0  0
 50 51  1  0  0  0  0
 51 52  1  0  0  0  0
 52 53  1  0  0  0  0
 53 54  1  0  0  0  0
 54 55  1  0  0  0  0
 55 56  1  0  0  0  0
 56 57  1  0  0  0  0
 57 58  1  0  0  0  0
 58 59  1  0  0  0  0
 59 60  1  0  0  0  0
 60 61  1  0  0  0  0
 61 62  1  0  0  0  0
 62 63  1  0  0  0  0
 63 64  1  0  0  0  0
 64 65  1  0  0  0  0
 65 66  1  0  0  0  0
 66 67  1  0  0  0  0
 67 68  1  0  0  0  0
 68 69  1  0  0  0  0
 69 70  1  0  0  0  0
 70 71  1  0  0  0  0
 71 72  1  0  0  0  0
 72 73  1  0  0  0  0
 73 74  1  0  0  0  0
 74 75  1  0  0  0  0
 75 76  1  0  0  0  0
 76 77  1  0  0  0  0
 77 78  1  0  0  0  0
 78 79  1  0  0  0  0
 79 80  1  0  0  0  0
 80 81  1  0  0  0  0
 81 88  1  0  0  0  0
M  END
$$$$
