
 OpenBabel04232216523D

 71 71  0  0  1  0  0  0  0  0999 V2000
    0.8910    0.1013   -0.0954 C   0  0  0  0  0  0  0  0  0  0  0  0
    2.4095    0.0966   -0.0868 C   0  0  0  0  0  0  0  0  0  0  0  0
    2.9459   -0.7829    1.0377 C   0  0  0  0  0  0  0  0  0  0  0  0
    4.4706   -0.7906    1.0472 C   0  0  0  0  0  0  0  0  0  0  0  0
    4.9941   -1.6723    2.1748 C   0  0  0  0  0  0  0  0  0  0  0  0
    6.5172   -1.6835    2.1886 C   0  0  0  0  0  0  0  0  0  0  0  0
    7.0326   -2.5663    3.3177 C   0  0  0  0  0  0  0  0  0  0  0  0
    8.5558   -2.5812    3.3355 C   0  0  0  0  0  0  0  0  0  0  0  0
    9.0667   -3.4639    4.4682 C   0  0  0  0  0  0  0  0  0  0  0  0
   10.5913   -3.4863    4.4978 C   0  0  0  0  0  0  0  0  0  0  0  0
   11.0965   -4.3728    5.6412 C   0  0  0  0  0  0  0  0  0  0  0  0
   12.6184   -4.3937    5.6890 C   0  0  0  0  0  0  0  0  0  0  0  0
   13.2020   -5.2637    6.8413 C   0  0  0  0  0  0  0  0  0  0  0  0
   14.7181   -5.1657    6.7962 C   0  0  0  0  0  0  0  0  0  0  0  0
   15.2105   -4.3678    5.9907 O   0  0  0  0  0  0  0  0  0  0  0  0
   15.6164   -6.0294    7.5863 C   0  0  0  0  0  0  0  0  0  0  0  0
   16.9084   -6.2710    7.0687 C   0  0  0  0  0  0  0  0  0  0  0  0
   17.2649   -6.9753    8.1680 C   0  0  0  0  0  0  0  0  0  0  0  0
   18.6664   -7.5978    8.2786 C   0  0  0  0  0  0  0  0  0  0  0  0
   19.5297   -7.7783    9.5191 C   0  0  3  0  0  0  0  0  0  0  0  0
   18.9892   -8.8252   10.3234 O   0  0  0  0  0  0  0  0  0  0  0  0
   21.0208   -8.1523    9.1876 C   0  0  0  0  0  0  0  0  0  0  0  0
   21.8190   -7.1135    8.3719 C   0  0  0  0  0  0  0  0  0  0  0  0
   23.2881   -7.5206    8.1393 C   0  0  0  0  0  0  0  0  0  0  0  0
   24.0394   -6.4656    7.3139 C   0  0  0  0  0  0  0  0  0  0  0  0
   25.4885   -6.8586    7.0593 C   0  0  0  0  0  0  0  0  0  0  0  0
   15.8966   -6.7883    8.6632 C   0  0  0  0  0  0  0  0  0  0  0  0
    0.5187    0.7351   -0.9054 H   0  0  0  0  0  0  0  0  0  0  0  0
    0.4969    0.4870    0.8502 H   0  0  0  0  0  0  0  0  0  0  0  0
    0.4988   -0.9099   -0.2438 H   0  0  0  0  0  0  0  0  0  0  0  0
    2.7759    1.1225    0.0352 H   0  0  0  0  0  0  0  0  0  0  0  0
    2.7777   -0.2677   -1.0529 H   0  0  0  0  0  0  0  0  0  0  0  0
    2.5743   -1.8077    0.9159 H   0  0  0  0  0  0  0  0  0  0  0  0
    2.5744   -0.4174    2.0030 H   0  0  0  0  0  0  0  0  0  0  0  0
    4.8473    0.2319    1.1727 H   0  0  0  0  0  0  0  0  0  0  0  0
    4.8470   -1.1591    0.0852 H   0  0  0  0  0  0  0  0  0  0  0  0
    4.6186   -2.6955    2.0506 H   0  0  0  0  0  0  0  0  0  0  0  0
    4.6189   -1.3049    3.1379 H   0  0  0  0  0  0  0  0  0  0  0  0
    6.8952   -0.6616    2.3148 H   0  0  0  0  0  0  0  0  0  0  0  0
    6.8949   -2.0527    1.2273 H   0  0  0  0  0  0  0  0  0  0  0  0
    6.6533   -3.5879    3.1918 H   0  0  0  0  0  0  0  0  0  0  0  0
    6.6541   -2.1968    4.2788 H   0  0  0  0  0  0  0  0  0  0  0  0
    8.9342   -1.5592    3.4597 H   0  0  0  0  0  0  0  0  0  0  0  0
    8.9332   -2.9521    2.3747 H   0  0  0  0  0  0  0  0  0  0  0  0
    8.6842   -4.4840    4.3410 H   0  0  0  0  0  0  0  0  0  0  0  0
    8.6840   -3.0910    5.4261 H   0  0  0  0  0  0  0  0  0  0  0  0
   10.9693   -2.4630    4.6183 H   0  0  0  0  0  0  0  0  0  0  0  0
   10.9709   -3.8560    3.5367 H   0  0  0  0  0  0  0  0  0  0  0  0
   10.7195   -5.3921    5.5053 H   0  0  0  0  0  0  0  0  0  0  0  0
   10.7068   -3.9952    6.5926 H   0  0  0  0  0  0  0  0  0  0  0  0
   12.9791   -3.3591    5.7830 H   0  0  0  0  0  0  0  0  0  0  0  0
   12.9980   -4.7578    4.7229 H   0  0  0  0  0  0  0  0  0  0  0  0
   12.8850   -6.3014    6.6951 H   0  0  0  0  0  0  0  0  0  0  0  0
   12.8366   -4.8938    7.8028 H   0  0  0  0  0  0  0  0  0  0  0  0
   17.4383   -5.9895    6.1740 H   0  0  0  0  0  0  0  0  0  0  0  0
   19.2504   -7.0035    7.5671 H   0  0  0  0  0  0  0  0  0  0  0  0
   18.5750   -8.5785    7.7883 H   0  0  0  0  0  0  0  0  0  0  0  0
   19.5344   -6.8626   10.1174 H   0  0  0  0  0  0  0  0  0  0  0  0
   18.8888   -9.6114    9.7588 H   0  0  0  0  0  0  0  0  0  0  0  0
   21.0570   -9.1209    8.6697 H   0  0  0  0  0  0  0  0  0  0  0  0
   21.5488   -8.3213   10.1362 H   0  0  0  0  0  0  0  0  0  0  0  0
   21.7968   -6.1498    8.8931 H   0  0  0  0  0  0  0  0  0  0  0  0
   21.3557   -6.9683    7.3909 H   0  0  0  0  0  0  0  0  0  0  0  0
   23.3286   -8.4825    7.6134 H   0  0  0  0  0  0  0  0  0  0  0  0
   23.7971   -7.6567    9.1011 H   0  0  0  0  0  0  0  0  0  0  0  0
   24.0197   -5.5012    7.8351 H   0  0  0  0  0  0  0  0  0  0  0  0
   23.5385   -6.3215    6.3493 H   0  0  0  0  0  0  0  0  0  0  0  0
   26.0369   -6.9731    7.9995 H   0  0  0  0  0  0  0  0  0  0  0  0
   25.9931   -6.0879    6.4662 H   0  0  0  0  0  0  0  0  0  0  0  0
   25.5505   -7.8016    6.5068 H   0  0  0  0  0  0  0  0  0  0  0  0
   15.3421   -7.0846    9.5465 H   0  0  0  0  0  0  0  0  0  0  0  0
  1  2  1  0  0  0  0
  1 28  1  0  0  0  0
  1 29  1  0  0  0  0
  1 30  1  0  0  0  0
  2  3  1  0  0  0  0
  2 31  1  0  0  0  0
  2 32  1  0  0  0  0
  3  4  1  0  0  0  0
  3 33  1  0  0  0  0
  3 34  1  0  0  0  0
  4  5  1  0  0  0  0
  4 35  1  0  0  0  0
  4 36  1  0  0  0  0
  5  6  1  0  0  0  0
  5 37  1  0  0  0  0
  5 38  1  0  0  0  0
  6  7  1  0  0  0  0
  6 39  1  0  0  0  0
  6 40  1  0  0  0  0
  7  8  1  0  0  0  0
  7 41  1  0  0  0  0
  7 42  1  0  0  0  0
  8  9  1  0  0  0  0
  8 43  1  0  0  0  0
  8 44  1  0  0  0  0
  9 10  1  0  0  0  0
  9 45  1  0  0  0  0
  9 46  1  0  0  0  0
 10 11  1  0  0  0  0
 10 47  1  0  0  0  0
 10 48  1  0  0  0  0
 11 12  1  0  0  0  0
 11 49  1  0  0  0  0
 11 50  1  0  0  0  0
 12 13  1  0  0  0  0
 12 51  1  0  0  0  0
 12 52  1  0  0  0  0
 13 14  1  0  0  0  0
 13 53  1  0  0  0  0
 13 54  1  0  0  0  0
 14 15  2  0  0  0  0
 14 16  1  0  0  0  0
 16 17  1  0  0  0  0
 16 27  2  0  0  0  0
 17 18  2  0  0  0  0
 17 55  1  0  0  0  0
 18 19  1  0  0  0  0
 18 27  1  0  0  0  0
 19 20  1  0  0  0  0
 19 56  1  0  0  0  0
 19 57  1  0  0  0  0
 20 21  1  0  0  0  0
 20 22  1  0  0  0  0
 20 58  1  0  0  0  0
 21 59  1  0  0  0  0
 22 23  1  0  0  0  0
 22 60  1  0  0  0  0
 22 61  1  0  0  0  0
 23 24  1  0  0  0  0
 23 62  1  0  0  0  0
 23 63  1  0  0  0  0
 24 25  1  0  0  0  0
 24 64  1  0  0  0  0
 24 65  1  0  0  0  0
 25 26  1  0  0  0  0
 25 66  1  0  0  0  0
 25 67  1  0  0  0  0
 26 68  1  0  0  0  0
 26 69  1  0  0  0  0
 26 70  1  0  0  0  0
 27 71  1  0  0  0  0
M  END
$$$$
