
 OpenBabel04232216543D

 59 60  0  0  0  0  0  0  0  0999 V2000
    2.2757   -4.9831   -1.4285 C   0  0  0  0  0  0  0  0  0  0  0  0
    3.4886   -4.8089   -0.5009 C   0  0  0  0  0  0  0  0  0  0  0  0
    4.8264   -4.0809   -0.9879 C   0  0  0  0  0  0  0  0  0  0  0  0
    5.7257   -4.7468   -2.1577 C   0  0  0  0  0  0  0  0  0  0  0  0
    7.3759   -4.4657   -2.2751 N   0  0  0  0  0  0  0  0  0  0  0  0
    7.6018   -3.0132   -2.2506 C   0  0  0  0  0  0  0  0  0  0  0  0
    7.9311   -2.2501   -0.9810 C   0  0  0  0  0  0  0  0  0  0  0  0
    7.3315   -2.2833   -3.3585 C   0  0  0  0  0  0  0  0  0  0  0  0
    8.3770   -1.4077   -3.8805 C   0  0  0  0  0  0  0  0  0  0  0  0
    8.6855   -1.6541   -5.1662 C   0  0  0  0  0  0  0  0  0  0  0  0
   10.0415   -2.1955   -5.5108 C   0  0  0  0  0  0  0  0  0  0  0  0
    9.7329   -3.3954   -6.4120 C   0  0  0  0  0  0  0  0  0  0  0  0
    9.0912   -3.3673   -7.4386 O   0  0  0  0  0  0  0  0  0  0  0  0
   10.1622   -4.5361   -5.7852 N   0  0  0  0  0  0  0  0  0  0  0  0
    9.4882   -5.7001   -5.5224 C   0  0  0  0  0  0  0  0  0  0  0  0
    9.3328   -5.7451   -4.0297 C   0  0  0  0  0  0  0  0  0  0  0  0
   10.8375   -6.0537   -3.5305 C   0  0  0  0  0  0  0  0  0  0  0  0
   12.2499   -6.2002   -4.4881 C   0  0  0  0  0  0  0  0  0  0  0  0
   12.9031   -5.2029   -5.5469 C   0  0  0  0  0  0  0  0  0  0  0  0
   13.1179   -5.7040   -7.0123 C   0  0  0  0  0  0  0  0  0  0  0  0
   12.2446   -5.0263   -8.0816 C   0  0  0  0  0  0  0  0  0  0  0  0
   11.1265   -5.8749   -8.6984 C   0  0  0  0  0  0  0  0  0  0  0  0
    9.8925   -6.4508   -7.9355 C   0  0  0  0  0  0  0  0  0  0  0  0
    9.6801   -6.6918   -6.4320 C   0  0  0  0  0  0  0  0  0  0  0  0
    8.1192   -5.1930   -3.5054 C   0  0  0  0  0  0  0  0  0  0  0  0
    1.5492   -5.6731   -0.9627 H   0  0  0  0  0  0  0  0  0  0  0  0
    2.5384   -5.4072   -2.3977 H   0  0  0  0  0  0  0  0  0  0  0  0
    1.7194   -4.0488   -1.5774 H   0  0  0  0  0  0  0  0  0  0  0  0
    3.7442   -5.7956   -0.0998 H   0  0  0  0  0  0  0  0  0  0  0  0
    3.0904   -4.2474    0.3638 H   0  0  0  0  0  0  0  0  0  0  0  0
    5.4244   -3.9510   -0.0776 H   0  0  0  0  0  0  0  0  0  0  0  0
    4.5124   -3.0675   -1.2858 H   0  0  0  0  0  0  0  0  0  0  0  0
    5.2932   -4.3667   -3.0902 H   0  0  0  0  0  0  0  0  0  0  0  0
    5.6016   -5.8267   -2.1077 H   0  0  0  0  0  0  0  0  0  0  0  0
    7.0028   -1.9137   -0.4960 H   0  0  0  0  0  0  0  0  0  0  0  0
    8.4823   -1.3195   -1.1834 H   0  0  0  0  0  0  0  0  0  0  0  0
    8.5205   -2.8150   -0.2595 H   0  0  0  0  0  0  0  0  0  0  0  0
    6.7363   -2.7577   -4.1384 H   0  0  0  0  0  0  0  0  0  0  0  0
    9.1757   -1.1228   -3.1998 H   0  0  0  0  0  0  0  0  0  0  0  0
    7.8926   -2.0577   -5.8048 H   0  0  0  0  0  0  0  0  0  0  0  0
   10.5410   -2.5301   -4.5782 H   0  0  0  0  0  0  0  0  0  0  0  0
   10.7240   -1.5229   -6.0115 H   0  0  0  0  0  0  0  0  0  0  0  0
   10.6781   -4.2902   -4.9650 H   0  0  0  0  0  0  0  0  0  0  0  0
   10.7635   -7.0759   -3.1297 H   0  0  0  0  0  0  0  0  0  0  0  0
   11.0948   -5.4057   -2.6855 H   0  0  0  0  0  0  0  0  0  0  0  0
   12.2565   -7.2030   -4.9366 H   0  0  0  0  0  0  0  0  0  0  0  0
   13.0376   -6.2580   -3.7175 H   0  0  0  0  0  0  0  0  0  0  0  0
   13.9385   -5.0432   -5.1997 H   0  0  0  0  0  0  0  0  0  0  0  0
   12.5151   -4.1841   -5.5354 H   0  0  0  0  0  0  0  0  0  0  0  0
   13.0815   -6.7931   -7.1129 H   0  0  0  0  0  0  0  0  0  0  0  0
   14.1502   -5.4329   -7.2906 H   0  0  0  0  0  0  0  0  0  0  0  0
   12.9122   -4.7810   -8.9329 H   0  0  0  0  0  0  0  0  0  0  0  0
   11.8917   -4.0419   -7.7678 H   0  0  0  0  0  0  0  0  0  0  0  0
   11.6026   -6.6885   -9.2663 H   0  0  0  0  0  0  0  0  0  0  0  0
   10.6973   -5.2386   -9.4929 H   0  0  0  0  0  0  0  0  0  0  0  0
    9.6778   -7.4100   -8.4359 H   0  0  0  0  0  0  0  0  0  0  0  0
    9.0408   -5.8269   -8.2387 H   0  0  0  0  0  0  0  0  0  0  0  0
    9.5757   -7.7384   -6.1425 H   0  0  0  0  0  0  0  0  0  0  0  0
    7.3201   -5.1219   -4.2544 H   0  0  0  0  0  0  0  0  0  0  0  0
  1  2  1  0  0  0  0
  1 26  1  0  0  0  0
  1 27  1  0  0  0  0
  1 28  1  0  0  0  0
  2  3  1  0  0  0  0
  2 29  1  0  0  0  0
  2 30  1  0  0  0  0
  3  4  1  0  0  0  0
  3 31  1  0  0  0  0
  3 32  1  0  0  0  0
  4  5  1  0  0  0  0
  4 33  1  0  0  0  0
  4 34  1  0  0  0  0
  5  6  1  0  0  0  0
  5 25  1  0  0  0  0
  6  7  1  0  0  0  0
  6  8  2  3  0  0  0
  7 35  1  0  0  0  0
  7 36  1  0  0  0  0
  7 37  1  0  0  0  0
  8  9  1  0  0  0  0
  8 38  1  0  0  0  0
  9 10  2  3  0  0  0
  9 39  1  0  0  0  0
 10 11  1  0  0  0  0
 10 40  1  0  0  0  0
 11 12  1  0  0  0  0
 11 41  1  0  0  0  0
 11 42  1  0  0  0  0
 12 13  2  0  0  0  0
 12 14  1  0  0  0  0
 14 15  1  0  0  0  0
 14 43  1  0  0  0  0
 15 16  1  0  0  0  0
 15 24  2  3  0  0  0
 16 17  1  0  0  0  0
 16 25  2  3  0  0  0
 17 18  1  0  0  0  0
 17 44  1  0  0  0  0
 17 45  1  0  0  0  0
 18 19  1  0  0  0  0
 18 46  1  0  0  0  0
 18 47  1  0  0  0  0
 19 20  1  0  0  0  0
 19 48  1  0  0  0  0
 19 49  1  0  0  0  0
 20 21  1  0  0  0  0
 20 50  1  0  0  0  0
 20 51  1  0  0  0  0
 21 22  1  0  0  0  0
 21 52  1  0  0  0  0
 21 53  1  0  0  0  0
 22 23  1  0  0  0  0
 22 54  1  0  0  0  0
 22 55  1  0  0  0  0
 23 24  1  0  0  0  0
 23 56  1  0  0  0  0
 23 57  1  0  0  0  0
 24 58  1  0  0  0  0
 25 59  1  0  0  0  0
M  END
$$$$
