
 OpenBabel04232216533D

121120  0  0  0  0  0  0  0  0999 V2000
   10.3420   -1.4863    5.0182 C   0  0  0  0  0  0  0  0  0  0  0  0
    9.8721   -0.7545    3.7736 C   0  0  0  0  0  0  0  0  0  0  0  0
   10.4017   -1.4345    2.5130 C   0  0  0  0  0  0  0  0  0  0  0  0
    9.9242   -0.7164    1.2554 C   0  0  0  0  0  0  0  0  0  0  0  0
   10.4855   -1.3752   -0.0003 C   0  0  0  0  0  0  0  0  0  0  0  0
   10.0319   -0.6296   -1.2455 C   0  0  0  0  0  0  0  0  0  0  0  0
   10.6637   -1.2000   -2.3814 O   0  0  0  0  0  0  0  0  0  0  0  0
   10.0538   -0.5259   -3.5152 O   0  0  0  0  0  0  0  0  0  0  0  0
   10.3882   -1.1978   -4.7513 O   0  0  0  0  0  0  0  0  0  0  0  0
    9.8532   -2.5454   -4.7569 O   0  0  0  0  0  0  0  0  0  0  0  0
   10.4178   -3.3077   -5.8483 O   0  0  0  0  0  0  0  0  0  0  0  0
   11.8586   -3.4185   -5.7065 O   0  0  0  0  0  0  0  0  0  0  0  0
   12.3066   -3.9291   -6.9474 C   0  0  0  0  0  0  0  0  0  0  0  0
   13.7251   -3.9426   -6.9767 O   0  0  0  0  0  0  0  0  0  0  0  0
   14.1963   -4.5289   -8.1150 C   0  0  0  0  0  0  0  0  0  0  0  0
   15.7303   -4.5042   -8.1444 C   0  0  0  0  0  0  0  0  0  0  0  0
   16.1869   -5.1990   -9.3974 C   0  0  0  0  0  0  0  0  0  0  0  0
   17.6960   -5.1890   -9.3397 C   0  0  0  0  0  0  0  0  0  0  0  0
   18.2001   -5.8708  -10.5892 C   0  0  0  0  0  0  0  0  0  0  0  0
   19.7017   -5.8629  -10.5711 C   0  0  0  0  0  0  0  0  0  0  0  0
   20.1721   -6.5181  -11.8336 C   0  0  0  0  0  0  0  0  0  0  0  0
   21.6732   -6.5232  -11.8254 C   0  0  0  0  0  0  0  0  0  0  0  0
   22.1130   -7.2134  -13.0794 C   0  0  0  0  0  0  0  0  0  0  0  0
   23.6054   -7.2349  -13.0994 C   0  0  0  0  0  0  0  0  0  0  0  0
   24.0156   -7.9425  -14.3425 C   0  0  0  0  0  0  0  0  0  0  0  0
   25.4210   -7.9467  -14.2681 O   0  0  0  0  0  0  0  0  0  0  0  0
   25.9703   -8.5016  -15.4124 C   0  0  0  0  0  0  0  0  0  0  0  0
   27.3470   -8.2931  -15.2798 O   0  0  0  0  0  0  0  0  0  0  0  0
   27.9224   -8.6991  -16.5134 O   0  0  0  0  0  0  0  0  0  0  0  0
   29.1687   -9.3106  -16.2108 O   0  0  0  0  0  0  0  0  0  0  0  0
   29.6969   -9.9706  -17.3527 O   0  0  0  0  0  0  0  0  0  0  0  0
   30.8947   -9.2908  -17.7387 O   0  0  0  0  0  0  0  0  0  0  0  0
   31.4693   -9.9284  -18.8746 O   0  0  0  0  0  0  0  0  0  0  0  0
   32.6724  -10.5883  -18.4694 O   0  0  0  0  0  0  0  0  0  0  0  0
   33.1990  -11.3251  -19.5651 O   0  0  0  0  0  0  0  0  0  0  0  0
   34.3509  -10.6545  -20.0849 O   0  0  0  0  0  0  0  0  0  0  0  0
   34.7665  -11.3539  -21.2495 O   0  0  0  0  0  0  0  0  0  0  0  0
   36.0121  -12.0046  -21.0237 O   0  0  0  0  0  0  0  0  0  0  0  0
   36.7388  -11.9461  -22.2478 O   0  0  0  0  0  0  0  0  0  0  0  0
   38.1237  -11.9307  -21.9625 O   0  0  0  0  0  0  0  0  0  0  0  0
   38.7726  -12.9432  -22.7213 O   0  0  0  0  0  0  0  0  0  0  0  0
   39.9482  -12.3562  -23.2690 O   0  0  0  0  0  0  0  0  0  0  0  0
   40.3501  -13.0708  -24.4203 O   0  0  0  0  0  0  0  0  0  0  0  0
   41.5237  -13.8095  -24.0930 O   0  0  0  0  0  0  0  0  0  0  0  0
   42.0665  -14.3213  -25.2887 O   0  0  0  0  0  0  0  0  0  0  0  0
   43.2768  -13.6466  -25.6123 O   0  0  0  0  0  0  0  0  0  0  0  0
   43.7908  -14.3192  -26.7400 O   0  0  0  0  0  0  0  0  0  0  0  0
   45.0769  -14.8624  -26.4941 O   0  0  0  0  0  0  0  0  0  0  0  0
   45.6565  -14.9736  -27.7863 O   0  0  0  0  0  0  0  0  0  0  0  0
   47.0625  -14.9311  -27.7202 O   0  0  0  0  0  0  0  0  0  0  0  0
   47.5521  -16.0968  -28.3801 O   0  0  0  0  0  0  0  0  0  0  0  0
   48.9456  -15.9472  -28.5909 O   0  0  0  0  0  0  0  0  0  0  0  0
   49.2323  -15.9047  -29.9910 O   0  0  0  0  0  0  0  0  0  0  0  0
   50.6457  -16.0454  -30.1585 O   0  0  0  0  0  0  0  0  0  0  0  0
   50.9591  -17.3706  -30.6171 O   0  0  0  0  0  0  0  0  0  0  0  0
   52.3768  -17.4730  -30.8202 O   0  0  0  0  0  0  0  0  0  0  0  0
   52.6971  -17.0751  -32.1658 O   0  0  0  0  0  0  0  0  0  0  0  0
   54.1199  -17.0511  -32.3457 O   0  0  0  0  0  0  0  0  0  0  0  0
   54.5251  -18.1774  -33.1411 O   0  0  0  0  0  0  0  0  0  0  0  0
   55.9297  -18.4037  -32.9680 O   0  0  0  0  0  0  0  0  0  0  0  0
   56.4387  -19.2127  -34.0404 O   0  0  0  0  0  0  0  0  0  0  0  0
   57.8372  -18.9377  -34.2133 O   0  0  0  0  0  0  0  0  0  0  0  0
   58.1463  -18.7430  -35.6043 O   0  0  0  0  0  0  0  0  0  0  0  0
   59.5651  -18.8966  -35.8024 O   0  0  0  0  0  0  0  0  0  0  0  0
   59.8706  -20.2569  -36.1762 O   0  0  0  0  0  0  0  0  0  0  0  0
   61.2960  -20.4192  -36.3232 O   0  0  0  0  0  0  0  0  0  0  0  0
   61.6661  -20.2026  -37.7003 O   0  0  0  0  0  0  0  0  0  0  0  0
   63.0992  -20.2127  -37.8471 O   0  0  0  0  0  0  0  0  0  0  0  0
   63.4855  -21.3748  -38.6031 O   0  0  0  0  0  0  0  0  0  0  0  0
   64.9175  -21.4893  -38.6761 O   0  0  0  0  0  0  0  0  0  0  0  0
   65.2984  -21.6387  -40.0556 O   0  0  0  0  0  0  0  0  0  0  0  0
   66.7136  -21.4688  -40.2179 O   0  0  0  0  0  0  0  0  0  0  0  0
   67.2505  -22.5981  -40.9338 O   0  0  0  0  0  0  0  0  0  0  0  0
   68.6834  -22.5355  -40.9271 O   0  0  0  0  0  0  0  0  0  0  0  0
   69.2104  -22.7053  -42.2575 O   0  0  0  0  0  0  0  0  0  0  0  0
   70.5805  -23.1445  -42.1540 O   0  0  0  0  0  0  0  0  0  0  0  0
   70.9849  -23.8563  -43.3365 O   0  0  0  0  0  0  0  0  0  0  0  0
   72.2670  -23.3641  -43.7900 O   0  0  0  0  0  0  0  0  0  0  0  0
   72.8545  -24.3028  -44.7199 O   0  0  0  0  0  0  0  0  0  0  0  0
   74.2924  -24.3490  -44.5662 O   0  0  0  0  0  0  0  0  0  0  0  0
   74.6598  -25.1334  -43.4052 O   0  0  0  0  0  0  0  0  0  0  0  0
    9.9552   -0.9940    5.9191 H   0  0  0  0  0  0  0  0  0  0  0  0
   11.4350   -1.4955    5.0785 H   0  0  0  0  0  0  0  0  0  0  0  0
    9.9902   -2.5230    5.0158 H   0  0  0  0  0  0  0  0  0  0  0  0
   10.2157    0.2862    3.8103 H   0  0  0  0  0  0  0  0  0  0  0  0
    8.7765   -0.7326    3.7560 H   0  0  0  0  0  0  0  0  0  0  0  0
   10.0697   -2.4796    2.4883 H   0  0  0  0  0  0  0  0  0  0  0  0
   11.4984   -1.4447    2.5357 H   0  0  0  0  0  0  0  0  0  0  0  0
   10.2443    0.3324    1.2898 H   0  0  0  0  0  0  0  0  0  0  0  0
    8.8281   -0.7186    1.2185 H   0  0  0  0  0  0  0  0  0  0  0  0
   10.1660   -2.4234   -0.0629 H   0  0  0  0  0  0  0  0  0  0  0  0
   11.5817   -1.3962    0.0371 H   0  0  0  0  0  0  0  0  0  0  0  0
   10.3145    0.4260   -1.1852 H   0  0  0  0  0  0  0  0  0  0  0  0
    8.9429   -0.7022   -1.3528 H   0  0  0  0  0  0  0  0  0  0  0  0
   11.9292   -3.2984   -7.7676 H   0  0  0  0  0  0  0  0  0  0  0  0
   11.9197   -4.9497   -7.0569 H   0  0  0  0  0  0  0  0  0  0  0  0
   13.8210   -4.0003   -9.0371 H   0  0  0  0  0  0  0  0  0  0  0  0
   13.8613   -5.5789   -8.2234 H   0  0  0  0  0  0  0  0  0  0  0  0
   16.0749   -5.0401   -7.2531 H   0  0  0  0  0  0  0  0  0  0  0  0
   16.1080   -3.4779   -8.0996 H   0  0  0  0  0  0  0  0  0  0  0  0
   15.8450   -4.6688  -10.2870 H   0  0  0  0  0  0  0  0  0  0  0  0
   15.8232   -6.2034   -9.4406 H   0  0  0  0  0  0  0  0  0  0  0  0
   18.0414   -5.7134   -8.4399 H   0  0  0  0  0  0  0  0  0  0  0  0
   18.0832   -4.1546   -9.2960 H   0  0  0  0  0  0  0  0  0  0  0  0
   17.8132   -5.3515  -11.4728 H   0  0  0  0  0  0  0  0  0  0  0  0
   17.8239   -6.8997  -10.6277 H   0  0  0  0  0  0  0  0  0  0  0  0
   20.0706   -6.4105   -9.6953 H   0  0  0  0  0  0  0  0  0  0  0  0
   20.0826   -4.8377  -10.5009 H   0  0  0  0  0  0  0  0  0  0  0  0
   19.7962   -5.9849  -12.7158 H   0  0  0  0  0  0  0  0  0  0  0  0
   19.7965   -7.5478  -11.8905 H   0  0  0  0  0  0  0  0  0  0  0  0
   22.0484   -7.0543  -10.9421 H   0  0  0  0  0  0  0  0  0  0  0  0
   22.0699   -5.5006  -11.7877 H   0  0  0  0  0  0  0  0  0  0  0  0
   21.7311   -6.6943  -13.9656 H   0  0  0  0  0  0  0  0  0  0  0  0
   21.7243   -8.2416  -13.1101 H   0  0  0  0  0  0  0  0  0  0  0  0
   24.0154   -7.7490  -12.2215 H   0  0  0  0  0  0  0  0  0  0  0  0
   24.0096   -6.2216  -13.0673 H   0  0  0  0  0  0  0  0  0  0  0  0
   23.6771   -7.3918  -15.2432 H   0  0  0  0  0  0  0  0  0  0  0  0
   23.6391   -8.9591  -14.3839 H   0  0  0  0  0  0  0  0  0  0  0  0
   25.6039   -7.9657  -16.3170 H   0  0  0  0  0  0  0  0  0  0  0  0
   25.7221   -9.5614  -15.4856 H   0  0  0  0  0  0  0  0  0  0  0  0
   75.5538  -24.7610  -43.3218 H   0  0  0  0  0  0  0  0  0  0  0  0
  1  2  1  0  0  0  0
  1 82  1  0  0  0  0
  1 83  1  0  0  0  0
  1 84  1  0  0  0  0
  2  3  1  0  0  0  0
  2 85  1  0  0  0  0
  2 86  1  0  0  0  0
  3  4  1  0  0  0  0
  3 87  1  0  0  0  0
  3 88  1  0  0  0  0
  4  5  1  0  0  0  0
  4 89  1  0  0  0  0
  4 90  1  0  0  0  0
  5  6  1  0  0  0  0
  5 91  1  0  0  0  0
  5 92  1  0  0  0  0
  6  7  1  0  0  0  0
  6 93  1  0  0  0  0
  6 94  1  0  0  0  0
  7  8  1  0  0  0  0
  8  9  1  0  0  0  0
  9 10  1  0  0  0  0
 10 11  1  0  0  0  0
 11 12  1  0  0  0  0
 12 13  1  0  0  0  0
 13 14  1  0  0  0  0
 13 95  1  0  0  0  0
 13 96  1  0  0  0  0
 14 15  1  0  0  0  0
 15 16  1  0  0  0  0
 15 97  1  0  0  0  0
 15 98  1  0  0  0  0
 16 17  1  0  0  0  0
 16 99  1  0  0  0  0
 16100  1  0  0  0  0
 17 18  1  0  0  0  0
 17101  1  0  0  0  0
 17102  1  0  0  0  0
 18 19  1  0  0  0  0
 18103  1  0  0  0  0
 18104  1  0  0  0  0
 19 20  1  0  0  0  0
 19105  1  0  0  0  0
 19106  1  0  0  0  0
 20 21  1  0  0  0  0
 20107  1  0  0  0  0
 20108  1  0  0  0  0
 21 22  1  0  0  0  0
 21109  1  0  0  0  0
 21110  1  0  0  0  0
 22 23  1  0  0  0  0
 22111  1  0  0  0  0
 22112  1  0  0  0  0
 23 24  1  0  0  0  0
 23113  1  0  0  0  0
 23114  1  0  0  0  0
 24 25  1  0  0  0  0
 24115  1  0  0  0  0
 24116  1  0  0  0  0
 25 26  1  0  0  0  0
 25117  1  0  0  0  0
 25118  1  0  0  0  0
 26 27  1  0  0  0  0
 27 28  1  0  0  0  0
 27119  1  0  0  0  0
 27120  1  0  0  0  0
 28 29  1  0  0  0  0
 29 30  1  0  0  0  0
 30 31  1  0  0  0  0
 31 32  1  0  0  0  0
 32 33  1  0  0  0  0
 33 34  1  0  0  0  0
 34 35  1  0  0  0  0
 35 36  1  0  0  0  0
 36 37  1  0  0  0  0
 37 38  1  0  0  0  0
 38 39  1  0  0  0  0
 39 40  1  0  0  0  0
 40 41  1  0  0  0  0
 41 42  1  0  0  0  0
 42 43  1  0  0  0  0
 43 44  1  0  0  0  0
 44 45  1  0  0  0  0
 45 46  1  0  0  0  0
 46 47  1  0  0  0  0
 47 48  1  0  0  0  0
 48 49  1  0  0  0  0
 49 50  1  0  0  0  0
 50 51  1  0  0  0  0
 51 52  1  0  0  0  0
 52 53  1  0  0  0  0
 53 54  1  0  0  0  0
 54 55  1  0  0  0  0
 55 56  1  0  0  0  0
 56 57  1  0  0  0  0
 57 58  1  0  0  0  0
 58 59  1  0  0  0  0
 59 60  1  0  0  0  0
 60 61  1  0  0  0  0
 61 62  1  0  0  0  0
 62 63  1  0  0  0  0
 63 64  1  0  0  0  0
 64 65  1  0  0  0  0
 65 66  1  0  0  0  0
 66 67  1  0  0  0  0
 67 68  1  0  0  0  0
 68 69  1  0  0  0  0
 69 70  1  0  0  0  0
 70 71  1  0  0  0  0
 71 72  1  0  0  0  0
 72 73  1  0  0  0  0
 73 74  1  0  0  0  0
 74 75  1  0  0  0  0
 75 76  1  0  0  0  0
 76 77  1  0  0  0  0
 77 78  1  0  0  0  0
 78 79  1  0  0  0  0
 79 80  1  0  0  0  0
 80 81  1  0  0  0  0
 81121  1  0  0  0  0
M  END
$$$$
