
 OpenBabel04232216493D

 96 96  0  0  1  0  0  0  0  0999 V2000
    2.4999    0.0420   -0.3505 C   0  0  0  0  0  0  0  0  0  0  0  0
    1.0561    0.0604    0.1491 C   0  0  3  0  0  0  0  0  0  0  0  0
    0.3186    1.3237   -0.3221 C   0  0  0  0  0  0  0  0  0  0  0  0
   -1.1567    1.3339    0.0844 C   0  0  0  0  0  0  0  0  0  0  0  0
   -1.8765    0.0445   -0.3136 C   0  0  0  0  0  0  0  0  0  0  0  0
   -1.1498   -1.2108    0.1908 C   0  0  3  0  0  0  0  0  0  0  0  0
   -1.2630   -1.3095    1.7228 C   0  0  0  0  0  0  0  0  0  0  0  0
   -0.5508   -2.5276    2.2894 C   0  0  0  0  0  0  0  0  0  0  0  0
   -0.6606   -2.5479    3.8046 C   0  0  0  0  0  0  0  0  0  0  0  0
    0.0689   -3.7636    4.3442 C   0  0  0  0  0  0  0  0  0  0  0  0
   -0.0187   -3.7942    5.8565 C   0  0  0  0  0  0  0  0  0  0  0  0
    0.7036   -5.0187    6.3834 C   0  0  0  0  0  0  0  0  0  0  0  0
    0.6089   -5.0551    7.8953 C   0  0  0  0  0  0  0  0  0  0  0  0
    1.3282   -6.2795    8.4248 C   0  0  0  0  0  0  0  0  0  0  0  0
    1.2293   -6.3138    9.9369 C   0  0  0  0  0  0  0  0  0  0  0  0
    1.9474   -7.5374   10.4703 C   0  0  0  0  0  0  0  0  0  0  0  0
    1.8478   -7.5706   11.9829 C   0  0  0  0  0  0  0  0  0  0  0  0
    2.5666   -8.7942   12.5165 C   0  0  0  0  0  0  0  0  0  0  0  0
    2.4677   -8.8295   14.0293 C   0  0  0  0  0  0  0  0  0  0  0  0
    3.1866  -10.0539   14.5634 C   0  0  0  0  0  0  0  0  0  0  0  0
    3.0882  -10.0899   16.0769 C   0  0  0  0  0  0  0  0  0  0  0  0
    3.8060  -11.3149   16.6137 C   0  0  0  0  0  0  0  0  0  0  0  0
    3.7078  -11.3506   18.1284 C   0  0  0  0  0  0  0  0  0  0  0  0
    4.4243  -12.5763   18.6679 C   0  0  0  0  0  0  0  0  0  0  0  0
    4.3278  -12.6136   20.1838 C   0  0  0  0  0  0  0  0  0  0  0  0
    5.0445  -13.8410   20.7243 C   0  0  0  0  0  0  0  0  0  0  0  0
    4.9525  -13.8824   22.2421 C   0  0  0  0  0  0  0  0  0  0  0  0
    5.6677  -15.1124   22.7860 C   0  0  0  0  0  0  0  0  0  0  0  0
    5.5770  -15.1535   24.3068 C   0  0  0  0  0  0  0  0  0  0  0  0
    6.2885  -16.3818   24.8636 C   0  0  0  0  0  0  0  0  0  0  0  0
    6.1945  -16.4211   26.3785 C   0  0  0  0  0  0  0  0  0  0  0  0
    0.3023   -1.1902   -0.3209 C   0  0  0  0  0  0  0  0  0  0  0  0
    3.0397    0.9297   -0.0021 H   0  0  0  0  0  0  0  0  0  0  0  0
    2.5423    0.0230   -1.4431 H   0  0  0  0  0  0  0  0  0  0  0  0
    3.0292   -0.8415    0.0251 H   0  0  0  0  0  0  0  0  0  0  0  0
    1.0980    0.0694    1.2450 H   0  0  0  0  0  0  0  0  0  0  0  0
    0.3827    1.3983   -1.4146 H   0  0  0  0  0  0  0  0  0  0  0  0
    0.8100    2.2144    0.0866 H   0  0  0  0  0  0  0  0  0  0  0  0
   -1.6593    2.1884   -0.3824 H   0  0  0  0  0  0  0  0  0  0  0  0
   -1.2356    1.4884    1.1668 H   0  0  0  0  0  0  0  0  0  0  0  0
   -1.9461   -0.0018   -1.4078 H   0  0  0  0  0  0  0  0  0  0  0  0
   -2.9060    0.0626    0.0640 H   0  0  0  0  0  0  0  0  0  0  0  0
   -1.6473   -2.0917   -0.2367 H   0  0  0  0  0  0  0  0  0  0  0  0
   -2.3234   -1.3522    2.0015 H   0  0  0  0  0  0  0  0  0  0  0  0
   -0.8604   -0.4140    2.2088 H   0  0  0  0  0  0  0  0  0  0  0  0
    0.5130   -2.5115    2.0302 H   0  0  0  0  0  0  0  0  0  0  0  0
   -0.9798   -3.4425    1.8653 H   0  0  0  0  0  0  0  0  0  0  0  0
   -1.7136   -2.5713    4.1091 H   0  0  0  0  0  0  0  0  0  0  0  0
   -0.2195   -1.6349    4.2242 H   0  0  0  0  0  0  0  0  0  0  0  0
    1.1218   -3.7379    4.0344 H   0  0  0  0  0  0  0  0  0  0  0  0
   -0.3691   -4.6778    3.9251 H   0  0  0  0  0  0  0  0  0  0  0  0
   -1.0694   -3.8144    6.1704 H   0  0  0  0  0  0  0  0  0  0  0  0
    0.4293   -2.8854    6.2769 H   0  0  0  0  0  0  0  0  0  0  0  0
    1.7559   -4.9961    6.0738 H   0  0  0  0  0  0  0  0  0  0  0  0
    0.2601   -5.9276    5.9582 H   0  0  0  0  0  0  0  0  0  0  0  0
   -0.4437   -5.0766    8.2034 H   0  0  0  0  0  0  0  0  0  0  0  0
    1.0532   -4.1465    8.3200 H   0  0  0  0  0  0  0  0  0  0  0  0
    2.3812   -6.2575    8.1179 H   0  0  0  0  0  0  0  0  0  0  0  0
    0.8847   -7.1881    7.9991 H   0  0  0  0  0  0  0  0  0  0  0  0
    0.1759   -6.3345   10.2426 H   0  0  0  0  0  0  0  0  0  0  0  0
    1.6727   -5.4046   10.3615 H   0  0  0  0  0  0  0  0  0  0  0  0
    3.0006   -7.5164   10.1643 H   0  0  0  0  0  0  0  0  0  0  0  0
    1.5039   -8.4465   10.0456 H   0  0  0  0  0  0  0  0  0  0  0  0
    0.7943   -7.5919   12.2879 H   0  0  0  0  0  0  0  0  0  0  0  0
    2.2904   -6.6609   12.4072 H   0  0  0  0  0  0  0  0  0  0  0  0
    3.6197   -8.7725   12.2102 H   0  0  0  0  0  0  0  0  0  0  0  0
    2.1234   -9.7031   12.0910 H   0  0  0  0  0  0  0  0  0  0  0  0
    1.4142   -8.8510   14.3344 H   0  0  0  0  0  0  0  0  0  0  0  0
    2.9103   -7.9202   14.4542 H   0  0  0  0  0  0  0  0  0  0  0  0
    4.2397  -10.0318   14.2568 H   0  0  0  0  0  0  0  0  0  0  0  0
    2.7435  -10.9625   14.1373 H   0  0  0  0  0  0  0  0  0  0  0  0
    2.0346  -10.1100   16.3817 H   0  0  0  0  0  0  0  0  0  0  0  0
    3.5314   -9.1806   16.5012 H   0  0  0  0  0  0  0  0  0  0  0  0
    4.8591  -11.2939   16.3074 H   0  0  0  0  0  0  0  0  0  0  0  0
    3.3621  -12.2233   16.1886 H   0  0  0  0  0  0  0  0  0  0  0  0
    2.6541  -11.3695   18.4326 H   0  0  0  0  0  0  0  0  0  0  0  0
    4.1516  -10.4412   18.5519 H   0  0  0  0  0  0  0  0  0  0  0  0
    5.4771  -12.5565   18.3606 H   0  0  0  0  0  0  0  0  0  0  0  0
    3.9792  -13.4842   18.2424 H   0  0  0  0  0  0  0  0  0  0  0  0
    3.2742  -12.6312   20.4886 H   0  0  0  0  0  0  0  0  0  0  0  0
    4.7724  -11.7043   20.6066 H   0  0  0  0  0  0  0  0  0  0  0  0
    6.0966  -13.8216   20.4146 H   0  0  0  0  0  0  0  0  0  0  0  0
    4.5977  -14.7478   20.2985 H   0  0  0  0  0  0  0  0  0  0  0  0
    3.8992  -13.8975   22.5481 H   0  0  0  0  0  0  0  0  0  0  0  0
    5.3991  -12.9735   22.6642 H   0  0  0  0  0  0  0  0  0  0  0  0
    6.7195  -15.0945   22.4756 H   0  0  0  0  0  0  0  0  0  0  0  0
    5.2192  -16.0188   22.3607 H   0  0  0  0  0  0  0  0  0  0  0  0
    4.5237  -15.1663   24.6124 H   0  0  0  0  0  0  0  0  0  0  0  0
    6.0239  -14.2433   24.7256 H   0  0  0  0  0  0  0  0  0  0  0  0
    7.3424  -16.3704   24.5632 H   0  0  0  0  0  0  0  0  0  0  0  0
    5.8405  -17.2913   24.4472 H   0  0  0  0  0  0  0  0  0  0  0  0
    6.6575  -15.5330   26.8200 H   0  0  0  0  0  0  0  0  0  0  0  0
    6.7076  -17.3052   26.7682 H   0  0  0  0  0  0  0  0  0  0  0  0
    5.1497  -16.4593   26.7028 H   0  0  0  0  0  0  0  0  0  0  0  0
    0.2892   -1.2204   -1.4173 H   0  0  0  0  0  0  0  0  0  0  0  0
    0.8391   -2.0983   -0.0155 H   0  0  0  0  0  0  0  0  0  0  0  0
  1  2  1  0  0  0  0
  1 33  1  0  0  0  0
  1 34  1  0  0  0  0
  1 35  1  0  0  0  0
  2  3  1  0  0  0  0
  2 32  1  0  0  0  0
  2 36  1  0  0  0  0
  3  4  1  0  0  0  0
  3 37  1  0  0  0  0
  3 38  1  0  0  0  0
  4  5  1  0  0  0  0
  4 39  1  0  0  0  0
  4 40  1  0  0  0  0
  5  6  1  0  0  0  0
  5 41  1  0  0  0  0
  5 42  1  0  0  0  0
  6  7  1  0  0  0  0
  6 32  1  0  0  0  0
  6 43  1  0  0  0  0
  7  8  1  0  0  0  0
  7 44  1  0  0  0  0
  7 45  1  0  0  0  0
  8  9  1  0  0  0  0
  8 46  1  0  0  0  0
  8 47  1  0  0  0  0
  9 10  1  0  0  0  0
  9 48  1  0  0  0  0
  9 49  1  0  0  0  0
 10 11  1  0  0  0  0
 10 50  1  0  0  0  0
 10 51  1  0  0  0  0
 11 12  1  0  0  0  0
 11 52  1  0  0  0  0
 11 53  1  0  0  0  0
 12 13  1  0  0  0  0
 12 54  1  0  0  0  0
 12 55  1  0  0  0  0
 13 14  1  0  0  0  0
 13 56  1  0  0  0  0
 13 57  1  0  0  0  0
 14 15  1  0  0  0  0
 14 58  1  0  0  0  0
 14 59  1  0  0  0  0
 15 16  1  0  0  0  0
 15 60  1  0  0  0  0
 15 61  1  0  0  0  0
 16 17  1  0  0  0  0
 16 62  1  0  0  0  0
 16 63  1  0  0  0  0
 17 18  1  0  0  0  0
 17 64  1  0  0  0  0
 17 65  1  0  0  0  0
 18 19  1  0  0  0  0
 18 66  1  0  0  0  0
 18 67  1  0  0  0  0
 19 20  1  0  0  0  0
 19 68  1  0  0  0  0
 19 69  1  0  0  0  0
 20 21  1  0  0  0  0
 20 70  1  0  0  0  0
 20 71  1  0  0  0  0
 21 22  1  0  0  0  0
 21 72  1  0  0  0  0
 21 73  1  0  0  0  0
 22 23  1  0  0  0  0
 22 74  1  0  0  0  0
 22 75  1  0  0  0  0
 23 24  1  0  0  0  0
 23 76  1  0  0  0  0
 23 77  1  0  0  0  0
 24 25  1  0  0  0  0
 24 78  1  0  0  0  0
 24 79  1  0  0  0  0
 25 26  1  0  0  0  0
 25 80  1  0  0  0  0
 25 81  1  0  0  0  0
 26 27  1  0  0  0  0
 26 82  1  0  0  0  0
 26 83  1  0  0  0  0
 27 28  1  0  0  0  0
 27 84  1  0  0  0  0
 27 85  1  0  0  0  0
 28 29  1  0  0  0  0
 28 86  1  0  0  0  0
 28 87  1  0  0  0  0
 29 30  1  0  0  0  0
 29 88  1  0  0  0  0
 29 89  1  0  0  0  0
 30 31  1  0  0  0  0
 30 90  1  0  0  0  0
 30 91  1  0  0  0  0
 31 92  1  0  0  0  0
 31 93  1  0  0  0  0
 31 94  1  0  0  0  0
 32 95  1  0  0  0  0
 32 96  1  0  0  0  0
M  END
$$$$
