
 OpenBabel04232216523D

 67 68  0  0  1  0  0  0  0  0999 V2000
    8.6961    4.3907    1.9851 C   0  0  0  0  0  0  0  0  0  0  0  0
    8.5319    2.9143    1.6617 C   0  0  0  0  0  0  0  0  0  0  0  0
    7.6135    2.2331    2.6720 C   0  0  0  0  0  0  0  0  0  0  0  0
    7.4172    0.7498    2.3547 C   0  0  0  0  0  0  0  0  0  0  0  0
    6.5191    0.1055    3.3693 C   0  0  3  0  0  0  0  0  0  0  0  0
    6.1561   -1.3585    3.3028 C   0  0  3  0  0  0  0  0  0  0  0  0
    6.6769   -2.2568    2.2233 C   0  0  0  0  0  0  0  0  0  0  0  0
    6.1687   -3.6840    2.4198 C   0  0  0  0  0  0  0  0  0  0  0  0
    6.6849   -4.6097    1.3250 C   0  0  0  0  0  0  0  0  0  0  0  0
    6.1558   -6.0265    1.5193 C   0  0  0  0  0  0  0  0  0  0  0  0
    6.6779   -6.9513    0.4236 C   0  0  0  0  0  0  0  0  0  0  0  0
    6.1523   -8.3652    0.6221 C   0  0  0  0  0  0  0  0  0  0  0  0
    6.6579   -9.3333   -0.4318 C   0  0  0  0  0  0  0  0  0  0  0  0
    7.3704   -8.9899   -1.3724 O   0  0  0  0  0  0  0  0  0  0  0  0
    6.2660  -10.7489   -0.2828 C   0  0  0  0  0  0  0  0  0  0  0  0
    5.4586  -11.2822    0.6517 C   0  0  0  0  0  0  0  0  0  0  0  0
    5.3944  -12.7058    0.4667 C   0  0  0  0  0  0  0  0  0  0  0  0
    6.1605  -13.0570   -0.5774 C   0  0  0  0  0  0  0  0  0  0  0  0
    6.3977  -14.4355   -1.0847 C   0  0  0  0  0  0  0  0  0  0  0  0
    7.8724  -14.8270   -0.9970 C   0  0  0  0  0  0  0  0  0  0  0  0
    8.0906  -16.2721   -1.4429 C   0  0  0  0  0  0  0  0  0  0  0  0
    9.5715  -16.6402   -1.3711 C   0  0  0  0  0  0  0  0  0  0  0  0
    9.8130  -18.0788   -1.8207 C   0  0  0  0  0  0  0  0  0  0  0  0
   11.2895  -18.4323   -1.7493 C   0  0  0  0  0  0  0  0  0  0  0  0
    6.7852  -11.8241   -1.1871 C   0  0  0  0  0  0  0  0  0  0  0  0
    7.0370   -0.8458    4.3323 C   0  0  0  0  0  3  0  0  0  0  0  0
    9.3606    4.8681    1.2588 H   0  0  0  0  0  0  0  0  0  0  0  0
    9.1261    4.5270    2.9826 H   0  0  0  0  0  0  0  0  0  0  0  0
    7.7311    4.9072    1.9550 H   0  0  0  0  0  0  0  0  0  0  0  0
    9.5153    2.4306    1.6652 H   0  0  0  0  0  0  0  0  0  0  0  0
    8.1202    2.8093    0.6512 H   0  0  0  0  0  0  0  0  0  0  0  0
    6.6377    2.7357    2.6753 H   0  0  0  0  0  0  0  0  0  0  0  0
    8.0261    2.3410    3.6828 H   0  0  0  0  0  0  0  0  0  0  0  0
    8.3927    0.2488    2.3117 H   0  0  0  0  0  0  0  0  0  0  0  0
    6.9617    0.6512    1.3619 H   0  0  0  0  0  0  0  0  0  0  0  0
    5.7442    0.7734    3.7293 H   0  0  0  0  0  0  0  0  0  0  0  0
    5.1524   -1.6198    3.6197 H   0  0  0  0  0  0  0  0  0  0  0  0
    7.7741   -2.2571    2.1976 H   0  0  0  0  0  0  0  0  0  0  0  0
    6.3339   -1.8831    1.2509 H   0  0  0  0  0  0  0  0  0  0  0  0
    5.0712   -3.6864    2.4149 H   0  0  0  0  0  0  0  0  0  0  0  0
    6.4806   -4.0561    3.4036 H   0  0  0  0  0  0  0  0  0  0  0  0
    7.7813   -4.6201    1.3362 H   0  0  0  0  0  0  0  0  0  0  0  0
    6.3728   -4.2324    0.3437 H   0  0  0  0  0  0  0  0  0  0  0  0
    5.0586   -6.0180    1.5062 H   0  0  0  0  0  0  0  0  0  0  0  0
    6.4623   -6.4046    2.5027 H   0  0  0  0  0  0  0  0  0  0  0  0
    7.7747   -6.9575    0.4348 H   0  0  0  0  0  0  0  0  0  0  0  0
    6.3706   -6.5748   -0.5595 H   0  0  0  0  0  0  0  0  0  0  0  0
    5.0570   -8.3576    0.5843 H   0  0  0  0  0  0  0  0  0  0  0  0
    6.4708   -8.7320    1.6053 H   0  0  0  0  0  0  0  0  0  0  0  0
    4.9412  -10.7702    1.4505 H   0  0  0  0  0  0  0  0  0  0  0  0
    4.8294  -13.3767    1.0966 H   0  0  0  0  0  0  0  0  0  0  0  0
    6.0479  -14.5058   -2.1208 H   0  0  0  0  0  0  0  0  0  0  0  0
    5.8012  -15.1489   -0.5015 H   0  0  0  0  0  0  0  0  0  0  0  0
    8.2310  -14.7036    0.0328 H   0  0  0  0  0  0  0  0  0  0  0  0
    8.4738  -14.1609   -1.6280 H   0  0  0  0  0  0  0  0  0  0  0  0
    7.7255  -16.4008   -2.4690 H   0  0  0  0  0  0  0  0  0  0  0  0
    7.5094  -16.9479   -0.8037 H   0  0  0  0  0  0  0  0  0  0  0  0
    9.9321  -16.5106   -0.3433 H   0  0  0  0  0  0  0  0  0  0  0  0
   10.1499  -15.9560   -2.0041 H   0  0  0  0  0  0  0  0  0  0  0  0
    9.4580  -18.2133   -2.8490 H   0  0  0  0  0  0  0  0  0  0  0  0
    9.2441  -18.7689   -1.1869 H   0  0  0  0  0  0  0  0  0  0  0  0
   11.8804  -17.7753   -2.3957 H   0  0  0  0  0  0  0  0  0  0  0  0
   11.4496  -19.4645   -2.0747 H   0  0  0  0  0  0  0  0  0  0  0  0
   11.6657  -18.3349   -0.7258 H   0  0  0  0  0  0  0  0  0  0  0  0
    6.4484  -11.6806   -2.2190 H   0  0  0  0  0  0  0  0  0  0  0  0
    7.8786  -11.8690   -1.1553 H   0  0  0  0  0  0  0  0  0  0  0  0
    8.0834   -1.1175    4.4053 H   0  0  0  0  0  0  0  0  0  0  0  0
  1  2  1  0  0  0  0
  1 27  1  0  0  0  0
  1 28  1  0  0  0  0
  1 29  1  0  0  0  0
  2  3  1  0  0  0  0
  2 30  1  0  0  0  0
  2 31  1  0  0  0  0
  3  4  1  0  0  0  0
  3 32  1  0  0  0  0
  3 33  1  0  0  0  0
  4  5  1  0  0  0  0
  4 34  1  0  0  0  0
  4 35  1  0  0  0  0
  5  6  1  0  0  0  0
  5 26  1  0  0  0  0
  5 36  1  0  0  0  0
  6  7  1  0  0  0  0
  6 26  1  0  0  0  0
  6 37  1  0  0  0  0
  7  8  1  0  0  0  0
  7 38  1  0  0  0  0
  7 39  1  0  0  0  0
  8  9  1  0  0  0  0
  8 40  1  0  0  0  0
  8 41  1  0  0  0  0
  9 10  1  0  0  0  0
  9 42  1  0  0  0  0
  9 43  1  0  0  0  0
 10 11  1  0  0  0  0
 10 44  1  0  0  0  0
 10 45  1  0  0  0  0
 11 12  1  0  0  0  0
 11 46  1  0  0  0  0
 11 47  1  0  0  0  0
 12 13  1  0  0  0  0
 12 48  1  0  0  0  0
 12 49  1  0  0  0  0
 13 14  2  0  0  0  0
 13 15  1  0  0  0  0
 15 16  2  0  0  0  0
 15 25  1  0  0  0  0
 16 17  1  0  0  0  0
 16 50  1  0  0  0  0
 17 18  2  0  0  0  0
 17 51  1  0  0  0  0
 18 19  1  0  0  0  0
 18 25  1  0  0  0  0
 19 20  1  0  0  0  0
 19 52  1  0  0  0  0
 19 53  1  0  0  0  0
 20 21  1  0  0  0  0
 20 54  1  0  0  0  0
 20 55  1  0  0  0  0
 21 22  1  0  0  0  0
 21 56  1  0  0  0  0
 21 57  1  0  0  0  0
 22 23  1  0  0  0  0
 22 58  1  0  0  0  0
 22 59  1  0  0  0  0
 23 24  1  0  0  0  0
 23 60  1  0  0  0  0
 23 61  1  0  0  0  0
 24 62  1  0  0  0  0
 24 63  1  0  0  0  0
 24 64  1  0  0  0  0
 25 65  1  0  0  0  0
 25 66  1  0  0  0  0
 26 67  1  0  0  0  0
M  END
$$$$
