
 OpenBabel04232216473D

 89 89  0  0  1  0  0  0  0  0999 V2000
    4.4549   -3.6139    3.1607 C   0  0  0  0  0  0  0  0  0  0  0  0
    4.2090   -2.4272    2.3367 C   0  0  3  0  0  0  0  0  0  0  0  0
    3.1328   -1.6126    2.6061 C   0  0  0  0  0  0  0  0  0  0  0  0
    2.9505   -2.4529    1.5246 C   0  0  0  0  0  0  0  0  0  0  0  0
    3.3227   -3.5600    0.3859 C   0  0  0  0  0  0  0  0  0  0  0  0
    2.8207   -3.3395   -1.0562 C   0  0  0  0  0  0  0  0  0  0  0  0
    3.2491   -4.3957   -1.9105 O   0  0  0  0  0  0  0  0  0  0  0  0
    2.6321   -5.5449   -1.3398 O   0  0  0  0  0  0  0  0  0  0  0  0
    2.9874   -6.6696   -2.0855 O   0  0  0  0  0  0  0  0  0  0  0  0
    2.3914   -7.7765   -1.4815 O   0  0  0  0  0  0  0  0  0  0  0  0
    2.7459   -8.8684   -2.2566 O   0  0  0  0  0  0  0  0  0  0  0  0
    2.1611   -9.9676   -1.6674 O   0  0  0  0  0  0  0  0  0  0  0  0
    2.5208  -11.0419   -2.4452 O   0  0  0  0  0  0  0  0  0  0  0  0
    1.9331  -12.1264   -1.8482 O   0  0  0  0  0  0  0  0  0  0  0  0
    2.2909  -13.1969   -2.6224 O   0  0  0  0  0  0  0  0  0  0  0  0
    1.7032  -14.2752   -2.0240 O   0  0  0  0  0  0  0  0  0  0  0  0
    2.0629  -15.3407   -2.7997 O   0  0  0  0  0  0  0  0  0  0  0  0
    1.4753  -16.4175   -2.2012 O   0  0  0  0  0  0  0  0  0  0  0  0
    1.8361  -17.4840   -2.9786 O   0  0  0  0  0  0  0  0  0  0  0  0
    1.2448  -18.5551   -2.3734 O   0  0  0  0  0  0  0  0  0  0  0  0
    1.6038  -19.6176   -3.1472 O   0  0  0  0  0  0  0  0  0  0  0  0
    1.0171  -20.6926   -2.5496 O   0  0  0  0  0  0  0  0  0  0  0  0
    1.3800  -21.7505   -3.3281 O   0  0  0  0  0  0  0  0  0  0  0  0
    0.7954  -22.8281   -2.7341 O   0  0  0  0  0  0  0  0  0  0  0  0
    1.1578  -23.8870   -3.5121 O   0  0  0  0  0  0  0  0  0  0  0  0
    0.5702  -24.9602   -2.9127 O   0  0  0  0  0  0  0  0  0  0  0  0
    0.9277  -26.0238   -3.6847 O   0  0  0  0  0  0  0  0  0  0  0  0
    0.3385  -27.0953   -3.0827 O   0  0  0  0  0  0  0  0  0  0  0  0
    0.6993  -28.1555   -3.8586 O   0  0  0  0  0  0  0  0  0  0  0  0
    0.1119  -29.2321   -3.2603 O   0  0  0  0  0  0  0  0  0  0  0  0
    0.4723  -30.2941   -4.0362 O   0  0  0  0  0  0  0  0  0  0  0  0
   -0.1155  -31.3686   -3.4367 O   0  0  0  0  0  0  0  0  0  0  0  0
    0.2436  -32.4320   -4.2110 O   0  0  0  0  0  0  0  0  0  0  0  0
   -0.3435  -33.5057   -3.6124 O   0  0  0  0  0  0  0  0  0  0  0  0
    0.0166  -34.5675   -4.3878 O   0  0  0  0  0  0  0  0  0  0  0  0
   -0.5703  -35.6412   -3.7895 O   0  0  0  0  0  0  0  0  0  0  0  0
   -0.2096  -36.7019   -4.5655 O   0  0  0  0  0  0  0  0  0  0  0  0
   -0.7965  -37.7758   -3.9673 O   0  0  0  0  0  0  0  0  0  0  0  0
   -0.4359  -38.8371   -4.7433 O   0  0  0  0  0  0  0  0  0  0  0  0
   -1.0244  -39.9107   -4.1427 O   0  0  0  0  0  0  0  0  0  0  0  0
   -0.6663  -40.9727   -4.9152 O   0  0  0  0  0  0  0  0  0  0  0  0
   -1.2521  -42.0467   -4.3185 O   0  0  0  0  0  0  0  0  0  0  0  0
   -0.8913  -43.1090   -5.0951 O   0  0  0  0  0  0  0  0  0  0  0  0
   -1.4849  -44.1852   -4.4877 O   0  0  0  0  0  0  0  0  0  0  0  0
   -1.1200  -45.2448   -5.2695 O   0  0  0  0  0  0  0  0  0  0  0  0
   -1.7266  -46.3177   -4.6424 O   0  0  0  0  0  0  0  0  0  0  0  0
   -1.3467  -47.3819   -5.4471 O   0  0  0  0  0  0  0  0  0  0  0  0
   -1.9341  -48.4563   -4.8483 O   0  0  0  0  0  0  0  0  0  0  0  0
   -1.5741  -49.5181   -5.6235 O   0  0  0  0  0  0  0  0  0  0  0  0
   -2.1615  -50.5925   -5.0247 O   0  0  0  0  0  0  0  0  0  0  0  0
   -1.8015  -51.6544   -5.7999 O   0  0  0  0  0  0  0  0  0  0  0  0
   -2.3889  -52.7288   -5.2010 O   0  0  0  0  0  0  0  0  0  0  0  0
   -2.0289  -53.7906   -5.9763 O   0  0  0  0  0  0  0  0  0  0  0  0
   -2.6163  -54.8650   -5.3774 O   0  0  0  0  0  0  0  0  0  0  0  0
   -2.2563  -55.9269   -6.1527 O   0  0  0  0  0  0  0  0  0  0  0  0
   -2.8437  -57.0013   -5.5538 O   0  0  0  0  0  0  0  0  0  0  0  0
   -2.4837  -58.0631   -6.3291 O   0  0  0  0  0  0  0  0  0  0  0  0
   -3.0711  -59.1375   -5.7302 O   0  0  0  0  0  0  0  0  0  0  0  0
   -2.7111  -60.1993   -6.5055 O   0  0  0  0  0  0  0  0  0  0  0  0
   -3.2985  -61.2738   -5.9067 O   0  0  0  0  0  0  0  0  0  0  0  0
   -2.9385  -62.3355   -6.6820 O   0  0  0  0  0  0  0  0  0  0  0  0
   -3.5259  -63.4099   -6.0830 O   0  0  0  0  0  0  0  0  0  0  0  0
   -3.1660  -64.4717   -6.8581 O   0  0  0  0  0  0  0  0  0  0  0  0
   -3.7535  -65.5459   -6.2591 O   0  0  0  0  0  0  0  0  0  0  0  0
   -3.3934  -66.6076   -7.0344 O   0  0  0  0  0  0  0  0  0  0  0  0
   -3.9807  -67.6820   -6.4357 O   0  0  0  0  0  0  0  0  0  0  0  0
   -3.6207  -68.7439   -7.2110 O   0  0  0  0  0  0  0  0  0  0  0  0
   -4.2084  -69.8185   -6.6118 O   0  0  0  0  0  0  0  0  0  0  0  0
   -3.8490  -70.8812   -7.3864 O   0  0  0  0  0  0  0  0  0  0  0  0
   -4.4366  -71.9577   -6.7877 O   0  0  0  0  0  0  0  0  0  0  0  0
   -4.0756  -73.0209   -7.5647 O   0  0  0  0  0  0  0  0  0  0  0  0
   -4.6613  -74.1031   -6.9703 O   0  0  0  0  0  0  0  0  0  0  0  0
   -4.3023  -75.1742   -7.7462 O   0  0  0  0  0  0  0  0  0  0  0  0
   -4.8945  -76.2568   -7.1424 O   0  0  0  0  0  0  0  0  0  0  0  0
   -4.5484  -77.3492   -7.9046 O   0  0  0  0  0  0  0  0  0  0  0  0
   -5.1421  -78.4481   -7.3024 O   0  0  0  0  0  0  0  0  0  0  0  0
   -4.7857  -79.5456   -8.0809 O   0  0  0  0  0  0  0  0  0  0  0  0
   -5.3590  -80.6960   -7.5207 O   0  0  0  0  0  0  0  0  0  0  0  0
   -4.9789  -81.7973   -8.3344 O   0  0  0  0  0  0  0  0  0  0  0  0
    5.1562   -3.3399    3.9458 H   0  0  0  0  0  0  0  0  0  0  0  0
    4.8862   -4.3771    2.5088 H   0  0  0  0  0  0  0  0  0  0  0  0
    3.5321   -4.0122    3.6031 H   0  0  0  0  0  0  0  0  0  0  0  0
    5.0564   -1.9997    1.8411 H   0  0  0  0  0  0  0  0  0  0  0  0
    2.9633   -0.9218    3.3879 H   0  0  0  0  0  0  0  0  0  0  0  0
    2.9710   -4.5820    0.6627 H   0  0  0  0  0  0  0  0  0  0  0  0
    4.4164   -3.7340    0.2755 H   0  0  0  0  0  0  0  0  0  0  0  0
    3.2418   -2.4369   -1.4886 H   0  0  0  0  0  0  0  0  0  0  0  0
    1.7312   -3.3276   -1.1040 H   0  0  0  0  0  0  0  0  0  0  0  0
   -5.4559  -82.4352   -7.7925 H   0  0  0  0  0  0  0  0  0  0  0  0
  1  2  1  0  0  0  0
  1 80  1  0  0  0  0
  1 81  1  0  0  0  0
  1 82  1  0  0  0  0
  2  3  1  0  0  0  0
  2  4  1  0  0  0  0
  2 83  1  0  0  0  0
  3  4  2  0  0  0  0
  3 84  1  0  0  0  0
  4  5  1  0  0  0  0
  5  6  1  0  0  0  0
  5 85  1  0  0  0  0
  5 86  1  0  0  0  0
  6  7  1  0  0  0  0
  6 87  1  0  0  0  0
  6 88  1  0  0  0  0
  7  8  1  0  0  0  0
  8  9  1  0  0  0  0
  9 10  1  0  0  0  0
 10 11  1  0  0  0  0
 11 12  1  0  0  0  0
 12 13  1  0  0  0  0
 13 14  1  0  0  0  0
 14 15  1  0  0  0  0
 15 16  1  0  0  0  0
 16 17  1  0  0  0  0
 17 18  1  0  0  0  0
 18 19  1  0  0  0  0
 19 20  1  0  0  0  0
 20 21  1  0  0  0  0
 21 22  1  0  0  0  0
 22 23  1  0  0  0  0
 23 24  1  0  0  0  0
 24 25  1  0  0  0  0
 25 26  1  0  0  0  0
 26 27  1  0  0  0  0
 27 28  1  0  0  0  0
 28 29  1  0  0  0  0
 29 30  1  0  0  0  0
 30 31  1  0  0  0  0
 31 32  1  0  0  0  0
 32 33  1  0  0  0  0
 33 34  1  0  0  0  0
 34 35  1  0  0  0  0
 35 36  1  0  0  0  0
 36 37  1  0  0  0  0
 37 38  1  0  0  0  0
 38 39  1  0  0  0  0
 39 40  1  0  0  0  0
 40 41  1  0  0  0  0
 41 42  1  0  0  0  0
 42 43  1  0  0  0  0
 43 44  1  0  0  0  0
 44 45  1  0  0  0  0
 45 46  1  0  0  0  0
 46 47  1  0  0  0  0
 47 48  1  0  0  0  0
 48 49  1  0  0  0  0
 49 50  1  0  0  0  0
 50 51  1  0  0  0  0
 51 52  1  0  0  0  0
 52 53  1  0  0  0  0
 53 54  1  0  0  0  0
 54 55  1  0  0  0  0
 55 56  1  0  0  0  0
 56 57  1  0  0  0  0
 57 58  1  0  0  0  0
 58 59  1  0  0  0  0
 59 60  1  0  0  0  0
 60 61  1  0  0  0  0
 61 62  1  0  0  0  0
 62 63  1  0  0  0  0
 63 64  1  0  0  0  0
 64 65  1  0  0  0  0
 65 66  1  0  0  0  0
 66 67  1  0  0  0  0
 67 68  1  0  0  0  0
 68 69  1  0  0  0  0
 69 70  1  0  0  0  0
 70 71  1  0  0  0  0
 71 72  1  0  0  0  0
 72 73  1  0  0  0  0
 73 74  1  0  0  0  0
 74 75  1  0  0  0  0
 75 76  1  0  0  0  0
 76 77  1  0  0  0  0
 77 78  1  0  0  0  0
 78 79  1  0  0  0  0
 79 89  1  0  0  0  0
M  END
$$$$
