
 OpenBabel04232217013D

221220  0  0  0  0  0  0  0  0999 V2000
    0.9651   -0.0991    0.0795 O   0  0  0  0  0  0  0  0  0  0  0  0
    2.3845   -0.0956    0.1073 C   0  0  0  0  0  0  0  0  0  0  0  0
    2.9012    0.1528   -1.2989 C   0  0  0  0  0  0  0  0  0  0  0  0
    4.4222    0.1672   -1.3206 C   0  0  0  0  0  0  0  0  0  0  0  0
    4.9392    0.4163   -2.7300 C   0  0  0  0  0  0  0  0  0  0  0  0
    6.4603    0.4285   -2.7387 C   0  0  0  0  0  0  0  0  0  0  0  0
    6.9774    0.6791   -4.1457 C   0  0  0  0  0  0  0  0  0  0  0  0
    8.4967    0.6886   -4.1504 C   0  0  0  0  0  0  0  0  0  0  0  0
    9.0141    0.9389   -5.5561 C   0  0  0  0  0  0  0  0  0  0  0  0
   10.5337    0.9459   -5.5584 C   0  0  0  0  0  0  0  0  0  0  0  0
   11.0477    1.1943   -6.9640 C   0  0  0  0  0  0  0  0  0  0  0  0
   12.5659    1.2063   -6.9837 C   0  0  0  0  0  0  0  0  0  0  0  0
   13.0472    1.4576   -8.3959 C   0  0  0  0  0  0  0  0  0  0  0  0
   14.4675    1.4673   -8.3963 O   0  0  0  0  0  0  0  0  0  0  0  0
   14.9424    1.7023   -9.7135 C   0  0  0  0  0  0  0  0  0  0  0  0
   16.4552    1.7065   -9.6880 C   0  0  0  0  0  0  0  0  0  0  0  0
   16.9809    1.9580  -11.0889 C   0  0  0  0  0  0  0  0  0  0  0  0
   18.4971    1.9660  -11.0969 C   0  0  0  0  0  0  0  0  0  0  0  0
   19.0056    2.2170  -12.5057 C   0  0  0  0  0  0  0  0  0  0  0  0
   20.5230    2.2232  -12.5145 C   0  0  0  0  0  0  0  0  0  0  0  0
   21.0326    2.4756  -13.9209 C   0  0  0  0  0  0  0  0  0  0  0  0
   22.5500    2.4831  -13.9257 C   0  0  0  0  0  0  0  0  0  0  0  0
   23.0606    2.7337  -15.3320 C   0  0  0  0  0  0  0  0  0  0  0  0
   24.5774    2.7428  -15.3355 C   0  0  0  0  0  0  0  0  0  0  0  0
   25.0876    2.9934  -16.7417 C   0  0  0  0  0  0  0  0  0  0  0  0
   26.6043    3.0006  -16.7454 C   0  0  0  0  0  0  0  0  0  0  0  0
   27.1144    3.2511  -18.1517 C   0  0  0  0  0  0  0  0  0  0  0  0
   28.6311    3.2583  -18.1553 C   0  0  0  0  0  0  0  0  0  0  0  0
   29.1414    3.5089  -19.5614 C   0  0  0  0  0  0  0  0  0  0  0  0
   30.6581    3.5161  -19.5649 C   0  0  0  0  0  0  0  0  0  0  0  0
   31.1682    3.7666  -20.9711 C   0  0  0  0  0  0  0  0  0  0  0  0
   32.6849    3.7738  -20.9748 C   0  0  0  0  0  0  0  0  0  0  0  0
   33.1950    4.0243  -22.3811 C   0  0  0  0  0  0  0  0  0  0  0  0
   34.7117    4.0295  -22.3851 C   0  0  0  0  0  0  0  0  0  0  0  0
   35.2218    4.2801  -23.7912 C   0  0  0  0  0  0  0  0  0  0  0  0
   36.7384    4.2833  -23.7955 C   0  0  0  0  0  0  0  0  0  0  0  0
   37.2485    4.5357  -25.2014 C   0  0  0  0  0  0  0  0  0  0  0  0
   38.7651    4.5370  -25.2060 C   0  0  0  0  0  0  0  0  0  0  0  0
   39.2752    4.7876  -26.6121 C   0  0  0  0  0  0  0  0  0  0  0  0
   40.7918    4.7907  -26.6164 C   0  0  0  0  0  0  0  0  0  0  0  0
   41.3018    5.0431  -28.0223 C   0  0  0  0  0  0  0  0  0  0  0  0
   42.8185    5.0464  -28.0265 C   0  0  0  0  0  0  0  0  0  0  0  0
   43.3285    5.2989  -29.4323 C   0  0  0  0  0  0  0  0  0  0  0  0
   44.8451    5.3021  -29.4366 C   0  0  0  0  0  0  0  0  0  0  0  0
   45.3552    5.5547  -30.8424 C   0  0  0  0  0  0  0  0  0  0  0  0
   46.8718    5.5578  -30.8467 C   0  0  0  0  0  0  0  0  0  0  0  0
   47.3818    5.8103  -32.2525 C   0  0  0  0  0  0  0  0  0  0  0  0
   48.8985    5.8136  -32.2568 C   0  0  0  0  0  0  0  0  0  0  0  0
   49.4086    6.0661  -33.6626 C   0  0  0  0  0  0  0  0  0  0  0  0
   50.9252    6.0712  -33.6666 C   0  0  0  0  0  0  0  0  0  0  0  0
   51.4354    6.3238  -35.0722 C   0  0  0  0  0  0  0  0  0  0  0  0
   52.9515    6.3309  -35.0756 C   0  0  0  0  0  0  0  0  0  0  0  0
   53.4621    6.5854  -36.4814 C   0  0  0  0  0  0  0  0  0  0  0  0
   54.9797    6.5946  -36.4847 C   0  0  0  0  0  0  0  0  0  0  0  0
   55.4883    6.8471  -37.8917 C   0  0  0  0  0  0  0  0  0  0  0  0
   57.0069    6.8589  -37.8955 C   0  0  0  0  0  0  0  0  0  0  0  0
   57.5146    7.1109  -39.2994 C   0  0  0  0  0  0  0  0  0  0  0  0
   59.0283    7.1206  -39.3093 C   0  0  0  0  0  0  0  0  0  0  0  0
   59.5369    7.3799  -40.7120 C   0  0  0  0  0  0  0  0  0  0  0  0
   61.0594    7.3915  -40.7103 C   0  0  0  0  0  0  0  0  0  0  0  0
   61.5704    7.6450  -42.1149 C   0  0  0  0  0  0  0  0  0  0  0  0
   63.0858    7.6566  -42.1178 C   0  0  0  0  0  0  0  0  0  0  0  0
   63.5917    7.9096  -43.5240 C   0  0  0  0  0  0  0  0  0  0  0  0
   65.1095    7.9213  -43.5255 C   0  0  0  0  0  0  0  0  0  0  0  0
   65.6129    8.1884  -44.9235 C   0  0  0  0  0  0  0  0  0  0  0  0
   67.1390    8.1827  -44.9171 C   0  0  0  0  0  0  0  0  0  0  0  0
   67.6291    8.4406  -46.3248 C   0  0  0  0  0  0  0  0  0  0  0  0
   69.1424    8.4588  -46.3452 C   0  0  0  0  0  0  0  0  0  0  0  0
   69.5861    8.7249  -47.7613 C   0  0  0  0  0  0  0  0  0  0  0  0
   70.9923    8.7845  -47.7521 O   0  0  0  0  0  0  0  0  0  0  0  0
   71.4898    8.9751  -49.0649 C   0  0  0  0  0  0  0  0  0  0  0  0
   72.9060    8.9738  -49.0566 O   0  0  0  0  0  0  0  0  0  0  0  0
   73.3906    7.7301  -48.5697 C   0  0  0  0  0  0  0  0  0  0  0  0
   74.7963    7.7821  -48.5086 O   0  0  0  0  0  0  0  0  0  0  0  0
   75.1888    6.4874  -48.0007 O   0  0  0  0  0  0  0  0  0  0  0  0
   76.6251    6.3953  -47.9970 O   0  0  0  0  0  0  0  0  0  0  0  0
   77.1276    6.6302  -49.3309 O   0  0  0  0  0  0  0  0  0  0  0  0
   78.5603    6.7357  -49.3062 O   0  0  0  0  0  0  0  0  0  0  0  0
   79.0695    6.9127  -50.6457 O   0  0  0  0  0  0  0  0  0  0  0  0
   80.5124    6.8567  -50.6292 O   0  0  0  0  0  0  0  0  0  0  0  0
   80.9572    5.5459  -50.1952 O   0  0  0  0  0  0  0  0  0  0  0  0
    0.6650   -0.2592    0.9880 H   0  0  0  0  0  0  0  0  0  0  0  0
    2.7312   -1.0636    0.4822 H   0  0  0  0  0  0  0  0  0  0  0  0
    2.7209    0.6921    0.7886 H   0  0  0  0  0  0  0  0  0  0  0  0
    2.5053    1.1045   -1.6752 H   0  0  0  0  0  0  0  0  0  0  0  0
    2.5174   -0.6210   -1.9756 H   0  0  0  0  0  0  0  0  0  0  0  0
    4.8089   -0.7904   -0.9506 H   0  0  0  0  0  0  0  0  0  0  0  0
    4.7966    0.9486   -0.6478 H   0  0  0  0  0  0  0  0  0  0  0  0
    4.5591    1.3750   -3.1037 H   0  0  0  0  0  0  0  0  0  0  0  0
    4.5714   -0.3647   -3.4067 H   0  0  0  0  0  0  0  0  0  0  0  0
    6.8436   -0.5302   -2.3680 H   0  0  0  0  0  0  0  0  0  0  0  0
    6.8316    1.2087   -2.0628 H   0  0  0  0  0  0  0  0  0  0  0  0
    6.5981    1.6389   -4.5175 H   0  0  0  0  0  0  0  0  0  0  0  0
    6.6080   -0.1002   -4.8236 H   0  0  0  0  0  0  0  0  0  0  0  0
    8.8771   -0.2711   -3.7796 H   0  0  0  0  0  0  0  0  0  0  0  0
    8.8674    1.4681   -3.4735 H   0  0  0  0  0  0  0  0  0  0  0  0
    8.6353    1.8991   -5.9277 H   0  0  0  0  0  0  0  0  0  0  0  0
    8.6430    0.1606   -6.2345 H   0  0  0  0  0  0  0  0  0  0  0  0
   10.9122   -0.0143   -5.1874 H   0  0  0  0  0  0  0  0  0  0  0  0
   10.9044    1.7260   -4.8825 H   0  0  0  0  0  0  0  0  0  0  0  0
   10.6638    2.1527   -7.3357 H   0  0  0  0  0  0  0  0  0  0  0  0
   10.6736    0.4145   -7.6393 H   0  0  0  0  0  0  0  0  0  0  0  0
   12.9673    0.2536   -6.6167 H   0  0  0  0  0  0  0  0  0  0  0  0
   12.9575    1.9809   -6.3128 H   0  0  0  0  0  0  0  0  0  0  0  0
   12.6741    2.4242   -8.7549 H   0  0  0  0  0  0  0  0  0  0  0  0
   12.6860    0.6662   -9.0635 H   0  0  0  0  0  0  0  0  0  0  0  0
   14.5691    2.6695  -10.0709 H   0  0  0  0  0  0  0  0  0  0  0  0
   14.5793    0.9115  -10.3808 H   0  0  0  0  0  0  0  0  0  0  0  0
   16.8246    0.7491   -9.3001 H   0  0  0  0  0  0  0  0  0  0  0  0
   16.8149    2.4758   -8.9936 H   0  0  0  0  0  0  0  0  0  0  0  0
   16.6027    2.9189  -11.4617 H   0  0  0  0  0  0  0  0  0  0  0  0
   16.6102    1.1816  -11.7708 H   0  0  0  0  0  0  0  0  0  0  0  0
   18.8774    1.0054  -10.7284 H   0  0  0  0  0  0  0  0  0  0  0  0
   18.8699    2.7454  -10.4210 H   0  0  0  0  0  0  0  0  0  0  0  0
   18.6263    3.1778  -12.8753 H   0  0  0  0  0  0  0  0  0  0  0  0
   18.6318    1.4395  -13.1834 H   0  0  0  0  0  0  0  0  0  0  0  0
   20.9022    1.2618  -12.1469 H   0  0  0  0  0  0  0  0  0  0  0  0
   20.8970    3.0004  -11.8367 H   0  0  0  0  0  0  0  0  0  0  0  0
   20.6535    3.4366  -14.2900 H   0  0  0  0  0  0  0  0  0  0  0  0
   20.6608    1.6979  -14.5993 H   0  0  0  0  0  0  0  0  0  0  0  0
   22.9300    1.5228  -13.5559 H   0  0  0  0  0  0  0  0  0  0  0  0
   22.9223    3.2618  -13.2486 H   0  0  0  0  0  0  0  0  0  0  0  0
   22.6801    3.6935  -15.7027 H   0  0  0  0  0  0  0  0  0  0  0  0
   22.6898    1.9542  -16.0090 H   0  0  0  0  0  0  0  0  0  0  0  0
   24.9582    1.7831  -14.9649 H   0  0  0  0  0  0  0  0  0  0  0  0
   24.9485    3.5224  -14.6587 H   0  0  0  0  0  0  0  0  0  0  0  0
   24.7080    3.9537  -17.1119 H   0  0  0  0  0  0  0  0  0  0  0  0
   24.7157    2.2146  -17.4190 H   0  0  0  0  0  0  0  0  0  0  0  0
   26.9839    2.0402  -16.3754 H   0  0  0  0  0  0  0  0  0  0  0  0
   26.9764    3.7793  -16.0683 H   0  0  0  0  0  0  0  0  0  0  0  0
   26.7348    4.2115  -18.5218 H   0  0  0  0  0  0  0  0  0  0  0  0
   26.7424    2.4724  -18.8288 H   0  0  0  0  0  0  0  0  0  0  0  0
   29.0106    2.2979  -17.7852 H   0  0  0  0  0  0  0  0  0  0  0  0
   29.0031    4.0371  -17.4780 H   0  0  0  0  0  0  0  0  0  0  0  0
   28.7619    4.4693  -19.9315 H   0  0  0  0  0  0  0  0  0  0  0  0
   28.7694    2.7301  -20.2386 H   0  0  0  0  0  0  0  0  0  0  0  0
   31.0376    2.5556  -19.1948 H   0  0  0  0  0  0  0  0  0  0  0  0
   31.0301    4.2948  -18.8877 H   0  0  0  0  0  0  0  0  0  0  0  0
   30.7887    4.7270  -21.3412 H   0  0  0  0  0  0  0  0  0  0  0  0
   30.7962    2.9879  -21.6483 H   0  0  0  0  0  0  0  0  0  0  0  0
   33.0644    2.8133  -20.6048 H   0  0  0  0  0  0  0  0  0  0  0  0
   33.0571    4.5524  -20.2977 H   0  0  0  0  0  0  0  0  0  0  0  0
   32.8166    4.9854  -22.7506 H   0  0  0  0  0  0  0  0  0  0  0  0
   32.8219    3.2464  -23.0585 H   0  0  0  0  0  0  0  0  0  0  0  0
   35.0900    3.0684  -22.0156 H   0  0  0  0  0  0  0  0  0  0  0  0
   35.0850    4.8074  -21.7076 H   0  0  0  0  0  0  0  0  0  0  0  0
   34.8445    5.2419  -24.1602 H   0  0  0  0  0  0  0  0  0  0  0  0
   34.8475    3.5030  -24.4691 H   0  0  0  0  0  0  0  0  0  0  0  0
   37.1155    3.3210  -23.4278 H   0  0  0  0  0  0  0  0  0  0  0  0
   37.1130    5.0595  -23.1168 H   0  0  0  0  0  0  0  0  0  0  0  0
   36.8724    5.4986  -25.5685 H   0  0  0  0  0  0  0  0  0  0  0  0
   36.8729    3.7603  -25.8805 H   0  0  0  0  0  0  0  0  0  0  0  0
   39.1413    3.5746  -24.8377 H   0  0  0  0  0  0  0  0  0  0  0  0
   39.1406    5.3132  -24.5279 H   0  0  0  0  0  0  0  0  0  0  0  0
   38.8980    5.7494  -26.9811 H   0  0  0  0  0  0  0  0  0  0  0  0
   38.9007    4.0105  -27.2900 H   0  0  0  0  0  0  0  0  0  0  0  0
   41.1689    3.8284  -26.2488 H   0  0  0  0  0  0  0  0  0  0  0  0
   41.1663    5.5669  -25.9377 H   0  0  0  0  0  0  0  0  0  0  0  0
   40.9246    6.0055  -28.3899 H   0  0  0  0  0  0  0  0  0  0  0  0
   40.9274    4.2671  -28.7011 H   0  0  0  0  0  0  0  0  0  0  0  0
   43.1957    4.0841  -27.6589 H   0  0  0  0  0  0  0  0  0  0  0  0
   43.1928    5.8226  -27.3477 H   0  0  0  0  0  0  0  0  0  0  0  0
   42.9513    6.2612  -29.7999 H   0  0  0  0  0  0  0  0  0  0  0  0
   42.9541    4.5228  -30.1112 H   0  0  0  0  0  0  0  0  0  0  0  0
   45.2223    4.3399  -29.0690 H   0  0  0  0  0  0  0  0  0  0  0  0
   45.2195    6.0783  -28.7577 H   0  0  0  0  0  0  0  0  0  0  0  0
   44.9780    6.5170  -31.2100 H   0  0  0  0  0  0  0  0  0  0  0  0
   44.9808    4.7785  -31.5213 H   0  0  0  0  0  0  0  0  0  0  0  0
   47.2490    4.5956  -30.4791 H   0  0  0  0  0  0  0  0  0  0  0  0
   47.2462    6.3340  -30.1678 H   0  0  0  0  0  0  0  0  0  0  0  0
   47.0046    6.7726  -32.6201 H   0  0  0  0  0  0  0  0  0  0  0  0
   47.0074    5.0342  -32.9314 H   0  0  0  0  0  0  0  0  0  0  0  0
   49.2757    4.8513  -31.8892 H   0  0  0  0  0  0  0  0  0  0  0  0
   49.2728    6.5898  -31.5779 H   0  0  0  0  0  0  0  0  0  0  0  0
   49.0302    7.0277  -34.0308 H   0  0  0  0  0  0  0  0  0  0  0  0
   49.0352    5.2891  -34.3412 H   0  0  0  0  0  0  0  0  0  0  0  0
   51.3036    5.1096  -33.2984 H   0  0  0  0  0  0  0  0  0  0  0  0
   51.2983    6.8482  -32.9880 H   0  0  0  0  0  0  0  0  0  0  0  0
   51.0558    7.2848  -35.4410 H   0  0  0  0  0  0  0  0  0  0  0  0
   51.0633    5.5461  -35.7508 H   0  0  0  0  0  0  0  0  0  0  0  0
   53.3315    5.3695  -34.7085 H   0  0  0  0  0  0  0  0  0  0  0  0
   53.3240    7.1079  -34.3966 H   0  0  0  0  0  0  0  0  0  0  0  0
   53.0814    7.5462  -36.8493 H   0  0  0  0  0  0  0  0  0  0  0  0
   53.0909    5.8077  -37.1604 H   0  0  0  0  0  0  0  0  0  0  0  0
   55.3594    5.6342  -36.1155 H   0  0  0  0  0  0  0  0  0  0  0  0
   55.3493    7.3732  -35.8066 H   0  0  0  0  0  0  0  0  0  0  0  0
   55.1061    7.8063  -38.2600 H   0  0  0  0  0  0  0  0  0  0  0  0
   55.1181    6.0683  -38.5678 H   0  0  0  0  0  0  0  0  0  0  0  0
   57.3867    5.8989  -37.5259 H   0  0  0  0  0  0  0  0  0  0  0  0
   57.3743    7.6360  -37.2176 H   0  0  0  0  0  0  0  0  0  0  0  0
   57.1317    8.0732  -39.6693 H   0  0  0  0  0  0  0  0  0  0  0  0
   57.1453    6.3340  -39.9783 H   0  0  0  0  0  0  0  0  0  0  0  0
   59.4150    6.1636  -38.9360 H   0  0  0  0  0  0  0  0  0  0  0  0
   59.4019    7.9042  -38.6421 H   0  0  0  0  0  0  0  0  0  0  0  0
   59.1613    8.3410  -41.0798 H   0  0  0  0  0  0  0  0  0  0  0  0
   59.1743    6.5991  -41.3912 H   0  0  0  0  0  0  0  0  0  0  0  0
   61.4417    6.4314  -40.3409 H   0  0  0  0  0  0  0  0  0  0  0  0
   61.4285    8.1696  -40.0307 H   0  0  0  0  0  0  0  0  0  0  0  0
   61.1886    8.6055  -42.4833 H   0  0  0  0  0  0  0  0  0  0  0  0
   61.2000    6.8668  -42.7929 H   0  0  0  0  0  0  0  0  0  0  0  0
   63.4691    6.6955  -41.7499 H   0  0  0  0  0  0  0  0  0  0  0  0
   63.4567    8.4341  -41.4393 H   0  0  0  0  0  0  0  0  0  0  0  0
   63.2078    8.8715  -43.8899 H   0  0  0  0  0  0  0  0  0  0  0  0
   63.2213    7.1333  -44.2016 H   0  0  0  0  0  0  0  0  0  0  0  0
   65.4886    6.9629  -43.1560 H   0  0  0  0  0  0  0  0  0  0  0  0
   65.4760    8.7013  -42.8456 H   0  0  0  0  0  0  0  0  0  0  0  0
   65.2344    9.1379  -45.2947 H   0  0  0  0  0  0  0  0  0  0  0  0
   65.2474    7.3963  -45.6096 H   0  0  0  0  0  0  0  0  0  0  0  0
   67.5162    7.2277  -44.5558 H   0  0  0  0  0  0  0  0  0  0  0  0
   67.5030    8.9646  -44.2445 H   0  0  0  0  0  0  0  0  0  0  0  0
   67.2462    9.4000  -46.6914 H   0  0  0  0  0  0  0  0  0  0  0  0
   67.2612    7.6616  -47.0024 H   0  0  0  0  0  0  0  0  0  0  0  0
   69.5553    7.5057  -45.9894 H   0  0  0  0  0  0  0  0  0  0  0  0
   69.5395    9.2298  -45.6728 H   0  0  0  0  0  0  0  0  0  0  0  0
   69.1916    9.6832  -48.1158 H   0  0  0  0  0  0  0  0  0  0  0  0
   69.2440    7.9215  -48.4247 H   0  0  0  0  0  0  0  0  0  0  0  0
   71.1535    9.9461  -49.4394 H   0  0  0  0  0  0  0  0  0  0  0  0
   71.1297    8.1862  -49.7373 H   0  0  0  0  0  0  0  0  0  0  0  0
   73.0697    6.9213  -49.2375 H   0  0  0  0  0  0  0  0  0  0  0  0
   73.0163    7.5369  -47.5563 H   0  0  0  0  0  0  0  0  0  0  0  0
   81.9015    5.7640  -50.2018 H   0  0  0  0  0  0  0  0  0  0  0  0
  1  2  1  0  0  0  0
  1 82  1  0  0  0  0
  2  3  1  0  0  0  0
  2 83  1  0  0  0  0
  2 84  1  0  0  0  0
  3  4  1  0  0  0  0
  3 85  1  0  0  0  0
  3 86  1  0  0  0  0
  4  5  1  0  0  0  0
  4 87  1  0  0  0  0
  4 88  1  0  0  0  0
  5  6  1  0  0  0  0
  5 89  1  0  0  0  0
  5 90  1  0  0  0  0
  6  7  1  0  0  0  0
  6 91  1  0  0  0  0
  6 92  1  0  0  0  0
  7  8  1  0  0  0  0
  7 93  1  0  0  0  0
  7 94  1  0  0  0  0
  8  9  1  0  0  0  0
  8 95  1  0  0  0  0
  8 96  1  0  0  0  0
  9 10  1  0  0  0  0
  9 97  1  0  0  0  0
  9 98  1  0  0  0  0
 10 11  1  0  0  0  0
 10 99  1  0  0  0  0
 10100  1  0  0  0  0
 11 12  1  0  0  0  0
 11101  1  0  0  0  0
 11102  1  0  0  0  0
 12 13  1  0  0  0  0
 12103  1  0  0  0  0
 12104  1  0  0  0  0
 13 14  1  0  0  0  0
 13105  1  0  0  0  0
 13106  1  0  0  0  0
 14 15  1  0  0  0  0
 15 16  1  0  0  0  0
 15107  1  0  0  0  0
 15108  1  0  0  0  0
 16 17  1  0  0  0  0
 16109  1  0  0  0  0
 16110  1  0  0  0  0
 17 18  1  0  0  0  0
 17111  1  0  0  0  0
 17112  1  0  0  0  0
 18 19  1  0  0  0  0
 18113  1  0  0  0  0
 18114  1  0  0  0  0
 19 20  1  0  0  0  0
 19115  1  0  0  0  0
 19116  1  0  0  0  0
 20 21  1  0  0  0  0
 20117  1  0  0  0  0
 20118  1  0  0  0  0
 21 22  1  0  0  0  0
 21119  1  0  0  0  0
 21120  1  0  0  0  0
 22 23  1  0  0  0  0
 22121  1  0  0  0  0
 22122  1  0  0  0  0
 23 24  1  0  0  0  0
 23123  1  0  0  0  0
 23124  1  0  0  0  0
 24 25  1  0  0  0  0
 24125  1  0  0  0  0
 24126  1  0  0  0  0
 25 26  1  0  0  0  0
 25127  1  0  0  0  0
 25128  1  0  0  0  0
 26 27  1  0  0  0  0
 26129  1  0  0  0  0
 26130  1  0  0  0  0
 27 28  1  0  0  0  0
 27131  1  0  0  0  0
 27132  1  0  0  0  0
 28 29  1  0  0  0  0
 28133  1  0  0  0  0
 28134  1  0  0  0  0
 29 30  1  0  0  0  0
 29135  1  0  0  0  0
 29136  1  0  0  0  0
 30 31  1  0  0  0  0
 30137  1  0  0  0  0
 30138  1  0  0  0  0
 31 32  1  0  0  0  0
 31139  1  0  0  0  0
 31140  1  0  0  0  0
 32 33  1  0  0  0  0
 32141  1  0  0  0  0
 32142  1  0  0  0  0
 33 34  1  0  0  0  0
 33143  1  0  0  0  0
 33144  1  0  0  0  0
 34 35  1  0  0  0  0
 34145  1  0  0  0  0
 34146  1  0  0  0  0
 35 36  1  0  0  0  0
 35147  1  0  0  0  0
 35148  1  0  0  0  0
 36 37  1  0  0  0  0
 36149  1  0  0  0  0
 36150  1  0  0  0  0
 37 38  1  0  0  0  0
 37151  1  0  0  0  0
 37152  1  0  0  0  0
 38 39  1  0  0  0  0
 38153  1  0  0  0  0
 38154  1  0  0  0  0
 39 40  1  0  0  0  0
 39155  1  0  0  0  0
 39156  1  0  0  0  0
 40 41  1  0  0  0  0
 40157  1  0  0  0  0
 40158  1  0  0  0  0
 41 42  1  0  0  0  0
 41159  1  0  0  0  0
 41160  1  0  0  0  0
 42 43  1  0  0  0  0
 42161  1  0  0  0  0
 42162  1  0  0  0  0
 43 44  1  0  0  0  0
 43163  1  0  0  0  0
 43164  1  0  0  0  0
 44 45  1  0  0  0  0
 44165  1  0  0  0  0
 44166  1  0  0  0  0
 45 46  1  0  0  0  0
 45167  1  0  0  0  0
 45168  1  0  0  0  0
 46 47  1  0  0  0  0
 46169  1  0  0  0  0
 46170  1  0  0  0  0
 47 48  1  0  0  0  0
 47171  1  0  0  0  0
 47172  1  0  0  0  0
 48 49  1  0  0  0  0
 48173  1  0  0  0  0
 48174  1  0  0  0  0
 49 50  1  0  0  0  0
 49175  1  0  0  0  0
 49176  1  0  0  0  0
 50 51  1  0  0  0  0
 50177  1  0  0  0  0
 50178  1  0  0  0  0
 51 52  1  0  0  0  0
 51179  1  0  0  0  0
 51180  1  0  0  0  0
 52 53  1  0  0  0  0
 52181  1  0  0  0  0
 52182  1  0  0  0  0
 53 54  1  0  0  0  0
 53183  1  0  0  0  0
 53184  1  0  0  0  0
 54 55  1  0  0  0  0
 54185  1  0  0  0  0
 54186  1  0  0  0  0
 55 56  1  0  0  0  0
 55187  1  0  0  0  0
 55188  1  0  0  0  0
 56 57  1  0  0  0  0
 56189  1  0  0  0  0
 56190  1  0  0  0  0
 57 58  1  0  0  0  0
 57191  1  0  0  0  0
 57192  1  0  0  0  0
 58 59  1  0  0  0  0
 58193  1  0  0  0  0
 58194  1  0  0  0  0
 59 60  1  0  0  0  0
 59195  1  0  0  0  0
 59196  1  0  0  0  0
 60 61  1  0  0  0  0
 60197  1  0  0  0  0
 60198  1  0  0  0  0
 61 62  1  0  0  0  0
 61199  1  0  0  0  0
 61200  1  0  0  0  0
 62 63  1  0  0  0  0
 62201  1  0  0  0  0
 62202  1  0  0  0  0
 63 64  1  0  0  0  0
 63203  1  0  0  0  0
 63204  1  0  0  0  0
 64 65  1  0  0  0  0
 64205  1  0  0  0  0
 64206  1  0  0  0  0
 65 66  1  0  0  0  0
 65207  1  0  0  0  0
 65208  1  0  0  0  0
 66 67  1  0  0  0  0
 66209  1  0  0  0  0
 66210  1  0  0  0  0
 67 68  1  0  0  0  0
 67211  1  0  0  0  0
 67212  1  0  0  0  0
 68 69  1  0  0  0  0
 68213  1  0  0  0  0
 68214  1  0  0  0  0
 69 70  1  0  0  0  0
 69215  1  0  0  0  0
 69216  1  0  0  0  0
 70 71  1  0  0  0  0
 71 72  1  0  0  0  0
 71217  1  0  0  0  0
 71218  1  0  0  0  0
 72 73  1  0  0  0  0
 73 74  1  0  0  0  0
 73219  1  0  0  0  0
 73220  1  0  0  0  0
 74 75  1  0  0  0  0
 75 76  1  0  0  0  0
 76 77  1  0  0  0  0
 77 78  1  0  0  0  0
 78 79  1  0  0  0  0
 79 80  1  0  0  0  0
 80 81  1  0  0  0  0
 81221  1  0  0  0  0
M  END
$$$$
