
 OpenBabel04232216443D

 52 54  0  0  1  0  0  0  0  0999 V2000
    2.7824    1.5370    1.8632 C   0  0  0  0  0  0  0  0  0  0  0  0
    4.0369    0.6869    2.1257 C   0  0  3  0  0  0  0  0  0  0  0  0
    3.8509   -0.8180    2.2036 C   0  0  3  0  0  3  0  0  0  0  0  0
    2.5431   -1.5432    2.4644 C   0  0  0  0  0  0  0  0  0  0  0  0
    2.2608   -1.8606    3.9308 C   0  0  0  0  0  0  0  0  0  0  0  0
    1.0990   -2.8317    4.0985 C   0  0  0  0  0  0  0  0  0  0  0  0
    4.9253   -1.6180    1.4857 C   0  0  0  0  0  0  0  0  0  0  0  0
    5.9393   -2.0845    2.5124 C   0  0  0  0  0  0  0  0  0  0  0  0
    7.3813   -1.7257    2.1479 C   0  0  0  0  0  0  0  0  0  0  0  0
    8.2456   -1.6905    3.3309 N   0  0  0  0  0  0  0  0  0  0  0  0
    8.8557   -0.4764    3.6470 C   0  0  0  0  0  0  0  0  0  0  0  0
    9.9792   -0.2210    3.2484 O   0  0  0  0  0  0  0  0  0  0  0  0
    7.9289    0.4819    4.3126 C   0  0  0  0  0  0  0  0  0  0  0  0
    7.5566    1.6223    3.6634 C   0  0  0  0  0  0  0  0  0  0  0  0
    6.1435    1.1800    3.8226 C   0  0  0  0  0  0  0  0  0  0  0  0
    6.6527    0.5349    5.1487 C   0  0  0  0  0  0  0  0  0  0  0  0
    6.6840    1.5673    6.3259 C   0  0  0  0  0  0  0  0  0  0  0  0
    5.2447    1.8938    6.7024 C   0  0  0  0  0  0  0  0  0  0  0  0
    4.2459    0.7428    6.5340 C   0  0  0  0  0  0  0  0  0  0  0  0
    4.7848   -0.6587    6.2455 C   0  0  0  0  0  0  0  0  0  0  0  0
    6.2347   -0.7525    5.8368 C   0  0  0  0  0  0  0  0  0  0  0  0
    5.2583    1.3280    2.8053 C   0  0  0  0  0  0  0  0  0  0  0  0
    1.9977    0.9484    1.3723 H   0  0  0  0  0  0  0  0  0  0  0  0
    3.0171    2.3268    1.1336 H   0  0  0  0  0  0  0  0  0  0  0  0
    2.3642    2.0086    2.7518 H   0  0  0  0  0  0  0  0  0  0  0  0
    4.4248    0.7409    1.0924 H   0  0  0  0  0  0  0  0  0  0  0  0
    2.5704   -2.5015    1.9295 H   0  0  0  0  0  0  0  0  0  0  0  0
    1.6909   -1.0126    2.0316 H   0  0  0  0  0  0  0  0  0  0  0  0
    2.0470   -0.9378    4.4823 H   0  0  0  0  0  0  0  0  0  0  0  0
    3.1361   -2.3419    4.3745 H   0  0  0  0  0  0  0  0  0  0  0  0
    0.1818   -2.4451    3.6460 H   0  0  0  0  0  0  0  0  0  0  0  0
    0.9091   -3.0152    5.1616 H   0  0  0  0  0  0  0  0  0  0  0  0
    1.3346   -3.7958    3.6344 H   0  0  0  0  0  0  0  0  0  0  0  0
    5.3944   -1.0106    0.7021 H   0  0  0  0  0  0  0  0  0  0  0  0
    4.4896   -2.4682    0.9498 H   0  0  0  0  0  0  0  0  0  0  0  0
    5.8385   -3.1630    2.6704 H   0  0  0  0  0  0  0  0  0  0  0  0
    5.6846   -1.6323    3.4664 H   0  0  0  0  0  0  0  0  0  0  0  0
    7.4315   -0.7554    1.6401 H   0  0  0  0  0  0  0  0  0  0  0  0
    7.7779   -2.4796    1.4617 H   0  0  0  0  0  0  0  0  0  0  0  0
    7.8210   -2.1415    4.1240 H   0  0  0  0  0  0  0  0  0  0  0  0
    8.0056    2.1479    2.8190 H   0  0  0  0  0  0  0  0  0  0  0  0
    7.2256    2.4910    6.0852 H   0  0  0  0  0  0  0  0  0  0  0  0
    7.2098    1.1534    7.1997 H   0  0  0  0  0  0  0  0  0  0  0  0
    4.9106    2.7204    6.0611 H   0  0  0  0  0  0  0  0  0  0  0  0
    5.2094    2.2837    7.7252 H   0  0  0  0  0  0  0  0  0  0  0  0
    3.5880    1.0074    5.6941 H   0  0  0  0  0  0  0  0  0  0  0  0
    3.5825    0.7021    7.4035 H   0  0  0  0  0  0  0  0  0  0  0  0
    4.2204   -1.0481    5.4053 H   0  0  0  0  0  0  0  0  0  0  0  0
    4.5836   -1.3372    7.0821 H   0  0  0  0  0  0  0  0  0  0  0  0
    6.4129   -1.6773    5.2975 H   0  0  0  0  0  0  0  0  0  0  0  0
    6.8345   -0.8948    6.7532 H   0  0  0  0  0  0  0  0  0  0  0  0
    5.6100    2.1021    2.1123 H   0  0  0  0  0  0  0  0  0  0  0  0
  1  2  1  0  0  0  0
  1 23  1  0  0  0  0
  1 24  1  0  0  0  0
  1 25  1  0  0  0  0
  2  3  1  0  0  0  0
  2 22  1  0  0  0  0
  2 26  1  0  0  0  0
  3  4  1  0  0  0  0
  3  7  1  0  0  0  0
  4  5  1  0  0  0  0
  4 27  1  0  0  0  0
  4 28  1  0  0  0  0
  5  6  1  0  0  0  0
  5 29  1  0  0  0  0
  5 30  1  0  0  0  0
  6 31  1  0  0  0  0
  6 32  1  0  0  0  0
  6 33  1  0  0  0  0
  7  8  1  0  0  0  0
  7 34  1  0  0  0  0
  7 35  1  0  0  0  0
  8  9  1  0  0  0  0
  8 36  1  0  0  0  0
  8 37  1  0  0  0  0
  9 10  1  0  0  0  0
  9 38  1  0  0  0  0
  9 39  1  0  0  0  0
 10 11  1  0  0  0  0
 10 40  1  0  0  0  0
 11 12  2  0  0  0  0
 11 13  1  0  0  0  0
 13 14  2  0  0  0  0
 13 16  1  0  0  0  0
 14 15  1  0  0  0  0
 14 41  1  0  0  0  0
 15 16  1  0  0  0  0
 15 22  2  3  0  0  0
 16 17  1  0  0  0  0
 16 21  1  0  0  0  0
 17 18  1  0  0  0  0
 17 42  1  0  0  0  0
 17 43  1  0  0  0  0
 18 19  1  0  0  0  0
 18 44  1  0  0  0  0
 18 45  1  0  0  0  0
 19 20  1  0  0  0  0
 19 46  1  0  0  0  0
 19 47  1  0  0  0  0
 20 21  1  0  0  0  0
 20 48  1  0  0  0  0
 20 49  1  0  0  0  0
 21 50  1  0  0  0  0
 21 51  1  0  0  0  0
 22 52  1  0  0  0  0
M  END
$$$$
