
 OpenBabel04232216553D

 44 46  0  0  0  0  0  0  0  0999 V2000
    2.3438    0.6141   -0.4209 C   0  0  0  0  0  0  0  0  0  0  0  0
    2.8437    1.2728   -1.6988 N   0  0  0  0  0  0  0  0  0  0  0  0
    2.7796    2.6991   -1.5256 C   0  0  0  0  0  0  0  0  0  0  0  0
    1.6225    3.3790   -1.6223 C   0  0  0  0  0  0  0  0  0  0  0  0
    3.9574    3.3463   -0.9872 C   0  0  0  0  0  0  0  0  0  0  0  0
    5.0754    3.6442   -1.6366 C   0  0  0  0  0  0  0  0  0  0  0  0
    5.9788    4.7987   -1.4090 C   0  0  0  0  0  0  0  0  0  0  0  0
    5.1054    2.5627   -0.7897 N   0  0  0  0  0  0  0  0  0  0  0  0
    5.1641    1.2651   -1.3419 C   0  0  0  0  0  0  0  0  0  0  0  0
    6.0682    0.3002   -0.7310 C   0  0  0  0  0  0  0  0  0  0  0  0
    7.1793   -0.1136   -1.3549 C   0  0  0  0  0  0  0  0  0  0  0  0
    7.8806    0.8916   -2.2413 C   0  0  0  0  0  0  0  0  0  0  0  0
    7.6397   -1.5135   -1.2430 C   0  0  0  0  0  0  0  0  0  0  0  0
    6.8438   -2.6122   -1.1220 C   0  0  0  0  0  0  0  0  0  0  0  0
    5.3710   -2.8529   -1.0214 C   0  0  0  0  0  0  0  0  0  0  0  0
    8.9996   -1.7221   -1.4506 N   0  0  0  0  0  0  0  0  0  0  0  0
    9.3597   -2.4127   -2.4543 N   0  0  0  0  0  0  0  0  0  0  0  0
    8.8947   -1.9637   -3.6654 C   0  0  0  0  0  0  0  0  0  0  0  0
    7.7127   -2.3245   -4.2052 C   0  0  0  0  0  0  0  0  0  0  0  0
    7.0569   -1.1496   -4.8362 C   0  0  0  0  0  0  0  0  0  0  0  0
    5.9563   -0.5151   -4.5186 N   0  0  0  0  0  0  0  0  0  0  0  0
    5.0293   -1.1871   -3.7183 N   0  0  0  0  0  0  0  0  0  0  0  0
    4.2569   -0.5759   -2.8520 C   0  0  0  0  0  0  0  0  0  0  0  0
    4.1614    0.7787   -2.1313 C   0  0  0  0  0  0  0  0  0  0  0  0
    1.7642    1.3177    0.2003 H   0  0  0  0  0  0  0  0  0  0  0  0
    3.1746    0.2957    0.2234 H   0  0  0  0  0  0  0  0  0  0  0  0
    1.7036   -0.2426   -0.6323 H   0  0  0  0  0  0  0  0  0  0  0  0
    0.6984    2.8839   -1.9013 H   0  0  0  0  0  0  0  0  0  0  0  0
    1.5660    4.4377   -1.3892 H   0  0  0  0  0  0  0  0  0  0  0  0
    5.4853    5.6013   -0.8515 H   0  0  0  0  0  0  0  0  0  0  0  0
    6.2708    5.2025   -2.3837 H   0  0  0  0  0  0  0  0  0  0  0  0
    6.8924    4.5084   -0.8808 H   0  0  0  0  0  0  0  0  0  0  0  0
    5.5993   -0.2870    0.0556 H   0  0  0  0  0  0  0  0  0  0  0  0
    7.5943    1.9247   -1.9968 H   0  0  0  0  0  0  0  0  0  0  0  0
    7.6320    0.7662   -3.2902 H   0  0  0  0  0  0  0  0  0  0  0  0
    8.9627    0.8617   -2.1204 H   0  0  0  0  0  0  0  0  0  0  0  0
    7.3674   -3.5677   -1.2057 H   0  0  0  0  0  0  0  0  0  0  0  0
    4.7732   -1.9933   -0.7320 H   0  0  0  0  0  0  0  0  0  0  0  0
    5.1873   -3.6203   -0.2642 H   0  0  0  0  0  0  0  0  0  0  0  0
    4.9780   -3.2452   -1.9676 H   0  0  0  0  0  0  0  0  0  0  0  0
    9.4468   -1.1015   -4.0268 H   0  0  0  0  0  0  0  0  0  0  0  0
    7.1083   -3.1332   -3.8219 H   0  0  0  0  0  0  0  0  0  0  0  0
    7.7026   -0.6553   -5.6017 H   0  0  0  0  0  0  0  0  0  0  0  0
    3.4231   -1.2286   -2.5421 H   0  0  0  0  0  0  0  0  0  0  0  0
  1  2  1  0  0  0  0
  1 25  1  0  0  0  0
  1 26  1  0  0  0  0
  1 27  1  0  0  0  0
  2  3  1  0  0  0  0
  2 24  1  0  0  0  0
  3  4  2  0  0  0  0
  3  5  1  0  0  0  0
  4 28  1  0  0  0  0
  4 29  1  0  0  0  0
  5  6  2  0  0  0  0
  5  8  1  0  0  0  0
  6  7  1  0  0  0  0
  6  8  1  0  0  0  0
  7 30  1  0  0  0  0
  7 31  1  0  0  0  0
  7 32  1  0  0  0  0
  8  9  1  0  0  0  0
  9 10  1  0  0  0  0
  9 24  2  0  0  0  0
 10 11  2  3  0  0  0
 10 33  1  0  0  0  0
 11 12  1  0  0  0  0
 11 13  1  0  0  0  0
 12 34  1  0  0  0  0
 12 35  1  0  0  0  0
 12 36  1  0  0  0  0
 13 14  2  3  0  0  0
 13 16  1  0  0  0  0
 14 15  1  0  0  0  0
 14 37  1  0  0  0  0
 15 38  1  0  0  0  0
 15 39  1  0  0  0  0
 15 40  1  0  0  0  0
 16 17  2  3  0  0  0
 17 18  1  0  0  0  0
 18 19  2  3  0  0  0
 18 41  1  0  0  0  0
 19 20  1  0  0  0  0
 19 42  1  0  0  0  0
 20 21  2  3  0  0  0
 20 43  1  0  0  0  0
 21 22  1  0  0  0  0
 22 23  2  3  0  0  0
 23 24  1  0  0  0  0
 23 44  1  0  0  0  0
M  END
$$$$
