
 OpenBabel04232216403D

 55 57  0  0  1  0  0  0  0  0999 V2000
    2.8300    0.7883   -2.4219 C   0  0  0  0  0  0  0  0  0  0  0  0
    3.9464    1.4530   -2.8083 C   0  0  0  0  0  0  0  0  0  0  0  0
    4.2650    3.0199   -2.7125 C   0  0  0  0  0  0  0  0  0  0  0  0
    5.4269    3.6250   -1.8484 N   0  0  0  0  0  0  0  0  0  0  0  0
    5.6845    2.6308   -0.7641 C   0  0  3  0  0  0  0  0  0  0  0  0
    4.9435    2.9217    0.5402 C   0  0  0  0  0  0  0  0  0  0  0  0
    3.3852    2.9918    0.4144 C   0  0  0  0  0  0  0  0  0  0  0  0
    2.8685    4.3207   -0.0991 C   0  0  0  0  0  0  0  0  0  0  0  0
    1.5911    4.4295   -0.9116 C   0  0  0  0  0  0  0  0  0  0  0  0
    1.2089    5.8770   -1.2037 C   0  0  0  0  0  0  0  0  0  0  0  0
    2.2440    6.9871   -1.1214 C   0  0  0  0  0  0  0  0  0  0  0  0
    3.6654    6.8699   -0.5346 C   0  0  0  0  0  0  0  0  0  0  0  0
    3.8594    7.7412    0.4458 N   0  0  0  0  0  0  0  0  0  0  0  0
    5.0555    8.2560    0.2439 C   0  0  0  0  0  0  0  0  0  0  0  0
    5.7217    7.6368   -0.7722 C   0  0  0  0  0  0  0  0  0  0  0  0
    5.0799    6.3478   -1.2184 C   0  0  0  0  0  0  0  0  0  0  0  0
    6.8608    1.6795   -0.6305 N   0  0  0  0  0  4  0  0  0  0  0  0
    6.6914    0.6969    0.0909 O   0  0  0  0  0  0  0  0  0  0  0  0
    7.8433    1.5206   -1.7028 C   0  0  0  0  0  0  0  0  0  0  0  0
    9.2201    1.1505   -1.1659 C   0  0  0  0  0  0  0  0  0  0  0  0
   10.2208    2.0422   -1.9082 C   0  0  0  0  0  0  0  0  0  0  0  0
   10.3735    3.4490   -1.3594 C   0  0  0  0  0  0  0  0  0  0  0  0
    9.5051    4.4854   -1.3166 C   0  0  0  0  0  0  0  0  0  0  0  0
    8.1896    4.4189   -1.7063 N   0  0  0  0  0  0  0  0  0  0  0  0
    7.3095    5.3478   -1.3432 C   0  0  0  0  0  0  0  0  0  0  0  0
    5.7720    5.1343   -1.5745 C   0  0  0  0  0  0  0  0  0  0  0  0
    2.7220   -0.2909   -2.5772 H   0  0  0  0  0  0  0  0  0  0  0  0
    1.8980    1.2576   -2.0417 H   0  0  0  0  0  0  0  0  0  0  0  0
    4.7324    0.8595   -3.2686 H   0  0  0  0  0  0  0  0  0  0  0  0
    4.4331    3.2689   -3.7496 H   0  0  0  0  0  0  0  0  0  0  0  0
    3.3924    3.2247   -2.1403 H   0  0  0  0  0  0  0  0  0  0  0  0
    5.1262    1.8001   -1.1477 H   0  0  0  0  0  0  0  0  0  0  0  0
    5.3235    3.8389    0.9970 H   0  0  0  0  0  0  0  0  0  0  0  0
    5.1516    2.1125    1.2390 H   0  0  0  0  0  0  0  0  0  0  0  0
    2.9807    2.8702    1.4168 H   0  0  0  0  0  0  0  0  0  0  0  0
    2.9942    2.1536   -0.1586 H   0  0  0  0  0  0  0  0  0  0  0  0
    3.5850    4.6574   -0.8140 H   0  0  0  0  0  0  0  0  0  0  0  0
    2.8596    5.0214    0.7368 H   0  0  0  0  0  0  0  0  0  0  0  0
    0.7698    3.9132   -0.4146 H   0  0  0  0  0  0  0  0  0  0  0  0
    1.6946    3.9534   -1.8952 H   0  0  0  0  0  0  0  0  0  0  0  0
    0.7438    5.9465   -2.1974 H   0  0  0  0  0  0  0  0  0  0  0  0
    0.3879    6.1301   -0.5163 H   0  0  0  0  0  0  0  0  0  0  0  0
    1.7470    7.7214   -0.4504 H   0  0  0  0  0  0  0  0  0  0  0  0
    2.3092    7.5669   -2.0466 H   0  0  0  0  0  0  0  0  0  0  0  0
    5.2812    9.2530    0.6447 H   0  0  0  0  0  0  0  0  0  0  0  0
    6.5588    8.1392   -1.2498 H   0  0  0  0  0  0  0  0  0  0  0  0
    7.8602    2.4433   -2.2498 H   0  0  0  0  0  0  0  0  0  0  0  0
    7.4858    0.7786   -2.4208 H   0  0  0  0  0  0  0  0  0  0  0  0
    9.4229    0.0951   -1.4180 H   0  0  0  0  0  0  0  0  0  0  0  0
    9.3410    1.2179   -0.0763 H   0  0  0  0  0  0  0  0  0  0  0  0
    9.9359    2.0999   -2.9669 H   0  0  0  0  0  0  0  0  0  0  0  0
   11.2020    1.5485   -1.9166 H   0  0  0  0  0  0  0  0  0  0  0  0
   11.3696    3.6199   -0.9488 H   0  0  0  0  0  0  0  0  0  0  0  0
    9.8833    5.4244   -0.9084 H   0  0  0  0  0  0  0  0  0  0  0  0
    7.6815    6.2370   -0.8200 H   0  0  0  0  0  0  0  0  0  0  0  0
  1  2  2  0  0  0  0
  1 27  1  0  0  0  0
  1 28  1  0  0  0  0
  2  3  1  0  0  0  0
  2 29  1  0  0  0  0
  3  4  1  0  0  0  0
  3 30  1  0  0  0  0
  3 31  1  0  0  0  0
  4  5  1  0  0  0  0
  4 26  1  0  0  0  0
  5  6  1  0  0  0  0
  5 17  1  0  0  0  0
  5 32  1  0  0  0  0
  6  7  1  0  0  0  0
  6 33  1  0  0  0  0
  6 34  1  0  0  0  0
  7  8  1  0  0  0  0
  7 35  1  0  0  0  0
  7 36  1  0  0  0  0
  8  9  1  0  0  0  0
  8 37  1  0  0  0  0
  8 38  1  0  0  0  0
  9 10  1  0  0  0  0
  9 39  1  0  0  0  0
  9 40  1  0  0  0  0
 10 11  1  0  0  0  0
 10 41  1  0  0  0  0
 10 42  1  0  0  0  0
 11 12  1  0  0  0  0
 11 43  1  0  0  0  0
 11 44  1  0  0  0  0
 12 13  2  0  0  0  0
 12 16  1  0  0  0  0
 13 14  1  0  0  0  0
 14 15  2  0  0  0  0
 14 45  1  0  0  0  0
 15 16  1  0  0  0  0
 15 46  1  0  0  0  0
 16 26  2  3  0  0  0
 17 18  2  0  0  0  0
 17 19  1  0  0  0  0
 19 20  1  0  0  0  0
 19 47  1  0  0  0  0
 19 48  1  0  0  0  0
 20 21  1  0  0  0  0
 20 49  1  0  0  0  0
 20 50  1  0  0  0  0
 21 22  1  0  0  0  0
 21 51  1  0  0  0  0
 21 52  1  0  0  0  0
 22 23  2  3  0  0  0
 22 53  1  0  0  0  0
 23 24  1  0  0  0  0
 23 54  1  0  0  0  0
 24 25  2  3  0  0  0
 25 26  1  0  0  0  0
 25 55  1  0  0  0  0
M  END
$$$$
