
 OpenBabel04232216553D

 60 61  0  0  1  0  0  0  0  0999 V2000
    3.4577   -1.5220   -2.0018 C   0  0  0  0  0  0  0  0  0  0  0  0
    3.3319   -0.4356   -1.0374 N   0  0  0  0  0  0  0  0  0  0  0  0
    4.1826    0.6903   -1.0297 C   0  0  0  0  0  0  0  0  0  0  0  0
    5.1584    0.8646   -2.1703 C   0  0  0  0  0  0  0  0  0  0  0  0
    4.1118    1.5908   -0.0110 C   0  0  0  0  0  0  0  0  0  0  0  0
    5.0707    2.7578    0.2274 C   0  0  0  0  0  0  0  0  0  0  0  0
    4.4630    4.1863    0.3547 C   0  0  0  0  0  0  0  0  0  0  0  0
    5.5827    5.2116    0.6275 C   0  0  0  0  0  0  0  0  0  0  0  0
    5.2006    6.7114    0.7686 C   0  0  0  0  0  0  0  0  0  0  0  0
    6.5206    7.5039    0.9927 C   0  0  0  0  0  0  0  0  0  0  0  0
    6.4709    8.9959    1.4566 C   0  0  3  0  0  0  0  0  0  0  0  0
    6.2846    9.9260    0.2483 C   0  0  0  0  0  0  0  0  0  0  0  0
    5.1595   10.6077   -0.0696 C   0  0  0  0  0  0  0  0  0  0  0  0
    3.8968   10.4971    0.6484 C   0  0  0  0  0  0  0  0  0  0  0  0
    2.8637    9.7034   -0.1125 C   0  0  0  0  0  0  0  0  0  0  0  0
    3.6382   11.0036    1.8801 C   0  0  0  0  0  0  0  0  0  0  0  0
    4.4492   11.8870    2.7268 C   0  0  0  0  0  0  0  0  0  0  0  0
    5.7780   11.8425    2.7157 C   0  0  0  0  0  0  0  0  0  0  0  0
    6.8724   12.3760    3.4462 C   0  0  0  0  0  0  0  0  0  0  0  0
    8.0444   11.6966    3.4871 C   0  0  0  0  0  0  0  0  0  0  0  0
    9.2463   12.3682    4.1342 C   0  0  0  0  0  0  0  0  0  0  0  0
    7.7534    9.3109    2.3007 C   0  0  0  0  0  0  0  0  0  0  0  0
    8.3090   10.3010    3.0498 C   0  0  0  0  0  0  0  0  0  0  0  0
    3.1200    1.3923    1.0366 C   0  0  0  0  0  0  0  0  0  0  0  0
    2.2462    0.3777    0.9943 C   0  0  0  0  0  0  0  0  0  0  0  0
    2.2992   -0.6061   -0.1064 C   0  0  0  0  0  0  0  0  0  0  0  0
    1.4826   -1.5162   -0.1260 O   0  0  0  0  0  0  0  0  0  0  0  0
    4.4500   -1.5808   -2.4534 H   0  0  0  0  0  0  0  0  0  0  0  0
    2.6896   -1.4098   -2.7736 H   0  0  0  0  0  0  0  0  0  0  0  0
    3.2925   -2.4821   -1.4964 H   0  0  0  0  0  0  0  0  0  0  0  0
    4.8481    0.3499   -3.0844 H   0  0  0  0  0  0  0  0  0  0  0  0
    6.1513    0.5007   -1.8875 H   0  0  0  0  0  0  0  0  0  0  0  0
    5.2341    1.9165   -2.4651 H   0  0  0  0  0  0  0  0  0  0  0  0
    5.8411    2.7848   -0.5510 H   0  0  0  0  0  0  0  0  0  0  0  0
    5.6206    2.5345    1.1541 H   0  0  0  0  0  0  0  0  0  0  0  0
    3.7417    4.2158    1.1790 H   0  0  0  0  0  0  0  0  0  0  0  0
    3.9292    4.4429   -0.5659 H   0  0  0  0  0  0  0  0  0  0  0  0
    6.3265    5.1277   -0.1741 H   0  0  0  0  0  0  0  0  0  0  0  0
    6.0866    4.9095    1.5556 H   0  0  0  0  0  0  0  0  0  0  0  0
    4.5244    6.8437    1.6220 H   0  0  0  0  0  0  0  0  0  0  0  0
    4.6795    7.0597   -0.1295 H   0  0  0  0  0  0  0  0  0  0  0  0
    7.1183    7.4344    0.0741 H   0  0  0  0  0  0  0  0  0  0  0  0
    7.0626    6.9378    1.7586 H   0  0  0  0  0  0  0  0  0  0  0  0
    5.6285    9.0660    2.1522 H   0  0  0  0  0  0  0  0  0  0  0  0
    7.1754   10.1396   -0.3413 H   0  0  0  0  0  0  0  0  0  0  0  0
    5.1535   11.2973   -0.9145 H   0  0  0  0  0  0  0  0  0  0  0  0
    2.1882   10.3834   -0.6428 H   0  0  0  0  0  0  0  0  0  0  0  0
    2.2708    9.0620    0.5468 H   0  0  0  0  0  0  0  0  0  0  0  0
    3.3223    9.0508   -0.8658 H   0  0  0  0  0  0  0  0  0  0  0  0
    2.6984   10.7254    2.3558 H   0  0  0  0  0  0  0  0  0  0  0  0
    3.9245   12.4945    3.4541 H   0  0  0  0  0  0  0  0  0  0  0  0
    6.2141   11.2560    1.9526 H   0  0  0  0  0  0  0  0  0  0  0  0
    6.7693   13.3664    3.8772 H   0  0  0  0  0  0  0  0  0  0  0  0
    9.1446   13.4593    4.1713 H   0  0  0  0  0  0  0  0  0  0  0  0
   10.1701   12.1635    3.5779 H   0  0  0  0  0  0  0  0  0  0  0  0
    9.3798   12.0065    5.1591 H   0  0  0  0  0  0  0  0  0  0  0  0
    8.3659    8.4069    2.3733 H   0  0  0  0  0  0  0  0  0  0  0  0
    9.2355    9.9641    3.5339 H   0  0  0  0  0  0  0  0  0  0  0  0
    3.1005    2.0709    1.8777 H   0  0  0  0  0  0  0  0  0  0  0  0
    1.4939    0.2188    1.7520 H   0  0  0  0  0  0  0  0  0  0  0  0
  1  2  1  0  0  0  0
  1 28  1  0  0  0  0
  1 29  1  0  0  0  0
  1 30  1  0  0  0  0
  2  3  1  0  0  0  0
  2 26  1  0  0  0  0
  3  4  1  0  0  0  0
  3  5  2  0  0  0  0
  4 31  1  0  0  0  0
  4 32  1  0  0  0  0
  4 33  1  0  0  0  0
  5  6  1  0  0  0  0
  5 24  1  0  0  0  0
  6  7  1  0  0  0  0
  6 34  1  0  0  0  0
  6 35  1  0  0  0  0
  7  8  1  0  0  0  0
  7 36  1  0  0  0  0
  7 37  1  0  0  0  0
  8  9  1  0  0  0  0
  8 38  1  0  0  0  0
  8 39  1  0  0  0  0
  9 10  1  0  0  0  0
  9 40  1  0  0  0  0
  9 41  1  0  0  0  0
 10 11  1  0  0  0  0
 10 42  1  0  0  0  0
 10 43  1  0  0  0  0
 11 12  1  0  0  0  0
 11 22  1  0  0  0  0
 11 44  1  0  0  0  0
 12 13  2  3  0  0  0
 12 45  1  0  0  0  0
 13 14  1  0  0  0  0
 13 46  1  0  0  0  0
 14 15  1  0  0  0  0
 14 16  2  3  0  0  0
 15 47  1  0  0  0  0
 15 48  1  0  0  0  0
 15 49  1  0  0  0  0
 16 17  1  0  0  0  0
 16 50  1  0  0  0  0
 17 18  2  3  0  0  0
 17 51  1  0  0  0  0
 18 19  1  0  0  0  0
 18 52  1  0  0  0  0
 19 20  2  3  0  0  0
 19 53  1  0  0  0  0
 20 21  1  0  0  0  0
 20 23  1  0  0  0  0
 21 54  1  0  0  0  0
 21 55  1  0  0  0  0
 21 56  1  0  0  0  0
 22 23  2  3  0  0  0
 22 57  1  0  0  0  0
 23 58  1  0  0  0  0
 24 25  2  0  0  0  0
 24 59  1  0  0  0  0
 25 26  1  0  0  0  0
 25 60  1  0  0  0  0
 26 27  2  0  0  0  0
M  END
$$$$
