
 OpenBabel04232217013D

148148  0  0  1  0  0  0  0  0999 V2000
    0.9985   -0.0859   -0.0733 O   0  0  0  0  0  0  0  0  0  0  0  0
    2.4334   -0.1938    0.0834 N   0  0  0  0  0  0  0  0  0  0  0  0
    2.9675   -0.9829   -1.0237 C   0  0  0  0  0  0  0  0  0  0  0  0
    3.0488    0.4916   -1.0380 C   0  0  3  0  0  0  0  0  0  0  0  0
    4.3281    1.0223   -0.7792 O   0  0  0  0  0  0  0  0  0  0  0  0
    4.0207    2.3980   -0.7180 O   0  0  0  0  0  0  0  0  0  0  0  0
    5.1810    3.1067   -0.4020 O   0  0  0  0  0  0  0  0  0  0  0  0
    4.8677    4.4626   -0.5179 O   0  0  0  0  0  0  0  0  0  0  0  0
    6.0152    5.1665   -0.1786 O   0  0  0  0  0  0  0  0  0  0  0  0
    5.7080    6.5157   -0.2724 O   0  0  0  0  0  0  0  0  0  0  0  0
    6.8745    7.1840    0.0524 O   0  0  0  0  0  0  0  0  0  0  0  0
    6.5887    8.5299   -0.0216 O   0  0  0  0  0  0  0  0  0  0  0  0
    7.7617    9.1691    0.3120 O   0  0  0  0  0  0  0  0  0  0  0  0
    7.4870   10.5113    0.2282 O   0  0  0  0  0  0  0  0  0  0  0  0
    8.6575   11.1443    0.5617 O   0  0  0  0  0  0  0  0  0  0  0  0
    8.3707   12.4813    0.4785 O   0  0  0  0  0  0  0  0  0  0  0  0
    9.5345   13.1150    0.8096 O   0  0  0  0  0  0  0  0  0  0  0  0
    9.2385   14.4463    0.7230 O   0  0  0  0  0  0  0  0  0  0  0  0
   10.4065   15.0835    1.0549 O   0  0  0  0  0  0  0  0  0  0  0  0
   10.1070   16.4172    0.9680 O   0  0  0  0  0  0  0  0  0  0  0  0
   11.2798   17.0484    1.3018 O   0  0  0  0  0  0  0  0  0  0  0  0
   10.9869   18.3711    1.2160 O   0  0  0  0  0  0  0  0  0  0  0  0
   12.1606   19.0060    1.5500 O   0  0  0  0  0  0  0  0  0  0  0  0
   11.8620   20.3343    1.4629 O   0  0  0  0  0  0  0  0  0  0  0  0
   13.0214   20.9858    1.7926 O   0  0  0  0  0  0  0  0  0  0  0  0
   12.7067   22.3174    1.7009 O   0  0  0  0  0  0  0  0  0  0  0  0
   13.8548   22.9589    2.0275 O   0  0  0  0  0  0  0  0  0  0  0  0
   13.5887   24.2892    1.9496 O   0  0  0  0  0  0  0  0  0  0  0  0
   14.7506   24.8921    2.2802 O   0  0  0  0  0  0  0  0  0  0  0  0
   14.4825   26.2332    2.2018 O   0  0  0  0  0  0  0  0  0  0  0  0
   15.6478   26.8585    2.5333 O   0  0  0  0  0  0  0  0  0  0  0  0
   15.3398   28.1842    2.4435 O   0  0  0  0  0  0  0  0  0  0  0  0
   16.4953   28.8238    2.7722 O   0  0  0  0  0  0  0  0  0  0  0  0
   16.1995   30.1530    2.6859 O   0  0  0  0  0  0  0  0  0  0  0  0
   17.3645   30.7897    3.0173 O   0  0  0  0  0  0  0  0  0  0  0  0
   17.0727   32.1226    2.9321 O   0  0  0  0  0  0  0  0  0  0  0  0
   18.2371   32.7602    3.2633 O   0  0  0  0  0  0  0  0  0  0  0  0
   17.9454   34.0954    3.1782 O   0  0  0  0  0  0  0  0  0  0  0  0
   19.1116   34.7397    3.5099 O   0  0  0  0  0  0  0  0  0  0  0  0
   18.8240   36.0762    3.4259 O   0  0  0  0  0  0  0  0  0  0  0  0
   19.9939   36.7317    3.7588 O   0  0  0  0  0  0  0  0  0  0  0  0
   19.7065   38.0639    3.6749 O   0  0  0  0  0  0  0  0  0  0  0  0
   20.8813   38.7275    4.0079 O   0  0  0  0  0  0  0  0  0  0  0  0
   20.6125   40.0699    3.9304 O   0  0  0  0  0  0  0  0  0  0  0  0
   21.7897   40.7175    4.2672 O   0  0  0  0  0  0  0  0  0  0  0  0
   21.5285   42.0790    4.1876 O   0  0  0  0  0  0  0  0  0  0  0  0
   22.7131   42.7423    4.5218 O   0  0  0  0  0  0  0  0  0  0  0  0
   22.3264   44.0718    4.4132 C   0  0  0  0  0  0  0  0  0  0  0  0
   23.5780   44.7821    4.7696 C   0  0  0  0  0  0  0  0  0  0  0  0
   23.2992   46.2447    4.6883 C   0  0  0  0  0  0  0  0  0  0  0  0
   24.5642   46.9712    5.0481 C   0  0  0  0  0  0  0  0  0  0  0  0
   24.2956   48.4515    4.9695 C   0  0  0  0  0  0  0  0  0  0  0  0
   25.5568   49.2007    5.3262 C   0  0  0  0  0  0  0  0  0  0  0  0
   25.2908   50.6877    5.2483 C   0  0  0  0  0  0  0  0  0  0  0  0
   26.5516   51.4461    5.6048 C   0  0  0  0  0  0  0  0  0  0  0  0
   26.2879   52.9362    5.5297 C   0  0  0  0  0  0  0  0  0  0  0  0
   27.5492   53.6974    5.8864 C   0  0  0  0  0  0  0  0  0  0  0  0
   27.2862   55.1888    5.8136 C   0  0  0  0  0  0  0  0  0  0  0  0
   28.5483   55.9509    6.1685 C   0  0  0  0  0  0  0  0  0  0  0  0
   28.2852   57.4427    6.0975 C   0  0  0  0  0  0  0  0  0  0  0  0
   29.5478   58.2050    6.4505 C   0  0  0  0  0  0  0  0  0  0  0  0
   29.2852   59.6969    6.3779 C   0  0  0  0  0  0  0  0  0  0  0  0
   30.5473   60.4593    6.7327 C   0  0  0  0  0  0  0  0  0  0  0  0
   30.2843   61.9513    6.6619 C   0  0  0  0  0  0  0  0  0  0  0  0
   31.5459   62.7137    7.0186 C   0  0  0  0  0  0  0  0  0  0  0  0
   31.2833   64.2057    6.9460 C   0  0  0  0  0  0  0  0  0  0  0  0
   32.5449   64.9681    7.3029 C   0  0  0  0  0  0  0  0  0  0  0  0
   32.2819   66.4600    7.2320 C   0  0  0  0  0  0  0  0  0  0  0  0
   33.5429   67.2224    7.5907 C   0  0  0  0  0  0  0  0  0  0  0  0
   33.2803   68.7144    7.5182 C   0  0  0  0  0  0  0  0  0  0  0  0
   34.5408   69.4768    7.8788 C   0  0  0  0  0  0  0  0  0  0  0  0
   34.2778   70.9689    7.8080 C   0  0  0  0  0  0  0  0  0  0  0  0
   35.5384   71.7316    8.1687 C   0  0  0  0  0  0  0  0  0  0  0  0
   35.2762   73.2242    8.0962 C   0  0  0  0  0  0  0  0  0  0  0  0
   36.5374   73.9886    8.4550 C   0  0  0  0  0  0  0  0  0  0  0  0
   36.2760   75.4830    8.3826 C   0  0  0  0  0  0  0  0  0  0  0  0
   37.5369   76.2517    8.7412 C   0  0  0  0  0  0  0  0  0  0  0  0
   37.2821   77.7501    8.6687 C   0  0  0  0  0  0  0  0  0  0  0  0
   38.5388   78.5185    9.0261 C   0  0  0  0  0  0  0  0  0  0  0  0
    0.7260   -0.4803    0.7725 H   0  0  0  0  0  0  0  0  0  0  0  0
    2.2871   -1.4054   -1.7434 H   0  0  0  0  0  0  0  0  0  0  0  0
    3.8911   -1.5077   -0.8281 H   0  0  0  0  0  0  0  0  0  0  0  0
    2.3993    1.0381   -1.7143 H   0  0  0  0  0  0  0  0  0  0  0  0
   21.5056   44.2787    5.1105 H   0  0  0  0  0  0  0  0  0  0  0  0
   21.9951   44.2793    3.3887 H   0  0  0  0  0  0  0  0  0  0  0  0
   24.3818   44.4746    4.0870 H   0  0  0  0  0  0  0  0  0  0  0  0
   23.9003   44.4765    5.7743 H   0  0  0  0  0  0  0  0  0  0  0  0
   22.4857   46.5079    5.3757 H   0  0  0  0  0  0  0  0  0  0  0  0
   22.9710   46.5057    3.6745 H   0  0  0  0  0  0  0  0  0  0  0  0
   25.3692   46.6858    4.3592 H   0  0  0  0  0  0  0  0  0  0  0  0
   24.8846   46.6882    6.0587 H   0  0  0  0  0  0  0  0  0  0  0  0
   23.4837   48.7195    5.6570 H   0  0  0  0  0  0  0  0  0  0  0  0
   23.9662   48.7168    3.9572 H   0  0  0  0  0  0  0  0  0  0  0  0
   26.3640   48.9224    4.6374 H   0  0  0  0  0  0  0  0  0  0  0  0
   25.8817   48.9251    6.3370 H   0  0  0  0  0  0  0  0  0  0  0  0
   24.4799   50.9584    5.9358 H   0  0  0  0  0  0  0  0  0  0  0  0
   24.9620   50.9559    4.2366 H   0  0  0  0  0  0  0  0  0  0  0  0
   27.3600   51.1718    4.9159 H   0  0  0  0  0  0  0  0  0  0  0  0
   26.8790   51.1725    6.6154 H   0  0  0  0  0  0  0  0  0  0  0  0
   25.4782   53.2078    6.2183 H   0  0  0  0  0  0  0  0  0  0  0  0
   25.9591   53.2073    4.5189 H   0  0  0  0  0  0  0  0  0  0  0  0
   28.3577   53.4252    5.1967 H   0  0  0  0  0  0  0  0  0  0  0  0
   27.8781   53.4238    6.8965 H   0  0  0  0  0  0  0  0  0  0  0  0
   26.4782   55.4602    6.5042 H   0  0  0  0  0  0  0  0  0  0  0  0
   26.9556   55.4615    4.8038 H   0  0  0  0  0  0  0  0  0  0  0  0
   29.3556   55.6799    5.4769 H   0  0  0  0  0  0  0  0  0  0  0  0
   28.8796   55.6768    7.1777 H   0  0  0  0  0  0  0  0  0  0  0  0
   27.4786   57.7136    6.7900 H   0  0  0  0  0  0  0  0  0  0  0  0
   27.9525   57.7163    5.0887 H   0  0  0  0  0  0  0  0  0  0  0  0
   30.3547   57.9331    5.7589 H   0  0  0  0  0  0  0  0  0  0  0  0
   29.8796   57.9321    7.4599 H   0  0  0  0  0  0  0  0  0  0  0  0
   28.4774   59.9686    7.0686 H   0  0  0  0  0  0  0  0  0  0  0  0
   28.9546   59.9699    5.3682 H   0  0  0  0  0  0  0  0  0  0  0  0
   31.3548   60.1886    6.0413 H   0  0  0  0  0  0  0  0  0  0  0  0
   30.8786   60.1854    7.7420 H   0  0  0  0  0  0  0  0  0  0  0  0
   29.4760   62.2219    7.3524 H   0  0  0  0  0  0  0  0  0  0  0  0
   29.9543   62.2254    5.6522 H   0  0  0  0  0  0  0  0  0  0  0  0
   32.3547   62.4422    6.3290 H   0  0  0  0  0  0  0  0  0  0  0  0
   31.8750   62.4405    8.0288 H   0  0  0  0  0  0  0  0  0  0  0  0
   30.4745   64.4771    7.6356 H   0  0  0  0  0  0  0  0  0  0  0  0
   30.9542   64.4789    5.9359 H   0  0  0  0  0  0  0  0  0  0  0  0
   33.3534   64.6975    6.6125 H   0  0  0  0  0  0  0  0  0  0  0  0
   32.8747   64.6939    8.3125 H   0  0  0  0  0  0  0  0  0  0  0  0
   31.4725   66.7304    7.9214 H   0  0  0  0  0  0  0  0  0  0  0  0
   31.9532   66.7343    6.2219 H   0  0  0  0  0  0  0  0  0  0  0  0
   34.3528   66.9512    6.9022 H   0  0  0  0  0  0  0  0  0  0  0  0
   33.8706   66.9489    8.6013 H   0  0  0  0  0  0  0  0  0  0  0  0
   32.4696   68.9854    8.2057 H   0  0  0  0  0  0  0  0  0  0  0  0
   32.9539   68.9880    6.5072 H   0  0  0  0  0  0  0  0  0  0  0  0
   35.3511   69.2066    7.1905 H   0  0  0  0  0  0  0  0  0  0  0  0
   34.8680   69.2021    8.8892 H   0  0  0  0  0  0  0  0  0  0  0  0
   33.4674   71.2388    8.4963 H   0  0  0  0  0  0  0  0  0  0  0  0
   33.9505   71.2432    6.7976 H   0  0  0  0  0  0  0  0  0  0  0  0
   36.3490   71.4602    7.4811 H   0  0  0  0  0  0  0  0  0  0  0  0
   35.8647   71.4576    9.1795 H   0  0  0  0  0  0  0  0  0  0  0  0
   34.4660   73.4947    8.7845 H   0  0  0  0  0  0  0  0  0  0  0  0
   34.9482   73.4969    7.0855 H   0  0  0  0  0  0  0  0  0  0  0  0
   37.3467   73.7158    7.7665 H   0  0  0  0  0  0  0  0  0  0  0  0
   36.8647   73.7137    9.4654 H   0  0  0  0  0  0  0  0  0  0  0  0
   35.4651   75.7517    9.0707 H   0  0  0  0  0  0  0  0  0  0  0  0
   35.9472   75.7535    7.3717 H   0  0  0  0  0  0  0  0  0  0  0  0
   38.3461   75.9755    8.0538 H   0  0  0  0  0  0  0  0  0  0  0  0
   37.8631   75.9755    9.7516 H   0  0  0  0  0  0  0  0  0  0  0  0
   36.4741   78.0248    9.3568 H   0  0  0  0  0  0  0  0  0  0  0  0
   36.9573   78.0247    7.6583 H   0  0  0  0  0  0  0  0  0  0  0  0
   38.8660   78.2736   10.0416 H   0  0  0  0  0  0  0  0  0  0  0  0
   38.3519   79.5940    8.9729 H   0  0  0  0  0  0  0  0  0  0  0  0
   39.3515   78.2735    8.3350 H   0  0  0  0  0  0  0  0  0  0  0  0
  1  2  1  0  0  0  0
  1 80  1  0  0  0  0
  2  3  1  0  0  0  0
  2  4  1  0  0  0  0
  3  4  1  0  0  0  0
  3 81  1  0  0  0  0
  3 82  1  0  0  0  0
  4  5  1  0  0  0  0
  4 83  1  0  0  0  0
  5  6  1  0  0  0  0
  6  7  1  0  0  0  0
  7  8  1  0  0  0  0
  8  9  1  0  0  0  0
  9 10  1  0  0  0  0
 10 11  1  0  0  0  0
 11 12  1  0  0  0  0
 12 13  1  0  0  0  0
 13 14  1  0  0  0  0
 14 15  1  0  0  0  0
 15 16  1  0  0  0  0
 16 17  1  0  0  0  0
 17 18  1  0  0  0  0
 18 19  1  0  0  0  0
 19 20  1  0  0  0  0
 20 21  1  0  0  0  0
 21 22  1  0  0  0  0
 22 23  1  0  0  0  0
 23 24  1  0  0  0  0
 24 25  1  0  0  0  0
 25 26  1  0  0  0  0
 26 27  1  0  0  0  0
 27 28  1  0  0  0  0
 28 29  1  0  0  0  0
 29 30  1  0  0  0  0
 30 31  1  0  0  0  0
 31 32  1  0  0  0  0
 32 33  1  0  0  0  0
 33 34  1  0  0  0  0
 34 35  1  0  0  0  0
 35 36  1  0  0  0  0
 36 37  1  0  0  0  0
 37 38  1  0  0  0  0
 38 39  1  0  0  0  0
 39 40  1  0  0  0  0
 40 41  1  0  0  0  0
 41 42  1  0  0  0  0
 42 43  1  0  0  0  0
 43 44  1  0  0  0  0
 44 45  1  0  0  0  0
 45 46  1  0  0  0  0
 46 47  1  0  0  0  0
 47 48  1  0  0  0  0
 48 49  1  0  0  0  0
 48 84  1  0  0  0  0
 48 85  1  0  0  0  0
 49 50  1  0  0  0  0
 49 86  1  0  0  0  0
 49 87  1  0  0  0  0
 50 51  1  0  0  0  0
 50 88  1  0  0  0  0
 50 89  1  0  0  0  0
 51 52  1  0  0  0  0
 51 90  1  0  0  0  0
 51 91  1  0  0  0  0
 52 53  1  0  0  0  0
 52 92  1  0  0  0  0
 52 93  1  0  0  0  0
 53 54  1  0  0  0  0
 53 94  1  0  0  0  0
 53 95  1  0  0  0  0
 54 55  1  0  0  0  0
 54 96  1  0  0  0  0
 54 97  1  0  0  0  0
 55 56  1  0  0  0  0
 55 98  1  0  0  0  0
 55 99  1  0  0  0  0
 56 57  1  0  0  0  0
 56100  1  0  0  0  0
 56101  1  0  0  0  0
 57 58  1  0  0  0  0
 57102  1  0  0  0  0
 57103  1  0  0  0  0
 58 59  1  0  0  0  0
 58104  1  0  0  0  0
 58105  1  0  0  0  0
 59 60  1  0  0  0  0
 59106  1  0  0  0  0
 59107  1  0  0  0  0
 60 61  1  0  0  0  0
 60108  1  0  0  0  0
 60109  1  0  0  0  0
 61 62  1  0  0  0  0
 61110  1  0  0  0  0
 61111  1  0  0  0  0
 62 63  1  0  0  0  0
 62112  1  0  0  0  0
 62113  1  0  0  0  0
 63 64  1  0  0  0  0
 63114  1  0  0  0  0
 63115  1  0  0  0  0
 64 65  1  0  0  0  0
 64116  1  0  0  0  0
 64117  1  0  0  0  0
 65 66  1  0  0  0  0
 65118  1  0  0  0  0
 65119  1  0  0  0  0
 66 67  1  0  0  0  0
 66120  1  0  0  0  0
 66121  1  0  0  0  0
 67 68  1  0  0  0  0
 67122  1  0  0  0  0
 67123  1  0  0  0  0
 68 69  1  0  0  0  0
 68124  1  0  0  0  0
 68125  1  0  0  0  0
 69 70  1  0  0  0  0
 69126  1  0  0  0  0
 69127  1  0  0  0  0
 70 71  1  0  0  0  0
 70128  1  0  0  0  0
 70129  1  0  0  0  0
 71 72  1  0  0  0  0
 71130  1  0  0  0  0
 71131  1  0  0  0  0
 72 73  1  0  0  0  0
 72132  1  0  0  0  0
 72133  1  0  0  0  0
 73 74  1  0  0  0  0
 73134  1  0  0  0  0
 73135  1  0  0  0  0
 74 75  1  0  0  0  0
 74136  1  0  0  0  0
 74137  1  0  0  0  0
 75 76  1  0  0  0  0
 75138  1  0  0  0  0
 75139  1  0  0  0  0
 76 77  1  0  0  0  0
 76140  1  0  0  0  0
 76141  1  0  0  0  0
 77 78  1  0  0  0  0
 77142  1  0  0  0  0
 77143  1  0  0  0  0
 78 79  1  0  0  0  0
 78144  1  0  0  0  0
 78145  1  0  0  0  0
 79146  1  0  0  0  0
 79147  1  0  0  0  0
 79148  1  0  0  0  0
M  END
$$$$
