
 OpenBabel04232216423D

 68 70  0  0  0  0  0  0  0  0999 V2000
    7.4129   -0.7276    3.8618 C   0  0  0  0  0  0  0  0  0  0  0  0
    5.8020   -1.1532    3.0302 C   0  0  0  0  0  3  0  0  0  0  0  0
    4.6703   -0.3095    2.3584 C   0  0  0  0  0  0  0  0  0  0  0  0
    5.0479    1.0945    1.9991 C   0  0  0  0  0  0  0  0  0  0  0  0
    5.9504    1.0327    3.1377 C   0  0  0  0  0  0  0  0  0  0  0  0
    4.9794    0.4721    4.6042 C   0  0  0  0  0  0  0  0  0  0  0  0
    5.3382   -0.7353    5.6274 C   0  0  0  0  0  0  0  0  0  0  0  0
    5.3997   -2.3673    5.3193 C   0  0  0  0  0  0  0  0  0  0  0  0
    6.5952   -3.2932    4.5714 C   0  0  0  0  0  0  0  0  0  0  0  0
    6.6151   -3.7106    2.9778 C   0  0  0  0  0  0  0  0  0  0  0  0
    7.3638   -3.0045    1.6856 C   0  0  0  0  0  0  0  0  0  0  0  0
    7.2952   -1.5787    0.8480 C   0  0  0  0  0  0  0  0  0  0  0  0
    6.0374   -0.8559    0.1957 C   0  0  0  0  0  0  0  0  0  0  0  0
    5.6703    0.7549    0.5594 C   0  0  0  0  0  0  0  0  0  0  0  0
    4.6293    2.5900    2.5364 C   0  0  0  0  0  0  0  0  0  0  0  0
    5.7596    3.4878    3.4810 C   0  0  0  0  0  0  0  0  0  0  0  0
    6.3474    2.9535    4.9371 C   0  0  0  0  0  0  0  0  0  0  0  0
    7.5377    1.8666    5.2196 C   0  0  0  0  0  0  0  0  0  0  0  0
    8.1516    2.3954    6.4675 C   0  0  0  0  0  0  0  0  0  0  0  0
    7.4615    1.9661    7.7551 C   0  0  0  0  0  0  0  0  0  0  0  0
    9.2984    3.1016    6.4308 C   0  0  0  0  0  0  0  0  0  0  0  0
   10.0513    3.3906    7.6176 C   0  0  0  0  0  0  0  0  0  0  0  0
   11.1667    2.7287    8.0062 C   0  0  0  0  0  0  0  0  0  0  0  0
   11.8656    1.6549    7.3641 C   0  0  0  0  0  0  0  0  0  0  0  0
   11.4438    0.5651    6.6548 C   0  0  0  0  0  0  0  0  0  0  0  0
   10.0681    0.2146    6.2785 C   0  0  0  0  0  0  0  0  0  0  0  0
    9.5067    0.3779    5.0581 C   0  0  0  0  0  0  0  0  0  0  0  0
    8.0072    0.6257    4.7574 C   0  0  0  0  0  0  0  0  0  0  0  0
    7.4285   -1.3383    4.7369 H   0  0  0  0  0  0  0  0  0  0  0  0
    8.2253   -1.1035    3.2332 H   0  0  0  0  0  0  0  0  0  0  0  0
    5.3182   -2.1051    3.0776 H   0  0  0  0  0  0  0  0  0  0  0  0
    3.7374   -0.7983    2.0440 H   0  0  0  0  0  0  0  0  0  0  0  0
    6.6747    1.8070    3.2305 H   0  0  0  0  0  0  0  0  0  0  0  0
    6.7747    0.5389    2.6145 H   0  0  0  0  0  0  0  0  0  0  0  0
    3.9504    0.2084    4.2765 H   0  0  0  0  0  0  0  0  0  0  0  0
    4.6554    1.3398    5.1701 H   0  0  0  0  0  0  0  0  0  0  0  0
    4.4945   -0.6707    6.3353 H   0  0  0  0  0  0  0  0  0  0  0  0
    6.1919   -0.4460    6.2432 H   0  0  0  0  0  0  0  0  0  0  0  0
    4.4319   -2.6675    4.8979 H   0  0  0  0  0  0  0  0  0  0  0  0
    5.3969   -2.7732    6.3414 H   0  0  0  0  0  0  0  0  0  0  0  0
    6.4508   -4.2608    5.0751 H   0  0  0  0  0  0  0  0  0  0  0  0
    7.6136   -3.0597    4.9094 H   0  0  0  0  0  0  0  0  0  0  0  0
    5.5950   -3.9859    2.6854 H   0  0  0  0  0  0  0  0  0  0  0  0
    7.1335   -4.6816    3.0227 H   0  0  0  0  0  0  0  0  0  0  0  0
    7.2020   -3.7516    0.8937 H   0  0  0  0  0  0  0  0  0  0  0  0
    8.4329   -3.0935    1.9329 H   0  0  0  0  0  0  0  0  0  0  0  0
    7.9179   -1.8245   -0.0290 H   0  0  0  0  0  0  0  0  0  0  0  0
    7.9090   -0.8124    1.3247 H   0  0  0  0  0  0  0  0  0  0  0  0
    5.1472   -1.5033    0.2819 H   0  0  0  0  0  0  0  0  0  0  0  0
    6.2243   -0.8389   -0.8898 H   0  0  0  0  0  0  0  0  0  0  0  0
    4.9089    1.0410   -0.1866 H   0  0  0  0  0  0  0  0  0  0  0  0
    6.5649    1.3663    0.3772 H   0  0  0  0  0  0  0  0  0  0  0  0
    3.7367    2.5186    3.1763 H   0  0  0  0  0  0  0  0  0  0  0  0
    4.3645    3.2411    1.6968 H   0  0  0  0  0  0  0  0  0  0  0  0
    5.3316    4.4748    3.6775 H   0  0  0  0  0  0  0  0  0  0  0  0
    6.6427    3.6778    2.8439 H   0  0  0  0  0  0  0  0  0  0  0  0
    5.5373    2.7942    5.6509 H   0  0  0  0  0  0  0  0  0  0  0  0
    6.7708    3.8941    5.3265 H   0  0  0  0  0  0  0  0  0  0  0  0
    6.4512    1.6067    7.5710 H   0  0  0  0  0  0  0  0  0  0  0  0
    7.3862    2.8067    8.4488 H   0  0  0  0  0  0  0  0  0  0  0  0
    8.0058    1.1627    8.2617 H   0  0  0  0  0  0  0  0  0  0  0  0
    9.7955    3.3008    5.4837 H   0  0  0  0  0  0  0  0  0  0  0  0
    9.6536    4.1752    8.2577 H   0  0  0  0  0  0  0  0  0  0  0  0
   11.6511    3.1112    8.9093 H   0  0  0  0  0  0  0  0  0  0  0  0
   12.9465    1.6900    7.5739 H   0  0  0  0  0  0  0  0  0  0  0  0
   12.2046   -0.1703    6.3866 H   0  0  0  0  0  0  0  0  0  0  0  0
    9.4424    0.0300    7.1486 H   0  0  0  0  0  0  0  0  0  0  0  0
   10.1564    0.5906    4.1953 H   0  0  0  0  0  0  0  0  0  0  0  0
  1  2  1  0  0  0  0
  1 28  1  0  0  0  0
  1 29  1  0  0  0  0
  1 30  1  0  0  0  0
  2  3  1  0  0  0  0
  2 31  1  0  0  0  0
  3  4  2  0  0  0  0
  3 32  1  0  0  0  0
  4  5  1  0  0  0  0
  4 15  1  0  0  0  0
  5  6  1  0  0  0  0
  5 33  1  0  0  0  0
  5 34  1  0  0  0  0
  6  7  1  0  0  0  0
  6 35  1  0  0  0  0
  6 36  1  0  0  0  0
  7  8  1  0  0  0  0
  7 37  1  0  0  0  0
  7 38  1  0  0  0  0
  8  9  1  0  0  0  0
  8 39  1  0  0  0  0
  8 40  1  0  0  0  0
  9 10  1  0  0  0  0
  9 41  1  0  0  0  0
  9 42  1  0  0  0  0
 10 11  1  0  0  0  0
 10 43  1  0  0  0  0
 10 44  1  0  0  0  0
 11 12  1  0  0  0  0
 11 45  1  0  0  0  0
 11 46  1  0  0  0  0
 12 13  1  0  0  0  0
 12 47  1  0  0  0  0
 12 48  1  0  0  0  0
 13 14  1  0  0  0  0
 13 49  1  0  0  0  0
 13 50  1  0  0  0  0
 14  4  1  0  0  0  0
 14 51  1  0  0  0  0
 14 52  1  0  0  0  0
 15 16  1  0  0  0  0
 15 53  1  0  0  0  0
 15 54  1  0  0  0  0
 16 17  1  0  0  0  0
 16 55  1  0  0  0  0
 16 56  1  0  0  0  0
 17 18  1  0  0  0  0
 17 57  1  0  0  0  0
 17 58  1  0  0  0  0
 18 19  1  0  0  0  0
 18 28  2  0  0  0  0
 19 20  1  0  0  0  0
 19 21  2  0  0  0  0
 20 59  1  0  0  0  0
 20 60  1  0  0  0  0
 20 61  1  0  0  0  0
 21 22  1  0  0  0  0
 21 62  1  0  0  0  0
 22 23  2  0  0  0  0
 22 63  1  0  0  0  0
 23 24  1  0  0  0  0
 23 64  1  0  0  0  0
 24 25  2  0  0  0  0
 24 65  1  0  0  0  0
 25 26  1  0  0  0  0
 25 66  1  0  0  0  0
 26 27  2  0  0  0  0
 26 67  1  0  0  0  0
 27 28  1  0  0  0  0
 27 68  1  0  0  0  0
M  END
$$$$
