
 OpenBabel04232217003D

 40 42  0  0  0  0  0  0  0  0999 V2000
    6.4744   -2.4200   -1.3229 O   0  0  0  0  0  0  0  0  0  0  0  0
    6.6581   -2.3996    0.0575 C   0  0  0  0  0  0  0  0  0  0  0  0
    5.5096   -2.4329    0.7518 C   0  0  0  0  0  0  0  0  0  0  0  0
    5.3511   -1.9092    2.1106 C   0  0  0  0  0  0  0  0  0  0  0  0
    4.9177   -0.7682    2.2593 O   0  0  0  0  0  0  0  0  0  0  0  0
    5.7353   -2.8111    3.2431 C   0  0  0  0  0  0  0  0  0  0  0  0
    5.9036   -4.3102    2.9675 C   0  0  0  0  0  0  0  0  0  0  0  0
    7.3033   -4.9184    3.0174 C   0  0  0  0  0  0  0  0  0  0  0  0
    7.8308   -5.3092    4.3677 C   0  0  0  0  0  0  0  0  0  0  0  0
    7.1843   -6.3526    5.0549 C   0  0  0  0  0  0  0  0  0  0  0  0
    7.4854   -6.6208    6.3878 C   0  0  0  0  0  0  0  0  0  0  0  0
    8.4841   -5.8988    7.0338 C   0  0  0  0  0  0  0  0  0  0  0  0
    9.1890   -4.9054    6.3431 C   0  0  0  0  0  0  0  0  0  0  0  0
    8.8592   -4.5794    5.0135 C   0  0  0  0  0  0  0  0  0  0  0  0
    6.0193   -2.0636    4.3371 C   0  0  0  0  0  0  0  0  0  0  0  0
    7.0670   -2.4106    5.2667 C   0  0  0  0  0  0  0  0  0  0  0  0
    8.3213   -2.1203    4.7946 C   0  0  0  0  0  0  0  0  0  0  0  0
    9.2756   -3.2269    4.5363 C   0  0  0  0  0  0  0  0  0  0  0  0
   10.1587   -2.9455    3.5394 C   0  0  0  0  0  0  0  0  0  0  0  0
   10.3482   -3.7932    2.3639 C   0  0  0  0  0  0  0  0  0  0  0  0
    9.6906   -3.5964    1.1889 C   0  0  0  0  0  0  0  0  0  0  0  0
    8.9495   -2.3035    0.9038 C   0  0  0  0  0  0  0  0  0  0  0  0
    7.8201   -1.8282    0.4852 N   0  0  0  0  0  0  0  0  0  0  0  0
    5.8536   -1.6777   -1.4888 H   0  0  0  0  0  0  0  0  0  0  0  0
    4.5594   -2.6430    0.2738 H   0  0  0  0  0  0  0  0  0  0  0  0
    5.5668   -4.5211    1.9438 H   0  0  0  0  0  0  0  0  0  0  0  0
    5.2030   -4.8830    3.5835 H   0  0  0  0  0  0  0  0  0  0  0  0
    7.9366   -4.1862    2.5584 H   0  0  0  0  0  0  0  0  0  0  0  0
    7.3737   -5.8034    2.3707 H   0  0  0  0  0  0  0  0  0  0  0  0
    6.3845   -6.9078    4.5712 H   0  0  0  0  0  0  0  0  0  0  0  0
    6.9093   -7.3660    6.9314 H   0  0  0  0  0  0  0  0  0  0  0  0
    8.6772   -6.0708    8.0904 H   0  0  0  0  0  0  0  0  0  0  0  0
    9.9019   -4.2960    6.8962 H   0  0  0  0  0  0  0  0  0  0  0  0
    5.7554   -1.0080    4.3872 H   0  0  0  0  0  0  0  0  0  0  0  0
    6.8460   -3.2422    5.9282 H   0  0  0  0  0  0  0  0  0  0  0  0
    8.3895   -1.3038    4.0758 H   0  0  0  0  0  0  0  0  0  0  0  0
   10.4066   -1.9040    3.3336 H   0  0  0  0  0  0  0  0  0  0  0  0
   10.9843   -4.6670    2.5221 H   0  0  0  0  0  0  0  0  0  0  0  0
    9.7832   -4.3152    0.3904 H   0  0  0  0  0  0  0  0  0  0  0  0
    9.6405   -1.4638    1.0903 H   0  0  0  0  0  0  0  0  0  0  0  0
  1  2  1  0  0  0  0
  1 24  1  0  0  0  0
  2  3  2  3  0  0  0
  2 23  1  0  0  0  0
  3  4  1  0  0  0  0
  3 25  1  0  0  0  0
  4  5  2  0  0  0  0
  4  6  1  0  0  0  0
  6  7  1  0  0  0  0
  6 15  2  3  0  0  0
  7  8  1  0  0  0  0
  7 26  1  0  0  0  0
  7 27  1  0  0  0  0
  8  9  1  0  0  0  0
  8 28  1  0  0  0  0
  8 29  1  0  0  0  0
  9 10  1  0  0  0  0
  9 14  2  0  0  0  0
 10 11  2  0  0  0  0
 10 30  1  0  0  0  0
 11 12  1  0  0  0  0
 11 31  1  0  0  0  0
 12 13  2  0  0  0  0
 12 32  1  0  0  0  0
 13 14  1  0  0  0  0
 13 33  1  0  0  0  0
 14 18  1  0  0  0  0
 15 16  1  0  0  0  0
 15 34  1  0  0  0  0
 16 17  2  3  0  0  0
 16 35  1  0  0  0  0
 17 18  1  0  0  0  0
 17 36  1  0  0  0  0
 18 19  2  3  0  0  0
 19 20  1  0  0  0  0
 19 37  1  0  0  0  0
 20 21  2  3  0  0  0
 20 38  1  0  0  0  0
 21 22  1  0  0  0  0
 21 39  1  0  0  0  0
 22 23  2  3  0  0  0
 22 40  1  0  0  0  0
M  END
$$$$
