
 OpenBabel04232216403D

 65 66  0  0  1  0  0  0  0  0999 V2000
    4.3860   -2.2468    1.2310 C   0  0  0  0  0  0  0  0  0  0  0  0
    5.6793   -2.0238    1.4687 C   0  0  0  0  0  0  0  0  0  0  0  0
    6.8584   -1.2345    0.8997 C   0  0  0  0  0  0  0  0  0  0  0  0
    7.6978   -1.5749   -0.3065 N   0  0  0  0  0  0  0  0  0  0  0  0
    6.8293   -1.5524   -1.6916 C   0  0  3  0  0  0  0  0  0  0  0  0
    5.8410   -0.4025   -2.0423 C   0  0  0  0  0  0  0  0  0  0  0  0
    7.9383   -1.4882   -2.6303 C   0  0  0  0  0  0  0  0  0  0  0  0
    8.3384   -1.3566   -4.0841 C   0  0  0  0  0  0  0  0  0  0  0  0
    9.8717   -1.2692   -3.8150 C   0  0  0  0  0  0  0  0  0  0  0  0
   10.6021    0.0696   -3.9931 C   0  0  0  0  0  0  0  0  0  0  0  0
   10.8508    0.9346   -2.5853 C   0  0  0  0  0  0  0  0  0  0  0  0
    9.9705    1.6769   -2.1605 O   0  0  0  0  0  0  0  0  0  0  0  0
   12.1745    0.8512   -1.8321 C   0  0  0  0  0  0  0  0  0  0  0  0
   12.8339   -0.0601   -2.5585 C   0  0  0  0  0  0  0  0  0  0  0  0
   12.3927   -1.4915   -2.4407 C   0  0  0  0  0  0  0  0  0  0  0  0
   12.1174   -1.9843   -1.1889 C   0  0  0  0  0  0  0  0  0  0  0  0
   13.4768   -2.1968   -0.4580 N   0  0  0  0  0  0  0  0  0  0  0  0
   14.8298   -1.5074   -0.9428 C   0  0  0  0  0  0  0  0  0  0  0  0
   16.0036   -1.1634    0.0313 C   0  0  0  0  0  0  0  0  0  0  0  0
   15.4484   -0.0251    0.9066 C   0  0  0  0  0  0  0  0  0  0  0  0
   16.0692    0.6707    2.0582 C   0  0  0  0  0  0  0  0  0  0  0  0
   14.8633    1.5552    2.6616 C   0  0  0  0  0  0  0  0  0  0  0  0
   13.3189    1.9459    2.2421 C   0  0  0  0  0  0  0  0  0  0  0  0
   12.3100    1.5472    1.0428 C   0  0  0  0  0  0  0  0  0  0  0  0
   12.7950    1.3193   -0.4431 C   0  0  0  0  0  0  0  0  0  0  0  0
   10.7430   -1.7118   -0.3446 C   0  0  0  0  0  0  0  0  0  0  0  0
    9.3146   -1.5680   -0.1140 C   0  0  0  0  0  0  0  0  0  0  0  0
    3.8077   -2.7346    2.0440 H   0  0  0  0  0  0  0  0  0  0  0  0
    3.7909   -1.9633    0.3781 H   0  0  0  0  0  0  0  0  0  0  0  0
    5.9358   -2.3298    2.4960 H   0  0  0  0  0  0  0  0  0  0  0  0
    7.5677   -1.4644    1.7106 H   0  0  0  0  0  0  0  0  0  0  0  0
    6.6976   -0.1548    0.9905 H   0  0  0  0  0  0  0  0  0  0  0  0
    6.2582   -2.4869   -1.7426 H   0  0  0  0  0  0  0  0  0  0  0  0
    6.1365    0.5891   -1.6901 H   0  0  0  0  0  0  0  0  0  0  0  0
    4.8121   -0.5974   -1.7109 H   0  0  0  0  0  0  0  0  0  0  0  0
    5.7381   -0.3178   -3.1427 H   0  0  0  0  0  0  0  0  0  0  0  0
    8.4443   -2.4256   -2.3716 H   0  0  0  0  0  0  0  0  0  0  0  0
    8.3545   -0.5508   -2.2909 H   0  0  0  0  0  0  0  0  0  0  0  0
    7.9498   -0.4794   -4.6054 H   0  0  0  0  0  0  0  0  0  0  0  0
    8.0926   -2.2564   -4.6695 H   0  0  0  0  0  0  0  0  0  0  0  0
   10.3714   -2.1680   -4.1985 H   0  0  0  0  0  0  0  0  0  0  0  0
   10.0256   -1.4124   -2.7486 H   0  0  0  0  0  0  0  0  0  0  0  0
   10.0870    0.6976   -4.7297 H   0  0  0  0  0  0  0  0  0  0  0  0
   11.5429   -0.1858   -4.4941 H   0  0  0  0  0  0  0  0  0  0  0  0
   13.8939    0.0516   -2.7627 H   0  0  0  0  0  0  0  0  0  0  0  0
   13.1475   -2.0422   -2.9901 H   0  0  0  0  0  0  0  0  0  0  0  0
   13.6706   -3.1898   -0.6350 H   0  0  0  0  0  0  0  0  0  0  0  0
   14.5771   -0.4993   -1.2058 H   0  0  0  0  0  0  0  0  0  0  0  0
   15.1992   -1.9472   -1.8757 H   0  0  0  0  0  0  0  0  0  0  0  0
   16.8283   -0.7238   -0.5703 H   0  0  0  0  0  0  0  0  0  0  0  0
   16.4172   -2.0202    0.5554 H   0  0  0  0  0  0  0  0  0  0  0  0
   14.5352   -0.4685    1.3004 H   0  0  0  0  0  0  0  0  0  0  0  0
   15.2627    0.7828    0.2231 H   0  0  0  0  0  0  0  0  0  0  0  0
   16.9057    1.3350    1.7702 H   0  0  0  0  0  0  0  0  0  0  0  0
   16.5050    0.0139    2.8263 H   0  0  0  0  0  0  0  0  0  0  0  0
   14.4812    0.6462    3.1218 H   0  0  0  0  0  0  0  0  0  0  0  0
   15.1640    2.3267    1.9663 H   0  0  0  0  0  0  0  0  0  0  0  0
   13.3147    3.0467    2.2782 H   0  0  0  0  0  0  0  0  0  0  0  0
   12.7550    1.7090    3.1647 H   0  0  0  0  0  0  0  0  0  0  0  0
   11.5396    2.3225    1.0415 H   0  0  0  0  0  0  0  0  0  0  0  0
   11.8022    0.6331    1.3950 H   0  0  0  0  0  0  0  0  0  0  0  0
   13.5857    2.0516   -0.6580 H   0  0  0  0  0  0  0  0  0  0  0  0
   13.2862    0.3910   -0.1736 H   0  0  0  0  0  0  0  0  0  0  0  0
   11.2218   -1.4802    0.5972 H   0  0  0  0  0  0  0  0  0  0  0  0
    9.2465   -1.2397    0.9245 H   0  0  0  0  0  0  0  0  0  0  0  0
  1  2  2  0  0  0  0
  1 28  1  0  0  0  0
  1 29  1  0  0  0  0
  2  3  1  0  0  0  0
  2 30  1  0  0  0  0
  3  4  1  0  0  0  0
  3 31  1  0  0  0  0
  3 32  1  0  0  0  0
  4  5  1  0  0  0  0
  4 27  1  0  0  0  0
  5  6  1  0  0  0  0
  5  7  1  0  0  0  0
  5 33  1  0  0  0  0
  6 34  1  0  0  0  0
  6 35  1  0  0  0  0
  6 36  1  0  0  0  0
  7  8  1  0  0  0  0
  7 37  1  0  0  0  0
  7 38  1  0  0  0  0
  8  9  1  0  0  0  0
  8 39  1  0  0  0  0
  8 40  1  0  0  0  0
  9 10  1  0  0  0  0
  9 41  1  0  0  0  0
  9 42  1  0  0  0  0
 10 11  1  0  0  0  0
 10 43  1  0  0  0  0
 10 44  1  0  0  0  0
 11 12  2  0  0  0  0
 11 13  1  0  0  0  0
 13 14  2  3  0  0  0
 13 25  1  0  0  0  0
 14 15  1  0  0  0  0
 14 45  1  0  0  0  0
 15 16  2  3  0  0  0
 15 46  1  0  0  0  0
 16 17  1  0  0  0  0
 16 26  1  0  0  0  0
 17 18  1  0  0  0  0
 17 47  1  0  0  0  0
 18 19  1  0  0  0  0
 18 48  1  0  0  0  0
 18 49  1  0  0  0  0
 19 20  1  0  0  0  0
 19 50  1  0  0  0  0
 19 51  1  0  0  0  0
 20 21  1  0  0  0  0
 20 52  1  0  0  0  0
 20 53  1  0  0  0  0
 21 22  1  0  0  0  0
 21 54  1  0  0  0  0
 21 55  1  0  0  0  0
 22 23  1  0  0  0  0
 22 56  1  0  0  0  0
 22 57  1  0  0  0  0
 23 24  1  0  0  0  0
 23 58  1  0  0  0  0
 23 59  1  0  0  0  0
 24 25  1  0  0  0  0
 24 60  1  0  0  0  0
 24 61  1  0  0  0  0
 25 62  1  0  0  0  0
 25 63  1  0  0  0  0
 26 27  2  3  0  0  0
 26 64  1  0  0  0  0
 27 65  1  0  0  0  0
M  END
$$$$
