
 OpenBabel04232216453D

 63 64  0  0  0  0  0  0  0  0999 V2000
   11.9053    0.9169    2.6270 C   0  0  0  0  0  0  0  0  0  0  0  0
   10.5408    0.3925    2.3611 C   0  0  0  0  0  0  0  0  0  0  0  0
    9.4729    1.0835    1.7314 C   0  0  0  0  0  0  0  0  0  0  0  0
    8.3768    0.2407    1.6804 C   0  0  0  0  0  0  0  0  0  0  0  0
    7.0346    0.5042    1.0983 C   0  0  0  0  0  0  0  0  0  0  0  0
    8.7399   -0.9508    2.2851 N   0  0  0  0  0  0  0  0  0  0  0  0
    7.8758   -2.1032    2.5723 C   0  0  0  0  0  0  0  0  0  0  0  0
    7.8629   -3.1233    1.4281 C   0  0  0  0  0  0  0  0  0  0  0  0
    6.9544   -4.3996    1.5960 C   0  0  0  0  0  0  0  0  0  0  0  0
    6.7266   -5.0240    0.1957 C   0  0  0  0  0  0  0  0  0  0  0  0
    6.8267   -6.6217   -0.3149 C   0  0  0  0  0  0  0  0  0  0  0  0
    6.8812   -7.3079   -1.4205 O   0  0  0  0  0  0  0  0  0  0  0  0
    7.2827   -7.6146    0.5309 C   0  0  0  0  0  0  0  0  0  0  0  0
    5.8950   -7.9322    0.3898 C   0  0  0  0  0  0  0  0  0  0  0  0
    4.7300   -7.3335   -0.7236 C   0  0  0  0  0  0  0  0  0  0  0  0
    4.8643   -6.3566   -1.7590 C   0  0  0  0  0  0  0  0  0  0  0  0
    3.5318   -5.7668   -2.2214 C   0  0  0  0  0  0  0  0  0  0  0  0
    3.1585   -5.5698   -3.6873 C   0  0  0  0  0  0  0  0  0  0  0  0
    3.0807   -6.8238   -4.5535 C   0  0  0  0  0  0  0  0  0  0  0  0
    2.5817   -6.4255   -5.9553 C   0  0  0  0  0  0  0  0  0  0  0  0
    2.5266   -7.5997   -6.9291 C   0  0  0  0  0  0  0  0  0  0  0  0
    2.0626   -7.1437   -8.3087 C   0  0  0  0  0  0  0  0  0  0  0  0
    6.3551   -5.5357   -2.4359 C   0  0  0  0  0  0  0  0  0  0  0  0
    8.1805   -5.8050   -1.9575 C   0  0  0  0  0  0  0  0  0  0  0  0
    8.6292   -6.7999   -0.3886 C   0  0  0  0  0  0  0  0  0  0  0  0
   10.0587   -0.8644    2.6713 C   0  0  0  0  0  0  0  0  0  0  0  0
   11.9585    1.9954    2.4443 H   0  0  0  0  0  0  0  0  0  0  0  0
   12.6372    0.4265    1.9776 H   0  0  0  0  0  0  0  0  0  0  0  0
   12.1911    0.7389    3.6689 H   0  0  0  0  0  0  0  0  0  0  0  0
    9.5020    2.0991    1.3509 H   0  0  0  0  0  0  0  0  0  0  0  0
    6.9940    1.5043    0.6505 H   0  0  0  0  0  0  0  0  0  0  0  0
    6.2591    0.4530    1.8675 H   0  0  0  0  0  0  0  0  0  0  0  0
    6.8061   -0.2202    0.3112 H   0  0  0  0  0  0  0  0  0  0  0  0
    6.8713   -1.7143    2.7697 H   0  0  0  0  0  0  0  0  0  0  0  0
    8.2452   -2.5592    3.4975 H   0  0  0  0  0  0  0  0  0  0  0  0
    8.8914   -3.4587    1.2392 H   0  0  0  0  0  0  0  0  0  0  0  0
    7.5531   -2.5846    0.5209 H   0  0  0  0  0  0  0  0  0  0  0  0
    5.9833   -4.0785    1.9955 H   0  0  0  0  0  0  0  0  0  0  0  0
    7.4013   -5.0935    2.3125 H   0  0  0  0  0  0  0  0  0  0  0  0
    7.5364   -4.5356   -0.3411 H   0  0  0  0  0  0  0  0  0  0  0  0
    5.8048   -4.5858   -0.1863 H   0  0  0  0  0  0  0  0  0  0  0  0
    5.4708   -8.7653    0.9512 H   0  0  0  0  0  0  0  0  0  0  0  0
    3.7610   -7.7839   -0.5097 H   0  0  0  0  0  0  0  0  0  0  0  0
    3.4728   -4.7771   -1.7483 H   0  0  0  0  0  0  0  0  0  0  0  0
    2.7066   -6.3361   -1.7684 H   0  0  0  0  0  0  0  0  0  0  0  0
    3.8313   -4.8352   -4.1436 H   0  0  0  0  0  0  0  0  0  0  0  0
    2.1586   -5.1076   -3.6906 H   0  0  0  0  0  0  0  0  0  0  0  0
    2.3950   -7.5568   -4.1132 H   0  0  0  0  0  0  0  0  0  0  0  0
    4.0668   -7.2909   -4.6322 H   0  0  0  0  0  0  0  0  0  0  0  0
    3.2385   -5.6480   -6.3681 H   0  0  0  0  0  0  0  0  0  0  0  0
    1.5805   -5.9823   -5.8719 H   0  0  0  0  0  0  0  0  0  0  0  0
    1.8411   -8.3656   -6.5491 H   0  0  0  0  0  0  0  0  0  0  0  0
    3.5174   -8.0598   -7.0171 H   0  0  0  0  0  0  0  0  0  0  0  0
    1.0858   -6.6526   -8.2537 H   0  0  0  0  0  0  0  0  0  0  0  0
    1.9759   -8.0006   -8.9825 H   0  0  0  0  0  0  0  0  0  0  0  0
    2.7769   -6.4381   -8.7459 H   0  0  0  0  0  0  0  0  0  0  0  0
    6.1816   -4.4554   -2.3192 H   0  0  0  0  0  0  0  0  0  0  0  0
    6.3381   -5.7453   -3.5134 H   0  0  0  0  0  0  0  0  0  0  0  0
    8.6823   -4.8280   -1.8962 H   0  0  0  0  0  0  0  0  0  0  0  0
    8.6352   -6.3565   -2.7899 H   0  0  0  0  0  0  0  0  0  0  0  0
    9.1540   -6.1344    0.3134 H   0  0  0  0  0  0  0  0  0  0  0  0
    9.3195   -7.5928   -0.7131 H   0  0  0  0  0  0  0  0  0  0  0  0
   10.5491   -1.7021    3.1488 H   0  0  0  0  0  0  0  0  0  0  0  0
  1  2  1  0  0  0  0
  1 27  1  0  0  0  0
  1 28  1  0  0  0  0
  1 29  1  0  0  0  0
  2  3  1  0  0  0  0
  2 26  2  0  0  0  0
  3  4  2  0  0  0  0
  3 30  1  0  0  0  0
  4  5  1  0  0  0  0
  4  6  1  0  0  0  0
  5 31  1  0  0  0  0
  5 32  1  0  0  0  0
  5 33  1  0  0  0  0
  6  7  1  0  0  0  0
  6 26  1  0  0  0  0
  7  8  1  0  0  0  0
  7 34  1  0  0  0  0
  7 35  1  0  0  0  0
  8  9  1  0  0  0  0
  8 36  1  0  0  0  0
  8 37  1  0  0  0  0
  9 10  1  0  0  0  0
  9 38  1  0  0  0  0
  9 39  1  0  0  0  0
 10 11  1  0  0  0  0
 10 40  1  0  0  0  0
 10 41  1  0  0  0  0
 11 12  2  0  0  0  0
 11 13  1  0  0  0  0
 13 14  2  0  0  0  0
 13 25  1  0  0  0  0
 14 15  1  0  0  0  0
 14 42  1  0  0  0  0
 15 16  2  0  0  0  0
 15 43  1  0  0  0  0
 16 17  1  0  0  0  0
 16 23  1  0  0  0  0
 17 18  1  0  0  0  0
 17 44  1  0  0  0  0
 17 45  1  0  0  0  0
 18 19  1  0  0  0  0
 18 46  1  0  0  0  0
 18 47  1  0  0  0  0
 19 20  1  0  0  0  0
 19 48  1  0  0  0  0
 19 49  1  0  0  0  0
 20 21  1  0  0  0  0
 20 50  1  0  0  0  0
 20 51  1  0  0  0  0
 21 22  1  0  0  0  0
 21 52  1  0  0  0  0
 21 53  1  0  0  0  0
 22 54  1  0  0  0  0
 22 55  1  0  0  0  0
 22 56  1  0  0  0  0
 23 24  1  0  0  0  0
 23 57  1  0  0  0  0
 23 58  1  0  0  0  0
 24 25  1  0  0  0  0
 24 59  1  0  0  0  0
 24 60  1  0  0  0  0
 25 61  1  0  0  0  0
 25 62  1  0  0  0  0
 26 63  1  0  0  0  0
M  END
$$$$
