
 OpenBabel04232216453D

 52 52  0  0  1  0  0  0  0  0999 V2000
    2.9693    0.9519    2.7571 C   0  0  0  0  0  0  0  0  0  0  0  0
    4.2743    0.1350    2.4596 C   0  0  3  0  0  0  0  0  0  0  0  0
    3.7795   -0.9755    1.5638 C   0  0  0  0  0  0  0  0  0  0  0  0
    4.4765   -2.0031    1.0678 C   0  0  0  0  0  0  0  0  0  0  0  0
    5.3114   -1.6859   -0.1461 C   0  0  0  0  0  0  0  0  0  0  0  0
    4.7142   -2.9813    2.1294 C   0  0  0  0  0  0  0  0  0  0  0  0
    3.4346   -3.3723    2.8664 C   0  0  0  0  0  0  0  0  0  0  0  0
    5.9500   -3.2290    2.6153 C   0  0  0  0  0  0  0  0  0  0  0  0
    7.2087   -2.5856    1.9928 C   0  0  0  0  0  0  0  0  0  0  0  0
    6.1489   -3.8448    3.9565 C   0  0  0  0  0  0  0  0  0  0  0  0
    5.2383   -3.4418    5.1336 C   0  0  0  0  0  0  0  0  0  0  0  0
    7.4029   -4.2763    4.2203 C   0  0  0  0  0  0  0  0  0  0  0  0
    8.1123   -3.5678    5.3125 C   0  0  0  0  0  0  0  0  0  0  0  0
    7.8123   -4.1808    6.6466 C   0  0  0  0  0  0  0  0  0  0  0  0
    8.1856   -2.2229    4.9770 C   0  0  0  0  0  0  0  0  0  0  0  0
    9.6618   -1.8455    4.6988 C   0  0  0  0  0  0  0  0  0  0  0  0
    7.1998   -1.1932    5.2862 N   0  0  0  0  0  0  0  0  0  0  0  0
    7.5826   -0.6240    6.6605 C   0  0  0  0  0  0  0  0  0  0  0  0
    6.6032   -0.1881    4.3419 C   0  0  0  0  0  0  0  0  0  0  0  0
    5.6525    0.2917    3.4202 C   0  0  0  0  0  0  0  0  0  0  0  0
    5.9793    1.7821    3.0970 C   0  0  0  0  0  0  0  0  0  0  0  0
    2.0506    0.3381    2.7748 H   0  0  0  0  0  0  0  0  0  0  0  0
    2.7926    1.6470    1.9161 H   0  0  0  0  0  0  0  0  0  0  0  0
    2.9910    1.5272    3.6774 H   0  0  0  0  0  0  0  0  0  0  0  0
    4.6531    0.7196    1.6020 H   0  0  0  0  0  0  0  0  0  0  0  0
    2.7342   -1.2420    1.7318 H   0  0  0  0  0  0  0  0  0  0  0  0
    4.6590   -1.4906   -1.0066 H   0  0  0  0  0  0  0  0  0  0  0  0
    5.9829   -2.4954   -0.4387 H   0  0  0  0  0  0  0  0  0  0  0  0
    5.8968   -0.7617   -0.0137 H   0  0  0  0  0  0  0  0  0  0  0  0
    2.5892   -3.5090    2.1900 H   0  0  0  0  0  0  0  0  0  0  0  0
    3.1409   -2.5614    3.5535 H   0  0  0  0  0  0  0  0  0  0  0  0
    3.5357   -4.2895    3.4447 H   0  0  0  0  0  0  0  0  0  0  0  0
    7.0164   -1.7284    1.3573 H   0  0  0  0  0  0  0  0  0  0  0  0
    7.7929   -3.3113    1.4258 H   0  0  0  0  0  0  0  0  0  0  0  0
    7.8587   -2.1159    2.7087 H   0  0  0  0  0  0  0  0  0  0  0  0
    4.5469   -2.6316    4.9218 H   0  0  0  0  0  0  0  0  0  0  0  0
    5.7549   -3.0486    6.0118 H   0  0  0  0  0  0  0  0  0  0  0  0
    4.6970   -4.3207    5.5035 H   0  0  0  0  0  0  0  0  0  0  0  0
    8.0762   -4.5447    3.4064 H   0  0  0  0  0  0  0  0  0  0  0  0
    7.0406   -4.9616    6.5986 H   0  0  0  0  0  0  0  0  0  0  0  0
    7.4825   -3.4455    7.3844 H   0  0  0  0  0  0  0  0  0  0  0  0
    8.7146   -4.6692    7.0328 H   0  0  0  0  0  0  0  0  0  0  0  0
    9.7770   -1.3666    3.7247 H   0  0  0  0  0  0  0  0  0  0  0  0
   10.3012   -2.7547    4.6789 H   0  0  0  0  0  0  0  0  0  0  0  0
   10.0665   -1.2119    5.4882 H   0  0  0  0  0  0  0  0  0  0  0  0
    6.6997   -0.6111    7.2942 H   0  0  0  0  0  0  0  0  0  0  0  0
    8.0306    0.3583    6.5644 H   0  0  0  0  0  0  0  0  0  0  0  0
    8.3251   -1.2636    7.1559 H   0  0  0  0  0  0  0  0  0  0  0  0
    7.3038    0.6088    4.5909 H   0  0  0  0  0  0  0  0  0  0  0  0
    6.7434    2.2436    3.7191 H   0  0  0  0  0  0  0  0  0  0  0  0
    5.0826    2.4023    3.2058 H   0  0  0  0  0  0  0  0  0  0  0  0
    6.3248    1.8611    2.0638 H   0  0  0  0  0  0  0  0  0  0  0  0
  1  2  1  0  0  0  0
  1 22  1  0  0  0  0
  1 23  1  0  0  0  0
  1 24  1  0  0  0  0
  2  3  1  0  0  0  0
  2 20  1  0  0  0  0
  2 25  1  0  0  0  0
  3  4  2  3  0  0  0
  3 26  1  0  0  0  0
  4  5  1  0  0  0  0
  4  6  1  0  0  0  0
  5 27  1  0  0  0  0
  5 28  1  0  0  0  0
  5 29  1  0  0  0  0
  6  7  1  0  0  0  0
  6  8  2  3  0  0  0
  7 30  1  0  0  0  0
  7 31  1  0  0  0  0
  7 32  1  0  0  0  0
  8  9  1  0  0  0  0
  8 10  1  0  0  0  0
  9 33  1  0  0  0  0
  9 34  1  0  0  0  0
  9 35  1  0  0  0  0
 10 11  1  0  0  0  0
 10 12  2  3  0  0  0
 11 36  1  0  0  0  0
 11 37  1  0  0  0  0
 11 38  1  0  0  0  0
 12 13  1  0  0  0  0
 12 39  1  0  0  0  0
 13 14  1  0  0  0  0
 13 15  2  3  0  0  0
 14 40  1  0  0  0  0
 14 41  1  0  0  0  0
 14 42  1  0  0  0  0
 15 16  1  0  0  0  0
 15 17  1  0  0  0  0
 16 43  1  0  0  0  0
 16 44  1  0  0  0  0
 16 45  1  0  0  0  0
 17 18  1  0  0  0  0
 17 19  1  0  0  0  0
 18 46  1  0  0  0  0
 18 47  1  0  0  0  0
 18 48  1  0  0  0  0
 19 20  2  3  0  0  0
 19 49  1  0  0  0  0
 20 21  1  0  0  0  0
 21 50  1  0  0  0  0
 21 51  1  0  0  0  0
 21 52  1  0  0  0  0
M  END
$$$$
