
 OpenBabel04232216573D

 96 95  0  0  0  0  0  0  0  0999 V2000
    9.3497    6.1249    2.4840 C   0  0  0  0  0  0  0  0  0  0  0  0
   11.1562    6.1519    2.1961 S   0  0  0  0  0  0  0  0  0  0  0  0
   11.8108    5.5710    3.8172 C   0  0  0  0  0  0  0  0  0  0  0  0
   11.2863    4.1764    4.1430 C   0  0  0  0  0  0  0  0  0  0  0  0
   11.8323    3.6768    5.4809 C   0  0  0  0  0  0  0  0  0  0  0  0
   11.2914    2.3245    5.7369 N   0  0  0  0  0  0  0  0  0  0  0  0
   11.7975    1.8938    7.0158 N   0  0  0  0  0  0  0  0  0  0  0  0
   11.2721    0.5824    7.2664 N   0  0  0  0  0  0  0  0  0  0  0  0
   11.8037    0.0976    8.5428 C   0  0  0  0  0  0  0  0  0  0  0  0
   11.1720   -1.5753    8.9429 S   0  0  0  0  0  0  0  0  0  0  0  0
   11.7946   -2.8193    7.4168 S   0  0  0  0  0  0  0  0  0  0  0  0
   13.8638   -2.8299    7.4184 S   0  0  0  0  0  0  0  0  0  0  0  0
   14.5466   -3.5693    9.2350 S   0  0  0  0  0  0  0  0  0  0  0  0
   16.6479   -3.5411    9.2159 S   0  0  0  0  0  0  0  0  0  0  0  0
   17.3377   -4.2446   11.0781 S   0  0  0  0  0  0  0  0  0  0  0  0
   19.4461   -4.2404   11.0656 S   0  0  0  0  0  0  0  0  0  0  0  0
   20.1367   -4.9443   12.9302 S   0  0  0  0  0  0  0  0  0  0  0  0
   22.2461   -4.9397   12.9179 S   0  0  0  0  0  0  0  0  0  0  0  0
   22.9367   -5.6437   14.7825 S   0  0  0  0  0  0  0  0  0  0  0  0
   25.0461   -5.6390   14.7702 S   0  0  0  0  0  0  0  0  0  0  0  0
   25.7367   -6.3431   16.6348 S   0  0  0  0  0  0  0  0  0  0  0  0
   27.8461   -6.3384   16.6224 S   0  0  0  0  0  0  0  0  0  0  0  0
   28.5367   -7.0424   18.4871 S   0  0  0  0  0  0  0  0  0  0  0  0
   30.6461   -7.0378   18.4747 S   0  0  0  0  0  0  0  0  0  0  0  0
   31.3367   -7.7418   20.3393 S   0  0  0  0  0  0  0  0  0  0  0  0
   33.4460   -7.7371   20.3270 S   0  0  0  0  0  0  0  0  0  0  0  0
   34.1367   -8.4412   22.1916 S   0  0  0  0  0  0  0  0  0  0  0  0
   36.2460   -8.4365   22.1792 S   0  0  0  0  0  0  0  0  0  0  0  0
   36.9367   -9.1405   24.0439 S   0  0  0  0  0  0  0  0  0  0  0  0
   39.0460   -9.1358   24.0315 S   0  0  0  0  0  0  0  0  0  0  0  0
   39.7367   -9.8399   25.8961 S   0  0  0  0  0  0  0  0  0  0  0  0
   41.8460   -9.8352   25.8838 S   0  0  0  0  0  0  0  0  0  0  0  0
   42.5367  -10.5392   27.7484 S   0  0  0  0  0  0  0  0  0  0  0  0
   44.6460  -10.5346   27.7360 S   0  0  0  0  0  0  0  0  0  0  0  0
   45.3367  -11.2386   29.6007 S   0  0  0  0  0  0  0  0  0  0  0  0
   47.4460  -11.2339   29.5883 S   0  0  0  0  0  0  0  0  0  0  0  0
   48.1366  -11.9380   31.4529 S   0  0  0  0  0  0  0  0  0  0  0  0
   50.2460  -11.9333   31.4406 S   0  0  0  0  0  0  0  0  0  0  0  0
   50.9366  -12.6373   33.3052 S   0  0  0  0  0  0  0  0  0  0  0  0
   53.0460  -12.6327   33.2928 S   0  0  0  0  0  0  0  0  0  0  0  0
   53.7366  -13.3367   35.1575 S   0  0  0  0  0  0  0  0  0  0  0  0
   55.8460  -13.3320   35.1451 S   0  0  0  0  0  0  0  0  0  0  0  0
   56.5366  -14.0361   37.0098 S   0  0  0  0  0  0  0  0  0  0  0  0
   58.6460  -14.0314   36.9974 S   0  0  0  0  0  0  0  0  0  0  0  0
   59.3366  -14.7354   38.8620 S   0  0  0  0  0  0  0  0  0  0  0  0
   61.4460  -14.7307   38.8497 S   0  0  0  0  0  0  0  0  0  0  0  0
   62.1366  -15.4348   40.7143 S   0  0  0  0  0  0  0  0  0  0  0  0
   64.2460  -15.4301   40.7019 S   0  0  0  0  0  0  0  0  0  0  0  0
   64.9366  -16.1341   42.5666 S   0  0  0  0  0  0  0  0  0  0  0  0
   67.0460  -16.1295   42.5542 S   0  0  0  0  0  0  0  0  0  0  0  0
   67.7366  -16.8335   44.4188 S   0  0  0  0  0  0  0  0  0  0  0  0
   69.8459  -16.8288   44.4065 S   0  0  0  0  0  0  0  0  0  0  0  0
   70.5366  -17.5329   46.2711 S   0  0  0  0  0  0  0  0  0  0  0  0
   72.6459  -17.5282   46.2587 S   0  0  0  0  0  0  0  0  0  0  0  0
   73.3366  -18.2322   48.1234 S   0  0  0  0  0  0  0  0  0  0  0  0
   75.4459  -18.2276   48.1110 S   0  0  0  0  0  0  0  0  0  0  0  0
   76.1366  -18.9316   49.9756 S   0  0  0  0  0  0  0  0  0  0  0  0
   78.2459  -18.9269   49.9633 S   0  0  0  0  0  0  0  0  0  0  0  0
   78.9366  -19.6310   51.8279 S   0  0  0  0  0  0  0  0  0  0  0  0
   81.0459  -19.6263   51.8155 S   0  0  0  0  0  0  0  0  0  0  0  0
   81.7366  -20.3303   53.6802 S   0  0  0  0  0  0  0  0  0  0  0  0
   83.8459  -20.3257   53.6678 S   0  0  0  0  0  0  0  0  0  0  0  0
   84.5365  -21.0297   55.5325 S   0  0  0  0  0  0  0  0  0  0  0  0
   86.6459  -21.0250   55.5201 S   0  0  0  0  0  0  0  0  0  0  0  0
   87.3365  -21.7291   57.3847 S   0  0  0  0  0  0  0  0  0  0  0  0
   89.4459  -21.7244   57.3723 S   0  0  0  0  0  0  0  0  0  0  0  0
   90.1365  -22.4284   59.2370 S   0  0  0  0  0  0  0  0  0  0  0  0
   92.2459  -22.4237   59.2246 S   0  0  0  0  0  0  0  0  0  0  0  0
   92.9365  -23.1278   61.0893 S   0  0  0  0  0  0  0  0  0  0  0  0
   95.0459  -23.1231   61.0769 S   0  0  0  0  0  0  0  0  0  0  0  0
   95.7365  -23.8271   62.9415 S   0  0  0  0  0  0  0  0  0  0  0  0
   97.8459  -23.8225   62.9292 S   0  0  0  0  0  0  0  0  0  0  0  0
   98.5365  -24.5265   64.7938 S   0  0  0  0  0  0  0  0  0  0  0  0
  100.6459  -24.5218   64.7814 S   0  0  0  0  0  0  0  0  0  0  0  0
  101.3365  -25.2258   66.6461 S   0  0  0  0  0  0  0  0  0  0  0  0
  103.4450  -25.2216   66.6335 S   0  0  0  0  0  0  0  0  0  0  0  0
  104.1344  -25.9247   68.4967 S   0  0  0  0  0  0  0  0  0  0  0  0
  106.2353  -25.8987   68.4800 S   0  0  0  0  0  0  0  0  0  0  0  0
  106.9293  -26.6529   70.2961 S   0  0  0  0  0  0  0  0  0  0  0  0
  109.0177  -26.5960   70.2772 S   0  0  0  0  0  0  0  0  0  0  0  0
  109.6432  -27.8906   68.8023 S   0  0  0  0  0  0  0  0  0  0  0  0
    8.8603    6.4332    1.5536 H   0  0  0  0  0  0  0  0  0  0  0  0
    9.0569    6.8337    3.2642 H   0  0  0  0  0  0  0  0  0  0  0  0
    8.9645    5.1298    2.7242 H   0  0  0  0  0  0  0  0  0  0  0  0
   11.5482    6.2881    4.6066 H   0  0  0  0  0  0  0  0  0  0  0  0
   12.9091    5.5456    3.7646 H   0  0  0  0  0  0  0  0  0  0  0  0
   11.5668    3.4876    3.3424 H   0  0  0  0  0  0  0  0  0  0  0  0
   10.1943    4.2081    4.1995 H   0  0  0  0  0  0  0  0  0  0  0  0
   11.5353    4.3691    6.2652 H   0  0  0  0  0  0  0  0  0  0  0  0
   12.9236    3.6428    5.4334 H   0  0  0  0  0  0  0  0  0  0  0  0
   11.5865    1.6979    5.0283 H   0  0  0  0  0  0  0  0  0  0  0  0
   11.4935    2.5249    7.7343 H   0  0  0  0  0  0  0  0  0  0  0  0
   11.5850   -0.0490    6.5354 H   0  0  0  0  0  0  0  0  0  0  0  0
   11.5069    0.7721    9.3536 H   0  0  0  0  0  0  0  0  0  0  0  0
   12.8980    0.0588    8.5357 H   0  0  0  0  0  0  0  0  0  0  0  0
  110.9936  -27.8241   68.8420 H   0  0  0  0  0  0  0  0  0  0  0  0
  1  2  1  0  0  0  0
  1 82  1  0  0  0  0
  1 83  1  0  0  0  0
  1 84  1  0  0  0  0
  2  3  1  0  0  0  0
  3  4  1  0  0  0  0
  3 85  1  0  0  0  0
  3 86  1  0  0  0  0
  4  5  1  0  0  0  0
  4 87  1  0  0  0  0
  4 88  1  0  0  0  0
  5  6  1  0  0  0  0
  5 89  1  0  0  0  0
  5 90  1  0  0  0  0
  6  7  1  0  0  0  0
  6 91  1  0  0  0  0
  7  8  1  0  0  0  0
  7 92  1  0  0  0  0
  8  9  1  0  0  0  0
  8 93  1  0  0  0  0
  9 10  1  0  0  0  0
  9 94  1  0  0  0  0
  9 95  1  0  0  0  0
 10 11  1  0  0  0  0
 11 12  1  0  0  0  0
 12 13  1  0  0  0  0
 13 14  1  0  0  0  0
 14 15  1  0  0  0  0
 15 16  1  0  0  0  0
 16 17  1  0  0  0  0
 17 18  1  0  0  0  0
 18 19  1  0  0  0  0
 19 20  1  0  0  0  0
 20 21  1  0  0  0  0
 21 22  1  0  0  0  0
 22 23  1  0  0  0  0
 23 24  1  0  0  0  0
 24 25  1  0  0  0  0
 25 26  1  0  0  0  0
 26 27  1  0  0  0  0
 27 28  1  0  0  0  0
 28 29  1  0  0  0  0
 29 30  1  0  0  0  0
 30 31  1  0  0  0  0
 31 32  1  0  0  0  0
 32 33  1  0  0  0  0
 33 34  1  0  0  0  0
 34 35  1  0  0  0  0
 35 36  1  0  0  0  0
 36 37  1  0  0  0  0
 37 38  1  0  0  0  0
 38 39  1  0  0  0  0
 39 40  1  0  0  0  0
 40 41  1  0  0  0  0
 41 42  1  0  0  0  0
 42 43  1  0  0  0  0
 43 44  1  0  0  0  0
 44 45  1  0  0  0  0
 45 46  1  0  0  0  0
 46 47  1  0  0  0  0
 47 48  1  0  0  0  0
 48 49  1  0  0  0  0
 49 50  1  0  0  0  0
 50 51  1  0  0  0  0
 51 52  1  0  0  0  0
 52 53  1  0  0  0  0
 53 54  1  0  0  0  0
 54 55  1  0  0  0  0
 55 56  1  0  0  0  0
 56 57  1  0  0  0  0
 57 58  1  0  0  0  0
 58 59  1  0  0  0  0
 59 60  1  0  0  0  0
 60 61  1  0  0  0  0
 61 62  1  0  0  0  0
 62 63  1  0  0  0  0
 63 64  1  0  0  0  0
 64 65  1  0  0  0  0
 65 66  1  0  0  0  0
 66 67  1  0  0  0  0
 67 68  1  0  0  0  0
 68 69  1  0  0  0  0
 69 70  1  0  0  0  0
 70 71  1  0  0  0  0
 71 72  1  0  0  0  0
 72 73  1  0  0  0  0
 73 74  1  0  0  0  0
 74 75  1  0  0  0  0
 75 76  1  0  0  0  0
 76 77  1  0  0  0  0
 77 78  1  0  0  0  0
 78 79  1  0  0  0  0
 79 80  1  0  0  0  0
 80 81  1  0  0  0  0
 81 96  1  0  0  0  0
M  END
$$$$
