
 OpenBabel04232216443D

 43 43  0  0  0  0  0  0  0  0999 V2000
    4.9793   -0.6937    2.9406 C   0  0  0  0  0  0  0  0  0  0  0  0
    5.8130    0.5888    2.9017 C   0  0  0  0  0  0  0  0  0  0  0  0
    5.1641    1.5984    2.2704 C   0  0  0  0  0  0  0  0  0  0  0  0
    3.6754    1.8912    2.5461 C   0  0  0  0  0  0  0  0  0  0  0  0
    5.4275    1.8369    0.8088 C   0  0  0  0  0  0  0  0  0  0  0  0
    5.6823    0.6485   -0.0961 C   0  0  0  0  0  0  0  0  0  0  0  0
    5.3258    3.0566    0.2306 C   0  0  0  0  0  0  0  0  0  0  0  0
    6.7206    3.6199    0.0806 C   0  0  0  0  0  0  0  0  0  0  0  0
    7.2237    3.7642   -1.0267 O   0  0  0  0  0  0  0  0  0  0  0  0
    7.3989    3.9476    1.3845 C   0  0  0  0  0  0  0  0  0  0  0  0
    6.5133    4.4400    2.5203 C   0  0  0  0  0  0  0  0  0  0  0  0
    8.6513    3.4324    1.5603 C   0  0  0  0  0  0  0  0  0  0  0  0
    9.4722    2.7067    0.4888 C   0  0  0  0  0  0  0  0  0  0  0  0
   10.8120    2.4627    0.9233 O   0  0  0  0  0  0  0  0  0  0  0  0
    8.9456    3.0287    2.9552 C   0  0  0  0  0  0  0  0  0  0  0  0
    9.1004    4.1042    4.0187 C   0  0  0  0  0  0  0  0  0  0  0  0
    8.6590    1.7137    3.0884 C   0  0  0  0  0  0  0  0  0  0  0  0
    7.8261    1.0983    4.1530 C   0  0  0  0  0  0  0  0  0  0  0  0
    8.6488    0.7571    5.3792 C   0  0  0  0  0  0  0  0  0  0  0  0
    6.5842    0.7002    4.0770 N   0  0  0  0  0  0  0  0  0  0  0  0
    4.2090   -0.6478    3.7204 H   0  0  0  0  0  0  0  0  0  0  0  0
    5.6111   -1.5645    3.1202 H   0  0  0  0  0  0  0  0  0  0  0  0
    4.4659   -0.8689    1.9829 H   0  0  0  0  0  0  0  0  0  0  0  0
    3.0307    1.3628    1.8307 H   0  0  0  0  0  0  0  0  0  0  0  0
    3.4525    2.9612    2.4663 H   0  0  0  0  0  0  0  0  0  0  0  0
    3.3808    1.5864    3.5557 H   0  0  0  0  0  0  0  0  0  0  0  0
    4.7212    0.1314   -0.2639 H   0  0  0  0  0  0  0  0  0  0  0  0
    6.3823   -0.0556    0.3384 H   0  0  0  0  0  0  0  0  0  0  0  0
    6.0659    0.9574   -1.0741 H   0  0  0  0  0  0  0  0  0  0  0  0
    4.7015    3.8410    0.6519 H   0  0  0  0  0  0  0  0  0  0  0  0
    5.4478    4.4706    2.3112 H   0  0  0  0  0  0  0  0  0  0  0  0
    6.7843    5.4588    2.8076 H   0  0  0  0  0  0  0  0  0  0  0  0
    6.5628    3.7844    3.3959 H   0  0  0  0  0  0  0  0  0  0  0  0
    9.5297    3.2496   -0.4522 H   0  0  0  0  0  0  0  0  0  0  0  0
    9.0278    1.7217    0.2871 H   0  0  0  0  0  0  0  0  0  0  0  0
   11.2633    3.3227    0.9252 H   0  0  0  0  0  0  0  0  0  0  0  0
    8.1639    4.5158    4.4040 H   0  0  0  0  0  0  0  0  0  0  0  0
    9.6776    4.9542    3.6239 H   0  0  0  0  0  0  0  0  0  0  0  0
    9.6517    3.7397    4.8901 H   0  0  0  0  0  0  0  0  0  0  0  0
    8.7557    1.0201    2.2682 H   0  0  0  0  0  0  0  0  0  0  0  0
    8.0679    0.8349    6.2965 H   0  0  0  0  0  0  0  0  0  0  0  0
    9.5346    1.3988    5.4583 H   0  0  0  0  0  0  0  0  0  0  0  0
    9.0152   -0.2725    5.2574 H   0  0  0  0  0  0  0  0  0  0  0  0
  1  2  1  0  0  0  0
  1 21  1  0  0  0  0
  1 22  1  0  0  0  0
  1 23  1  0  0  0  0
  2  3  2  0  0  0  0
  2 20  1  0  0  0  0
  3  4  1  0  0  0  0
  3  5  1  0  0  0  0
  4 24  1  0  0  0  0
  4 25  1  0  0  0  0
  4 26  1  0  0  0  0
  5  6  1  0  0  0  0
  5  7  2  0  0  0  0
  6 27  1  0  0  0  0
  6 28  1  0  0  0  0
  6 29  1  0  0  0  0
  7  8  1  0  0  0  0
  7 30  1  0  0  0  0
  8  9  2  0  0  0  0
  8 10  1  0  0  0  0
 10 11  1  0  0  0  0
 10 12  2  0  0  0  0
 11 31  1  0  0  0  0
 11 32  1  0  0  0  0
 11 33  1  0  0  0  0
 12 13  1  0  0  0  0
 12 15  1  0  0  0  0
 13 14  1  0  0  0  0
 13 34  1  0  0  0  0
 13 35  1  0  0  0  0
 14 36  1  0  0  0  0
 15 16  1  0  0  0  0
 15 17  2  0  0  0  0
 16 37  1  0  0  0  0
 16 38  1  0  0  0  0
 16 39  1  0  0  0  0
 17 18  1  0  0  0  0
 17 40  1  0  0  0  0
 18 19  1  0  0  0  0
 18 20  2  0  0  0  0
 19 41  1  0  0  0  0
 19 42  1  0  0  0  0
 19 43  1  0  0  0  0
M  END
$$$$
