
 OpenBabel04232216553D

110109  0  0  0  0  0  0  0  0999 V2000
   33.9614  -16.4185    7.6786 C   0  0  0  0  0  0  0  0  0  0  0  0
   33.5881  -16.3446    9.1557 C   0  0  0  0  0  0  0  0  0  0  0  0
   34.2357  -15.1463    9.8361 C   0  0  0  0  0  0  0  0  0  0  0  0
   33.8706  -15.0307   11.3232 C   0  0  0  0  0  0  0  0  0  0  0  0
   34.2981  -16.2417   12.0659 N   0  0  0  0  0  0  0  0  0  0  0  0
   33.9357  -16.0591   13.4048 N   0  0  0  0  0  0  0  0  0  0  0  0
   34.3968  -17.2145   14.0849 N   0  0  0  0  0  0  0  0  0  0  0  0
   34.0193  -17.1229   15.4382 N   0  0  0  0  0  0  0  0  0  0  0  0
   32.5731  -17.0216   15.6412 N   0  0  0  0  0  0  0  0  0  0  0  0
   31.8981  -18.1553   15.0580 N   0  0  0  0  0  0  0  0  0  0  0  0
   32.2920  -19.4022   15.6906 N   0  0  0  0  0  0  0  0  0  0  0  0
   31.5142  -20.7362   15.0764 S   0  0  0  0  0  0  0  0  0  0  0  0
   31.8433  -20.8881   13.4539 N   0  0  0  0  0  0  0  0  0  0  0  0
   31.0718  -22.2164   12.7650 S   0  0  0  0  0  0  0  0  0  0  0  0
   29.4110  -22.1214   12.8796 N   0  0  0  0  0  0  0  0  0  0  0  0
   28.7670  -20.8244   12.0786 S   0  0  0  0  0  0  0  0  0  0  0  0
   27.1230  -20.7619   12.2663 N   0  0  0  0  0  0  0  0  0  0  0  0
   26.5774  -20.6248   13.8193 S   0  0  0  0  0  0  0  0  0  0  0  0
   27.1913  -19.2440   14.4887 N   0  0  0  0  0  0  0  0  0  0  0  0
   26.6745  -17.8258   13.8008 S   0  0  0  0  0  0  0  0  0  0  0  0
   27.2068  -17.7622   12.2179 N   0  0  0  0  0  0  0  0  0  0  0  0
   26.6614  -16.3720   11.4498 S   0  0  0  0  0  0  0  0  0  0  0  0
   27.1479  -16.3012    9.8434 N   0  0  0  0  0  0  0  0  0  0  0  0
   26.5406  -17.5750    8.9584 S   0  0  0  0  0  0  0  0  0  0  0  0
   27.2726  -17.2768    7.0474 S   0  0  0  0  0  0  0  0  0  0  0  0
   29.3528  -17.3505    7.0387 S   0  0  0  0  0  0  0  0  0  0  0  0
   30.0206  -19.2110    7.7078 S   0  0  0  0  0  0  0  0  0  0  0  0
   32.1142  -19.2459    7.7084 S   0  0  0  0  0  0  0  0  0  0  0  0
   32.8782  -21.0426    8.4685 S   0  0  0  0  0  0  0  0  0  0  0  0
   35.0019  -21.0017    8.4490 S   0  0  0  0  0  0  0  0  0  0  0  0
   35.7092  -22.8585    9.1952 S   0  0  0  0  0  0  0  0  0  0  0  0
   37.8246  -22.8510    9.1918 S   0  0  0  0  0  0  0  0  0  0  0  0
   38.5204  -24.7034    9.9368 S   0  0  0  0  0  0  0  0  0  0  0  0
   40.6329  -24.6940    9.9330 S   0  0  0  0  0  0  0  0  0  0  0  0
   41.3257  -26.5446   10.6773 S   0  0  0  0  0  0  0  0  0  0  0  0
   43.4365  -26.5335   10.6728 S   0  0  0  0  0  0  0  0  0  0  0  0
   44.1281  -28.3832   11.4168 S   0  0  0  0  0  0  0  0  0  0  0  0
   46.2380  -28.3713   11.4120 S   0  0  0  0  0  0  0  0  0  0  0  0
   46.9290  -30.2207   12.1559 S   0  0  0  0  0  0  0  0  0  0  0  0
   49.0386  -30.2085   12.1510 S   0  0  0  0  0  0  0  0  0  0  0  0
   49.7293  -32.0578   12.8948 S   0  0  0  0  0  0  0  0  0  0  0  0
   51.8387  -32.0455   12.8899 S   0  0  0  0  0  0  0  0  0  0  0  0
   52.5294  -33.8947   13.6336 S   0  0  0  0  0  0  0  0  0  0  0  0
   54.6388  -33.8825   13.6287 S   0  0  0  0  0  0  0  0  0  0  0  0
   55.3294  -35.7316   14.3725 S   0  0  0  0  0  0  0  0  0  0  0  0
   57.4388  -35.7194   14.3675 S   0  0  0  0  0  0  0  0  0  0  0  0
   58.1294  -37.5685   15.1113 S   0  0  0  0  0  0  0  0  0  0  0  0
   60.2388  -37.5562   15.1064 S   0  0  0  0  0  0  0  0  0  0  0  0
   60.9294  -39.4054   15.8501 S   0  0  0  0  0  0  0  0  0  0  0  0
   63.0388  -39.3931   15.8452 S   0  0  0  0  0  0  0  0  0  0  0  0
   63.7294  -41.2423   16.5890 S   0  0  0  0  0  0  0  0  0  0  0  0
   65.8388  -41.2301   16.5840 S   0  0  0  0  0  0  0  0  0  0  0  0
   66.5295  -43.0793   17.3278 S   0  0  0  0  0  0  0  0  0  0  0  0
   68.6389  -43.0670   17.3229 S   0  0  0  0  0  0  0  0  0  0  0  0
   69.3298  -44.9163   18.0667 S   0  0  0  0  0  0  0  0  0  0  0  0
   71.4394  -44.9043   18.0618 S   0  0  0  0  0  0  0  0  0  0  0  0
   72.1306  -46.7538   18.8057 S   0  0  0  0  0  0  0  0  0  0  0  0
   74.2407  -46.7420   18.8010 S   0  0  0  0  0  0  0  0  0  0  0  0
   74.9327  -48.5920   19.5451 S   0  0  0  0  0  0  0  0  0  0  0  0
   77.0439  -48.5808   19.5406 S   0  0  0  0  0  0  0  0  0  0  0  0
   77.7378  -50.4315   20.2850 S   0  0  0  0  0  0  0  0  0  0  0  0
   79.8511  -50.4219   20.2811 S   0  0  0  0  0  0  0  0  0  0  0  0
   80.5467  -52.2744   21.0262 S   0  0  0  0  0  0  0  0  0  0  0  0
   82.6632  -52.2705   21.0247 S   0  0  0  0  0  0  0  0  0  0  0  0
   83.3574  -54.1272   21.7711 S   0  0  0  0  0  0  0  0  0  0  0  0
   85.4758  -54.1322   21.7727 S   0  0  0  0  0  0  0  0  0  0  0  0
   86.1564  -55.9834   22.5399 S   0  0  0  0  0  0  0  0  0  0  0  0
   88.2381  -56.0077   22.4668 S   0  0  0  0  0  0  0  0  0  0  0  0
   88.9803  -57.8183   23.1636 S   0  0  0  0  0  0  0  0  0  0  0  0
   88.2908  -59.3591   21.9701 S   0  0  0  0  0  0  0  0  0  0  0  0
   88.9669  -59.0512   20.4788 N   0  0  0  0  0  0  0  0  0  0  0  0
   88.4389  -60.1905   19.3581 S   0  0  0  0  0  0  0  0  0  0  0  0
   89.0093  -59.8534   17.8266 N   0  0  0  0  0  0  0  0  0  0  0  0
   88.4830  -58.4086   17.1932 S   0  0  0  0  0  0  0  0  0  0  0  0
   89.0473  -57.1538   18.1207 N   0  0  0  0  0  0  0  0  0  0  0  0
   90.6989  -57.0053   18.1893 S   0  0  0  0  0  0  0  0  0  0  0  0
   91.3524  -56.7843   16.6673 N   0  0  0  0  0  0  0  0  0  0  0  0
   93.0183  -56.6869   16.7520 S   0  0  0  0  0  0  0  0  0  0  0  0
   93.6489  -56.4426   15.2432 N   0  0  0  0  0  0  0  0  0  0  0  0
   93.1459  -55.0252   14.5606 S   0  0  0  0  0  0  0  0  0  0  0  0
   93.8631  -54.8759   13.0768 N   0  0  0  0  0  0  0  0  0  0  0  0
   33.5167  -17.2576    7.1776 H   0  0  0  0  0  0  0  0  0  0  0  0
   35.0539  -16.5210    7.5476 H   0  0  0  0  0  0  0  0  0  0  0  0
   33.6182  -15.5229    7.1328 H   0  0  0  0  0  0  0  0  0  0  0  0
   33.9003  -17.2749    9.6431 H   0  0  0  0  0  0  0  0  0  0  0  0
   32.4964  -16.2851    9.2434 H   0  0  0  0  0  0  0  0  0  0  0  0
   33.9176  -14.2206    9.3273 H   0  0  0  0  0  0  0  0  0  0  0  0
   35.3275  -15.1916    9.7328 H   0  0  0  0  0  0  0  0  0  0  0  0
   32.7797  -14.9017   11.4077 H   0  0  0  0  0  0  0  0  0  0  0  0
   34.3477  -14.1446   11.7288 H   0  0  0  0  0  0  0  0  0  0  0  0
   35.2946  -16.3365   11.9951 H   0  0  0  0  0  0  0  0  0  0  0  0
   32.9447  -15.9433   13.4471 H   0  0  0  0  0  0  0  0  0  0  0  0
   35.3804  -17.2945   13.9683 H   0  0  0  0  0  0  0  0  0  0  0  0
   34.4904  -16.2719   15.8236 H   0  0  0  0  0  0  0  0  0  0  0  0
   32.3006  -16.1603   15.1599 H   0  0  0  0  0  0  0  0  0  0  0  0
   32.2054  -18.1747   14.0782 H   0  0  0  0  0  0  0  0  0  0  0  0
   32.1120  -19.3126   16.6954 H   0  0  0  0  0  0  0  0  0  0  0  0
   32.8867  -21.0149   13.3254 H   0  0  0  0  0  0  0  0  0  0  0  0
   29.1518  -22.1455   13.8639 H   0  0  0  0  0  0  0  0  0  0  0  0
   26.6528  -21.5551   11.7887 H   0  0  0  0  0  0  0  0  0  0  0  0
   28.2098  -19.2912   14.5536 H   0  0  0  0  0  0  0  0  0  0  0  0
   26.8119  -18.6006   11.7375 H   0  0  0  0  0  0  0  0  0  0  0  0
   28.1724  -16.3141    9.8072 H   0  0  0  0  0  0  0  0  0  0  0  0
   89.9839  -59.0441   20.5364 H   0  0  0  0  0  0  0  0  0  0  0  0
   88.7024  -60.6165   17.1682 H   0  0  0  0  0  0  0  0  0  0  0  0
   88.6335  -57.2189   19.0641 H   0  0  0  0  0  0  0  0  0  0  0  0
   90.9978  -55.9036   16.2720 H   0  0  0  0  0  0  0  0  0  0  0  0
   93.4903  -57.2334   14.6156 H   0  0  0  0  0  0  0  0  0  0  0  0
   93.7514  -53.9421   12.7155 H   0  0  0  0  0  0  0  0  0  0  0  0
   93.4445  -55.4823   12.3510 H   0  0  0  0  0  0  0  0  0  0  0  0
  1  2  1  0  0  0  0
  1 82  1  0  0  0  0
  1 83  1  0  0  0  0
  1 84  1  0  0  0  0
  2  3  1  0  0  0  0
  2 85  1  0  0  0  0
  2 86  1  0  0  0  0
  3  4  1  0  0  0  0
  3 87  1  0  0  0  0
  3 88  1  0  0  0  0
  4  5  1  0  0  0  0
  4 89  1  0  0  0  0
  4 90  1  0  0  0  0
  5  6  1  0  0  0  0
  5 91  1  0  0  0  0
  6  7  1  0  0  0  0
  6 92  1  0  0  0  0
  7  8  1  0  0  0  0
  7 93  1  0  0  0  0
  8  9  1  0  0  0  0
  8 94  1  0  0  0  0
  9 10  1  0  0  0  0
  9 95  1  0  0  0  0
 10 11  1  0  0  0  0
 10 96  1  0  0  0  0
 11 12  1  0  0  0  0
 11 97  1  0  0  0  0
 12 13  1  0  0  0  0
 13 14  1  0  0  0  0
 13 98  1  0  0  0  0
 14 15  1  0  0  0  0
 15 16  1  0  0  0  0
 15 99  1  0  0  0  0
 16 17  1  0  0  0  0
 17 18  1  0  0  0  0
 17100  1  0  0  0  0
 18 19  1  0  0  0  0
 19 20  1  0  0  0  0
 19101  1  0  0  0  0
 20 21  1  0  0  0  0
 21 22  1  0  0  0  0
 21102  1  0  0  0  0
 22 23  1  0  0  0  0
 23 24  1  0  0  0  0
 23103  1  0  0  0  0
 24 25  1  0  0  0  0
 25 26  1  0  0  0  0
 26 27  1  0  0  0  0
 27 28  1  0  0  0  0
 28 29  1  0  0  0  0
 29 30  1  0  0  0  0
 30 31  1  0  0  0  0
 31 32  1  0  0  0  0
 32 33  1  0  0  0  0
 33 34  1  0  0  0  0
 34 35  1  0  0  0  0
 35 36  1  0  0  0  0
 36 37  1  0  0  0  0
 37 38  1  0  0  0  0
 38 39  1  0  0  0  0
 39 40  1  0  0  0  0
 40 41  1  0  0  0  0
 41 42  1  0  0  0  0
 42 43  1  0  0  0  0
 43 44  1  0  0  0  0
 44 45  1  0  0  0  0
 45 46  1  0  0  0  0
 46 47  1  0  0  0  0
 47 48  1  0  0  0  0
 48 49  1  0  0  0  0
 49 50  1  0  0  0  0
 50 51  1  0  0  0  0
 51 52  1  0  0  0  0
 52 53  1  0  0  0  0
 53 54  1  0  0  0  0
 54 55  1  0  0  0  0
 55 56  1  0  0  0  0
 56 57  1  0  0  0  0
 57 58  1  0  0  0  0
 58 59  1  0  0  0  0
 59 60  1  0  0  0  0
 60 61  1  0  0  0  0
 61 62  1  0  0  0  0
 62 63  1  0  0  0  0
 63 64  1  0  0  0  0
 64 65  1  0  0  0  0
 65 66  1  0  0  0  0
 66 67  1  0  0  0  0
 67 68  1  0  0  0  0
 68 69  1  0  0  0  0
 69 70  1  0  0  0  0
 70 71  1  0  0  0  0
 71 72  1  0  0  0  0
 71104  1  0  0  0  0
 72 73  1  0  0  0  0
 73 74  1  0  0  0  0
 73105  1  0  0  0  0
 74 75  1  0  0  0  0
 75 76  1  0  0  0  0
 75106  1  0  0  0  0
 76 77  1  0  0  0  0
 77 78  1  0  0  0  0
 77107  1  0  0  0  0
 78 79  1  0  0  0  0
 79 80  1  0  0  0  0
 79108  1  0  0  0  0
 80 81  1  0  0  0  0
 81109  1  0  0  0  0
 81110  1  0  0  0  0
M  END
$$$$
