
 OpenBabel04232216473D

 43 43  0  0  0  0  0  0  0  0999 V2000
    6.7357    1.2981   -1.0555 C   0  0  0  0  0  0  0  0  0  0  0  0
    7.2643    2.3744   -0.0629 C   0  0  0  0  0  0  0  0  0  0  0  0
    6.2346    2.7802    0.7311 C   0  0  0  0  0  0  0  0  0  0  0  0
    5.4798    1.7167    1.5315 C   0  0  0  0  0  0  0  0  0  0  0  0
    5.2650    2.0098    2.8257 C   0  0  0  0  0  0  0  0  0  0  0  0
    4.0357    2.8215    3.1074 C   0  0  0  0  0  0  0  0  0  0  0  0
    3.0704    2.8760    2.3559 O   0  0  0  0  0  0  0  0  0  0  0  0
    6.5138    2.3839    3.5693 C   0  0  0  0  0  0  0  0  0  0  0  0
    6.5885    3.9067    3.6198 C   0  0  0  0  0  0  0  0  0  0  0  0
    7.9731    4.3970    3.3306 C   0  0  0  0  0  0  0  0  0  0  0  0
    8.4741    5.0455    4.5810 C   0  0  0  0  0  0  0  0  0  0  0  0
    7.9048    5.9811    5.1091 O   0  0  0  0  0  0  0  0  0  0  0  0
    9.7014    4.4286    5.1309 C   0  0  0  0  0  0  0  0  0  0  0  0
   10.7861    5.2260    5.1756 C   0  0  0  0  0  0  0  0  0  0  0  0
   10.7363    6.6903    5.5220 C   0  0  0  0  0  0  0  0  0  0  0  0
   11.9111    4.6386    4.4130 C   0  0  0  0  0  0  0  0  0  0  0  0
   11.9536    5.0830    3.1173 C   0  0  0  0  0  0  0  0  0  0  0  0
   11.6427    4.2590    1.9202 C   0  0  0  0  0  0  0  0  0  0  0  0
   10.3755    4.1339    1.4044 C   0  0  0  0  0  0  0  0  0  0  0  0
    9.8139    2.8360    0.8747 C   0  0  0  0  0  0  0  0  0  0  0  0
    8.7164    2.2378    0.3639 C   0  0  0  0  0  0  0  0  0  0  0  0
    5.6335    1.2035   -1.0174 H   0  0  0  0  0  0  0  0  0  0  0  0
    7.0980    0.2973   -0.7882 H   0  0  0  0  0  0  0  0  0  0  0  0
    6.9624    1.5254   -2.0963 H   0  0  0  0  0  0  0  0  0  0  0  0
    5.3739    3.2029    0.1835 H   0  0  0  0  0  0  0  0  0  0  0  0
    5.9981    0.7576    1.4029 H   0  0  0  0  0  0  0  0  0  0  0  0
    4.0680    3.4163    4.0369 H   0  0  0  0  0  0  0  0  0  0  0  0
    7.3758    1.9625    3.0245 H   0  0  0  0  0  0  0  0  0  0  0  0
    6.5851    1.9200    4.5549 H   0  0  0  0  0  0  0  0  0  0  0  0
    6.2284    4.2276    4.6001 H   0  0  0  0  0  0  0  0  0  0  0  0
    5.9489    4.4010    2.8807 H   0  0  0  0  0  0  0  0  0  0  0  0
    7.9855    5.1128    2.4954 H   0  0  0  0  0  0  0  0  0  0  0  0
    8.6216    3.5651    3.0620 H   0  0  0  0  0  0  0  0  0  0  0  0
    9.8088    3.3814    4.8387 H   0  0  0  0  0  0  0  0  0  0  0  0
    9.7417    7.0603    5.7377 H   0  0  0  0  0  0  0  0  0  0  0  0
   11.1399    7.3225    4.7197 H   0  0  0  0  0  0  0  0  0  0  0  0
   11.3172    6.8781    6.4368 H   0  0  0  0  0  0  0  0  0  0  0  0
   11.9974    3.5669    4.6087 H   0  0  0  0  0  0  0  0  0  0  0  0
   12.1082    6.1508    2.9931 H   0  0  0  0  0  0  0  0  0  0  0  0
   12.2649    4.8558    1.2249 H   0  0  0  0  0  0  0  0  0  0  0  0
    9.7983    5.0433    1.2307 H   0  0  0  0  0  0  0  0  0  0  0  0
   10.6486    2.1289    0.9591 H   0  0  0  0  0  0  0  0  0  0  0  0
    8.9607    1.1941    0.1247 H   0  0  0  0  0  0  0  0  0  0  0  0
  1  2  1  0  0  0  0
  1 22  1  0  0  0  0
  1 23  1  0  0  0  0
  1 24  1  0  0  0  0
  2  3  2  3  0  0  0
  2 21  1  0  0  0  0
  3  4  1  0  0  0  0
  3 25  1  0  0  0  0
  4  5  2  3  0  0  0
  4 26  1  0  0  0  0
  5  6  1  0  0  0  0
  5  8  1  0  0  0  0
  6  7  2  0  0  0  0
  6 27  1  0  0  0  0
  8  9  1  0  0  0  0
  8 28  1  0  0  0  0
  8 29  1  0  0  0  0
  9 10  1  0  0  0  0
  9 30  1  0  0  0  0
  9 31  1  0  0  0  0
 10 11  1  0  0  0  0
 10 32  1  0  0  0  0
 10 33  1  0  0  0  0
 11 12  2  0  0  0  0
 11 13  1  0  0  0  0
 13 14  2  3  0  0  0
 13 34  1  0  0  0  0
 14 15  1  0  0  0  0
 14 16  1  0  0  0  0
 15 35  1  0  0  0  0
 15 36  1  0  0  0  0
 15 37  1  0  0  0  0
 16 17  2  3  0  0  0
 16 38  1  0  0  0  0
 17 18  1  0  0  0  0
 17 39  1  0  0  0  0
 18 19  2  3  0  0  0
 18 40  1  0  0  0  0
 19 20  1  0  0  0  0
 19 41  1  0  0  0  0
 20 21  2  3  0  0  0
 20 42  1  0  0  0  0
 21 43  1  0  0  0  0
M  END
$$$$
