
 OpenBabel04232217013D

231230  0  0  0  0  0  0  0  0999 V2000
    0.9204    0.0189   -0.1764 O   0  0  0  0  0  0  0  0  0  0  0  0
    2.3398   -0.0045   -0.1580 C   0  0  0  0  0  0  0  0  0  0  0  0
    2.8558    1.3904   -0.4611 C   0  0  0  0  0  0  0  0  0  0  0  0
    4.3773    1.4170   -0.4547 C   0  0  0  0  0  0  0  0  0  0  0  0
    4.8932    2.8160   -0.7581 C   0  0  0  0  0  0  0  0  0  0  0  0
    6.4138    2.8294   -0.7486 C   0  0  0  0  0  0  0  0  0  0  0  0
    6.9262    4.2270   -1.0500 C   0  0  0  0  0  0  0  0  0  0  0  0
    8.4436    4.2397   -1.0420 C   0  0  0  0  0  0  0  0  0  0  0  0
    8.9487    5.6399   -1.3438 C   0  0  0  0  0  0  0  0  0  0  0  0
   10.4570    5.6516   -1.3333 C   0  0  0  0  0  0  0  0  0  0  0  0
   10.9857    7.0353   -1.6276 C   0  0  0  0  0  0  0  0  0  0  0  0
   12.3943    6.9293   -1.5887 O   0  0  0  0  0  0  0  0  0  0  0  0
   12.8757    8.2519   -1.8811 O   0  0  0  0  0  0  0  0  0  0  0  0
   14.3142    8.2367   -1.8737 O   0  0  0  0  0  0  0  0  0  0  0  0
   14.6905    9.5657   -2.1590 C   0  0  0  0  0  0  0  0  0  0  0  0
   16.1037    9.6352   -2.1651 O   0  0  0  0  0  0  0  0  0  0  0  0
   16.5441   10.9491   -2.4497 C   0  0  0  0  0  0  0  0  0  0  0  0
   18.0538   10.9200   -2.4346 C   0  0  0  0  0  0  0  0  0  0  0  0
   18.5946   12.2963   -2.7314 C   0  0  0  0  0  0  0  0  0  0  0  0
   20.0050   12.2202   -2.7050 O   0  0  0  0  0  0  0  0  0  0  0  0
   20.4335   13.5698   -2.9947 O   0  0  0  0  0  0  0  0  0  0  0  0
   21.8455   13.5045   -2.9754 C   0  0  0  0  0  0  0  0  0  0  0  0
   22.3559   14.8952   -3.2759 C   0  0  0  0  0  0  0  0  0  0  0  0
   23.8708   14.9079   -3.2723 C   0  0  0  0  0  0  0  0  0  0  0  0
   24.3795   16.3054   -3.5744 C   0  0  0  0  0  0  0  0  0  0  0  0
   25.8971   16.3132   -3.5716 C   0  0  0  0  0  0  0  0  0  0  0  0
   26.4085   17.7095   -3.8722 C   0  0  0  0  0  0  0  0  0  0  0  0
   27.9258   17.7150   -3.8697 C   0  0  0  0  0  0  0  0  0  0  0  0
   28.4372   19.1114   -4.1697 C   0  0  0  0  0  0  0  0  0  0  0  0
   29.9541   19.1168   -4.1675 C   0  0  0  0  0  0  0  0  0  0  0  0
   30.4644   20.5130   -4.4692 C   0  0  0  0  0  0  0  0  0  0  0  0
   31.9811   20.5188   -4.4667 C   0  0  0  0  0  0  0  0  0  0  0  0
   32.4910   21.9151   -4.7679 C   0  0  0  0  0  0  0  0  0  0  0  0
   34.0077   21.9204   -4.7668 C   0  0  0  0  0  0  0  0  0  0  0  0
   34.5177   23.3167   -5.0677 C   0  0  0  0  0  0  0  0  0  0  0  0
   36.0343   23.3221   -5.0651 C   0  0  0  0  0  0  0  0  0  0  0  0
   36.5444   24.7188   -5.3642 C   0  0  0  0  0  0  0  0  0  0  0  0
   38.0610   24.7239   -5.3631 C   0  0  0  0  0  0  0  0  0  0  0  0
   38.5710   26.1209   -5.6605 C   0  0  0  0  0  0  0  0  0  0  0  0
   40.0876   26.1255   -5.6613 C   0  0  0  0  0  0  0  0  0  0  0  0
   40.5977   27.5222   -5.9603 C   0  0  0  0  0  0  0  0  0  0  0  0
   42.1143   27.5268   -5.9614 C   0  0  0  0  0  0  0  0  0  0  0  0
   42.6243   28.9235   -6.2605 C   0  0  0  0  0  0  0  0  0  0  0  0
   44.1409   28.9281   -6.2616 C   0  0  0  0  0  0  0  0  0  0  0  0
   44.6510   30.3248   -6.5607 C   0  0  0  0  0  0  0  0  0  0  0  0
   46.1676   30.3294   -6.5617 C   0  0  0  0  0  0  0  0  0  0  0  0
   46.6776   31.7260   -6.8607 C   0  0  0  0  0  0  0  0  0  0  0  0
   48.1943   31.7307   -6.8619 C   0  0  0  0  0  0  0  0  0  0  0  0
   48.7043   33.1273   -7.1610 C   0  0  0  0  0  0  0  0  0  0  0  0
   50.2209   33.1316   -7.1636 C   0  0  0  0  0  0  0  0  0  0  0  0
   50.7310   34.5282   -7.4629 C   0  0  0  0  0  0  0  0  0  0  0  0
   52.2476   34.5328   -7.4642 C   0  0  0  0  0  0  0  0  0  0  0  0
   52.7576   35.9291   -7.7649 C   0  0  0  0  0  0  0  0  0  0  0  0
   54.2743   35.9333   -7.7679 C   0  0  0  0  0  0  0  0  0  0  0  0
   54.7843   37.3299   -8.0673 C   0  0  0  0  0  0  0  0  0  0  0  0
   56.3009   37.3338   -8.0720 C   0  0  0  0  0  0  0  0  0  0  0  0
   56.8109   38.7300   -8.3730 C   0  0  0  0  0  0  0  0  0  0  0  0
   58.3276   38.7342   -8.3762 C   0  0  0  0  0  0  0  0  0  0  0  0
   58.8376   40.1304   -8.6773 C   0  0  0  0  0  0  0  0  0  0  0  0
   60.3542   40.1342   -8.6821 C   0  0  0  0  0  0  0  0  0  0  0  0
   60.8642   41.5305   -8.9832 C   0  0  0  0  0  0  0  0  0  0  0  0
   62.3810   41.5342   -8.9882 C   0  0  0  0  0  0  0  0  0  0  0  0
   62.8910   42.9307   -9.2894 C   0  0  0  0  0  0  0  0  0  0  0  0
   64.4075   42.9345   -9.2943 C   0  0  0  0  0  0  0  0  0  0  0  0
   64.9174   44.3306   -9.5958 C   0  0  0  0  0  0  0  0  0  0  0  0
   66.4339   44.3347   -9.6015 C   0  0  0  0  0  0  0  0  0  0  0  0
   66.9441   45.7310   -9.9032 C   0  0  0  0  0  0  0  0  0  0  0  0
   68.4612   45.7348   -9.9068 C   0  0  0  0  0  0  0  0  0  0  0  0
   68.9729   47.1311  -10.2075 C   0  0  0  0  0  0  0  0  0  0  0  0
   70.4887   47.1354  -10.2089 C   0  0  0  0  0  0  0  0  0  0  0  0
   70.9995   48.5313  -10.5111 C   0  0  0  0  0  0  0  0  0  0  0  0
   72.5163   48.5369  -10.5146 C   0  0  0  0  0  0  0  0  0  0  0  0
   73.0274   49.9335  -10.8158 C   0  0  0  0  0  0  0  0  0  0  0  0
   74.5450   49.9392  -10.8192 C   0  0  0  0  0  0  0  0  0  0  0  0
   75.0581   51.3361  -11.1205 C   0  0  0  0  0  0  0  0  0  0  0  0
   76.5771   51.3425  -11.1259 C   0  0  0  0  0  0  0  0  0  0  0  0
   77.0941   52.7394  -11.4271 C   0  0  0  0  0  0  0  0  0  0  0  0
   78.6153   52.7497  -11.4336 C   0  0  0  0  0  0  0  0  0  0  0  0
   79.1339   54.1486  -11.7333 C   0  0  0  0  0  0  0  0  0  0  0  0
   80.6581   54.1714  -11.7442 C   0  0  0  0  0  0  0  0  0  0  0  0
   81.1718   55.5669  -12.0431 C   0  0  0  0  0  0  0  0  0  0  0  0
    0.6212   -0.8839    0.0193 H   0  0  0  0  0  0  0  0  0  0  0  0
    2.6896   -0.7194   -0.9097 H   0  0  0  0  0  0  0  0  0  0  0  0
    2.6734   -0.3355    0.8307 H   0  0  0  0  0  0  0  0  0  0  0  0
    2.4596    2.0997    0.2763 H   0  0  0  0  0  0  0  0  0  0  0  0
    2.4731    1.7227   -1.4341 H   0  0  0  0  0  0  0  0  0  0  0  0
    4.7653    0.7121   -1.2000 H   0  0  0  0  0  0  0  0  0  0  0  0
    4.7512    1.0917    0.5239 H   0  0  0  0  0  0  0  0  0  0  0  0
    4.5121    3.5251   -0.0134 H   0  0  0  0  0  0  0  0  0  0  0  0
    4.5263    3.1460   -1.7378 H   0  0  0  0  0  0  0  0  0  0  0  0
    6.7994    2.1236   -1.4947 H   0  0  0  0  0  0  0  0  0  0  0  0
    6.7852    2.5010    0.2301 H   0  0  0  0  0  0  0  0  0  0  0  0
    6.5454    4.9341   -0.3031 H   0  0  0  0  0  0  0  0  0  0  0  0
    6.5576    4.5578   -2.0286 H   0  0  0  0  0  0  0  0  0  0  0  0
    8.8295    3.5353   -1.7890 H   0  0  0  0  0  0  0  0  0  0  0  0
    8.8171    3.9115   -0.0643 H   0  0  0  0  0  0  0  0  0  0  0  0
    8.5642    6.3458   -0.5969 H   0  0  0  0  0  0  0  0  0  0  0  0
    8.5790    5.9688   -2.3230 H   0  0  0  0  0  0  0  0  0  0  0  0
   10.8576    4.9427   -2.0726 H   0  0  0  0  0  0  0  0  0  0  0  0
   10.8429    5.3130   -0.3601 H   0  0  0  0  0  0  0  0  0  0  0  0
   10.6471    7.7543   -0.8731 H   0  0  0  0  0  0  0  0  0  0  0  0
   10.6655    7.3752   -2.6191 H   0  0  0  0  0  0  0  0  0  0  0  0
   14.2870   10.2324   -1.3876 H   0  0  0  0  0  0  0  0  0  0  0  0
   14.2982    9.8513   -3.1426 H   0  0  0  0  0  0  0  0  0  0  0  0
   16.1655   11.6410   -1.6888 H   0  0  0  0  0  0  0  0  0  0  0  0
   16.1758   11.2596   -3.4342 H   0  0  0  0  0  0  0  0  0  0  0  0
   18.4327   10.1919   -3.1633 H   0  0  0  0  0  0  0  0  0  0  0  0
   18.4229   10.5617   -1.4650 H   0  0  0  0  0  0  0  0  0  0  0  0
   18.2537   13.0150   -1.9767 H   0  0  0  0  0  0  0  0  0  0  0  0
   18.2656   12.6345   -3.7207 H   0  0  0  0  0  0  0  0  0  0  0  0
   22.1890   12.7912   -3.7330 H   0  0  0  0  0  0  0  0  0  0  0  0
   22.1825   13.1705   -1.9876 H   0  0  0  0  0  0  0  0  0  0  0  0
   21.9608   15.6017   -2.5350 H   0  0  0  0  0  0  0  0  0  0  0  0
   21.9681   15.2290   -4.2467 H   0  0  0  0  0  0  0  0  0  0  0  0
   24.2514   14.2022   -4.0208 H   0  0  0  0  0  0  0  0  0  0  0  0
   24.2441   14.5778   -2.2953 H   0  0  0  0  0  0  0  0  0  0  0  0
   24.0004   17.0113   -2.8251 H   0  0  0  0  0  0  0  0  0  0  0  0
   24.0059   16.6366   -4.5511 H   0  0  0  0  0  0  0  0  0  0  0  0
   26.2757   15.6076   -4.3214 H   0  0  0  0  0  0  0  0  0  0  0  0
   26.2710   15.9806   -2.5954 H   0  0  0  0  0  0  0  0  0  0  0  0
   26.0310   18.4157   -3.1224 H   0  0  0  0  0  0  0  0  0  0  0  0
   26.0354   18.0425   -4.8486 H   0  0  0  0  0  0  0  0  0  0  0  0
   28.3034   17.0097   -4.6203 H   0  0  0  0  0  0  0  0  0  0  0  0
   28.2997   17.3815   -2.8939 H   0  0  0  0  0  0  0  0  0  0  0  0
   28.0598   19.8173   -3.4196 H   0  0  0  0  0  0  0  0  0  0  0  0
   28.0638   19.4446   -5.1458 H   0  0  0  0  0  0  0  0  0  0  0  0
   30.3319   18.4106   -4.9171 H   0  0  0  0  0  0  0  0  0  0  0  0
   30.3281   18.7847   -3.1911 H   0  0  0  0  0  0  0  0  0  0  0  0
   30.0865   21.2195   -3.7198 H   0  0  0  0  0  0  0  0  0  0  0  0
   30.0908   20.8449   -5.4457 H   0  0  0  0  0  0  0  0  0  0  0  0
   32.3591   19.8127   -5.2164 H   0  0  0  0  0  0  0  0  0  0  0  0
   32.3550   20.1867   -3.4904 H   0  0  0  0  0  0  0  0  0  0  0  0
   32.1139   22.6210   -4.0177 H   0  0  0  0  0  0  0  0  0  0  0  0
   32.1166   22.2479   -5.7439 H   0  0  0  0  0  0  0  0  0  0  0  0
   34.3849   21.2146   -5.5171 H   0  0  0  0  0  0  0  0  0  0  0  0
   34.3822   21.5876   -3.7908 H   0  0  0  0  0  0  0  0  0  0  0  0
   34.1397   24.0227   -4.3181 H   0  0  0  0  0  0  0  0  0  0  0  0
   34.1441   23.6490   -6.0442 H   0  0  0  0  0  0  0  0  0  0  0  0
   36.4123   22.6170   -5.8157 H   0  0  0  0  0  0  0  0  0  0  0  0
   36.4080   22.9885   -4.0891 H   0  0  0  0  0  0  0  0  0  0  0  0
   36.1673   25.4235   -4.6128 H   0  0  0  0  0  0  0  0  0  0  0  0
   36.1698   25.0530   -6.3396 H   0  0  0  0  0  0  0  0  0  0  0  0
   38.4379   24.0199   -6.1153 H   0  0  0  0  0  0  0  0  0  0  0  0
   38.4357   24.3885   -4.3881 H   0  0  0  0  0  0  0  0  0  0  0  0
   38.1951   26.8245   -4.9075 H   0  0  0  0  0  0  0  0  0  0  0  0
   38.1953   26.4568   -6.6349 H   0  0  0  0  0  0  0  0  0  0  0  0
   40.4635   25.4210   -6.4135 H   0  0  0  0  0  0  0  0  0  0  0  0
   40.4633   25.7907   -4.6866 H   0  0  0  0  0  0  0  0  0  0  0  0
   40.2219   28.2268   -5.2081 H   0  0  0  0  0  0  0  0  0  0  0  0
   40.2219   27.8570   -6.9351 H   0  0  0  0  0  0  0  0  0  0  0  0
   42.4901   26.8222   -6.7136 H   0  0  0  0  0  0  0  0  0  0  0  0
   42.4901   27.1921   -4.9867 H   0  0  0  0  0  0  0  0  0  0  0  0
   42.2485   29.6281   -5.5084 H   0  0  0  0  0  0  0  0  0  0  0  0
   42.2485   29.2582   -7.2353 H   0  0  0  0  0  0  0  0  0  0  0  0
   44.5167   28.2235   -7.0137 H   0  0  0  0  0  0  0  0  0  0  0  0
   44.5167   28.5934   -5.2868 H   0  0  0  0  0  0  0  0  0  0  0  0
   44.2752   31.0294   -5.8085 H   0  0  0  0  0  0  0  0  0  0  0  0
   44.2752   30.6595   -7.5354 H   0  0  0  0  0  0  0  0  0  0  0  0
   46.5434   29.6248   -7.3138 H   0  0  0  0  0  0  0  0  0  0  0  0
   46.5434   29.9946   -5.5869 H   0  0  0  0  0  0  0  0  0  0  0  0
   46.3019   32.4306   -6.1086 H   0  0  0  0  0  0  0  0  0  0  0  0
   46.3018   32.0608   -7.8355 H   0  0  0  0  0  0  0  0  0  0  0  0
   48.5699   31.0261   -7.6141 H   0  0  0  0  0  0  0  0  0  0  0  0
   48.5702   31.3959   -5.8872 H   0  0  0  0  0  0  0  0  0  0  0  0
   48.3295   33.8317   -6.4081 H   0  0  0  0  0  0  0  0  0  0  0  0
   48.3275   33.4626   -8.1352 H   0  0  0  0  0  0  0  0  0  0  0  0
   50.5957   32.4272   -7.9165 H   0  0  0  0  0  0  0  0  0  0  0  0
   50.5977   32.7964   -6.1895 H   0  0  0  0  0  0  0  0  0  0  0  0
   50.3554   35.2329   -6.7107 H   0  0  0  0  0  0  0  0  0  0  0  0
   50.3550   34.8629   -8.4376 H   0  0  0  0  0  0  0  0  0  0  0  0
   52.6232   33.8273   -8.2156 H   0  0  0  0  0  0  0  0  0  0  0  0
   52.6235   34.1992   -6.4891 H   0  0  0  0  0  0  0  0  0  0  0  0
   52.3829   36.6343   -7.0129 H   0  0  0  0  0  0  0  0  0  0  0  0
   52.3808   36.2632   -8.7395 H   0  0  0  0  0  0  0  0  0  0  0  0
   54.6488   35.2288   -8.5208 H   0  0  0  0  0  0  0  0  0  0  0  0
   54.6513   35.5982   -6.7938 H   0  0  0  0  0  0  0  0  0  0  0  0
   54.4107   38.0342   -7.3138 H   0  0  0  0  0  0  0  0  0  0  0  0
   54.4063   37.6655   -9.0409 H   0  0  0  0  0  0  0  0  0  0  0  0
   56.6746   36.6288   -8.8248 H   0  0  0  0  0  0  0  0  0  0  0  0
   56.6788   36.9992   -7.0980 H   0  0  0  0  0  0  0  0  0  0  0  0
   56.4365   39.4354   -7.6209 H   0  0  0  0  0  0  0  0  0  0  0  0
   56.4338   39.0640   -9.3475 H   0  0  0  0  0  0  0  0  0  0  0  0
   58.7020   38.0288   -9.1283 H   0  0  0  0  0  0  0  0  0  0  0  0
   58.7047   38.4002   -7.4018 H   0  0  0  0  0  0  0  0  0  0  0  0
   58.4640   40.8356   -7.9246 H   0  0  0  0  0  0  0  0  0  0  0  0
   58.4596   40.4649   -9.6513 H   0  0  0  0  0  0  0  0  0  0  0  0
   60.7277   39.4291   -9.4349 H   0  0  0  0  0  0  0  0  0  0  0  0
   60.7323   39.7998   -7.7082 H   0  0  0  0  0  0  0  0  0  0  0  0
   60.4908   42.2356   -8.2305 H   0  0  0  0  0  0  0  0  0  0  0  0
   60.4861   41.8649   -9.9572 H   0  0  0  0  0  0  0  0  0  0  0  0
   62.7544   40.8291   -9.7410 H   0  0  0  0  0  0  0  0  0  0  0  0
   62.7591   41.1998   -8.0143 H   0  0  0  0  0  0  0  0  0  0  0  0
   62.5175   43.6356   -8.5366 H   0  0  0  0  0  0  0  0  0  0  0  0
   62.5127   43.2649  -10.2630 H   0  0  0  0  0  0  0  0  0  0  0  0
   64.7810   42.2293  -10.0471 H   0  0  0  0  0  0  0  0  0  0  0  0
   64.7858   42.6001   -8.3206 H   0  0  0  0  0  0  0  0  0  0  0  0
   64.5441   45.0360   -8.8427 H   0  0  0  0  0  0  0  0  0  0  0  0
   64.5391   44.6653  -10.5697 H   0  0  0  0  0  0  0  0  0  0  0  0
   66.8075   43.6292  -10.3538 H   0  0  0  0  0  0  0  0  0  0  0  0
   66.8122   44.0006   -8.6270 H   0  0  0  0  0  0  0  0  0  0  0  0
   66.5691   46.4362   -9.1503 H   0  0  0  0  0  0  0  0  0  0  0  0
   66.5663   46.0655  -10.8772 H   0  0  0  0  0  0  0  0  0  0  0  0
   68.8348   45.0296  -10.6583 H   0  0  0  0  0  0  0  0  0  0  0  0
   68.8380   45.4008   -8.9323 H   0  0  0  0  0  0  0  0  0  0  0  0
   68.5994   47.8372   -9.4553 H   0  0  0  0  0  0  0  0  0  0  0  0
   68.5945   47.4656  -11.1822 H   0  0  0  0  0  0  0  0  0  0  0  0
   70.8634   46.4301  -10.9639 H   0  0  0  0  0  0  0  0  0  0  0  0
   70.8665   46.7971   -9.2380 H   0  0  0  0  0  0  0  0  0  0  0  0
   70.6244   49.2370   -9.7595 H   0  0  0  0  0  0  0  0  0  0  0  0
   70.6222   48.8656  -11.4861 H   0  0  0  0  0  0  0  0  0  0  0  0
   72.8905   47.8312  -11.2665 H   0  0  0  0  0  0  0  0  0  0  0  0
   72.8928   48.2026   -9.5400 H   0  0  0  0  0  0  0  0  0  0  0  0
   72.6522   50.6384  -10.0636 H   0  0  0  0  0  0  0  0  0  0  0  0
   72.6496   50.2670  -11.7901 H   0  0  0  0  0  0  0  0  0  0  0  0
   74.9187   49.2332  -11.5711 H   0  0  0  0  0  0  0  0  0  0  0  0
   74.9214   49.6047   -9.8447 H   0  0  0  0  0  0  0  0  0  0  0  0
   74.6834   52.0406  -10.3678 H   0  0  0  0  0  0  0  0  0  0  0  0
   74.6790   51.6700  -12.0943 H   0  0  0  0  0  0  0  0  0  0  0  0
   76.9487   50.6361  -11.8784 H   0  0  0  0  0  0  0  0  0  0  0  0
   76.9533   51.0066  -10.1518 H   0  0  0  0  0  0  0  0  0  0  0  0
   76.7188   53.4436  -10.6742 H   0  0  0  0  0  0  0  0  0  0  0  0
   76.7140   53.0733  -12.4005 H   0  0  0  0  0  0  0  0  0  0  0  0
   78.9866   52.0434  -12.1870 H   0  0  0  0  0  0  0  0  0  0  0  0
   78.9916   52.4118  -10.4596 H   0  0  0  0  0  0  0  0  0  0  0  0
   78.7569   54.8500  -10.9788 H   0  0  0  0  0  0  0  0  0  0  0  0
   78.7501   54.4828  -12.7052 H   0  0  0  0  0  0  0  0  0  0  0  0
   81.0352   53.4724  -12.4996 H   0  0  0  0  0  0  0  0  0  0  0  0
   81.0421   53.8397  -10.7728 H   0  0  0  0  0  0  0  0  0  0  0  0
   80.8206   55.9098  -13.0216 H   0  0  0  0  0  0  0  0  0  0  0  0
   82.2661   55.5750  -12.0493 H   0  0  0  0  0  0  0  0  0  0  0  0
   80.8277   56.2789  -11.2862 H   0  0  0  0  0  0  0  0  0  0  0  0
  1  2  1  0  0  0  0
  1 82  1  0  0  0  0
  2  3  1  0  0  0  0
  2 83  1  0  0  0  0
  2 84  1  0  0  0  0
  3  4  1  0  0  0  0
  3 85  1  0  0  0  0
  3 86  1  0  0  0  0
  4  5  1  0  0  0  0
  4 87  1  0  0  0  0
  4 88  1  0  0  0  0
  5  6  1  0  0  0  0
  5 89  1  0  0  0  0
  5 90  1  0  0  0  0
  6  7  1  0  0  0  0
  6 91  1  0  0  0  0
  6 92  1  0  0  0  0
  7  8  1  0  0  0  0
  7 93  1  0  0  0  0
  7 94  1  0  0  0  0
  8  9  1  0  0  0  0
  8 95  1  0  0  0  0
  8 96  1  0  0  0  0
  9 10  1  0  0  0  0
  9 97  1  0  0  0  0
  9 98  1  0  0  0  0
 10 11  1  0  0  0  0
 10 99  1  0  0  0  0
 10100  1  0  0  0  0
 11 12  1  0  0  0  0
 11101  1  0  0  0  0
 11102  1  0  0  0  0
 12 13  1  0  0  0  0
 13 14  1  0  0  0  0
 14 15  1  0  0  0  0
 15 16  1  0  0  0  0
 15103  1  0  0  0  0
 15104  1  0  0  0  0
 16 17  1  0  0  0  0
 17 18  1  0  0  0  0
 17105  1  0  0  0  0
 17106  1  0  0  0  0
 18 19  1  0  0  0  0
 18107  1  0  0  0  0
 18108  1  0  0  0  0
 19 20  1  0  0  0  0
 19109  1  0  0  0  0
 19110  1  0  0  0  0
 20 21  1  0  0  0  0
 21 22  1  0  0  0  0
 22 23  1  0  0  0  0
 22111  1  0  0  0  0
 22112  1  0  0  0  0
 23 24  1  0  0  0  0
 23113  1  0  0  0  0
 23114  1  0  0  0  0
 24 25  1  0  0  0  0
 24115  1  0  0  0  0
 24116  1  0  0  0  0
 25 26  1  0  0  0  0
 25117  1  0  0  0  0
 25118  1  0  0  0  0
 26 27  1  0  0  0  0
 26119  1  0  0  0  0
 26120  1  0  0  0  0
 27 28  1  0  0  0  0
 27121  1  0  0  0  0
 27122  1  0  0  0  0
 28 29  1  0  0  0  0
 28123  1  0  0  0  0
 28124  1  0  0  0  0
 29 30  1  0  0  0  0
 29125  1  0  0  0  0
 29126  1  0  0  0  0
 30 31  1  0  0  0  0
 30127  1  0  0  0  0
 30128  1  0  0  0  0
 31 32  1  0  0  0  0
 31129  1  0  0  0  0
 31130  1  0  0  0  0
 32 33  1  0  0  0  0
 32131  1  0  0  0  0
 32132  1  0  0  0  0
 33 34  1  0  0  0  0
 33133  1  0  0  0  0
 33134  1  0  0  0  0
 34 35  1  0  0  0  0
 34135  1  0  0  0  0
 34136  1  0  0  0  0
 35 36  1  0  0  0  0
 35137  1  0  0  0  0
 35138  1  0  0  0  0
 36 37  1  0  0  0  0
 36139  1  0  0  0  0
 36140  1  0  0  0  0
 37 38  1  0  0  0  0
 37141  1  0  0  0  0
 37142  1  0  0  0  0
 38 39  1  0  0  0  0
 38143  1  0  0  0  0
 38144  1  0  0  0  0
 39 40  1  0  0  0  0
 39145  1  0  0  0  0
 39146  1  0  0  0  0
 40 41  1  0  0  0  0
 40147  1  0  0  0  0
 40148  1  0  0  0  0
 41 42  1  0  0  0  0
 41149  1  0  0  0  0
 41150  1  0  0  0  0
 42 43  1  0  0  0  0
 42151  1  0  0  0  0
 42152  1  0  0  0  0
 43 44  1  0  0  0  0
 43153  1  0  0  0  0
 43154  1  0  0  0  0
 44 45  1  0  0  0  0
 44155  1  0  0  0  0
 44156  1  0  0  0  0
 45 46  1  0  0  0  0
 45157  1  0  0  0  0
 45158  1  0  0  0  0
 46 47  1  0  0  0  0
 46159  1  0  0  0  0
 46160  1  0  0  0  0
 47 48  1  0  0  0  0
 47161  1  0  0  0  0
 47162  1  0  0  0  0
 48 49  1  0  0  0  0
 48163  1  0  0  0  0
 48164  1  0  0  0  0
 49 50  1  0  0  0  0
 49165  1  0  0  0  0
 49166  1  0  0  0  0
 50 51  1  0  0  0  0
 50167  1  0  0  0  0
 50168  1  0  0  0  0
 51 52  1  0  0  0  0
 51169  1  0  0  0  0
 51170  1  0  0  0  0
 52 53  1  0  0  0  0
 52171  1  0  0  0  0
 52172  1  0  0  0  0
 53 54  1  0  0  0  0
 53173  1  0  0  0  0
 53174  1  0  0  0  0
 54 55  1  0  0  0  0
 54175  1  0  0  0  0
 54176  1  0  0  0  0
 55 56  1  0  0  0  0
 55177  1  0  0  0  0
 55178  1  0  0  0  0
 56 57  1  0  0  0  0
 56179  1  0  0  0  0
 56180  1  0  0  0  0
 57 58  1  0  0  0  0
 57181  1  0  0  0  0
 57182  1  0  0  0  0
 58 59  1  0  0  0  0
 58183  1  0  0  0  0
 58184  1  0  0  0  0
 59 60  1  0  0  0  0
 59185  1  0  0  0  0
 59186  1  0  0  0  0
 60 61  1  0  0  0  0
 60187  1  0  0  0  0
 60188  1  0  0  0  0
 61 62  1  0  0  0  0
 61189  1  0  0  0  0
 61190  1  0  0  0  0
 62 63  1  0  0  0  0
 62191  1  0  0  0  0
 62192  1  0  0  0  0
 63 64  1  0  0  0  0
 63193  1  0  0  0  0
 63194  1  0  0  0  0
 64 65  1  0  0  0  0
 64195  1  0  0  0  0
 64196  1  0  0  0  0
 65 66  1  0  0  0  0
 65197  1  0  0  0  0
 65198  1  0  0  0  0
 66 67  1  0  0  0  0
 66199  1  0  0  0  0
 66200  1  0  0  0  0
 67 68  1  0  0  0  0
 67201  1  0  0  0  0
 67202  1  0  0  0  0
 68 69  1  0  0  0  0
 68203  1  0  0  0  0
 68204  1  0  0  0  0
 69 70  1  0  0  0  0
 69205  1  0  0  0  0
 69206  1  0  0  0  0
 70 71  1  0  0  0  0
 70207  1  0  0  0  0
 70208  1  0  0  0  0
 71 72  1  0  0  0  0
 71209  1  0  0  0  0
 71210  1  0  0  0  0
 72 73  1  0  0  0  0
 72211  1  0  0  0  0
 72212  1  0  0  0  0
 73 74  1  0  0  0  0
 73213  1  0  0  0  0
 73214  1  0  0  0  0
 74 75  1  0  0  0  0
 74215  1  0  0  0  0
 74216  1  0  0  0  0
 75 76  1  0  0  0  0
 75217  1  0  0  0  0
 75218  1  0  0  0  0
 76 77  1  0  0  0  0
 76219  1  0  0  0  0
 76220  1  0  0  0  0
 77 78  1  0  0  0  0
 77221  1  0  0  0  0
 77222  1  0  0  0  0
 78 79  1  0  0  0  0
 78223  1  0  0  0  0
 78224  1  0  0  0  0
 79 80  1  0  0  0  0
 79225  1  0  0  0  0
 79226  1  0  0  0  0
 80 81  1  0  0  0  0
 80227  1  0  0  0  0
 80228  1  0  0  0  0
 81229  1  0  0  0  0
 81230  1  0  0  0  0
 81231  1  0  0  0  0
M  END
$$$$
