
 OpenBabel04232216593D

230230  0  0  1  0  0  0  0  0999 V2000
   -1.7518    0.0874   -0.0469 O   0  0  0  0  0  0  0  0  0  0  0  0
   -0.5453    0.0779   -0.0647 C   0  0  0  0  0  0  0  0  0  0  0  0
    0.5274    1.1793   -0.0716 C   0  0  0  0  0  0  0  0  0  0  0  0
    1.5872    0.0644    0.0955 C   0  0  0  0  0  0  0  0  0  0  0  0
    0.5209   -1.0443   -0.1011 C   0  0  3  0  0  0  0  0  0  0  0  0
    0.5947   -1.8249   -1.3998 C   0  0  0  0  0  0  0  0  0  0  0  0
   -0.5209   -2.8628   -1.4229 C   0  0  0  0  0  0  0  0  0  0  0  0
   -0.4642   -3.6544   -2.7143 C   0  0  0  0  0  0  0  0  0  0  0  0
   -1.5746   -4.6878   -2.7405 C   0  0  0  0  0  0  0  0  0  0  0  0
   -1.5097   -5.4752   -4.0351 C   0  0  0  0  0  0  0  0  0  0  0  0
   -2.6181   -6.5095   -4.0654 C   0  0  0  0  0  0  0  0  0  0  0  0
   -2.5532   -7.2949   -5.3611 C   0  0  0  0  0  0  0  0  0  0  0  0
   -3.6619   -8.3291   -5.3913 C   0  0  0  0  0  0  0  0  0  0  0  0
   -3.5975   -9.1146   -6.6868 C   0  0  0  0  0  0  0  0  0  0  0  0
   -4.7060  -10.1491   -6.7173 C   0  0  0  0  0  0  0  0  0  0  0  0
   -4.6417  -10.9346   -8.0128 C   0  0  0  0  0  0  0  0  0  0  0  0
   -5.7502  -11.9690   -8.0433 C   0  0  0  0  0  0  0  0  0  0  0  0
   -5.6871  -12.7532   -9.3396 C   0  0  0  0  0  0  0  0  0  0  0  0
   -6.7956  -13.7876   -9.3702 C   0  0  0  0  0  0  0  0  0  0  0  0
   -6.7326  -14.5719  -10.6665 C   0  0  0  0  0  0  0  0  0  0  0  0
   -7.8410  -15.6062  -10.6971 C   0  0  0  0  0  0  0  0  0  0  0  0
   -7.7780  -16.3905  -11.9934 C   0  0  0  0  0  0  0  0  0  0  0  0
   -8.8864  -17.4249  -12.0240 C   0  0  0  0  0  0  0  0  0  0  0  0
   -8.8234  -18.2092  -13.3203 C   0  0  0  0  0  0  0  0  0  0  0  0
   -9.9318  -19.2436  -13.3508 C   0  0  0  0  0  0  0  0  0  0  0  0
   -9.8688  -20.0278  -14.6472 C   0  0  0  0  0  0  0  0  0  0  0  0
  -10.9773  -21.0622  -14.6778 C   0  0  0  0  0  0  0  0  0  0  0  0
  -10.9154  -21.8452  -15.9749 C   0  0  0  0  0  0  0  0  0  0  0  0
  -12.0239  -22.8796  -16.0055 C   0  0  0  0  0  0  0  0  0  0  0  0
  -11.9609  -23.6638  -17.3019 C   0  0  0  0  0  0  0  0  0  0  0  0
  -13.0693  -24.6982  -17.3324 C   0  0  0  0  0  0  0  0  0  0  0  0
  -13.0074  -25.4812  -18.6296 C   0  0  0  0  0  0  0  0  0  0  0  0
  -14.1160  -26.5155  -18.6602 C   0  0  0  0  0  0  0  0  0  0  0  0
  -14.0553  -27.2971  -19.9582 C   0  0  0  0  0  0  0  0  0  0  0  0
  -15.1650  -28.3302  -19.9896 C   0  0  0  0  0  0  0  0  0  0  0  0
  -15.1033  -29.1130  -21.2869 C   0  0  0  0  0  0  0  0  0  0  0  0
  -16.2129  -30.1461  -21.3183 C   0  0  0  0  0  0  0  0  0  0  0  0
  -16.1511  -30.9290  -22.6155 C   0  0  0  0  0  0  0  0  0  0  0  0
  -17.2608  -31.9621  -22.6469 C   0  0  0  0  0  0  0  0  0  0  0  0
  -17.1990  -32.7450  -23.9442 C   0  0  0  0  0  0  0  0  0  0  0  0
  -18.3087  -33.7780  -23.9756 C   0  0  0  0  0  0  0  0  0  0  0  0
  -18.2469  -34.5610  -25.2727 C   0  0  0  0  0  0  0  0  0  0  0  0
  -19.3553  -35.5954  -25.3033 C   0  0  0  0  0  0  0  0  0  0  0  0
  -19.2923  -36.3796  -26.5997 C   0  0  0  0  0  0  0  0  0  0  0  0
  -20.4020  -37.4127  -26.6310 C   0  0  0  0  0  0  0  0  0  0  0  0
  -20.3401  -38.1956  -27.9283 C   0  0  0  0  0  0  0  0  0  0  0  0
  -21.4487  -39.2300  -27.9588 C   0  0  0  0  0  0  0  0  0  0  0  0
  -21.3869  -40.0129  -29.2561 C   0  0  0  0  0  0  0  0  0  0  0  0
  -22.4953  -41.0473  -29.2866 C   0  0  0  0  0  0  0  0  0  0  0  0
  -22.4335  -41.8302  -30.5838 C   0  0  0  0  0  0  0  0  0  0  0  0
  -23.5407  -42.8659  -30.6135 C   0  0  0  0  0  0  0  0  0  0  0  0
  -23.4789  -43.6489  -31.9107 C   0  0  0  0  0  0  0  0  0  0  0  0
  -24.5849  -44.6859  -31.9395 C   0  0  0  0  0  0  0  0  0  0  0  0
  -24.5230  -45.4689  -33.2367 C   0  0  0  0  0  0  0  0  0  0  0  0
  -25.6303  -46.5047  -33.2663 C   0  0  0  0  0  0  0  0  0  0  0  0
  -25.5685  -47.2875  -34.5636 C   0  0  0  0  0  0  0  0  0  0  0  0
  -26.6769  -48.3219  -34.5942 C   0  0  0  0  0  0  0  0  0  0  0  0
  -26.6163  -49.1036  -35.8922 C   0  0  0  0  0  0  0  0  0  0  0  0
  -27.7236  -50.1392  -35.9219 C   0  0  0  0  0  0  0  0  0  0  0  0
  -27.6618  -50.9221  -37.2192 C   0  0  0  0  0  0  0  0  0  0  0  0
  -28.7702  -51.9566  -37.2496 C   0  0  0  0  0  0  0  0  0  0  0  0
  -28.7072  -52.7408  -38.5460 C   0  0  0  0  0  0  0  0  0  0  0  0
  -29.8144  -53.7765  -38.5757 C   0  0  0  0  0  0  0  0  0  0  0  0
  -29.7525  -54.5595  -39.8729 C   0  0  0  0  0  0  0  0  0  0  0  0
  -30.8610  -55.5939  -39.9034 C   0  0  0  0  0  0  0  0  0  0  0  0
  -30.7992  -56.3768  -41.2007 C   0  0  0  0  0  0  0  0  0  0  0  0
  -31.9089  -57.4099  -41.2321 C   0  0  0  0  0  0  0  0  0  0  0  0
  -31.8483  -58.1915  -42.5302 C   0  0  0  0  0  0  0  0  0  0  0  0
  -32.9593  -59.2232  -42.5625 C   0  0  0  0  0  0  0  0  0  0  0  0
  -32.8975  -60.0061  -43.8598 C   0  0  0  0  0  0  0  0  0  0  0  0
  -34.0097  -61.0366  -43.8929 C   0  0  0  0  0  0  0  0  0  0  0  0
  -33.9480  -61.8197  -45.1903 C   0  0  0  0  0  0  0  0  0  0  0  0
  -35.0592  -62.8518  -45.2229 C   0  0  0  0  0  0  0  0  0  0  0  0
  -34.9969  -63.6370  -46.5196 C   0  0  0  0  0  0  0  0  0  0  0  0
  -36.1090  -64.6700  -46.5521 C   0  0  0  0  0  0  0  0  0  0  0  0
  -36.0482  -65.4577  -47.8505 C   0  0  0  0  0  0  0  0  0  0  0  0
  -37.1582  -66.4963  -47.8902 C   0  0  0  0  0  0  0  0  0  0  0  0
  -37.0974  -67.2810  -49.1840 C   0  0  0  0  0  0  0  0  0  0  0  0
    0.4485    1.8680    0.7723 H   0  0  0  0  0  0  0  0  0  0  0  0
    0.5715    1.7377   -1.0083 H   0  0  0  0  0  0  0  0  0  0  0  0
    2.0380    0.0501    1.0955 H   0  0  0  0  0  0  0  0  0  0  0  0
    2.3980    0.0722   -0.6414 H   0  0  0  0  0  0  0  0  0  0  0  0
    0.4560   -1.7189    0.7606 H   0  0  0  0  0  0  0  0  0  0  0  0
    1.5632   -2.3345   -1.4717 H   0  0  0  0  0  0  0  0  0  0  0  0
    0.5117   -1.1596   -2.2690 H   0  0  0  0  0  0  0  0  0  0  0  0
   -1.4983   -2.3757   -1.3255 H   0  0  0  0  0  0  0  0  0  0  0  0
   -0.4205   -3.5408   -0.5665 H   0  0  0  0  0  0  0  0  0  0  0  0
    0.5093   -4.1519   -2.8036 H   0  0  0  0  0  0  0  0  0  0  0  0
   -0.5652   -2.9768   -3.5710 H   0  0  0  0  0  0  0  0  0  0  0  0
   -2.5499   -4.1930   -2.6523 H   0  0  0  0  0  0  0  0  0  0  0  0
   -1.4759   -5.3670   -1.8845 H   0  0  0  0  0  0  0  0  0  0  0  0
   -0.5345   -5.9697   -4.1234 H   0  0  0  0  0  0  0  0  0  0  0  0
   -1.6088   -4.7959   -4.8908 H   0  0  0  0  0  0  0  0  0  0  0  0
   -3.5932   -6.0150   -3.9761 H   0  0  0  0  0  0  0  0  0  0  0  0
   -2.5182   -7.1895   -3.2105 H   0  0  0  0  0  0  0  0  0  0  0  0
   -1.5782   -7.7892   -5.4503 H   0  0  0  0  0  0  0  0  0  0  0  0
   -2.6532   -6.6147   -6.2159 H   0  0  0  0  0  0  0  0  0  0  0  0
   -4.6371   -7.8347   -5.3019 H   0  0  0  0  0  0  0  0  0  0  0  0
   -3.5622   -9.0092   -4.5364 H   0  0  0  0  0  0  0  0  0  0  0  0
   -2.6223   -9.6090   -6.7762 H   0  0  0  0  0  0  0  0  0  0  0  0
   -3.6973   -8.4345   -7.5418 H   0  0  0  0  0  0  0  0  0  0  0  0
   -5.6812   -9.6546   -6.6279 H   0  0  0  0  0  0  0  0  0  0  0  0
   -4.6063  -10.8291   -5.8623 H   0  0  0  0  0  0  0  0  0  0  0  0
   -3.6665  -11.4290   -8.1022 H   0  0  0  0  0  0  0  0  0  0  0  0
   -4.7414  -10.2544   -8.8677 H   0  0  0  0  0  0  0  0  0  0  0  0
   -6.7253  -11.4747   -7.9525 H   0  0  0  0  0  0  0  0  0  0  0  0
   -5.6496  -12.6499   -7.1891 H   0  0  0  0  0  0  0  0  0  0  0  0
   -4.7120  -13.2475   -9.4305 H   0  0  0  0  0  0  0  0  0  0  0  0
   -5.7877  -12.0722  -10.1938 H   0  0  0  0  0  0  0  0  0  0  0  0
   -7.7707  -13.2933   -9.2793 H   0  0  0  0  0  0  0  0  0  0  0  0
   -6.6950  -14.4686   -8.5160 H   0  0  0  0  0  0  0  0  0  0  0  0
   -5.7574  -15.0661  -10.7574 H   0  0  0  0  0  0  0  0  0  0  0  0
   -6.8331  -13.8909  -11.5207 H   0  0  0  0  0  0  0  0  0  0  0  0
   -8.8162  -15.1120  -10.6062 H   0  0  0  0  0  0  0  0  0  0  0  0
   -7.7405  -16.2873   -9.8429 H   0  0  0  0  0  0  0  0  0  0  0  0
   -6.8028  -16.8848  -12.0843 H   0  0  0  0  0  0  0  0  0  0  0  0
   -7.8785  -15.7095  -12.8476 H   0  0  0  0  0  0  0  0  0  0  0  0
   -9.8616  -16.9306  -11.9331 H   0  0  0  0  0  0  0  0  0  0  0  0
   -8.7859  -18.1059  -11.1698 H   0  0  0  0  0  0  0  0  0  0  0  0
   -7.8482  -18.7034  -13.4112 H   0  0  0  0  0  0  0  0  0  0  0  0
   -8.9239  -17.5282  -14.1745 H   0  0  0  0  0  0  0  0  0  0  0  0
  -10.9070  -18.7493  -13.2600 H   0  0  0  0  0  0  0  0  0  0  0  0
   -9.8313  -19.9246  -12.4967 H   0  0  0  0  0  0  0  0  0  0  0  0
   -8.8937  -20.5221  -14.7381 H   0  0  0  0  0  0  0  0  0  0  0  0
   -9.9693  -19.3468  -15.5014 H   0  0  0  0  0  0  0  0  0  0  0  0
  -11.9524  -20.5681  -14.5855 H   0  0  0  0  0  0  0  0  0  0  0  0
  -10.8759  -21.7441  -13.8244 H   0  0  0  0  0  0  0  0  0  0  0  0
   -9.9403  -22.3393  -16.0672 H   0  0  0  0  0  0  0  0  0  0  0  0
  -11.0168  -21.1633  -16.8284 H   0  0  0  0  0  0  0  0  0  0  0  0
  -12.9990  -22.3853  -15.9146 H   0  0  0  0  0  0  0  0  0  0  0  0
  -11.9233  -23.5606  -15.1514 H   0  0  0  0  0  0  0  0  0  0  0  0
  -10.9857  -24.1581  -17.3928 H   0  0  0  0  0  0  0  0  0  0  0  0
  -12.0614  -22.9828  -18.1560 H   0  0  0  0  0  0  0  0  0  0  0  0
  -14.0444  -24.2041  -17.2401 H   0  0  0  0  0  0  0  0  0  0  0  0
  -12.9679  -25.3801  -16.4790 H   0  0  0  0  0  0  0  0  0  0  0  0
  -12.0324  -25.9753  -18.7220 H   0  0  0  0  0  0  0  0  0  0  0  0
  -13.1089  -24.7992  -19.4830 H   0  0  0  0  0  0  0  0  0  0  0  0
  -15.0910  -26.0215  -18.5664 H   0  0  0  0  0  0  0  0  0  0  0  0
  -14.0137  -27.1983  -17.8076 H   0  0  0  0  0  0  0  0  0  0  0  0
  -13.0809  -27.7922  -20.0513 H   0  0  0  0  0  0  0  0  0  0  0  0
  -14.1562  -26.6142  -20.8109 H   0  0  0  0  0  0  0  0  0  0  0  0
  -16.1396  -27.8348  -19.8980 H   0  0  0  0  0  0  0  0  0  0  0  0
  -15.0651  -29.0122  -19.1363 H   0  0  0  0  0  0  0  0  0  0  0  0
  -14.1287  -29.6084  -21.3785 H   0  0  0  0  0  0  0  0  0  0  0  0
  -15.2032  -28.4310  -22.1403 H   0  0  0  0  0  0  0  0  0  0  0  0
  -17.1875  -29.6508  -21.2267 H   0  0  0  0  0  0  0  0  0  0  0  0
  -16.1130  -30.8282  -20.4649 H   0  0  0  0  0  0  0  0  0  0  0  0
  -15.1766  -31.4243  -22.7071 H   0  0  0  0  0  0  0  0  0  0  0  0
  -16.2511  -30.2470  -23.4689 H   0  0  0  0  0  0  0  0  0  0  0  0
  -18.2354  -31.4668  -22.5553 H   0  0  0  0  0  0  0  0  0  0  0  0
  -17.1609  -32.6441  -21.7935 H   0  0  0  0  0  0  0  0  0  0  0  0
  -16.2245  -33.2403  -24.0358 H   0  0  0  0  0  0  0  0  0  0  0  0
  -17.2990  -32.0630  -24.7975 H   0  0  0  0  0  0  0  0  0  0  0  0
  -19.2833  -33.2828  -23.8839 H   0  0  0  0  0  0  0  0  0  0  0  0
  -18.2087  -34.4601  -23.1221 H   0  0  0  0  0  0  0  0  0  0  0  0
  -17.2718  -35.0551  -25.3650 H   0  0  0  0  0  0  0  0  0  0  0  0
  -18.3482  -33.8791  -26.1261 H   0  0  0  0  0  0  0  0  0  0  0  0
  -20.3305  -35.1011  -25.2124 H   0  0  0  0  0  0  0  0  0  0  0  0
  -19.2548  -36.2764  -24.4492 H   0  0  0  0  0  0  0  0  0  0  0  0
  -18.3177  -36.8750  -26.6898 H   0  0  0  0  0  0  0  0  0  0  0  0
  -19.3914  -35.6984  -27.4539 H   0  0  0  0  0  0  0  0  0  0  0  0
  -21.3766  -36.9174  -26.5395 H   0  0  0  0  0  0  0  0  0  0  0  0
  -20.3020  -38.0947  -25.7776 H   0  0  0  0  0  0  0  0  0  0  0  0
  -19.3651  -38.6898  -28.0206 H   0  0  0  0  0  0  0  0  0  0  0  0
  -20.4415  -37.5137  -28.7816 H   0  0  0  0  0  0  0  0  0  0  0  0
  -22.4237  -38.7359  -27.8665 H   0  0  0  0  0  0  0  0  0  0  0  0
  -21.3472  -39.9119  -27.1055 H   0  0  0  0  0  0  0  0  0  0  0  0
  -20.4117  -40.5071  -29.3483 H   0  0  0  0  0  0  0  0  0  0  0  0
  -21.4882  -39.3310  -30.1094 H   0  0  0  0  0  0  0  0  0  0  0  0
  -23.4704  -40.5532  -29.1943 H   0  0  0  0  0  0  0  0  0  0  0  0
  -22.3939  -41.7292  -28.4332 H   0  0  0  0  0  0  0  0  0  0  0  0
  -21.4579  -42.3232  -30.6768 H   0  0  0  0  0  0  0  0  0  0  0  0
  -22.5363  -41.1485  -31.4371 H   0  0  0  0  0  0  0  0  0  0  0  0
  -24.5163  -42.3730  -30.5205 H   0  0  0  0  0  0  0  0  0  0  0  0
  -23.4378  -43.5477  -29.7601 H   0  0  0  0  0  0  0  0  0  0  0  0
  -22.5027  -44.1407  -32.0044 H   0  0  0  0  0  0  0  0  0  0  0  0
  -23.5831  -42.9673  -32.7640 H   0  0  0  0  0  0  0  0  0  0  0  0
  -25.5610  -44.1941  -31.8458 H   0  0  0  0  0  0  0  0  0  0  0  0
  -24.4806  -45.3675  -31.0862 H   0  0  0  0  0  0  0  0  0  0  0  0
  -23.5474  -45.9618  -33.3297 H   0  0  0  0  0  0  0  0  0  0  0  0
  -24.6259  -44.7872  -34.0901 H   0  0  0  0  0  0  0  0  0  0  0  0
  -26.6059  -46.0116  -33.1734 H   0  0  0  0  0  0  0  0  0  0  0  0
  -25.5275  -47.1864  -32.4131 H   0  0  0  0  0  0  0  0  0  0  0  0
  -24.5934  -47.7817  -34.6559 H   0  0  0  0  0  0  0  0  0  0  0  0
  -25.6699  -46.6057  -35.4170 H   0  0  0  0  0  0  0  0  0  0  0  0
  -27.6520  -47.8280  -34.5004 H   0  0  0  0  0  0  0  0  0  0  0  0
  -26.5747  -49.0046  -33.7415 H   0  0  0  0  0  0  0  0  0  0  0  0
  -25.6408  -49.5964  -35.9867 H   0  0  0  0  0  0  0  0  0  0  0  0
  -26.7200  -48.4210  -36.7448 H   0  0  0  0  0  0  0  0  0  0  0  0
  -28.6992  -49.6462  -35.8289 H   0  0  0  0  0  0  0  0  0  0  0  0
  -27.6208  -50.8210  -35.0686 H   0  0  0  0  0  0  0  0  0  0  0  0
  -26.6867  -51.4163  -37.3114 H   0  0  0  0  0  0  0  0  0  0  0  0
  -27.7632  -50.2403  -38.0726 H   0  0  0  0  0  0  0  0  0  0  0  0
  -29.7454  -51.4623  -37.1588 H   0  0  0  0  0  0  0  0  0  0  0  0
  -28.6696  -52.6376  -36.3955 H   0  0  0  0  0  0  0  0  0  0  0  0
  -27.7315  -53.2340  -38.6376 H   0  0  0  0  0  0  0  0  0  0  0  0
  -28.8091  -52.0599  -39.4001 H   0  0  0  0  0  0  0  0  0  0  0  0
  -30.7900  -53.2836  -38.4827 H   0  0  0  0  0  0  0  0  0  0  0  0
  -29.7116  -54.4583  -37.7224 H   0  0  0  0  0  0  0  0  0  0  0  0
  -28.7775  -55.0536  -39.9652 H   0  0  0  0  0  0  0  0  0  0  0  0
  -29.8540  -53.8776  -40.7263 H   0  0  0  0  0  0  0  0  0  0  0  0
  -31.8361  -55.0997  -39.8111 H   0  0  0  0  0  0  0  0  0  0  0  0
  -30.7597  -56.2758  -39.0501 H   0  0  0  0  0  0  0  0  0  0  0  0
  -29.8247  -56.8721  -41.2923 H   0  0  0  0  0  0  0  0  0  0  0  0
  -30.8992  -55.6947  -42.0541 H   0  0  0  0  0  0  0  0  0  0  0  0
  -32.8834  -56.9147  -41.1390 H   0  0  0  0  0  0  0  0  0  0  0  0
  -31.8081  -58.0928  -40.3795 H   0  0  0  0  0  0  0  0  0  0  0  0
  -30.8743  -58.6878  -42.6225 H   0  0  0  0  0  0  0  0  0  0  0  0
  -31.9477  -57.5084  -43.3828 H   0  0  0  0  0  0  0  0  0  0  0  0
  -33.9332  -58.7266  -42.4715 H   0  0  0  0  0  0  0  0  0  0  0  0
  -32.8608  -59.9054  -41.7091 H   0  0  0  0  0  0  0  0  0  0  0  0
  -31.9240  -60.5037  -43.9499 H   0  0  0  0  0  0  0  0  0  0  0  0
  -32.9945  -59.3237  -44.7132 H   0  0  0  0  0  0  0  0  0  0  0  0
  -34.9831  -60.5389  -43.8026 H   0  0  0  0  0  0  0  0  0  0  0  0
  -33.9125  -61.7188  -43.0394 H   0  0  0  0  0  0  0  0  0  0  0  0
  -32.9738  -62.3160  -45.2811 H   0  0  0  0  0  0  0  0  0  0  0  0
  -34.0463  -61.1373  -46.0436 H   0  0  0  0  0  0  0  0  0  0  0  0
  -36.0329  -62.3547  -45.1330 H   0  0  0  0  0  0  0  0  0  0  0  0
  -34.9612  -63.5327  -44.3683 H   0  0  0  0  0  0  0  0  0  0  0  0
  -34.0225  -64.1328  -46.6086 H   0  0  0  0  0  0  0  0  0  0  0  0
  -35.0941  -62.9550  -47.3732 H   0  0  0  0  0  0  0  0  0  0  0  0
  -37.0820  -64.1723  -46.4626 H   0  0  0  0  0  0  0  0  0  0  0  0
  -36.0102  -65.3503  -45.6978 H   0  0  0  0  0  0  0  0  0  0  0  0
  -35.0718  -65.9497  -47.9391 H   0  0  0  0  0  0  0  0  0  0  0  0
  -36.1449  -64.7737  -48.7027 H   0  0  0  0  0  0  0  0  0  0  0  0
  -38.1341  -66.0036  -47.8030 H   0  0  0  0  0  0  0  0  0  0  0  0
  -37.0601  -67.1806  -47.0387 H   0  0  0  0  0  0  0  0  0  0  0  0
  -37.2130  -66.6136  -50.0454 H   0  0  0  0  0  0  0  0  0  0  0  0
  -37.8936  -68.0270  -49.2140 H   0  0  0  0  0  0  0  0  0  0  0  0
  -36.1344  -67.7955  -49.2780 H   0  0  0  0  0  0  0  0  0  0  0  0
  1  2  2  0  0  0  0
  2  3  1  0  0  0  0
  2  5  1  0  0  0  0
  3  4  1  0  0  0  0
  3 79  1  0  0  0  0
  3 80  1  0  0  0  0
  4  5  1  0  0  0  0
  4 81  1  0  0  0  0
  4 82  1  0  0  0  0
  5  6  1  0  0  0  0
  5 83  1  0  0  0  0
  6  7  1  0  0  0  0
  6 84  1  0  0  0  0
  6 85  1  0  0  0  0
  7  8  1  0  0  0  0
  7 86  1  0  0  0  0
  7 87  1  0  0  0  0
  8  9  1  0  0  0  0
  8 88  1  0  0  0  0
  8 89  1  0  0  0  0
  9 10  1  0  0  0  0
  9 90  1  0  0  0  0
  9 91  1  0  0  0  0
 10 11  1  0  0  0  0
 10 92  1  0  0  0  0
 10 93  1  0  0  0  0
 11 12  1  0  0  0  0
 11 94  1  0  0  0  0
 11 95  1  0  0  0  0
 12 13  1  0  0  0  0
 12 96  1  0  0  0  0
 12 97  1  0  0  0  0
 13 14  1  0  0  0  0
 13 98  1  0  0  0  0
 13 99  1  0  0  0  0
 14 15  1  0  0  0  0
 14100  1  0  0  0  0
 14101  1  0  0  0  0
 15 16  1  0  0  0  0
 15102  1  0  0  0  0
 15103  1  0  0  0  0
 16 17  1  0  0  0  0
 16104  1  0  0  0  0
 16105  1  0  0  0  0
 17 18  1  0  0  0  0
 17106  1  0  0  0  0
 17107  1  0  0  0  0
 18 19  1  0  0  0  0
 18108  1  0  0  0  0
 18109  1  0  0  0  0
 19 20  1  0  0  0  0
 19110  1  0  0  0  0
 19111  1  0  0  0  0
 20 21  1  0  0  0  0
 20112  1  0  0  0  0
 20113  1  0  0  0  0
 21 22  1  0  0  0  0
 21114  1  0  0  0  0
 21115  1  0  0  0  0
 22 23  1  0  0  0  0
 22116  1  0  0  0  0
 22117  1  0  0  0  0
 23 24  1  0  0  0  0
 23118  1  0  0  0  0
 23119  1  0  0  0  0
 24 25  1  0  0  0  0
 24120  1  0  0  0  0
 24121  1  0  0  0  0
 25 26  1  0  0  0  0
 25122  1  0  0  0  0
 25123  1  0  0  0  0
 26 27  1  0  0  0  0
 26124  1  0  0  0  0
 26125  1  0  0  0  0
 27 28  1  0  0  0  0
 27126  1  0  0  0  0
 27127  1  0  0  0  0
 28 29  1  0  0  0  0
 28128  1  0  0  0  0
 28129  1  0  0  0  0
 29 30  1  0  0  0  0
 29130  1  0  0  0  0
 29131  1  0  0  0  0
 30 31  1  0  0  0  0
 30132  1  0  0  0  0
 30133  1  0  0  0  0
 31 32  1  0  0  0  0
 31134  1  0  0  0  0
 31135  1  0  0  0  0
 32 33  1  0  0  0  0
 32136  1  0  0  0  0
 32137  1  0  0  0  0
 33 34  1  0  0  0  0
 33138  1  0  0  0  0
 33139  1  0  0  0  0
 34 35  1  0  0  0  0
 34140  1  0  0  0  0
 34141  1  0  0  0  0
 35 36  1  0  0  0  0
 35142  1  0  0  0  0
 35143  1  0  0  0  0
 36 37  1  0  0  0  0
 36144  1  0  0  0  0
 36145  1  0  0  0  0
 37 38  1  0  0  0  0
 37146  1  0  0  0  0
 37147  1  0  0  0  0
 38 39  1  0  0  0  0
 38148  1  0  0  0  0
 38149  1  0  0  0  0
 39 40  1  0  0  0  0
 39150  1  0  0  0  0
 39151  1  0  0  0  0
 40 41  1  0  0  0  0
 40152  1  0  0  0  0
 40153  1  0  0  0  0
 41 42  1  0  0  0  0
 41154  1  0  0  0  0
 41155  1  0  0  0  0
 42 43  1  0  0  0  0
 42156  1  0  0  0  0
 42157  1  0  0  0  0
 43 44  1  0  0  0  0
 43158  1  0  0  0  0
 43159  1  0  0  0  0
 44 45  1  0  0  0  0
 44160  1  0  0  0  0
 44161  1  0  0  0  0
 45 46  1  0  0  0  0
 45162  1  0  0  0  0
 45163  1  0  0  0  0
 46 47  1  0  0  0  0
 46164  1  0  0  0  0
 46165  1  0  0  0  0
 47 48  1  0  0  0  0
 47166  1  0  0  0  0
 47167  1  0  0  0  0
 48 49  1  0  0  0  0
 48168  1  0  0  0  0
 48169  1  0  0  0  0
 49 50  1  0  0  0  0
 49170  1  0  0  0  0
 49171  1  0  0  0  0
 50 51  1  0  0  0  0
 50172  1  0  0  0  0
 50173  1  0  0  0  0
 51 52  1  0  0  0  0
 51174  1  0  0  0  0
 51175  1  0  0  0  0
 52 53  1  0  0  0  0
 52176  1  0  0  0  0
 52177  1  0  0  0  0
 53 54  1  0  0  0  0
 53178  1  0  0  0  0
 53179  1  0  0  0  0
 54 55  1  0  0  0  0
 54180  1  0  0  0  0
 54181  1  0  0  0  0
 55 56  1  0  0  0  0
 55182  1  0  0  0  0
 55183  1  0  0  0  0
 56 57  1  0  0  0  0
 56184  1  0  0  0  0
 56185  1  0  0  0  0
 57 58  1  0  0  0  0
 57186  1  0  0  0  0
 57187  1  0  0  0  0
 58 59  1  0  0  0  0
 58188  1  0  0  0  0
 58189  1  0  0  0  0
 59 60  1  0  0  0  0
 59190  1  0  0  0  0
 59191  1  0  0  0  0
 60 61  1  0  0  0  0
 60192  1  0  0  0  0
 60193  1  0  0  0  0
 61 62  1  0  0  0  0
 61194  1  0  0  0  0
 61195  1  0  0  0  0
 62 63  1  0  0  0  0
 62196  1  0  0  0  0
 62197  1  0  0  0  0
 63 64  1  0  0  0  0
 63198  1  0  0  0  0
 63199  1  0  0  0  0
 64 65  1  0  0  0  0
 64200  1  0  0  0  0
 64201  1  0  0  0  0
 65 66  1  0  0  0  0
 65202  1  0  0  0  0
 65203  1  0  0  0  0
 66 67  1  0  0  0  0
 66204  1  0  0  0  0
 66205  1  0  0  0  0
 67 68  1  0  0  0  0
 67206  1  0  0  0  0
 67207  1  0  0  0  0
 68 69  1  0  0  0  0
 68208  1  0  0  0  0
 68209  1  0  0  0  0
 69 70  1  0  0  0  0
 69210  1  0  0  0  0
 69211  1  0  0  0  0
 70 71  1  0  0  0  0
 70212  1  0  0  0  0
 70213  1  0  0  0  0
 71 72  1  0  0  0  0
 71214  1  0  0  0  0
 71215  1  0  0  0  0
 72 73  1  0  0  0  0
 72216  1  0  0  0  0
 72217  1  0  0  0  0
 73 74  1  0  0  0  0
 73218  1  0  0  0  0
 73219  1  0  0  0  0
 74 75  1  0  0  0  0
 74220  1  0  0  0  0
 74221  1  0  0  0  0
 75 76  1  0  0  0  0
 75222  1  0  0  0  0
 75223  1  0  0  0  0
 76 77  1  0  0  0  0
 76224  1  0  0  0  0
 76225  1  0  0  0  0
 77 78  1  0  0  0  0
 77226  1  0  0  0  0
 77227  1  0  0  0  0
 78228  1  0  0  0  0
 78229  1  0  0  0  0
 78230  1  0  0  0  0
M  END
$$$$
