
 OpenBabel04232216503D

 78 79  0  0  1  0  0  0  0  0999 V2000
    0.1914   -1.1072    0.8833 C   0  0  0  0  0  0  0  0  0  0  0  0
    1.5006   -0.6757    0.2423 C   0  0  3  0  0  0  0  0  0  0  0  0
    2.7642   -1.0413    1.0458 C   0  0  0  0  0  0  0  0  0  0  0  0
    3.0033   -2.5797    0.8673 C   0  0  0  0  0  0  0  0  0  0  0  0
    4.3149   -3.0406    0.1786 C   0  0  0  0  0  0  0  0  0  0  0  0
    4.3392   -2.7206   -1.3490 C   0  0  0  0  0  0  0  0  0  0  0  0
    5.6010   -3.0798   -2.1103 C   0  0  0  0  0  0  0  0  0  0  0  0
    5.9626   -2.0190   -3.2132 C   0  0  0  0  0  0  0  0  0  0  0  0
    6.2636   -0.6109   -2.6131 C   0  0  0  0  0  0  0  0  0  0  0  0
    5.6404    0.5867   -3.3966 C   0  0  0  0  0  0  0  0  0  0  0  0
    5.3934    1.8879   -2.5614 C   0  0  0  0  0  0  0  0  0  0  0  0
    4.1931    2.8545   -3.0612 C   0  0  0  0  0  0  0  0  0  0  0  0
    2.8498    3.0593   -2.2125 C   0  0  0  0  0  0  0  0  0  0  0  0
    1.3020    2.7811   -2.8985 C   0  0  0  0  0  0  0  0  0  0  0  0
    0.8370    3.6011   -3.6919 O   0  0  0  0  0  0  0  0  0  0  0  0
    0.4489    1.4815   -2.4895 C   0  0  0  0  0  0  0  0  0  0  0  0
    1.3595    0.7209   -1.5277 C   0  0  0  0  0  0  0  0  0  0  0  0
    2.5573    0.2446   -2.0348 N   0  0  0  0  0  0  0  0  0  0  0  0
    2.5546   -0.8455   -2.9445 C   0  0  0  0  0  0  0  0  0  0  0  0
    1.9854   -0.4733   -4.2848 C   0  0  0  0  0  0  0  0  0  0  0  0
    0.9957   -1.5862   -4.4073 C   0  0  0  0  0  0  0  0  0  0  0  0
    0.2734   -1.4453   -5.6678 C   0  0  0  0  0  0  0  0  0  0  0  0
   -0.3616   -2.7908   -5.7989 C   0  0  0  0  0  0  0  0  0  0  0  0
   -1.2532   -2.7496   -6.9896 C   0  0  0  0  0  0  0  0  0  0  0  0
   -2.6077   -3.1147   -6.4557 C   0  0  0  0  0  0  0  0  0  0  0  0
   -3.2750   -1.8785   -5.7338 C   0  0  0  0  0  0  0  0  0  0  0  0
   -2.7973   -1.1907   -4.2878 C   0  0  0  0  0  0  0  0  0  0  0  0
   -2.0023    0.3384   -3.8237 C   0  0  0  0  0  0  0  0  0  0  0  0
   -0.6567    0.6369   -2.8074 C   0  0  0  0  0  0  0  0  0  0  0  0
    1.1872    0.6879   -0.2350 N   0  0  0  0  0  0  0  0  0  0  0  0
    0.0357   -2.1734    0.7150 H   0  0  0  0  0  0  0  0  0  0  0  0
   -0.6485   -0.5837    0.4024 H   0  0  0  0  0  0  0  0  0  0  0  0
    0.1641   -0.8755    1.9503 H   0  0  0  0  0  0  0  0  0  0  0  0
    1.5538   -1.3188   -0.6275 H   0  0  0  0  0  0  0  0  0  0  0  0
    2.6274   -0.8262    2.1239 H   0  0  0  0  0  0  0  0  0  0  0  0
    3.6529   -0.4633    0.7541 H   0  0  0  0  0  0  0  0  0  0  0  0
    2.1896   -3.0284    0.2850 H   0  0  0  0  0  0  0  0  0  0  0  0
    2.9546   -3.0783    1.8442 H   0  0  0  0  0  0  0  0  0  0  0  0
    4.3946   -4.1308    0.2856 H   0  0  0  0  0  0  0  0  0  0  0  0
    5.1693   -2.5914    0.6650 H   0  0  0  0  0  0  0  0  0  0  0  0
    4.1905   -1.6591   -1.3428 H   0  0  0  0  0  0  0  0  0  0  0  0
    3.4832   -3.2195   -1.7952 H   0  0  0  0  0  0  0  0  0  0  0  0
    5.4567   -4.0513   -2.6034 H   0  0  0  0  0  0  0  0  0  0  0  0
    6.4505   -3.2027   -1.4473 H   0  0  0  0  0  0  0  0  0  0  0  0
    5.1590   -1.9873   -3.9623 H   0  0  0  0  0  0  0  0  0  0  0  0
    6.8388   -2.3842   -3.7505 H   0  0  0  0  0  0  0  0  0  0  0  0
    7.3571   -0.5008   -2.5926 H   0  0  0  0  0  0  0  0  0  0  0  0
    5.9543   -0.5696   -1.5641 H   0  0  0  0  0  0  0  0  0  0  0  0
    4.7122    0.2937   -3.8723 H   0  0  0  0  0  0  0  0  0  0  0  0
    6.3193    0.8112   -4.2304 H   0  0  0  0  0  0  0  0  0  0  0  0
    6.3322    2.4537   -2.6723 H   0  0  0  0  0  0  0  0  0  0  0  0
    5.3144    1.6747   -1.4899 H   0  0  0  0  0  0  0  0  0  0  0  0
    3.9697    2.6339   -4.0953 H   0  0  0  0  0  0  0  0  0  0  0  0
    4.6852    3.8470   -3.0486 H   0  0  0  0  0  0  0  0  0  0  0  0
    2.8264    4.1241   -1.9278 H   0  0  0  0  0  0  0  0  0  0  0  0
    2.9551    2.5800   -1.2339 H   0  0  0  0  0  0  0  0  0  0  0  0
    3.0922    0.9400   -2.5349 H   0  0  0  0  0  0  0  0  0  0  0  0
    2.0933   -1.7160   -2.4543 H   0  0  0  0  0  0  0  0  0  0  0  0
    3.5564   -1.1503   -3.1453 H   0  0  0  0  0  0  0  0  0  0  0  0
    2.7285   -0.5436   -5.0568 H   0  0  0  0  0  0  0  0  0  0  0  0
    1.5296    0.5000   -4.3668 H   0  0  0  0  0  0  0  0  0  0  0  0
    0.2901   -1.6141   -3.5571 H   0  0  0  0  0  0  0  0  0  0  0  0
    1.5247   -2.5332   -4.3615 H   0  0  0  0  0  0  0  0  0  0  0  0
    0.9273   -1.2428   -6.5082 H   0  0  0  0  0  0  0  0  0  0  0  0
   -0.4590   -0.6312   -5.6291 H   0  0  0  0  0  0  0  0  0  0  0  0
   -0.9179   -3.0168   -4.8629 H   0  0  0  0  0  0  0  0  0  0  0  0
    0.3753   -3.5848   -5.8737 H   0  0  0  0  0  0  0  0  0  0  0  0
   -0.8505   -3.4342   -7.7442 H   0  0  0  0  0  0  0  0  0  0  0  0
   -1.3053   -1.7593   -7.4587 H   0  0  0  0  0  0  0  0  0  0  0  0
   -2.5495   -3.9990   -5.8007 H   0  0  0  0  0  0  0  0  0  0  0  0
   -3.2014   -3.4551   -7.3177 H   0  0  0  0  0  0  0  0  0  0  0  0
   -3.4684   -1.1138   -6.4924 H   0  0  0  0  0  0  0  0  0  0  0  0
   -4.2686   -2.3207   -5.5229 H   0  0  0  0  0  0  0  0  0  0  0  0
   -3.8267   -0.9088   -3.9866 H   0  0  0  0  0  0  0  0  0  0  0  0
   -2.5375   -1.9858   -3.5818 H   0  0  0  0  0  0  0  0  0  0  0  0
   -2.7848    0.6767   -3.1182 H   0  0  0  0  0  0  0  0  0  0  0  0
   -2.0498    1.0376   -4.6616 H   0  0  0  0  0  0  0  0  0  0  0  0
   -0.7329   -0.1957   -2.0932 H   0  0  0  0  0  0  0  0  0  0  0  0
  1  2  1  0  0  0  0
  1 31  1  0  0  0  0
  1 32  1  0  0  0  0
  1 33  1  0  0  0  0
  2  3  1  0  0  0  0
  2 30  1  0  0  0  0
  2 34  1  0  0  0  0
  3  4  1  0  0  0  0
  3 35  1  0  0  0  0
  3 36  1  0  0  0  0
  4  5  1  0  0  0  0
  4 37  1  0  0  0  0
  4 38  1  0  0  0  0
  5  6  1  0  0  0  0
  5 39  1  0  0  0  0
  5 40  1  0  0  0  0
  6  7  1  0  0  0  0
  6 41  1  0  0  0  0
  6 42  1  0  0  0  0
  7  8  1  0  0  0  0
  7 43  1  0  0  0  0
  7 44  1  0  0  0  0
  8  9  1  0  0  0  0
  8 45  1  0  0  0  0
  8 46  1  0  0  0  0
  9 10  1  0  0  0  0
  9 47  1  0  0  0  0
  9 48  1  0  0  0  0
 10 11  1  0  0  0  0
 10 49  1  0  0  0  0
 10 50  1  0  0  0  0
 11 12  1  0  0  0  0
 11 51  1  0  0  0  0
 11 52  1  0  0  0  0
 12 13  1  0  0  0  0
 12 53  1  0  0  0  0
 12 54  1  0  0  0  0
 13 14  1  0  0  0  0
 13 55  1  0  0  0  0
 13 56  1  0  0  0  0
 14 15  2  0  0  0  0
 14 16  1  0  0  0  0
 16 17  1  0  0  0  0
 16 29  2  3  0  0  0
 17 18  1  0  0  0  0
 17 30  2  3  0  0  0
 18 19  1  0  0  0  0
 18 57  1  0  0  0  0
 19 20  1  0  0  0  0
 19 58  1  0  0  0  0
 19 59  1  0  0  0  0
 20 21  1  0  0  0  0
 20 60  1  0  0  0  0
 20 61  1  0  0  0  0
 21 22  1  0  0  0  0
 21 62  1  0  0  0  0
 21 63  1  0  0  0  0
 22 23  1  0  0  0  0
 22 64  1  0  0  0  0
 22 65  1  0  0  0  0
 23 24  1  0  0  0  0
 23 66  1  0  0  0  0
 23 67  1  0  0  0  0
 24 25  1  0  0  0  0
 24 68  1  0  0  0  0
 24 69  1  0  0  0  0
 25 26  1  0  0  0  0
 25 70  1  0  0  0  0
 25 71  1  0  0  0  0
 26 27  1  0  0  0  0
 26 72  1  0  0  0  0
 26 73  1  0  0  0  0
 27 28  1  0  0  0  0
 27 74  1  0  0  0  0
 27 75  1  0  0  0  0
 28 29  1  0  0  0  0
 28 76  1  0  0  0  0
 28 77  1  0  0  0  0
 29 78  1  0  0  0  0
M  END
$$$$
