
 OpenBabel04232216523D

 68 69  0  0  1  0  0  0  0  0999 V2000
    3.4971   -3.0976   -0.4945 C   0  0  0  0  0  0  0  0  0  0  0  0
    4.5224   -2.0514    0.0461 C   0  0  0  0  0  0  0  0  0  0  0  0
    5.4533   -1.9948    1.4948 C   0  0  0  0  0  0  0  0  0  0  0  0
    6.7785   -3.0146    2.3779 C   0  0  0  0  0  0  0  0  0  0  0  0
    8.4190   -2.5753    3.3660 C   0  0  3  0  0  0  0  0  0  0  0  0
    8.0997   -1.0589    3.0416 C   0  0  0  0  0  0  0  0  0  0  0  0
    7.8102   -0.3546    4.2905 C   0  0  0  0  0  0  0  0  0  0  0  0
    9.1598    0.0925    4.6836 C   0  0  0  0  0  0  0  0  0  0  0  0
    9.3377   -0.3661    6.0690 C   0  0  0  0  0  0  0  0  0  0  0  0
   10.7936   -0.2318    6.3500 C   0  0  0  0  0  0  0  0  0  0  0  0
   10.8381   -0.8331    7.7002 C   0  0  0  0  0  0  0  0  0  0  0  0
   12.1007   -0.7708    8.3011 N   0  0  0  0  0  0  0  0  0  0  0  0
   12.1033   -1.8411    9.1183 C   0  0  0  0  0  0  0  0  0  0  0  0
   11.3259   -2.0421   10.0392 O   0  0  0  0  0  0  0  0  0  0  0  0
   13.0241   -2.7332    8.7276 N   0  0  0  0  0  0  0  0  0  0  0  0
   12.8700   -3.7444    7.7762 C   0  0  0  0  0  0  0  0  0  0  0  0
   12.7963   -3.0217    6.4847 C   0  0  0  0  0  0  0  0  0  0  0  0
   14.0057   -1.7576    6.7194 N   0  0  0  0  0  0  0  0  0  0  0  0
   15.4159   -1.4914    7.8437 C   0  0  0  0  0  0  0  0  0  0  0  0
   15.5597   -0.8607    9.4452 C   0  0  0  0  0  0  0  0  0  0  0  0
   15.7809   -1.7116   10.7837 C   0  0  0  0  0  0  0  0  0  0  0  0
   14.4702   -2.2682   11.2878 C   0  0  0  0  0  0  0  0  0  0  0  0
   14.3926   -3.7743   11.4886 C   0  0  0  0  0  0  0  0  0  0  0  0
   13.6688   -4.6303   10.3739 C   0  0  0  0  0  0  0  0  0  0  0  0
   14.0181   -4.6139    8.7480 C   0  0  0  0  0  0  0  0  0  0  0  0
   11.2676   -3.2030    5.4552 C   0  0  0  0  0  0  0  0  0  0  0  0
    9.9394   -3.1411    4.5264 C   0  0  0  0  0  0  0  0  0  0  0  0
    3.1741   -2.8041   -1.5204 H   0  0  0  0  0  0  0  0  0  0  0  0
    2.5398   -3.1297    0.0474 H   0  0  0  0  0  0  0  0  0  0  0  0
    3.9022   -4.1018   -0.6037 H   0  0  0  0  0  0  0  0  0  0  0  0
    3.8462   -1.1634    0.1234 H   0  0  0  0  0  0  0  0  0  0  0  0
    5.1570   -1.7696   -0.8049 H   0  0  0  0  0  0  0  0  0  0  0  0
    4.6318   -1.9294    2.2345 H   0  0  0  0  0  0  0  0  0  0  0  0
    5.7953   -0.9480    1.4090 H   0  0  0  0  0  0  0  0  0  0  0  0
    6.8419   -3.9745    1.8386 H   0  0  0  0  0  0  0  0  0  0  0  0
    6.1165   -3.1768    3.2560 H   0  0  0  0  0  0  0  0  0  0  0  0
    7.8195   -2.8413    4.2543 H   0  0  0  0  0  0  0  0  0  0  0  0
    7.1829   -0.9327    2.5525 H   0  0  0  0  0  0  0  0  0  0  0  0
    8.7923   -0.6562    2.3034 H   0  0  0  0  0  0  0  0  0  0  0  0
    7.3058   -1.0394    5.0077 H   0  0  0  0  0  0  0  0  0  0  0  0
    7.1083    0.4773    4.1969 H   0  0  0  0  0  0  0  0  0  0  0  0
    9.2735    1.1658    4.5647 H   0  0  0  0  0  0  0  0  0  0  0  0
    9.9379   -0.3708    4.0544 H   0  0  0  0  0  0  0  0  0  0  0  0
    9.0153   -1.4151    6.1991 H   0  0  0  0  0  0  0  0  0  0  0  0
    8.7277    0.2139    6.7649 H   0  0  0  0  0  0  0  0  0  0  0  0
   11.1420    0.7980    6.3059 H   0  0  0  0  0  0  0  0  0  0  0  0
   11.4060   -0.7783    5.6177 H   0  0  0  0  0  0  0  0  0  0  0  0
   10.5345   -1.8940    7.6041 H   0  0  0  0  0  0  0  0  0  0  0  0
   10.1350   -0.3802    8.3993 H   0  0  0  0  0  0  0  0  0  0  0  0
   12.8195   -0.7697    7.5735 H   0  0  0  0  0  0  0  0  0  0  0  0
   13.6925   -2.1388    8.2764 H   0  0  0  0  0  0  0  0  0  0  0  0
   14.5069   -1.8186    5.8217 H   0  0  0  0  0  0  0  0  0  0  0  0
   15.8464   -0.6222    7.3238 H   0  0  0  0  0  0  0  0  0  0  0  0
   16.1291   -2.3141    7.7404 H   0  0  0  0  0  0  0  0  0  0  0  0
   14.8393   -0.0607    9.6688 H   0  0  0  0  0  0  0  0  0  0  0  0
   16.5319   -0.3154    9.4429 H   0  0  0  0  0  0  0  0  0  0  0  0
   16.1423   -1.0515   11.6089 H   0  0  0  0  0  0  0  0  0  0  0  0
   16.5776   -2.4606   10.7076 H   0  0  0  0  0  0  0  0  0  0  0  0
   13.7617   -1.9731   10.5610 H   0  0  0  0  0  0  0  0  0  0  0  0
   14.1100   -1.7206   12.1734 H   0  0  0  0  0  0  0  0  0  0  0  0
   13.7765   -3.8962   12.4009 H   0  0  0  0  0  0  0  0  0  0  0  0
   15.3635   -4.1906   11.7870 H   0  0  0  0  0  0  0  0  0  0  0  0
   12.6041   -4.3855   10.4755 H   0  0  0  0  0  0  0  0  0  0  0  0
   13.7432   -5.6666   10.7284 H   0  0  0  0  0  0  0  0  0  0  0  0
   14.0313   -5.6639    8.4386 H   0  0  0  0  0  0  0  0  0  0  0  0
   15.0450   -4.2269    8.6305 H   0  0  0  0  0  0  0  0  0  0  0  0
   11.1827   -4.3498    5.8257 H   0  0  0  0  0  0  0  0  0  0  0  0
    9.5004   -4.1448    4.6333 H   0  0  0  0  0  0  0  0  0  0  0  0
  1  2  1  0  0  0  0
  1 28  1  0  0  0  0
  1 29  1  0  0  0  0
  1 30  1  0  0  0  0
  2  3  1  0  0  0  0
  2 31  1  0  0  0  0
  2 32  1  0  0  0  0
  3  4  1  0  0  0  0
  3 33  1  0  0  0  0
  3 34  1  0  0  0  0
  4  5  1  0  0  0  0
  4 35  1  0  0  0  0
  4 36  1  0  0  0  0
  5  6  1  0  0  0  0
  5 27  1  0  0  0  0
  5 37  1  0  0  0  0
  6  7  1  0  0  0  0
  6 38  1  0  0  0  0
  6 39  1  0  0  0  0
  7  8  1  0  0  0  0
  7 40  1  0  0  0  0
  7 41  1  0  0  0  0
  8  9  1  0  0  0  0
  8 42  1  0  0  0  0
  8 43  1  0  0  0  0
  9 10  1  0  0  0  0
  9 44  1  0  0  0  0
  9 45  1  0  0  0  0
 10 11  1  0  0  0  0
 10 46  1  0  0  0  0
 10 47  1  0  0  0  0
 11 12  1  0  0  0  0
 11 48  1  0  0  0  0
 11 49  1  0  0  0  0
 12 13  1  0  0  0  0
 12 50  1  0  0  0  0
 13 14  2  0  0  0  0
 13 15  1  0  0  0  0
 15 16  1  0  0  0  0
 15 51  1  0  0  0  0
 16 17  2  3  0  0  0
 16 25  1  0  0  0  0
 17 18  1  0  0  0  0
 17 26  1  0  0  0  0
 18 19  1  0  0  0  0
 18 52  1  0  0  0  0
 19 20  1  0  0  0  0
 19 53  1  0  0  0  0
 19 54  1  0  0  0  0
 20 21  1  0  0  0  0
 20 55  1  0  0  0  0
 20 56  1  0  0  0  0
 21 22  1  0  0  0  0
 21 57  1  0  0  0  0
 21 58  1  0  0  0  0
 22 23  1  0  0  0  0
 22 59  1  0  0  0  0
 22 60  1  0  0  0  0
 23 24  1  0  0  0  0
 23 61  1  0  0  0  0
 23 62  1  0  0  0  0
 24 25  1  0  0  0  0
 24 63  1  0  0  0  0
 24 64  1  0  0  0  0
 25 65  1  0  0  0  0
 25 66  1  0  0  0  0
 26 27  2  3  0  0  0
 26 67  1  0  0  0  0
 27 68  1  0  0  0  0
M  END
$$$$
