
 OpenBabel04232216533D

134133  0  0  0  0  0  0  0  0999 V2000
   45.7250    8.6649    7.9055 C   0  0  0  0  0  0  0  0  0  0  0  0
   45.5037    9.5999    6.7347 C   0  0  0  0  0  0  0  0  0  0  0  0
   44.0222    9.9211    6.5776 C   0  0  0  0  0  0  0  0  0  0  0  0
   43.7577   10.8550    5.4171 C   0  0  0  0  0  0  0  0  0  0  0  0
   42.2682   11.1344    5.2727 C   0  0  0  0  0  0  0  0  0  0  0  0
   42.0682   12.0191    4.1277 N   0  0  0  0  0  0  0  0  0  0  0  0
   40.6286   12.3397    4.0288 C   0  0  0  0  0  0  0  0  0  0  0  0
   40.4388   13.3000    2.8488 C   0  0  0  0  0  0  0  0  0  0  0  0
   39.0073   13.6256    2.7004 C   0  0  0  0  0  0  0  0  0  0  0  0
   38.7680   14.5761    1.5354 C   0  0  0  0  0  0  0  0  0  0  0  0
   37.2903   14.8503    1.4087 C   0  0  0  0  0  0  0  0  0  0  0  0
   36.9875   15.7894    0.2525 C   0  0  0  0  0  0  0  0  0  0  0  0
   35.4770   15.9212    0.1785 C   0  0  0  0  0  0  0  0  0  0  0  0
   35.0133   16.7083   -1.0206 C   0  0  0  0  0  0  0  0  0  0  0  0
   33.4646   16.7122   -1.0303 C   0  0  0  0  0  0  0  0  0  0  0  0
   32.9597   17.5740   -2.2002 C   0  0  0  0  0  0  0  0  0  0  0  0
   31.1570   17.9074   -2.6576 S   0  0  0  0  0  0  0  0  0  0  0  0
   31.0874   19.3571   -3.9792 C   0  0  0  0  0  0  0  0  0  0  0  0
   29.4037   19.9252   -4.2662 S   0  0  0  0  0  0  0  0  0  0  0  0
   29.1614   20.8196   -2.7165 C   0  0  0  0  0  0  0  0  0  0  0  0
   27.4109   21.3135   -2.5642 S   0  0  0  0  0  0  0  0  0  0  0  0
   26.6324   19.6848   -2.7450 C   0  0  0  0  0  0  0  0  0  0  0  0
   27.0673   18.4801   -1.4604 S   0  0  0  0  0  0  0  0  0  0  0  0
   26.5537   19.3885    0.0201 C   0  0  0  0  0  0  0  0  0  0  0  0
   27.0298   18.4950    1.5378 S   0  0  0  0  0  0  0  0  0  0  0  0
   28.8582   18.6350    1.4469 C   0  0  0  0  0  0  0  0  0  0  0  0
   29.4109   20.3580    1.6834 S   0  0  0  0  0  0  0  0  0  0  0  0
   31.2375   20.1993    1.5935 C   0  0  0  0  0  0  0  0  0  0  0  0
   31.8278   20.1530   -0.1543 S   0  0  0  0  0  0  0  0  0  0  0  0
   33.6369   20.1278    0.0586 C   0  0  0  0  0  0  0  0  0  0  0  0
   34.8446   20.3918   -1.4516 S   0  0  0  0  0  0  0  0  0  0  0  0
   33.8809   20.3275   -3.0596 C   0  0  0  0  0  0  0  0  0  0  0  0
   34.4944   19.0701   -4.6338 S   0  0  0  0  0  0  0  0  0  0  0  0
   33.3644   17.4515   -5.1245 C   0  0  0  0  0  0  0  0  0  0  0  0
   33.6167   16.5387   -6.6923 S   0  0  0  0  0  0  0  0  0  0  0  0
   32.7541   14.8656   -6.2536 C   0  0  0  0  0  0  0  0  0  0  0  0
   30.9900   15.0608   -5.7785 S   0  0  0  0  0  0  0  0  0  0  0  0
   30.2648   13.1283   -5.6166 S   0  0  0  0  0  0  0  0  0  0  0  0
   31.1092   12.2958   -3.9304 S   0  0  0  0  0  0  0  0  0  0  0  0
   30.1029   13.0010   -2.2704 S   0  0  0  0  0  0  0  0  0  0  0  0
   31.0153   12.0782   -0.6483 S   0  0  0  0  0  0  0  0  0  0  0  0
   30.6764   13.2519    1.0304 S   0  0  0  0  0  0  0  0  0  0  0  0
   31.3453   12.1547    2.6750 S   0  0  0  0  0  0  0  0  0  0  0  0
   30.8979   13.2554    4.3908 S   0  0  0  0  0  0  0  0  0  0  0  0
   31.7052   12.2429    6.0349 S   0  0  0  0  0  0  0  0  0  0  0  0
   31.2233   13.3343    7.7586 S   0  0  0  0  0  0  0  0  0  0  0  0
   32.0131   12.3237    9.4197 S   0  0  0  0  0  0  0  0  0  0  0  0
   31.5433   13.4270   11.1458 S   0  0  0  0  0  0  0  0  0  0  0  0
   32.3303   12.4175   12.8149 S   0  0  0  0  0  0  0  0  0  0  0  0
   31.8604   13.5199   14.5458 S   0  0  0  0  0  0  0  0  0  0  0  0
   32.6487   12.5109   16.2184 S   0  0  0  0  0  0  0  0  0  0  0  0
   32.1793   13.6127   17.9524 S   0  0  0  0  0  0  0  0  0  0  0  0
   32.9677   12.6038   19.6270 S   0  0  0  0  0  0  0  0  0  0  0  0
   32.4986   13.7055   21.3625 S   0  0  0  0  0  0  0  0  0  0  0  0
   33.2870   12.6967   23.0381 S   0  0  0  0  0  0  0  0  0  0  0  0
   32.8180   13.7984   24.7743 S   0  0  0  0  0  0  0  0  0  0  0  0
   33.6065   12.7897   26.4504 S   0  0  0  0  0  0  0  0  0  0  0  0
   33.1375   13.8914   28.1869 S   0  0  0  0  0  0  0  0  0  0  0  0
   33.9260   12.8826   29.8631 S   0  0  0  0  0  0  0  0  0  0  0  0
   33.4570   13.9843   31.5996 S   0  0  0  0  0  0  0  0  0  0  0  0
   34.2454   12.9756   33.2757 S   0  0  0  0  0  0  0  0  0  0  0  0
   33.7764   14.0773   35.0120 S   0  0  0  0  0  0  0  0  0  0  0  0
   34.5649   13.0685   36.6878 S   0  0  0  0  0  0  0  0  0  0  0  0
   34.0958   14.1702   38.4236 S   0  0  0  0  0  0  0  0  0  0  0  0
   34.8842   13.1614   40.0986 S   0  0  0  0  0  0  0  0  0  0  0  0
   34.4149   14.2631   41.8331 S   0  0  0  0  0  0  0  0  0  0  0  0
   35.2032   13.2541   43.5063 S   0  0  0  0  0  0  0  0  0  0  0  0
   34.7337   14.3561   45.2384 S   0  0  0  0  0  0  0  0  0  0  0  0
   35.5219   13.3468   46.9082 S   0  0  0  0  0  0  0  0  0  0  0  0
   35.0511   14.4485   48.6360 S   0  0  0  0  0  0  0  0  0  0  0  0
   35.8403   13.4387   50.2998 S   0  0  0  0  0  0  0  0  0  0  0  0
   35.3705   14.5417   52.0205 S   0  0  0  0  0  0  0  0  0  0  0  0
   36.1495   13.5238   53.6761 S   0  0  0  0  0  0  0  0  0  0  0  0
   35.6908   14.6359   55.3846 S   0  0  0  0  0  0  0  0  0  0  0  0
   36.4938   13.6318   57.0263 S   0  0  0  0  0  0  0  0  0  0  0  0
   35.9287   14.6847   58.7285 S   0  0  0  0  0  0  0  0  0  0  0  0
   36.8087   13.7374   60.3513 S   0  0  0  0  0  0  0  0  0  0  0  0
   36.4084   14.9170   62.0029 S   0  0  0  0  0  0  0  0  0  0  0  0
   36.8426   13.7679   63.6598 S   0  0  0  0  0  0  0  0  0  0  0  0
   36.5821   15.0057   65.2860 S   0  0  0  0  0  0  0  0  0  0  0  0
   34.5780   14.9040   65.7230 S   0  0  0  0  0  0  0  0  0  0  0  0
   46.7863    8.4387    8.0145 H   0  0  0  0  0  0  0  0  0  0  0  0
   45.1854    7.7257    7.7581 H   0  0  0  0  0  0  0  0  0  0  0  0
   45.3757    9.1146    8.8416 H   0  0  0  0  0  0  0  0  0  0  0  0
   45.8839    9.1282    5.8198 H   0  0  0  0  0  0  0  0  0  0  0  0
   46.0685   10.5238    6.8867 H   0  0  0  0  0  0  0  0  0  0  0  0
   43.6477   10.3809    7.5012 H   0  0  0  0  0  0  0  0  0  0  0  0
   43.4554    8.9934    6.4282 H   0  0  0  0  0  0  0  0  0  0  0  0
   44.1366   10.4174    4.4773 H   0  0  0  0  0  0  0  0  0  0  0  0
   44.3042   11.8065    5.5543 H   0  0  0  0  0  0  0  0  0  0  0  0
   41.9072   11.6131    6.2177 H   0  0  0  0  0  0  0  0  0  0  0  0
   41.7301   10.1979    5.1570 H   0  0  0  0  0  0  0  0  0  0  0  0
   42.3558   11.5647    3.2772 H   0  0  0  0  0  0  0  0  0  0  0  0
   40.2788   12.8483    4.9576 H   0  0  0  0  0  0  0  0  0  0  0  0
   40.0214   11.4475    3.8895 H   0  0  0  0  0  0  0  0  0  0  0  0
   40.8200   12.8268    1.9357 H   0  0  0  0  0  0  0  0  0  0  0  0
   41.0137   14.2087    3.0099 H   0  0  0  0  0  0  0  0  0  0  0  0
   38.5876   14.0669    3.6204 H   0  0  0  0  0  0  0  0  0  0  0  0
   38.4051   12.6856    2.5210 H   0  0  0  0  0  0  0  0  0  0  0  0
   39.1564   14.1395    0.6059 H   0  0  0  0  0  0  0  0  0  0  0  0
   39.3162   15.5100    1.7109 H   0  0  0  0  0  0  0  0  0  0  0  0
   36.9079   15.2801    2.3436 H   0  0  0  0  0  0  0  0  0  0  0  0
   36.7597   13.9022    1.2514 H   0  0  0  0  0  0  0  0  0  0  0  0
   37.3990   15.3890   -0.6759 H   0  0  0  0  0  0  0  0  0  0  0  0
   37.4596   16.7671    0.4288 H   0  0  0  0  0  0  0  0  0  0  0  0
   35.1102   16.3977    1.0971 H   0  0  0  0  0  0  0  0  0  0  0  0
   35.0283   14.9183    0.1280 H   0  0  0  0  0  0  0  0  0  0  0  0
   35.4102   16.2726   -1.9353 H   0  0  0  0  0  0  0  0  0  0  0  0
   35.4487   17.7205   -0.9523 H   0  0  0  0  0  0  0  0  0  0  0  0
   33.0888   17.1393   -0.0876 H   0  0  0  0  0  0  0  0  0  0  0  0
   33.0922   15.7032   -1.1328 H   0  0  0  0  0  0  0  0  0  0  0  0
   33.4634   17.0246   -2.9631 H   0  0  0  0  0  0  0  0  0  0  0  0
   33.4584   18.4659   -2.0829 H   0  0  0  0  0  0  0  0  0  0  0  0
   31.4062   19.0923   -4.9809 H   0  0  0  0  0  0  0  0  0  0  0  0
   31.5712   20.3040   -3.7734 H   0  0  0  0  0  0  0  0  0  0  0  0
   29.7837   21.7245   -2.6851 H   0  0  0  0  0  0  0  0  0  0  0  0
   29.4295   20.2069   -1.8567 H   0  0  0  0  0  0  0  0  0  0  0  0
   26.8702   19.2530   -3.7184 H   0  0  0  0  0  0  0  0  0  0  0  0
   25.5476   19.8283   -2.7469 H   0  0  0  0  0  0  0  0  0  0  0  0
   25.4641   19.4861   -0.0040 H   0  0  0  0  0  0  0  0  0  0  0  0
   26.9745   20.3926    0.0612 H   0  0  0  0  0  0  0  0  0  0  0  0
   29.2268   18.2068    0.5140 H   0  0  0  0  0  0  0  0  0  0  0  0
   29.2348   18.0236    2.2739 H   0  0  0  0  0  0  0  0  0  0  0  0
   31.5727   19.3632    2.2185 H   0  0  0  0  0  0  0  0  0  0  0  0
   31.6180   21.1283    2.0255 H   0  0  0  0  0  0  0  0  0  0  0  0
   33.9361   19.1913    0.5467 H   0  0  0  0  0  0  0  0  0  0  0  0
   33.8702   20.9244    0.7725 H   0  0  0  0  0  0  0  0  0  0  0  0
   33.9610   21.3318   -3.4877 H   0  0  0  0  0  0  0  0  0  0  0  0
   32.8648   20.2177   -2.7168 H   0  0  0  0  0  0  0  0  0  0  0  0
   32.3031   17.6267   -5.1451 H   0  0  0  0  0  0  0  0  0  0  0  0
   33.6139   16.6087   -4.5010 H   0  0  0  0  0  0  0  0  0  0  0  0
   33.2792   14.4009   -5.4108 H   0  0  0  0  0  0  0  0  0  0  0  0
   32.8326   14.1975   -7.1189 H   0  0  0  0  0  0  0  0  0  0  0  0
   34.5346   15.6848   66.8146 H   0  0  0  0  0  0  0  0  0  0  0  0
  1  2  1  0  0  0  0
  1 82  1  0  0  0  0
  1 83  1  0  0  0  0
  1 84  1  0  0  0  0
  2  3  1  0  0  0  0
  2 85  1  0  0  0  0
  2 86  1  0  0  0  0
  3  4  1  0  0  0  0
  3 87  1  0  0  0  0
  3 88  1  0  0  0  0
  4  5  1  0  0  0  0
  4 89  1  0  0  0  0
  4 90  1  0  0  0  0
  5  6  1  0  0  0  0
  5 91  1  0  0  0  0
  5 92  1  0  0  0  0
  6  7  1  0  0  0  0
  6 93  1  0  0  0  0
  7  8  1  0  0  0  0
  7 94  1  0  0  0  0
  7 95  1  0  0  0  0
  8  9  1  0  0  0  0
  8 96  1  0  0  0  0
  8 97  1  0  0  0  0
  9 10  1  0  0  0  0
  9 98  1  0  0  0  0
  9 99  1  0  0  0  0
 10 11  1  0  0  0  0
 10100  1  0  0  0  0
 10101  1  0  0  0  0
 11 12  1  0  0  0  0
 11102  1  0  0  0  0
 11103  1  0  0  0  0
 12 13  1  0  0  0  0
 12104  1  0  0  0  0
 12105  1  0  0  0  0
 13 14  1  0  0  0  0
 13106  1  0  0  0  0
 13107  1  0  0  0  0
 14 15  1  0  0  0  0
 14108  1  0  0  0  0
 14109  1  0  0  0  0
 15 16  1  0  0  0  0
 15110  1  0  0  0  0
 15111  1  0  0  0  0
 16 17  1  0  0  0  0
 16112  1  0  0  0  0
 16113  1  0  0  0  0
 17 18  1  0  0  0  0
 18 19  1  0  0  0  0
 18114  1  0  0  0  0
 18115  1  0  0  0  0
 19 20  1  0  0  0  0
 20 21  1  0  0  0  0
 20116  1  0  0  0  0
 20117  1  0  0  0  0
 21 22  1  0  0  0  0
 22 23  1  0  0  0  0
 22118  1  0  0  0  0
 22119  1  0  0  0  0
 23 24  1  0  0  0  0
 24 25  1  0  0  0  0
 24120  1  0  0  0  0
 24121  1  0  0  0  0
 25 26  1  0  0  0  0
 26 27  1  0  0  0  0
 26122  1  0  0  0  0
 26123  1  0  0  0  0
 27 28  1  0  0  0  0
 28 29  1  0  0  0  0
 28124  1  0  0  0  0
 28125  1  0  0  0  0
 29 30  1  0  0  0  0
 30 31  1  0  0  0  0
 30126  1  0  0  0  0
 30127  1  0  0  0  0
 31 32  1  0  0  0  0
 32 33  1  0  0  0  0
 32128  1  0  0  0  0
 32129  1  0  0  0  0
 33 34  1  0  0  0  0
 34 35  1  0  0  0  0
 34130  1  0  0  0  0
 34131  1  0  0  0  0
 35 36  1  0  0  0  0
 36 37  1  0  0  0  0
 36132  1  0  0  0  0
 36133  1  0  0  0  0
 37 38  1  0  0  0  0
 38 39  1  0  0  0  0
 39 40  1  0  0  0  0
 40 41  1  0  0  0  0
 41 42  1  0  0  0  0
 42 43  1  0  0  0  0
 43 44  1  0  0  0  0
 44 45  1  0  0  0  0
 45 46  1  0  0  0  0
 46 47  1  0  0  0  0
 47 48  1  0  0  0  0
 48 49  1  0  0  0  0
 49 50  1  0  0  0  0
 50 51  1  0  0  0  0
 51 52  1  0  0  0  0
 52 53  1  0  0  0  0
 53 54  1  0  0  0  0
 54 55  1  0  0  0  0
 55 56  1  0  0  0  0
 56 57  1  0  0  0  0
 57 58  1  0  0  0  0
 58 59  1  0  0  0  0
 59 60  1  0  0  0  0
 60 61  1  0  0  0  0
 61 62  1  0  0  0  0
 62 63  1  0  0  0  0
 63 64  1  0  0  0  0
 64 65  1  0  0  0  0
 65 66  1  0  0  0  0
 66 67  1  0  0  0  0
 67 68  1  0  0  0  0
 68 69  1  0  0  0  0
 69 70  1  0  0  0  0
 70 71  1  0  0  0  0
 71 72  1  0  0  0  0
 72 73  1  0  0  0  0
 73 74  1  0  0  0  0
 74 75  1  0  0  0  0
 75 76  1  0  0  0  0
 76 77  1  0  0  0  0
 77 78  1  0  0  0  0
 78 79  1  0  0  0  0
 79 80  1  0  0  0  0
 80 81  1  0  0  0  0
 81134  1  0  0  0  0
M  END
$$$$
