
 OpenBabel04232216393D

 51 52  0  0  0  0  0  0  0  0999 V2000
    2.2392   -1.1840    0.1544 C   0  0  0  0  0  0  0  0  0  0  0  0
    3.5171   -1.5558    0.2607 C   0  0  0  0  0  0  0  0  0  0  0  0
    3.8012   -2.9679    0.4017 C   0  0  0  0  0  0  0  0  0  0  0  0
    5.0007   -3.4954    0.1290 C   0  0  0  0  0  0  0  0  0  0  0  0
    5.3230   -4.9523    0.2037 C   0  0  0  0  0  0  0  0  0  0  0  0
    6.4573   -5.2718    1.1779 C   0  0  0  0  0  0  0  0  0  0  0  0
    6.1865   -4.9396    2.6521 C   0  0  0  0  0  0  0  0  0  0  0  0
    7.4637   -5.2292    3.4452 C   0  0  0  0  0  0  0  0  0  0  0  0
    7.3418   -4.9836    4.9439 C   0  0  0  0  0  0  0  0  0  0  0  0
    8.6663   -5.3022    5.6276 C   0  0  0  0  0  0  0  0  0  0  0  0
    5.9954   -2.5339   -0.3826 C   0  0  0  0  0  0  0  0  0  0  0  0
    6.9827   -2.9643   -1.1296 N   0  0  0  0  0  0  0  0  0  0  0  0
    7.8265   -1.9477   -1.5060 N   0  0  0  0  0  0  0  0  0  0  0  0
    8.4788   -1.5889   -0.4570 C   0  0  0  0  0  0  0  0  0  0  0  0
    8.0575   -0.2497    0.0159 C   0  0  0  0  0  0  0  0  0  0  0  0
    9.1483    0.7940    0.2437 C   0  0  0  0  0  0  0  0  0  0  0  0
   10.6382    0.4334    0.0391 C   0  0  0  0  0  0  0  0  0  0  0  0
   11.1927    0.1302   -1.3658 C   0  0  0  0  0  0  0  0  0  0  0  0
   10.9592    1.1588   -2.4734 C   0  0  0  0  0  0  0  0  0  0  0  0
   11.6604    2.4935   -2.2703 C   0  0  0  0  0  0  0  0  0  0  0  0
    6.7843   -0.0448    0.2602 N   0  0  0  0  0  0  0  0  0  0  0  0
    5.7886   -1.0356    0.0555 C   0  0  0  0  0  0  0  0  0  0  0  0
    4.5621   -0.6535    0.3316 N   0  0  0  0  0  0  0  0  0  0  0  0
    1.4336   -1.9072    0.1174 H   0  0  0  0  0  0  0  0  0  0  0  0
    1.9489   -0.1385    0.0834 H   0  0  0  0  0  0  0  0  0  0  0  0
    2.9798   -3.6210    0.6908 H   0  0  0  0  0  0  0  0  0  0  0  0
    5.6170   -5.2951   -0.7962 H   0  0  0  0  0  0  0  0  0  0  0  0
    4.4360   -5.5383    0.4735 H   0  0  0  0  0  0  0  0  0  0  0  0
    7.3679   -4.7499    0.8602 H   0  0  0  0  0  0  0  0  0  0  0  0
    6.6770   -6.3435    1.0975 H   0  0  0  0  0  0  0  0  0  0  0  0
    5.3554   -5.5476    3.0287 H   0  0  0  0  0  0  0  0  0  0  0  0
    5.9063   -3.8870    2.7762 H   0  0  0  0  0  0  0  0  0  0  0  0
    8.2736   -4.6025    3.0493 H   0  0  0  0  0  0  0  0  0  0  0  0
    7.7586   -6.2728    3.2777 H   0  0  0  0  0  0  0  0  0  0  0  0
    6.5517   -5.6125    5.3699 H   0  0  0  0  0  0  0  0  0  0  0  0
    7.0738   -3.9388    5.1386 H   0  0  0  0  0  0  0  0  0  0  0  0
    8.9442   -6.3499    5.4688 H   0  0  0  0  0  0  0  0  0  0  0  0
    8.6004   -5.1266    6.7049 H   0  0  0  0  0  0  0  0  0  0  0  0
    9.4717   -4.6761    5.2283 H   0  0  0  0  0  0  0  0  0  0  0  0
    8.8852   -2.2472    0.3303 H   0  0  0  0  0  0  0  0  0  0  0  0
    9.0566    1.0654    1.3062 H   0  0  0  0  0  0  0  0  0  0  0  0
    8.8969    1.6932   -0.3246 H   0  0  0  0  0  0  0  0  0  0  0  0
   10.8851   -0.4287    0.6740 H   0  0  0  0  0  0  0  0  0  0  0  0
   11.2318    1.2659    0.4419 H   0  0  0  0  0  0  0  0  0  0  0  0
   10.8049   -0.8352   -1.7069 H   0  0  0  0  0  0  0  0  0  0  0  0
   12.2794   -0.0143   -1.2680 H   0  0  0  0  0  0  0  0  0  0  0  0
    9.8857    1.3210   -2.6130 H   0  0  0  0  0  0  0  0  0  0  0  0
   11.3358    0.7327   -3.4127 H   0  0  0  0  0  0  0  0  0  0  0  0
   11.3499    2.9805   -1.3432 H   0  0  0  0  0  0  0  0  0  0  0  0
   11.4193    3.1674   -3.1014 H   0  0  0  0  0  0  0  0  0  0  0  0
   12.7499    2.3742   -2.2555 H   0  0  0  0  0  0  0  0  0  0  0  0
  1  2  2  0  0  0  0
  1 24  1  0  0  0  0
  1 25  1  0  0  0  0
  2  3  1  0  0  0  0
  2 23  1  0  0  0  0
  3  4  2  0  0  0  0
  3 26  1  0  0  0  0
  4  5  1  0  0  0  0
  4 11  1  0  0  0  0
  5  6  1  0  0  0  0
  5 27  1  0  0  0  0
  5 28  1  0  0  0  0
  6  7  1  0  0  0  0
  6 29  1  0  0  0  0
  6 30  1  0  0  0  0
  7  8  1  0  0  0  0
  7 31  1  0  0  0  0
  7 32  1  0  0  0  0
  8  9  1  0  0  0  0
  8 33  1  0  0  0  0
  8 34  1  0  0  0  0
  9 10  1  0  0  0  0
  9 35  1  0  0  0  0
  9 36  1  0  0  0  0
 10 37  1  0  0  0  0
 10 38  1  0  0  0  0
 10 39  1  0  0  0  0
 11 12  2  0  0  0  0
 11 22  1  0  0  0  0
 12 13  1  0  0  0  0
 13 14  2  0  0  0  0
 14 15  1  0  0  0  0
 14 40  1  0  0  0  0
 15 16  1  0  0  0  0
 15 21  2  0  0  0  0
 16 17  1  0  0  0  0
 16 41  1  0  0  0  0
 16 42  1  0  0  0  0
 17 18  1  0  0  0  0
 17 43  1  0  0  0  0
 17 44  1  0  0  0  0
 18 19  1  0  0  0  0
 18 45  1  0  0  0  0
 18 46  1  0  0  0  0
 19 20  1  0  0  0  0
 19 47  1  0  0  0  0
 19 48  1  0  0  0  0
 20 49  1  0  0  0  0
 20 50  1  0  0  0  0
 20 51  1  0  0  0  0
 21 22  1  0  0  0  0
 22 23  2  0  0  0  0
M  END
$$$$
