
 OpenBabel04232216553D

 30 30  0  0  0  0  0  0  0  0999 V2000
    0.9994   -1.7980   -0.3770 C   0  0  0  0  0  0  0  0  0  0  0  0
    2.5093   -1.7057   -0.2444 C   0  0  0  0  0  0  0  0  0  0  0  0
    3.1399   -0.7703   -1.2837 C   0  0  0  0  0  0  0  0  0  0  0  0
    4.5669   -0.7438   -1.0918 N   0  0  0  0  0  0  0  0  0  0  0  0
    5.4490   -1.6918   -1.2682 C   0  0  0  0  0  0  0  0  0  0  0  0
    6.5026   -0.8457   -1.2471 C   0  0  0  0  0  0  0  0  0  0  0  0
    5.5165    0.3301   -1.1745 C   0  0  0  0  0  0  0  0  0  0  0  0
    5.4925    1.1438   -2.4824 C   0  0  0  0  0  0  0  0  0  0  0  0
    4.5266    2.3185   -2.4934 C   0  0  0  0  0  0  0  0  0  0  0  0
    5.5588    1.1281    0.1389 C   0  0  0  0  0  0  0  0  0  0  0  0
    6.9184    1.7721    0.3732 C   0  0  0  0  0  0  0  0  0  0  0  0
    0.5894   -2.4036    0.4384 H   0  0  0  0  0  0  0  0  0  0  0  0
    0.7177   -2.2727   -1.3221 H   0  0  0  0  0  0  0  0  0  0  0  0
    0.5338   -0.8089   -0.3311 H   0  0  0  0  0  0  0  0  0  0  0  0
    2.9312   -2.7140   -0.3329 H   0  0  0  0  0  0  0  0  0  0  0  0
    2.7593   -1.3501    0.7640 H   0  0  0  0  0  0  0  0  0  0  0  0
    2.7228    0.2334   -1.1562 H   0  0  0  0  0  0  0  0  0  0  0  0
    2.8990   -1.1047   -2.2982 H   0  0  0  0  0  0  0  0  0  0  0  0
    5.3958   -2.7758   -1.3715 H   0  0  0  0  0  0  0  0  0  0  0  0
    7.5745   -0.9301   -1.3172 H   0  0  0  0  0  0  0  0  0  0  0  0
    5.2620    0.4970   -3.3399 H   0  0  0  0  0  0  0  0  0  0  0  0
    6.4974    1.5441   -2.6719 H   0  0  0  0  0  0  0  0  0  0  0  0
    3.4948    2.0028   -2.3263 H   0  0  0  0  0  0  0  0  0  0  0  0
    4.5690    2.8245   -3.4644 H   0  0  0  0  0  0  0  0  0  0  0  0
    4.7868    3.0640   -1.7360 H   0  0  0  0  0  0  0  0  0  0  0  0
    5.3399    0.4803    0.9987 H   0  0  0  0  0  0  0  0  0  0  0  0
    4.7798    1.8979    0.1485 H   0  0  0  0  0  0  0  0  0  0  0  0
    7.6692    1.0122    0.6161 H   0  0  0  0  0  0  0  0  0  0  0  0
    6.8671    2.4653    1.2183 H   0  0  0  0  0  0  0  0  0  0  0  0
    7.2700    2.3239   -0.5031 H   0  0  0  0  0  0  0  0  0  0  0  0
  1  2  1  0  0  0  0
  1 12  1  0  0  0  0
  1 13  1  0  0  0  0
  1 14  1  0  0  0  0
  2  3  1  0  0  0  0
  2 15  1  0  0  0  0
  2 16  1  0  0  0  0
  3  4  1  0  0  0  0
  3 17  1  0  0  0  0
  3 18  1  0  0  0  0
  4  5  1  0  0  0  0
  4  7  1  0  0  0  0
  5  6  2  0  0  0  0
  5 19  1  0  0  0  0
  6  7  1  0  0  0  0
  6 20  1  0  0  0  0
  7  8  1  0  0  0  0
  7 10  1  0  0  0  0
  8  9  1  0  0  0  0
  8 21  1  0  0  0  0
  8 22  1  0  0  0  0
  9 23  1  0  0  0  0
  9 24  1  0  0  0  0
  9 25  1  0  0  0  0
 10 11  1  0  0  0  0
 10 26  1  0  0  0  0
 10 27  1  0  0  0  0
 11 28  1  0  0  0  0
 11 29  1  0  0  0  0
 11 30  1  0  0  0  0
M  END
$$$$
