
 OpenBabel04232216543D

227226  0  0  0  0  0  0  0  0999 V2000
   34.9367  -16.1604   -0.6734 C   0  0  0  0  0  0  0  0  0  0  0  0
   34.4188  -14.7764   -1.0296 C   0  0  0  0  0  0  0  0  0  0  0  0
   34.9054  -13.7440   -0.0202 C   0  0  0  0  0  0  0  0  0  0  0  0
   34.3991  -12.3450   -0.3543 C   0  0  0  0  0  0  0  0  0  0  0  0
   34.9092  -11.3501    0.6731 C   0  0  0  0  0  0  0  0  0  0  0  0
   34.4266  -10.0536    0.3368 O   0  0  0  0  0  0  0  0  0  0  0  0
   34.8892   -9.0971    1.2822 C   0  0  0  0  0  0  0  0  0  0  0  0
   34.3592   -7.7296    0.8957 C   0  0  0  0  0  0  0  0  0  0  0  0
   34.8417   -6.6902    1.8955 C   0  0  0  0  0  0  0  0  0  0  0  0
   34.3297   -5.3041    1.5389 C   0  0  0  0  0  0  0  0  0  0  0  0
   34.8286   -4.2849    2.5551 C   0  0  0  0  0  0  0  0  0  0  0  0
   34.3212   -2.8956    2.2073 C   0  0  0  0  0  0  0  0  0  0  0  0
   34.8170   -1.8723    3.2206 C   0  0  0  0  0  0  0  0  0  0  0  0
   34.2978   -0.4894    2.8584 C   0  0  0  0  0  0  0  0  0  0  0  0
   34.7686    0.5587    3.8547 C   0  0  0  0  0  0  0  0  0  0  0  0
   34.2257    1.9241    3.4635 C   0  0  0  0  0  0  0  0  0  0  0  0
   34.6672    2.8740    4.4223 O   0  0  0  0  0  0  0  0  0  0  0  0
   34.1952    4.1821    4.1043 C   0  0  0  0  0  0  0  0  0  0  0  0
   34.7656    5.1628    5.1161 C   0  0  0  0  0  0  0  0  0  0  0  0
   36.2887    5.1487    5.0881 C   0  0  0  0  0  0  0  0  0  0  0  0
   36.7825    6.1458    5.9842 O   0  0  0  0  0  0  0  0  0  0  0  0
   38.2054    6.1279    6.0303 C   0  0  0  0  0  0  0  0  0  0  0  0
   38.6748    7.1142    7.0909 C   0  0  0  0  0  0  0  0  0  0  0  0
   38.1606    6.7175    8.4681 C   0  0  0  0  0  0  0  0  0  0  0  0
   38.6329    7.6522    9.4391 O   0  0  0  0  0  0  0  0  0  0  0  0
   38.1446    7.2927   10.7279 C   0  0  0  0  0  0  0  0  0  0  0  0
   38.6414    8.2871   11.7629 C   0  0  0  0  0  0  0  0  0  0  0  0
   38.1318    7.8871   13.1391 C   0  0  0  0  0  0  0  0  0  0  0  0
   38.6275    8.8010   14.1090 O   0  0  0  0  0  0  0  0  0  0  0  0
   38.1422    8.4759   15.4119 C   0  0  0  0  0  0  0  0  0  0  0  0
   38.6259    9.5291   16.3958 C   0  0  0  0  0  0  0  0  0  0  0  0
   38.0979   10.9071   16.0220 C   0  0  0  0  0  0  0  0  0  0  0  0
   38.5659   11.8628   16.9709 O   0  0  0  0  0  0  0  0  0  0  0  0
   38.0883   13.1598   16.6259 C   0  0  0  0  0  0  0  0  0  0  0  0
   38.5800   14.1765   17.6434 C   0  0  0  0  0  0  0  0  0  0  0  0
   38.0552   15.5584   17.2653 C   0  0  0  0  0  0  0  0  0  0  0  0
   38.4941   16.5014   18.2319 O   0  0  0  0  0  0  0  0  0  0  0  0
   38.0292   17.8125   17.9112 C   0  0  0  0  0  0  0  0  0  0  0  0
   38.5792   18.7918   18.9311 C   0  0  0  0  0  0  0  0  0  0  0  0
   40.0985   18.7755   18.9209 C   0  0  0  0  0  0  0  0  0  0  0  0
   40.5787   19.7325   19.8658 O   0  0  0  0  0  0  0  0  0  0  0  0
   42.0051   19.7382   19.8690 C   0  0  0  0  0  0  0  0  0  0  0  0
   42.4900   20.7454   20.8983 C   0  0  0  0  0  0  0  0  0  0  0  0
   44.0051   20.7604   20.9598 C   0  0  0  0  0  0  0  0  0  0  0  0
   44.5104   21.1123   19.6736 O   0  0  0  0  0  0  0  0  0  0  0  0
   45.9300   21.0906   19.6545 C   0  0  0  0  0  0  0  0  0  0  0  0
   46.3943   21.4599   18.2563 C   0  0  0  0  0  0  0  0  0  0  0  0
   47.9135   21.4653   18.2050 C   0  0  0  0  0  0  0  0  0  0  0  0
   48.4170   21.8405   16.8203 C   0  0  0  0  0  0  0  0  0  0  0  0
   49.9376   21.8432   16.8085 C   0  0  0  0  0  0  0  0  0  0  0  0
   50.4546   22.2181   15.4307 C   0  0  0  0  0  0  0  0  0  0  0  0
   51.9739   22.2186   15.4246 C   0  0  0  0  0  0  0  0  0  0  0  0
   52.4870   22.5919   14.0453 C   0  0  0  0  0  0  0  0  0  0  0  0
   54.0051   22.5944   14.0370 C   0  0  0  0  0  0  0  0  0  0  0  0
   54.5137   22.9664   12.6564 C   0  0  0  0  0  0  0  0  0  0  0  0
   56.0313   22.9705   12.6477 C   0  0  0  0  0  0  0  0  0  0  0  0
   56.5389   23.3437   11.2676 C   0  0  0  0  0  0  0  0  0  0  0  0
   58.0559   23.3464   11.2594 C   0  0  0  0  0  0  0  0  0  0  0  0
   58.5636   23.7199    9.8795 C   0  0  0  0  0  0  0  0  0  0  0  0
   60.0804   23.7205    9.8711 C   0  0  0  0  0  0  0  0  0  0  0  0
   60.5879   24.0939    8.4913 C   0  0  0  0  0  0  0  0  0  0  0  0
   62.1046   24.0942    8.4829 C   0  0  0  0  0  0  0  0  0  0  0  0
   62.6120   24.4674    7.1031 C   0  0  0  0  0  0  0  0  0  0  0  0
   64.1287   24.4675    7.0947 C   0  0  0  0  0  0  0  0  0  0  0  0
   64.6362   24.8407    5.7147 C   0  0  0  0  0  0  0  0  0  0  0  0
   66.1530   24.8405    5.7061 C   0  0  0  0  0  0  0  0  0  0  0  0
   66.6607   25.2141    4.3263 C   0  0  0  0  0  0  0  0  0  0  0  0
   68.1777   25.2156    4.3178 C   0  0  0  0  0  0  0  0  0  0  0  0
   68.6858   25.5892    2.9378 C   0  0  0  0  0  0  0  0  0  0  0  0
   70.2031   25.5916    2.9291 C   0  0  0  0  0  0  0  0  0  0  0  0
   70.7124   25.9651    1.5487 C   0  0  0  0  0  0  0  0  0  0  0  0
   72.2297   25.9680    1.5394 C   0  0  0  0  0  0  0  0  0  0  0  0
   72.7405   26.3415    0.1585 C   0  0  0  0  0  0  0  0  0  0  0  0
   74.2594   26.3448    0.1472 C   0  0  0  0  0  0  0  0  0  0  0  0
   74.7720   26.7184   -1.2331 C   0  0  0  0  0  0  0  0  0  0  0  0
   76.2932   26.7208   -1.2460 C   0  0  0  0  0  0  0  0  0  0  0  0
   76.8088   27.0960   -2.6265 C   0  0  0  0  0  0  0  0  0  0  0  0
   78.3344   27.0976   -2.6473 C   0  0  0  0  0  0  0  0  0  0  0  0
   78.8459   27.4697   -4.0282 C   0  0  0  0  0  0  0  0  0  0  0  0
   80.3726   27.4832   -4.0621 C   0  0  0  0  0  0  0  0  0  0  0  0
   80.8812   27.8572   -5.4419 C   0  0  0  0  0  0  0  0  0  0  0  0
   34.5842  -16.8982   -1.4014 H   0  0  0  0  0  0  0  0  0  0  0  0
   34.5884  -16.4642    0.3187 H   0  0  0  0  0  0  0  0  0  0  0  0
   36.0316  -16.1782   -0.6712 H   0  0  0  0  0  0  0  0  0  0  0  0
   33.3228  -14.7926   -1.0501 H   0  0  0  0  0  0  0  0  0  0  0  0
   34.7607  -14.5073   -2.0353 H   0  0  0  0  0  0  0  0  0  0  0  0
   36.0020  -13.7393    0.0008 H   0  0  0  0  0  0  0  0  0  0  0  0
   34.5663  -14.0239    0.9849 H   0  0  0  0  0  0  0  0  0  0  0  0
   33.3023  -12.3247   -0.3755 H   0  0  0  0  0  0  0  0  0  0  0  0
   34.7285  -12.0430   -1.3563 H   0  0  0  0  0  0  0  0  0  0  0  0
   36.0056  -11.3401    0.6767 H   0  0  0  0  0  0  0  0  0  0  0  0
   34.5521  -11.6231    1.6729 H   0  0  0  0  0  0  0  0  0  0  0  0
   35.9860   -9.0871    1.2868 H   0  0  0  0  0  0  0  0  0  0  0  0
   34.5323   -9.3686    2.2827 H   0  0  0  0  0  0  0  0  0  0  0  0
   33.2633   -7.7529    0.8591 H   0  0  0  0  0  0  0  0  0  0  0  0
   34.6910   -7.4756   -0.1182 H   0  0  0  0  0  0  0  0  0  0  0  0
   35.9384   -6.6830    1.9198 H   0  0  0  0  0  0  0  0  0  0  0  0
   34.4995   -6.9614    2.9018 H   0  0  0  0  0  0  0  0  0  0  0  0
   33.2330   -5.3057    1.5201 H   0  0  0  0  0  0  0  0  0  0  0  0
   34.6721   -5.0277    0.5341 H   0  0  0  0  0  0  0  0  0  0  0  0
   35.9265   -4.2857    2.5729 H   0  0  0  0  0  0  0  0  0  0  0  0
   34.4890   -4.5648    3.5594 H   0  0  0  0  0  0  0  0  0  0  0  0
   33.2239   -2.8969    2.1886 H   0  0  0  0  0  0  0  0  0  0  0  0
   34.6611   -2.6177    1.2023 H   0  0  0  0  0  0  0  0  0  0  0  0
   35.9130   -1.8670    3.2384 H   0  0  0  0  0  0  0  0  0  0  0  0
   34.4775   -2.1482    4.2260 H   0  0  0  0  0  0  0  0  0  0  0  0
   33.2020   -0.5045    2.8314 H   0  0  0  0  0  0  0  0  0  0  0  0
   34.6422   -0.2196    1.8509 H   0  0  0  0  0  0  0  0  0  0  0  0
   35.8649    0.5920    3.8923 H   0  0  0  0  0  0  0  0  0  0  0  0
   34.4383    0.3043    4.8689 H   0  0  0  0  0  0  0  0  0  0  0  0
   33.1303    1.9042    3.4428 H   0  0  0  0  0  0  0  0  0  0  0  0
   34.5968    2.2024    2.4700 H   0  0  0  0  0  0  0  0  0  0  0  0
   33.1012    4.1972    4.1401 H   0  0  0  0  0  0  0  0  0  0  0  0
   34.5210    4.4562    3.0930 H   0  0  0  0  0  0  0  0  0  0  0  0
   34.4290    4.8998    6.1264 H   0  0  0  0  0  0  0  0  0  0  0  0
   34.3926    6.1733    4.9143 H   0  0  0  0  0  0  0  0  0  0  0  0
   36.6504    5.3696    4.0773 H   0  0  0  0  0  0  0  0  0  0  0  0
   36.6667    4.1665    5.3949 H   0  0  0  0  0  0  0  0  0  0  0  0
   38.6046    6.4139    5.0513 H   0  0  0  0  0  0  0  0  0  0  0  0
   38.5621    5.1198    6.2767 H   0  0  0  0  0  0  0  0  0  0  0  0
   38.3134    8.1225    6.8554 H   0  0  0  0  0  0  0  0  0  0  0  0
   39.7695    7.1656    7.1027 H   0  0  0  0  0  0  0  0  0  0  0  0
   38.5203    5.7144    8.7263 H   0  0  0  0  0  0  0  0  0  0  0  0
   37.0642    6.7131    8.4796 H   0  0  0  0  0  0  0  0  0  0  0  0
   38.4982    6.2862   10.9807 H   0  0  0  0  0  0  0  0  0  0  0  0
   37.0480    7.2892   10.7139 H   0  0  0  0  0  0  0  0  0  0  0  0
   38.3108    9.3021   11.5099 H   0  0  0  0  0  0  0  0  0  0  0  0
   39.7370    8.3361   11.7557 H   0  0  0  0  0  0  0  0  0  0  0  0
   38.4732    6.8769   13.3885 H   0  0  0  0  0  0  0  0  0  0  0  0
   37.0355    7.9043   13.1469 H   0  0  0  0  0  0  0  0  0  0  0  0
   38.5185    7.4897   15.7042 H   0  0  0  0  0  0  0  0  0  0  0  0
   37.0457    8.4478   15.4023 H   0  0  0  0  0  0  0  0  0  0  0  0
   39.7219    9.5606   16.4064 H   0  0  0  0  0  0  0  0  0  0  0  0
   38.3082    9.2698   17.4125 H   0  0  0  0  0  0  0  0  0  0  0  0
   37.0007   10.8999   16.0223 H   0  0  0  0  0  0  0  0  0  0  0  0
   38.4484   11.1918   15.0254 H   0  0  0  0  0  0  0  0  0  0  0  0
   36.9933   13.1491   16.6093 H   0  0  0  0  0  0  0  0  0  0  0  0
   38.4543   13.4263   15.6273 H   0  0  0  0  0  0  0  0  0  0  0  0
   39.6767   14.1840   17.6809 H   0  0  0  0  0  0  0  0  0  0  0  0
   38.2539   13.8999   18.6511 H   0  0  0  0  0  0  0  0  0  0  0  0
   36.9602   15.5463   17.2420 H   0  0  0  0  0  0  0  0  0  0  0  0
   38.4309   15.8398   16.2787 H   0  0  0  0  0  0  0  0  0  0  0  0
   36.9342   17.8272   17.9305 H   0  0  0  0  0  0  0  0  0  0  0  0
   38.3683   18.0870   16.9051 H   0  0  0  0  0  0  0  0  0  0  0  0
   38.2280   18.5305   19.9369 H   0  0  0  0  0  0  0  0  0  0  0  0
   38.2123   19.8028   18.7217 H   0  0  0  0  0  0  0  0  0  0  0  0
   40.4695   19.0364   17.9222 H   0  0  0  0  0  0  0  0  0  0  0  0
   40.4776   17.7832   19.1917 H   0  0  0  0  0  0  0  0  0  0  0  0
   42.3621   20.0031   18.8669 H   0  0  0  0  0  0  0  0  0  0  0  0
   42.3735   18.7367   20.1217 H   0  0  0  0  0  0  0  0  0  0  0  0
   42.0738   20.5069   21.8837 H   0  0  0  0  0  0  0  0  0  0  0  0
   42.1118   21.7386   20.6270 H   0  0  0  0  0  0  0  0  0  0  0  0
   44.3827   19.7705   21.2436 H   0  0  0  0  0  0  0  0  0  0  0  0
   44.3444   21.4931   21.6987 H   0  0  0  0  0  0  0  0  0  0  0  0
   46.2856   20.0864   19.9130 H   0  0  0  0  0  0  0  0  0  0  0  0
   46.3181   21.8081   20.3852 H   0  0  0  0  0  0  0  0  0  0  0  0
   45.9949   22.4433   17.9782 H   0  0  0  0  0  0  0  0  0  0  0  0
   45.9859   20.7500   17.5267 H   0  0  0  0  0  0  0  0  0  0  0  0
   48.2958   20.4740   18.4785 H   0  0  0  0  0  0  0  0  0  0  0  0
   48.3048   22.1765   18.9420 H   0  0  0  0  0  0  0  0  0  0  0  0
   48.0398   22.8315   16.5403 H   0  0  0  0  0  0  0  0  0  0  0  0
   48.0388   21.1267   16.0779 H   0  0  0  0  0  0  0  0  0  0  0  0
   50.3149   20.8521   17.0895 H   0  0  0  0  0  0  0  0  0  0  0  0
   50.3150   22.5554   17.5524 H   0  0  0  0  0  0  0  0  0  0  0  0
   50.0813   23.2104   15.1492 H   0  0  0  0  0  0  0  0  0  0  0  0
   50.0798   21.5062   14.6849 H   0  0  0  0  0  0  0  0  0  0  0  0
   52.3497   21.2272   15.7062 H   0  0  0  0  0  0  0  0  0  0  0  0
   52.3510   22.9315   16.1683 H   0  0  0  0  0  0  0  0  0  0  0  0
   52.1113   23.5830   13.7627 H   0  0  0  0  0  0  0  0  0  0  0  0
   52.1114   21.8785   13.3015 H   0  0  0  0  0  0  0  0  0  0  0  0
   54.3823   21.6039   14.3194 H   0  0  0  0  0  0  0  0  0  0  0  0
   54.3818   23.3091   14.7789 H   0  0  0  0  0  0  0  0  0  0  0  0
   54.1363   23.9566   12.3728 H   0  0  0  0  0  0  0  0  0  0  0  0
   54.1383   22.2513   11.9141 H   0  0  0  0  0  0  0  0  0  0  0  0
   56.4094   21.9802   12.9299 H   0  0  0  0  0  0  0  0  0  0  0  0
   56.4075   23.6852   13.3901 H   0  0  0  0  0  0  0  0  0  0  0  0
   56.1620   24.3346   10.9856 H   0  0  0  0  0  0  0  0  0  0  0  0
   56.1625   22.6297   10.5248 H   0  0  0  0  0  0  0  0  0  0  0  0
   58.4333   22.3555   11.5410 H   0  0  0  0  0  0  0  0  0  0  0  0
   58.4329   24.0603   12.0021 H   0  0  0  0  0  0  0  0  0  0  0  0
   58.1876   24.7113    9.5983 H   0  0  0  0  0  0  0  0  0  0  0  0
   58.1860   23.0067    9.1363 H   0  0  0  0  0  0  0  0  0  0  0  0
   60.4565   22.7291   10.1523 H   0  0  0  0  0  0  0  0  0  0  0  0
   60.4583   24.4336   10.6142 H   0  0  0  0  0  0  0  0  0  0  0  0
   60.2120   25.0854    8.2102 H   0  0  0  0  0  0  0  0  0  0  0  0
   60.2099   23.3808    7.7482 H   0  0  0  0  0  0  0  0  0  0  0  0
   62.4804   23.1027    8.7641 H   0  0  0  0  0  0  0  0  0  0  0  0
   62.4826   24.8073    9.2259 H   0  0  0  0  0  0  0  0  0  0  0  0
   62.2362   25.4589    6.8219 H   0  0  0  0  0  0  0  0  0  0  0  0
   62.2339   23.7543    6.3600 H   0  0  0  0  0  0  0  0  0  0  0  0
   64.5044   23.4759    7.3759 H   0  0  0  0  0  0  0  0  0  0  0  0
   64.5068   25.1805    7.8377 H   0  0  0  0  0  0  0  0  0  0  0  0
   64.2606   25.8324    5.4339 H   0  0  0  0  0  0  0  0  0  0  0  0
   64.2578   24.1279    4.9718 H   0  0  0  0  0  0  0  0  0  0  0  0
   66.5284   23.8487    5.9869 H   0  0  0  0  0  0  0  0  0  0  0  0
   66.5312   25.5531    6.4495 H   0  0  0  0  0  0  0  0  0  0  0  0
   66.2842   26.2055    4.0454 H   0  0  0  0  0  0  0  0  0  0  0  0
   66.2829   24.5010    3.5833 H   0  0  0  0  0  0  0  0  0  0  0  0
   68.5539   24.2242    4.5992 H   0  0  0  0  0  0  0  0  0  0  0  0
   68.5549   25.9288    5.0610 H   0  0  0  0  0  0  0  0  0  0  0  0
   68.3085   26.5801    2.6565 H   0  0  0  0  0  0  0  0  0  0  0  0
   68.3085   24.8754    2.1951 H   0  0  0  0  0  0  0  0  0  0  0  0
   70.5797   24.6006    3.2110 H   0  0  0  0  0  0  0  0  0  0  0  0
   70.5796   26.3053    3.6722 H   0  0  0  0  0  0  0  0  0  0  0  0
   70.3346   26.9558    1.2674 H   0  0  0  0  0  0  0  0  0  0  0  0
   70.3349   25.2511    0.8063 H   0  0  0  0  0  0  0  0  0  0  0  0
   72.6067   24.9769    1.8213 H   0  0  0  0  0  0  0  0  0  0  0  0
   72.6063   26.6816    2.2825 H   0  0  0  0  0  0  0  0  0  0  0  0
   72.3626   27.3322   -0.1225 H   0  0  0  0  0  0  0  0  0  0  0  0
   72.3627   25.6277   -0.5838 H   0  0  0  0  0  0  0  0  0  0  0  0
   74.6353   25.3538    0.4299 H   0  0  0  0  0  0  0  0  0  0  0  0
   74.6352   27.0581    0.8909 H   0  0  0  0  0  0  0  0  0  0  0  0
   74.3949   27.7094   -1.5141 H   0  0  0  0  0  0  0  0  0  0  0  0
   74.3941   26.0053   -1.9758 H   0  0  0  0  0  0  0  0  0  0  0  0
   76.6677   25.7293   -0.9641 H   0  0  0  0  0  0  0  0  0  0  0  0
   76.6686   27.4333   -0.5012 H   0  0  0  0  0  0  0  0  0  0  0  0
   76.4320   28.0875   -2.9056 H   0  0  0  0  0  0  0  0  0  0  0  0
   76.4288   26.3842   -3.3700 H   0  0  0  0  0  0  0  0  0  0  0  0
   78.7074   26.1060   -2.3647 H   0  0  0  0  0  0  0  0  0  0  0  0
   78.7092   27.8099   -1.9007 H   0  0  0  0  0  0  0  0  0  0  0  0
   78.4653   28.4652   -4.3074 H   0  0  0  0  0  0  0  0  0  0  0  0
   78.4652   26.7615   -4.7691 H   0  0  0  0  0  0  0  0  0  0  0  0
   80.7561   26.4929   -3.7870 H   0  0  0  0  0  0  0  0  0  0  0  0
   80.7568   28.1972   -3.3253 H   0  0  0  0  0  0  0  0  0  0  0  0
   80.5316   27.1422   -6.1935 H   0  0  0  0  0  0  0  0  0  0  0  0
   81.9749   27.8605   -5.4545 H   0  0  0  0  0  0  0  0  0  0  0  0
   80.5320   28.8545   -5.7288 H   0  0  0  0  0  0  0  0  0  0  0  0
  1  2  1  0  0  0  0
  1 82  1  0  0  0  0
  1 83  1  0  0  0  0
  1 84  1  0  0  0  0
  2  3  1  0  0  0  0
  2 85  1  0  0  0  0
  2 86  1  0  0  0  0
  3  4  1  0  0  0  0
  3 87  1  0  0  0  0
  3 88  1  0  0  0  0
  4  5  1  0  0  0  0
  4 89  1  0  0  0  0
  4 90  1  0  0  0  0
  5  6  1  0  0  0  0
  5 91  1  0  0  0  0
  5 92  1  0  0  0  0
  6  7  1  0  0  0  0
  7  8  1  0  0  0  0
  7 93  1  0  0  0  0
  7 94  1  0  0  0  0
  8  9  1  0  0  0  0
  8 95  1  0  0  0  0
  8 96  1  0  0  0  0
  9 10  1  0  0  0  0
  9 97  1  0  0  0  0
  9 98  1  0  0  0  0
 10 11  1  0  0  0  0
 10 99  1  0  0  0  0
 10100  1  0  0  0  0
 11 12  1  0  0  0  0
 11101  1  0  0  0  0
 11102  1  0  0  0  0
 12 13  1  0  0  0  0
 12103  1  0  0  0  0
 12104  1  0  0  0  0
 13 14  1  0  0  0  0
 13105  1  0  0  0  0
 13106  1  0  0  0  0
 14 15  1  0  0  0  0
 14107  1  0  0  0  0
 14108  1  0  0  0  0
 15 16  1  0  0  0  0
 15109  1  0  0  0  0
 15110  1  0  0  0  0
 16 17  1  0  0  0  0
 16111  1  0  0  0  0
 16112  1  0  0  0  0
 17 18  1  0  0  0  0
 18 19  1  0  0  0  0
 18113  1  0  0  0  0
 18114  1  0  0  0  0
 19 20  1  0  0  0  0
 19115  1  0  0  0  0
 19116  1  0  0  0  0
 20 21  1  0  0  0  0
 20117  1  0  0  0  0
 20118  1  0  0  0  0
 21 22  1  0  0  0  0
 22 23  1  0  0  0  0
 22119  1  0  0  0  0
 22120  1  0  0  0  0
 23 24  1  0  0  0  0
 23121  1  0  0  0  0
 23122  1  0  0  0  0
 24 25  1  0  0  0  0
 24123  1  0  0  0  0
 24124  1  0  0  0  0
 25 26  1  0  0  0  0
 26 27  1  0  0  0  0
 26125  1  0  0  0  0
 26126  1  0  0  0  0
 27 28  1  0  0  0  0
 27127  1  0  0  0  0
 27128  1  0  0  0  0
 28 29  1  0  0  0  0
 28129  1  0  0  0  0
 28130  1  0  0  0  0
 29 30  1  0  0  0  0
 30 31  1  0  0  0  0
 30131  1  0  0  0  0
 30132  1  0  0  0  0
 31 32  1  0  0  0  0
 31133  1  0  0  0  0
 31134  1  0  0  0  0
 32 33  1  0  0  0  0
 32135  1  0  0  0  0
 32136  1  0  0  0  0
 33 34  1  0  0  0  0
 34 35  1  0  0  0  0
 34137  1  0  0  0  0
 34138  1  0  0  0  0
 35 36  1  0  0  0  0
 35139  1  0  0  0  0
 35140  1  0  0  0  0
 36 37  1  0  0  0  0
 36141  1  0  0  0  0
 36142  1  0  0  0  0
 37 38  1  0  0  0  0
 38 39  1  0  0  0  0
 38143  1  0  0  0  0
 38144  1  0  0  0  0
 39 40  1  0  0  0  0
 39145  1  0  0  0  0
 39146  1  0  0  0  0
 40 41  1  0  0  0  0
 40147  1  0  0  0  0
 40148  1  0  0  0  0
 41 42  1  0  0  0  0
 42 43  1  0  0  0  0
 42149  1  0  0  0  0
 42150  1  0  0  0  0
 43 44  1  0  0  0  0
 43151  1  0  0  0  0
 43152  1  0  0  0  0
 44 45  1  0  0  0  0
 44153  1  0  0  0  0
 44154  1  0  0  0  0
 45 46  1  0  0  0  0
 46 47  1  0  0  0  0
 46155  1  0  0  0  0
 46156  1  0  0  0  0
 47 48  1  0  0  0  0
 47157  1  0  0  0  0
 47158  1  0  0  0  0
 48 49  1  0  0  0  0
 48159  1  0  0  0  0
 48160  1  0  0  0  0
 49 50  1  0  0  0  0
 49161  1  0  0  0  0
 49162  1  0  0  0  0
 50 51  1  0  0  0  0
 50163  1  0  0  0  0
 50164  1  0  0  0  0
 51 52  1  0  0  0  0
 51165  1  0  0  0  0
 51166  1  0  0  0  0
 52 53  1  0  0  0  0
 52167  1  0  0  0  0
 52168  1  0  0  0  0
 53 54  1  0  0  0  0
 53169  1  0  0  0  0
 53170  1  0  0  0  0
 54 55  1  0  0  0  0
 54171  1  0  0  0  0
 54172  1  0  0  0  0
 55 56  1  0  0  0  0
 55173  1  0  0  0  0
 55174  1  0  0  0  0
 56 57  1  0  0  0  0
 56175  1  0  0  0  0
 56176  1  0  0  0  0
 57 58  1  0  0  0  0
 57177  1  0  0  0  0
 57178  1  0  0  0  0
 58 59  1  0  0  0  0
 58179  1  0  0  0  0
 58180  1  0  0  0  0
 59 60  1  0  0  0  0
 59181  1  0  0  0  0
 59182  1  0  0  0  0
 60 61  1  0  0  0  0
 60183  1  0  0  0  0
 60184  1  0  0  0  0
 61 62  1  0  0  0  0
 61185  1  0  0  0  0
 61186  1  0  0  0  0
 62 63  1  0  0  0  0
 62187  1  0  0  0  0
 62188  1  0  0  0  0
 63 64  1  0  0  0  0
 63189  1  0  0  0  0
 63190  1  0  0  0  0
 64 65  1  0  0  0  0
 64191  1  0  0  0  0
 64192  1  0  0  0  0
 65 66  1  0  0  0  0
 65193  1  0  0  0  0
 65194  1  0  0  0  0
 66 67  1  0  0  0  0
 66195  1  0  0  0  0
 66196  1  0  0  0  0
 67 68  1  0  0  0  0
 67197  1  0  0  0  0
 67198  1  0  0  0  0
 68 69  1  0  0  0  0
 68199  1  0  0  0  0
 68200  1  0  0  0  0
 69 70  1  0  0  0  0
 69201  1  0  0  0  0
 69202  1  0  0  0  0
 70 71  1  0  0  0  0
 70203  1  0  0  0  0
 70204  1  0  0  0  0
 71 72  1  0  0  0  0
 71205  1  0  0  0  0
 71206  1  0  0  0  0
 72 73  1  0  0  0  0
 72207  1  0  0  0  0
 72208  1  0  0  0  0
 73 74  1  0  0  0  0
 73209  1  0  0  0  0
 73210  1  0  0  0  0
 74 75  1  0  0  0  0
 74211  1  0  0  0  0
 74212  1  0  0  0  0
 75 76  1  0  0  0  0
 75213  1  0  0  0  0
 75214  1  0  0  0  0
 76 77  1  0  0  0  0
 76215  1  0  0  0  0
 76216  1  0  0  0  0
 77 78  1  0  0  0  0
 77217  1  0  0  0  0
 77218  1  0  0  0  0
 78 79  1  0  0  0  0
 78219  1  0  0  0  0
 78220  1  0  0  0  0
 79 80  1  0  0  0  0
 79221  1  0  0  0  0
 79222  1  0  0  0  0
 80 81  1  0  0  0  0
 80223  1  0  0  0  0
 80224  1  0  0  0  0
 81225  1  0  0  0  0
 81226  1  0  0  0  0
 81227  1  0  0  0  0
M  END
$$$$
