
 OpenBabel04232217023D

108107  0  0  0  0  0  0  0  0999 V2000
   22.4100  -36.9893   12.3848 O   0  0  0  0  0  0  0  0  0  0  0  0
   23.8619  -36.8922   12.3652 O   0  0  0  0  0  0  0  0  0  0  0  0
   24.1950  -36.3527   11.0954 C   0  0  0  0  0  0  0  0  0  0  0  0
   25.7114  -36.2914   11.0103 C   0  0  0  0  0  0  0  0  0  0  0  0
   26.0956  -35.7087    9.7241 N   0  0  0  0  0  0  0  0  0  0  0  0
   27.5191  -35.5996    9.6741 N   0  0  0  0  0  0  0  0  0  0  0  0
   27.9428  -35.0969    8.4279 N   0  0  0  0  0  0  0  0  0  0  0  0
   29.3628  -35.0467    8.3728 N   0  0  0  0  0  0  0  0  0  0  0  0
   29.7197  -34.4918    7.0906 N   0  0  0  0  0  0  0  0  0  0  0  0
   29.2155  -33.1564    6.9527 N   0  0  0  0  0  0  0  0  0  0  0  0
   29.6360  -32.5484    5.7163 N   0  0  0  0  0  0  0  0  0  0  0  0
   29.0821  -31.2608    5.5646 N   0  0  0  0  0  0  0  0  0  0  0  0
   29.4809  -30.7337    4.3209 N   0  0  0  0  0  0  0  0  0  0  0  0
   28.9626  -29.4242    4.2458 N   0  0  0  0  0  0  0  0  0  0  0  0
   29.3207  -28.8787    2.9955 N   0  0  0  0  0  0  0  0  0  0  0  0
   28.7264  -27.5977    2.8584 N   0  0  0  0  0  0  0  0  0  0  0  0
   29.1167  -26.9731    1.6597 N   0  0  0  0  0  0  0  0  0  0  0  0
   28.5962  -25.6622    1.5212 N   0  0  0  0  0  0  0  0  0  0  0  0
   29.0308  -24.7886    2.5461 N   0  0  0  0  0  0  0  0  0  0  0  0
   28.4536  -23.5146    2.3372 N   0  0  0  0  0  0  0  0  0  0  0  0
   27.0595  -23.5158    2.3750 N   0  0  0  0  0  0  0  0  0  0  0  0
   26.4933  -21.9568    2.3457 S   0  0  0  0  0  0  0  0  0  0  0  0
   27.0695  -21.3104    0.9349 N   0  0  0  0  0  0  0  0  0  0  0  0
   26.4526  -19.7968    0.6205 S   0  0  0  0  0  0  0  0  0  0  0  0
   26.9564  -18.7539    1.8077 N   0  0  0  0  0  0  0  0  0  0  0  0
   28.6031  -18.6192    1.8494 S   0  0  0  0  0  0  0  0  0  0  0  0
   28.9858  -17.5884    3.0783 N   0  0  0  0  0  0  0  0  0  0  0  0
   28.6457  -18.0785    4.6139 S   0  0  0  0  0  0  0  0  0  0  0  0
   29.3802  -19.5481    4.9184 N   0  0  0  0  0  0  0  0  0  0  0  0
   31.0307  -19.4238    4.8225 S   0  0  0  0  0  0  0  0  0  0  0  0
   31.5877  -21.3262    5.3584 S   0  0  0  0  0  0  0  0  0  0  0  0
   30.9781  -22.6129    3.8816 S   0  0  0  0  0  0  0  0  0  0  0  0
   31.8350  -22.1368    2.0447 S   0  0  0  0  0  0  0  0  0  0  0  0
   31.2752  -23.6146    0.6611 S   0  0  0  0  0  0  0  0  0  0  0  0
   31.5950  -22.9698   -1.2862 S   0  0  0  0  0  0  0  0  0  0  0  0
   30.8007  -24.4111   -2.6008 S   0  0  0  0  0  0  0  0  0  0  0  0
   31.5036  -23.9463   -4.5252 S   0  0  0  0  0  0  0  0  0  0  0  0
   30.7017  -25.3042   -5.9137 S   0  0  0  0  0  0  0  0  0  0  0  0
   31.4155  -24.7752   -7.8254 S   0  0  0  0  0  0  0  0  0  0  0  0
   30.6439  -26.1344   -9.2363 S   0  0  0  0  0  0  0  0  0  0  0  0
   31.3572  -25.6023  -11.1476 S   0  0  0  0  0  0  0  0  0  0  0  0
   30.5825  -26.9636  -12.5595 S   0  0  0  0  0  0  0  0  0  0  0  0
   31.2947  -26.4347  -14.4728 S   0  0  0  0  0  0  0  0  0  0  0  0
   30.5195  -27.7966  -15.8848 S   0  0  0  0  0  0  0  0  0  0  0  0
   31.2317  -27.2678  -17.7986 S   0  0  0  0  0  0  0  0  0  0  0  0
   30.4566  -28.6296  -19.2107 S   0  0  0  0  0  0  0  0  0  0  0  0
   31.1689  -28.1008  -21.1245 S   0  0  0  0  0  0  0  0  0  0  0  0
   30.3938  -29.4626  -22.5367 S   0  0  0  0  0  0  0  0  0  0  0  0
   31.1060  -28.9337  -24.4505 S   0  0  0  0  0  0  0  0  0  0  0  0
   30.3309  -30.2956  -25.8627 S   0  0  0  0  0  0  0  0  0  0  0  0
   31.0431  -29.7667  -27.7765 S   0  0  0  0  0  0  0  0  0  0  0  0
   30.2681  -31.1286  -29.1887 S   0  0  0  0  0  0  0  0  0  0  0  0
   30.9803  -30.5997  -31.1025 S   0  0  0  0  0  0  0  0  0  0  0  0
   30.2052  -31.9616  -32.5147 S   0  0  0  0  0  0  0  0  0  0  0  0
   30.9174  -31.4327  -34.4285 S   0  0  0  0  0  0  0  0  0  0  0  0
   30.1424  -32.7945  -35.8406 S   0  0  0  0  0  0  0  0  0  0  0  0
   30.8546  -32.2657  -37.7544 S   0  0  0  0  0  0  0  0  0  0  0  0
   30.0795  -33.6275  -39.1666 S   0  0  0  0  0  0  0  0  0  0  0  0
   30.7917  -33.0986  -41.0804 S   0  0  0  0  0  0  0  0  0  0  0  0
   30.0167  -34.4605  -42.4926 S   0  0  0  0  0  0  0  0  0  0  0  0
   30.7289  -33.9316  -44.4064 S   0  0  0  0  0  0  0  0  0  0  0  0
   29.9538  -35.2935  -45.8186 S   0  0  0  0  0  0  0  0  0  0  0  0
   30.6660  -34.7646  -47.7324 S   0  0  0  0  0  0  0  0  0  0  0  0
   29.8910  -36.1265  -49.1446 S   0  0  0  0  0  0  0  0  0  0  0  0
   30.6032  -35.5976  -51.0584 S   0  0  0  0  0  0  0  0  0  0  0  0
   29.8281  -36.9594  -52.4705 S   0  0  0  0  0  0  0  0  0  0  0  0
   30.5403  -36.4305  -54.3843 S   0  0  0  0  0  0  0  0  0  0  0  0
   29.7653  -37.7924  -55.7964 S   0  0  0  0  0  0  0  0  0  0  0  0
   30.4775  -37.2635  -57.7101 S   0  0  0  0  0  0  0  0  0  0  0  0
   29.7024  -38.6253  -59.1219 S   0  0  0  0  0  0  0  0  0  0  0  0
   30.4146  -38.0962  -61.0349 S   0  0  0  0  0  0  0  0  0  0  0  0
   29.6395  -39.4576  -62.4456 S   0  0  0  0  0  0  0  0  0  0  0  0
   30.3524  -38.9278  -64.3561 S   0  0  0  0  0  0  0  0  0  0  0  0
   29.5774  -40.2876  -65.7632 S   0  0  0  0  0  0  0  0  0  0  0  0
   30.2883  -39.7533  -67.6678 S   0  0  0  0  0  0  0  0  0  0  0  0
   29.5225  -41.1203  -69.0601 S   0  0  0  0  0  0  0  0  0  0  0  0
   30.2217  -40.5816  -70.9558 S   0  0  0  0  0  0  0  0  0  0  0  0
   29.3825  -41.9095  -72.3220 S   0  0  0  0  0  0  0  0  0  0  0  0
   30.2411  -41.5279  -74.1690 S   0  0  0  0  0  0  0  0  0  0  0  0
   29.3154  -42.7938  -75.5179 S   0  0  0  0  0  0  0  0  0  0  0  0
   30.1323  -44.6499  -75.1771 S   0  0  0  0  0  0  0  0  0  0  0  0
   22.3462  -37.3736   13.2728 H   0  0  0  0  0  0  0  0  0  0  0  0
   23.7521  -35.3535   11.0057 H   0  0  0  0  0  0  0  0  0  0  0  0
   23.7839  -36.9960   10.3075 H   0  0  0  0  0  0  0  0  0  0  0  0
   26.1216  -37.3044   11.1276 H   0  0  0  0  0  0  0  0  0  0  0  0
   26.0944  -35.6933   11.8475 H   0  0  0  0  0  0  0  0  0  0  0  0
   25.6576  -34.7879    9.6646 H   0  0  0  0  0  0  0  0  0  0  0  0
   27.9382  -36.5287    9.7442 H   0  0  0  0  0  0  0  0  0  0  0  0
   27.6368  -34.1413    8.2491 H   0  0  0  0  0  0  0  0  0  0  0  0
   29.7299  -35.9935    8.5061 H   0  0  0  0  0  0  0  0  0  0  0  0
   29.2817  -35.0971    6.3937 H   0  0  0  0  0  0  0  0  0  0  0  0
   29.5446  -32.6171    7.7564 H   0  0  0  0  0  0  0  0  0  0  0  0
   29.2768  -33.0790    4.9192 H   0  0  0  0  0  0  0  0  0  0  0  0
   29.4125  -30.6105    6.2669 H   0  0  0  0  0  0  0  0  0  0  0  0
   29.1181  -31.2700    3.5597 H   0  0  0  0  0  0  0  0  0  0  0  0
   29.3179  -28.9176    5.0352 H   0  0  0  0  0  0  0  0  0  0  0  0
   29.0068  -29.5043    2.2505 H   0  0  0  0  0  0  0  0  0  0  0  0
   29.0622  -27.0295    3.6414 H   0  0  0  0  0  0  0  0  0  0  0  0
   28.8500  -27.5699    0.8487 H   0  0  0  0  0  0  0  0  0  0  0  0
   27.5778  -25.5817    1.4798 H   0  0  0  0  0  0  0  0  0  0  0  0
   30.0393  -24.6833    2.4999 H   0  0  0  0  0  0  0  0  0  0  0  0
   28.7693  -23.1331    1.4420 H   0  0  0  0  0  0  0  0  0  0  0  0
   26.7842  -23.9442    3.2525 H   0  0  0  0  0  0  0  0  0  0  0  0
   26.8033  -21.9439    0.1865 H   0  0  0  0  0  0  0  0  0  0  0  0
   26.6452  -19.1155    2.7060 H   0  0  0  0  0  0  0  0  0  0  0  0
   28.6361  -16.6501    2.8960 H   0  0  0  0  0  0  0  0  0  0  0  0
   29.0307  -20.2188    4.2334 H   0  0  0  0  0  0  0  0  0  0  0  0
   29.5120  -45.3817  -76.1190 H   0  0  0  0  0  0  0  0  0  0  0  0
  1  2  1  0  0  0  0
  1 82  1  0  0  0  0
  2  3  1  0  0  0  0
  3  4  1  0  0  0  0
  3 83  1  0  0  0  0
  3 84  1  0  0  0  0
  4  5  1  0  0  0  0
  4 85  1  0  0  0  0
  4 86  1  0  0  0  0
  5  6  1  0  0  0  0
  5 87  1  0  0  0  0
  6  7  1  0  0  0  0
  6 88  1  0  0  0  0
  7  8  1  0  0  0  0
  7 89  1  0  0  0  0
  8  9  1  0  0  0  0
  8 90  1  0  0  0  0
  9 10  1  0  0  0  0
  9 91  1  0  0  0  0
 10 11  1  0  0  0  0
 10 92  1  0  0  0  0
 11 12  1  0  0  0  0
 11 93  1  0  0  0  0
 12 13  1  0  0  0  0
 12 94  1  0  0  0  0
 13 14  1  0  0  0  0
 13 95  1  0  0  0  0
 14 15  1  0  0  0  0
 14 96  1  0  0  0  0
 15 16  1  0  0  0  0
 15 97  1  0  0  0  0
 16 17  1  0  0  0  0
 16 98  1  0  0  0  0
 17 18  1  0  0  0  0
 17 99  1  0  0  0  0
 18 19  1  0  0  0  0
 18100  1  0  0  0  0
 19 20  1  0  0  0  0
 19101  1  0  0  0  0
 20 21  1  0  0  0  0
 20102  1  0  0  0  0
 21 22  1  0  0  0  0
 21103  1  0  0  0  0
 22 23  1  0  0  0  0
 23 24  1  0  0  0  0
 23104  1  0  0  0  0
 24 25  1  0  0  0  0
 25 26  1  0  0  0  0
 25105  1  0  0  0  0
 26 27  1  0  0  0  0
 27 28  1  0  0  0  0
 27106  1  0  0  0  0
 28 29  1  0  0  0  0
 29 30  1  0  0  0  0
 29107  1  0  0  0  0
 30 31  1  0  0  0  0
 31 32  1  0  0  0  0
 32 33  1  0  0  0  0
 33 34  1  0  0  0  0
 34 35  1  0  0  0  0
 35 36  1  0  0  0  0
 36 37  1  0  0  0  0
 37 38  1  0  0  0  0
 38 39  1  0  0  0  0
 39 40  1  0  0  0  0
 40 41  1  0  0  0  0
 41 42  1  0  0  0  0
 42 43  1  0  0  0  0
 43 44  1  0  0  0  0
 44 45  1  0  0  0  0
 45 46  1  0  0  0  0
 46 47  1  0  0  0  0
 47 48  1  0  0  0  0
 48 49  1  0  0  0  0
 49 50  1  0  0  0  0
 50 51  1  0  0  0  0
 51 52  1  0  0  0  0
 52 53  1  0  0  0  0
 53 54  1  0  0  0  0
 54 55  1  0  0  0  0
 55 56  1  0  0  0  0
 56 57  1  0  0  0  0
 57 58  1  0  0  0  0
 58 59  1  0  0  0  0
 59 60  1  0  0  0  0
 60 61  1  0  0  0  0
 61 62  1  0  0  0  0
 62 63  1  0  0  0  0
 63 64  1  0  0  0  0
 64 65  1  0  0  0  0
 65 66  1  0  0  0  0
 66 67  1  0  0  0  0
 67 68  1  0  0  0  0
 68 69  1  0  0  0  0
 69 70  1  0  0  0  0
 70 71  1  0  0  0  0
 71 72  1  0  0  0  0
 72 73  1  0  0  0  0
 73 74  1  0  0  0  0
 74 75  1  0  0  0  0
 75 76  1  0  0  0  0
 76 77  1  0  0  0  0
 77 78  1  0  0  0  0
 78 79  1  0  0  0  0
 79 80  1  0  0  0  0
 80 81  1  0  0  0  0
 81108  1  0  0  0  0
M  END
$$$$
