
 OpenBabel04232216553D

238237  0  0  0  0  0  0  0  0999 V2000
    2.9112    0.2209   -1.4582 C   0  0  0  0  0  0  0  0  0  0  0  0
    2.4667   -0.1378   -0.1088 N   0  0  0  0  0  0  0  0  0  0  0  0
    0.9934   -0.1351   -0.0544 C   0  0  0  0  0  0  0  0  0  0  0  0
    0.4254   -0.3845    1.3510 C   0  0  0  0  0  0  0  0  0  0  0  0
    0.9331    0.6383    2.3656 C   0  0  0  0  0  0  0  0  0  0  0  0
    0.4045    0.3248    3.7607 C   0  0  0  0  0  0  0  0  0  0  0  0
    0.9007    1.3523    4.7629 C   0  0  0  0  0  0  0  0  0  0  0  0
    3.0023   -1.4401    0.3105 C   0  0  0  0  0  0  0  0  0  0  0  0
    4.5228   -1.4517    0.3763 C   0  0  0  0  0  0  0  0  0  0  0  0
    5.0109   -2.8184    0.8204 C   0  0  0  0  0  0  0  0  0  0  0  0
    6.5257   -2.8197    0.8221 C   0  0  0  0  0  0  0  0  0  0  0  0
    7.0378   -4.1776    1.2492 C   0  0  0  0  0  0  0  0  0  0  0  0
    8.5530   -4.1718    1.2515 C   0  0  0  0  0  0  0  0  0  0  0  0
    9.0633   -5.5320    1.6834 C   0  0  0  0  0  0  0  0  0  0  0  0
   10.5782   -5.5316    1.6916 C   0  0  0  0  0  0  0  0  0  0  0  0
   11.0867   -6.8921    2.1263 C   0  0  0  0  0  0  0  0  0  0  0  0
   12.6028   -6.8939    2.1337 C   0  0  0  0  0  0  0  0  0  0  0  0
   13.1123   -8.2549    2.5666 C   0  0  0  0  0  0  0  0  0  0  0  0
   14.6287   -8.2567    2.5754 C   0  0  0  0  0  0  0  0  0  0  0  0
   15.1385   -9.6172    3.0099 C   0  0  0  0  0  0  0  0  0  0  0  0
   16.6550   -9.6196    3.0173 C   0  0  0  0  0  0  0  0  0  0  0  0
   17.1655  -10.9799    3.4522 C   0  0  0  0  0  0  0  0  0  0  0  0
   18.6822  -10.9811    3.4611 C   0  0  0  0  0  0  0  0  0  0  0  0
   19.1928  -12.3414    3.8960 C   0  0  0  0  0  0  0  0  0  0  0  0
   20.7094  -12.3444    3.9032 C   0  0  0  0  0  0  0  0  0  0  0  0
   21.2187  -13.7046    4.3394 C   0  0  0  0  0  0  0  0  0  0  0  0
   22.7351  -13.7079    4.3472 C   0  0  0  0  0  0  0  0  0  0  0  0
   23.2450  -15.0678    4.7840 C   0  0  0  0  0  0  0  0  0  0  0  0
   24.7616  -15.0703    4.7913 C   0  0  0  0  0  0  0  0  0  0  0  0
   25.2716  -16.4306    5.2268 C   0  0  0  0  0  0  0  0  0  0  0  0
   26.7882  -16.4337    5.2325 C   0  0  0  0  0  0  0  0  0  0  0  0
   27.2985  -17.7943    5.6668 C   0  0  0  0  0  0  0  0  0  0  0  0
   28.8152  -17.7971    5.6718 C   0  0  0  0  0  0  0  0  0  0  0  0
   29.3256  -19.1577    6.1059 C   0  0  0  0  0  0  0  0  0  0  0  0
   30.8422  -19.1612    6.1116 C   0  0  0  0  0  0  0  0  0  0  0  0
   31.3518  -20.5224    6.5448 C   0  0  0  0  0  0  0  0  0  0  0  0
   32.8681  -20.5257    6.5503 C   0  0  0  0  0  0  0  0  0  0  0  0
   33.3778  -21.8867    6.9844 C   0  0  0  0  0  0  0  0  0  0  0  0
   34.8951  -21.8904    6.9880 C   0  0  0  0  0  0  0  0  0  0  0  0
   35.4038  -23.2523    7.4192 C   0  0  0  0  0  0  0  0  0  0  0  0
   36.9210  -23.2545    7.4215 C   0  0  0  0  0  0  0  0  0  0  0  0
   37.4352  -24.6206    7.8488 C   0  0  0  0  0  0  0  0  0  0  0  0
   38.9474  -24.6173    7.8528 C   0  0  0  0  0  0  0  0  0  0  0  0
   39.4598  -25.9807    8.2845 C   0  0  0  0  0  0  0  0  0  0  0  0
   40.9775  -25.9867    8.2856 C   0  0  0  0  0  0  0  0  0  0  0  0
   41.4844  -27.3499    8.7175 C   0  0  0  0  0  0  0  0  0  0  0  0
   43.0014  -27.3559    8.7177 C   0  0  0  0  0  0  0  0  0  0  0  0
   43.5112  -28.7176    9.1487 C   0  0  0  0  0  0  0  0  0  0  0  0
   45.0280  -28.7219    9.1501 C   0  0  0  0  0  0  0  0  0  0  0  0
   45.5383  -30.0835    9.5817 C   0  0  0  0  0  0  0  0  0  0  0  0
   47.0550  -30.0874    9.5852 C   0  0  0  0  0  0  0  0  0  0  0  0
   47.5648  -31.4486   10.0182 C   0  0  0  0  0  0  0  0  0  0  0  0
   49.0814  -31.4527   10.0216 C   0  0  0  0  0  0  0  0  0  0  0  0
   49.5913  -32.8133   10.4562 C   0  0  0  0  0  0  0  0  0  0  0  0
   51.1079  -32.8180   10.4579 C   0  0  0  0  0  0  0  0  0  0  0  0
   51.6179  -34.1780   10.8943 C   0  0  0  0  0  0  0  0  0  0  0  0
   53.1345  -34.1816   10.8981 C   0  0  0  0  0  0  0  0  0  0  0  0
   53.6448  -35.5412   11.3357 C   0  0  0  0  0  0  0  0  0  0  0  0
   55.1614  -35.5452   11.3383 C   0  0  0  0  0  0  0  0  0  0  0  0
   55.6714  -36.9047   11.7762 C   0  0  0  0  0  0  0  0  0  0  0  0
   57.1880  -36.9089   11.7792 C   0  0  0  0  0  0  0  0  0  0  0  0
   57.6976  -38.2688   12.2164 C   0  0  0  0  0  0  0  0  0  0  0  0
   59.2145  -38.2728   12.2204 C   0  0  0  0  0  0  0  0  0  0  0  0
   59.7245  -39.6326   12.6571 C   0  0  0  0  0  0  0  0  0  0  0  0
   61.2415  -39.6365   12.6604 C   0  0  0  0  0  0  0  0  0  0  0  0
   61.7512  -40.9965   13.0968 C   0  0  0  0  0  0  0  0  0  0  0  0
   63.2682  -41.0014   13.0997 C   0  0  0  0  0  0  0  0  0  0  0  0
   63.7795  -42.3605   13.5361 C   0  0  0  0  0  0  0  0  0  0  0  0
   65.2958  -42.3650   13.5393 C   0  0  0  0  0  0  0  0  0  0  0  0
   65.8057  -43.7265   13.9734 C   0  0  0  0  0  0  0  0  0  0  0  0
   67.3223  -43.7326   13.9771 C   0  0  0  0  0  0  0  0  0  0  0  0
   67.8341  -45.0936   14.4113 C   0  0  0  0  0  0  0  0  0  0  0  0
   69.3514  -45.0960   14.4171 C   0  0  0  0  0  0  0  0  0  0  0  0
   69.8644  -46.4582   14.8526 C   0  0  0  0  0  0  0  0  0  0  0  0
   71.3840  -46.4607   14.8624 C   0  0  0  0  0  0  0  0  0  0  0  0
   71.9006  -47.8245   15.2979 C   0  0  0  0  0  0  0  0  0  0  0  0
   73.4223  -47.8336   15.3010 C   0  0  0  0  0  0  0  0  0  0  0  0
   73.9508  -49.1932   15.7363 C   0  0  0  0  0  0  0  0  0  0  0  0
   75.4693  -49.1992   15.7403 C   0  0  0  0  0  0  0  0  0  0  0  0
    2.5291    1.2059   -1.7424 H   0  0  0  0  0  0  0  0  0  0  0  0
    2.5861   -0.5148   -2.2019 H   0  0  0  0  0  0  0  0  0  0  0  0
    4.0001    0.3115   -1.5160 H   0  0  0  0  0  0  0  0  0  0  0  0
    0.5827   -0.8859   -0.7415 H   0  0  0  0  0  0  0  0  0  0  0  0
    0.6251    0.8423   -0.3916 H   0  0  0  0  0  0  0  0  0  0  0  0
    0.6608   -1.3993    1.6894 H   0  0  0  0  0  0  0  0  0  0  0  0
   -0.6692   -0.3405    1.3003 H   0  0  0  0  0  0  0  0  0  0  0  0
    0.6189    1.6424    2.0601 H   0  0  0  0  0  0  0  0  0  0  0  0
    2.0300    0.6412    2.3975 H   0  0  0  0  0  0  0  0  0  0  0  0
    0.7336   -0.6742    4.0686 H   0  0  0  0  0  0  0  0  0  0  0  0
   -0.6918    0.3197    3.7513 H   0  0  0  0  0  0  0  0  0  0  0  0
    1.9962    1.3484    4.8109 H   0  0  0  0  0  0  0  0  0  0  0  0
    0.5135    1.1288    5.7595 H   0  0  0  0  0  0  0  0  0  0  0  0
    0.5737    2.3571    4.4818 H   0  0  0  0  0  0  0  0  0  0  0  0
    2.6418   -2.2396   -0.3506 H   0  0  0  0  0  0  0  0  0  0  0  0
    2.6636   -1.6832    1.3220 H   0  0  0  0  0  0  0  0  0  0  0  0
    4.8746   -0.6820    1.0743 H   0  0  0  0  0  0  0  0  0  0  0  0
    4.9667   -1.2410   -0.6006 H   0  0  0  0  0  0  0  0  0  0  0  0
    4.6377   -3.5891    0.1345 H   0  0  0  0  0  0  0  0  0  0  0  0
    4.6278   -3.0574    1.8199 H   0  0  0  0  0  0  0  0  0  0  0  0
    6.9003   -2.0439    1.5014 H   0  0  0  0  0  0  0  0  0  0  0  0
    6.9020   -2.5788   -0.1814 H   0  0  0  0  0  0  0  0  0  0  0  0
    6.6660   -4.9503    0.5648 H   0  0  0  0  0  0  0  0  0  0  0  0
    6.6609   -4.4203    2.2504 H   0  0  0  0  0  0  0  0  0  0  0  0
    8.9240   -3.3970    1.9335 H   0  0  0  0  0  0  0  0  0  0  0  0
    8.9294   -3.9299    0.2500 H   0  0  0  0  0  0  0  0  0  0  0  0
    8.6916   -6.3046    0.9998 H   0  0  0  0  0  0  0  0  0  0  0  0
    8.6825   -5.7728    2.6840 H   0  0  0  0  0  0  0  0  0  0  0  0
   10.9492   -4.7573    2.3747 H   0  0  0  0  0  0  0  0  0  0  0  0
   10.9581   -5.2912    0.6911 H   0  0  0  0  0  0  0  0  0  0  0  0
   10.7141   -7.6663    1.4442 H   0  0  0  0  0  0  0  0  0  0  0  0
   10.7068   -7.1313    3.1272 H   0  0  0  0  0  0  0  0  0  0  0  0
   12.9743   -6.1202    2.8167 H   0  0  0  0  0  0  0  0  0  0  0  0
   12.9821   -6.6531    1.1329 H   0  0  0  0  0  0  0  0  0  0  0  0
   12.7409   -9.0281    1.8828 H   0  0  0  0  0  0  0  0  0  0  0  0
   12.7317   -8.4960    3.5668 H   0  0  0  0  0  0  0  0  0  0  0  0
   14.9998   -7.4824    3.2582 H   0  0  0  0  0  0  0  0  0  0  0  0
   15.0088   -8.0164    1.5748 H   0  0  0  0  0  0  0  0  0  0  0  0
   14.7663  -10.3916    2.3279 H   0  0  0  0  0  0  0  0  0  0  0  0
   14.7590   -9.8566    4.0110 H   0  0  0  0  0  0  0  0  0  0  0  0
   17.0270   -8.8449    3.6992 H   0  0  0  0  0  0  0  0  0  0  0  0
   17.0344   -9.3802    2.0162 H   0  0  0  0  0  0  0  0  0  0  0  0
   16.7946  -11.7544    2.7694 H   0  0  0  0  0  0  0  0  0  0  0  0
   16.7851  -11.2201    4.4527 H   0  0  0  0  0  0  0  0  0  0  0  0
   19.0529  -10.2065    4.1436 H   0  0  0  0  0  0  0  0  0  0  0  0
   19.0623  -10.7412    2.4605 H   0  0  0  0  0  0  0  0  0  0  0  0
   18.8208  -13.1159    3.2142 H   0  0  0  0  0  0  0  0  0  0  0  0
   18.8135  -12.5807    4.8972 H   0  0  0  0  0  0  0  0  0  0  0  0
   21.0822  -11.5693    4.5841 H   0  0  0  0  0  0  0  0  0  0  0  0
   21.0887  -12.1065    2.9017 H   0  0  0  0  0  0  0  0  0  0  0  0
   20.8462  -14.4798    3.6581 H   0  0  0  0  0  0  0  0  0  0  0  0
   20.8387  -13.9432    5.3407 H   0  0  0  0  0  0  0  0  0  0  0  0
   23.1073  -12.9325    5.0281 H   0  0  0  0  0  0  0  0  0  0  0  0
   23.1146  -13.4701    3.3458 H   0  0  0  0  0  0  0  0  0  0  0  0
   22.8729  -15.8433    4.1031 H   0  0  0  0  0  0  0  0  0  0  0  0
   22.8655  -15.3058    5.7854 H   0  0  0  0  0  0  0  0  0  0  0  0
   25.1339  -14.2952    5.4725 H   0  0  0  0  0  0  0  0  0  0  0  0
   25.1407  -14.8318    3.7899 H   0  0  0  0  0  0  0  0  0  0  0  0
   24.8986  -17.2054    4.5457 H   0  0  0  0  0  0  0  0  0  0  0  0
   24.8931  -16.6691    6.2284 H   0  0  0  0  0  0  0  0  0  0  0  0
   27.1615  -15.6592    5.9138 H   0  0  0  0  0  0  0  0  0  0  0  0
   27.1665  -16.1947    4.2309 H   0  0  0  0  0  0  0  0  0  0  0  0
   26.9252  -18.5688    4.9855 H   0  0  0  0  0  0  0  0  0  0  0  0
   26.9205  -18.0335    6.6685 H   0  0  0  0  0  0  0  0  0  0  0  0
   29.1885  -17.0226    6.3531 H   0  0  0  0  0  0  0  0  0  0  0  0
   29.1931  -17.5579    4.6701 H   0  0  0  0  0  0  0  0  0  0  0  0
   28.9524  -19.9321    5.4244 H   0  0  0  0  0  0  0  0  0  0  0  0
   28.9474  -19.3969    7.1075 H   0  0  0  0  0  0  0  0  0  0  0  0
   31.2156  -18.3875    6.7939 H   0  0  0  0  0  0  0  0  0  0  0  0
   31.2209  -18.9212    5.1104 H   0  0  0  0  0  0  0  0  0  0  0  0
   30.9782  -21.2962    5.8628 H   0  0  0  0  0  0  0  0  0  0  0  0
   30.9733  -20.7622    7.5462 H   0  0  0  0  0  0  0  0  0  0  0  0
   33.2420  -19.7515    7.2315 H   0  0  0  0  0  0  0  0  0  0  0  0
   33.2464  -20.2871    5.5485 H   0  0  0  0  0  0  0  0  0  0  0  0
   33.0037  -22.6609    6.3043 H   0  0  0  0  0  0  0  0  0  0  0  0
   33.0013  -22.1249    7.9869 H   0  0  0  0  0  0  0  0  0  0  0  0
   35.2696  -21.1169    7.6694 H   0  0  0  0  0  0  0  0  0  0  0  0
   35.2717  -21.6502    5.9858 H   0  0  0  0  0  0  0  0  0  0  0  0
   35.0283  -24.0251    6.7389 H   0  0  0  0  0  0  0  0  0  0  0  0
   35.0284  -23.4911    8.4221 H   0  0  0  0  0  0  0  0  0  0  0  0
   37.2954  -22.4836    8.1025 H   0  0  0  0  0  0  0  0  0  0  0  0
   37.2952  -23.0154    6.4185 H   0  0  0  0  0  0  0  0  0  0  0  0
   37.0564  -25.3907    7.1712 H   0  0  0  0  0  0  0  0  0  0  0  0
   37.0569  -24.8549    8.8566 H   0  0  0  0  0  0  0  0  0  0  0  0
   39.3215  -23.8469    8.5386 H   0  0  0  0  0  0  0  0  0  0  0  0
   39.3239  -24.3768    6.8529 H   0  0  0  0  0  0  0  0  0  0  0  0
   39.0831  -26.7524    7.6009 H   0  0  0  0  0  0  0  0  0  0  0  0
   39.0829  -26.2201    9.2862 H   0  0  0  0  0  0  0  0  0  0  0  0
   41.3561  -25.2139    8.9647 H   0  0  0  0  0  0  0  0  0  0  0  0
   41.3531  -25.7488    7.2828 H   0  0  0  0  0  0  0  0  0  0  0  0
   41.1073  -28.1225    8.0369 H   0  0  0  0  0  0  0  0  0  0  0  0
   41.1087  -27.5891    9.7202 H   0  0  0  0  0  0  0  0  0  0  0  0
   43.3778  -26.5825    9.3984 H   0  0  0  0  0  0  0  0  0  0  0  0
   43.3759  -27.1162    7.7152 H   0  0  0  0  0  0  0  0  0  0  0  0
   43.1355  -29.4907    8.4672 H   0  0  0  0  0  0  0  0  0  0  0  0
   43.1356  -28.9577   10.1510 H   0  0  0  0  0  0  0  0  0  0  0  0
   45.4037  -27.9485    9.8313 H   0  0  0  0  0  0  0  0  0  0  0  0
   45.4038  -28.4822    8.1478 H   0  0  0  0  0  0  0  0  0  0  0  0
   45.1638  -30.8568    8.8998 H   0  0  0  0  0  0  0  0  0  0  0  0
   45.1615  -30.3239   10.5835 H   0  0  0  0  0  0  0  0  0  0  0  0
   47.4295  -29.3136   10.2666 H   0  0  0  0  0  0  0  0  0  0  0  0
   47.4322  -29.8479    8.5833 H   0  0  0  0  0  0  0  0  0  0  0  0
   47.1901  -32.2226    9.3370 H   0  0  0  0  0  0  0  0  0  0  0  0
   47.1878  -31.6879   11.0202 H   0  0  0  0  0  0  0  0  0  0  0  0
   49.4562  -30.6780   10.7019 H   0  0  0  0  0  0  0  0  0  0  0  0
   49.4583  -31.2144    9.0193 H   0  0  0  0  0  0  0  0  0  0  0  0
   49.2156  -33.5883    9.7768 H   0  0  0  0  0  0  0  0  0  0  0  0
   49.2153  -33.0507   11.4591 H   0  0  0  0  0  0  0  0  0  0  0  0
   51.4837  -32.0422   11.1364 H   0  0  0  0  0  0  0  0  0  0  0  0
   51.4839  -32.5817    9.4547 H   0  0  0  0  0  0  0  0  0  0  0  0
   51.2435  -34.9537   10.2149 H   0  0  0  0  0  0  0  0  0  0  0  0
   51.2407  -34.4150   11.8968 H   0  0  0  0  0  0  0  0  0  0  0  0
   53.5088  -33.4054   11.5769 H   0  0  0  0  0  0  0  0  0  0  0  0
   53.5117  -33.9454    9.8955 H   0  0  0  0  0  0  0  0  0  0  0  0
   53.2699  -36.3174   10.6572 H   0  0  0  0  0  0  0  0  0  0  0  0
   53.2682  -35.7771   12.3386 H   0  0  0  0  0  0  0  0  0  0  0  0
   55.5366  -34.7686   12.0163 H   0  0  0  0  0  0  0  0  0  0  0  0
   55.5378  -35.3097   10.3352 H   0  0  0  0  0  0  0  0  0  0  0  0
   55.2964  -37.6811   11.0979 H   0  0  0  0  0  0  0  0  0  0  0  0
   55.2947  -37.1404   12.7791 H   0  0  0  0  0  0  0  0  0  0  0  0
   57.5628  -36.1329   12.4580 H   0  0  0  0  0  0  0  0  0  0  0  0
   57.5649  -36.6727   10.7765 H   0  0  0  0  0  0  0  0  0  0  0  0
   57.3232  -39.0447   11.5374 H   0  0  0  0  0  0  0  0  0  0  0  0
   57.3204  -38.5052   13.2191 H   0  0  0  0  0  0  0  0  0  0  0  0
   59.5887  -37.4968   12.8994 H   0  0  0  0  0  0  0  0  0  0  0  0
   59.5915  -38.0361   11.2177 H   0  0  0  0  0  0  0  0  0  0  0  0
   59.3502  -40.4084   11.9782 H   0  0  0  0  0  0  0  0  0  0  0  0
   59.3477  -39.8691   13.6598 H   0  0  0  0  0  0  0  0  0  0  0  0
   61.6159  -38.8606   13.3396 H   0  0  0  0  0  0  0  0  0  0  0  0
   61.6182  -39.3995   11.6579 H   0  0  0  0  0  0  0  0  0  0  0  0
   61.3766  -41.7721   12.4176 H   0  0  0  0  0  0  0  0  0  0  0  0
   61.3748  -41.2332   14.0995 H   0  0  0  0  0  0  0  0  0  0  0  0
   63.6432  -40.2246   13.7777 H   0  0  0  0  0  0  0  0  0  0  0  0
   63.6446  -40.7665   12.0962 H   0  0  0  0  0  0  0  0  0  0  0  0
   63.4042  -43.1367   12.8575 H   0  0  0  0  0  0  0  0  0  0  0  0
   63.4003  -42.5986   14.5416 H   0  0  0  0  0  0  0  0  0  0  0  0
   65.6708  -41.5906   14.2200 H   0  0  0  0  0  0  0  0  0  0  0  0
   65.6729  -42.1259   12.5372 H   0  0  0  0  0  0  0  0  0  0  0  0
   65.4301  -44.5008   13.2930 H   0  0  0  0  0  0  0  0  0  0  0  0
   65.4283  -43.9641   14.9756 H   0  0  0  0  0  0  0  0  0  0  0  0
   67.6967  -42.9583   14.6580 H   0  0  0  0  0  0  0  0  0  0  0  0
   67.6996  -43.4934   12.9750 H   0  0  0  0  0  0  0  0  0  0  0  0
   67.4608  -45.8692   13.7314 H   0  0  0  0  0  0  0  0  0  0  0  0
   67.4561  -45.3319   15.4139 H   0  0  0  0  0  0  0  0  0  0  0  0
   69.7234  -44.3196   15.0970 H   0  0  0  0  0  0  0  0  0  0  0  0
   69.7288  -44.8576   13.4149 H   0  0  0  0  0  0  0  0  0  0  0  0
   69.4927  -47.2306   14.1717 H   0  0  0  0  0  0  0  0  0  0  0  0
   69.4834  -46.6949   15.8549 H   0  0  0  0  0  0  0  0  0  0  0  0
   71.7548  -45.6871   15.5405 H   0  0  0  0  0  0  0  0  0  0  0  0
   71.7595  -46.2241   13.8606 H   0  0  0  0  0  0  0  0  0  0  0  0
   71.5248  -48.5983   14.6172 H   0  0  0  0  0  0  0  0  0  0  0  0
   71.5222  -48.0621   16.3001 H   0  0  0  0  0  0  0  0  0  0  0  0
   73.7937  -47.0547   15.9782 H   0  0  0  0  0  0  0  0  0  0  0  0
   73.7936  -47.5936   14.2971 H   0  0  0  0  0  0  0  0  0  0  0  0
   73.5834  -49.9728   15.0581 H   0  0  0  0  0  0  0  0  0  0  0  0
   73.5814  -49.4344   16.7398 H   0  0  0  0  0  0  0  0  0  0  0  0
   75.8598  -48.9857   14.7407 H   0  0  0  0  0  0  0  0  0  0  0  0
   75.8433  -50.1780   16.0541 H   0  0  0  0  0  0  0  0  0  0  0  0
   75.8576  -48.4446   16.4297 H   0  0  0  0  0  0  0  0  0  0  0  0
  1  2  1  0  0  0  0
  1 80  1  0  0  0  0
  1 81  1  0  0  0  0
  1 82  1  0  0  0  0
  2  3  1  0  0  0  0
  2  8  1  0  0  0  0
  3  4  1  0  0  0  0
  3 83  1  0  0  0  0
  3 84  1  0  0  0  0
  4  5  1  0  0  0  0
  4 85  1  0  0  0  0
  4 86  1  0  0  0  0
  5  6  1  0  0  0  0
  5 87  1  0  0  0  0
  5 88  1  0  0  0  0
  6  7  1  0  0  0  0
  6 89  1  0  0  0  0
  6 90  1  0  0  0  0
  7 91  1  0  0  0  0
  7 92  1  0  0  0  0
  7 93  1  0  0  0  0
  8  9  1  0  0  0  0
  8 94  1  0  0  0  0
  8 95  1  0  0  0  0
  9 10  1  0  0  0  0
  9 96  1  0  0  0  0
  9 97  1  0  0  0  0
 10 11  1  0  0  0  0
 10 98  1  0  0  0  0
 10 99  1  0  0  0  0
 11 12  1  0  0  0  0
 11100  1  0  0  0  0
 11101  1  0  0  0  0
 12 13  1  0  0  0  0
 12102  1  0  0  0  0
 12103  1  0  0  0  0
 13 14  1  0  0  0  0
 13104  1  0  0  0  0
 13105  1  0  0  0  0
 14 15  1  0  0  0  0
 14106  1  0  0  0  0
 14107  1  0  0  0  0
 15 16  1  0  0  0  0
 15108  1  0  0  0  0
 15109  1  0  0  0  0
 16 17  1  0  0  0  0
 16110  1  0  0  0  0
 16111  1  0  0  0  0
 17 18  1  0  0  0  0
 17112  1  0  0  0  0
 17113  1  0  0  0  0
 18 19  1  0  0  0  0
 18114  1  0  0  0  0
 18115  1  0  0  0  0
 19 20  1  0  0  0  0
 19116  1  0  0  0  0
 19117  1  0  0  0  0
 20 21  1  0  0  0  0
 20118  1  0  0  0  0
 20119  1  0  0  0  0
 21 22  1  0  0  0  0
 21120  1  0  0  0  0
 21121  1  0  0  0  0
 22 23  1  0  0  0  0
 22122  1  0  0  0  0
 22123  1  0  0  0  0
 23 24  1  0  0  0  0
 23124  1  0  0  0  0
 23125  1  0  0  0  0
 24 25  1  0  0  0  0
 24126  1  0  0  0  0
 24127  1  0  0  0  0
 25 26  1  0  0  0  0
 25128  1  0  0  0  0
 25129  1  0  0  0  0
 26 27  1  0  0  0  0
 26130  1  0  0  0  0
 26131  1  0  0  0  0
 27 28  1  0  0  0  0
 27132  1  0  0  0  0
 27133  1  0  0  0  0
 28 29  1  0  0  0  0
 28134  1  0  0  0  0
 28135  1  0  0  0  0
 29 30  1  0  0  0  0
 29136  1  0  0  0  0
 29137  1  0  0  0  0
 30 31  1  0  0  0  0
 30138  1  0  0  0  0
 30139  1  0  0  0  0
 31 32  1  0  0  0  0
 31140  1  0  0  0  0
 31141  1  0  0  0  0
 32 33  1  0  0  0  0
 32142  1  0  0  0  0
 32143  1  0  0  0  0
 33 34  1  0  0  0  0
 33144  1  0  0  0  0
 33145  1  0  0  0  0
 34 35  1  0  0  0  0
 34146  1  0  0  0  0
 34147  1  0  0  0  0
 35 36  1  0  0  0  0
 35148  1  0  0  0  0
 35149  1  0  0  0  0
 36 37  1  0  0  0  0
 36150  1  0  0  0  0
 36151  1  0  0  0  0
 37 38  1  0  0  0  0
 37152  1  0  0  0  0
 37153  1  0  0  0  0
 38 39  1  0  0  0  0
 38154  1  0  0  0  0
 38155  1  0  0  0  0
 39 40  1  0  0  0  0
 39156  1  0  0  0  0
 39157  1  0  0  0  0
 40 41  1  0  0  0  0
 40158  1  0  0  0  0
 40159  1  0  0  0  0
 41 42  1  0  0  0  0
 41160  1  0  0  0  0
 41161  1  0  0  0  0
 42 43  1  0  0  0  0
 42162  1  0  0  0  0
 42163  1  0  0  0  0
 43 44  1  0  0  0  0
 43164  1  0  0  0  0
 43165  1  0  0  0  0
 44 45  1  0  0  0  0
 44166  1  0  0  0  0
 44167  1  0  0  0  0
 45 46  1  0  0  0  0
 45168  1  0  0  0  0
 45169  1  0  0  0  0
 46 47  1  0  0  0  0
 46170  1  0  0  0  0
 46171  1  0  0  0  0
 47 48  1  0  0  0  0
 47172  1  0  0  0  0
 47173  1  0  0  0  0
 48 49  1  0  0  0  0
 48174  1  0  0  0  0
 48175  1  0  0  0  0
 49 50  1  0  0  0  0
 49176  1  0  0  0  0
 49177  1  0  0  0  0
 50 51  1  0  0  0  0
 50178  1  0  0  0  0
 50179  1  0  0  0  0
 51 52  1  0  0  0  0
 51180  1  0  0  0  0
 51181  1  0  0  0  0
 52 53  1  0  0  0  0
 52182  1  0  0  0  0
 52183  1  0  0  0  0
 53 54  1  0  0  0  0
 53184  1  0  0  0  0
 53185  1  0  0  0  0
 54 55  1  0  0  0  0
 54186  1  0  0  0  0
 54187  1  0  0  0  0
 55 56  1  0  0  0  0
 55188  1  0  0  0  0
 55189  1  0  0  0  0
 56 57  1  0  0  0  0
 56190  1  0  0  0  0
 56191  1  0  0  0  0
 57 58  1  0  0  0  0
 57192  1  0  0  0  0
 57193  1  0  0  0  0
 58 59  1  0  0  0  0
 58194  1  0  0  0  0
 58195  1  0  0  0  0
 59 60  1  0  0  0  0
 59196  1  0  0  0  0
 59197  1  0  0  0  0
 60 61  1  0  0  0  0
 60198  1  0  0  0  0
 60199  1  0  0  0  0
 61 62  1  0  0  0  0
 61200  1  0  0  0  0
 61201  1  0  0  0  0
 62 63  1  0  0  0  0
 62202  1  0  0  0  0
 62203  1  0  0  0  0
 63 64  1  0  0  0  0
 63204  1  0  0  0  0
 63205  1  0  0  0  0
 64 65  1  0  0  0  0
 64206  1  0  0  0  0
 64207  1  0  0  0  0
 65 66  1  0  0  0  0
 65208  1  0  0  0  0
 65209  1  0  0  0  0
 66 67  1  0  0  0  0
 66210  1  0  0  0  0
 66211  1  0  0  0  0
 67 68  1  0  0  0  0
 67212  1  0  0  0  0
 67213  1  0  0  0  0
 68 69  1  0  0  0  0
 68214  1  0  0  0  0
 68215  1  0  0  0  0
 69 70  1  0  0  0  0
 69216  1  0  0  0  0
 69217  1  0  0  0  0
 70 71  1  0  0  0  0
 70218  1  0  0  0  0
 70219  1  0  0  0  0
 71 72  1  0  0  0  0
 71220  1  0  0  0  0
 71221  1  0  0  0  0
 72 73  1  0  0  0  0
 72222  1  0  0  0  0
 72223  1  0  0  0  0
 73 74  1  0  0  0  0
 73224  1  0  0  0  0
 73225  1  0  0  0  0
 74 75  1  0  0  0  0
 74226  1  0  0  0  0
 74227  1  0  0  0  0
 75 76  1  0  0  0  0
 75228  1  0  0  0  0
 75229  1  0  0  0  0
 76 77  1  0  0  0  0
 76230  1  0  0  0  0
 76231  1  0  0  0  0
 77 78  1  0  0  0  0
 77232  1  0  0  0  0
 77233  1  0  0  0  0
 78 79  1  0  0  0  0
 78234  1  0  0  0  0
 78235  1  0  0  0  0
 79236  1  0  0  0  0
 79237  1  0  0  0  0
 79238  1  0  0  0  0
M  END
$$$$
