
 OpenBabel04232216503D

 44 46  0  0  0  0  0  0  0  0999 V2000
    3.7377    1.0845   -1.3455 C   0  0  0  0  0  0  0  0  0  0  0  0
    4.8329    0.6766   -0.3983 C   0  0  0  0  0  0  0  0  0  0  0  0
    4.3324    0.1029    0.7987 N   0  0  0  0  0  0  0  0  0  0  0  0
    4.0069    0.9868    1.9334 C   0  0  0  0  0  0  0  0  0  0  0  0
    5.1412    1.7402    2.3475 O   0  0  0  0  0  0  0  0  0  0  0  0
    4.9997   -1.1828    1.1038 N   0  0  0  0  0  0  0  0  0  0  0  0
    4.8082   -2.0773   -0.1216 C   0  0  0  0  0  0  0  0  0  0  0  0
    4.8662   -3.6120   -0.0127 C   0  0  0  0  0  0  0  0  0  0  0  0
    4.7804   -4.2429   -1.4538 C   0  0  0  0  0  0  0  0  0  0  0  0
    6.0744   -4.6377   -1.9966 C   0  0  0  0  0  0  0  0  0  0  0  0
    6.5282   -5.1446   -3.1392 C   0  0  0  0  0  0  0  0  0  0  0  0
    5.9733   -5.5624   -4.3886 C   0  0  0  0  0  0  0  0  0  0  0  0
    4.7538   -5.5844   -4.9125 C   0  0  0  0  0  0  0  0  0  0  0  0
    3.4682   -5.2038   -4.4207 C   0  0  0  0  0  0  0  0  0  0  0  0
    3.0060   -4.7073   -3.2738 C   0  0  0  0  0  0  0  0  0  0  0  0
    3.5571   -4.3139   -2.0065 C   0  0  0  0  0  0  0  0  0  0  0  0
    6.3085   -0.8845    1.4272 N   0  0  0  0  0  0  0  0  0  0  0  0
    6.8569   -0.0579    0.5777 C   0  0  0  0  0  0  0  0  0  0  0  0
    8.2672    0.3733    0.6905 C   0  0  0  0  0  0  0  0  0  0  0  0
    8.9283    0.5054   -0.4706 C   0  0  0  0  0  0  0  0  0  0  0  0
    8.2633    0.2889   -1.7469 C   0  0  0  0  0  0  0  0  0  0  0  0
    6.9271    0.4283   -1.8623 C   0  0  0  0  0  0  0  0  0  0  0  0
    6.1520    0.5055   -0.6435 C   0  0  0  0  0  0  0  0  0  0  0  0
    3.3258    2.0556   -1.0513 H   0  0  0  0  0  0  0  0  0  0  0  0
    2.9103    0.3625   -1.2850 H   0  0  0  0  0  0  0  0  0  0  0  0
    4.0527    1.1270   -2.3892 H   0  0  0  0  0  0  0  0  0  0  0  0
    3.6510    0.4145    2.7951 H   0  0  0  0  0  0  0  0  0  0  0  0
    3.2249    1.6974    1.6481 H   0  0  0  0  0  0  0  0  0  0  0  0
    5.8034    1.0454    2.5139 H   0  0  0  0  0  0  0  0  0  0  0  0
    5.5618   -1.8312   -0.8787 H   0  0  0  0  0  0  0  0  0  0  0  0
    3.8349   -1.8327   -0.5663 H   0  0  0  0  0  0  0  0  0  0  0  0
    4.0239   -3.9606    0.5959 H   0  0  0  0  0  0  0  0  0  0  0  0
    5.7780   -3.9240    0.5028 H   0  0  0  0  0  0  0  0  0  0  0  0
    6.8770   -4.4503   -1.2776 H   0  0  0  0  0  0  0  0  0  0  0  0
    7.6128   -5.3029   -3.1481 H   0  0  0  0  0  0  0  0  0  0  0  0
    6.7510   -5.9477   -5.0545 H   0  0  0  0  0  0  0  0  0  0  0  0
    4.6918   -5.9844   -5.9291 H   0  0  0  0  0  0  0  0  0  0  0  0
    2.6954   -5.3643   -5.1918 H   0  0  0  0  0  0  0  0  0  0  0  0
    1.9183   -4.5463   -3.2738 H   0  0  0  0  0  0  0  0  0  0  0  0
    2.7490   -3.9464   -1.3716 H   0  0  0  0  0  0  0  0  0  0  0  0
    8.6958    0.5335    1.6688 H   0  0  0  0  0  0  0  0  0  0  0  0
    9.9775    0.7800   -0.4791 H   0  0  0  0  0  0  0  0  0  0  0  0
    8.8793   -0.0083   -2.5903 H   0  0  0  0  0  0  0  0  0  0  0  0
    6.4185    0.2350   -2.8001 H   0  0  0  0  0  0  0  0  0  0  0  0
  1  2  1  0  0  0  0
  1 24  1  0  0  0  0
  1 25  1  0  0  0  0
  1 26  1  0  0  0  0
  2  3  1  0  0  0  0
  2 23  2  0  0  0  0
  3  4  1  0  0  0  0
  3  6  1  0  0  0  0
  4  5  1  0  0  0  0
  4 27  1  0  0  0  0
  4 28  1  0  0  0  0
  5 29  1  0  0  0  0
  6  7  1  0  0  0  0
  6 17  1  0  0  0  0
  7  8  1  0  0  0  0
  7 30  1  0  0  0  0
  7 31  1  0  0  0  0
  8  9  1  0  0  0  0
  8 32  1  0  0  0  0
  8 33  1  0  0  0  0
  9 10  1  0  0  0  0
  9 16  2  0  0  0  0
 10 11  2  0  0  0  0
 10 34  1  0  0  0  0
 11 12  1  0  0  0  0
 11 35  1  0  0  0  0
 12 13  2  0  0  0  0
 12 36  1  0  0  0  0
 13 14  1  0  0  0  0
 13 37  1  0  0  0  0
 14 15  2  0  0  0  0
 14 38  1  0  0  0  0
 15 16  1  0  0  0  0
 15 39  1  0  0  0  0
 16 40  1  0  0  0  0
 17 18  2  0  0  0  0
 18 19  1  0  0  0  0
 18 23  1  0  0  0  0
 19 20  2  0  0  0  0
 19 41  1  0  0  0  0
 20 21  1  0  0  0  0
 20 42  1  0  0  0  0
 21 22  2  0  0  0  0
 21 43  1  0  0  0  0
 22 23  1  0  0  0  0
 22 44  1  0  0  0  0
M  END
$$$$
