
 OpenBabel04232216563D

162162  0  0  0  0  0  0  0  0999 V2000
  -21.1781  -20.7567  -18.4928 C   0  0  0  0  0  0  0  0  0  0  0  0
  -22.6506  -20.6439  -18.5963 N   0  0  0  0  0  0  0  0  0  0  0  0
  -23.1978  -20.6621  -19.8761 C   0  0  0  0  0  0  0  0  0  0  0  0
  -24.4607  -20.5842  -20.3297 C   0  0  0  0  0  0  0  0  0  0  0  0
  -25.6594  -20.4489  -19.5357 C   0  0  0  0  0  0  0  0  0  0  0  0
  -25.7667  -20.3807  -18.2209 C   0  0  0  0  0  0  0  0  0  0  0  0
  -24.7289  -20.4177  -17.2320 C   0  0  0  0  0  0  0  0  0  0  0  0
  -23.3677  -20.5252  -17.4013 C   0  0  0  0  0  0  0  0  0  0  0  0
  -22.5949  -20.5566  -16.1042 C   0  0  0  0  0  0  0  0  0  0  0  0
  -21.6677  -19.4307  -16.1013 O   0  0  0  0  0  0  0  0  0  0  0  0
  -20.8730  -19.4662  -14.9234 C   0  0  0  0  0  0  0  0  0  0  0  0
  -20.1360  -20.6817  -14.8600 O   0  0  0  0  0  0  0  0  0  0  0  0
  -19.3641  -20.6948  -13.6713 C   0  0  0  0  0  0  0  0  0  0  0  0
  -18.6044  -21.9954  -13.6120 C   0  0  0  0  0  0  0  0  0  0  0  0
  -17.7676  -22.0134  -12.3522 C   0  0  0  0  0  0  0  0  0  0  0  0
  -16.9964  -23.3082  -12.2680 C   0  0  0  0  0  0  0  0  0  0  0  0
  -16.1679  -23.3062  -11.0082 C   0  0  0  0  0  0  0  0  0  0  0  0
  -15.4079  -24.5939  -10.9309 C   0  0  0  0  0  0  0  0  0  0  0  0
  -14.5948  -24.5765   -9.6855 C   0  0  0  0  0  0  0  0  0  0  0  0
  -13.9457  -25.8049   -9.7307 O   0  0  0  0  0  0  0  0  0  0  0  0
  -13.1881  -25.7667   -8.5521 O   0  0  0  0  0  0  0  0  0  0  0  0
  -12.4851  -26.9622   -8.4882 O   0  0  0  0  0  0  0  0  0  0  0  0
  -11.7361  -26.9293   -7.3229 O   0  0  0  0  0  0  0  0  0  0  0  0
  -11.0458  -28.1293   -7.2819 O   0  0  0  0  0  0  0  0  0  0  0  0
  -10.2972  -28.1061   -6.1256 O   0  0  0  0  0  0  0  0  0  0  0  0
   -9.6135  -29.3061   -6.0948 O   0  0  0  0  0  0  0  0  0  0  0  0
   -8.8670  -29.2776   -4.9372 O   0  0  0  0  0  0  0  0  0  0  0  0
   -8.1823  -30.4715   -4.8996 O   0  0  0  0  0  0  0  0  0  0  0  0
   -7.4330  -30.4346   -3.7308 O   0  0  0  0  0  0  0  0  0  0  0  0
   -6.7480  -31.6258   -3.6905 O   0  0  0  0  0  0  0  0  0  0  0  0
   -5.9955  -31.5991   -2.5253 O   0  0  0  0  0  0  0  0  0  0  0  0
   -5.3091  -32.8009   -2.4918 O   0  0  0  0  0  0  0  0  0  0  0  0
   -4.5435  -32.8056   -1.3330 O   0  0  0  0  0  0  0  0  0  0  0  0
   -3.8543  -34.0288   -1.3129 O   0  0  0  0  0  0  0  0  0  0  0  0
   -3.1333  -33.9262   -0.1328 C   0  0  0  0  0  0  0  0  0  0  0  0
   -2.4122  -35.1176   -0.0299 O   0  0  0  0  0  0  0  0  0  0  0  0
   -1.6416  -35.0964    1.1464 C   0  0  0  0  0  0  0  0  0  0  0  0
   -0.9044  -36.3991    1.1850 C   0  0  0  0  0  0  0  0  0  0  0  0
   -0.0796  -36.4719    0.0191 O   0  0  0  0  0  0  0  0  0  0  0  0
    0.6437  -37.6897    0.0111 C   0  0  0  0  0  0  0  0  0  0  0  0
   -0.2439  -38.7977   -0.0061 O   0  0  0  0  0  0  0  0  0  0  0  0
    0.5007  -39.9976    0.0091 C   0  0  0  0  0  0  0  0  0  0  0  0
   -0.4638  -41.1603    0.0118 C   0  0  0  0  0  0  0  0  0  0  0  0
    0.3158  -42.4616    0.0118 C   0  0  0  0  0  0  0  0  0  0  0  0
   -0.6357  -43.6420    0.0134 C   0  0  0  0  0  0  0  0  0  0  0  0
    0.1501  -44.9401    0.0133 C   0  0  0  0  0  0  0  0  0  0  0  0
   -0.8033  -46.1199    0.0148 C   0  0  0  0  0  0  0  0  0  0  0  0
   -0.0179  -47.4175    0.0147 C   0  0  0  0  0  0  0  0  0  0  0  0
   -0.9711  -48.5971    0.0143 C   0  0  0  0  0  0  0  0  0  0  0  0
   -0.1860  -49.8948    0.0162 C   0  0  0  0  0  0  0  0  0  0  0  0
   -1.1393  -51.0746    0.0137 C   0  0  0  0  0  0  0  0  0  0  0  0
   -0.3533  -52.3720    0.0157 C   0  0  0  0  0  0  0  0  0  0  0  0
   -1.3076  -53.5511    0.0111 C   0  0  0  0  0  0  0  0  0  0  0  0
   -0.5230  -54.8494    0.0130 C   0  0  0  0  0  0  0  0  0  0  0  0
   -1.4764  -56.0287    0.0086 C   0  0  0  0  0  0  0  0  0  0  0  0
   -0.6916  -57.3266    0.0105 C   0  0  0  0  0  0  0  0  0  0  0  0
   -1.6455  -58.5059    0.0040 C   0  0  0  0  0  0  0  0  0  0  0  0
   -0.8605  -59.8039    0.0039 C   0  0  0  0  0  0  0  0  0  0  0  0
   -1.8150  -60.9834   -0.0027 C   0  0  0  0  0  0  0  0  0  0  0  0
   -1.0323  -62.2814   -0.0028 C   0  0  0  0  0  0  0  0  0  0  0  0
   -1.9797  -63.4654   -0.0093 C   0  0  0  0  0  0  0  0  0  0  0  0
   -1.1772  -64.7442   -0.0088 C   0  0  0  0  0  0  0  0  0  0  0  0
   -2.0742  -65.8353   -0.0080 O   0  0  0  0  0  0  0  0  0  0  0  0
   -1.3476  -67.0519   -0.0167 C   0  0  0  0  0  0  0  0  0  0  0  0
   -2.2256  -68.1497   -0.0212 O   0  0  0  0  0  0  0  0  0  0  0  0
   -3.0502  -68.0806   -1.1762 C   0  0  0  0  0  0  0  0  0  0  0  0
   -3.9370  -69.1791   -1.1757 O   0  0  0  0  0  0  0  0  0  0  0  0
   -4.6559  -68.9768    0.0472 O   0  0  0  0  0  0  0  0  0  0  0  0
   -5.5388  -70.0479    0.1294 C   0  0  0  0  0  0  0  0  0  0  0  0
   -6.2418  -69.8420    1.3103 O   0  0  0  0  0  0  0  0  0  0  0  0
   -7.1195  -70.9401    1.3487 O   0  0  0  0  0  0  0  0  0  0  0  0
   -7.8735  -70.8040    2.5179 O   0  0  0  0  0  0  0  0  0  0  0  0
   -8.7595  -71.8790    2.5917 O   0  0  0  0  0  0  0  0  0  0  0  0
   -9.4976  -71.7134    3.7702 O   0  0  0  0  0  0  0  0  0  0  0  0
  -10.3916  -72.7882    3.8543 O   0  0  0  0  0  0  0  0  0  0  0  0
  -11.1332  -72.6516    5.0357 O   0  0  0  0  0  0  0  0  0  0  0  0
  -12.0307  -73.7508    5.1118 O   0  0  0  0  0  0  0  0  0  0  0  0
  -12.8123  -73.6003    6.2923 O   0  0  0  0  0  0  0  0  0  0  0  0
  -13.5333  -72.3466    6.2295 O   0  0  0  0  0  0  0  0  0  0  0  0
  -20.6676  -20.8400  -19.4547 H   0  0  0  0  0  0  0  0  0  0  0  0
  -20.9109  -21.6415  -17.9062 H   0  0  0  0  0  0  0  0  0  0  0  0
  -20.7592  -19.8695  -18.0170 H   0  0  0  0  0  0  0  0  0  0  0  0
  -22.4285  -20.7608  -20.6341 H   0  0  0  0  0  0  0  0  0  0  0  0
  -24.6160  -20.6232  -21.4005 H   0  0  0  0  0  0  0  0  0  0  0  0
  -26.5801  -20.4004  -20.1251 H   0  0  0  0  0  0  0  0  0  0  0  0
  -26.7660  -20.2792  -17.7895 H   0  0  0  0  0  0  0  0  0  0  0  0
  -25.1163  -20.3416  -16.2274 H   0  0  0  0  0  0  0  0  0  0  0  0
  -22.0142  -21.4862  -16.0392 H   0  0  0  0  0  0  0  0  0  0  0  0
  -23.2086  -20.4517  -15.2228 H   0  0  0  0  0  0  0  0  0  0  0  0
  -21.5301  -19.3709  -14.0530 H   0  0  0  0  0  0  0  0  0  0  0  0
  -20.1749  -18.6241  -14.9565 H   0  0  0  0  0  0  0  0  0  0  0  0
  -20.0267  -20.6007  -12.8031 H   0  0  0  0  0  0  0  0  0  0  0  0
  -18.6695  -19.8481  -13.6915 H   0  0  0  0  0  0  0  0  0  0  0  0
  -17.9710  -22.1029  -14.5014 H   0  0  0  0  0  0  0  0  0  0  0  0
  -19.3026  -22.8417  -13.6276 H   0  0  0  0  0  0  0  0  0  0  0  0
  -18.4120  -21.9057  -11.4705 H   0  0  0  0  0  0  0  0  0  0  0  0
  -17.0720  -21.1646  -12.3502 H   0  0  0  0  0  0  0  0  0  0  0  0
  -16.3443  -23.4206  -13.1427 H   0  0  0  0  0  0  0  0  0  0  0  0
  -17.6851  -24.1617  -12.2598 H   0  0  0  0  0  0  0  0  0  0  0  0
  -16.8072  -23.2033  -10.1228 H   0  0  0  0  0  0  0  0  0  0  0  0
  -15.4651  -22.4641  -11.0067 H   0  0  0  0  0  0  0  0  0  0  0  0
  -14.7461  -24.7329  -11.7964 H   0  0  0  0  0  0  0  0  0  0  0  0
  -16.0763  -25.4653  -10.9177 H   0  0  0  0  0  0  0  0  0  0  0  0
  -15.2079  -24.5208   -8.7778 H   0  0  0  0  0  0  0  0  0  0  0  0
  -13.8507  -23.7708   -9.6744 H   0  0  0  0  0  0  0  0  0  0  0  0
   -3.8295  -33.8054    0.7068 H   0  0  0  0  0  0  0  0  0  0  0  0
   -2.4680  -33.0540   -0.1926 H   0  0  0  0  0  0  0  0  0  0  0  0
   -2.3074  -35.0005    2.0065 H   0  0  0  0  0  0  0  0  0  0  0  0
   -0.9509  -34.2499    1.1016 H   0  0  0  0  0  0  0  0  0  0  0  0
   -1.6174  -37.2328    1.1861 H   0  0  0  0  0  0  0  0  0  0  0  0
   -0.2838  -36.4476    2.0817 H   0  0  0  0  0  0  0  0  0  0  0  0
    1.2831  -37.7208    0.9008 H   0  0  0  0  0  0  0  0  0  0  0  0
    1.2678  -37.7115   -0.8873 H   0  0  0  0  0  0  0  0  0  0  0  0
    1.1339  -40.0293    0.9027 H   0  0  0  0  0  0  0  0  0  0  0  0
    1.1338  -40.0324   -0.8828 H   0  0  0  0  0  0  0  0  0  0  0  0
   -1.1208  -41.1038   -0.8651 H   0  0  0  0  0  0  0  0  0  0  0  0
   -1.1191  -41.1027    0.8902 H   0  0  0  0  0  0  0  0  0  0  0  0
    0.9665  -42.5071    0.8942 H   0  0  0  0  0  0  0  0  0  0  0  0
    0.9648  -42.5081   -0.8718 H   0  0  0  0  0  0  0  0  0  0  0  0
   -1.2845  -43.5993   -0.8698 H   0  0  0  0  0  0  0  0  0  0  0  0
   -1.2828  -43.5983    0.8978 H   0  0  0  0  0  0  0  0  0  0  0  0
    0.7997  -44.9845    0.8962 H   0  0  0  0  0  0  0  0  0  0  0  0
    0.7979  -44.9854   -0.8709 H   0  0  0  0  0  0  0  0  0  0  0  0
   -1.4528  -46.0763   -0.8681 H   0  0  0  0  0  0  0  0  0  0  0  0
   -1.4510  -46.0754    0.8990 H   0  0  0  0  0  0  0  0  0  0  0  0
    0.6306  -47.4614    0.8983 H   0  0  0  0  0  0  0  0  0  0  0  0
    0.6310  -47.4611   -0.8686 H   0  0  0  0  0  0  0  0  0  0  0  0
   -1.6186  -48.5535   -0.8701 H   0  0  0  0  0  0  0  0  0  0  0  0
   -1.6209  -48.5524    0.8968 H   0  0  0  0  0  0  0  0  0  0  0  0
    0.4606  -49.9390    0.9011 H   0  0  0  0  0  0  0  0  0  0  0  0
    0.4650  -49.9389   -0.8655 H   0  0  0  0  0  0  0  0  0  0  0  0
   -1.7865  -51.0308   -0.8713 H   0  0  0  0  0  0  0  0  0  0  0  0
   -1.7910  -51.0309    0.8953 H   0  0  0  0  0  0  0  0  0  0  0  0
    0.2927  -52.4167    0.9010 H   0  0  0  0  0  0  0  0  0  0  0  0
    0.2995  -52.4154   -0.8648 H   0  0  0  0  0  0  0  0  0  0  0  0
   -1.9537  -53.5059   -0.8747 H   0  0  0  0  0  0  0  0  0  0  0  0
   -1.9604  -53.5073    0.8920 H   0  0  0  0  0  0  0  0  0  0  0  0
    0.1225  -54.8940    0.8987 H   0  0  0  0  0  0  0  0  0  0  0  0
    0.1291  -54.8926   -0.8678 H   0  0  0  0  0  0  0  0  0  0  0  0
   -2.1218  -55.9841   -0.8773 H   0  0  0  0  0  0  0  0  0  0  0  0
   -2.1284  -55.9855    0.8896 H   0  0  0  0  0  0  0  0  0  0  0  0
   -0.0473  -57.3724    0.8971 H   0  0  0  0  0  0  0  0  0  0  0  0
   -0.0386  -57.3698   -0.8699 H   0  0  0  0  0  0  0  0  0  0  0  0
   -2.2906  -58.4597   -0.8820 H   0  0  0  0  0  0  0  0  0  0  0  0
   -2.2975  -58.4639    0.8851 H   0  0  0  0  0  0  0  0  0  0  0  0
   -0.2151  -59.8495    0.8898 H   0  0  0  0  0  0  0  0  0  0  0  0
   -0.2083  -59.8453   -0.8773 H   0  0  0  0  0  0  0  0  0  0  0  0
   -2.4594  -60.9365   -0.8889 H   0  0  0  0  0  0  0  0  0  0  0  0
   -2.4662  -60.9408    0.8788 H   0  0  0  0  0  0  0  0  0  0  0  0
   -0.3855  -62.3264    0.8826 H   0  0  0  0  0  0  0  0  0  0  0  0
   -0.3787  -62.3221   -0.8834 H   0  0  0  0  0  0  0  0  0  0  0  0
   -2.6348  -63.4321   -0.8892 H   0  0  0  0  0  0  0  0  0  0  0  0
   -2.6415  -63.4362    0.8658 H   0  0  0  0  0  0  0  0  0  0  0  0
   -0.5498  -64.7998    0.8863 H   0  0  0  0  0  0  0  0  0  0  0  0
   -0.5438  -64.7963   -0.9005 H   0  0  0  0  0  0  0  0  0  0  0  0
   -0.7306  -67.1213    0.8825 H   0  0  0  0  0  0  0  0  0  0  0  0
   -0.7086  -67.1110   -0.9045 H   0  0  0  0  0  0  0  0  0  0  0  0
   -2.4483  -68.1425   -2.0835 H   0  0  0  0  0  0  0  0  0  0  0  0
   -3.6474  -67.1563   -1.2005 H   0  0  0  0  0  0  0  0  0  0  0  0
   -5.0025  -71.0030    0.1826 H   0  0  0  0  0  0  0  0  0  0  0  0
   -6.2326  -70.0526   -0.7180 H   0  0  0  0  0  0  0  0  0  0  0  0
  -13.9508  -72.4657    7.0894 H   0  0  0  0  0  0  0  0  0  0  0  0
  1  2  1  0  0  0  0
  1 80  1  0  0  0  0
  1 81  1  0  0  0  0
  1 82  1  0  0  0  0
  2  3  1  0  0  0  0
  2  8  1  0  0  0  0
  3  4  2  0  0  0  0
  3 83  1  0  0  0  0
  4  5  1  0  0  0  0
  4 84  1  0  0  0  0
  5  6  2  0  0  0  0
  5 85  1  0  0  0  0
  6  7  1  0  0  0  0
  6 86  1  0  0  0  0
  7  8  2  0  0  0  0
  7 87  1  0  0  0  0
  8  9  1  0  0  0  0
  9 10  1  0  0  0  0
  9 88  1  0  0  0  0
  9 89  1  0  0  0  0
 10 11  1  0  0  0  0
 11 12  1  0  0  0  0
 11 90  1  0  0  0  0
 11 91  1  0  0  0  0
 12 13  1  0  0  0  0
 13 14  1  0  0  0  0
 13 92  1  0  0  0  0
 13 93  1  0  0  0  0
 14 15  1  0  0  0  0
 14 94  1  0  0  0  0
 14 95  1  0  0  0  0
 15 16  1  0  0  0  0
 15 96  1  0  0  0  0
 15 97  1  0  0  0  0
 16 17  1  0  0  0  0
 16 98  1  0  0  0  0
 16 99  1  0  0  0  0
 17 18  1  0  0  0  0
 17100  1  0  0  0  0
 17101  1  0  0  0  0
 18 19  1  0  0  0  0
 18102  1  0  0  0  0
 18103  1  0  0  0  0
 19 20  1  0  0  0  0
 19104  1  0  0  0  0
 19105  1  0  0  0  0
 20 21  1  0  0  0  0
 21 22  1  0  0  0  0
 22 23  1  0  0  0  0
 23 24  1  0  0  0  0
 24 25  1  0  0  0  0
 25 26  1  0  0  0  0
 26 27  1  0  0  0  0
 27 28  1  0  0  0  0
 28 29  1  0  0  0  0
 29 30  1  0  0  0  0
 30 31  1  0  0  0  0
 31 32  1  0  0  0  0
 32 33  1  0  0  0  0
 33 34  1  0  0  0  0
 34 35  1  0  0  0  0
 35 36  1  0  0  0  0
 35106  1  0  0  0  0
 35107  1  0  0  0  0
 36 37  1  0  0  0  0
 37 38  1  0  0  0  0
 37108  1  0  0  0  0
 37109  1  0  0  0  0
 38 39  1  0  0  0  0
 38110  1  0  0  0  0
 38111  1  0  0  0  0
 39 40  1  0  0  0  0
 40 41  1  0  0  0  0
 40112  1  0  0  0  0
 40113  1  0  0  0  0
 41 42  1  0  0  0  0
 42 43  1  0  0  0  0
 42114  1  0  0  0  0
 42115  1  0  0  0  0
 43 44  1  0  0  0  0
 43116  1  0  0  0  0
 43117  1  0  0  0  0
 44 45  1  0  0  0  0
 44118  1  0  0  0  0
 44119  1  0  0  0  0
 45 46  1  0  0  0  0
 45120  1  0  0  0  0
 45121  1  0  0  0  0
 46 47  1  0  0  0  0
 46122  1  0  0  0  0
 46123  1  0  0  0  0
 47 48  1  0  0  0  0
 47124  1  0  0  0  0
 47125  1  0  0  0  0
 48 49  1  0  0  0  0
 48126  1  0  0  0  0
 48127  1  0  0  0  0
 49 50  1  0  0  0  0
 49128  1  0  0  0  0
 49129  1  0  0  0  0
 50 51  1  0  0  0  0
 50130  1  0  0  0  0
 50131  1  0  0  0  0
 51 52  1  0  0  0  0
 51132  1  0  0  0  0
 51133  1  0  0  0  0
 52 53  1  0  0  0  0
 52134  1  0  0  0  0
 52135  1  0  0  0  0
 53 54  1  0  0  0  0
 53136  1  0  0  0  0
 53137  1  0  0  0  0
 54 55  1  0  0  0  0
 54138  1  0  0  0  0
 54139  1  0  0  0  0
 55 56  1  0  0  0  0
 55140  1  0  0  0  0
 55141  1  0  0  0  0
 56 57  1  0  0  0  0
 56142  1  0  0  0  0
 56143  1  0  0  0  0
 57 58  1  0  0  0  0
 57144  1  0  0  0  0
 57145  1  0  0  0  0
 58 59  1  0  0  0  0
 58146  1  0  0  0  0
 58147  1  0  0  0  0
 59 60  1  0  0  0  0
 59148  1  0  0  0  0
 59149  1  0  0  0  0
 60 61  1  0  0  0  0
 60150  1  0  0  0  0
 60151  1  0  0  0  0
 61 62  1  0  0  0  0
 61152  1  0  0  0  0
 61153  1  0  0  0  0
 62 63  1  0  0  0  0
 62154  1  0  0  0  0
 62155  1  0  0  0  0
 63 64  1  0  0  0  0
 64 65  1  0  0  0  0
 64156  1  0  0  0  0
 64157  1  0  0  0  0
 65 66  1  0  0  0  0
 66 67  1  0  0  0  0
 66158  1  0  0  0  0
 66159  1  0  0  0  0
 67 68  1  0  0  0  0
 68 69  1  0  0  0  0
 69 70  1  0  0  0  0
 69160  1  0  0  0  0
 69161  1  0  0  0  0
 70 71  1  0  0  0  0
 71 72  1  0  0  0  0
 72 73  1  0  0  0  0
 73 74  1  0  0  0  0
 74 75  1  0  0  0  0
 75 76  1  0  0  0  0
 76 77  1  0  0  0  0
 77 78  1  0  0  0  0
 78 79  1  0  0  0  0
 79162  1  0  0  0  0
M  END
$$$$
