
 OpenBabel04232216593D

 48 49  0  0  0  0  0  0  0  0999 V2000
    5.1234    2.8191   -0.3059 O   0  0  0  0  0  0  0  0  0  0  0  0
    5.7853    1.8143   -0.0364 C   0  0  0  0  0  0  0  0  0  0  0  0
    5.2782    0.9381    1.0611 C   0  0  0  0  0  0  0  0  0  0  0  0
    5.0187   -0.3940    1.0357 C   0  0  0  0  0  0  0  0  0  0  0  0
    5.1617   -1.3439   -0.1457 C   0  0  0  0  0  0  0  0  0  0  0  0
    4.1199   -1.1902   -1.2853 C   0  0  0  0  0  0  0  0  0  0  0  0
    4.8297   -0.4169   -2.3681 C   0  0  0  0  0  0  0  0  0  0  0  0
    4.1814    0.2332   -3.5566 C   0  0  0  0  0  0  0  0  0  0  0  0
    5.2540    1.1838   -4.1530 C   0  0  0  0  0  0  0  0  0  0  0  0
    5.8740    2.2142   -3.1419 C   0  0  0  0  0  0  0  0  0  0  0  0
    7.0835    1.7641   -2.2141 C   0  0  0  0  0  0  0  0  0  0  0  0
    5.0479   -1.0640    2.3463 C   0  0  0  0  0  0  0  0  0  0  0  0
    3.8840   -1.0563    3.2823 C   0  0  0  0  0  0  0  0  0  0  0  0
    6.2662   -1.5208    2.6744 C   0  0  0  0  0  0  0  0  0  0  0  0
    6.8038   -1.7186    3.9933 C   0  0  0  0  0  0  0  0  0  0  0  0
    8.1198   -1.9851    4.0201 C   0  0  0  0  0  0  0  0  0  0  0  0
    8.9565   -1.0085    4.6831 C   0  0  0  0  0  0  0  0  0  0  0  0
    9.7542   -0.1562    4.0133 C   0  0  0  0  0  0  0  0  0  0  0  0
   10.5709    0.6163    4.7704 F   0  0  0  0  0  0  0  0  0  0  0  0
   10.0492   -0.1283    2.6035 C   0  0  0  0  0  0  0  0  0  0  0  0
    9.4503    0.2108    1.4336 C   0  0  0  0  0  0  0  0  0  0  0  0
    8.2028    0.7440    1.0839 N   0  0  0  0  0  0  0  0  0  0  0  0
    8.0481    0.7964   -0.1782 N   0  0  0  0  0  0  0  0  0  0  0  0
    6.9038    1.4044   -0.7537 N   0  0  0  0  0  0  0  0  0  0  0  0
    5.1254    1.5089    1.9731 H   0  0  0  0  0  0  0  0  0  0  0  0
    5.1345   -2.3856    0.1955 H   0  0  0  0  0  0  0  0  0  0  0  0
    6.1840   -1.2280   -0.5360 H   0  0  0  0  0  0  0  0  0  0  0  0
    3.2254   -0.6653   -0.9356 H   0  0  0  0  0  0  0  0  0  0  0  0
    3.8233   -2.1726   -1.6634 H   0  0  0  0  0  0  0  0  0  0  0  0
    5.7172   -0.9659   -2.7047 H   0  0  0  0  0  0  0  0  0  0  0  0
    5.1478    0.4343   -1.8094 H   0  0  0  0  0  0  0  0  0  0  0  0
    3.2950    0.8109   -3.2672 H   0  0  0  0  0  0  0  0  0  0  0  0
    3.8654   -0.5093   -4.2984 H   0  0  0  0  0  0  0  0  0  0  0  0
    6.0560    0.5918   -4.6133 H   0  0  0  0  0  0  0  0  0  0  0  0
    4.7786    1.7390   -4.9736 H   0  0  0  0  0  0  0  0  0  0  0  0
    6.2774    3.0138   -3.7794 H   0  0  0  0  0  0  0  0  0  0  0  0
    5.0583    2.6748   -2.5833 H   0  0  0  0  0  0  0  0  0  0  0  0
    7.5535    0.8894   -2.6845 H   0  0  0  0  0  0  0  0  0  0  0  0
    7.8263    2.5694   -2.2261 H   0  0  0  0  0  0  0  0  0  0  0  0
    2.9355   -0.9154    2.7564 H   0  0  0  0  0  0  0  0  0  0  0  0
    3.9880   -0.2744    4.0413 H   0  0  0  0  0  0  0  0  0  0  0  0
    3.8211   -2.0235    3.7996 H   0  0  0  0  0  0  0  0  0  0  0  0
    7.0326   -1.4812    1.8965 H   0  0  0  0  0  0  0  0  0  0  0  0
    6.3260   -1.1597    4.7987 H   0  0  0  0  0  0  0  0  0  0  0  0
    8.5911   -2.4558    3.1572 H   0  0  0  0  0  0  0  0  0  0  0  0
    8.9349   -0.9771    5.7600 H   0  0  0  0  0  0  0  0  0  0  0  0
   11.0899   -0.4717    2.4711 H   0  0  0  0  0  0  0  0  0  0  0  0
   10.0958    0.0579    0.5659 H   0  0  0  0  0  0  0  0  0  0  0  0
  1  2  2  0  0  0  0
  2  3  1  0  0  0  0
  2 24  1  0  0  0  0
  3  4  2  0  0  0  0
  3 25  1  0  0  0  0
  4  5  1  0  0  0  0
  4 12  1  0  0  0  0
  5  6  1  0  0  0  0
  5 26  1  0  0  0  0
  5 27  1  0  0  0  0
  6  7  1  0  0  0  0
  6 28  1  0  0  0  0
  6 29  1  0  0  0  0
  7  8  1  0  0  0  0
  7 30  1  0  0  0  0
  7 31  1  0  0  0  0
  8  9  1  0  0  0  0
  8 32  1  0  0  0  0
  8 33  1  0  0  0  0
  9 10  1  0  0  0  0
  9 34  1  0  0  0  0
  9 35  1  0  0  0  0
 10 11  1  0  0  0  0
 10 36  1  0  0  0  0
 10 37  1  0  0  0  0
 11 24  1  0  0  0  0
 11 38  1  0  0  0  0
 11 39  1  0  0  0  0
 12 13  1  0  0  0  0
 12 14  2  0  0  0  0
 13 40  1  0  0  0  0
 13 41  1  0  0  0  0
 13 42  1  0  0  0  0
 14 15  1  0  0  0  0
 14 43  1  0  0  0  0
 15 16  2  0  0  0  0
 15 44  1  0  0  0  0
 16 17  1  0  0  0  0
 16 45  1  0  0  0  0
 17 18  2  0  0  0  0
 17 46  1  0  0  0  0
 18 19  1  0  0  0  0
 18 20  1  0  0  0  0
 20 21  2  0  0  0  0
 20 47  1  0  0  0  0
 21 22  1  0  0  0  0
 21 48  1  0  0  0  0
 22 23  2  0  0  0  0
 23 24  1  0  0  0  0
M  END
$$$$
