
 OpenBabel04232217013D

137136  0  0  0  0  0  0  0  0999 V2000
    1.0311   -0.0575   -0.1365 O   0  0  0  0  0  0  0  0  0  0  0  0
    2.4471   -0.0813   -0.1358 C   0  0  0  0  0  0  0  0  0  0  0  0
    2.9569    1.3432   -0.0648 C   0  0  0  0  0  0  0  0  0  0  0  0
    4.4718    1.3540   -0.0603 C   0  0  0  0  0  0  0  0  0  0  0  0
    4.9779    2.7762    0.0105 C   0  0  0  0  0  0  0  0  0  0  0  0
    6.4849    2.7559    0.0135 C   0  0  0  0  0  0  0  0  0  0  0  0
    6.9720    4.1683    0.0817 C   0  0  0  0  0  0  0  0  0  0  0  0
    8.4566    4.1406    0.0859 C   0  0  0  0  0  0  0  0  0  0  0  0
    8.7753    5.4943    0.1494 O   0  0  0  0  0  0  0  0  0  0  0  0
   10.1742    5.4531    0.1563 O   0  0  0  0  0  0  0  0  0  0  0  0
   10.6269    6.7699    0.2234 O   0  0  0  0  0  0  0  0  0  0  0  0
   12.0076    6.7216    0.2251 O   0  0  0  0  0  0  0  0  0  0  0  0
   12.4521    8.0417    0.2910 O   0  0  0  0  0  0  0  0  0  0  0  0
   13.8336    8.0009    0.2950 O   0  0  0  0  0  0  0  0  0  0  0  0
   14.2635    9.3138    0.3604 O   0  0  0  0  0  0  0  0  0  0  0  0
   15.6471    9.2759    0.3641 O   0  0  0  0  0  0  0  0  0  0  0  0
   16.0738   10.5915    0.4297 O   0  0  0  0  0  0  0  0  0  0  0  0
   17.4594   10.5549    0.4335 O   0  0  0  0  0  0  0  0  0  0  0  0
   17.8814   11.8724    0.4990 O   0  0  0  0  0  0  0  0  0  0  0  0
   19.2682   11.8592    0.5028 O   0  0  0  0  0  0  0  0  0  0  0  0
   19.6881   13.1701    0.5698 O   0  0  0  0  0  0  0  0  0  0  0  0
   21.0800   13.1531    0.5753 O   0  0  0  0  0  0  0  0  0  0  0  0
   21.5101   14.4853    0.6398 O   0  0  0  0  0  0  0  0  0  0  0  0
   22.8908   14.3296    0.6349 C   0  0  0  0  0  0  0  0  0  0  0  0
   23.3578   15.7378    0.7029 C   0  0  0  0  0  0  0  0  0  0  0  0
   24.8509   15.7221    0.7041 C   0  0  0  0  0  0  0  0  0  0  0  0
   25.3299   17.1464    0.7730 C   0  0  0  0  0  0  0  0  0  0  0  0
   26.8379   17.1441    0.7749 C   0  0  0  0  0  0  0  0  0  0  0  0
   27.3381   18.5684    0.8439 C   0  0  0  0  0  0  0  0  0  0  0  0
   28.8518   18.5696    0.8459 C   0  0  0  0  0  0  0  0  0  0  0  0
   29.3592   19.9952    0.9150 C   0  0  0  0  0  0  0  0  0  0  0  0
   30.8749   19.9987    0.9171 C   0  0  0  0  0  0  0  0  0  0  0  0
   31.3841   21.4249    0.9863 C   0  0  0  0  0  0  0  0  0  0  0  0
   32.9002   21.4291    0.9865 C   0  0  0  0  0  0  0  0  0  0  0  0
   33.4095   22.8553    1.0555 C   0  0  0  0  0  0  0  0  0  0  0  0
   34.9251   22.8590    1.0537 C   0  0  0  0  0  0  0  0  0  0  0  0
   35.4326   24.2847    1.1207 C   0  0  0  0  0  0  0  0  0  0  0  0
   36.9455   24.2856    1.1167 C   0  0  0  0  0  0  0  0  0  0  0  0
   37.4384   25.7073    1.1818 C   0  0  0  0  0  0  0  0  0  0  0  0
   38.9581   25.7030    1.1755 C   0  0  0  0  0  0  0  0  0  0  0  0
   39.4334   27.1309    1.2426 C   0  0  0  0  0  0  0  0  0  0  0  0
   40.9270   27.1262    1.2363 C   0  0  0  0  0  0  0  0  0  0  0  0
   41.3945   28.5375    1.3027 C   0  0  0  0  0  0  0  0  0  0  0  0
   42.7796   28.3738    1.2893 O   0  0  0  0  0  0  0  0  0  0  0  0
   43.2202   29.7050    1.3521 O   0  0  0  0  0  0  0  0  0  0  0  0
   44.5991   29.6792    1.3453 O   0  0  0  0  0  0  0  0  0  0  0  0
   45.0123   31.0080    1.4081 O   0  0  0  0  0  0  0  0  0  0  0  0
   46.3929   30.9797    1.4012 O   0  0  0  0  0  0  0  0  0  0  0  0
   46.8082   32.2842    1.4627 O   0  0  0  0  0  0  0  0  0  0  0  0
   48.1841   32.2419    1.4551 O   0  0  0  0  0  0  0  0  0  0  0  0
   48.5913   33.5500    1.5169 O   0  0  0  0  0  0  0  0  0  0  0  0
   49.9635   33.5043    1.5092 O   0  0  0  0  0  0  0  0  0  0  0  0
   50.3660   34.8105    1.5709 O   0  0  0  0  0  0  0  0  0  0  0  0
   51.7332   34.7553    1.5627 O   0  0  0  0  0  0  0  0  0  0  0  0
   52.1393   36.0610    1.6243 O   0  0  0  0  0  0  0  0  0  0  0  0
   53.5060   36.0076    1.6163 O   0  0  0  0  0  0  0  0  0  0  0  0
   53.9063   37.3117    1.6779 O   0  0  0  0  0  0  0  0  0  0  0  0
   55.2704   37.2521    1.6695 O   0  0  0  0  0  0  0  0  0  0  0  0
   55.6734   38.5534    1.7309 O   0  0  0  0  0  0  0  0  0  0  0  0
   57.0374   38.4927    1.7225 O   0  0  0  0  0  0  0  0  0  0  0  0
   57.4376   39.7957    1.7841 O   0  0  0  0  0  0  0  0  0  0  0  0
   58.8004   39.7447    1.7761 O   0  0  0  0  0  0  0  0  0  0  0  0
   59.1886   41.0480    1.8377 O   0  0  0  0  0  0  0  0  0  0  0  0
   60.5515   40.9996    1.8299 O   0  0  0  0  0  0  0  0  0  0  0  0
   60.9493   42.3015    1.8914 O   0  0  0  0  0  0  0  0  0  0  0  0
   62.3140   42.2417    1.8830 O   0  0  0  0  0  0  0  0  0  0  0  0
   62.7210   43.5440    1.9445 O   0  0  0  0  0  0  0  0  0  0  0  0
   64.0853   43.4810    1.9360 O   0  0  0  0  0  0  0  0  0  0  0  0
   64.4916   44.7832    1.9975 O   0  0  0  0  0  0  0  0  0  0  0  0
   65.8729   44.7408    1.9898 O   0  0  0  0  0  0  0  0  0  0  0  0
   66.2704   46.0337    2.0511 O   0  0  0  0  0  0  0  0  0  0  0  0
   67.6427   46.0040    2.0440 O   0  0  0  0  0  0  0  0  0  0  0  0
   68.0458   47.3165    2.1031 O   0  0  0  0  0  0  0  0  0  0  0  0
   69.4253   47.2778    2.1007 O   0  0  0  0  0  0  0  0  0  0  0  0
   69.8585   48.5948    2.1691 O   0  0  0  0  0  0  0  0  0  0  0  0
   71.2474   48.5652    2.1460 O   0  0  0  0  0  0  0  0  0  0  0  0
   71.6734   49.8984    2.1993 O   0  0  0  0  0  0  0  0  0  0  0  0
   73.0754   49.8883    2.2916 O   0  0  0  0  0  0  0  0  0  0  0  0
   73.5386   51.2277    2.3600 O   0  0  0  0  0  0  0  0  0  0  0  0
   74.9638   51.2150    2.2453 O   0  0  0  0  0  0  0  0  0  0  0  0
   75.3447   50.5597    1.0130 O   0  0  0  0  0  0  0  0  0  0  0  0
    0.7357   -0.9826   -0.1824 H   0  0  0  0  0  0  0  0  0  0  0  0
    2.7958   -0.5694   -1.0517 H   0  0  0  0  0  0  0  0  0  0  0  0
    2.7933   -0.6572    0.7286 H   0  0  0  0  0  0  0  0  0  0  0  0
    2.5700    1.8368    0.8355 H   0  0  0  0  0  0  0  0  0  0  0  0
    2.5745    1.9223   -0.9147 H   0  0  0  0  0  0  0  0  0  0  0  0
    4.8582    0.8718   -0.9669 H   0  0  0  0  0  0  0  0  0  0  0  0
    4.8537    0.7857    0.7969 H   0  0  0  0  0  0  0  0  0  0  0  0
    4.6119    3.2719    0.9182 H   0  0  0  0  0  0  0  0  0  0  0  0
    4.6165    3.3581   -0.8466 H   0  0  0  0  0  0  0  0  0  0  0  0
    6.8725    2.2757   -0.8935 H   0  0  0  0  0  0  0  0  0  0  0  0
    6.8677    2.1918    0.8729 H   0  0  0  0  0  0  0  0  0  0  0  0
    6.6143    4.6844    0.9827 H   0  0  0  0  0  0  0  0  0  0  0  0
    6.6209    4.7667   -0.7696 H   0  0  0  0  0  0  0  0  0  0  0  0
    8.8782    3.7050   -0.8284 H   0  0  0  0  0  0  0  0  0  0  0  0
    8.8712    3.6219    0.9592 H   0  0  0  0  0  0  0  0  0  0  0  0
   23.2040   13.8206   -0.2848 H   0  0  0  0  0  0  0  0  0  0  0  0
   23.2002   13.7355    1.5035 H   0  0  0  0  0  0  0  0  0  0  0  0
   22.9486   16.2153    1.6034 H   0  0  0  0  0  0  0  0  0  0  0  0
   22.9510   16.2993   -0.1489 H   0  0  0  0  0  0  0  0  0  0  0  0
   25.2173   15.2288   -0.2046 H   0  0  0  0  0  0  0  0  0  0  0  0
   25.2150   15.1440    1.5623 H   0  0  0  0  0  0  0  0  0  0  0  0
   24.9431   17.6275    1.6801 H   0  0  0  0  0  0  0  0  0  0  0  0
   24.9454   17.7122   -0.0849 H   0  0  0  0  0  0  0  0  0  0  0  0
   27.2101   16.6528   -0.1326 H   0  0  0  0  0  0  0  0  0  0  0  0
   27.2078   16.5681    1.6322 H   0  0  0  0  0  0  0  0  0  0  0  0
   26.9579   19.0541    1.7510 H   0  0  0  0  0  0  0  0  0  0  0  0
   26.9602   19.1387   -0.0136 H   0  0  0  0  0  0  0  0  0  0  0  0
   29.2269   18.0798   -0.0612 H   0  0  0  0  0  0  0  0  0  0  0  0
   29.2246   17.9952    1.7030 H   0  0  0  0  0  0  0  0  0  0  0  0
   28.9813   20.4828    1.8221 H   0  0  0  0  0  0  0  0  0  0  0  0
   28.9837   20.5675    0.0578 H   0  0  0  0  0  0  0  0  0  0  0  0
   31.2512   19.5099    0.0100 H   0  0  0  0  0  0  0  0  0  0  0  0
   31.2490   19.4252    1.7742 H   0  0  0  0  0  0  0  0  0  0  0  0
   31.0082   21.9128    1.8940 H   0  0  0  0  0  0  0  0  0  0  0  0
   31.0083   21.9983    0.1298 H   0  0  0  0  0  0  0  0  0  0  0  0
   33.2760   20.9412    0.0787 H   0  0  0  0  0  0  0  0  0  0  0  0
   33.2762   20.8557    1.8428 H   0  0  0  0  0  0  0  0  0  0  0  0
   33.0354   23.3433    1.9640 H   0  0  0  0  0  0  0  0  0  0  0  0
   33.0331   23.4294    0.1999 H   0  0  0  0  0  0  0  0  0  0  0  0
   35.3006   22.3710    0.1458 H   0  0  0  0  0  0  0  0  0  0  0  0
   35.3031   22.2870    1.9101 H   0  0  0  0  0  0  0  0  0  0  0  0
   35.0609   24.7744    2.0293 H   0  0  0  0  0  0  0  0  0  0  0  0
   35.0563   24.8589    0.2651 H   0  0  0  0  0  0  0  0  0  0  0  0
   37.3229   23.7992    0.2086 H   0  0  0  0  0  0  0  0  0  0  0  0
   37.3276   23.7169    1.9735 H   0  0  0  0  0  0  0  0  0  0  0  0
   37.0795   26.2027    2.0908 H   0  0  0  0  0  0  0  0  0  0  0  0
   37.0727   26.2859    0.3259 H   0  0  0  0  0  0  0  0  0  0  0  0
   39.3325   25.2222    0.2647 H   0  0  0  0  0  0  0  0  0  0  0  0
   39.3384   25.1356    2.0323 H   0  0  0  0  0  0  0  0  0  0  0  0
   39.0708   27.6240    2.1516 H   0  0  0  0  0  0  0  0  0  0  0  0
   39.0636   27.7094    0.3884 H   0  0  0  0  0  0  0  0  0  0  0  0
   41.3294   26.6443    0.3337 H   0  0  0  0  0  0  0  0  0  0  0  0
   41.3364   26.5594    2.0849 H   0  0  0  0  0  0  0  0  0  0  0  0
   41.0860   29.0403    2.2270 H   0  0  0  0  0  0  0  0  0  0  0  0
   41.0786   29.1271    0.4341 H   0  0  0  0  0  0  0  0  0  0  0  0
   76.2943   50.5803    1.2019 H   0  0  0  0  0  0  0  0  0  0  0  0
  1  2  1  0  0  0  0
  1 82  1  0  0  0  0
  2  3  1  0  0  0  0
  2 83  1  0  0  0  0
  2 84  1  0  0  0  0
  3  4  1  0  0  0  0
  3 85  1  0  0  0  0
  3 86  1  0  0  0  0
  4  5  1  0  0  0  0
  4 87  1  0  0  0  0
  4 88  1  0  0  0  0
  5  6  1  0  0  0  0
  5 89  1  0  0  0  0
  5 90  1  0  0  0  0
  6  7  1  0  0  0  0
  6 91  1  0  0  0  0
  6 92  1  0  0  0  0
  7  8  1  0  0  0  0
  7 93  1  0  0  0  0
  7 94  1  0  0  0  0
  8  9  1  0  0  0  0
  8 95  1  0  0  0  0
  8 96  1  0  0  0  0
  9 10  1  0  0  0  0
 10 11  1  0  0  0  0
 11 12  1  0  0  0  0
 12 13  1  0  0  0  0
 13 14  1  0  0  0  0
 14 15  1  0  0  0  0
 15 16  1  0  0  0  0
 16 17  1  0  0  0  0
 17 18  1  0  0  0  0
 18 19  1  0  0  0  0
 19 20  1  0  0  0  0
 20 21  1  0  0  0  0
 21 22  1  0  0  0  0
 22 23  1  0  0  0  0
 23 24  1  0  0  0  0
 24 25  1  0  0  0  0
 24 97  1  0  0  0  0
 24 98  1  0  0  0  0
 25 26  1  0  0  0  0
 25 99  1  0  0  0  0
 25100  1  0  0  0  0
 26 27  1  0  0  0  0
 26101  1  0  0  0  0
 26102  1  0  0  0  0
 27 28  1  0  0  0  0
 27103  1  0  0  0  0
 27104  1  0  0  0  0
 28 29  1  0  0  0  0
 28105  1  0  0  0  0
 28106  1  0  0  0  0
 29 30  1  0  0  0  0
 29107  1  0  0  0  0
 29108  1  0  0  0  0
 30 31  1  0  0  0  0
 30109  1  0  0  0  0
 30110  1  0  0  0  0
 31 32  1  0  0  0  0
 31111  1  0  0  0  0
 31112  1  0  0  0  0
 32 33  1  0  0  0  0
 32113  1  0  0  0  0
 32114  1  0  0  0  0
 33 34  1  0  0  0  0
 33115  1  0  0  0  0
 33116  1  0  0  0  0
 34 35  1  0  0  0  0
 34117  1  0  0  0  0
 34118  1  0  0  0  0
 35 36  1  0  0  0  0
 35119  1  0  0  0  0
 35120  1  0  0  0  0
 36 37  1  0  0  0  0
 36121  1  0  0  0  0
 36122  1  0  0  0  0
 37 38  1  0  0  0  0
 37123  1  0  0  0  0
 37124  1  0  0  0  0
 38 39  1  0  0  0  0
 38125  1  0  0  0  0
 38126  1  0  0  0  0
 39 40  1  0  0  0  0
 39127  1  0  0  0  0
 39128  1  0  0  0  0
 40 41  1  0  0  0  0
 40129  1  0  0  0  0
 40130  1  0  0  0  0
 41 42  1  0  0  0  0
 41131  1  0  0  0  0
 41132  1  0  0  0  0
 42 43  1  0  0  0  0
 42133  1  0  0  0  0
 42134  1  0  0  0  0
 43 44  1  0  0  0  0
 43135  1  0  0  0  0
 43136  1  0  0  0  0
 44 45  1  0  0  0  0
 45 46  1  0  0  0  0
 46 47  1  0  0  0  0
 47 48  1  0  0  0  0
 48 49  1  0  0  0  0
 49 50  1  0  0  0  0
 50 51  1  0  0  0  0
 51 52  1  0  0  0  0
 52 53  1  0  0  0  0
 53 54  1  0  0  0  0
 54 55  1  0  0  0  0
 55 56  1  0  0  0  0
 56 57  1  0  0  0  0
 57 58  1  0  0  0  0
 58 59  1  0  0  0  0
 59 60  1  0  0  0  0
 60 61  1  0  0  0  0
 61 62  1  0  0  0  0
 62 63  1  0  0  0  0
 63 64  1  0  0  0  0
 64 65  1  0  0  0  0
 65 66  1  0  0  0  0
 66 67  1  0  0  0  0
 67 68  1  0  0  0  0
 68 69  1  0  0  0  0
 69 70  1  0  0  0  0
 70 71  1  0  0  0  0
 71 72  1  0  0  0  0
 72 73  1  0  0  0  0
 73 74  1  0  0  0  0
 74 75  1  0  0  0  0
 75 76  1  0  0  0  0
 76 77  1  0  0  0  0
 77 78  1  0  0  0  0
 78 79  1  0  0  0  0
 79 80  1  0  0  0  0
 80 81  1  0  0  0  0
 81137  1  0  0  0  0
M  END
$$$$
