
 OpenBabel04232216553D

 58 59  0  0  0  0  0  0  0  0999 V2000
    5.2896   -1.7020   -2.1122 C   0  0  0  0  0  0  0  0  0  0  0  0
    5.5001   -0.7867   -3.2799 N   0  0  0  0  0  0  0  0  0  0  0  0
    4.4602    0.2426   -3.1866 C   0  0  0  0  0  0  0  0  0  0  0  0
    2.8426   -0.2386   -3.1817 C   0  0  0  0  0  0  0  0  0  0  0  0
    2.1947   -0.1210   -1.7449 C   0  0  0  0  0  0  0  0  0  0  0  0
    0.8767    0.6503   -1.4821 C   0  0  0  0  0  0  0  0  0  0  0  0
    0.9594    2.1781   -1.5076 C   0  0  0  0  0  0  0  0  0  0  0  0
   -0.2140    2.8567   -2.2264 C   0  0  0  0  0  0  0  0  0  0  0  0
   -0.4038    2.4290   -3.6851 C   0  0  0  0  0  0  0  0  0  0  0  0
    0.8647    2.6198   -4.5218 C   0  0  0  0  0  0  0  0  0  0  0  0
    1.5845    1.3798   -5.0815 C   0  0  0  0  0  0  0  0  0  0  0  0
    1.8086    0.0628   -4.3182 C   0  0  0  0  0  0  0  0  0  0  0  0
    4.4362    1.4655   -2.7801 N   0  0  0  0  0  0  0  0  0  0  0  0
    5.5152    2.2603   -2.5813 C   0  0  0  0  0  0  0  0  0  0  0  0
    6.7420    2.0477   -2.1119 C   0  0  0  0  0  0  0  0  0  0  0  0
    7.3934    1.0632   -1.1750 C   0  0  0  0  0  0  0  0  0  0  0  0
    6.7463    0.8441    0.1922 C   0  0  0  0  0  0  0  0  0  0  0  0
    7.4445    2.3215   -3.3837 C   0  0  0  0  0  0  0  0  0  0  0  0
    8.5881    2.8418   -3.6591 N   0  0  0  0  0  0  0  0  0  0  0  0
    8.8559    2.6100   -4.9997 C   0  0  0  0  0  0  0  0  0  0  0  0
    8.6791    3.3683   -5.9384 O   0  0  0  0  0  0  0  0  0  0  0  0
    9.2432    1.1682   -5.1499 C   0  0  0  0  0  0  0  0  0  0  0  0
    8.1691    0.3795   -5.4119 C   0  0  0  0  0  0  0  0  0  0  0  0
    7.8950   -0.7260   -4.4373 C   0  0  0  0  0  0  0  0  0  0  0  0
    9.1611   -1.6465   -4.3191 C   0  0  0  0  0  0  0  0  0  0  0  0
    6.8700   -1.0500   -3.6965 N   0  0  0  0  0  0  0  0  0  0  0  0
    4.5285   -2.4512   -2.3339 H   0  0  0  0  0  0  0  0  0  0  0  0
    4.9625   -1.1201   -1.2437 H   0  0  0  0  0  0  0  0  0  0  0  0
    6.2095   -2.2136   -1.8081 H   0  0  0  0  0  0  0  0  0  0  0  0
    2.9643   -1.3252   -3.3089 H   0  0  0  0  0  0  0  0  0  0  0  0
    2.9412    0.2124   -1.0170 H   0  0  0  0  0  0  0  0  0  0  0  0
    1.9555   -1.1553   -1.4550 H   0  0  0  0  0  0  0  0  0  0  0  0
    0.5605    0.3828   -0.4622 H   0  0  0  0  0  0  0  0  0  0  0  0
    0.0636    0.2688   -2.1052 H   0  0  0  0  0  0  0  0  0  0  0  0
    1.9074    2.5173   -1.9312 H   0  0  0  0  0  0  0  0  0  0  0  0
    0.9476    2.5451   -0.4716 H   0  0  0  0  0  0  0  0  0  0  0  0
   -0.0530    3.9443   -2.1991 H   0  0  0  0  0  0  0  0  0  0  0  0
   -1.1483    2.6843   -1.6761 H   0  0  0  0  0  0  0  0  0  0  0  0
   -1.1973    3.0730   -4.0957 H   0  0  0  0  0  0  0  0  0  0  0  0
   -0.8008    1.4127   -3.7582 H   0  0  0  0  0  0  0  0  0  0  0  0
    0.5503    3.2023   -5.4037 H   0  0  0  0  0  0  0  0  0  0  0  0
    1.5813    3.2716   -4.0142 H   0  0  0  0  0  0  0  0  0  0  0  0
    2.5299    1.7030   -5.5282 H   0  0  0  0  0  0  0  0  0  0  0  0
    0.9568    1.0861   -5.9411 H   0  0  0  0  0  0  0  0  0  0  0  0
    2.0613   -0.6529   -5.1156 H   0  0  0  0  0  0  0  0  0  0  0  0
    0.8216   -0.2922   -3.9919 H   0  0  0  0  0  0  0  0  0  0  0  0
    5.3821    3.1742   -3.2072 H   0  0  0  0  0  0  0  0  0  0  0  0
    8.4074    1.4337   -0.9807 H   0  0  0  0  0  0  0  0  0  0  0  0
    7.5474    0.0909   -1.6429 H   0  0  0  0  0  0  0  0  0  0  0  0
    6.0968    1.6671    0.4980 H   0  0  0  0  0  0  0  0  0  0  0  0
    7.5285    0.7267    0.9536 H   0  0  0  0  0  0  0  0  0  0  0  0
    6.1675   -0.0837    0.2217 H   0  0  0  0  0  0  0  0  0  0  0  0
    6.8612    1.9083   -4.2438 H   0  0  0  0  0  0  0  0  0  0  0  0
    9.8817    0.9598   -4.2872 H   0  0  0  0  0  0  0  0  0  0  0  0
    7.8174    0.2658   -6.4317 H   0  0  0  0  0  0  0  0  0  0  0  0
    9.4408   -1.8180   -3.2763 H   0  0  0  0  0  0  0  0  0  0  0  0
   10.0489   -1.2067   -4.8024 H   0  0  0  0  0  0  0  0  0  0  0  0
    8.9995   -2.5974   -4.8326 H   0  0  0  0  0  0  0  0  0  0  0  0
  1  2  1  0  0  0  0
  1 27  1  0  0  0  0
  1 28  1  0  0  0  0
  1 29  1  0  0  0  0
  2  3  1  0  0  0  0
  2 26  1  0  0  0  0
  3  4  1  0  0  0  0
  3 13  2  3  0  0  0
  4  5  1  0  0  0  0
  4 12  1  0  0  0  0
  4 30  1  0  0  0  0
  5  6  1  0  0  0  0
  5 31  1  0  0  0  0
  5 32  1  0  0  0  0
  6  7  1  0  0  0  0
  6 33  1  0  0  0  0
  6 34  1  0  0  0  0
  7  8  1  0  0  0  0
  7 35  1  0  0  0  0
  7 36  1  0  0  0  0
  8  9  1  0  0  0  0
  8 37  1  0  0  0  0
  8 38  1  0  0  0  0
  9 10  1  0  0  0  0
  9 39  1  0  0  0  0
  9 40  1  0  0  0  0
 10 11  1  0  0  0  0
 10 41  1  0  0  0  0
 10 42  1  0  0  0  0
 11 12  1  0  0  0  0
 11 43  1  0  0  0  0
 11 44  1  0  0  0  0
 12 45  1  0  0  0  0
 12 46  1  0  0  0  0
 13 14  1  0  0  0  0
 14 15  2  3  0  0  0
 14 47  1  0  0  0  0
 15 16  1  0  0  0  0
 15 18  1  0  0  0  0
 16 17  1  0  0  0  0
 16 48  1  0  0  0  0
 16 49  1  0  0  0  0
 17 50  1  0  0  0  0
 17 51  1  0  0  0  0
 17 52  1  0  0  0  0
 18 19  2  3  0  0  0
 18 53  1  0  0  0  0
 19 20  1  0  0  0  0
 20 21  2  0  0  0  0
 20 22  1  0  0  0  0
 22 23  2  3  0  0  0
 22 54  1  0  0  0  0
 23 24  1  0  0  0  0
 23 55  1  0  0  0  0
 24 25  1  0  0  0  0
 24 26  2  3  0  0  0
 25 56  1  0  0  0  0
 25 57  1  0  0  0  0
 25 58  1  0  0  0  0
M  END
$$$$
