
 OpenBabel04232216553D

117119  0  0  0  0  0  0  0  0999 V2000
    6.1965    5.3257    4.6397 C   0  0  0  0  0  0  0  0  0  0  0  0
    7.7052    6.3907    6.2387 N   0  0  0  0  0  0  0  0  0  0  0  0
    4.5915    6.4553    6.5940 C   0  0  0  0  0  0  0  0  0  0  0  0
    1.4664    6.7021    6.9735 C   0  0  0  0  0  0  0  0  0  0  0  0
   -1.5622    7.0496    7.5160 C   0  0  0  0  0  0  0  0  0  0  0  0
   -4.4609    7.4578    8.0858 C   0  0  0  0  0  0  0  0  0  0  0  0
   -7.2037    7.4515    7.8907 C   0  0  0  0  0  0  0  0  0  0  0  0
   -6.7982    6.7060    8.4946 C   0  0  0  0  0  0  0  0  0  0  0  0
   -7.2072    6.0307    7.2732 C   0  0  0  0  0  0  0  0  0  0  0  0
   -5.5822    6.0960    7.3874 C   0  0  0  0  0  0  0  0  0  0  0  0
   -5.4800    5.2107    6.2974 C   0  0  0  0  0  0  0  0  0  0  0  0
   -4.0380    4.9985    6.4794 C   0  0  0  0  0  0  0  0  0  0  0  0
   -3.3721    4.6049    5.4197 C   0  0  0  0  0  0  0  0  0  0  0  0
   -1.9628    4.6325    5.5119 C   0  0  0  0  0  0  0  0  0  0  0  0
   -1.2220    3.9191    4.6867 C   0  0  0  0  0  0  0  0  0  0  0  0
    0.2693    3.6248    4.5529 C   0  0  0  0  0  0  0  0  0  0  0  0
    0.7582    2.7276    3.5549 C   0  0  0  0  0  0  0  0  0  0  0  0
    2.2795    2.6924    4.5871 C   0  0  0  0  0  0  0  0  0  0  0  0
    3.5471    2.0160    4.1121 C   0  0  0  0  0  0  0  0  0  0  0  0
    5.4611    2.5090    3.8521 C   0  0  0  0  0  0  0  0  0  0  0  0
    4.1682    4.8607    5.2264 C   0  0  0  0  0  0  0  0  0  0  0  0
    4.3780    3.0934    3.8287 C   0  0  0  0  0  0  0  0  0  0  0  0
    5.9079    1.9906    2.7796 C   0  0  0  0  0  0  0  0  0  0  0  0
    7.5151    2.1955    3.2764 C   0  0  0  0  0  0  0  0  0  0  0  0
    9.4248    2.0091    3.5439 C   0  0  0  0  0  0  0  0  0  0  0  0
   10.3463    2.7691    4.5106 N   0  0  0  0  0  0  0  0  0  0  0  0
   11.8792    3.5773    4.3956 C   0  0  0  0  0  0  0  0  0  0  0  0
   12.6813    4.7145    5.4283 C   0  0  0  0  0  0  0  0  0  0  0  0
   14.0567    5.9963    6.2373 C   0  0  0  0  0  0  0  0  0  0  0  0
   14.2697    4.6747    5.6991 C   0  0  0  0  0  0  0  0  0  0  0  0
   15.6770    4.4888    5.4779 O   0  0  0  0  0  0  0  0  0  0  0  0
   16.5038    5.4747    6.6071 C   0  0  0  0  0  0  0  0  0  0  0  0
   18.0654    5.1990    6.1584 C   0  0  0  0  0  0  0  0  0  0  0  0
   19.2953    5.7309    6.6689 O   0  0  0  0  0  0  0  0  0  0  0  0
   20.7419    5.6226    6.5693 O   0  0  0  0  0  0  0  0  0  0  0  0
   21.0446    6.6879    7.7860 O   0  0  0  0  0  0  0  0  0  0  0  0
   22.3479    6.4784    7.7302 C   0  0  0  0  0  0  0  0  0  0  0  0
   22.3157    7.2080    9.2455 C   0  0  0  0  0  0  0  0  0  0  0  0
   23.6916    7.2947    8.9931 C   0  0  0  0  0  0  0  0  0  0  0  0
   24.5501    7.8371   10.1019 C   0  0  0  0  0  0  0  0  0  0  0  0
   25.8195    7.8559    9.4957 C   0  0  0  0  0  0  0  0  0  0  0  0
   26.3215    8.0410   10.7737 C   0  0  0  0  0  0  0  0  0  0  0  0
   27.6090    8.1480   10.7893 C   0  0  0  0  0  0  0  0  0  0  0  0
   27.7687    9.0902   12.2193 C   0  0  0  0  0  0  0  0  0  0  0  0
   29.0171    8.8764   11.5757 C   0  0  0  0  0  0  0  0  0  0  0  0
   29.5480    9.7665   12.9930 C   0  0  0  0  0  0  0  0  0  0  0  0
   30.8891    9.8585   12.8616 C   0  0  0  0  0  0  0  0  0  0  0  0
   29.3225   10.8398   11.8859 C   0  0  0  0  0  0  0  0  0  0  0  0
   27.2517   10.4932   10.9414 C   0  0  0  0  0  0  0  0  0  0  0  0
   24.6251    9.8870   10.2361 C   0  0  0  0  0  0  0  0  0  0  0  0
   22.1838    9.3497    9.4977 C   0  0  0  0  0  0  0  0  0  0  0  0
   19.3508    8.6486    8.7095 C   0  0  0  0  0  0  0  0  0  0  0  0
   16.7783    7.8669    8.1336 C   0  0  0  0  0  0  0  0  0  0  0  0
   13.7404    7.3667    7.3589 C   0  0  0  0  0  0  0  0  0  0  0  0
   10.8234    6.8030    6.7998 N   0  0  0  0  0  0  0  0  0  0  0  0
   10.1160    5.3641    4.9531 C   0  0  0  0  0  0  0  0  0  0  0  0
    4.7683    4.7660    3.5840 H   0  0  0  0  0  0  0  0  0  0  0  0
    5.0142    4.5248    3.4678 H   0  0  0  0  0  0  0  0  0  0  0  0
    5.1167    4.6454    3.2915 H   0  0  0  0  0  0  0  0  0  0  0  0
   -0.2744    6.6155    6.4718 H   0  0  0  0  0  0  0  0  0  0  0  0
   -0.2740    6.3137    6.6553 H   0  0  0  0  0  0  0  0  0  0  0  0
   -3.3940    6.9438    7.1396 H   0  0  0  0  0  0  0  0  0  0  0  0
   -3.4339    6.9272    7.7187 H   0  0  0  0  0  0  0  0  0  0  0  0
   -6.0899    7.9215    9.0374 H   0  0  0  0  0  0  0  0  0  0  0  0
   -6.1433    8.1102    8.7579 H   0  0  0  0  0  0  0  0  0  0  0  0
   -9.0844    7.5589    7.6174 H   0  0  0  0  0  0  0  0  0  0  0  0
   -8.9211    6.6653    8.4335 H   0  0  0  0  0  0  0  0  0  0  0  0
   -7.5491    6.7495    9.6687 H   0  0  0  0  0  0  0  0  0  0  0  0
   -7.3035    8.3711    8.0192 H   0  0  0  0  0  0  0  0  0  0  0  0
   -7.8750    6.6528    6.3822 H   0  0  0  0  0  0  0  0  0  0  0  0
   -7.9586    5.2757    7.6723 H   0  0  0  0  0  0  0  0  0  0  0  0
   -5.6587    5.7337    8.6992 H   0  0  0  0  0  0  0  0  0  0  0  0
   -5.2304    7.6046    6.8899 H   0  0  0  0  0  0  0  0  0  0  0  0
   -5.9708    5.7899    5.4433 H   0  0  0  0  0  0  0  0  0  0  0  0
   -6.0717    4.3578    6.5768 H   0  0  0  0  0  0  0  0  0  0  0  0
   -3.4373    5.3896    7.4733 H   0  0  0  0  0  0  0  0  0  0  0  0
   -3.9968    4.0767    4.7123 H   0  0  0  0  0  0  0  0  0  0  0  0
   -1.2837    4.9797    6.2134 H   0  0  0  0  0  0  0  0  0  0  0  0
   -1.9384    3.4198    4.0418 H   0  0  0  0  0  0  0  0  0  0  0  0
    1.0360    4.1035    5.5895 H   0  0  0  0  0  0  0  0  0  0  0  0
    0.4438    2.0631    2.5090 H   0  0  0  0  0  0  0  0  0  0  0  0
    2.7635    3.5450    5.1415 H   0  0  0  0  0  0  0  0  0  0  0  0
    2.4516    2.8302    3.7262 H   0  0  0  0  0  0  0  0  0  0  0  0
    5.6802    3.4946    2.5566 H   0  0  0  0  0  0  0  0  0  0  0  0
    4.3408    3.5740    4.3695 H   0  0  0  0  0  0  0  0  0  0  0  0
    6.4708    0.8993    2.0444 H   0  0  0  0  0  0  0  0  0  0  0  0
    7.2455    3.1703    3.6749 H   0  0  0  0  0  0  0  0  0  0  0  0
    9.7067    1.7573    2.4012 H   0  0  0  0  0  0  0  0  0  0  0  0
   11.8601    2.9078    3.3598 H   0  0  0  0  0  0  0  0  0  0  0  0
   11.8389    4.6642    6.1918 H   0  0  0  0  0  0  0  0  0  0  0  0
   13.9898    4.3862    6.7641 H   0  0  0  0  0  0  0  0  0  0  0  0
   13.9311    5.8658    5.2645 H   0  0  0  0  0  0  0  0  0  0  0  0
   15.9645    5.0037    7.5226 H   0  0  0  0  0  0  0  0  0  0  0  0
   16.1618    6.4894    6.0455 H   0  0  0  0  0  0  0  0  0  0  0  0
   17.9998    5.5074    5.1235 H   0  0  0  0  0  0  0  0  0  0  0  0
   18.0399    4.1470    6.2492 H   0  0  0  0  0  0  0  0  0  0  0  0
   22.2454    6.8779    6.5959 H   0  0  0  0  0  0  0  0  0  0  0  0
   22.2266    5.3645    7.7910 H   0  0  0  0  0  0  0  0  0  0  0  0
   21.4213    8.0495   10.1186 H   0  0  0  0  0  0  0  0  0  0  0  0
   24.3544    6.7839    7.9621 H   0  0  0  0  0  0  0  0  0  0  0  0
   24.1457    8.6883   11.2681 H   0  0  0  0  0  0  0  0  0  0  0  0
   26.5520    7.4967    8.6460 H   0  0  0  0  0  0  0  0  0  0  0  0
   25.8351    8.3083   11.9003 H   0  0  0  0  0  0  0  0  0  0  0  0
   28.4412    8.1715    9.7397 H   0  0  0  0  0  0  0  0  0  0  0  0
   27.4524   10.4976   12.7634 H   0  0  0  0  0  0  0  0  0  0  0  0
   30.0601    9.1386   10.8662 H   0  0  0  0  0  0  0  0  0  0  0  0
   29.0140   11.1202   13.3118 H   0  0  0  0  0  0  0  0  0  0  0  0
   32.1248    9.8681   12.1330 H   0  0  0  0  0  0  0  0  0  0  0  0
   31.0062   11.1502   12.7674 H   0  0  0  0  0  0  0  0  0  0  0  0
   29.1818   10.8059   11.1854 H   0  0  0  0  0  0  0  0  0  0  0  0
   26.4713   10.4814   10.6043 H   0  0  0  0  0  0  0  0  0  0  0  0
   24.0552    9.9119    9.8687 H   0  0  0  0  0  0  0  0  0  0  0  0
   21.2108    8.9541    8.8738 H   0  0  0  0  0  0  0  0  0  0  0  0
   18.5769    8.0761    8.0813 H   0  0  0  0  0  0  0  0  0  0  0  0
    9.7449    4.2081    3.6868 H   0  0  0  0  0  0  0  0  0  0  0  0
    9.2395    4.5153    3.6775 H   0  0  0  0  0  0  0  0  0  0  0  0
    9.2981    4.1510    3.9791 H   0  0  0  0  0  0  0  0  0  0  0  0
  1  2  1  0  0  0  0
  1 57  1  0  0  0  0
  1 58  1  0  0  0  0
  1 59  1  0  0  0  0
  2  3  1  0  0  0  0
  2 55  1  0  0  0  0
  3  4  1  0  0  0  0
  3 21  2  3  0  0  0
  4  5  1  0  0  0  0
  4 60  1  0  0  0  0
  4 61  1  0  0  0  0
  5  6  1  0  0  0  0
  5 62  1  0  0  0  0
  5 63  1  0  0  0  0
  6  7  1  0  0  0  0
  6 64  1  0  0  0  0
  6 65  1  0  0  0  0
  7  8  1  0  0  0  0
  7 66  1  0  0  0  0
  7 67  1  0  0  0  0
  8  9  1  0  0  0  0
  8 68  1  0  0  0  0
  8 69  1  0  0  0  0
  9 10  1  0  0  0  0
  9 70  1  0  0  0  0
  9 71  1  0  0  0  0
 10 11  1  0  0  0  0
 10 72  1  0  0  0  0
 10 73  1  0  0  0  0
 11 12  1  0  0  0  0
 11 74  1  0  0  0  0
 11 75  1  0  0  0  0
 12 13  2  3  0  0  0
 12 76  1  0  0  0  0
 13 14  1  0  0  0  0
 13 77  1  0  0  0  0
 14 15  2  3  0  0  0
 14 78  1  0  0  0  0
 15 16  1  0  0  0  0
 15 79  1  0  0  0  0
 16 17  2  3  0  0  0
 16 80  1  0  0  0  0
 17 18  1  0  0  0  0
 17 81  1  0  0  0  0
 18 19  2  3  0  0  0
 18 82  1  0  0  0  0
 19 20  1  0  0  0  0
 19 83  1  0  0  0  0
 20 22  2  3  0  0  0
 20 84  1  0  0  0  0
 21 22  1  0  0  0  0
 21 85  1  0  0  0  0
 22 23  1  0  0  0  0
 23 24  2  3  0  0  0
 23 86  1  0  0  0  0
 24 25  1  0  0  0  0
 24 87  1  0  0  0  0
 25 26  2  3  0  0  0
 25 88  1  0  0  0  0
 26 27  1  0  0  0  0
 27 28  2  3  0  0  0
 27 89  1  0  0  0  0
 28 29  1  0  0  0  0
 28 90  1  0  0  0  0
 29 30  1  0  0  0  0
 29 54  2  3  0  0  0
 30 31  1  0  0  0  0
 30 91  1  0  0  0  0
 30 92  1  0  0  0  0
 31 32  1  0  0  0  0
 32 33  1  0  0  0  0
 32 93  1  0  0  0  0
 32 94  1  0  0  0  0
 33 34  1  0  0  0  0
 33 95  1  0  0  0  0
 33 96  1  0  0  0  0
 34 35  1  0  0  0  0
 35 36  1  0  0  0  0
 36 37  1  0  0  0  0
 37 38  1  0  0  0  0
 37 97  1  0  0  0  0
 37 98  1  0  0  0  0
 38 39  2  3  0  0  0
 38 99  1  0  0  0  0
 39 40  1  0  0  0  0
 39100  1  0  0  0  0
 40 41  2  3  0  0  0
 40101  1  0  0  0  0
 41 42  1  0  0  0  0
 41102  1  0  0  0  0
 42 43  2  3  0  0  0
 42103  1  0  0  0  0
 43 44  1  0  0  0  0
 43104  1  0  0  0  0
 44 45  2  3  0  0  0
 44105  1  0  0  0  0
 45 46  1  0  0  0  0
 45106  1  0  0  0  0
 46 47  2  3  0  0  0
 46107  1  0  0  0  0
 47 48  1  0  0  0  0
 47108  1  0  0  0  0
 48 49  2  3  0  0  0
 48109  1  0  0  0  0
 49 50  1  0  0  0  0
 49110  1  0  0  0  0
 50 51  2  3  0  0  0
 50111  1  0  0  0  0
 51 52  1  0  0  0  0
 51112  1  0  0  0  0
 52 53  2  3  0  0  0
 52113  1  0  0  0  0
 53 54  1  0  0  0  0
 53114  1  0  0  0  0
 54 55  1  0  0  0  0
 55 56  1  0  0  0  0
 56115  1  0  0  0  0
 56116  1  0  0  0  0
 56117  1  0  0  0  0
M  END
$$$$
