
 OpenBabel04232216553D

 49 52  0  0  0  0  0  0  0  0999 V2000
    1.3907   -0.1953   -0.5110 C   0  0  0  0  0  0  0  0  0  0  0  0
    2.8490   -0.0952   -0.3069 N   0  0  0  0  0  0  0  0  0  0  0  0
    3.4053    1.1671   -0.2470 C   0  0  0  0  0  0  0  0  0  0  0  0
    4.4878    1.5585    0.4467 C   0  0  0  0  0  0  0  0  0  0  0  0
    5.0446    0.6861    1.5589 C   0  0  0  0  0  0  0  0  0  0  0  0
    5.3051    2.6135   -0.0141 N   0  0  0  0  0  0  0  0  0  0  0  0
    4.7207    3.6588   -0.9033 C   0  0  0  0  0  0  0  0  0  0  0  0
    6.6332    2.2412   -0.3120 C   0  0  0  0  0  0  0  0  0  0  0  0
    7.5716    3.2484   -0.7351 C   0  0  0  0  0  3  0  0  0  0  0  0
    7.8798    2.9052   -2.1189 C   0  0  0  0  0  0  0  0  0  0  0  0
    7.4582    1.7444   -2.5212 N   0  0  0  0  0  0  0  0  0  0  0  0
    6.9424    1.0440   -1.2688 C   0  0  0  0  0  0  0  0  0  0  0  0
    8.1502    0.2364   -0.7287 C   0  0  0  0  0  0  0  0  0  0  0  0
    5.7690    0.1222   -1.5595 C   0  0  0  0  0  0  0  0  0  0  0  0
    5.4216   -0.7257   -2.4403 N   0  0  0  0  0  0  0  0  0  0  0  0
    5.1054   -0.9681   -1.0683 N   0  0  0  0  0  0  0  0  0  0  0  0
    3.6532   -1.1537   -0.9379 N   0  0  0  0  0  0  0  0  0  0  0  0
    3.4249   -2.3873   -0.0977 C   0  0  0  0  0  0  0  0  0  0  0  0
    2.6056   -3.4842   -0.8245 C   0  0  0  0  0  0  0  0  0  0  0  0
    1.9719   -4.5254    0.0951 C   0  0  0  0  0  0  0  0  0  0  0  0
    0.5937   -4.5114    0.3839 C   0  0  0  0  0  0  0  0  0  0  0  0
    0.0069   -5.4909    1.1855 C   0  0  0  0  0  0  0  0  0  0  0  0
    0.7872   -6.5100    1.7273 C   0  0  0  0  0  0  0  0  0  0  0  0
    2.1524   -6.5429    1.4560 C   0  0  0  0  0  0  0  0  0  0  0  0
    2.7403   -5.5611    0.6479 C   0  0  0  0  0  0  0  0  0  0  0  0
    0.9730    0.7186   -0.9484 H   0  0  0  0  0  0  0  0  0  0  0  0
    0.9120   -0.3539    0.4608 H   0  0  0  0  0  0  0  0  0  0  0  0
    1.1119   -1.0211   -1.1693 H   0  0  0  0  0  0  0  0  0  0  0  0
    2.9948    1.7733   -1.0595 H   0  0  0  0  0  0  0  0  0  0  0  0
    4.3676   -0.1251    1.8407 H   0  0  0  0  0  0  0  0  0  0  0  0
    5.2269    1.2895    2.4527 H   0  0  0  0  0  0  0  0  0  0  0  0
    5.9944    0.2187    1.2807 H   0  0  0  0  0  0  0  0  0  0  0  0
    3.6604    3.8341   -0.6991 H   0  0  0  0  0  0  0  0  0  0  0  0
    4.8220    3.3675   -1.9621 H   0  0  0  0  0  0  0  0  0  0  0  0
    5.2271    4.6196   -0.7574 H   0  0  0  0  0  0  0  0  0  0  0  0
    7.6316    4.2431   -0.3347 H   0  0  0  0  0  0  0  0  0  0  0  0
    8.3565    3.6605   -2.7586 H   0  0  0  0  0  0  0  0  0  0  0  0
    8.7745    0.8317   -0.0474 H   0  0  0  0  0  0  0  0  0  0  0  0
    8.8129   -0.0707   -1.5482 H   0  0  0  0  0  0  0  0  0  0  0  0
    7.8516   -0.6645   -0.1868 H   0  0  0  0  0  0  0  0  0  0  0  0
    2.8945   -2.1208    0.8287 H   0  0  0  0  0  0  0  0  0  0  0  0
    4.3735   -2.8192    0.2499 H   0  0  0  0  0  0  0  0  0  0  0  0
    3.2477   -4.0006   -1.5468 H   0  0  0  0  0  0  0  0  0  0  0  0
    1.8025   -3.0355   -1.4197 H   0  0  0  0  0  0  0  0  0  0  0  0
   -0.0465   -3.7360   -0.0473 H   0  0  0  0  0  0  0  0  0  0  0  0
   -1.0631   -5.4691    1.3824 H   0  0  0  0  0  0  0  0  0  0  0  0
    0.3306   -7.2768    2.3480 H   0  0  0  0  0  0  0  0  0  0  0  0
    2.7618   -7.3453    1.8623 H   0  0  0  0  0  0  0  0  0  0  0  0
    3.8043   -5.6222    0.4357 H   0  0  0  0  0  0  0  0  0  0  0  0
  1  2  1  0  0  0  0
  1 26  1  0  0  0  0
  1 27  1  0  0  0  0
  1 28  1  0  0  0  0
  2  3  1  0  0  0  0
  2 17  1  0  0  0  0
  3  4  2  3  0  0  0
  3 29  1  0  0  0  0
  4  5  1  0  0  0  0
  4  6  1  0  0  0  0
  5 30  1  0  0  0  0
  5 31  1  0  0  0  0
  5 32  1  0  0  0  0
  6  7  1  0  0  0  0
  6  8  1  0  0  0  0
  7 33  1  0  0  0  0
  7 34  1  0  0  0  0
  7 35  1  0  0  0  0
  8  9  1  0  0  0  0
  8 12  2  0  0  0  0
  9 10  1  0  0  0  0
  9 36  1  0  0  0  0
 10 11  2  0  0  0  0
 10 37  1  0  0  0  0
 11 12  1  0  0  0  0
 12 13  1  0  0  0  0
 12 14  1  0  0  0  0
 13 38  1  0  0  0  0
 13 39  1  0  0  0  0
 13 40  1  0  0  0  0
 14 15  2  0  0  0  0
 14 16  1  0  0  0  0
 15 16  1  0  0  0  0
 16 17  1  0  0  0  0
 17 18  1  0  0  0  0
 18 19  1  0  0  0  0
 18 41  1  0  0  0  0
 18 42  1  0  0  0  0
 19 20  1  0  0  0  0
 19 43  1  0  0  0  0
 19 44  1  0  0  0  0
 20 21  1  0  0  0  0
 20 25  2  0  0  0  0
 21 22  2  0  0  0  0
 21 45  1  0  0  0  0
 22 23  1  0  0  0  0
 22 46  1  0  0  0  0
 23 24  2  0  0  0  0
 23 47  1  0  0  0  0
 24 25  1  0  0  0  0
 24 48  1  0  0  0  0
 25 49  1  0  0  0  0
M  END
$$$$
