
 OpenBabel04232216463D

 59 60  0  0  1  0  0  0  0  0999 V2000
    3.9669    2.6833    0.0977 C   0  0  0  0  0  0  0  0  0  0  0  0
    5.5236    3.6177    0.5371 C   0  0  3  0  0  0  0  0  0  0  0  0
    5.6425    3.6157    2.0917 C   0  0  0  0  0  0  0  0  0  0  0  0
    6.8672    3.3270    2.5736 C   0  0  0  0  0  0  0  0  0  0  0  0
    7.1607    1.8931    1.8929 C   0  0  0  0  0  0  0  0  0  0  0  0
    7.8168    4.5451    2.8426 N   0  0  0  0  0  0  0  0  0  0  0  0
    9.0621    4.9962    3.3504 C   0  0  0  0  0  0  0  0  0  0  0  0
   10.0593    6.4422    2.7051 C   0  0  0  0  0  0  0  0  0  0  0  0
    9.2516    5.9850    1.7086 C   0  0  0  0  0  0  0  0  0  0  0  0
    8.2549    5.5484    0.3502 C   0  0  0  0  0  0  0  0  0  0  0  0
    9.4421    5.9190   -0.6546 C   0  0  0  0  0  0  0  0  0  0  0  0
   10.0301    5.0136   -1.2361 O   0  0  0  0  0  0  0  0  0  0  0  0
   10.1268    7.3326   -0.3600 C   0  0  0  0  0  0  0  0  0  0  0  0
   11.4027    7.7041   -0.0428 C   0  0  0  0  0  0  0  0  0  0  0  0
   11.8146    9.1081    0.2856 C   0  0  0  0  0  0  0  0  0  0  0  0
   13.0511    9.5447    0.6372 C   0  0  0  0  0  0  0  0  0  0  0  0
   13.4172   10.9786    1.0027 C   0  0  0  0  0  0  0  0  0  0  0  0
   14.9201   11.1161    0.8848 C   0  0  0  0  0  0  0  0  0  0  0  0
   15.3747   12.4912    1.2966 C   0  0  0  0  0  0  0  0  0  0  0  0
   16.8691   12.3905    1.4598 C   0  0  0  0  0  0  0  0  0  0  0  0
   17.0003   12.5222    2.9533 C   0  0  0  0  0  0  0  0  0  0  0  0
   16.4581   10.9969    3.6443 C   0  0  0  0  0  0  0  0  0  0  0  0
   14.6998   10.1701    3.9332 C   0  0  0  0  0  0  0  0  0  0  0  0
   13.3291    8.7382    3.4569 C   0  0  0  0  0  0  0  0  0  0  0  0
   11.4680    7.8648    3.2646 C   0  0  0  0  0  0  0  0  0  0  0  0
    6.9887    4.7006   -0.0133 C   0  0  0  0  0  0  0  0  0  0  0  0
    3.2732    2.5061    0.9627 H   0  0  0  0  0  0  0  0  0  0  0  0
    4.1558    1.5979   -0.1611 H   0  0  0  0  0  0  0  0  0  0  0  0
    3.3005    3.0130   -0.7271 H   0  0  0  0  0  0  0  0  0  0  0  0
    5.9708    2.7302    0.0592 H   0  0  0  0  0  0  0  0  0  0  0  0
    4.8070    4.1800    2.5089 H   0  0  0  0  0  0  0  0  0  0  0  0
    6.1657    1.3636    1.7175 H   0  0  0  0  0  0  0  0  0  0  0  0
    7.6467    1.1199    2.4804 H   0  0  0  0  0  0  0  0  0  0  0  0
    7.5516    1.9115    0.8597 H   0  0  0  0  0  0  0  0  0  0  0  0
    9.7000    4.2441    3.8459 H   0  0  0  0  0  0  0  0  0  0  0  0
    9.8019    4.9867    1.4206 H   0  0  0  0  0  0  0  0  0  0  0  0
    9.3502    8.0797   -0.2448 H   0  0  0  0  0  0  0  0  0  0  0  0
   12.1990    6.9647    0.0782 H   0  0  0  0  0  0  0  0  0  0  0  0
   11.0216    9.8539    0.3294 H   0  0  0  0  0  0  0  0  0  0  0  0
   13.8629    8.8309    0.7561 H   0  0  0  0  0  0  0  0  0  0  0  0
   13.1293   11.2534    2.0274 H   0  0  0  0  0  0  0  0  0  0  0  0
   12.9489   11.7238    0.3563 H   0  0  0  0  0  0  0  0  0  0  0  0
   15.2912   10.9064   -0.1193 H   0  0  0  0  0  0  0  0  0  0  0  0
   15.3996   10.3657    1.5280 H   0  0  0  0  0  0  0  0  0  0  0  0
   14.8894   12.7605    2.2504 H   0  0  0  0  0  0  0  0  0  0  0  0
   15.1031   13.2956    0.6125 H   0  0  0  0  0  0  0  0  0  0  0  0
   17.4114   13.0860    0.8015 H   0  0  0  0  0  0  0  0  0  0  0  0
   17.2957   11.4069    1.2166 H   0  0  0  0  0  0  0  0  0  0  0  0
   16.4642   13.4028    3.3524 H   0  0  0  0  0  0  0  0  0  0  0  0
   18.0680   12.8285    3.1069 H   0  0  0  0  0  0  0  0  0  0  0  0
   17.2643   10.2958    3.2961 H   0  0  0  0  0  0  0  0  0  0  0  0
   16.8189   11.2478    4.6635 H   0  0  0  0  0  0  0  0  0  0  0  0
   15.1311    9.7000    4.8437 H   0  0  0  0  0  0  0  0  0  0  0  0
   14.1031   11.0737    4.2095 H   0  0  0  0  0  0  0  0  0  0  0  0
   13.3018    8.5849    4.5372 H   0  0  0  0  0  0  0  0  0  0  0  0
   12.7385    9.6857    3.2239 H   0  0  0  0  0  0  0  0  0  0  0  0
   11.0675    8.6206    2.5308 H   0  0  0  0  0  0  0  0  0  0  0  0
   11.0535    8.1231    4.2539 H   0  0  0  0  0  0  0  0  0  0  0  0
    6.9654    4.3805   -1.0756 H   0  0  0  0  0  0  0  0  0  0  0  0
  1  2  1  0  0  0  0
  1 27  1  0  0  0  0
  1 28  1  0  0  0  0
  1 29  1  0  0  0  0
  2  3  1  0  0  0  0
  2 26  1  0  0  0  0
  2 30  1  0  0  0  0
  3  4  2  3  0  0  0
  3 31  1  0  0  0  0
  4  5  1  0  0  0  0
  4  6  1  0  0  0  0
  5 32  1  0  0  0  0
  5 33  1  0  0  0  0
  5 34  1  0  0  0  0
  6  7  2  3  0  0  0
  7  8  1  0  0  0  0
  7 35  1  0  0  0  0
  8  9  2  3  0  0  0
  8 25  1  0  0  0  0
  9 10  1  0  0  0  0
  9 36  1  0  0  0  0
 10 11  1  0  0  0  0
 10 26  2  3  0  0  0
 11 12  2  0  0  0  0
 11 13  1  0  0  0  0
 13 14  2  3  0  0  0
 13 37  1  0  0  0  0
 14 15  1  0  0  0  0
 14 38  1  0  0  0  0
 15 16  2  3  0  0  0
 15 39  1  0  0  0  0
 16 17  1  0  0  0  0
 16 40  1  0  0  0  0
 17 18  1  0  0  0  0
 17 41  1  0  0  0  0
 17 42  1  0  0  0  0
 18 19  1  0  0  0  0
 18 43  1  0  0  0  0
 18 44  1  0  0  0  0
 19 20  1  0  0  0  0
 19 45  1  0  0  0  0
 19 46  1  0  0  0  0
 20 21  1  0  0  0  0
 20 47  1  0  0  0  0
 20 48  1  0  0  0  0
 21 22  1  0  0  0  0
 21 49  1  0  0  0  0
 21 50  1  0  0  0  0
 22 23  1  0  0  0  0
 22 51  1  0  0  0  0
 22 52  1  0  0  0  0
 23 24  1  0  0  0  0
 23 53  1  0  0  0  0
 23 54  1  0  0  0  0
 24 25  1  0  0  0  0
 24 55  1  0  0  0  0
 24 56  1  0  0  0  0
 25 57  1  0  0  0  0
 25 58  1  0  0  0  0
 26 59  1  0  0  0  0
M  END
$$$$
