
 OpenBabel04232216473D

 45 46  0  0  0  0  0  0  0  0999 V2000
    0.9958   -0.3955    0.7395 C   0  0  0  0  0  0  0  0  0  0  0  0
    2.4956   -0.3173    0.6717 C   0  0  0  0  0  0  0  0  0  0  0  0
    2.9829    0.4241   -0.5386 C   0  0  0  0  0  0  0  0  0  0  0  0
    4.1682    1.0427   -0.4072 C   0  0  0  0  0  0  0  0  0  0  0  0
    4.4244    1.7702    0.8984 C   0  0  0  0  0  0  0  0  0  0  0  0
    3.5215    2.8945    1.3823 C   0  0  0  0  0  0  0  0  0  0  0  0
    4.0259    4.3429    1.2631 C   0  0  0  0  0  0  0  0  0  0  0  0
    4.0173    4.9039   -0.1508 C   0  0  0  0  0  0  0  0  0  0  0  0
    2.6379    4.9007   -0.7903 C   0  0  0  0  0  0  0  0  0  0  0  0
    1.7801    5.6175   -0.0118 F   0  0  0  0  0  0  0  0  0  0  0  0
    5.1126    1.1518    1.8878 C   0  0  0  0  0  0  0  0  0  0  0  0
    5.5311   -0.2179    1.7248 C   0  0  0  0  0  0  0  0  0  0  0  0
    7.0291   -0.3720    1.7034 C   0  0  0  0  0  0  0  0  0  0  0  0
    4.5922   -1.1611    1.4287 C   0  0  0  0  0  0  0  0  0  0  0  0
    5.0226   -2.4813    0.8594 C   0  0  0  0  0  0  0  0  0  0  0  0
    4.5002   -2.5715   -0.5573 C   0  0  0  0  0  0  0  0  0  0  0  0
    3.5443   -3.2801   -0.8883 O   0  0  0  0  0  0  0  0  0  0  0  0
    5.3827   -1.9638   -1.4724 N   0  0  0  0  0  0  0  0  0  0  0  0
    6.1874   -2.9256   -2.2070 C   0  0  0  0  0  0  0  0  0  0  0  0
    5.1862   -0.6831   -2.0494 C   0  0  0  0  0  0  0  0  0  0  0  0
    5.2335    0.4645   -1.2997 C   0  0  0  0  0  0  0  0  0  0  0  0
    3.2056   -0.9816    1.5482 N   0  0  0  0  0  0  0  0  0  0  0  0
    0.5363    0.4370    0.1919 H   0  0  0  0  0  0  0  0  0  0  0  0
    0.6537   -0.3797    1.7713 H   0  0  0  0  0  0  0  0  0  0  0  0
    0.6842   -1.3287    0.2561 H   0  0  0  0  0  0  0  0  0  0  0  0
    2.6420   -0.0498   -1.4522 H   0  0  0  0  0  0  0  0  0  0  0  0
    3.3172    2.7421    2.4622 H   0  0  0  0  0  0  0  0  0  0  0  0
    2.5466    2.8170    0.9391 H   0  0  0  0  0  0  0  0  0  0  0  0
    5.0363    4.4124    1.6875 H   0  0  0  0  0  0  0  0  0  0  0  0
    3.3866    4.9684    1.8959 H   0  0  0  0  0  0  0  0  0  0  0  0
    4.7234    4.3564   -0.7804 H   0  0  0  0  0  0  0  0  0  0  0  0
    4.3636    5.9418   -0.0893 H   0  0  0  0  0  0  0  0  0  0  0  0
    2.2294    3.8913   -0.9046 H   0  0  0  0  0  0  0  0  0  0  0  0
    2.6670    5.3690   -1.7752 H   0  0  0  0  0  0  0  0  0  0  0  0
    5.2231    1.5807    2.8806 H   0  0  0  0  0  0  0  0  0  0  0  0
    7.5166    0.3750    2.3429 H   0  0  0  0  0  0  0  0  0  0  0  0
    7.4184   -0.2364    0.6878 H   0  0  0  0  0  0  0  0  0  0  0  0
    7.3488   -1.3495    2.0769 H   0  0  0  0  0  0  0  0  0  0  0  0
    4.6668   -3.3128    1.4726 H   0  0  0  0  0  0  0  0  0  0  0  0
    6.1095   -2.5867    0.7976 H   0  0  0  0  0  0  0  0  0  0  0  0
    7.2249   -2.7260   -1.9262 H   0  0  0  0  0  0  0  0  0  0  0  0
    6.0630   -2.8343   -3.2891 H   0  0  0  0  0  0  0  0  0  0  0  0
    5.9577   -3.9585   -1.9076 H   0  0  0  0  0  0  0  0  0  0  0  0
    4.2597   -0.7803   -2.6278 H   0  0  0  0  0  0  0  0  0  0  0  0
    5.9039    1.2318   -1.6696 H   0  0  0  0  0  0  0  0  0  0  0  0
  1  2  1  0  0  0  0
  1 23  1  0  0  0  0
  1 24  1  0  0  0  0
  1 25  1  0  0  0  0
  2  3  1  0  0  0  0
  2 22  2  0  0  0  0
  3  4  2  0  0  0  0
  3 26  1  0  0  0  0
  4  5  1  0  0  0  0
  4 21  1  0  0  0  0
  5  6  1  0  0  0  0
  5 11  2  0  0  0  0
  6  7  1  0  0  0  0
  6 27  1  0  0  0  0
  6 28  1  0  0  0  0
  7  8  1  0  0  0  0
  7 29  1  0  0  0  0
  7 30  1  0  0  0  0
  8  9  1  0  0  0  0
  8 31  1  0  0  0  0
  8 32  1  0  0  0  0
  9 10  1  0  0  0  0
  9 33  1  0  0  0  0
  9 34  1  0  0  0  0
 11 12  1  0  0  0  0
 11 35  1  0  0  0  0
 12 13  1  0  0  0  0
 12 14  2  0  0  0  0
 13 36  1  0  0  0  0
 13 37  1  0  0  0  0
 13 38  1  0  0  0  0
 14 15  1  0  0  0  0
 14 22  1  0  0  0  0
 15 16  1  0  0  0  0
 15 39  1  0  0  0  0
 15 40  1  0  0  0  0
 16 17  2  0  0  0  0
 16 18  1  0  0  0  0
 18 19  1  0  0  0  0
 18 20  1  0  0  0  0
 19 41  1  0  0  0  0
 19 42  1  0  0  0  0
 19 43  1  0  0  0  0
 20 21  2  3  0  0  0
 20 44  1  0  0  0  0
 21 45  1  0  0  0  0
M  END
$$$$
