
 OpenBabel04232216593D

106105  0  0  0  0  0  0  0  0999 V2000
    2.2913   -0.1656   -4.9874 O   0  0  0  0  0  0  0  0  0  0  0  0
    3.0962    0.7358   -4.7733 C   0  0  0  0  0  0  0  0  0  0  0  0
    3.4553    1.2001   -3.3881 C   0  0  0  0  0  0  0  0  0  0  0  0
    4.9452    1.0301   -3.1534 C   0  0  0  0  0  0  0  0  0  0  0  0
    5.3412    1.4905   -1.7500 C   0  0  0  0  0  0  0  0  0  0  0  0
    6.8411    1.3121   -1.5184 C   0  0  0  0  0  0  0  0  0  0  0  0
    7.5933    2.1138   -2.4791 N   0  0  0  0  0  0  0  0  0  0  0  0
    9.0211    1.9408   -2.2924 C   0  0  0  0  0  0  0  0  0  0  0  0
    9.7588    2.7794   -3.3264 C   0  0  0  0  0  0  0  0  0  0  0  0
   11.1877    2.6168   -3.1164 N   0  0  0  0  0  0  0  0  0  0  0  0
   11.9261    3.4053   -4.0920 C   0  0  0  0  0  0  0  0  0  0  0  0
   13.4146    3.2284   -3.8743 C   0  0  0  0  0  0  0  0  0  0  0  0
   14.1487    4.0569   -4.8983 C   0  0  0  0  0  0  0  0  0  0  0  0
   15.5317    3.8790   -4.6767 O   0  0  0  0  0  0  0  0  0  0  0  0
   16.2337    4.6448   -5.6230 C   0  0  0  0  0  0  0  0  0  0  0  0
   17.6854    4.4520   -5.3850 C   0  0  0  0  0  0  0  0  0  0  0  0
   18.2577    5.2528   -6.3712 O   0  0  0  0  0  0  0  0  0  0  0  0
   19.6247    5.0623   -6.1397 O   0  0  0  0  0  0  0  0  0  0  0  0
   20.3038    5.8247   -7.0824 O   0  0  0  0  0  0  0  0  0  0  0  0
   21.6577    5.6362   -6.8501 O   0  0  0  0  0  0  0  0  0  0  0  0
   22.3188    6.3983   -7.7960 O   0  0  0  0  0  0  0  0  0  0  0  0
   23.6659    6.2143   -7.5654 O   0  0  0  0  0  0  0  0  0  0  0  0
   24.3139    6.9782   -8.5099 O   0  0  0  0  0  0  0  0  0  0  0  0
   25.6549    6.7898   -8.2787 O   0  0  0  0  0  0  0  0  0  0  0  0
   26.2965    7.5540   -9.2197 O   0  0  0  0  0  0  0  0  0  0  0  0
   27.6327    7.3657   -8.9837 O   0  0  0  0  0  0  0  0  0  0  0  0
   28.2688    8.1268   -9.9258 O   0  0  0  0  0  0  0  0  0  0  0  0
   29.6017    7.9359   -9.6903 O   0  0  0  0  0  0  0  0  0  0  0  0
   30.2344    8.6986  -10.6303 O   0  0  0  0  0  0  0  0  0  0  0  0
   31.5650    8.5045  -10.3951 O   0  0  0  0  0  0  0  0  0  0  0  0
   32.1966    9.2685  -11.3329 O   0  0  0  0  0  0  0  0  0  0  0  0
   33.5258    9.0759  -11.0945 O   0  0  0  0  0  0  0  0  0  0  0  0
   34.1566    9.8378  -12.0335 O   0  0  0  0  0  0  0  0  0  0  0  0
   35.4852    9.6426  -11.7968 O   0  0  0  0  0  0  0  0  0  0  0  0
   36.1153   10.4025  -12.7373 O   0  0  0  0  0  0  0  0  0  0  0  0
   37.4436   10.2097  -12.4986 O   0  0  0  0  0  0  0  0  0  0  0  0
   38.0735   10.9715  -13.4374 O   0  0  0  0  0  0  0  0  0  0  0  0
   39.4017   10.7761  -13.2006 O   0  0  0  0  0  0  0  0  0  0  0  0
   40.0314   11.5393  -14.1383 O   0  0  0  0  0  0  0  0  0  0  0  0
   41.3595   11.3458  -13.8999 O   0  0  0  0  0  0  0  0  0  0  0  0
   41.9892   12.1109  -14.8360 O   0  0  0  0  0  0  0  0  0  0  0  0
   43.3173   11.9194  -14.5960 O   0  0  0  0  0  0  0  0  0  0  0  0
   43.9470   12.6820  -15.5341 O   0  0  0  0  0  0  0  0  0  0  0  0
   45.2751   12.4885  -15.2957 O   0  0  0  0  0  0  0  0  0  0  0  0
   45.9048   13.2537  -16.2317 O   0  0  0  0  0  0  0  0  0  0  0  0
   47.2329   13.0590  -15.9943 O   0  0  0  0  0  0  0  0  0  0  0  0
   47.8732   13.7842  -16.9698 O   0  0  0  0  0  0  0  0  0  0  0  0
   49.2062   13.5334  -16.7800 O   0  0  0  0  0  0  0  0  0  0  0  0
   49.8293   14.4595  -17.5797 O   0  0  0  0  0  0  0  0  0  0  0  0
   51.1572   14.1956  -17.3885 O   0  0  0  0  0  0  0  0  0  0  0  0
   51.7825   14.9465  -18.3353 O   0  0  0  0  0  0  0  0  0  0  0  0
   53.1070   14.7541  -18.0966 O   0  0  0  0  0  0  0  0  0  0  0  0
   53.7370   15.5286  -19.0416 O   0  0  0  0  0  0  0  0  0  0  0  0
   55.0633   15.3169  -18.7841 O   0  0  0  0  0  0  0  0  0  0  0  0
   55.6908   16.0957  -19.7434 O   0  0  0  0  0  0  0  0  0  0  0  0
   57.0216   15.8895  -19.4873 O   0  0  0  0  0  0  0  0  0  0  0  0
   57.6577   16.6629  -20.4323 O   0  0  0  0  0  0  0  0  0  0  0  0
   58.9689   16.4600  -20.1851 O   0  0  0  0  0  0  0  0  0  0  0  0
   59.6180   17.2328  -21.1370 O   0  0  0  0  0  0  0  0  0  0  0  0
   60.9294   17.0284  -20.9058 O   0  0  0  0  0  0  0  0  0  0  0  0
   61.5628   17.7988  -21.8346 O   0  0  0  0  0  0  0  0  0  0  0  0
   62.9066   17.6143  -21.6075 O   0  0  0  0  0  0  0  0  0  0  0  0
   63.5196   18.3670  -22.5349 O   0  0  0  0  0  0  0  0  0  0  0  0
   64.8544   18.1734  -22.3033 O   0  0  0  0  0  0  0  0  0  0  0  0
   65.4999   18.9329  -23.2349 O   0  0  0  0  0  0  0  0  0  0  0  0
   66.8071   18.7349  -22.9913 O   0  0  0  0  0  0  0  0  0  0  0  0
   67.4624   19.5045  -23.9273 O   0  0  0  0  0  0  0  0  0  0  0  0
   68.7854   19.3087  -23.6957 O   0  0  0  0  0  0  0  0  0  0  0  0
   69.4218   20.0712  -24.6306 O   0  0  0  0  0  0  0  0  0  0  0  0
   70.7560   19.8815  -24.3987 O   0  0  0  0  0  0  0  0  0  0  0  0
   71.3893   20.6533  -25.3400 O   0  0  0  0  0  0  0  0  0  0  0  0
   72.7315   20.4657  -25.1156 O   0  0  0  0  0  0  0  0  0  0  0  0
   73.3749   21.2346  -26.0582 O   0  0  0  0  0  0  0  0  0  0  0  0
   74.7226   21.0487  -25.8320 O   0  0  0  0  0  0  0  0  0  0  0  0
   75.3861   21.8202  -26.7722 O   0  0  0  0  0  0  0  0  0  0  0  0
   76.7424   21.6311  -26.5368 O   0  0  0  0  0  0  0  0  0  0  0  0
   77.4414   22.3780  -27.4930 O   0  0  0  0  0  0  0  0  0  0  0  0
   78.8157   22.2016  -27.2798 O   0  0  0  0  0  0  0  0  0  0  0  0
   79.5305   23.0071  -28.2092 O   0  0  0  0  0  0  0  0  0  0  0  0
   79.1499   24.3918  -28.0278 O   0  0  0  0  0  0  0  0  0  0  0  0
    3.5842    1.2749   -5.6034 H   0  0  0  0  0  0  0  0  0  0  0  0
    2.8863    0.6094   -2.6638 H   0  0  0  0  0  0  0  0  0  0  0  0
    3.1642    2.2511   -3.2866 H   0  0  0  0  0  0  0  0  0  0  0  0
    5.5013    1.6030   -3.9065 H   0  0  0  0  0  0  0  0  0  0  0  0
    5.2308   -0.0207   -3.2896 H   0  0  0  0  0  0  0  0  0  0  0  0
    4.7848    0.9124   -1.0007 H   0  0  0  0  0  0  0  0  0  0  0  0
    5.0620    2.5428   -1.6095 H   0  0  0  0  0  0  0  0  0  0  0  0
    7.0964    0.2513   -1.6315 H   0  0  0  0  0  0  0  0  0  0  0  0
    7.0980    1.6152   -0.4980 H   0  0  0  0  0  0  0  0  0  0  0  0
    7.3450    3.0964   -2.3851 H   0  0  0  0  0  0  0  0  0  0  0  0
    9.2896    0.8838   -2.4058 H   0  0  0  0  0  0  0  0  0  0  0  0
    9.2959    2.2634   -1.2819 H   0  0  0  0  0  0  0  0  0  0  0  0
    9.4872    3.8363   -3.2103 H   0  0  0  0  0  0  0  0  0  0  0  0
    9.4800    2.4642   -4.3397 H   0  0  0  0  0  0  0  0  0  0  0  0
   11.4437    1.6334   -3.2117 H   0  0  0  0  0  0  0  0  0  0  0  0
   11.6698    4.4665   -3.9877 H   0  0  0  0  0  0  0  0  0  0  0  0
   11.6674    3.0929   -5.1114 H   0  0  0  0  0  0  0  0  0  0  0  0
   13.7143    2.1770   -3.9705 H   0  0  0  0  0  0  0  0  0  0  0  0
   13.7131    3.5413   -2.8656 H   0  0  0  0  0  0  0  0  0  0  0  0
   13.8989    5.1195   -4.7940 H   0  0  0  0  0  0  0  0  0  0  0  0
   13.9017    3.7288   -5.9151 H   0  0  0  0  0  0  0  0  0  0  0  0
   15.9918    5.7133   -5.5363 H   0  0  0  0  0  0  0  0  0  0  0  0
   15.9914    4.3369   -6.6496 H   0  0  0  0  0  0  0  0  0  0  0  0
   18.0017    3.4104   -5.5149 H   0  0  0  0  0  0  0  0  0  0  0  0
   18.0017    4.7937   -4.3925 H   0  0  0  0  0  0  0  0  0  0  0  0
   79.6964   24.7242  -28.7574 H   0  0  0  0  0  0  0  0  0  0  0  0
  1  2  2  0  0  0  0
  2  3  1  0  0  0  0
  2 81  1  0  0  0  0
  3  4  1  0  0  0  0
  3 82  1  0  0  0  0
  3 83  1  0  0  0  0
  4  5  1  0  0  0  0
  4 84  1  0  0  0  0
  4 85  1  0  0  0  0
  5  6  1  0  0  0  0
  5 86  1  0  0  0  0
  5 87  1  0  0  0  0
  6  7  1  0  0  0  0
  6 88  1  0  0  0  0
  6 89  1  0  0  0  0
  7  8  1  0  0  0  0
  7 90  1  0  0  0  0
  8  9  1  0  0  0  0
  8 91  1  0  0  0  0
  8 92  1  0  0  0  0
  9 10  1  0  0  0  0
  9 93  1  0  0  0  0
  9 94  1  0  0  0  0
 10 11  1  0  0  0  0
 10 95  1  0  0  0  0
 11 12  1  0  0  0  0
 11 96  1  0  0  0  0
 11 97  1  0  0  0  0
 12 13  1  0  0  0  0
 12 98  1  0  0  0  0
 12 99  1  0  0  0  0
 13 14  1  0  0  0  0
 13100  1  0  0  0  0
 13101  1  0  0  0  0
 14 15  1  0  0  0  0
 15 16  1  0  0  0  0
 15102  1  0  0  0  0
 15103  1  0  0  0  0
 16 17  1  0  0  0  0
 16104  1  0  0  0  0
 16105  1  0  0  0  0
 17 18  1  0  0  0  0
 18 19  1  0  0  0  0
 19 20  1  0  0  0  0
 20 21  1  0  0  0  0
 21 22  1  0  0  0  0
 22 23  1  0  0  0  0
 23 24  1  0  0  0  0
 24 25  1  0  0  0  0
 25 26  1  0  0  0  0
 26 27  1  0  0  0  0
 27 28  1  0  0  0  0
 28 29  1  0  0  0  0
 29 30  1  0  0  0  0
 30 31  1  0  0  0  0
 31 32  1  0  0  0  0
 32 33  1  0  0  0  0
 33 34  1  0  0  0  0
 34 35  1  0  0  0  0
 35 36  1  0  0  0  0
 36 37  1  0  0  0  0
 37 38  1  0  0  0  0
 38 39  1  0  0  0  0
 39 40  1  0  0  0  0
 40 41  1  0  0  0  0
 41 42  1  0  0  0  0
 42 43  1  0  0  0  0
 43 44  1  0  0  0  0
 44 45  1  0  0  0  0
 45 46  1  0  0  0  0
 46 47  1  0  0  0  0
 47 48  1  0  0  0  0
 48 49  1  0  0  0  0
 49 50  1  0  0  0  0
 50 51  1  0  0  0  0
 51 52  1  0  0  0  0
 52 53  1  0  0  0  0
 53 54  1  0  0  0  0
 54 55  1  0  0  0  0
 55 56  1  0  0  0  0
 56 57  1  0  0  0  0
 57 58  1  0  0  0  0
 58 59  1  0  0  0  0
 59 60  1  0  0  0  0
 60 61  1  0  0  0  0
 61 62  1  0  0  0  0
 62 63  1  0  0  0  0
 63 64  1  0  0  0  0
 64 65  1  0  0  0  0
 65 66  1  0  0  0  0
 66 67  1  0  0  0  0
 67 68  1  0  0  0  0
 68 69  1  0  0  0  0
 69 70  1  0  0  0  0
 70 71  1  0  0  0  0
 71 72  1  0  0  0  0
 72 73  1  0  0  0  0
 73 74  1  0  0  0  0
 74 75  1  0  0  0  0
 75 76  1  0  0  0  0
 76 77  1  0  0  0  0
 77 78  1  0  0  0  0
 78 79  1  0  0  0  0
 79 80  1  0  0  0  0
 80106  1  0  0  0  0
M  END
$$$$
