
 OpenBabel04232216553D

 49 50  0  0  1  0  0  0  0  0999 V2000
    3.9165   -2.1552   -2.2806 C   0  0  0  0  0  0  0  0  0  0  0  0
    4.3190   -3.5044   -1.7364 N   0  0  0  0  0  0  0  0  0  0  0  0
    3.8124   -3.5442   -0.3993 C   0  0  0  0  0  0  0  0  0  0  0  0
    2.3033   -3.7415   -0.1444 C   0  0  0  0  0  0  0  0  0  0  0  0
    1.5958   -4.7727   -0.9865 C   0  0  0  0  0  0  0  0  0  0  0  0
    4.3684   -3.1073    0.6919 N   0  0  0  0  0  0  0  0  0  0  0  0
    5.6572   -3.4288    0.8492 C   0  0  0  0  0  0  0  0  0  0  0  0
    6.7804   -2.7883    0.5150 C   0  0  0  0  0  0  0  0  0  0  0  0
    7.8955   -3.6868    0.5151 C   0  0  0  0  0  0  0  0  0  0  0  0
    9.2038   -3.5303    0.3205 C   0  0  0  0  0  0  0  0  0  0  0  0
    9.9000   -4.7774    0.1751 C   0  0  0  0  0  0  0  0  0  0  0  0
   11.1430   -4.9741   -0.2327 C   0  0  0  0  0  0  0  0  0  0  0  0
   12.2814   -4.2015   -0.4784 N   0  0  0  0  0  0  0  0  0  0  0  0
   12.9457   -5.2211   -0.8852 C   0  0  0  0  0  0  0  0  0  0  0  0
   11.7895   -6.2045   -0.8470 C   0  0  3  0  0  0  0  0  0  0  0  0
   11.9874   -7.3962    0.0858 C   0  0  0  0  0  0  0  0  0  0  0  0
   13.2259   -8.0559   -0.1872 O   0  0  0  0  0  0  0  0  0  0  0  0
   11.0634   -6.4256   -2.2046 C   0  0  0  0  0  0  0  0  0  0  0  0
    9.7747   -6.8589   -2.1803 C   0  0  0  0  0  0  0  0  0  0  0  0
    8.6484   -6.2127   -2.9309 C   0  0  0  0  0  0  0  0  0  0  0  0
    7.3740   -6.2472   -2.4643 C   0  0  0  0  0  0  0  0  0  0  0  0
    6.8835   -7.6453   -2.1730 C   0  0  0  0  0  0  0  0  0  0  0  0
    6.3427   -5.1204   -2.3346 C   0  0  0  0  0  0  0  0  0  0  0  0
    5.5657   -4.0562   -2.3451 C   0  0  0  0  0  0  0  0  0  0  0  0
    2.8410   -1.9926   -2.1565 H   0  0  0  0  0  0  0  0  0  0  0  0
    4.1361   -2.0431   -3.3444 H   0  0  0  0  0  0  0  0  0  0  0  0
    4.4385   -1.3651   -1.7269 H   0  0  0  0  0  0  0  0  0  0  0  0
    1.7959   -2.7710   -0.1961 H   0  0  0  0  0  0  0  0  0  0  0  0
    2.2075   -4.0681    0.9035 H   0  0  0  0  0  0  0  0  0  0  0  0
    1.3704   -4.3758   -1.9787 H   0  0  0  0  0  0  0  0  0  0  0  0
    0.6448   -5.0409   -0.5093 H   0  0  0  0  0  0  0  0  0  0  0  0
    2.1912   -5.6828   -1.0918 H   0  0  0  0  0  0  0  0  0  0  0  0
    5.7197   -4.4292    1.2762 H   0  0  0  0  0  0  0  0  0  0  0  0
    6.8239   -1.7904    0.1004 H   0  0  0  0  0  0  0  0  0  0  0  0
    7.5609   -4.7268    0.5926 H   0  0  0  0  0  0  0  0  0  0  0  0
    9.6927   -2.5816    0.1470 H   0  0  0  0  0  0  0  0  0  0  0  0
    9.2892   -5.6780    0.2200 H   0  0  0  0  0  0  0  0  0  0  0  0
   13.9877   -5.3856   -1.1778 H   0  0  0  0  0  0  0  0  0  0  0  0
   11.1801   -8.1333    0.0245 H   0  0  0  0  0  0  0  0  0  0  0  0
   12.0323   -7.0730    1.1344 H   0  0  0  0  0  0  0  0  0  0  0  0
   13.1257   -8.5486   -1.0188 H   0  0  0  0  0  0  0  0  0  0  0  0
   11.4272   -5.7863   -3.0093 H   0  0  0  0  0  0  0  0  0  0  0  0
    9.4404   -7.4134   -1.3072 H   0  0  0  0  0  0  0  0  0  0  0  0
    8.9310   -5.5929   -3.7912 H   0  0  0  0  0  0  0  0  0  0  0  0
    6.8661   -7.8664   -1.1029 H   0  0  0  0  0  0  0  0  0  0  0  0
    7.5548   -8.3828   -2.6540 H   0  0  0  0  0  0  0  0  0  0  0  0
    5.9125   -7.8280   -2.6307 H   0  0  0  0  0  0  0  0  0  0  0  0
    7.0215   -4.6290   -3.0764 H   0  0  0  0  0  0  0  0  0  0  0  0
    5.8425   -3.2558   -3.0197 H   0  0  0  0  0  0  0  0  0  0  0  0
  1  2  1  0  0  0  0
  1 25  1  0  0  0  0
  1 26  1  0  0  0  0
  1 27  1  0  0  0  0
  2  3  1  0  0  0  0
  2 24  1  0  0  0  0
  3  4  1  0  0  0  0
  3  6  2  3  0  0  0
  4  5  1  0  0  0  0
  4 28  1  0  0  0  0
  4 29  1  0  0  0  0
  5 30  1  0  0  0  0
  5 31  1  0  0  0  0
  5 32  1  0  0  0  0
  6  7  1  0  0  0  0
  7  8  2  3  0  0  0
  7 33  1  0  0  0  0
  8  9  1  0  0  0  0
  8 34  1  0  0  0  0
  9 10  2  3  0  0  0
  9 35  1  0  0  0  0
 10 11  1  0  0  0  0
 10 36  1  0  0  0  0
 11 12  2  3  0  0  0
 11 37  1  0  0  0  0
 12 13  1  0  0  0  0
 12 15  1  0  0  0  0
 13 14  2  0  0  0  0
 14 15  1  0  0  0  0
 14 38  1  0  0  0  0
 15 16  1  0  0  0  0
 15 18  1  0  0  0  0
 16 17  1  0  0  0  0
 16 39  1  0  0  0  0
 16 40  1  0  0  0  0
 17 41  1  0  0  0  0
 18 19  2  3  0  0  0
 18 42  1  0  0  0  0
 19 20  1  0  0  0  0
 19 43  1  0  0  0  0
 20 21  2  3  0  0  0
 20 44  1  0  0  0  0
 21 22  1  0  0  0  0
 21 23  1  0  0  0  0
 22 45  1  0  0  0  0
 22 46  1  0  0  0  0
 22 47  1  0  0  0  0
 23 24  2  3  0  0  0
 23 48  1  0  0  0  0
 24 49  1  0  0  0  0
M  END
$$$$
