
 OpenBabel04232216523D

 57 58  0  0  1  0  0  0  0  0999 V2000
    2.9532    0.3485   -0.4417 C   0  0  0  0  0  0  0  0  0  0  0  0
    3.4402    1.7790   -0.1958 C   0  0  0  0  0  0  0  0  0  0  0  0
    4.8801    2.1681   -0.7089 C   0  0  0  0  0  0  0  0  0  0  0  0
    5.0643    2.6900   -2.2216 C   0  0  0  0  0  0  0  0  0  0  0  0
    6.4881    2.4158   -3.1368 C   0  0  3  0  0  0  0  0  0  0  0  0
    7.0675    1.1337   -2.5172 C   0  0  0  0  0  0  0  0  0  0  0  0
    7.4725    0.0216   -3.4702 C   0  0  0  0  0  0  0  0  0  0  0  0
    8.9465    0.0913   -3.7886 C   0  0  0  0  0  0  0  0  0  0  0  0
    9.0612    0.5691   -5.2248 C   0  0  0  0  0  0  0  0  0  0  0  0
   10.3737    1.3018   -5.4727 C   0  0  0  0  0  0  0  0  0  0  0  0
    9.9063    2.6496   -5.9593 C   0  0  0  0  0  0  0  0  0  0  0  0
    9.9678    3.5472   -4.9664 C   0  0  0  0  0  0  0  0  0  0  0  0
   11.5347    3.9153   -4.7389 C   0  0  0  0  0  0  0  0  0  0  0  0
   11.8890    4.3731   -3.6444 O   0  0  0  0  0  0  0  0  0  0  0  0
   12.6678    3.7741   -5.9270 C   0  0  0  0  0  0  0  0  0  0  0  0
   14.0197    3.5553   -5.9661 C   0  0  0  0  0  0  0  0  0  0  0  0
   15.1480    3.0061   -5.1199 C   0  0  0  0  0  0  0  0  0  0  0  0
   14.9455    2.4781   -3.7130 C   0  0  0  0  0  0  0  0  0  0  0  0
   14.6482    3.9922   -7.3039 C   0  0  0  0  0  0  0  0  0  0  0  0
   13.4817    4.1381   -8.2470 C   0  0  0  0  0  0  0  0  0  0  0  0
   12.2290    3.9399   -7.3897 C   0  0  0  0  0  0  0  0  0  0  0  0
    8.6728    4.0658   -4.3091 C   0  0  0  0  0  0  0  0  0  0  0  0
    7.4738    3.6543   -3.7006 C   0  0  0  0  0  0  0  0  0  0  0  0
    1.9419    0.2117   -0.0252 H   0  0  0  0  0  0  0  0  0  0  0  0
    3.5843   -0.3979    0.0579 H   0  0  0  0  0  0  0  0  0  0  0  0
    2.8973    0.1026   -1.5066 H   0  0  0  0  0  0  0  0  0  0  0  0
    3.4523    1.8811    0.9110 H   0  0  0  0  0  0  0  0  0  0  0  0
    2.6894    2.4844   -0.5505 H   0  0  0  0  0  0  0  0  0  0  0  0
    5.5150    1.3208   -0.4474 H   0  0  0  0  0  0  0  0  0  0  0  0
    5.2150    2.9832   -0.0596 H   0  0  0  0  0  0  0  0  0  0  0  0
    4.8018    3.7532   -2.2552 H   0  0  0  0  0  0  0  0  0  0  0  0
    4.2727    2.1663   -2.7813 H   0  0  0  0  0  0  0  0  0  0  0  0
    6.0140    2.1307   -4.0910 H   0  0  0  0  0  0  0  0  0  0  0  0
    6.2628    0.6199   -1.9863 H   0  0  0  0  0  0  0  0  0  0  0  0
    7.8186    1.3773   -1.7571 H   0  0  0  0  0  0  0  0  0  0  0  0
    6.8240    0.0208   -4.3482 H   0  0  0  0  0  0  0  0  0  0  0  0
    7.2897   -0.9410   -2.9724 H   0  0  0  0  0  0  0  0  0  0  0  0
    9.4142   -0.8492   -3.6814 H   0  0  0  0  0  0  0  0  0  0  0  0
    9.4425    0.7944   -3.0944 H   0  0  0  0  0  0  0  0  0  0  0  0
    8.2021    1.2253   -5.4174 H   0  0  0  0  0  0  0  0  0  0  0  0
    8.9500   -0.2607   -5.9206 H   0  0  0  0  0  0  0  0  0  0  0  0
   11.0238    0.7898   -6.1762 H   0  0  0  0  0  0  0  0  0  0  0  0
   10.9396    1.3999   -4.5333 H   0  0  0  0  0  0  0  0  0  0  0  0
    9.0287    2.5963   -6.6043 H   0  0  0  0  0  0  0  0  0  0  0  0
   15.9884    3.7101   -5.1022 H   0  0  0  0  0  0  0  0  0  0  0  0
   15.5437    2.1338   -5.6785 H   0  0  0  0  0  0  0  0  0  0  0  0
   14.8245    3.3022   -3.0113 H   0  0  0  0  0  0  0  0  0  0  0  0
   15.8439    1.9204   -3.4142 H   0  0  0  0  0  0  0  0  0  0  0  0
   14.1006    1.7947   -3.6545 H   0  0  0  0  0  0  0  0  0  0  0  0
   15.3897    3.2867   -7.6895 H   0  0  0  0  0  0  0  0  0  0  0  0
   15.1444    4.9469   -7.1674 H   0  0  0  0  0  0  0  0  0  0  0  0
   13.5609    3.3820   -9.0531 H   0  0  0  0  0  0  0  0  0  0  0  0
   13.5168    5.1137   -8.7431 H   0  0  0  0  0  0  0  0  0  0  0  0
   11.7813    3.0033   -7.7439 H   0  0  0  0  0  0  0  0  0  0  0  0
   11.5339    4.7627   -7.5448 H   0  0  0  0  0  0  0  0  0  0  0  0
    8.6875    5.1522   -4.4950 H   0  0  0  0  0  0  0  0  0  0  0  0
    6.8146    4.5316   -3.5899 H   0  0  0  0  0  0  0  0  0  0  0  0
  1  2  1  0  0  0  0
  1 24  1  0  0  0  0
  1 25  1  0  0  0  0
  1 26  1  0  0  0  0
  2  3  1  0  0  0  0
  2 27  1  0  0  0  0
  2 28  1  0  0  0  0
  3  4  1  0  0  0  0
  3 29  1  0  0  0  0
  3 30  1  0  0  0  0
  4  5  1  0  0  0  0
  4 31  1  0  0  0  0
  4 32  1  0  0  0  0
  5  6  1  0  0  0  0
  5 23  1  0  0  0  0
  5 33  1  0  0  0  0
  6  7  1  0  0  0  0
  6 34  1  0  0  0  0
  6 35  1  0  0  0  0
  7  8  1  0  0  0  0
  7 36  1  0  0  0  0
  7 37  1  0  0  0  0
  8  9  1  0  0  0  0
  8 38  1  0  0  0  0
  8 39  1  0  0  0  0
  9 10  1  0  0  0  0
  9 40  1  0  0  0  0
  9 41  1  0  0  0  0
 10 11  1  0  0  0  0
 10 42  1  0  0  0  0
 10 43  1  0  0  0  0
 11 12  2  3  0  0  0
 11 44  1  0  0  0  0
 12 13  1  0  0  0  0
 12 22  1  0  0  0  0
 13 14  2  0  0  0  0
 13 15  1  0  0  0  0
 15 16  2  0  0  0  0
 15 21  1  0  0  0  0
 16 17  1  0  0  0  0
 16 19  1  0  0  0  0
 17 18  1  0  0  0  0
 17 45  1  0  0  0  0
 17 46  1  0  0  0  0
 18 47  1  0  0  0  0
 18 48  1  0  0  0  0
 18 49  1  0  0  0  0
 19 20  1  0  0  0  0
 19 50  1  0  0  0  0
 19 51  1  0  0  0  0
 20 21  1  0  0  0  0
 20 52  1  0  0  0  0
 20 53  1  0  0  0  0
 21 54  1  0  0  0  0
 21 55  1  0  0  0  0
 22 23  2  3  0  0  0
 22 56  1  0  0  0  0
 23 57  1  0  0  0  0
M  END
$$$$
