
 OpenBabel04232216423D

 17 17  0  0  0  0  0  0  0  0999 V2000
    1.7818    0.5690    0.0007 C   0  0  0  0  0  0  0  0  0  0  0  0
    1.7721   -0.8117   -0.0004 C   0  0  0  0  0  0  0  0  0  0  0  0
    0.5410   -1.4550   -0.0010 C   0  0  0  0  0  0  0  0  0  0  0  0
   -0.6446   -0.7086   -0.0002 C   0  0  0  0  0  0  0  0  0  0  0  0
   -1.9653   -1.4196    0.0006 C   0  0  0  0  0  0  0  0  0  0  0  0
   -0.5360    0.6879    0.0003 C   0  0  0  0  0  0  0  0  0  0  0  0
   -1.7289    1.5997   -0.0009 C   0  0  0  0  0  0  0  0  0  0  0  0
    0.6639    1.3253    0.0011 N   0  0  0  0  0  0  0  0  0  0  0  0
    2.7157    1.1227    0.0018 H   0  0  0  0  0  0  0  0  0  0  0  0
    2.6987   -1.3736   -0.0011 H   0  0  0  0  0  0  0  0  0  0  0  0
    0.5106   -2.5421   -0.0019 H   0  0  0  0  0  0  0  0  0  0  0  0
   -1.8358   -2.5073   -0.0004 H   0  0  0  0  0  0  0  0  0  0  0  0
   -2.5404   -1.1582   -0.8934 H   0  0  0  0  0  0  0  0  0  0  0  0
   -2.5383   -1.1596    0.8963 H   0  0  0  0  0  0  0  0  0  0  0  0
   -2.6813    1.0650    0.0004 H   0  0  0  0  0  0  0  0  0  0  0  0
   -1.7044    2.2356   -0.8917 H   0  0  0  0  0  0  0  0  0  0  0  0
   -1.7040    2.2388    0.8877 H   0  0  0  0  0  0  0  0  0  0  0  0
  1  2  1  0  0  0  0
  1  8  2  0  0  0  0
  1  9  1  0  0  0  0
  2  3  2  0  0  0  0
  2 10  1  0  0  0  0
  3  4  1  0  0  0  0
  3 11  1  0  0  0  0
  4  5  1  0  0  0  0
  4  6  2  0  0  0  0
  5 12  1  0  0  0  0
  5 13  1  0  0  0  0
  5 14  1  0  0  0  0
  6  7  1  0  0  0  0
  6  8  1  0  0  0  0
  7 15  1  0  0  0  0
  7 16  1  0  0  0  0
  7 17  1  0  0  0  0
M  END
$$$$
