
 OpenBabel04232216513D

 50 51  0  0  0  0  0  0  0  0999 V2000
    5.0346    1.2476    0.1713 C   0  0  0  0  0  0  0  0  0  0  0  0
    5.5435    2.1419    1.2634 C   0  0  0  0  0  0  0  0  0  0  0  0
    4.8555    2.5512    2.2789 N   0  0  0  0  0  0  0  0  0  0  0  0
    3.4677    2.2607    2.5035 N   0  0  0  0  0  0  0  0  0  0  0  0
    3.1990    1.6329    3.6386 C   0  0  0  0  0  0  0  0  0  0  0  0
    1.9017    1.4900    4.1481 N   0  0  0  0  0  0  0  0  0  0  0  0
    0.8628    2.3525    4.8238 C   0  0  0  0  0  0  0  0  0  0  0  0
    0.7863    3.2644    6.1373 C   0  0  0  0  0  0  0  0  0  0  0  0
    1.9239    3.9715    6.9161 C   0  0  0  0  0  0  0  0  0  0  0  0
    3.0793    3.7428    6.0515 C   0  0  0  0  0  0  0  0  0  0  0  0
    4.5033    4.1386    6.2604 C   0  0  0  0  0  0  0  0  0  0  0  0
    5.0401    3.7359    4.8974 C   0  0  0  0  0  0  0  0  0  0  0  0
    5.8550    2.4944    4.9181 C   0  0  0  0  0  0  0  0  0  0  0  0
    4.1616    0.7537    4.0901 N   0  0  0  0  0  0  0  0  0  0  0  0
    5.3333    1.1268    4.5185 C   0  0  0  0  0  0  0  0  0  0  0  0
    6.5331    0.1273    4.4001 C   0  0  0  0  0  0  0  0  0  0  0  0
    6.5086   -1.0577    4.6619 O   0  0  0  0  0  0  0  0  0  0  0  0
    7.7915    0.7818    3.7665 C   0  0  0  0  0  0  0  0  0  0  0  0
    8.7473    1.5493    4.7085 C   0  0  0  0  0  0  0  0  0  0  0  0
    8.9874    0.9322    6.0801 C   0  0  0  0  0  0  0  0  0  0  0  0
    7.6002    0.9253    2.4838 N   0  0  0  0  0  0  0  0  0  0  0  0
    7.8207    2.0807    1.8029 C   0  0  0  0  0  0  0  0  0  0  0  0
    9.1477    2.7861    1.8591 C   0  0  0  0  0  0  0  0  0  0  0  0
    6.8296    2.6534    1.1575 N   0  0  0  0  0  0  0  0  0  0  0  0
    3.9764    1.0131    0.3212 H   0  0  0  0  0  0  0  0  0  0  0  0
    5.6033    0.3129    0.1730 H   0  0  0  0  0  0  0  0  0  0  0  0
    5.1518    1.7391   -0.7993 H   0  0  0  0  0  0  0  0  0  0  0  0
    1.4151    1.3071    3.2649 H   0  0  0  0  0  0  0  0  0  0  0  0
    0.1631    1.5594    5.1323 H   0  0  0  0  0  0  0  0  0  0  0  0
    0.3129    2.8841    4.0390 H   0  0  0  0  0  0  0  0  0  0  0  0
    0.1373    4.0999    5.8235 H   0  0  0  0  0  0  0  0  0  0  0  0
    0.1747    2.7526    6.8906 H   0  0  0  0  0  0  0  0  0  0  0  0
    2.0632    3.5616    7.9211 H   0  0  0  0  0  0  0  0  0  0  0  0
    1.7252    5.0478    7.0303 H   0  0  0  0  0  0  0  0  0  0  0  0
    2.7525    4.2151    5.1126 H   0  0  0  0  0  0  0  0  0  0  0  0
    3.1262    2.6539    5.9742 H   0  0  0  0  0  0  0  0  0  0  0  0
    4.9652    3.5839    7.0857 H   0  0  0  0  0  0  0  0  0  0  0  0
    4.6606    5.2068    6.4174 H   0  0  0  0  0  0  0  0  0  0  0  0
    5.5299    4.5630    4.3809 H   0  0  0  0  0  0  0  0  0  0  0  0
    4.2183    3.5481    4.2286 H   0  0  0  0  0  0  0  0  0  0  0  0
    6.3671    2.3596    5.8739 H   0  0  0  0  0  0  0  0  0  0  0  0
    6.5943    2.7465    4.1624 H   0  0  0  0  0  0  0  0  0  0  0  0
    8.3806    2.5659    4.8771 H   0  0  0  0  0  0  0  0  0  0  0  0
    9.7198    1.6872    4.2309 H   0  0  0  0  0  0  0  0  0  0  0  0
    8.0647    0.6156    6.5737 H   0  0  0  0  0  0  0  0  0  0  0  0
    9.4721    1.6652    6.7393 H   0  0  0  0  0  0  0  0  0  0  0  0
    9.6538    0.0690    6.0032 H   0  0  0  0  0  0  0  0  0  0  0  0
    9.1113    3.5695    2.6287 H   0  0  0  0  0  0  0  0  0  0  0  0
    9.3777    3.2788    0.9094 H   0  0  0  0  0  0  0  0  0  0  0  0
    9.9675    2.1016    2.0980 H   0  0  0  0  0  0  0  0  0  0  0  0
  1  2  1  0  0  0  0
  1 25  1  0  0  0  0
  1 26  1  0  0  0  0
  1 27  1  0  0  0  0
  2  3  2  0  0  0  0
  2 24  1  0  0  0  0
  3  4  1  0  0  0  0
  4  5  2  0  0  0  0
  5  6  1  0  0  0  0
  5 14  1  0  0  0  0
  6  7  1  0  0  0  0
  6 28  1  0  0  0  0
  7  8  1  0  0  0  0
  7 29  1  0  0  0  0
  7 30  1  0  0  0  0
  8  9  1  0  0  0  0
  8 31  1  0  0  0  0
  8 32  1  0  0  0  0
  9 10  1  0  0  0  0
  9 33  1  0  0  0  0
  9 34  1  0  0  0  0
 10 11  1  0  0  0  0
 10 35  1  0  0  0  0
 10 36  1  0  0  0  0
 11 12  1  0  0  0  0
 11 37  1  0  0  0  0
 11 38  1  0  0  0  0
 12 13  1  0  0  0  0
 12 39  1  0  0  0  0
 12 40  1  0  0  0  0
 13 15  1  0  0  0  0
 13 41  1  0  0  0  0
 13 42  1  0  0  0  0
 14 15  2  0  0  0  0
 15 16  1  0  0  0  0
 16 17  2  0  0  0  0
 16 18  1  0  0  0  0
 18 19  1  0  0  0  0
 18 21  2  0  0  0  0
 19 20  1  0  0  0  0
 19 43  1  0  0  0  0
 19 44  1  0  0  0  0
 20 45  1  0  0  0  0
 20 46  1  0  0  0  0
 20 47  1  0  0  0  0
 21 22  1  0  0  0  0
 22 23  1  0  0  0  0
 22 24  2  0  0  0  0
 23 48  1  0  0  0  0
 23 49  1  0  0  0  0
 23 50  1  0  0  0  0
M  END
$$$$
