
 OpenBabel04232216443D

 48 48  0  0  1  0  0  0  0  0999 V2000
    4.7453   -1.1020   -2.2357 C   0  0  0  0  0  0  0  0  0  0  0  0
    5.4615    0.2425   -2.1020 C   0  0  3  0  0  0  0  0  0  0  0  0
    4.3475    1.3783   -1.8042 C   0  0  3  0  0  0  0  0  0  0  0  0
    2.9616    1.1449   -1.1619 C   0  0  0  0  0  0  0  0  0  0  0  0
    4.9507    2.3090   -0.8056 C   0  0  0  0  0  0  0  0  0  0  0  0
    5.3728    3.4837   -1.2668 C   0  0  0  0  0  0  0  0  0  0  0  0
    4.5175    4.3308   -1.9401 N   0  0  0  0  0  0  0  0  0  0  0  0
    6.8245    3.6704   -1.3696 C   0  0  0  0  0  0  0  0  0  0  0  0
    7.6885    2.8656   -0.3759 C   0  0  0  0  0  0  0  0  0  0  0  0
    7.3655    4.1964   -2.4980 C   0  0  0  0  0  0  0  0  0  0  0  0
    6.6338    4.0801   -3.8547 C   0  0  0  0  0  0  0  0  0  0  0  0
    8.7728    4.5427   -2.5610 C   0  0  0  0  0  0  0  0  0  0  0  0
    9.4847    3.8943   -3.4958 C   0  0  0  0  0  0  0  0  0  0  0  0
    9.5432    4.5894   -4.8438 C   0  0  0  0  0  0  0  0  0  0  0  0
    9.6118    2.4009   -3.2642 C   0  0  0  0  0  0  0  0  0  0  0  0
   11.0798    2.1252   -2.9514 C   0  0  0  0  0  0  0  0  0  0  0  0
    8.8178    1.5398   -3.9499 C   0  0  0  0  0  0  0  0  0  0  0  0
    9.1796    1.2870   -5.3885 C   0  0  0  0  0  0  0  0  0  0  0  0
    7.6778    0.8150   -3.1138 C   0  0  0  0  0  0  0  0  0  0  0  0
    6.3937    0.6597   -3.3209 N   0  0  0  0  0  0  0  0  0  0  0  0
    4.0470   -1.2272   -1.3936 H   0  0  0  0  0  0  0  0  0  0  0  0
    5.4384   -1.9440   -2.1519 H   0  0  0  0  0  0  0  0  0  0  0  0
    4.1626   -1.1909   -3.1559 H   0  0  0  0  0  0  0  0  0  0  0  0
    6.1141    0.1283   -1.2328 H   0  0  0  0  0  0  0  0  0  0  0  0
    4.1519    1.8230   -2.7847 H   0  0  0  0  0  0  0  0  0  0  0  0
    3.0144    0.9987   -0.0739 H   0  0  0  0  0  0  0  0  0  0  0  0
    2.3786    0.3363   -1.5930 H   0  0  0  0  0  0  0  0  0  0  0  0
    2.3547    2.0715   -1.3032 H   0  0  0  0  0  0  0  0  0  0  0  0
    5.5164    1.7611   -0.0350 H   0  0  0  0  0  0  0  0  0  0  0  0
    3.8023    3.8359   -2.4865 H   0  0  0  0  0  0  0  0  0  0  0  0
    4.9734    5.0482   -2.4855 H   0  0  0  0  0  0  0  0  0  0  0  0
    8.7718    2.9253   -0.5199 H   0  0  0  0  0  0  0  0  0  0  0  0
    7.4672    3.1071    0.6650 H   0  0  0  0  0  0  0  0  0  0  0  0
    7.5053    1.7927   -0.5038 H   0  0  0  0  0  0  0  0  0  0  0  0
    5.7730    3.4189   -3.8319 H   0  0  0  0  0  0  0  0  0  0  0  0
    7.2266    3.6223   -4.6324 H   0  0  0  0  0  0  0  0  0  0  0  0
    6.3078    5.0706   -4.2276 H   0  0  0  0  0  0  0  0  0  0  0  0
    9.2063    4.5198   -1.5488 H   0  0  0  0  0  0  0  0  0  0  0  0
    8.8986    5.4751   -4.8368 H   0  0  0  0  0  0  0  0  0  0  0  0
    9.1976    3.9748   -5.6681 H   0  0  0  0  0  0  0  0  0  0  0  0
   10.5470    4.9572   -5.0555 H   0  0  0  0  0  0  0  0  0  0  0  0
   11.1443    1.6338   -1.9745 H   0  0  0  0  0  0  0  0  0  0  0  0
   11.6902    3.0349   -2.8733 H   0  0  0  0  0  0  0  0  0  0  0  0
   11.5614    1.4852   -3.6955 H   0  0  0  0  0  0  0  0  0  0  0  0
    8.3725    1.5491   -6.0740 H   0  0  0  0  0  0  0  0  0  0  0  0
    9.5275    0.2672   -5.5599 H   0  0  0  0  0  0  0  0  0  0  0  0
   10.0324    1.9161   -5.6843 H   0  0  0  0  0  0  0  0  0  0  0  0
    8.0824    0.4463   -2.1532 H   0  0  0  0  0  0  0  0  0  0  0  0
  1  2  1  0  0  0  0
  1 21  1  0  0  0  0
  1 22  1  0  0  0  0
  1 23  1  0  0  0  0
  2  3  1  0  0  0  0
  2 20  1  0  0  0  0
  2 24  1  0  0  0  0
  3  4  1  0  0  0  0
  3  5  1  0  0  0  0
  3 25  1  0  0  0  0
  4 26  1  0  0  0  0
  4 27  1  0  0  0  0
  4 28  1  0  0  0  0
  5  6  2  3  0  0  0
  5 29  1  0  0  0  0
  6  7  1  0  0  0  0
  6  8  1  0  0  0  0
  7 30  1  0  0  0  0
  7 31  1  0  0  0  0
  8  9  1  0  0  0  0
  8 10  2  3  0  0  0
  9 32  1  0  0  0  0
  9 33  1  0  0  0  0
  9 34  1  0  0  0  0
 10 11  1  0  0  0  0
 10 12  1  0  0  0  0
 11 35  1  0  0  0  0
 11 36  1  0  0  0  0
 11 37  1  0  0  0  0
 12 13  2  3  0  0  0
 12 38  1  0  0  0  0
 13 14  1  0  0  0  0
 13 15  1  0  0  0  0
 14 39  1  0  0  0  0
 14 40  1  0  0  0  0
 14 41  1  0  0  0  0
 15 16  1  0  0  0  0
 15 17  2  3  0  0  0
 16 42  1  0  0  0  0
 16 43  1  0  0  0  0
 16 44  1  0  0  0  0
 17 18  1  0  0  0  0
 17 19  1  0  0  0  0
 18 45  1  0  0  0  0
 18 46  1  0  0  0  0
 18 47  1  0  0  0  0
 19 20  2  3  0  0  0
 19 48  1  0  0  0  0
M  END
$$$$
