
 OpenBabel04232216513D

 59 59  0  0  0  0  0  0  0  0999 V2000
    0.9100   -0.0238   -0.0176 C   0  0  0  0  0  0  0  0  0  0  0  0
    2.4124    0.0288   -0.0043 C   0  0  0  0  0  0  0  0  0  0  0  0
    2.9846    1.0773   -0.6932 N   0  0  0  0  0  0  0  0  0  0  0  0
    3.6620    1.9520   -0.0173 C   0  0  0  0  0  0  0  0  0  0  0  0
    3.8941    2.0118    1.4506 C   0  0  0  0  0  0  0  0  0  0  0  0
    4.6020    1.0655    2.0934 C   0  0  0  0  0  0  0  0  0  0  0  0
    4.6489    1.0020    3.6037 C   0  0  0  0  0  0  0  0  0  0  0  0
    6.0464    1.1598    4.2045 C   0  0  0  0  0  0  0  0  0  0  0  0
    6.0146    1.0957    5.7338 C   0  0  0  0  0  0  0  0  0  0  0  0
    7.4206    1.2465    6.3065 C   0  0  0  0  0  0  0  0  0  0  0  0
    7.4317    1.1818    7.7495 N   0  0  0  0  0  0  0  0  0  0  0  0
    7.2821    2.3073    8.5227 C   0  0  0  0  0  0  0  0  0  0  0  0
    7.1345    3.4432    8.1005 O   0  0  0  0  0  0  0  0  0  0  0  0
    5.2425   -0.0352    1.3837 C   0  0  0  0  0  0  0  0  0  0  0  0
    4.5717   -0.9721    0.6863 C   0  0  0  0  0  0  0  0  0  0  0  0
    5.2875   -2.0921   -0.0275 C   0  0  0  0  0  0  0  0  0  0  0  0
    5.0036   -2.1099   -1.5305 C   0  0  0  0  0  0  0  0  0  0  0  0
    5.7553   -3.2406   -2.2277 C   0  0  0  0  0  0  0  0  0  0  0  0
    5.4347   -3.2288   -3.7185 C   0  0  0  0  0  0  0  0  0  0  0  0
    6.1656   -4.3470   -4.4491 C   0  0  0  0  0  0  0  0  0  0  0  0
    5.8332   -4.3170   -5.9376 C   0  0  0  0  0  0  0  0  0  0  0  0
    6.5615   -5.4313   -6.6766 C   0  0  0  0  0  0  0  0  0  0  0  0
    6.2374   -5.4112   -8.1621 C   0  0  0  0  0  0  0  0  0  0  0  0
    6.9332   -6.4623   -8.8166 O   0  0  0  0  0  0  0  0  0  0  0  0
    3.1166   -0.9507    0.5979 C   0  0  0  0  0  0  0  0  0  0  0  0
    0.4880    0.7932   -0.6125 H   0  0  0  0  0  0  0  0  0  0  0  0
    0.5169    0.0708    1.0003 H   0  0  0  0  0  0  0  0  0  0  0  0
    0.5565   -0.9664   -0.4486 H   0  0  0  0  0  0  0  0  0  0  0  0
    4.1047    2.7938   -0.5767 H   0  0  0  0  0  0  0  0  0  0  0  0
    3.4005    2.8253    1.9666 H   0  0  0  0  0  0  0  0  0  0  0  0
    4.2242    0.0405    3.9230 H   0  0  0  0  0  0  0  0  0  0  0  0
    3.9898    1.7712    4.0277 H   0  0  0  0  0  0  0  0  0  0  0  0
    6.4795    2.1190    3.8842 H   0  0  0  0  0  0  0  0  0  0  0  0
    6.7063    0.3666    3.8316 H   0  0  0  0  0  0  0  0  0  0  0  0
    5.5838    0.1390    6.0586 H   0  0  0  0  0  0  0  0  0  0  0  0
    5.3591    1.8826    6.1294 H   0  0  0  0  0  0  0  0  0  0  0  0
    7.8566    2.1995    5.9874 H   0  0  0  0  0  0  0  0  0  0  0  0
    8.0683    0.4389    5.9451 H   0  0  0  0  0  0  0  0  0  0  0  0
    7.5249    0.2833    8.2081 H   0  0  0  0  0  0  0  0  0  0  0  0
    7.3183    2.0758    9.5971 H   0  0  0  0  0  0  0  0  0  0  0  0
    6.3276   -0.0696    1.4383 H   0  0  0  0  0  0  0  0  0  0  0  0
    5.0004   -3.0514    0.4204 H   0  0  0  0  0  0  0  0  0  0  0  0
    6.3718   -1.9951    0.1173 H   0  0  0  0  0  0  0  0  0  0  0  0
    5.2936   -1.1503   -1.9776 H   0  0  0  0  0  0  0  0  0  0  0  0
    3.9297   -2.2381   -1.7132 H   0  0  0  0  0  0  0  0  0  0  0  0
    5.4679   -4.2055   -1.7923 H   0  0  0  0  0  0  0  0  0  0  0  0
    6.8352   -3.1240   -2.0765 H   0  0  0  0  0  0  0  0  0  0  0  0
    5.7190   -2.2602   -4.1478 H   0  0  0  0  0  0  0  0  0  0  0  0
    4.3529   -3.3402   -3.8633 H   0  0  0  0  0  0  0  0  0  0  0  0
    5.8788   -5.3164   -4.0238 H   0  0  0  0  0  0  0  0  0  0  0  0
    7.2474   -4.2362   -4.3073 H   0  0  0  0  0  0  0  0  0  0  0  0
    6.1171   -3.3448   -6.3593 H   0  0  0  0  0  0  0  0  0  0  0  0
    4.7503   -4.4248   -6.0764 H   0  0  0  0  0  0  0  0  0  0  0  0
    6.2901   -6.4075   -6.2559 H   0  0  0  0  0  0  0  0  0  0  0  0
    7.6449   -5.3332   -6.5344 H   0  0  0  0  0  0  0  0  0  0  0  0
    6.5302   -4.4608   -8.6197 H   0  0  0  0  0  0  0  0  0  0  0  0
    5.1655   -5.5568   -8.3281 H   0  0  0  0  0  0  0  0  0  0  0  0
    7.8827   -6.3253   -8.6576 H   0  0  0  0  0  0  0  0  0  0  0  0
    2.6014   -1.7758    1.0831 H   0  0  0  0  0  0  0  0  0  0  0  0
  1  2  1  0  0  0  0
  1 26  1  0  0  0  0
  1 27  1  0  0  0  0
  1 28  1  0  0  0  0
  2  3  1  0  0  0  0
  2 25  2  0  0  0  0
  3  4  2  0  0  0  0
  4  5  1  0  0  0  0
  4 29  1  0  0  0  0
  5  6  2  0  0  0  0
  5 30  1  0  0  0  0
  6  7  1  0  0  0  0
  6 14  1  0  0  0  0
  7  8  1  0  0  0  0
  7 31  1  0  0  0  0
  7 32  1  0  0  0  0
  8  9  1  0  0  0  0
  8 33  1  0  0  0  0
  8 34  1  0  0  0  0
  9 10  1  0  0  0  0
  9 35  1  0  0  0  0
  9 36  1  0  0  0  0
 10 11  1  0  0  0  0
 10 37  1  0  0  0  0
 10 38  1  0  0  0  0
 11 12  1  0  0  0  0
 11 39  1  0  0  0  0
 12 13  2  0  0  0  0
 12 40  1  0  0  0  0
 14 15  2  0  0  0  0
 14 41  1  0  0  0  0
 15 16  1  0  0  0  0
 15 25  1  0  0  0  0
 16 17  1  0  0  0  0
 16 42  1  0  0  0  0
 16 43  1  0  0  0  0
 17 18  1  0  0  0  0
 17 44  1  0  0  0  0
 17 45  1  0  0  0  0
 18 19  1  0  0  0  0
 18 46  1  0  0  0  0
 18 47  1  0  0  0  0
 19 20  1  0  0  0  0
 19 48  1  0  0  0  0
 19 49  1  0  0  0  0
 20 21  1  0  0  0  0
 20 50  1  0  0  0  0
 20 51  1  0  0  0  0
 21 22  1  0  0  0  0
 21 52  1  0  0  0  0
 21 53  1  0  0  0  0
 22 23  1  0  0  0  0
 22 54  1  0  0  0  0
 22 55  1  0  0  0  0
 23 24  1  0  0  0  0
 23 56  1  0  0  0  0
 23 57  1  0  0  0  0
 24 58  1  0  0  0  0
 25 59  1  0  0  0  0
M  END
$$$$
