
 OpenBabel04232216423D

 36 36  0  0  0  0  0  0  0  0999 V2000
    1.2144   -1.1036   -0.4844 C   0  0  0  0  0  0  0  0  0  0  0  0
    2.2092   -1.3948   -1.3587 C   0  0  0  0  0  0  0  0  0  0  0  0
    3.4187   -1.9825   -0.7174 C   0  0  0  0  0  0  0  0  0  0  0  0
    4.0194   -1.0919    0.1149 C   0  0  0  0  0  0  0  0  0  0  0  0
    5.0794   -0.1724   -0.4214 C   0  0  0  0  0  0  0  0  0  0  0  0
    3.3698   -0.7129    1.3036 N   0  0  0  0  0  0  0  0  0  0  0  0
    3.7573   -1.3513    2.5610 C   0  0  0  0  0  0  0  0  0  0  0  0
    2.7643   -1.1141    3.5346 O   0  0  0  0  0  0  0  0  0  0  0  0
    2.2682    0.2377    1.2829 N   0  0  0  0  0  0  0  0  0  0  0  0
    1.2761    0.1029    0.2351 N   0  0  0  0  0  0  0  0  0  0  0  0
    0.0898    0.9800    0.2793 C   0  0  0  0  0  0  0  0  0  0  0  0
   -1.0804    0.4012    1.0844 C   0  0  0  0  0  0  0  0  0  0  0  0
   -0.8907    0.3500    2.6035 C   0  0  0  0  0  0  0  0  0  0  0  0
   -0.6650    1.6973    3.2901 C   0  0  0  0  0  0  0  0  0  0  0  0
   -1.8826    2.6127    3.2489 C   0  0  0  0  0  0  0  0  0  0  0  0
    0.9687   -1.8651    0.2587 H   0  0  0  0  0  0  0  0  0  0  0  0
    2.5043   -0.6073   -2.0572 H   0  0  0  0  0  0  0  0  0  0  0  0
    3.0259   -2.8794   -0.2176 H   0  0  0  0  0  0  0  0  0  0  0  0
    4.6466    0.6710   -0.9679 H   0  0  0  0  0  0  0  0  0  0  0  0
    5.7492   -0.7186   -1.0960 H   0  0  0  0  0  0  0  0  0  0  0  0
    5.6981    0.2211    0.3919 H   0  0  0  0  0  0  0  0  0  0  0  0
    4.7136   -0.9592    2.9184 H   0  0  0  0  0  0  0  0  0  0  0  0
    3.8479   -2.4336    2.4225 H   0  0  0  0  0  0  0  0  0  0  0  0
    2.0702   -0.7083    2.9779 H   0  0  0  0  0  0  0  0  0  0  0  0
    2.6616    1.1846    1.2439 H   0  0  0  0  0  0  0  0  0  0  0  0
   -0.2555    1.1230   -0.7528 H   0  0  0  0  0  0  0  0  0  0  0  0
    0.3654    1.9786    0.6352 H   0  0  0  0  0  0  0  0  0  0  0  0
   -1.3004   -0.6153    0.7340 H   0  0  0  0  0  0  0  0  0  0  0  0
   -1.9775    0.9914    0.8614 H   0  0  0  0  0  0  0  0  0  0  0  0
   -0.0511   -0.3116    2.8385 H   0  0  0  0  0  0  0  0  0  0  0  0
   -1.7743   -0.1267    3.0442 H   0  0  0  0  0  0  0  0  0  0  0  0
    0.1965    2.2166    2.8606 H   0  0  0  0  0  0  0  0  0  0  0  0
   -0.4180    1.5089    4.3420 H   0  0  0  0  0  0  0  0  0  0  0  0
   -2.1221    2.9197    2.2262 H   0  0  0  0  0  0  0  0  0  0  0  0
   -1.6895    3.5186    3.8326 H   0  0  0  0  0  0  0  0  0  0  0  0
   -2.7599    2.1178    3.6774 H   0  0  0  0  0  0  0  0  0  0  0  0
  1  2  2  0  0  0  0
  1 10  1  0  0  0  0
  1 16  1  0  0  0  0
  2  3  1  0  0  0  0
  2 17  1  0  0  0  0
  3  4  2  0  0  0  0
  3 18  1  0  0  0  0
  4  5  1  0  0  0  0
  4  6  1  0  0  0  0
  5 19  1  0  0  0  0
  5 20  1  0  0  0  0
  5 21  1  0  0  0  0
  6  7  1  0  0  0  0
  6  9  1  0  0  0  0
  7  8  1  0  0  0  0
  7 22  1  0  0  0  0
  7 23  1  0  0  0  0
  8 24  1  0  0  0  0
  9 10  1  0  0  0  0
  9 25  1  0  0  0  0
 10 11  1  0  0  0  0
 11 12  1  0  0  0  0
 11 26  1  0  0  0  0
 11 27  1  0  0  0  0
 12 13  1  0  0  0  0
 12 28  1  0  0  0  0
 12 29  1  0  0  0  0
 13 14  1  0  0  0  0
 13 30  1  0  0  0  0
 13 31  1  0  0  0  0
 14 15  1  0  0  0  0
 14 32  1  0  0  0  0
 14 33  1  0  0  0  0
 15 34  1  0  0  0  0
 15 35  1  0  0  0  0
 15 36  1  0  0  0  0
M  END
$$$$
