
 OpenBabel04232217003D

 57 59  0  0  1  0  0  0  0  0999 V2000
    1.7829    0.8809    4.1184 O   0  0  0  0  0  0  0  0  0  0  0  0
    2.9014    0.0390    3.9110 C   0  0  0  0  0  0  0  0  0  0  0  0
    3.1176    0.1273    2.1591 C   0  0  0  0  0  0  0  0  0  0  0  0
    4.1078    0.1048    1.1373 C   0  0  0  0  0  0  0  0  0  0  0  0
    4.3304    0.5552   -0.5498 C   0  0  0  0  0  0  0  0  0  0  0  0
    3.5766    2.1196   -0.8185 C   0  0  3  0  0  0  0  0  0  0  0  0
    4.3761    3.3705   -0.5561 C   0  0  0  0  0  0  0  0  0  0  0  0
    4.8053    3.0794    0.8486 C   0  0  0  0  0  0  0  0  0  0  0  0
    5.2629    4.0771    1.8337 C   0  0  0  0  0  0  0  0  0  0  0  0
    5.4357    3.1637    3.0060 C   0  0  0  0  0  0  0  0  0  0  0  0
    4.8409    3.3687    4.1756 C   0  0  0  0  0  0  0  0  0  0  0  0
    4.9859    2.3600    5.1554 C   0  0  0  0  0  0  0  0  0  0  0  0
    4.8710    2.6065    6.4616 C   0  0  0  0  0  0  0  0  0  0  0  0
    5.2731    1.5149    7.2877 C   0  0  0  0  0  0  0  0  0  0  0  0
    5.4130    1.4114    8.5928 C   0  0  0  0  0  0  0  0  0  0  0  0
    5.3974   -0.0057    8.9655 C   0  0  0  0  0  0  0  0  0  0  0  0
    4.1471   -0.4951    8.8766 C   0  0  0  0  0  0  0  0  0  0  0  0
    3.6075   -1.4228    7.7764 C   0  0  0  0  0  0  0  0  0  0  0  0
    3.0667   -2.4374    8.9142 C   0  0  0  0  0  0  0  0  0  0  0  0
    2.8362   -0.7602    6.7668 C   0  0  0  0  0  0  0  0  0  0  0  0
    1.6165   -0.0583    7.3807 C   0  0  0  0  0  0  0  0  0  0  0  0
    3.0488   -0.8583    5.0303 C   0  0  0  0  0  0  0  0  0  0  0  0
    2.5518   -2.2464    4.6856 C   0  0  0  0  0  0  0  0  0  0  0  0
    5.7415    0.2447   -1.1189 C   0  0  0  0  0  3  0  0  0  0  0  0
    6.0336    0.9855   -2.3290 C   0  0  0  0  0  0  0  0  0  0  0  0
    4.8615    1.5333   -2.7986 C   0  0  0  0  0  0  0  0  0  0  0  0
    3.7825    1.1795   -1.8084 C   0  0  0  0  0  0  0  0  0  0  0  0
    1.1005    0.5416    3.5005 H   0  0  0  0  0  0  0  0  0  0  0  0
    2.1929    0.5451    1.7566 H   0  0  0  0  0  0  0  0  0  0  0  0
    5.1039   -0.1894    1.4841 H   0  0  0  0  0  0  0  0  0  0  0  0
    2.5283    2.3037   -0.6758 H   0  0  0  0  0  0  0  0  0  0  0  0
    3.7576    4.2861   -0.6114 H   0  0  0  0  0  0  0  0  0  0  0  0
    5.2648    3.5476   -1.1760 H   0  0  0  0  0  0  0  0  0  0  0  0
    5.6050    2.3491    0.7634 H   0  0  0  0  0  0  0  0  0  0  0  0
    3.9145    2.6272    1.3102 H   0  0  0  0  0  0  0  0  0  0  0  0
    4.4955    4.8294    2.0181 H   0  0  0  0  0  0  0  0  0  0  0  0
    6.2111    4.5424    1.5654 H   0  0  0  0  0  0  0  0  0  0  0  0
    5.9296    2.1962    2.8321 H   0  0  0  0  0  0  0  0  0  0  0  0
    4.2962    4.2687    4.4001 H   0  0  0  0  0  0  0  0  0  0  0  0
    5.2940    1.3670    4.8087 H   0  0  0  0  0  0  0  0  0  0  0  0
    4.5402    3.5489    6.8657 H   0  0  0  0  0  0  0  0  0  0  0  0
    5.3307    0.5862    6.7134 H   0  0  0  0  0  0  0  0  0  0  0  0
    5.2369    2.2142    9.3069 H   0  0  0  0  0  0  0  0  0  0  0  0
    6.2168   -0.5365    8.4828 H   0  0  0  0  0  0  0  0  0  0  0  0
    3.3903    0.0213    9.4739 H   0  0  0  0  0  0  0  0  0  0  0  0
    3.0359   -3.4797    8.5926 H   0  0  0  0  0  0  0  0  0  0  0  0
    2.0906   -2.1459    9.3239 H   0  0  0  0  0  0  0  0  0  0  0  0
    3.7250   -2.4745    9.8178 H   0  0  0  0  0  0  0  0  0  0  0  0
    1.7002    1.0206    7.2896 H   0  0  0  0  0  0  0  0  0  0  0  0
    1.5578   -0.2150    8.4790 H   0  0  0  0  0  0  0  0  0  0  0  0
    0.6684   -0.4503    7.0270 H   0  0  0  0  0  0  0  0  0  0  0  0
    3.2665   -3.0253    4.9455 H   0  0  0  0  0  0  0  0  0  0  0  0
    2.2827   -2.3376    3.6271 H   0  0  0  0  0  0  0  0  0  0  0  0
    1.6135   -2.4223    5.2348 H   0  0  0  0  0  0  0  0  0  0  0  0
    6.0260   -0.7970   -1.2729 H   0  0  0  0  0  0  0  0  0  0  0  0
    6.9950    1.1507   -2.7962 H   0  0  0  0  0  0  0  0  0  0  0  0
    4.7882    2.2397   -3.5885 H   0  0  0  0  0  0  0  0  0  0  0  0
  1  2  1  0  0  0  0
  1 28  1  0  0  0  0
  2  3  1  0  0  0  0
  2 22  2  3  0  0  0
  3  4  2  3  0  0  0
  3 29  1  0  0  0  0
  4  5  1  0  0  0  0
  4 30  1  0  0  0  0
  5  6  1  0  0  0  0
  5 24  1  0  0  0  0
  5 27  2  0  0  0  0
  6  7  1  0  0  0  0
  6 27  1  0  0  0  0
  6 31  1  0  0  0  0
  7  8  1  0  0  0  0
  7 32  1  0  0  0  0
  7 33  1  0  0  0  0
  8  9  1  0  0  0  0
  8 34  1  0  0  0  0
  8 35  1  0  0  0  0
  9 10  1  0  0  0  0
  9 36  1  0  0  0  0
  9 37  1  0  0  0  0
 10 11  2  3  0  0  0
 10 38  1  0  0  0  0
 11 12  1  0  0  0  0
 11 39  1  0  0  0  0
 12 13  2  3  0  0  0
 12 40  1  0  0  0  0
 13 14  1  0  0  0  0
 13 41  1  0  0  0  0
 14 15  2  3  0  0  0
 14 42  1  0  0  0  0
 15 16  1  0  0  0  0
 15 43  1  0  0  0  0
 16 17  2  3  0  0  0
 16 44  1  0  0  0  0
 17 18  1  0  0  0  0
 17 45  1  0  0  0  0
 18 19  1  0  0  0  0
 18 20  2  3  0  0  0
 19 46  1  0  0  0  0
 19 47  1  0  0  0  0
 19 48  1  0  0  0  0
 20 21  1  0  0  0  0
 20 22  1  0  0  0  0
 21 49  1  0  0  0  0
 21 50  1  0  0  0  0
 21 51  1  0  0  0  0
 22 23  1  0  0  0  0
 23 52  1  0  0  0  0
 23 53  1  0  0  0  0
 23 54  1  0  0  0  0
 24 25  1  0  0  0  0
 24 55  1  0  0  0  0
 25 26  2  0  0  0  0
 25 56  1  0  0  0  0
 26 27  1  0  0  0  0
 26 57  1  0  0  0  0
M  END
$$$$
