
 OpenBabel04232216413D

108107  0  0  0  0  0  0  0  0999 V2000
    1.6017   -1.0022   -0.2272 C   0  0  0  0  0  0  0  0  0  0  0  0
    2.4488    0.0124   -0.0258 C   0  0  0  0  0  0  0  0  0  0  0  0
    3.2266    0.6305   -1.1509 C   0  0  0  0  0  0  0  0  0  0  0  0
    4.6674    0.5054   -0.9099 N   0  0  0  0  0  0  0  0  0  0  0  0
    5.3756    1.1034   -2.0030 N   0  0  0  0  0  0  0  0  0  0  0  0
    6.7888    0.9934   -1.7904 N   0  0  0  0  0  0  0  0  0  0  0  0
    7.5043    1.5796   -2.8625 N   0  0  0  0  0  0  0  0  0  0  0  0
    8.8856    1.4550   -2.6274 N   0  0  0  0  0  0  0  0  0  0  0  0
    9.6025    2.0393   -3.6976 N   0  0  0  0  0  0  0  0  0  0  0  0
   10.9933    1.9235   -3.4756 N   0  0  0  0  0  0  0  0  0  0  0  0
   11.6878    2.5082   -4.5497 N   0  0  0  0  0  0  0  0  0  0  0  0
   13.0900    2.3941   -4.3328 N   0  0  0  0  0  0  0  0  0  0  0  0
   13.8014    2.9768   -5.4016 N   0  0  0  0  0  0  0  0  0  0  0  0
   15.1979    2.8591   -5.1824 N   0  0  0  0  0  0  0  0  0  0  0  0
   15.9117    3.4450   -6.2548 N   0  0  0  0  0  0  0  0  0  0  0  0
   17.2980    3.3237   -6.0299 N   0  0  0  0  0  0  0  0  0  0  0  0
   18.0132    3.9077   -7.0994 N   0  0  0  0  0  0  0  0  0  0  0  0
   19.3939    3.7845   -6.8709 N   0  0  0  0  0  0  0  0  0  0  0  0
   20.1162    4.3811   -7.9636 N   0  0  0  0  0  0  0  0  0  0  0  0
   21.5478    4.2479   -7.7158 C   0  0  0  0  0  0  0  0  0  0  0  0
   22.3157    4.8763   -8.8669 C   0  0  0  0  0  0  0  0  0  0  0  0
   23.8108    4.7500   -8.6323 C   0  0  0  0  0  0  0  0  0  0  0  0
   24.5772    5.3767   -9.7801 C   0  0  0  0  0  0  0  0  0  0  0  0
   26.0683    5.2477   -9.5445 C   0  0  0  0  0  0  0  0  0  0  0  0
   26.8327    5.8761  -10.6912 C   0  0  0  0  0  0  0  0  0  0  0  0
   28.3231    5.7451  -10.4564 C   0  0  0  0  0  0  0  0  0  0  0  0
   29.0872    6.3753  -11.6021 C   0  0  0  0  0  0  0  0  0  0  0  0
   30.5776    6.2425  -11.3682 C   0  0  0  0  0  0  0  0  0  0  0  0
   31.3418    6.8744  -12.5129 C   0  0  0  0  0  0  0  0  0  0  0  0
   32.8324    6.7400  -12.2802 C   0  0  0  0  0  0  0  0  0  0  0  0
   33.5974    7.3739  -13.4242 C   0  0  0  0  0  0  0  0  0  0  0  0
   35.0898    7.2402  -13.1929 C   0  0  0  0  0  0  0  0  0  0  0  0
   35.8592    7.8751  -14.3387 C   0  0  0  0  0  0  0  0  0  0  0  0
   37.3559    7.7422  -14.1088 C   0  0  0  0  0  0  0  0  0  0  0  0
   38.0726    8.3596  -15.2230 N   0  0  0  0  0  0  0  0  0  0  0  0
   39.4795    8.2167  -14.9746 N   0  0  0  0  0  0  0  0  0  0  0  0
   40.1957    8.8325  -16.0899 C   0  0  0  0  0  0  0  0  0  0  0  0
   41.6925    8.6995  -15.8600 C   0  0  0  0  0  0  0  0  0  0  0  0
   42.4618    9.3327  -17.0070 C   0  0  0  0  0  0  0  0  0  0  0  0
   43.9544    9.1977  -16.7774 C   0  0  0  0  0  0  0  0  0  0  0  0
   44.7223    9.8283  -17.9238 C   0  0  0  0  0  0  0  0  0  0  0  0
   46.2087    9.6905  -17.6892 C   0  0  0  0  0  0  0  0  0  0  0  0
    1.0588   -1.4365    0.5959 H   0  0  0  0  0  0  0  0  0  0  0  0
    1.4483   -1.4130   -1.2170 H   0  0  0  0  0  0  0  0  0  0  0  0
    2.5786    0.3913    0.9834 H   0  0  0  0  0  0  0  0  0  0  0  0
    2.9546    1.6902   -1.2289 H   0  0  0  0  0  0  0  0  0  0  0  0
    2.9561    0.1350   -2.0928 H   0  0  0  0  0  0  0  0  0  0  0  0
    4.8932   -0.4904   -0.8575 H   0  0  0  0  0  0  0  0  0  0  0  0
    5.1555    2.0997   -2.0723 H   0  0  0  0  0  0  0  0  0  0  0  0
    7.0552    0.0146   -1.7159 H   0  0  0  0  0  0  0  0  0  0  0  0
    7.2464    2.5607   -2.9335 H   0  0  0  0  0  0  0  0  0  0  0  0
    9.1026    0.4616   -2.5445 H   0  0  0  0  0  0  0  0  0  0  0  0
    9.3319    3.0194   -3.7752 H   0  0  0  0  0  0  0  0  0  0  0  0
   11.2126    0.9317   -3.3775 H   0  0  0  0  0  0  0  0  0  0  0  0
   11.4022    3.4905   -4.6147 H   0  0  0  0  0  0  0  0  0  0  0  0
   13.3237    1.4006   -4.2543 H   0  0  0  0  0  0  0  0  0  0  0  0
   13.5838    3.9727   -5.4702 H   0  0  0  0  0  0  0  0  0  0  0  0
   15.4810    1.8839   -5.1238 H   0  0  0  0  0  0  0  0  0  0  0  0
   15.6772    4.4330   -6.3268 H   0  0  0  0  0  0  0  0  0  0  0  0
   17.5409    2.3407   -5.9584 H   0  0  0  0  0  0  0  0  0  0  0  0
   17.7543    4.8903   -7.1624 H   0  0  0  0  0  0  0  0  0  0  0  0
   19.6131    2.7897   -6.7907 H   0  0  0  0  0  0  0  0  0  0  0  0
   19.8645    5.3704   -8.0161 H   0  0  0  0  0  0  0  0  0  0  0  0
   21.8222    3.1889   -7.6428 H   0  0  0  0  0  0  0  0  0  0  0  0
   21.8276    4.7455   -6.7809 H   0  0  0  0  0  0  0  0  0  0  0  0
   22.0521    5.9362   -8.9577 H   0  0  0  0  0  0  0  0  0  0  0  0
   22.0538    4.3793   -9.8084 H   0  0  0  0  0  0  0  0  0  0  0  0
   24.0838    3.6924   -8.5436 H   0  0  0  0  0  0  0  0  0  0  0  0
   24.0816    5.2490   -7.6950 H   0  0  0  0  0  0  0  0  0  0  0  0
   24.3090    6.4353   -9.8685 H   0  0  0  0  0  0  0  0  0  0  0  0
   24.3085    4.8793  -10.7186 H   0  0  0  0  0  0  0  0  0  0  0  0
   26.3380    4.1892   -9.4579 H   0  0  0  0  0  0  0  0  0  0  0  0
   26.3380    5.7441   -8.6058 H   0  0  0  0  0  0  0  0  0  0  0  0
   26.5645    6.9349  -10.7771 H   0  0  0  0  0  0  0  0  0  0  0  0
   26.5623    5.3807  -11.6304 H   0  0  0  0  0  0  0  0  0  0  0  0
   28.5917    4.6862  -10.3720 H   0  0  0  0  0  0  0  0  0  0  0  0
   28.5934    6.2393   -9.5166 H   0  0  0  0  0  0  0  0  0  0  0  0
   28.8197    7.4345  -11.6855 H   0  0  0  0  0  0  0  0  0  0  0  0
   28.8159    5.8820  -12.5421 H   0  0  0  0  0  0  0  0  0  0  0  0
   30.8452    5.1832  -11.2862 H   0  0  0  0  0  0  0  0  0  0  0  0
   30.8487    6.7345  -10.4275 H   0  0  0  0  0  0  0  0  0  0  0  0
   31.0750    7.9341  -12.5940 H   0  0  0  0  0  0  0  0  0  0  0  0
   31.0694    6.3834  -13.4538 H   0  0  0  0  0  0  0  0  0  0  0  0
   33.0988    5.6802  -12.2003 H   0  0  0  0  0  0  0  0  0  0  0  0
   33.1040    7.2297  -11.3384 H   0  0  0  0  0  0  0  0  0  0  0  0
   33.3295    8.4333  -13.5034 H   0  0  0  0  0  0  0  0  0  0  0  0
   33.3243    6.8839  -14.3654 H   0  0  0  0  0  0  0  0  0  0  0  0
   35.3540    6.1799  -13.1117 H   0  0  0  0  0  0  0  0  0  0  0  0
   35.3592    7.7292  -12.2500 H   0  0  0  0  0  0  0  0  0  0  0  0
   35.5847    8.9335  -14.4148 H   0  0  0  0  0  0  0  0  0  0  0  0
   35.5800    7.3833  -15.2777 H   0  0  0  0  0  0  0  0  0  0  0  0
   37.6092    6.6782  -14.0315 H   0  0  0  0  0  0  0  0  0  0  0  0
   37.6169    8.2300  -13.1621 H   0  0  0  0  0  0  0  0  0  0  0  0
   37.8276    9.3523  -15.2688 H   0  0  0  0  0  0  0  0  0  0  0  0
   39.7248    7.2243  -14.9279 H   0  0  0  0  0  0  0  0  0  0  0  0
   39.9427    9.8964  -16.1686 H   0  0  0  0  0  0  0  0  0  0  0  0
   39.9345    8.3433  -17.0358 H   0  0  0  0  0  0  0  0  0  0  0  0
   41.9668    7.6412  -15.7824 H   0  0  0  0  0  0  0  0  0  0  0  0
   41.9719    9.1926  -14.9217 H   0  0  0  0  0  0  0  0  0  0  0  0
   42.1989   10.3933  -17.0885 H   0  0  0  0  0  0  0  0  0  0  0  0
   42.1910    8.8433  -17.9492 H   0  0  0  0  0  0  0  0  0  0  0  0
   44.2204    8.1378  -16.6954 H   0  0  0  0  0  0  0  0  0  0  0  0
   44.2287    9.6887  -15.8368 H   0  0  0  0  0  0  0  0  0  0  0  0
   44.4607   10.8884  -18.0055 H   0  0  0  0  0  0  0  0  0  0  0  0
   44.4524    9.3369  -18.8644 H   0  0  0  0  0  0  0  0  0  0  0  0
   46.4933   10.1891  -16.7579 H   0  0  0  0  0  0  0  0  0  0  0  0
   46.7634   10.1438  -18.5134 H   0  0  0  0  0  0  0  0  0  0  0  0
   46.4850    8.6342  -17.6186 H   0  0  0  0  0  0  0  0  0  0  0  0
  1  2  2  0  0  0  0
  1 43  1  0  0  0  0
  1 44  1  0  0  0  0
  2  3  1  0  0  0  0
  2 45  1  0  0  0  0
  3  4  1  0  0  0  0
  3 46  1  0  0  0  0
  3 47  1  0  0  0  0
  4  5  1  0  0  0  0
  4 48  1  0  0  0  0
  5  6  1  0  0  0  0
  5 49  1  0  0  0  0
  6  7  1  0  0  0  0
  6 50  1  0  0  0  0
  7  8  1  0  0  0  0
  7 51  1  0  0  0  0
  8  9  1  0  0  0  0
  8 52  1  0  0  0  0
  9 10  1  0  0  0  0
  9 53  1  0  0  0  0
 10 11  1  0  0  0  0
 10 54  1  0  0  0  0
 11 12  1  0  0  0  0
 11 55  1  0  0  0  0
 12 13  1  0  0  0  0
 12 56  1  0  0  0  0
 13 14  1  0  0  0  0
 13 57  1  0  0  0  0
 14 15  1  0  0  0  0
 14 58  1  0  0  0  0
 15 16  1  0  0  0  0
 15 59  1  0  0  0  0
 16 17  1  0  0  0  0
 16 60  1  0  0  0  0
 17 18  1  0  0  0  0
 17 61  1  0  0  0  0
 18 19  1  0  0  0  0
 18 62  1  0  0  0  0
 19 20  1  0  0  0  0
 19 63  1  0  0  0  0
 20 21  1  0  0  0  0
 20 64  1  0  0  0  0
 20 65  1  0  0  0  0
 21 22  1  0  0  0  0
 21 66  1  0  0  0  0
 21 67  1  0  0  0  0
 22 23  1  0  0  0  0
 22 68  1  0  0  0  0
 22 69  1  0  0  0  0
 23 24  1  0  0  0  0
 23 70  1  0  0  0  0
 23 71  1  0  0  0  0
 24 25  1  0  0  0  0
 24 72  1  0  0  0  0
 24 73  1  0  0  0  0
 25 26  1  0  0  0  0
 25 74  1  0  0  0  0
 25 75  1  0  0  0  0
 26 27  1  0  0  0  0
 26 76  1  0  0  0  0
 26 77  1  0  0  0  0
 27 28  1  0  0  0  0
 27 78  1  0  0  0  0
 27 79  1  0  0  0  0
 28 29  1  0  0  0  0
 28 80  1  0  0  0  0
 28 81  1  0  0  0  0
 29 30  1  0  0  0  0
 29 82  1  0  0  0  0
 29 83  1  0  0  0  0
 30 31  1  0  0  0  0
 30 84  1  0  0  0  0
 30 85  1  0  0  0  0
 31 32  1  0  0  0  0
 31 86  1  0  0  0  0
 31 87  1  0  0  0  0
 32 33  1  0  0  0  0
 32 88  1  0  0  0  0
 32 89  1  0  0  0  0
 33 34  1  0  0  0  0
 33 90  1  0  0  0  0
 33 91  1  0  0  0  0
 34 35  1  0  0  0  0
 34 92  1  0  0  0  0
 34 93  1  0  0  0  0
 35 36  1  0  0  0  0
 35 94  1  0  0  0  0
 36 37  1  0  0  0  0
 36 95  1  0  0  0  0
 37 38  1  0  0  0  0
 37 96  1  0  0  0  0
 37 97  1  0  0  0  0
 38 39  1  0  0  0  0
 38 98  1  0  0  0  0
 38 99  1  0  0  0  0
 39 40  1  0  0  0  0
 39100  1  0  0  0  0
 39101  1  0  0  0  0
 40 41  1  0  0  0  0
 40102  1  0  0  0  0
 40103  1  0  0  0  0
 41 42  1  0  0  0  0
 41104  1  0  0  0  0
 41105  1  0  0  0  0
 42106  1  0  0  0  0
 42107  1  0  0  0  0
 42108  1  0  0  0  0
M  END
$$$$
