
 OpenBabel04232216473D

 52 53  0  0  0  0  0  0  0  0999 V2000
    1.9424    2.5671   -0.6262 C   0  0  0  0  0  0  0  0  0  0  0  0
    3.3672    2.0131   -0.7776 C   0  0  0  0  0  0  0  0  0  0  0  0
    3.2191    0.5446   -0.7391 C   0  0  0  0  0  0  0  0  0  0  0  0
    4.0529   -0.4818   -0.5743 C   0  0  0  0  0  0  0  0  0  0  0  0
    5.4766   -0.4532   -0.4163 C   0  0  0  0  0  0  0  0  0  0  0  0
    6.0989   -1.8308   -0.2913 C   0  0  0  0  0  0  0  0  0  0  0  0
    6.2046    0.6733   -0.2925 C   0  0  0  0  0  0  0  0  0  0  0  0
    7.7038    0.5587   -0.1836 C   0  0  0  0  0  0  0  0  0  0  0  0
    8.8068   -0.4090   -0.6205 C   0  0  0  0  0  0  0  0  0  0  0  0
    9.0010   -0.4050   -2.1279 C   0  0  0  0  0  0  0  0  0  0  0  0
    5.6734    2.1290   -0.0249 C   0  0  0  0  0  0  0  0  0  0  0  0
    6.0387    3.0183    0.8437 N   0  0  0  0  0  0  0  0  0  0  0  0
    7.1427    3.1533    1.6093 C   0  0  0  0  0  0  0  0  0  0  0  0
    8.3421    2.7898    1.1546 C   0  0  0  0  0  0  0  0  0  0  0  0
    7.1679    4.5247    2.1553 C   0  0  0  0  0  0  0  0  0  0  0  0
    7.9086    5.3579    1.4208 C   0  0  0  0  0  0  0  0  0  0  0  0
    8.0522    6.7717    1.2623 C   0  0  0  0  0  0  0  0  0  0  0  0
    8.5615    6.9631    0.0248 C   0  0  0  0  0  0  0  0  0  0  0  0
   10.0459    6.5824   -0.2540 C   0  0  0  0  0  0  0  0  0  0  0  0
   10.3119    6.2877   -1.6184 O   0  0  0  0  0  0  0  0  0  0  0  0
    7.5698    7.0364   -1.0680 C   0  0  0  0  0  0  0  0  0  0  0  0
    6.3676    6.4686   -1.3790 C   0  0  0  0  0  0  0  0  0  0  0  0
    5.2221    5.5697   -0.9892 C   0  0  0  0  0  0  0  0  0  0  0  0
    4.5318    4.3800   -0.8039 C   0  0  0  0  0  0  0  0  0  0  0  0
    4.5167    2.7837   -0.7867 C   0  0  0  0  0  0  0  0  0  0  0  0
    1.2257    1.7915   -0.2989 H   0  0  0  0  0  0  0  0  0  0  0  0
    1.5431    2.9671   -1.5588 H   0  0  0  0  0  0  0  0  0  0  0  0
    1.8832    3.2969    0.1860 H   0  0  0  0  0  0  0  0  0  0  0  0
    2.2028    0.1875   -0.9167 H   0  0  0  0  0  0  0  0  0  0  0  0
    3.5913   -1.4744   -0.6054 H   0  0  0  0  0  0  0  0  0  0  0  0
    5.3746   -2.6497   -0.2231 H   0  0  0  0  0  0  0  0  0  0  0  0
    6.7019   -1.9087    0.6326 H   0  0  0  0  0  0  0  0  0  0  0  0
    6.7416   -2.0732   -1.1561 H   0  0  0  0  0  0  0  0  0  0  0  0
    7.8679    0.6276    0.8930 H   0  0  0  0  0  0  0  0  0  0  0  0
    7.9858    1.4081   -0.7988 H   0  0  0  0  0  0  0  0  0  0  0  0
    8.7127   -1.4122   -0.2091 H   0  0  0  0  0  0  0  0  0  0  0  0
    9.7362    0.0041   -0.1914 H   0  0  0  0  0  0  0  0  0  0  0  0
    8.1688   -0.9022   -2.6396 H   0  0  0  0  0  0  0  0  0  0  0  0
    9.9290   -0.9261   -2.3850 H   0  0  0  0  0  0  0  0  0  0  0  0
    9.0880    0.6141   -2.5170 H   0  0  0  0  0  0  0  0  0  0  0  0
    8.3908    2.8588    0.0528 H   0  0  0  0  0  0  0  0  0  0  0  0
    9.2971    3.1046    1.5682 H   0  0  0  0  0  0  0  0  0  0  0  0
    6.4435    4.8550    2.8852 H   0  0  0  0  0  0  0  0  0  0  0  0
    8.3652    4.8806    0.5464 H   0  0  0  0  0  0  0  0  0  0  0  0
    7.1363    7.2626    1.5754 H   0  0  0  0  0  0  0  0  0  0  0  0
   10.3730    5.7076    0.3299 H   0  0  0  0  0  0  0  0  0  0  0  0
   10.7224    7.3934    0.0455 H   0  0  0  0  0  0  0  0  0  0  0  0
    9.7797    5.5067   -1.8423 H   0  0  0  0  0  0  0  0  0  0  0  0
    7.8966    7.8625   -1.7185 H   0  0  0  0  0  0  0  0  0  0  0  0
    5.9442    7.0834   -2.1892 H   0  0  0  0  0  0  0  0  0  0  0  0
    4.4757    6.3672   -0.7844 H   0  0  0  0  0  0  0  0  0  0  0  0
    3.4963    4.6237   -0.5290 H   0  0  0  0  0  0  0  0  0  0  0  0
  1  2  1  0  0  0  0
  1 26  1  0  0  0  0
  1 27  1  0  0  0  0
  1 28  1  0  0  0  0
  2  3  1  0  0  0  0
  2 25  2  0  0  0  0
  3  4  2  0  0  0  0
  3 29  1  0  0  0  0
  4  5  1  0  0  0  0
  4 30  1  0  0  0  0
  5  6  1  0  0  0  0
  5  7  2  0  0  0  0
  6 31  1  0  0  0  0
  6 32  1  0  0  0  0
  6 33  1  0  0  0  0
  7  8  1  0  0  0  0
  7 11  1  0  0  0  0
  8  9  1  0  0  0  0
  8 34  1  0  0  0  0
  8 35  1  0  0  0  0
  9 10  1  0  0  0  0
  9 36  1  0  0  0  0
  9 37  1  0  0  0  0
 10 38  1  0  0  0  0
 10 39  1  0  0  0  0
 10 40  1  0  0  0  0
 11 12  2  3  0  0  0
 11 25  1  0  0  0  0
 12 13  1  0  0  0  0
 13 14  2  0  0  0  0
 13 15  1  0  0  0  0
 14 41  1  0  0  0  0
 14 42  1  0  0  0  0
 15 16  2  3  0  0  0
 15 43  1  0  0  0  0
 16 17  1  0  0  0  0
 16 44  1  0  0  0  0
 17 18  2  3  0  0  0
 17 45  1  0  0  0  0
 18 19  1  0  0  0  0
 18 21  1  0  0  0  0
 19 20  1  0  0  0  0
 19 46  1  0  0  0  0
 19 47  1  0  0  0  0
 20 48  1  0  0  0  0
 21 22  2  3  0  0  0
 21 49  1  0  0  0  0
 22 23  1  0  0  0  0
 22 50  1  0  0  0  0
 23 24  2  3  0  0  0
 23 51  1  0  0  0  0
 24 25  1  0  0  0  0
 24 52  1  0  0  0  0
M  END
$$$$
