
 OpenBabel04232216433D

 29 30  0  0  0  0  0  0  0  0999 V2000
    7.9344   -2.1730    3.0736 C   0  0  0  0  0  0  0  0  0  0  0  0
    8.2241   -0.8955    2.7721 C   0  0  0  0  0  0  0  0  0  0  0  0
    7.2735    0.0710    2.2550 C   0  0  0  0  0  0  0  0  0  0  0  0
    6.2151    0.4916    2.9696 C   0  0  0  0  0  0  0  0  0  0  0  0
    5.0064   -0.2628    2.5081 C   0  0  0  0  0  0  0  0  0  0  0  0
    4.3756   -0.0152    1.1146 C   0  0  0  0  0  0  0  0  0  0  0  0
    4.9329   -0.8503   -0.0610 C   0  0  0  0  0  0  0  0  0  0  0  0
    4.2681   -2.1903   -0.4754 C   0  0  0  0  0  0  0  0  0  0  0  0
    3.7687   -3.1700    0.5984 C   0  0  0  0  0  0  0  0  0  0  0  0
    4.6542   -1.2374    3.3172 N   0  0  0  0  0  0  0  0  0  0  0  0
    3.8436   -2.1219    2.6732 N   0  0  0  0  0  0  0  0  0  0  0  0
    4.5094   -2.9216    1.8869 C   0  0  0  0  0  0  0  0  0  0  0  0
    5.9943   -3.3685    1.9705 C   0  0  0  0  0  0  0  0  0  0  0  0
    6.7342   -2.8746    3.1550 N   0  0  0  0  0  0  0  0  0  0  0  0
    8.7583   -2.8141    3.4026 H   0  0  0  0  0  0  0  0  0  0  0  0
    9.2524   -0.5488    2.8187 H   0  0  0  0  0  0  0  0  0  0  0  0
    7.2644    0.0997    1.1678 H   0  0  0  0  0  0  0  0  0  0  0  0
    6.2772    0.4521    4.0599 H   0  0  0  0  0  0  0  0  0  0  0  0
    4.5522    1.0445    0.8909 H   0  0  0  0  0  0  0  0  0  0  0  0
    3.2873   -0.1304    1.1812 H   0  0  0  0  0  0  0  0  0  0  0  0
    5.9927   -1.0607    0.0907 H   0  0  0  0  0  0  0  0  0  0  0  0
    4.9003   -0.2097   -0.9535 H   0  0  0  0  0  0  0  0  0  0  0  0
    5.0101   -2.7280   -1.0840 H   0  0  0  0  0  0  0  0  0  0  0  0
    3.4422   -1.9795   -1.1663 H   0  0  0  0  0  0  0  0  0  0  0  0
    3.8741   -4.2102    0.2826 H   0  0  0  0  0  0  0  0  0  0  0  0
    2.6991   -2.9811    0.7627 H   0  0  0  0  0  0  0  0  0  0  0  0
    6.5110   -3.0992    1.0433 H   0  0  0  0  0  0  0  0  0  0  0  0
    5.9747   -4.4639    2.0152 H   0  0  0  0  0  0  0  0  0  0  0  0
    6.0495   -2.3114    3.6797 H   0  0  0  0  0  0  0  0  0  0  0  0
  1  2  2  3  0  0  0
  1 14  1  0  0  0  0
  1 15  1  0  0  0  0
  2  3  1  0  0  0  0
  2 16  1  0  0  0  0
  3  4  2  3  0  0  0
  3 17  1  0  0  0  0
  4  5  1  0  0  0  0
  4 18  1  0  0  0  0
  5  6  1  0  0  0  0
  5 10  2  0  0  0  0
  6  7  1  0  0  0  0
  6 19  1  0  0  0  0
  6 20  1  0  0  0  0
  7  8  1  0  0  0  0
  7 21  1  0  0  0  0
  7 22  1  0  0  0  0
  8  9  1  0  0  0  0
  8 23  1  0  0  0  0
  8 24  1  0  0  0  0
  9 12  1  0  0  0  0
  9 25  1  0  0  0  0
  9 26  1  0  0  0  0
 10 11  1  0  0  0  0
 11 12  2  0  0  0  0
 12 13  1  0  0  0  0
 13 14  1  0  0  0  0
 13 27  1  0  0  0  0
 13 28  1  0  0  0  0
 14 29  1  0  0  0  0
M  END
$$$$
