
 OpenBabel04232216513D

143143  0  0  1  0  0  0  0  0999 V2000
  471.5558  547.3189 -253.6984 C   0  0  0  0  0  0  0  0  0  0  0  0
  471.7985  543.1272 -254.8849 C   0  0  0  0  0  0  0  0  0  0  0  0
  472.3948  538.9566 -256.3171 C   0  0  3  0  0  0  0  0  0  0  0  0
  472.3718  543.4448 -255.2955 C   0  0  0  0  0  0  0  0  0  0  0  0
  472.4383  547.0672 -254.5484 C   0  0  0  0  0  0  0  0  0  0  0  0
  472.4002  550.9829 -253.5432 C   0  0  0  0  0  0  0  0  0  0  0  0
  472.1510  554.0399 -252.8403 C   0  0  0  0  0  0  0  0  0  0  0  0
  471.4441  557.0606 -253.0151 C   0  0  0  0  0  0  0  0  0  0  0  0
  471.4084  556.8761 -252.2414 C   0  0  0  0  0  0  0  0  0  0  0  0
  470.7884  556.1339 -253.0881 C   0  0  0  0  0  0  0  0  0  0  0  0
  471.9011  555.0924 -253.9466 C   0  0  0  0  0  0  0  0  0  0  0  0
  470.7502  554.0944 -253.6834 C   0  0  0  0  0  0  0  0  0  0  0  0
  472.0262  553.0966 -254.0411 C   0  0  0  0  0  0  0  0  0  0  0  0
  471.2028  551.0358 -254.1554 C   0  0  0  0  0  0  0  0  0  0  0  0
  471.4206  549.3472 -252.4187 C   0  0  0  0  0  0  0  0  0  0  0  0
  471.0667  549.4665 -254.6174 C   0  0  0  0  0  0  0  0  0  0  0  0
  471.5860  548.4164 -255.1611 C   0  0  0  0  0  0  0  0  0  0  0  0
  471.1073  547.1111 -255.5156 C   0  0  0  0  0  0  0  0  0  0  0  0
  471.9717  545.9743 -255.9494 C   0  0  0  0  0  0  0  0  0  0  0  0
  471.4394  544.9234 -256.5537 C   0  0  0  0  0  0  0  0  0  0  0  0
  472.3369  543.9139 -256.8691 C   0  0  0  0  0  0  0  0  0  0  0  0
  471.3638  542.3535 -256.7531 C   0  0  0  0  0  0  0  0  0  0  0  0
  472.1858  541.1947 -257.2200 C   0  0  0  0  0  0  0  0  0  0  0  0
  471.4386  540.0073 -257.3526 C   0  0  0  0  0  0  0  0  0  0  0  0
  472.1784  538.6850 -257.6240 C   0  0  0  0  0  0  0  0  0  0  0  0
  471.6293  537.6437 -257.9686 C   0  0  0  0  0  0  0  0  0  0  0  0
  472.2967  536.6181 -258.4893 C   0  0  0  0  0  0  0  0  0  0  0  0
  472.1594  535.4050 -259.0696 C   0  0  0  0  0  0  0  0  0  0  0  0
  471.8130  535.1883 -260.3548 C   0  0  0  0  0  0  0  0  0  0  0  0
  471.7059  533.1454 -260.0208 C   0  0  0  0  0  0  0  0  0  0  0  0
  472.4224  531.7617 -259.4706 C   0  0  0  0  0  0  0  0  0  0  0  0
  471.8197  530.5413 -260.0911 C   0  0  0  0  0  0  0  0  0  0  0  0
  472.4949  529.5232 -260.3428 C   0  0  0  0  0  0  0  0  0  0  0  0
  471.7159  528.2301 -260.9734 C   0  0  0  0  0  0  0  0  0  0  0  0
  472.4720  527.2081 -261.3322 C   0  0  0  0  0  0  0  0  0  0  0  0
  471.7393  525.9537 -261.6471 C   0  0  0  0  0  0  0  0  0  0  0  0
  472.7265  525.9441 -262.3930 C   0  0  0  0  0  0  0  0  0  0  0  0
  471.9151  524.1732 -262.2950 C   0  0  0  0  0  0  0  0  0  0  0  0
  472.4559  523.0146 -262.8851 C   0  0  0  0  0  0  0  0  0  0  0  0
  471.9287  521.3854 -263.1754 C   0  0  0  0  0  0  0  0  0  0  0  0
  472.4149  520.3727 -264.1193 C   0  0  0  0  0  0  0  0  0  0  0  0
  471.9185  518.4767 -264.8130 C   0  0  0  0  0  0  0  0  0  0  0  0
  472.9273  516.9880 -264.7570 C   0  0  0  0  0  0  0  0  0  0  0  0
  472.1076  516.0064 -264.7257 C   0  0  0  0  0  0  0  0  0  0  0  0
  473.5178  514.9629 -265.0321 C   0  0  0  0  0  0  0  0  0  0  0  0
  471.9376  513.7587 -265.3478 C   0  0  0  0  0  0  0  0  0  0  0  0
  471.1025  512.6400 -266.0232 C   0  0  0  0  0  0  0  0  0  0  0  0
  472.0190  511.6078 -265.9643 C   0  0  0  0  0  0  0  0  0  0  0  0
  473.0613  510.9489 -266.5149 C   0  0  0  0  0  0  0  0  0  0  0  0
  472.1988  509.2582 -266.7052 C   0  0  0  0  0  0  0  0  0  0  0  0
  472.9751  510.0537 -267.1984 C   0  0  0  0  0  0  0  0  0  0  0  0
  471.5629  508.6132 -266.6050 C   0  0  0  0  0  0  0  0  0  0  0  0
  472.6287  507.2706 -267.5205 C   0  0  0  0  0  0  0  0  0  0  0  0
  471.9926  505.3894 -267.7485 C   0  0  0  0  0  0  0  0  0  0  0  0
  472.4650  504.7508 -268.8537 C   0  0  0  0  0  0  0  0  0  0  0  0
  472.2723  502.7732 -268.9056 C   0  0  0  0  0  0  0  0  0  0  0  0
  472.1072  501.5431 -269.6768 C   0  0  0  0  0  0  0  0  0  0  0  0
  472.4155  499.4630 -270.1588 C   0  0  0  0  0  0  0  0  0  0  0  0
  473.5791  498.0487 -270.6534 C   0  0  0  0  0  0  0  0  0  0  0  0
  474.5374  497.7959 -269.6569 C   0  0  0  0  0  0  0  0  0  0  0  0
  473.9981  500.1863 -268.9451 C   0  0  0  0  0  0  0  0  0  0  0  0
  473.6099  503.4118 -267.4964 C   0  0  0  0  0  0  0  0  0  0  0  0
  473.3663  506.3888 -266.4085 C   0  0  0  0  0  0  0  0  0  0  0  0
  473.5056  510.6102 -264.6615 C   0  0  0  0  0  0  0  0  0  0  0  0
  473.0987  514.2946 -263.6226 C   0  0  0  0  0  0  0  0  0  0  0  0
  472.8505  518.9678 -262.1016 C   0  0  0  0  0  0  0  0  0  0  0  0
  472.7545  523.1133 -260.8252 C   0  0  0  0  0  0  0  0  0  0  0  0
  472.6624  528.2522 -259.3587 C   0  0  0  0  0  0  0  0  0  0  0  0
  472.6264  533.6219 -257.8634 C   0  0  0  0  0  0  0  0  0  0  0  0
  471.5606  550.0390 -253.1468 H   0  0  0  0  0  0  0  0  0  0  0  0
  471.5879  550.0395 -253.1321 H   0  0  0  0  0  0  0  0  0  0  0  0
  471.6063  550.0417 -253.1105 H   0  0  0  0  0  0  0  0  0  0  0  0
  471.5799  545.8118 -254.3041 H   0  0  0  0  0  0  0  0  0  0  0  0
  471.5919  545.8053 -254.2734 H   0  0  0  0  0  0  0  0  0  0  0  0
  472.3238  541.2926 -255.6874 H   0  0  0  0  0  0  0  0  0  0  0  0
  472.5182  545.9135 -254.6152 H   0  0  0  0  0  0  0  0  0  0  0  0
  472.3977  549.4909 -253.7145 H   0  0  0  0  0  0  0  0  0  0  0  0
  472.3106  553.4754 -252.7193 H   0  0  0  0  0  0  0  0  0  0  0  0
  472.4413  556.6042 -252.0345 H   0  0  0  0  0  0  0  0  0  0  0  0
  470.1572  558.6009 -252.0578 H   0  0  0  0  0  0  0  0  0  0  0  0
  472.8956  557.2943 -251.1529 H   0  0  0  0  0  0  0  0  0  0  0  0
  470.2516  556.9369 -253.4790 H   0  0  0  0  0  0  0  0  0  0  0  0
  473.2486  555.0190 -252.4378 H   0  0  0  0  0  0  0  0  0  0  0  0
  470.3063  554.4394 -254.4023 H   0  0  0  0  0  0  0  0  0  0  0  0
  473.2260  553.0336 -252.6279 H   0  0  0  0  0  0  0  0  0  0  0  0
  470.7143  551.3511 -253.5734 H   0  0  0  0  0  0  0  0  0  0  0  0
  473.1501  550.3829 -252.9309 H   0  0  0  0  0  0  0  0  0  0  0  0
  470.3291  549.9322 -254.7241 H   0  0  0  0  0  0  0  0  0  0  0  0
  473.3916  548.2600 -254.5355 H   0  0  0  0  0  0  0  0  0  0  0  0
  472.2217  547.4091 -255.6275 H   0  0  0  0  0  0  0  0  0  0  0  0
  473.3720  545.9001 -254.9262 H   0  0  0  0  0  0  0  0  0  0  0  0
  471.9543  545.2783 -257.3339 H   0  0  0  0  0  0  0  0  0  0  0  0
  473.3899  543.4909 -255.6973 H   0  0  0  0  0  0  0  0  0  0  0  0
  472.2188  541.7926 -256.7872 H   0  0  0  0  0  0  0  0  0  0  0  0
  473.4267  541.2170 -256.2838 H   0  0  0  0  0  0  0  0  0  0  0  0
  472.2507  539.3474 -257.6332 H   0  0  0  0  0  0  0  0  0  0  0  0
  473.4154  538.7613 -256.9692 H   0  0  0  0  0  0  0  0  0  0  0  0
  471.0299  537.7698 -258.7582 H   0  0  0  0  0  0  0  0  0  0  0  0
  473.4998  536.4418 -257.7403 H   0  0  0  0  0  0  0  0  0  0  0  0
  471.3283  534.6564 -258.0523 H   0  0  0  0  0  0  0  0  0  0  0  0
  473.1007  536.2835 -260.5108 H   0  0  0  0  0  0  0  0  0  0  0  0
  470.7833  532.9725 -259.5857 H   0  0  0  0  0  0  0  0  0  0  0  0
  473.4285  531.6622 -259.0609 H   0  0  0  0  0  0  0  0  0  0  0  0
  472.2227  529.6100 -259.8920 H   0  0  0  0  0  0  0  0  0  0  0  0
  473.5567  529.3097 -259.7882 H   0  0  0  0  0  0  0  0  0  0  0  0
  470.9263  527.7711 -260.4591 H   0  0  0  0  0  0  0  0  0  0  0  0
  473.7228  526.9632 -260.6598 H   0  0  0  0  0  0  0  0  0  0  0  0
  471.1496  525.9534 -262.4174 H   0  0  0  0  0  0  0  0  0  0  0  0
  473.5481  524.9530 -261.5786 H   0  0  0  0  0  0  0  0  0  0  0  0
  470.9927  523.4527 -262.6321 H   0  0  0  0  0  0  0  0  0  0  0  0
  473.7811  522.2462 -262.2495 H   0  0  0  0  0  0  0  0  0  0  0  0
  471.4678  520.7434 -262.1317 H   0  0  0  0  0  0  0  0  0  0  0  0
  473.5906  520.0539 -263.0529 H   0  0  0  0  0  0  0  0  0  0  0  0
  472.6088  518.3152 -264.2068 H   0  0  0  0  0  0  0  0  0  0  0  0
  473.8820  517.2411 -263.7470 H   0  0  0  0  0  0  0  0  0  0  0  0
  471.2110  515.7782 -264.9228 H   0  0  0  0  0  0  0  0  0  0  0  0
  474.9769  514.6033 -264.1553 H   0  0  0  0  0  0  0  0  0  0  0  0
  471.6412  513.5488 -266.2275 H   0  0  0  0  0  0  0  0  0  0  0  0
  472.5743  512.5994 -265.6110 H   0  0  0  0  0  0  0  0  0  0  0  0
  471.1113  511.4002 -265.7881 H   0  0  0  0  0  0  0  0  0  0  0  0
  474.2785  510.4421 -265.7699 H   0  0  0  0  0  0  0  0  0  0  0  0
  472.8652  508.5075 -266.7324 H   0  0  0  0  0  0  0  0  0  0  0  0
  473.9958  508.8410 -266.8952 H   0  0  0  0  0  0  0  0  0  0  0  0
  471.8414  507.2673 -267.0065 H   0  0  0  0  0  0  0  0  0  0  0  0
  474.1724  506.4649 -267.2667 H   0  0  0  0  0  0  0  0  0  0  0  0
  472.3613  504.2069 -267.7339 H   0  0  0  0  0  0  0  0  0  0  0  0
  473.4607  504.1752 -268.5547 H   0  0  0  0  0  0  0  0  0  0  0  0
  472.7817  501.9694 -269.7307 H   0  0  0  0  0  0  0  0  0  0  0  0
  471.3243  503.0277 -269.9592 H   0  0  0  0  0  0  0  0  0  0  0  0
  472.7595  499.8806 -270.9166 H   0  0  0  0  0  0  0  0  0  0  0  0
  474.1910  497.8015 -268.9930 H   0  0  0  0  0  0  0  0  0  0  0  0
  474.8266  498.3171 -271.0785 H   0  0  0  0  0  0  0  0  0  0  0  0
  474.3254  497.5505 -269.7735 H   0  0  0  0  0  0  0  0  0  0  0  0
  473.5502  500.7855 -268.6170 H   0  0  0  0  0  0  0  0  0  0  0  0
  473.3803  503.8960 -267.2877 H   0  0  0  0  0  0  0  0  0  0  0  0
  473.2597  507.9354 -265.8415 H   0  0  0  0  0  0  0  0  0  0  0  0
  473.1803  511.8172 -264.5755 H   0  0  0  0  0  0  0  0  0  0  0  0
  473.0078  516.5437 -263.0941 H   0  0  0  0  0  0  0  0  0  0  0  0
  472.8414  520.8152 -261.8349 H   0  0  0  0  0  0  0  0  0  0  0  0
  472.7540  526.1517 -260.1430 H   0  0  0  0  0  0  0  0  0  0  0  0
  472.7257  526.1645 -260.1894 H   0  0  0  0  0  0  0  0  0  0  0  0
  472.4943  535.5840 -257.2560 H   0  0  0  0  0  0  0  0  0  0  0  0
  472.4569  535.5594 -257.1919 H   0  0  0  0  0  0  0  0  0  0  0  0
  1  2  1  0  0  0  0
  1 70  1  0  0  0  0
  1 71  1  0  0  0  0
  1 72  1  0  0  0  0
  2  3  1  0  0  0  0
  2 73  1  0  0  0  0
  2 74  1  0  0  0  0
  3  4  1  0  0  0  0
  3 69  1  0  0  0  0
  3 75  1  0  0  0  0
  4  5  2  3  0  0  0
  4 76  1  0  0  0  0
  5  6  1  0  0  0  0
  5 77  1  0  0  0  0
  6  7  2  3  0  0  0
  6 78  1  0  0  0  0
  7  8  1  0  0  0  0
  7 79  1  0  0  0  0
  8  9  2  3  0  0  0
  8 80  1  0  0  0  0
  9 10  1  0  0  0  0
  9 81  1  0  0  0  0
 10 11  2  3  0  0  0
 10 82  1  0  0  0  0
 11 12  1  0  0  0  0
 11 83  1  0  0  0  0
 12 13  2  3  0  0  0
 12 84  1  0  0  0  0
 13 14  1  0  0  0  0
 13 85  1  0  0  0  0
 14 15  2  3  0  0  0
 14 86  1  0  0  0  0
 15 16  1  0  0  0  0
 15 87  1  0  0  0  0
 16 17  2  3  0  0  0
 16 88  1  0  0  0  0
 17 18  1  0  0  0  0
 17 89  1  0  0  0  0
 18 19  2  3  0  0  0
 18 90  1  0  0  0  0
 19 20  1  0  0  0  0
 19 91  1  0  0  0  0
 20 21  2  3  0  0  0
 20 92  1  0  0  0  0
 21 22  1  0  0  0  0
 21 93  1  0  0  0  0
 22 23  2  3  0  0  0
 22 94  1  0  0  0  0
 23 24  1  0  0  0  0
 23 95  1  0  0  0  0
 24 25  2  3  0  0  0
 24 96  1  0  0  0  0
 25 26  1  0  0  0  0
 25 97  1  0  0  0  0
 26 27  2  3  0  0  0
 26 98  1  0  0  0  0
 27 28  1  0  0  0  0
 27 99  1  0  0  0  0
 28 29  2  3  0  0  0
 28100  1  0  0  0  0
 29 30  1  0  0  0  0
 29101  1  0  0  0  0
 30 31  2  3  0  0  0
 30102  1  0  0  0  0
 31 32  1  0  0  0  0
 31103  1  0  0  0  0
 32 33  2  3  0  0  0
 32104  1  0  0  0  0
 33 34  1  0  0  0  0
 33105  1  0  0  0  0
 34 35  2  3  0  0  0
 34106  1  0  0  0  0
 35 36  1  0  0  0  0
 35107  1  0  0  0  0
 36 37  2  3  0  0  0
 36108  1  0  0  0  0
 37 38  1  0  0  0  0
 37109  1  0  0  0  0
 38 39  2  3  0  0  0
 38110  1  0  0  0  0
 39 40  1  0  0  0  0
 39111  1  0  0  0  0
 40 41  2  3  0  0  0
 40112  1  0  0  0  0
 41 42  1  0  0  0  0
 41113  1  0  0  0  0
 42 43  2  3  0  0  0
 42114  1  0  0  0  0
 43 44  1  0  0  0  0
 43115  1  0  0  0  0
 44 45  2  3  0  0  0
 44116  1  0  0  0  0
 45 46  1  0  0  0  0
 45117  1  0  0  0  0
 46 47  2  3  0  0  0
 46118  1  0  0  0  0
 47 48  1  0  0  0  0
 47119  1  0  0  0  0
 48 49  2  3  0  0  0
 48120  1  0  0  0  0
 49 50  1  0  0  0  0
 49121  1  0  0  0  0
 50 51  2  3  0  0  0
 50122  1  0  0  0  0
 51 52  1  0  0  0  0
 51123  1  0  0  0  0
 52 53  2  3  0  0  0
 52124  1  0  0  0  0
 53 54  1  0  0  0  0
 53125  1  0  0  0  0
 54 55  2  3  0  0  0
 54126  1  0  0  0  0
 55 56  1  0  0  0  0
 55127  1  0  0  0  0
 56 57  2  3  0  0  0
 56128  1  0  0  0  0
 57 58  1  0  0  0  0
 57129  1  0  0  0  0
 58 59  2  3  0  0  0
 58130  1  0  0  0  0
 59 60  1  0  0  0  0
 59131  1  0  0  0  0
 60 61  2  3  0  0  0
 60132  1  0  0  0  0
 61 62  1  0  0  0  0
 61133  1  0  0  0  0
 62 63  2  3  0  0  0
 62134  1  0  0  0  0
 63 64  1  0  0  0  0
 63135  1  0  0  0  0
 64 65  2  3  0  0  0
 64136  1  0  0  0  0
 65 66  1  0  0  0  0
 65137  1  0  0  0  0
 66 67  2  3  0  0  0
 66138  1  0  0  0  0
 67 68  1  0  0  0  0
 67139  1  0  0  0  0
 68 69  1  0  0  0  0
 68140  1  0  0  0  0
 68141  1  0  0  0  0
 69142  1  0  0  0  0
 69143  1  0  0  0  0
M  END
$$$$
