
 OpenBabel04232216583D

 41 40  0  0  0  0  0  0  0  0999 V2000
    4.7026    1.9829   -1.6585 N   0  0  0  0  0  0  0  0  0  0  0  0
    6.1538    1.9819   -1.6500 N   0  0  0  0  0  0  0  0  0  0  0  0
    6.6868    0.6651   -2.0363 C   0  0  0  0  0  0  0  0  0  0  0  0
    6.2743    0.3117   -3.4051 N   0  0  0  0  0  0  0  0  0  0  0  0
    6.6603    1.3526   -4.3327 N   0  0  0  0  0  0  0  0  0  0  0  0
    8.0678    1.3824   -4.4791 N   0  0  0  0  0  0  0  0  0  0  0  0
    8.4958    2.4515   -5.3067 N   0  0  0  0  0  0  0  0  0  0  0  0
    8.1275    3.7514   -4.8270 N   0  0  0  0  0  0  0  0  0  0  0  0
    8.6210    4.0424   -3.5149 N   0  0  0  0  0  0  0  0  0  0  0  0
   10.0621    4.0428   -3.4881 N   0  0  0  0  0  0  0  0  0  0  0  0
   10.5713    5.1473   -4.3073 C   0  0  0  0  0  0  0  0  0  0  0  0
   12.0965    5.1080   -4.3271 C   0  0  0  0  0  0  0  0  0  0  0  0
   12.6334    6.1694   -5.2850 C   0  0  0  0  0  0  0  0  0  0  0  0
   14.1568    6.1661   -5.3167 C   0  0  0  0  0  0  0  0  0  0  0  0
   14.6846    7.2369   -6.2669 C   0  0  0  0  0  0  0  0  0  0  0  0
   16.2040    7.2488   -6.2837 C   0  0  0  0  0  0  0  0  0  0  0  0
    4.3421    2.9310   -1.5014 H   0  0  0  0  0  0  0  0  0  0  0  0
    4.3106    1.4117   -0.9014 H   0  0  0  0  0  0  0  0  0  0  0  0
    6.5462    2.2212   -0.7336 H   0  0  0  0  0  0  0  0  0  0  0  0
    6.3327   -0.1083   -1.3446 H   0  0  0  0  0  0  0  0  0  0  0  0
    7.7802    0.6745   -1.9544 H   0  0  0  0  0  0  0  0  0  0  0  0
    5.2513    0.3142   -3.3592 H   0  0  0  0  0  0  0  0  0  0  0  0
    6.3428    2.2471   -3.9320 H   0  0  0  0  0  0  0  0  0  0  0  0
    8.4022    0.4797   -4.8277 H   0  0  0  0  0  0  0  0  0  0  0  0
    8.1597    2.3229   -6.2649 H   0  0  0  0  0  0  0  0  0  0  0  0
    7.1173    3.9009   -4.8735 H   0  0  0  0  0  0  0  0  0  0  0  0
    8.2677    3.3177   -2.8731 H   0  0  0  0  0  0  0  0  0  0  0  0
   10.3667    3.1628   -3.9126 H   0  0  0  0  0  0  0  0  0  0  0  0
   10.2277    6.1098   -3.9101 H   0  0  0  0  0  0  0  0  0  0  0  0
   10.2168    5.0655   -5.3427 H   0  0  0  0  0  0  0  0  0  0  0  0
   12.4457    4.1189   -4.6509 H   0  0  0  0  0  0  0  0  0  0  0  0
   12.4883    5.2781   -3.3167 H   0  0  0  0  0  0  0  0  0  0  0  0
   12.2700    7.1584   -4.9789 H   0  0  0  0  0  0  0  0  0  0  0  0
   12.2448    5.9836   -6.2949 H   0  0  0  0  0  0  0  0  0  0  0  0
   14.5153    5.1797   -5.6350 H   0  0  0  0  0  0  0  0  0  0  0  0
   14.5441    6.3414   -4.3059 H   0  0  0  0  0  0  0  0  0  0  0  0
   14.3205    8.2229   -5.9563 H   0  0  0  0  0  0  0  0  0  0  0  0
   14.3113    7.0566   -7.2815 H   0  0  0  0  0  0  0  0  0  0  0  0
   16.6022    7.4521   -5.2848 H   0  0  0  0  0  0  0  0  0  0  0  0
   16.5688    8.0258   -6.9616 H   0  0  0  0  0  0  0  0  0  0  0  0
   16.5979    6.2860   -6.6232 H   0  0  0  0  0  0  0  0  0  0  0  0
  1  2  1  0  0  0  0
  1 17  1  0  0  0  0
  1 18  1  0  0  0  0
  2  3  1  0  0  0  0
  2 19  1  0  0  0  0
  3  4  1  0  0  0  0
  3 20  1  0  0  0  0
  3 21  1  0  0  0  0
  4  5  1  0  0  0  0
  4 22  1  0  0  0  0
  5  6  1  0  0  0  0
  5 23  1  0  0  0  0
  6  7  1  0  0  0  0
  6 24  1  0  0  0  0
  7  8  1  0  0  0  0
  7 25  1  0  0  0  0
  8  9  1  0  0  0  0
  8 26  1  0  0  0  0
  9 10  1  0  0  0  0
  9 27  1  0  0  0  0
 10 11  1  0  0  0  0
 10 28  1  0  0  0  0
 11 12  1  0  0  0  0
 11 29  1  0  0  0  0
 11 30  1  0  0  0  0
 12 13  1  0  0  0  0
 12 31  1  0  0  0  0
 12 32  1  0  0  0  0
 13 14  1  0  0  0  0
 13 33  1  0  0  0  0
 13 34  1  0  0  0  0
 14 15  1  0  0  0  0
 14 35  1  0  0  0  0
 14 36  1  0  0  0  0
 15 16  1  0  0  0  0
 15 37  1  0  0  0  0
 15 38  1  0  0  0  0
 16 39  1  0  0  0  0
 16 40  1  0  0  0  0
 16 41  1  0  0  0  0
M  END
$$$$
