
 OpenBabel04232216413D

221220  0  0  0  0  0  0  0  0999 V2000
    1.4367    0.9036    0.2887 C   0  0  0  0  0  0  0  0  0  0  0  0
    2.3091   -0.0946    0.0835 C   0  0  0  0  0  0  0  0  0  0  0  0
    3.1064   -0.7351    1.1912 C   0  0  0  0  0  0  0  0  0  0  0  0
    4.5407   -0.5901    0.9596 N   0  0  0  0  0  0  0  0  0  0  0  0
    5.2354   -1.2099    2.0315 N   0  0  0  0  0  0  0  0  0  0  0  0
    6.6285   -1.0766    1.8220 N   0  0  0  0  0  0  0  0  0  0  0  0
    7.3364   -1.6846    2.8764 N   0  0  0  0  0  0  0  0  0  0  0  0
    8.7242   -1.5471    2.6554 N   0  0  0  0  0  0  0  0  0  0  0  0
    9.4492   -2.1565    3.7136 N   0  0  0  0  0  0  0  0  0  0  0  0
   10.8460   -2.0299    3.5066 N   0  0  0  0  0  0  0  0  0  0  0  0
   11.5463   -2.6471    4.5810 N   0  0  0  0  0  0  0  0  0  0  0  0
   12.9755   -2.4990    4.3344 C   0  0  0  0  0  0  0  0  0  0  0  0
   13.7470   -3.1540    5.4709 C   0  0  0  0  0  0  0  0  0  0  0  0
   15.2432   -3.0145    5.2435 C   0  0  0  0  0  0  0  0  0  0  0  0
   16.0099   -3.6682    6.3775 C   0  0  0  0  0  0  0  0  0  0  0  0
   17.5017   -3.5292    6.1468 C   0  0  0  0  0  0  0  0  0  0  0  0
   18.2660   -4.1845    7.2796 C   0  0  0  0  0  0  0  0  0  0  0  0
   19.7570   -4.0470    7.0475 C   0  0  0  0  0  0  0  0  0  0  0  0
   20.5207   -4.7039    8.1792 C   0  0  0  0  0  0  0  0  0  0  0  0
   22.0115   -4.5681    7.9459 C   0  0  0  0  0  0  0  0  0  0  0  0
   22.7751   -5.2233    9.0786 C   0  0  0  0  0  0  0  0  0  0  0  0
   24.2659   -5.0892    8.8443 C   0  0  0  0  0  0  0  0  0  0  0  0
   25.0295   -5.7427    9.9780 C   0  0  0  0  0  0  0  0  0  0  0  0
   26.5204   -5.6068    9.7447 C   0  0  0  0  0  0  0  0  0  0  0  0
   27.2840   -6.2603   10.8784 C   0  0  0  0  0  0  0  0  0  0  0  0
   28.7748   -6.1227   10.6461 C   0  0  0  0  0  0  0  0  0  0  0  0
   29.5384   -6.7762   11.7799 C   0  0  0  0  0  0  0  0  0  0  0  0
   31.0292   -6.6386   11.5476 C   0  0  0  0  0  0  0  0  0  0  0  0
   31.7928   -7.2921   12.6813 C   0  0  0  0  0  0  0  0  0  0  0  0
   33.2836   -7.1545   12.4490 C   0  0  0  0  0  0  0  0  0  0  0  0
   34.0472   -7.8079   13.5827 C   0  0  0  0  0  0  0  0  0  0  0  0
   35.5380   -7.6704   13.3504 C   0  0  0  0  0  0  0  0  0  0  0  0
   36.3016   -8.3221   14.4851 C   0  0  0  0  0  0  0  0  0  0  0  0
   37.7924   -8.1845   14.2528 C   0  0  0  0  0  0  0  0  0  0  0  0
   38.5560   -8.8362   15.3875 C   0  0  0  0  0  0  0  0  0  0  0  0
   40.0468   -8.6986   15.1553 C   0  0  0  0  0  0  0  0  0  0  0  0
   40.8104   -9.3486   16.2910 C   0  0  0  0  0  0  0  0  0  0  0  0
   42.3012   -9.2128   16.0577 C   0  0  0  0  0  0  0  0  0  0  0  0
   43.0648   -9.8645   17.1924 C   0  0  0  0  0  0  0  0  0  0  0  0
   44.5556   -9.7304   16.9581 C   0  0  0  0  0  0  0  0  0  0  0  0
   45.3192  -10.3804   18.0938 C   0  0  0  0  0  0  0  0  0  0  0  0
   46.8100  -10.2445   17.8605 C   0  0  0  0  0  0  0  0  0  0  0  0
   47.5736  -10.8945   18.9962 C   0  0  0  0  0  0  0  0  0  0  0  0
   49.0644  -10.7587   18.7630 C   0  0  0  0  0  0  0  0  0  0  0  0
   49.8280  -11.4086   19.8987 C   0  0  0  0  0  0  0  0  0  0  0  0
   51.3188  -11.2728   19.6654 C   0  0  0  0  0  0  0  0  0  0  0  0
   52.0824  -11.9228   20.8011 C   0  0  0  0  0  0  0  0  0  0  0  0
   53.5732  -11.7852   20.5688 C   0  0  0  0  0  0  0  0  0  0  0  0
   54.3368  -12.4369   21.7035 C   0  0  0  0  0  0  0  0  0  0  0  0
   55.8276  -12.3011   21.4702 C   0  0  0  0  0  0  0  0  0  0  0  0
   56.5912  -12.9528   22.6049 C   0  0  0  0  0  0  0  0  0  0  0  0
   58.0821  -12.8152   22.3726 C   0  0  0  0  0  0  0  0  0  0  0  0
   58.8456  -13.4652   23.5084 C   0  0  0  0  0  0  0  0  0  0  0  0
   60.3364  -13.3259   23.2771 C   0  0  0  0  0  0  0  0  0  0  0  0
   61.1000  -13.9741   24.4138 C   0  0  0  0  0  0  0  0  0  0  0  0
   62.5908  -13.8330   24.1835 C   0  0  0  0  0  0  0  0  0  0  0  0
   63.3544  -14.4795   25.3212 C   0  0  0  0  0  0  0  0  0  0  0  0
   64.8452  -14.3384   25.0909 C   0  0  0  0  0  0  0  0  0  0  0  0
   65.6088  -14.9831   26.2297 C   0  0  0  0  0  0  0  0  0  0  0  0
   67.0996  -14.8421   25.9994 C   0  0  0  0  0  0  0  0  0  0  0  0
   67.8631  -15.4868   27.1381 C   0  0  0  0  0  0  0  0  0  0  0  0
   69.3539  -15.3457   26.9078 C   0  0  0  0  0  0  0  0  0  0  0  0
   70.1176  -15.9905   28.0466 C   0  0  0  0  0  0  0  0  0  0  0  0
   71.6087  -15.8495   27.8164 C   0  0  0  0  0  0  0  0  0  0  0  0
   72.3730  -16.4943   28.9553 C   0  0  0  0  0  0  0  0  0  0  0  0
   73.8651  -16.3537   28.7258 C   0  0  0  0  0  0  0  0  0  0  0  0
   74.6323  -16.9987   29.8652 C   0  0  0  0  0  0  0  0  0  0  0  0
   76.1300  -16.8601   29.6392 C   0  0  0  0  0  0  0  0  0  0  0  0
   76.9053  -17.5057   30.7837 C   0  0  0  0  0  0  0  0  0  0  0  0
   78.3307  -17.3576   30.5400 N   0  0  0  0  0  0  0  0  0  0  0  0
   79.0384  -17.9656   31.6174 N   0  0  0  0  0  0  0  0  0  0  0  0
   80.4081  -17.8246   31.3868 N   0  0  0  0  0  0  0  0  0  0  0  0
   81.1232  -18.4276   32.4552 N   0  0  0  0  0  0  0  0  0  0  0  0
   82.5256  -18.3002   32.2469 N   0  0  0  0  0  0  0  0  0  0  0  0
   83.2575  -18.9010   33.3171 N   0  0  0  0  0  0  0  0  0  0  0  0
   84.6597  -18.7702   33.1035 N   0  0  0  0  0  0  0  0  0  0  0  0
   85.3590  -19.3693   34.1691 N   0  0  0  0  0  0  0  0  0  0  0  0
   86.7493  -19.2423   33.9584 N   0  0  0  0  0  0  0  0  0  0  0  0
   87.4538  -19.8367   35.0190 N   0  0  0  0  0  0  0  0  0  0  0  0
   88.8231  -19.6987   34.7897 N   0  0  0  0  0  0  0  0  0  0  0  0
    0.8787    1.3506   -0.5271 H   0  0  0  0  0  0  0  0  0  0  0  0
    1.2779    1.2862    1.2901 H   0  0  0  0  0  0  0  0  0  0  0  0
    2.4489   -0.4564   -0.9322 H   0  0  0  0  0  0  0  0  0  0  0  0
    2.8318   -1.7985    1.2283 H   0  0  0  0  0  0  0  0  0  0  0  0
    2.8108   -0.2709    2.1413 H   0  0  0  0  0  0  0  0  0  0  0  0
    4.7859    0.3983    0.9579 H   0  0  0  0  0  0  0  0  0  0  0  0
    4.9983   -2.2008    2.0623 H   0  0  0  0  0  0  0  0  0  0  0  0
    6.8695   -0.0883    1.7704 H   0  0  0  0  0  0  0  0  0  0  0  0
    7.0999   -2.6738    2.9187 H   0  0  0  0  0  0  0  0  0  0  0  0
    8.9219   -0.5469    2.5921 H   0  0  0  0  0  0  0  0  0  0  0  0
    9.2055   -3.1491    3.7565 H   0  0  0  0  0  0  0  0  0  0  0  0
   11.0952   -1.0414    3.4788 H   0  0  0  0  0  0  0  0  0  0  0  0
   11.3079   -3.6381    4.6102 H   0  0  0  0  0  0  0  0  0  0  0  0
   13.2521   -1.4384    4.2860 H   0  0  0  0  0  0  0  0  0  0  0  0
   13.2614   -2.9746    3.3881 H   0  0  0  0  0  0  0  0  0  0  0  0
   13.4895   -4.2181    5.5354 H   0  0  0  0  0  0  0  0  0  0  0  0
   13.4812   -2.6835    6.4254 H   0  0  0  0  0  0  0  0  0  0  0  0
   15.5127   -1.9536    5.1830 H   0  0  0  0  0  0  0  0  0  0  0  0
   15.5202   -3.4873    4.2939 H   0  0  0  0  0  0  0  0  0  0  0  0
   15.7445   -4.7299    6.4403 H   0  0  0  0  0  0  0  0  0  0  0  0
   15.7389   -3.1954    7.3286 H   0  0  0  0  0  0  0  0  0  0  0  0
   17.7697   -2.4680    6.0863 H   0  0  0  0  0  0  0  0  0  0  0  0
   17.7748   -4.0013    5.1960 H   0  0  0  0  0  0  0  0  0  0  0  0
   17.9980   -5.2456    7.3414 H   0  0  0  0  0  0  0  0  0  0  0  0
   17.9950   -3.7116    8.2307 H   0  0  0  0  0  0  0  0  0  0  0  0
   20.0256   -2.9859    6.9873 H   0  0  0  0  0  0  0  0  0  0  0  0
   20.0281   -4.5187    6.0959 H   0  0  0  0  0  0  0  0  0  0  0  0
   20.2512   -5.7647    8.2403 H   0  0  0  0  0  0  0  0  0  0  0  0
   20.2508   -4.2313    9.1307 H   0  0  0  0  0  0  0  0  0  0  0  0
   22.2809   -3.5074    7.8834 H   0  0  0  0  0  0  0  0  0  0  0  0
   22.2817   -5.0420    6.9951 H   0  0  0  0  0  0  0  0  0  0  0  0
   22.5047   -6.2837    9.1421 H   0  0  0  0  0  0  0  0  0  0  0  0
   22.5061   -4.7485   10.0292 H   0  0  0  0  0  0  0  0  0  0  0  0
   24.5361   -4.0289    8.7794 H   0  0  0  0  0  0  0  0  0  0  0  0
   24.5352   -5.5653    7.8944 H   0  0  0  0  0  0  0  0  0  0  0  0
   24.7605   -6.8033   10.0420 H   0  0  0  0  0  0  0  0  0  0  0  0
   24.7592   -5.2675   10.9281 H   0  0  0  0  0  0  0  0  0  0  0  0
   26.7894   -4.5462    9.6807 H   0  0  0  0  0  0  0  0  0  0  0  0
   26.7907   -6.0820    8.7946 H   0  0  0  0  0  0  0  0  0  0  0  0
   27.0160   -7.3213   10.9415 H   0  0  0  0  0  0  0  0  0  0  0  0
   27.0125   -5.7861   11.8287 H   0  0  0  0  0  0  0  0  0  0  0  0
   29.0428   -5.0617   10.5831 H   0  0  0  0  0  0  0  0  0  0  0  0
   29.0462   -6.5969    9.6959 H   0  0  0  0  0  0  0  0  0  0  0  0
   29.2704   -7.8372   11.8429 H   0  0  0  0  0  0  0  0  0  0  0  0
   29.2669   -6.3020   12.7301 H   0  0  0  0  0  0  0  0  0  0  0  0
   31.2972   -5.5776   11.4845 H   0  0  0  0  0  0  0  0  0  0  0  0
   31.3006   -7.1128   10.5973 H   0  0  0  0  0  0  0  0  0  0  0  0
   31.5248   -8.3531   12.7443 H   0  0  0  0  0  0  0  0  0  0  0  0
   31.5213   -6.8179   13.6315 H   0  0  0  0  0  0  0  0  0  0  0  0
   33.5516   -6.0935   12.3859 H   0  0  0  0  0  0  0  0  0  0  0  0
   33.5550   -7.6287   11.4987 H   0  0  0  0  0  0  0  0  0  0  0  0
   33.7792   -8.8689   13.6458 H   0  0  0  0  0  0  0  0  0  0  0  0
   33.7757   -7.3337   14.5329 H   0  0  0  0  0  0  0  0  0  0  0  0
   35.8058   -6.6094   13.2859 H   0  0  0  0  0  0  0  0  0  0  0  0
   35.8097   -8.1458   12.4008 H   0  0  0  0  0  0  0  0  0  0  0  0
   36.0338   -9.3830   14.5496 H   0  0  0  0  0  0  0  0  0  0  0  0
   36.0299   -7.8466   15.4347 H   0  0  0  0  0  0  0  0  0  0  0  0
   38.0602   -7.1235   14.1883 H   0  0  0  0  0  0  0  0  0  0  0  0
   38.0641   -8.6599   13.3033 H   0  0  0  0  0  0  0  0  0  0  0  0
   38.2882   -9.8972   15.4521 H   0  0  0  0  0  0  0  0  0  0  0  0
   38.2843   -8.3608   16.3371 H   0  0  0  0  0  0  0  0  0  0  0  0
   40.3144   -7.6377   15.0893 H   0  0  0  0  0  0  0  0  0  0  0  0
   40.3187   -9.1753   14.2064 H   0  0  0  0  0  0  0  0  0  0  0  0
   40.5417  -10.4092   16.3578 H   0  0  0  0  0  0  0  0  0  0  0  0
   40.5396   -8.8709   17.2397 H   0  0  0  0  0  0  0  0  0  0  0  0
   42.5701   -8.1521   15.9923 H   0  0  0  0  0  0  0  0  0  0  0  0
   42.5718   -9.6892   15.1083 H   0  0  0  0  0  0  0  0  0  0  0  0
   42.7949  -10.9248   17.2588 H   0  0  0  0  0  0  0  0  0  0  0  0
   42.7953   -9.3871   18.1416 H   0  0  0  0  0  0  0  0  0  0  0  0
   44.8253   -8.6701   16.8903 H   0  0  0  0  0  0  0  0  0  0  0  0
   44.8253  -10.2090   16.0096 H   0  0  0  0  0  0  0  0  0  0  0  0
   45.0506  -11.4410   18.1607 H   0  0  0  0  0  0  0  0  0  0  0  0
   45.0484   -9.9027   19.0425 H   0  0  0  0  0  0  0  0  0  0  0  0
   47.0787   -9.1839   17.7937 H   0  0  0  0  0  0  0  0  0  0  0  0
   47.0808  -10.7222   16.9118 H   0  0  0  0  0  0  0  0  0  0  0  0
   47.3050  -11.9551   19.0631 H   0  0  0  0  0  0  0  0  0  0  0  0
   47.3028  -10.4168   19.9449 H   0  0  0  0  0  0  0  0  0  0  0  0
   49.3331   -9.6981   18.6961 H   0  0  0  0  0  0  0  0  0  0  0  0
   49.3352  -11.2363   17.8143 H   0  0  0  0  0  0  0  0  0  0  0  0
   49.5594  -12.4692   19.9655 H   0  0  0  0  0  0  0  0  0  0  0  0
   49.5572  -10.9310   20.8474 H   0  0  0  0  0  0  0  0  0  0  0  0
   51.5875  -10.2122   19.5985 H   0  0  0  0  0  0  0  0  0  0  0  0
   51.5896  -11.7505   18.7167 H   0  0  0  0  0  0  0  0  0  0  0  0
   51.8149  -12.9837   20.8670 H   0  0  0  0  0  0  0  0  0  0  0  0
   51.8105  -11.4461   21.7500 H   0  0  0  0  0  0  0  0  0  0  0  0
   53.8410  -10.7242   20.5043 H   0  0  0  0  0  0  0  0  0  0  0  0
   53.8449  -12.2606   19.6192 H   0  0  0  0  0  0  0  0  0  0  0  0
   54.0680  -13.4975   21.7689 H   0  0  0  0  0  0  0  0  0  0  0  0
   54.0662  -11.9605   22.6529 H   0  0  0  0  0  0  0  0  0  0  0  0
   56.0965  -11.2404   21.4048 H   0  0  0  0  0  0  0  0  0  0  0  0
   56.0982  -12.7775   20.5208 H   0  0  0  0  0  0  0  0  0  0  0  0
   56.3235  -14.0137   22.6695 H   0  0  0  0  0  0  0  0  0  0  0  0
   56.3196  -12.4773   23.5545 H   0  0  0  0  0  0  0  0  0  0  0  0
   58.3496  -11.7543   22.3067 H   0  0  0  0  0  0  0  0  0  0  0  0
   58.3539  -13.2919   21.4238 H   0  0  0  0  0  0  0  0  0  0  0  0
   58.5792  -14.5264   23.5734 H   0  0  0  0  0  0  0  0  0  0  0  0
   58.5727  -12.9894   24.4574 H   0  0  0  0  0  0  0  0  0  0  0  0
   60.6027  -12.2646   23.2106 H   0  0  0  0  0  0  0  0  0  0  0  0
   60.6097  -13.8029   22.3287 H   0  0  0  0  0  0  0  0  0  0  0  0
   60.8349  -15.0356   24.4794 H   0  0  0  0  0  0  0  0  0  0  0  0
   60.8258  -13.4980   25.3623 H   0  0  0  0  0  0  0  0  0  0  0  0
   62.8558  -12.7715   24.1165 H   0  0  0  0  0  0  0  0  0  0  0  0
   62.8653  -14.3103   23.2357 H   0  0  0  0  0  0  0  0  0  0  0  0
   63.0895  -15.5410   25.3882 H   0  0  0  0  0  0  0  0  0  0  0  0
   63.0799  -14.0022   26.2690 H   0  0  0  0  0  0  0  0  0  0  0  0
   65.1099  -13.2769   25.0225 H   0  0  0  0  0  0  0  0  0  0  0  0
   65.1199  -14.8170   24.1438 H   0  0  0  0  0  0  0  0  0  0  0  0
   65.3440  -16.0446   26.2981 H   0  0  0  0  0  0  0  0  0  0  0  0
   65.3340  -14.5046   27.1768 H   0  0  0  0  0  0  0  0  0  0  0  0
   67.3643  -13.7806   25.9309 H   0  0  0  0  0  0  0  0  0  0  0  0
   67.3743  -15.3206   25.0523 H   0  0  0  0  0  0  0  0  0  0  0  0
   67.5984  -16.5483   27.2065 H   0  0  0  0  0  0  0  0  0  0  0  0
   67.5884  -15.0082   28.0852 H   0  0  0  0  0  0  0  0  0  0  0  0
   69.6186  -14.2842   26.8394 H   0  0  0  0  0  0  0  0  0  0  0  0
   69.6287  -15.8243   25.9607 H   0  0  0  0  0  0  0  0  0  0  0  0
   69.8528  -17.0519   28.1150 H   0  0  0  0  0  0  0  0  0  0  0  0
   69.8428  -15.5119   28.9936 H   0  0  0  0  0  0  0  0  0  0  0  0
   71.8730  -14.7879   27.7478 H   0  0  0  0  0  0  0  0  0  0  0  0
   71.8831  -16.3280   26.8692 H   0  0  0  0  0  0  0  0  0  0  0  0
   72.1073  -17.5556   29.0235 H   0  0  0  0  0  0  0  0  0  0  0  0
   72.0973  -16.0156   29.9021 H   0  0  0  0  0  0  0  0  0  0  0  0
   74.1279  -15.2917   28.6565 H   0  0  0  0  0  0  0  0  0  0  0  0
   74.1379  -16.8317   27.7778 H   0  0  0  0  0  0  0  0  0  0  0  0
   74.3631  -18.0594   29.9324 H   0  0  0  0  0  0  0  0  0  0  0  0
   74.3534  -16.5194   30.8109 H   0  0  0  0  0  0  0  0  0  0  0  0
   76.3844  -15.7957   29.5645 H   0  0  0  0  0  0  0  0  0  0  0  0
   76.3954  -17.3374   28.6877 H   0  0  0  0  0  0  0  0  0  0  0  0
   76.6272  -18.5652   30.8369 H   0  0  0  0  0  0  0  0  0  0  0  0
   76.6121  -17.0222   31.7235 H   0  0  0  0  0  0  0  0  0  0  0  0
   78.5684  -16.3667   30.5022 H   0  0  0  0  0  0  0  0  0  0  0  0
   78.7922  -18.9532   31.6671 H   0  0  0  0  0  0  0  0  0  0  0  0
   80.6166  -16.8265   31.3081 H   0  0  0  0  0  0  0  0  0  0  0  0
   80.8306  -19.4102   32.5060 H   0  0  0  0  0  0  0  0  0  0  0  0
   82.7534  -17.3001   32.1802 H   0  0  0  0  0  0  0  0  0  0  0  0
   83.0377  -19.9022   33.3893 H   0  0  0  0  0  0  0  0  0  0  0  0
   84.9415  -17.7882   33.0691 H   0  0  0  0  0  0  0  0  0  0  0  0
   85.1513  -20.3645   34.2169 H   0  0  0  0  0  0  0  0  0  0  0  0
   87.0259  -18.2647   33.9231 H   0  0  0  0  0  0  0  0  0  0  0  0
   87.2214  -20.8260   35.0781 H   0  0  0  0  0  0  0  0  0  0  0  0
   89.0935  -18.7210   34.7251 H   0  0  0  0  0  0  0  0  0  0  0  0
   89.0947  -20.1518   33.9192 H   0  0  0  0  0  0  0  0  0  0  0  0
  1  2  2  0  0  0  0
  1 81  1  0  0  0  0
  1 82  1  0  0  0  0
  2  3  1  0  0  0  0
  2 83  1  0  0  0  0
  3  4  1  0  0  0  0
  3 84  1  0  0  0  0
  3 85  1  0  0  0  0
  4  5  1  0  0  0  0
  4 86  1  0  0  0  0
  5  6  1  0  0  0  0
  5 87  1  0  0  0  0
  6  7  1  0  0  0  0
  6 88  1  0  0  0  0
  7  8  1  0  0  0  0
  7 89  1  0  0  0  0
  8  9  1  0  0  0  0
  8 90  1  0  0  0  0
  9 10  1  0  0  0  0
  9 91  1  0  0  0  0
 10 11  1  0  0  0  0
 10 92  1  0  0  0  0
 11 12  1  0  0  0  0
 11 93  1  0  0  0  0
 12 13  1  0  0  0  0
 12 94  1  0  0  0  0
 12 95  1  0  0  0  0
 13 14  1  0  0  0  0
 13 96  1  0  0  0  0
 13 97  1  0  0  0  0
 14 15  1  0  0  0  0
 14 98  1  0  0  0  0
 14 99  1  0  0  0  0
 15 16  1  0  0  0  0
 15100  1  0  0  0  0
 15101  1  0  0  0  0
 16 17  1  0  0  0  0
 16102  1  0  0  0  0
 16103  1  0  0  0  0
 17 18  1  0  0  0  0
 17104  1  0  0  0  0
 17105  1  0  0  0  0
 18 19  1  0  0  0  0
 18106  1  0  0  0  0
 18107  1  0  0  0  0
 19 20  1  0  0  0  0
 19108  1  0  0  0  0
 19109  1  0  0  0  0
 20 21  1  0  0  0  0
 20110  1  0  0  0  0
 20111  1  0  0  0  0
 21 22  1  0  0  0  0
 21112  1  0  0  0  0
 21113  1  0  0  0  0
 22 23  1  0  0  0  0
 22114  1  0  0  0  0
 22115  1  0  0  0  0
 23 24  1  0  0  0  0
 23116  1  0  0  0  0
 23117  1  0  0  0  0
 24 25  1  0  0  0  0
 24118  1  0  0  0  0
 24119  1  0  0  0  0
 25 26  1  0  0  0  0
 25120  1  0  0  0  0
 25121  1  0  0  0  0
 26 27  1  0  0  0  0
 26122  1  0  0  0  0
 26123  1  0  0  0  0
 27 28  1  0  0  0  0
 27124  1  0  0  0  0
 27125  1  0  0  0  0
 28 29  1  0  0  0  0
 28126  1  0  0  0  0
 28127  1  0  0  0  0
 29 30  1  0  0  0  0
 29128  1  0  0  0  0
 29129  1  0  0  0  0
 30 31  1  0  0  0  0
 30130  1  0  0  0  0
 30131  1  0  0  0  0
 31 32  1  0  0  0  0
 31132  1  0  0  0  0
 31133  1  0  0  0  0
 32 33  1  0  0  0  0
 32134  1  0  0  0  0
 32135  1  0  0  0  0
 33 34  1  0  0  0  0
 33136  1  0  0  0  0
 33137  1  0  0  0  0
 34 35  1  0  0  0  0
 34138  1  0  0  0  0
 34139  1  0  0  0  0
 35 36  1  0  0  0  0
 35140  1  0  0  0  0
 35141  1  0  0  0  0
 36 37  1  0  0  0  0
 36142  1  0  0  0  0
 36143  1  0  0  0  0
 37 38  1  0  0  0  0
 37144  1  0  0  0  0
 37145  1  0  0  0  0
 38 39  1  0  0  0  0
 38146  1  0  0  0  0
 38147  1  0  0  0  0
 39 40  1  0  0  0  0
 39148  1  0  0  0  0
 39149  1  0  0  0  0
 40 41  1  0  0  0  0
 40150  1  0  0  0  0
 40151  1  0  0  0  0
 41 42  1  0  0  0  0
 41152  1  0  0  0  0
 41153  1  0  0  0  0
 42 43  1  0  0  0  0
 42154  1  0  0  0  0
 42155  1  0  0  0  0
 43 44  1  0  0  0  0
 43156  1  0  0  0  0
 43157  1  0  0  0  0
 44 45  1  0  0  0  0
 44158  1  0  0  0  0
 44159  1  0  0  0  0
 45 46  1  0  0  0  0
 45160  1  0  0  0  0
 45161  1  0  0  0  0
 46 47  1  0  0  0  0
 46162  1  0  0  0  0
 46163  1  0  0  0  0
 47 48  1  0  0  0  0
 47164  1  0  0  0  0
 47165  1  0  0  0  0
 48 49  1  0  0  0  0
 48166  1  0  0  0  0
 48167  1  0  0  0  0
 49 50  1  0  0  0  0
 49168  1  0  0  0  0
 49169  1  0  0  0  0
 50 51  1  0  0  0  0
 50170  1  0  0  0  0
 50171  1  0  0  0  0
 51 52  1  0  0  0  0
 51172  1  0  0  0  0
 51173  1  0  0  0  0
 52 53  1  0  0  0  0
 52174  1  0  0  0  0
 52175  1  0  0  0  0
 53 54  1  0  0  0  0
 53176  1  0  0  0  0
 53177  1  0  0  0  0
 54 55  1  0  0  0  0
 54178  1  0  0  0  0
 54179  1  0  0  0  0
 55 56  1  0  0  0  0
 55180  1  0  0  0  0
 55181  1  0  0  0  0
 56 57  1  0  0  0  0
 56182  1  0  0  0  0
 56183  1  0  0  0  0
 57 58  1  0  0  0  0
 57184  1  0  0  0  0
 57185  1  0  0  0  0
 58 59  1  0  0  0  0
 58186  1  0  0  0  0
 58187  1  0  0  0  0
 59 60  1  0  0  0  0
 59188  1  0  0  0  0
 59189  1  0  0  0  0
 60 61  1  0  0  0  0
 60190  1  0  0  0  0
 60191  1  0  0  0  0
 61 62  1  0  0  0  0
 61192  1  0  0  0  0
 61193  1  0  0  0  0
 62 63  1  0  0  0  0
 62194  1  0  0  0  0
 62195  1  0  0  0  0
 63 64  1  0  0  0  0
 63196  1  0  0  0  0
 63197  1  0  0  0  0
 64 65  1  0  0  0  0
 64198  1  0  0  0  0
 64199  1  0  0  0  0
 65 66  1  0  0  0  0
 65200  1  0  0  0  0
 65201  1  0  0  0  0
 66 67  1  0  0  0  0
 66202  1  0  0  0  0
 66203  1  0  0  0  0
 67 68  1  0  0  0  0
 67204  1  0  0  0  0
 67205  1  0  0  0  0
 68 69  1  0  0  0  0
 68206  1  0  0  0  0
 68207  1  0  0  0  0
 69 70  1  0  0  0  0
 69208  1  0  0  0  0
 69209  1  0  0  0  0
 70 71  1  0  0  0  0
 70210  1  0  0  0  0
 71 72  1  0  0  0  0
 71211  1  0  0  0  0
 72 73  1  0  0  0  0
 72212  1  0  0  0  0
 73 74  1  0  0  0  0
 73213  1  0  0  0  0
 74 75  1  0  0  0  0
 74214  1  0  0  0  0
 75 76  1  0  0  0  0
 75215  1  0  0  0  0
 76 77  1  0  0  0  0
 76216  1  0  0  0  0
 77 78  1  0  0  0  0
 77217  1  0  0  0  0
 78 79  1  0  0  0  0
 78218  1  0  0  0  0
 79 80  1  0  0  0  0
 79219  1  0  0  0  0
 80220  1  0  0  0  0
 80221  1  0  0  0  0
M  END
$$$$
