
 OpenBabel04232216553D

176175  0  0  0  0  0  0  0  0999 V2000
   24.0164  -13.1845   23.9639 C   0  0  0  0  0  0  0  0  0  0  0  0
   23.5506  -13.5572   22.5754 C   0  0  0  0  0  0  0  0  0  0  0  0
   23.8815  -15.0104   22.2803 C   0  0  0  0  0  0  0  0  0  0  0  0
   23.4137  -15.3941   20.8856 C   0  0  0  0  0  0  0  0  0  0  0  0
   23.7501  -16.7861   20.6353 N   0  0  0  0  0  0  0  0  0  0  0  0
   23.2901  -17.1136   19.3486 N   0  0  0  0  0  0  0  0  0  0  0  0
   23.5814  -18.4718   19.0785 N   0  0  0  0  0  0  0  0  0  0  0  0
   23.1446  -18.8212   17.7715 N   0  0  0  0  0  0  0  0  0  0  0  0
   23.8116  -18.0076   16.7953 N   0  0  0  0  0  0  0  0  0  0  0  0
   25.2382  -18.1800   16.8655 N   0  0  0  0  0  0  0  0  0  0  0  0
   25.5577  -19.5586   16.6305 N   0  0  0  0  0  0  0  0  0  0  0  0
   25.1170  -19.9252   15.3240 N   0  0  0  0  0  0  0  0  0  0  0  0
   25.7211  -19.0840   14.3501 N   0  0  0  0  0  0  0  0  0  0  0  0
   27.1494  -19.2407   14.4172 N   0  0  0  0  0  0  0  0  0  0  0  0
   27.4950  -20.6093   14.1946 N   0  0  0  0  0  0  0  0  0  0  0  0
   27.0463  -21.0124   12.8917 N   0  0  0  0  0  0  0  0  0  0  0  0
   27.6528  -20.1788   11.9056 N   0  0  0  0  0  0  0  0  0  0  0  0
   29.0690  -20.3002   11.9849 N   0  0  0  0  0  0  0  0  0  0  0  0
   29.4386  -21.6711   11.7712 N   0  0  0  0  0  0  0  0  0  0  0  0
   28.9924  -22.0928   10.4759 N   0  0  0  0  0  0  0  0  0  0  0  0
   29.5706  -21.2615    9.4536 N   0  0  0  0  0  0  0  0  0  0  0  0
   30.9916  -21.3725    9.5178 N   0  0  0  0  0  0  0  0  0  0  0  0
   31.3874  -22.7340    9.3363 N   0  0  0  0  0  0  0  0  0  0  0  0
   30.9435  -23.1791    8.0404 N   0  0  0  0  0  0  0  0  0  0  0  0
   31.5008  -22.3529    7.0024 N   0  0  0  0  0  0  0  0  0  0  0  0
   32.9199  -22.4253    7.0606 N   0  0  0  0  0  0  0  0  0  0  0  0
   33.3148  -23.7874    6.8927 N   0  0  0  0  0  0  0  0  0  0  0  0
   32.8466  -24.2526    5.6172 N   0  0  0  0  0  0  0  0  0  0  0  0
   33.3869  -23.4286    4.5863 N   0  0  0  0  0  0  0  0  0  0  0  0
   34.8238  -23.4932    4.6019 N   0  0  0  0  0  0  0  0  0  0  0  0
   35.2421  -24.8440    4.4259 N   0  0  0  0  0  0  0  0  0  0  0  0
   34.7626  -25.3411    3.1768 N   0  0  0  0  0  0  0  0  0  0  0  0
   35.2948  -24.5353    2.1228 N   0  0  0  0  0  0  0  0  0  0  0  0
   36.7311  -24.5589    2.1513 N   0  0  0  0  0  0  0  0  0  0  0  0
   37.1615  -25.9056    1.9821 N   0  0  0  0  0  0  0  0  0  0  0  0
   36.6859  -26.4293    0.7357 N   0  0  0  0  0  0  0  0  0  0  0  0
   37.1861  -25.6186   -0.3260 N   0  0  0  0  0  0  0  0  0  0  0  0
   38.6249  -25.6356   -0.3268 N   0  0  0  0  0  0  0  0  0  0  0  0
   39.0676  -26.9835   -0.4589 N   0  0  0  0  0  0  0  0  0  0  0  0
   38.5865  -27.5247   -1.7004 N   0  0  0  0  0  0  0  0  0  0  0  0
   39.0837  -26.7326   -2.7846 N   0  0  0  0  0  0  0  0  0  0  0  0
   40.5187  -26.7189   -2.7790 N   0  0  0  0  0  0  0  0  0  0  0  0
   40.9961  -28.0631   -2.9209 N   0  0  0  0  0  0  0  0  0  0  0  0
   40.5165  -28.6209   -4.1494 N   0  0  0  0  0  0  0  0  0  0  0  0
   40.9796  -27.8262   -5.2507 N   0  0  0  0  0  0  0  0  0  0  0  0
   42.3909  -27.7912   -5.2190 N   0  0  0  0  0  0  0  0  0  0  0  0
   42.8946  -29.1420   -5.3660 N   0  0  0  0  0  0  0  0  0  0  0  0
   42.4139  -29.7117   -6.5845 N   0  0  0  0  0  0  0  0  0  0  0  0
   42.8505  -28.9294   -7.7006 N   0  0  0  0  0  0  0  0  0  0  0  0
   44.2806  -28.8987   -7.7209 N   0  0  0  0  0  0  0  0  0  0  0  0
   44.8007  -30.2278   -7.8410 N   0  0  0  0  0  0  0  0  0  0  0  0
   44.3238  -30.8355   -9.0410 N   0  0  0  0  0  0  0  0  0  0  0  0
   44.7357  -30.0460  -10.1344 N   0  0  0  0  0  0  0  0  0  0  0  0
   46.1635  -29.9801  -10.1366 N   0  0  0  0  0  0  0  0  0  0  0  0
   46.7194  -31.3059  -10.2698 N   0  0  0  0  0  0  0  0  0  0  0  0
   46.2334  -31.9066  -11.4388 N   0  0  0  0  0  0  0  0  0  0  0  0
   46.6512  -31.1463  -12.5808 N   0  0  0  0  0  0  0  0  0  0  0  0
   48.0791  -31.0550  -12.6177 N   0  0  0  0  0  0  0  0  0  0  0  0
   48.6181  -32.3562  -12.6833 N   0  0  0  0  0  0  0  0  0  0  0  0
   48.1559  -32.9894  -13.8962 N   0  0  0  0  0  0  0  0  0  0  0  0
   48.5466  -32.2242  -15.0508 N   0  0  0  0  0  0  0  0  0  0  0  0
   49.9411  -32.1165  -15.0928 N   0  0  0  0  0  0  0  0  0  0  0  0
   50.5257  -33.4133  -15.1997 N   0  0  0  0  0  0  0  0  0  0  0  0
   50.0528  -34.0788  -16.3655 N   0  0  0  0  0  0  0  0  0  0  0  0
   50.4218  -33.3228  -17.4986 N   0  0  0  0  0  0  0  0  0  0  0  0
   51.8357  -33.2024  -17.5645 N   0  0  0  0  0  0  0  0  0  0  0  0
   52.4498  -34.5191  -17.6288 N   0  0  0  0  0  0  0  0  0  0  0  0
   51.9510  -35.1771  -18.8300 C   0  0  0  0  0  0  0  0  0  0  0  0
   52.3236  -34.4075  -20.0250 N   0  0  0  0  0  0  0  0  0  0  0  0
   53.7679  -34.2564  -20.1043 C   0  0  0  0  0  0  0  0  0  0  0  0
   54.1246  -33.4856  -21.2957 N   0  0  0  0  0  0  0  0  0  0  0  0
   55.5713  -33.3536  -21.3682 C   0  0  0  0  0  0  0  0  0  0  0  0
   55.9521  -32.5749  -22.5600 N   0  0  0  0  0  0  0  0  0  0  0  0
   57.4138  -32.4345  -22.6584 C   0  0  0  0  0  0  0  0  0  0  0  0
   57.7770  -31.6687  -23.8481 N   0  0  0  0  0  0  0  0  0  0  0  0
   59.2250  -31.5260  -23.9286 C   0  0  0  0  0  0  0  0  0  0  0  0
   59.5976  -30.7542  -25.1224 N   0  0  0  0  0  0  0  0  0  0  0  0
   61.0406  -30.6124  -25.2000 C   0  0  0  0  0  0  0  0  0  0  0  0
   61.3958  -29.8365  -26.3834 N   0  0  0  0  0  0  0  0  0  0  0  0
   62.8513  -29.7078  -26.4662 C   0  0  0  0  0  0  0  0  0  0  0  0
   63.2297  -28.9055  -27.6945 C   0  0  0  0  0  0  0  0  0  0  0  0
   23.7782  -12.1400   24.1756 H   0  0  0  0  0  0  0  0  0  0  0  0
   25.0978  -13.3222   24.0487 H   0  0  0  0  0  0  0  0  0  0  0  0
   23.5237  -13.8150   24.7091 H   0  0  0  0  0  0  0  0  0  0  0  0
   24.0411  -12.9100   21.8422 H   0  0  0  0  0  0  0  0  0  0  0  0
   22.4701  -13.4018   22.5013 H   0  0  0  0  0  0  0  0  0  0  0  0
   23.3936  -15.6480   23.0258 H   0  0  0  0  0  0  0  0  0  0  0  0
   24.9643  -15.1563   22.3644 H   0  0  0  0  0  0  0  0  0  0  0  0
   23.9092  -14.7400   20.1590 H   0  0  0  0  0  0  0  0  0  0  0  0
   22.3323  -15.2314   20.8188 H   0  0  0  0  0  0  0  0  0  0  0  0
   23.2725  -17.3851   21.3006 H   0  0  0  0  0  0  0  0  0  0  0  0
   23.7631  -16.5015   18.6805 H   0  0  0  0  0  0  0  0  0  0  0  0
   23.1354  -19.0926   19.7413 H   0  0  0  0  0  0  0  0  0  0  0  0
   22.1262  -18.7134   17.7040 H   0  0  0  0  0  0  0  0  0  0  0  0
   23.5618  -17.0237   16.9348 H   0  0  0  0  0  0  0  0  0  0  0  0
   25.5879  -17.9405   17.7958 H   0  0  0  0  0  0  0  0  0  0  0  0
   25.1039  -20.1532   17.3393 H   0  0  0  0  0  0  0  0  0  0  0  0
   24.1097  -19.8146   15.2340 H   0  0  0  0  0  0  0  0  0  0  0  0
   25.4722  -18.1075   14.5273 H   0  0  0  0  0  0  0  0  0  0  0  0
   27.4799  -18.9877   15.3432 H   0  0  0  0  0  0  0  0  0  0  0  0
   27.0472  -21.1936   14.9134 H   0  0  0  0  0  0  0  0  0  0  0  0
   26.0352  -20.9040   12.8277 H   0  0  0  0  0  0  0  0  0  0  0  0
   27.3835  -19.2022   12.0746 H   0  0  0  0  0  0  0  0  0  0  0  0
   29.3967  -20.0393   12.9082 H   0  0  0  0  0  0  0  0  0  0  0  0
   28.9986  -22.2479   12.4996 H   0  0  0  0  0  0  0  0  0  0  0  0
   27.9794  -21.9947   10.4170 H   0  0  0  0  0  0  0  0  0  0  0  0
   29.2776  -20.2880    9.6289 H   0  0  0  0  0  0  0  0  0  0  0  0
   31.3186  -21.0782   10.4342 H   0  0  0  0  0  0  0  0  0  0  0  0
   30.9544  -23.3020   10.0779 H   0  0  0  0  0  0  0  0  0  0  0  0
   29.9248  -23.0977    7.9998 H   0  0  0  0  0  0  0  0  0  0  0  0
   31.1822  -21.3831    7.1785 H   0  0  0  0  0  0  0  0  0  0  0  0
   33.2427  -22.1150    7.9711 H   0  0  0  0  0  0  0  0  0  0  0  0
   32.8938  -24.3497    7.6371 H   0  0  0  0  0  0  0  0  0  0  0  0
   31.8323  -24.1771    5.5757 H   0  0  0  0  0  0  0  0  0  0  0  0
   33.0753  -22.4577    4.7174 H   0  0  0  0  0  0  0  0  0  0  0  0
   35.1706  -23.1723    5.5026 H   0  0  0  0  0  0  0  0  0  0  0  0
   34.8555  -25.4250    5.1663 H   0  0  0  0  0  0  0  0  0  0  0  0
   33.7364  -25.2924    3.1786 H   0  0  0  0  0  0  0  0  0  0  0  0
   35.0063  -23.5696    2.2472 H   0  0  0  0  0  0  0  0  0  0  0  0
   37.0330  -24.1970    3.0701 H   0  0  0  0  0  0  0  0  0  0  0  0
   36.7865  -26.4887    2.7247 H   0  0  0  0  0  0  0  0  0  0  0  0
   35.6665  -26.3804    0.7258 H   0  0  0  0  0  0  0  0  0  0  0  0
   36.8422  -24.6604   -0.1985 H   0  0  0  0  0  0  0  0  0  0  0  0
   38.9546  -25.2899    0.5721 H   0  0  0  0  0  0  0  0  0  0  0  0
   38.7003  -27.5331    0.3311 H   0  0  0  0  0  0  0  0  0  0  0  0
   37.5590  -27.4987   -1.6969 H   0  0  0  0  0  0  0  0  0  0  0  0
   38.7776  -25.7692   -2.6907 H   0  0  0  0  0  0  0  0  0  0  0  0
   40.8318  -26.3226   -1.8833 H   0  0  0  0  0  0  0  0  0  0  0  0
   40.6485  -28.6281   -2.1387 H   0  0  0  0  0  0  0  0  0  0  0  0
   39.4949  -28.6047   -4.1648 H   0  0  0  0  0  0  0  0  0  0  0  0
   40.6022  -26.8715   -5.1203 H   0  0  0  0  0  0  0  0  0  0  0  0
   42.7168  -27.4026   -4.3330 H   0  0  0  0  0  0  0  0  0  0  0  0
   42.5313  -29.7023   -4.5959 H   0  0  0  0  0  0  0  0  0  0  0  0
   41.3969  -29.7162   -6.5781 H   0  0  0  0  0  0  0  0  0  0  0  0
   42.4723  -27.9803   -7.5911 H   0  0  0  0  0  0  0  0  0  0  0  0
   44.6253  -28.4841   -6.8522 H   0  0  0  0  0  0  0  0  0  0  0  0
   44.4728  -30.7930   -7.0599 H   0  0  0  0  0  0  0  0  0  0  0  0
   43.3101  -30.8466   -9.0163 H   0  0  0  0  0  0  0  0  0  0  0  0
   44.3531  -29.1032  -10.0171 H   0  0  0  0  0  0  0  0  0  0  0  0
   46.4850  -29.5542   -9.2580 H   0  0  0  0  0  0  0  0  0  0  0  0
   46.4017  -31.8641   -9.4756 H   0  0  0  0  0  0  0  0  0  0  0  0
   45.2240  -31.9553  -11.4427 H   0  0  0  0  0  0  0  0  0  0  0  0
   46.2747  -30.2099  -12.4977 H   0  0  0  0  0  0  0  0  0  0  0  0
   48.3837  -30.6068  -11.7454 H   0  0  0  0  0  0  0  0  0  0  0  0
   48.3293  -32.9103  -11.8738 H   0  0  0  0  0  0  0  0  0  0  0  0
   47.1407  -33.0443  -13.8786 H   0  0  0  0  0  0  0  0  0  0  0  0
   48.1617  -31.2811  -14.9813 H   0  0  0  0  0  0  0  0  0  0  0  0
   50.3007  -31.6697  -14.2583 H   0  0  0  0  0  0  0  0  0  0  0  0
   50.2423  -33.9642  -14.3978 H   0  0  0  0  0  0  0  0  0  0  0  0
   49.0398  -34.1191  -16.3218 H   0  0  0  0  0  0  0  0  0  0  0  0
   50.0174  -32.3929  -17.4215 H   0  0  0  0  0  0  0  0  0  0  0  0
   52.1568  -32.7398  -16.7155 H   0  0  0  0  0  0  0  0  0  0  0  0
   52.1397  -35.0397  -16.8120 H   0  0  0  0  0  0  0  0  0  0  0  0
   50.8609  -35.3073  -18.8031 H   0  0  0  0  0  0  0  0  0  0  0  0
   52.3821  -36.1819  -18.8982 H   0  0  0  0  0  0  0  0  0  0  0  0
   51.8878  -33.4899  -19.9529 H   0  0  0  0  0  0  0  0  0  0  0  0
   54.2311  -35.2520  -20.1627 H   0  0  0  0  0  0  0  0  0  0  0  0
   54.1544  -33.7534  -19.2148 H   0  0  0  0  0  0  0  0  0  0  0  0
   53.6971  -32.5714  -21.2268 H   0  0  0  0  0  0  0  0  0  0  0  0
   56.0449  -34.3428  -21.4325 H   0  0  0  0  0  0  0  0  0  0  0  0
   55.9622  -32.8432  -20.4816 H   0  0  0  0  0  0  0  0  0  0  0  0
   55.4947  -31.6716  -22.4961 H   0  0  0  0  0  0  0  0  0  0  0  0
   57.8715  -33.4285  -22.7065 H   0  0  0  0  0  0  0  0  0  0  0  0
   57.7791  -31.9281  -21.7571 H   0  0  0  0  0  0  0  0  0  0  0  0
   57.3321  -30.7572  -23.7689 H   0  0  0  0  0  0  0  0  0  0  0  0
   59.6842  -32.5182  -23.9866 H   0  0  0  0  0  0  0  0  0  0  0  0
   59.6020  -31.0212  -23.0317 H   0  0  0  0  0  0  0  0  0  0  0  0
   59.1948  -29.8212  -25.0750 H   0  0  0  0  0  0  0  0  0  0  0  0
   61.5020  -31.6045  -25.2584 H   0  0  0  0  0  0  0  0  0  0  0  0
   61.4185  -30.1064  -24.3055 H   0  0  0  0  0  0  0  0  0  0  0  0
   61.0016  -28.8966  -26.3516 H   0  0  0  0  0  0  0  0  0  0  0  0
   63.3252  -30.6921  -26.5313 H   0  0  0  0  0  0  0  0  0  0  0  0
   63.2389  -29.1946  -25.5799 H   0  0  0  0  0  0  0  0  0  0  0  0
   62.8763  -29.4050  -28.6008 H   0  0  0  0  0  0  0  0  0  0  0  0
   64.3176  -28.7973  -27.7638 H   0  0  0  0  0  0  0  0  0  0  0  0
   62.7887  -27.9057  -27.6497 H   0  0  0  0  0  0  0  0  0  0  0  0
  1  2  1  0  0  0  0
  1 82  1  0  0  0  0
  1 83  1  0  0  0  0
  1 84  1  0  0  0  0
  2  3  1  0  0  0  0
  2 85  1  0  0  0  0
  2 86  1  0  0  0  0
  3  4  1  0  0  0  0
  3 87  1  0  0  0  0
  3 88  1  0  0  0  0
  4  5  1  0  0  0  0
  4 89  1  0  0  0  0
  4 90  1  0  0  0  0
  5  6  1  0  0  0  0
  5 91  1  0  0  0  0
  6  7  1  0  0  0  0
  6 92  1  0  0  0  0
  7  8  1  0  0  0  0
  7 93  1  0  0  0  0
  8  9  1  0  0  0  0
  8 94  1  0  0  0  0
  9 10  1  0  0  0  0
  9 95  1  0  0  0  0
 10 11  1  0  0  0  0
 10 96  1  0  0  0  0
 11 12  1  0  0  0  0
 11 97  1  0  0  0  0
 12 13  1  0  0  0  0
 12 98  1  0  0  0  0
 13 14  1  0  0  0  0
 13 99  1  0  0  0  0
 14 15  1  0  0  0  0
 14100  1  0  0  0  0
 15 16  1  0  0  0  0
 15101  1  0  0  0  0
 16 17  1  0  0  0  0
 16102  1  0  0  0  0
 17 18  1  0  0  0  0
 17103  1  0  0  0  0
 18 19  1  0  0  0  0
 18104  1  0  0  0  0
 19 20  1  0  0  0  0
 19105  1  0  0  0  0
 20 21  1  0  0  0  0
 20106  1  0  0  0  0
 21 22  1  0  0  0  0
 21107  1  0  0  0  0
 22 23  1  0  0  0  0
 22108  1  0  0  0  0
 23 24  1  0  0  0  0
 23109  1  0  0  0  0
 24 25  1  0  0  0  0
 24110  1  0  0  0  0
 25 26  1  0  0  0  0
 25111  1  0  0  0  0
 26 27  1  0  0  0  0
 26112  1  0  0  0  0
 27 28  1  0  0  0  0
 27113  1  0  0  0  0
 28 29  1  0  0  0  0
 28114  1  0  0  0  0
 29 30  1  0  0  0  0
 29115  1  0  0  0  0
 30 31  1  0  0  0  0
 30116  1  0  0  0  0
 31 32  1  0  0  0  0
 31117  1  0  0  0  0
 32 33  1  0  0  0  0
 32118  1  0  0  0  0
 33 34  1  0  0  0  0
 33119  1  0  0  0  0
 34 35  1  0  0  0  0
 34120  1  0  0  0  0
 35 36  1  0  0  0  0
 35121  1  0  0  0  0
 36 37  1  0  0  0  0
 36122  1  0  0  0  0
 37 38  1  0  0  0  0
 37123  1  0  0  0  0
 38 39  1  0  0  0  0
 38124  1  0  0  0  0
 39 40  1  0  0  0  0
 39125  1  0  0  0  0
 40 41  1  0  0  0  0
 40126  1  0  0  0  0
 41 42  1  0  0  0  0
 41127  1  0  0  0  0
 42 43  1  0  0  0  0
 42128  1  0  0  0  0
 43 44  1  0  0  0  0
 43129  1  0  0  0  0
 44 45  1  0  0  0  0
 44130  1  0  0  0  0
 45 46  1  0  0  0  0
 45131  1  0  0  0  0
 46 47  1  0  0  0  0
 46132  1  0  0  0  0
 47 48  1  0  0  0  0
 47133  1  0  0  0  0
 48 49  1  0  0  0  0
 48134  1  0  0  0  0
 49 50  1  0  0  0  0
 49135  1  0  0  0  0
 50 51  1  0  0  0  0
 50136  1  0  0  0  0
 51 52  1  0  0  0  0
 51137  1  0  0  0  0
 52 53  1  0  0  0  0
 52138  1  0  0  0  0
 53 54  1  0  0  0  0
 53139  1  0  0  0  0
 54 55  1  0  0  0  0
 54140  1  0  0  0  0
 55 56  1  0  0  0  0
 55141  1  0  0  0  0
 56 57  1  0  0  0  0
 56142  1  0  0  0  0
 57 58  1  0  0  0  0
 57143  1  0  0  0  0
 58 59  1  0  0  0  0
 58144  1  0  0  0  0
 59 60  1  0  0  0  0
 59145  1  0  0  0  0
 60 61  1  0  0  0  0
 60146  1  0  0  0  0
 61 62  1  0  0  0  0
 61147  1  0  0  0  0
 62 63  1  0  0  0  0
 62148  1  0  0  0  0
 63 64  1  0  0  0  0
 63149  1  0  0  0  0
 64 65  1  0  0  0  0
 64150  1  0  0  0  0
 65 66  1  0  0  0  0
 65151  1  0  0  0  0
 66 67  1  0  0  0  0
 66152  1  0  0  0  0
 67 68  1  0  0  0  0
 67153  1  0  0  0  0
 68 69  1  0  0  0  0
 68154  1  0  0  0  0
 68155  1  0  0  0  0
 69 70  1  0  0  0  0
 69156  1  0  0  0  0
 70 71  1  0  0  0  0
 70157  1  0  0  0  0
 70158  1  0  0  0  0
 71 72  1  0  0  0  0
 71159  1  0  0  0  0
 72 73  1  0  0  0  0
 72160  1  0  0  0  0
 72161  1  0  0  0  0
 73 74  1  0  0  0  0
 73162  1  0  0  0  0
 74 75  1  0  0  0  0
 74163  1  0  0  0  0
 74164  1  0  0  0  0
 75 76  1  0  0  0  0
 75165  1  0  0  0  0
 76 77  1  0  0  0  0
 76166  1  0  0  0  0
 76167  1  0  0  0  0
 77 78  1  0  0  0  0
 77168  1  0  0  0  0
 78 79  1  0  0  0  0
 78169  1  0  0  0  0
 78170  1  0  0  0  0
 79 80  1  0  0  0  0
 79171  1  0  0  0  0
 80 81  1  0  0  0  0
 80172  1  0  0  0  0
 80173  1  0  0  0  0
 81174  1  0  0  0  0
 81175  1  0  0  0  0
 81176  1  0  0  0  0
M  END
$$$$
