
 OpenBabel04232216423D

 46 45  0  0  0  0  0  0  0  0999 V2000
    0.9811   -0.7242    0.0408 C   0  0  0  0  0  0  0  0  0  0  0  0
    2.3165   -0.6915   -0.0605 C   0  0  0  0  0  0  0  0  0  0  0  0
    3.0151   -0.3587   -1.1829 N   0  0  0  0  0  0  0  0  0  0  0  0
    4.4102   -0.3337   -1.1509 N   0  0  0  0  0  0  0  0  0  0  0  0
    4.9054   -0.6577   -2.4949 C   0  0  0  0  0  0  0  0  0  0  0  0
    6.4323   -0.6620   -2.5053 C   0  0  0  0  0  0  0  0  0  0  0  0
    6.9547   -0.9925   -3.9013 C   0  0  0  0  0  0  0  0  0  0  0  0
    8.4774   -0.9996   -3.9198 C   0  0  0  0  0  0  0  0  0  0  0  0
    8.9939   -1.3280   -5.3136 C   0  0  0  0  0  0  0  0  0  0  0  0
   10.5150   -1.3312   -5.3266 C   0  0  0  0  0  0  0  0  0  0  0  0
   11.0307   -1.6595   -6.7192 C   0  0  0  0  0  0  0  0  0  0  0  0
   12.5519   -1.6637   -6.7314 C   0  0  0  0  0  0  0  0  0  0  0  0
   13.0709   -1.9912   -8.1241 C   0  0  0  0  0  0  0  0  0  0  0  0
   14.5930   -1.9953   -8.1347 C   0  0  0  0  0  0  0  0  0  0  0  0
   15.1217   -2.3220   -9.5255 C   0  0  0  0  0  0  0  0  0  0  0  0
   16.6390   -2.3241   -9.5333 C   0  0  0  0  0  0  0  0  0  0  0  0
    0.5041   -1.0386    0.9607 H   0  0  0  0  0  0  0  0  0  0  0  0
    0.3484   -0.4700   -0.8003 H   0  0  0  0  0  0  0  0  0  0  0  0
    2.9260   -0.9714    0.7934 H   0  0  0  0  0  0  0  0  0  0  0  0
    2.5176    0.2278   -1.8579 H   0  0  0  0  0  0  0  0  0  0  0  0
    4.7540   -1.0541   -0.5092 H   0  0  0  0  0  0  0  0  0  0  0  0
    4.5420    0.0853   -3.2153 H   0  0  0  0  0  0  0  0  0  0  0  0
    4.5399   -1.6437   -2.8121 H   0  0  0  0  0  0  0  0  0  0  0  0
    6.8138   -1.4014   -1.7897 H   0  0  0  0  0  0  0  0  0  0  0  0
    6.8144    0.3184   -2.1941 H   0  0  0  0  0  0  0  0  0  0  0  0
    6.5807   -0.2558   -4.6230 H   0  0  0  0  0  0  0  0  0  0  0  0
    6.5783   -1.9735   -4.2168 H   0  0  0  0  0  0  0  0  0  0  0  0
    8.8548   -1.7388   -3.2026 H   0  0  0  0  0  0  0  0  0  0  0  0
    8.8579   -0.0197   -3.6062 H   0  0  0  0  0  0  0  0  0  0  0  0
    8.6184   -0.5905   -6.0337 H   0  0  0  0  0  0  0  0  0  0  0  0
    8.6181   -2.3093   -5.6290 H   0  0  0  0  0  0  0  0  0  0  0  0
   10.8920   -2.0681   -4.6071 H   0  0  0  0  0  0  0  0  0  0  0  0
   10.8916   -0.3501   -5.0127 H   0  0  0  0  0  0  0  0  0  0  0  0
   10.6540   -0.9217   -7.4384 H   0  0  0  0  0  0  0  0  0  0  0  0
   10.6542   -2.6406   -7.0336 H   0  0  0  0  0  0  0  0  0  0  0  0
   12.9269   -2.4015   -6.0113 H   0  0  0  0  0  0  0  0  0  0  0  0
   12.9284   -0.6828   -6.4159 H   0  0  0  0  0  0  0  0  0  0  0  0
   12.6956   -1.2512   -8.8417 H   0  0  0  0  0  0  0  0  0  0  0  0
   12.6927   -2.9712   -8.4395 H   0  0  0  0  0  0  0  0  0  0  0  0
   14.9642   -2.7324   -7.4125 H   0  0  0  0  0  0  0  0  0  0  0  0
   14.9668   -1.0148   -7.8162 H   0  0  0  0  0  0  0  0  0  0  0  0
   14.7520   -1.5843  -10.2483 H   0  0  0  0  0  0  0  0  0  0  0  0
   14.7514   -3.3037   -9.8444 H   0  0  0  0  0  0  0  0  0  0  0  0
   17.0295   -1.3447   -9.2407 H   0  0  0  0  0  0  0  0  0  0  0  0
   17.0134   -2.5594  -10.5333 H   0  0  0  0  0  0  0  0  0  0  0  0
   17.0288   -3.0709   -8.8349 H   0  0  0  0  0  0  0  0  0  0  0  0
  1  2  2  0  0  0  0
  1 17  1  0  0  0  0
  1 18  1  0  0  0  0
  2  3  1  0  0  0  0
  2 19  1  0  0  0  0
  3  4  1  0  0  0  0
  3 20  1  0  0  0  0
  4  5  1  0  0  0  0
  4 21  1  0  0  0  0
  5  6  1  0  0  0  0
  5 22  1  0  0  0  0
  5 23  1  0  0  0  0
  6  7  1  0  0  0  0
  6 24  1  0  0  0  0
  6 25  1  0  0  0  0
  7  8  1  0  0  0  0
  7 26  1  0  0  0  0
  7 27  1  0  0  0  0
  8  9  1  0  0  0  0
  8 28  1  0  0  0  0
  8 29  1  0  0  0  0
  9 10  1  0  0  0  0
  9 30  1  0  0  0  0
  9 31  1  0  0  0  0
 10 11  1  0  0  0  0
 10 32  1  0  0  0  0
 10 33  1  0  0  0  0
 11 12  1  0  0  0  0
 11 34  1  0  0  0  0
 11 35  1  0  0  0  0
 12 13  1  0  0  0  0
 12 36  1  0  0  0  0
 12 37  1  0  0  0  0
 13 14  1  0  0  0  0
 13 38  1  0  0  0  0
 13 39  1  0  0  0  0
 14 15  1  0  0  0  0
 14 40  1  0  0  0  0
 14 41  1  0  0  0  0
 15 16  1  0  0  0  0
 15 42  1  0  0  0  0
 15 43  1  0  0  0  0
 16 44  1  0  0  0  0
 16 45  1  0  0  0  0
 16 46  1  0  0  0  0
M  END
$$$$
