
 OpenBabel04232216403D

233232  0  0  0  0  0  0  0  0999 V2000
    6.2335   -5.9690   -4.7796 C   0  0  0  0  0  0  0  0  0  0  0  0
    7.0804   -4.9789   -5.0814 C   0  0  0  0  0  0  0  0  0  0  0  0
    7.4242   -3.8852   -4.1193 C   0  0  0  0  0  0  0  0  0  0  0  0
    7.0613   -2.5811   -4.6713 N   0  0  0  0  0  0  0  0  0  0  0  0
    7.4015   -1.5952   -3.7190 N   0  0  0  0  0  0  0  0  0  0  0  0
    7.0451   -0.3242   -4.2519 N   0  0  0  0  0  0  0  0  0  0  0  0
    7.4185    0.7229   -3.3001 C   0  0  0  0  0  0  0  0  0  0  0  0
    8.8524    0.7232   -3.0265 N   0  0  0  0  0  0  0  0  0  0  0  0
    9.5983    0.9245   -4.2706 C   0  0  0  0  0  0  0  0  0  0  0  0
   11.0454    0.8909   -4.0205 N   0  0  0  0  0  0  0  0  0  0  0  0
   11.7782    1.1146   -5.2708 C   0  0  0  0  0  0  0  0  0  0  0  0
   13.2210    1.0763   -5.0176 N   0  0  0  0  0  0  0  0  0  0  0  0
   13.9540    1.3064   -6.2596 C   0  0  0  0  0  0  0  0  0  0  0  0
   15.3950    1.2671   -6.0073 N   0  0  0  0  0  0  0  0  0  0  0  0
   16.1177    1.5018   -7.2511 C   0  0  0  0  0  0  0  0  0  0  0  0
   17.6127    1.4538   -6.9768 C   0  0  0  0  0  0  0  0  0  0  0  0
   18.3815    1.7000   -8.2658 C   0  0  0  0  0  0  0  0  0  0  0  0
   19.8757    1.6535   -8.0016 C   0  0  0  0  0  0  0  0  0  0  0  0
   20.6397    1.8978   -9.2902 C   0  0  0  0  0  0  0  0  0  0  0  0
   22.1325    1.8487   -9.0235 C   0  0  0  0  0  0  0  0  0  0  0  0
   22.8958    2.0948  -10.3111 C   0  0  0  0  0  0  0  0  0  0  0  0
   24.3879    2.0437  -10.0440 C   0  0  0  0  0  0  0  0  0  0  0  0
   25.1507    2.2917  -11.3311 C   0  0  0  0  0  0  0  0  0  0  0  0
   26.6425    2.2387  -11.0642 C   0  0  0  0  0  0  0  0  0  0  0  0
   27.4052    2.4867  -12.3512 C   0  0  0  0  0  0  0  0  0  0  0  0
   28.8970    2.4355  -12.0840 C   0  0  0  0  0  0  0  0  0  0  0  0
   29.6596    2.6836  -13.3710 C   0  0  0  0  0  0  0  0  0  0  0  0
   31.1514    2.6324  -13.1037 C   0  0  0  0  0  0  0  0  0  0  0  0
   31.9140    2.8805  -14.3908 C   0  0  0  0  0  0  0  0  0  0  0  0
   33.4059    2.8293  -14.1235 C   0  0  0  0  0  0  0  0  0  0  0  0
   34.1684    3.0774  -15.4105 C   0  0  0  0  0  0  0  0  0  0  0  0
   35.6603    3.0262  -15.1432 C   0  0  0  0  0  0  0  0  0  0  0  0
   36.4229    3.2763  -16.4299 C   0  0  0  0  0  0  0  0  0  0  0  0
   37.9147    3.2251  -16.1626 C   0  0  0  0  0  0  0  0  0  0  0  0
   38.6773    3.4752  -17.4493 C   0  0  0  0  0  0  0  0  0  0  0  0
   40.1691    3.4240  -17.1820 C   0  0  0  0  0  0  0  0  0  0  0  0
   40.9317    3.6760  -18.4683 C   0  0  0  0  0  0  0  0  0  0  0  0
   42.4235    3.6268  -18.2006 C   0  0  0  0  0  0  0  0  0  0  0  0
   43.1861    3.8809  -19.4865 C   0  0  0  0  0  0  0  0  0  0  0  0
   44.6779    3.8297  -19.2192 C   0  0  0  0  0  0  0  0  0  0  0  0
   45.4405    4.0857  -20.5047 C   0  0  0  0  0  0  0  0  0  0  0  0
   46.9323    4.0325  -20.2378 C   0  0  0  0  0  0  0  0  0  0  0  0
   47.6949    4.2885  -21.5233 C   0  0  0  0  0  0  0  0  0  0  0  0
   49.1867    4.2354  -21.2564 C   0  0  0  0  0  0  0  0  0  0  0  0
   49.9493    4.4914  -22.5419 C   0  0  0  0  0  0  0  0  0  0  0  0
   51.4411    4.4382  -22.2750 C   0  0  0  0  0  0  0  0  0  0  0  0
   52.2037    4.6942  -23.5605 C   0  0  0  0  0  0  0  0  0  0  0  0
   53.6955    4.6391  -23.2940 C   0  0  0  0  0  0  0  0  0  0  0  0
   54.4581    4.8970  -24.5791 C   0  0  0  0  0  0  0  0  0  0  0  0
   55.9499    4.8399  -24.3130 C   0  0  0  0  0  0  0  0  0  0  0  0
   56.7125    5.0979  -25.5981 C   0  0  0  0  0  0  0  0  0  0  0  0
   58.2044    5.0428  -25.3316 C   0  0  0  0  0  0  0  0  0  0  0  0
   58.9669    5.3027  -26.6163 C   0  0  0  0  0  0  0  0  0  0  0  0
   60.4588    5.2495  -26.3494 C   0  0  0  0  0  0  0  0  0  0  0  0
   61.2213    5.5075  -27.6345 C   0  0  0  0  0  0  0  0  0  0  0  0
   62.7132    5.4563  -27.3672 C   0  0  0  0  0  0  0  0  0  0  0  0
   63.4758    5.7163  -28.6519 C   0  0  0  0  0  0  0  0  0  0  0  0
   64.9676    5.6651  -28.3846 C   0  0  0  0  0  0  0  0  0  0  0  0
   65.7302    5.9270  -29.6689 C   0  0  0  0  0  0  0  0  0  0  0  0
   67.2220    5.8759  -29.4016 C   0  0  0  0  0  0  0  0  0  0  0  0
   67.9846    6.1378  -30.6859 C   0  0  0  0  0  0  0  0  0  0  0  0
   69.4764    6.0866  -30.4186 C   0  0  0  0  0  0  0  0  0  0  0  0
   70.2390    6.3485  -31.7029 C   0  0  0  0  0  0  0  0  0  0  0  0
   71.7308    6.2973  -31.4356 C   0  0  0  0  0  0  0  0  0  0  0  0
   72.4934    6.5593  -32.7199 C   0  0  0  0  0  0  0  0  0  0  0  0
   73.9852    6.5081  -32.4526 C   0  0  0  0  0  0  0  0  0  0  0  0
   74.7478    6.7700  -33.7370 C   0  0  0  0  0  0  0  0  0  0  0  0
   76.2396    6.7188  -33.4696 C   0  0  0  0  0  0  0  0  0  0  0  0
   77.0022    6.9788  -34.7544 C   0  0  0  0  0  0  0  0  0  0  0  0
   78.4940    6.9276  -34.4871 C   0  0  0  0  0  0  0  0  0  0  0  0
   79.2566    7.1875  -35.7718 C   0  0  0  0  0  0  0  0  0  0  0  0
   80.7485    7.1364  -35.5045 C   0  0  0  0  0  0  0  0  0  0  0  0
   81.5111    7.3963  -36.7892 C   0  0  0  0  0  0  0  0  0  0  0  0
   83.0032    7.3452  -36.5221 C   0  0  0  0  0  0  0  0  0  0  0  0
   83.7661    7.6071  -37.8066 C   0  0  0  0  0  0  0  0  0  0  0  0
   85.2587    7.5562  -37.5403 C   0  0  0  0  0  0  0  0  0  0  0  0
   86.0225    7.8183  -38.8257 C   0  0  0  0  0  0  0  0  0  0  0  0
   87.5168    7.7697  -38.5609 C   0  0  0  0  0  0  0  0  0  0  0  0
   88.2889    8.0295  -39.8447 C   0  0  0  0  0  0  0  0  0  0  0  0
   89.7789    7.9802  -39.5765 C   0  0  0  0  0  0  0  0  0  0  0  0
    6.0050   -6.7407   -5.5027 H   0  0  0  0  0  0  0  0  0  0  0  0
    5.7569   -6.0084   -3.8067 H   0  0  0  0  0  0  0  0  0  0  0  0
    7.5471   -4.9561   -6.0618 H   0  0  0  0  0  0  0  0  0  0  0  0
    8.5062   -3.9243   -3.9320 H   0  0  0  0  0  0  0  0  0  0  0  0
    6.9166   -4.0520   -3.1607 H   0  0  0  0  0  0  0  0  0  0  0  0
    6.0567   -2.5200   -4.8066 H   0  0  0  0  0  0  0  0  0  0  0  0
    8.3995   -1.6851   -3.5671 H   0  0  0  0  0  0  0  0  0  0  0  0
    6.0369   -0.2949   -4.4527 H   0  0  0  0  0  0  0  0  0  0  0  0
    6.8731    0.5780   -2.3585 H   0  0  0  0  0  0  0  0  0  0  0  0
    7.1194    1.7078   -3.6791 H   0  0  0  0  0  0  0  0  0  0  0  0
    9.0376   -0.1962   -2.6355 H   0  0  0  0  0  0  0  0  0  0  0  0
    9.3346    1.9095   -4.6718 H   0  0  0  0  0  0  0  0  0  0  0  0
    9.3477    0.1693   -5.0261 H   0  0  0  0  0  0  0  0  0  0  0  0
   11.2872   -0.0346   -3.6677 H   0  0  0  0  0  0  0  0  0  0  0  0
   11.5101    2.0994   -5.6735 H   0  0  0  0  0  0  0  0  0  0  0  0
   11.5088    0.3508   -6.0117 H   0  0  0  0  0  0  0  0  0  0  0  0
   13.4778    0.1573   -4.6591 H   0  0  0  0  0  0  0  0  0  0  0  0
   13.6873    2.2941   -6.6563 H   0  0  0  0  0  0  0  0  0  0  0  0
   13.6833    0.5467   -7.0032 H   0  0  0  0  0  0  0  0  0  0  0  0
   15.6752    0.3540   -5.6485 H   0  0  0  0  0  0  0  0  0  0  0  0
   15.8538    2.4826   -7.6613 H   0  0  0  0  0  0  0  0  0  0  0  0
   15.8580    0.7363   -7.9924 H   0  0  0  0  0  0  0  0  0  0  0  0
   17.8934    0.4766   -6.5630 H   0  0  0  0  0  0  0  0  0  0  0  0
   17.8857    2.2140   -6.2339 H   0  0  0  0  0  0  0  0  0  0  0  0
   18.1090    2.6774   -8.6829 H   0  0  0  0  0  0  0  0  0  0  0  0
   18.1133    0.9417   -9.0119 H   0  0  0  0  0  0  0  0  0  0  0  0
   20.1511    0.6766   -7.5858 H   0  0  0  0  0  0  0  0  0  0  0  0
   20.1473    2.4134   -7.2588 H   0  0  0  0  0  0  0  0  0  0  0  0
   20.3677    2.8754   -9.7066 H   0  0  0  0  0  0  0  0  0  0  0  0
   20.3695    1.1390  -10.0349 H   0  0  0  0  0  0  0  0  0  0  0  0
   22.4061    0.8706   -8.6091 H   0  0  0  0  0  0  0  0  0  0  0  0
   22.4041    2.6067   -8.2785 H   0  0  0  0  0  0  0  0  0  0  0  0
   22.6241    3.0737  -10.7251 H   0  0  0  0  0  0  0  0  0  0  0  0
   22.6241    1.3378  -11.0570 H   0  0  0  0  0  0  0  0  0  0  0  0
   24.6601    1.0644   -9.6315 H   0  0  0  0  0  0  0  0  0  0  0  0
   24.6599    2.7998   -9.2973 H   0  0  0  0  0  0  0  0  0  0  0  0
   24.8796    3.2717  -11.7428 H   0  0  0  0  0  0  0  0  0  0  0  0
   24.8779    1.5365  -12.0784 H   0  0  0  0  0  0  0  0  0  0  0  0
   26.9137    1.2587  -10.6524 H   0  0  0  0  0  0  0  0  0  0  0  0
   26.9154    2.9939  -10.3169 H   0  0  0  0  0  0  0  0  0  0  0  0
   27.1331    3.4660  -12.7638 H   0  0  0  0  0  0  0  0  0  0  0  0
   27.1334    1.7306  -13.0980 H   0  0  0  0  0  0  0  0  0  0  0  0
   29.1691    1.4562  -11.6714 H   0  0  0  0  0  0  0  0  0  0  0  0
   29.1688    3.1917  -11.3372 H   0  0  0  0  0  0  0  0  0  0  0  0
   29.3875    3.6629  -13.7835 H   0  0  0  0  0  0  0  0  0  0  0  0
   29.3879    1.9275  -14.1178 H   0  0  0  0  0  0  0  0  0  0  0  0
   31.4236    1.6531  -12.6912 H   0  0  0  0  0  0  0  0  0  0  0  0
   31.4232    3.3886  -12.3569 H   0  0  0  0  0  0  0  0  0  0  0  0
   31.6419    3.8598  -14.8033 H   0  0  0  0  0  0  0  0  0  0  0  0
   31.6423    2.1244  -15.1376 H   0  0  0  0  0  0  0  0  0  0  0  0
   33.6780    1.8500  -13.7109 H   0  0  0  0  0  0  0  0  0  0  0  0
   33.6776    3.5855  -13.3767 H   0  0  0  0  0  0  0  0  0  0  0  0
   33.8963    4.0567  -15.8230 H   0  0  0  0  0  0  0  0  0  0  0  0
   33.8967    2.3213  -16.1573 H   0  0  0  0  0  0  0  0  0  0  0  0
   35.9326    2.0464  -14.7320 H   0  0  0  0  0  0  0  0  0  0  0  0
   35.9318    3.7814  -14.3954 H   0  0  0  0  0  0  0  0  0  0  0  0
   36.1505    4.2561  -16.8411 H   0  0  0  0  0  0  0  0  0  0  0  0
   36.1513    2.5211  -17.1778 H   0  0  0  0  0  0  0  0  0  0  0  0
   38.1870    2.2453  -15.7514 H   0  0  0  0  0  0  0  0  0  0  0  0
   38.1862    3.9803  -15.4147 H   0  0  0  0  0  0  0  0  0  0  0  0
   38.4049    4.4550  -17.8604 H   0  0  0  0  0  0  0  0  0  0  0  0
   38.4058    2.7200  -18.1972 H   0  0  0  0  0  0  0  0  0  0  0  0
   40.4417    2.4437  -16.7721 H   0  0  0  0  0  0  0  0  0  0  0  0
   40.4404    4.1782  -16.4331 H   0  0  0  0  0  0  0  0  0  0  0  0
   40.6581    4.6557  -18.8788 H   0  0  0  0  0  0  0  0  0  0  0  0
   40.6614    2.9210  -19.2167 H   0  0  0  0  0  0  0  0  0  0  0  0
   42.6973    2.6466  -17.7913 H   0  0  0  0  0  0  0  0  0  0  0  0
   42.6936    4.3809  -17.4511 H   0  0  0  0  0  0  0  0  0  0  0  0
   42.9132    4.8617  -19.8949 H   0  0  0  0  0  0  0  0  0  0  0  0
   42.9150    3.1277  -20.2365 H   0  0  0  0  0  0  0  0  0  0  0  0
   44.9509    2.8484  -18.8120 H   0  0  0  0  0  0  0  0  0  0  0  0
   44.9488    4.5819  -18.4681 H   0  0  0  0  0  0  0  0  0  0  0  0
   45.1685    5.0676  -20.9110 H   0  0  0  0  0  0  0  0  0  0  0  0
   45.1686    3.3343  -21.2562 H   0  0  0  0  0  0  0  0  0  0  0  0
   47.2043    3.0506  -19.8314 H   0  0  0  0  0  0  0  0  0  0  0  0
   47.2043    4.7839  -19.4863 H   0  0  0  0  0  0  0  0  0  0  0  0
   47.4230    5.2704  -21.9296 H   0  0  0  0  0  0  0  0  0  0  0  0
   47.4229    3.5372  -22.2748 H   0  0  0  0  0  0  0  0  0  0  0  0
   49.4587    3.2534  -20.8500 H   0  0  0  0  0  0  0  0  0  0  0  0
   49.4587    4.9867  -20.5049 H   0  0  0  0  0  0  0  0  0  0  0  0
   49.6774    5.4733  -22.9482 H   0  0  0  0  0  0  0  0  0  0  0  0
   49.6773    3.7400  -23.2934 H   0  0  0  0  0  0  0  0  0  0  0  0
   51.7131    3.4562  -21.8686 H   0  0  0  0  0  0  0  0  0  0  0  0
   51.7131    5.1895  -21.5235 H   0  0  0  0  0  0  0  0  0  0  0  0
   51.9328    5.6767  -23.9661 H   0  0  0  0  0  0  0  0  0  0  0  0
   51.9307    3.9437  -24.3125 H   0  0  0  0  0  0  0  0  0  0  0  0
   53.9666    3.6560  -22.8897 H   0  0  0  0  0  0  0  0  0  0  0  0
   53.9684    5.3886  -22.5410 H   0  0  0  0  0  0  0  0  0  0  0  0
   54.1881    5.8806  -24.9826 H   0  0  0  0  0  0  0  0  0  0  0  0
   54.1843    4.1483  -25.3326 H   0  0  0  0  0  0  0  0  0  0  0  0
   56.2200    3.8563  -23.9095 H   0  0  0  0  0  0  0  0  0  0  0  0
   56.2238    5.5886  -23.5595 H   0  0  0  0  0  0  0  0  0  0  0  0
   56.4414    6.0809  -26.0023 H   0  0  0  0  0  0  0  0  0  0  0  0
   56.4397    4.3484  -26.3512 H   0  0  0  0  0  0  0  0  0  0  0  0
   58.4757    4.0592  -24.9287 H   0  0  0  0  0  0  0  0  0  0  0  0
   58.4769    5.7913  -24.5775 H   0  0  0  0  0  0  0  0  0  0  0  0
   58.6946    6.2856  -27.0200 H   0  0  0  0  0  0  0  0  0  0  0  0
   58.6954    4.5533  -27.3699 H   0  0  0  0  0  0  0  0  0  0  0  0
   60.7310    4.2671  -25.9444 H   0  0  0  0  0  0  0  0  0  0  0  0
   60.7304    5.9999  -25.5968 H   0  0  0  0  0  0  0  0  0  0  0  0
   60.9481    6.4894  -28.0402 H   0  0  0  0  0  0  0  0  0  0  0  0
   60.9507    4.7563  -28.3866 H   0  0  0  0  0  0  0  0  0  0  0  0
   62.9866    4.4740  -26.9627 H   0  0  0  0  0  0  0  0  0  0  0  0
   62.9836    6.2066  -26.6141 H   0  0  0  0  0  0  0  0  0  0  0  0
   63.2023    6.6986  -29.0563 H   0  0  0  0  0  0  0  0  0  0  0  0
   63.2054    4.9660  -29.4051 H   0  0  0  0  0  0  0  0  0  0  0  0
   65.2413    4.6823  -27.9815 H   0  0  0  0  0  0  0  0  0  0  0  0
   65.2378    6.4144  -27.6304 H   0  0  0  0  0  0  0  0  0  0  0  0
   65.4565    6.9098  -30.0720 H   0  0  0  0  0  0  0  0  0  0  0  0
   65.4599    5.1777  -30.4231 H   0  0  0  0  0  0  0  0  0  0  0  0
   67.4957    4.8931  -28.9986 H   0  0  0  0  0  0  0  0  0  0  0  0
   67.4922    6.6251  -28.6474 H   0  0  0  0  0  0  0  0  0  0  0  0
   67.7109    7.1206  -31.0890 H   0  0  0  0  0  0  0  0  0  0  0  0
   67.7144    5.3885  -31.4401 H   0  0  0  0  0  0  0  0  0  0  0  0
   69.7501    5.1038  -30.0156 H   0  0  0  0  0  0  0  0  0  0  0  0
   69.7466    6.8359  -29.6644 H   0  0  0  0  0  0  0  0  0  0  0  0
   69.9653    7.3313  -32.1060 H   0  0  0  0  0  0  0  0  0  0  0  0
   69.9688    5.5992  -32.4572 H   0  0  0  0  0  0  0  0  0  0  0  0
   72.0045    5.3145  -31.0326 H   0  0  0  0  0  0  0  0  0  0  0  0
   72.0010    7.0466  -30.6814 H   0  0  0  0  0  0  0  0  0  0  0  0
   72.2197    7.5421  -33.1230 H   0  0  0  0  0  0  0  0  0  0  0  0
   72.2232    5.8100  -33.4742 H   0  0  0  0  0  0  0  0  0  0  0  0
   74.2589    5.5253  -32.0496 H   0  0  0  0  0  0  0  0  0  0  0  0
   74.2554    7.2574  -31.6984 H   0  0  0  0  0  0  0  0  0  0  0  0
   74.4741    7.7528  -34.1400 H   0  0  0  0  0  0  0  0  0  0  0  0
   74.4775    6.0207  -34.4911 H   0  0  0  0  0  0  0  0  0  0  0  0
   76.5131    5.7365  -33.0653 H   0  0  0  0  0  0  0  0  0  0  0  0
   76.5100    7.4691  -32.7165 H   0  0  0  0  0  0  0  0  0  0  0  0
   76.7287    7.9611  -35.1588 H   0  0  0  0  0  0  0  0  0  0  0  0
   76.7318    6.2285  -35.5075 H   0  0  0  0  0  0  0  0  0  0  0  0
   78.7675    5.9453  -34.0826 H   0  0  0  0  0  0  0  0  0  0  0  0
   78.7644    7.6779  -33.7339 H   0  0  0  0  0  0  0  0  0  0  0  0
   78.9831    8.1699  -36.1762 H   0  0  0  0  0  0  0  0  0  0  0  0
   78.9862    6.4373  -36.5249 H   0  0  0  0  0  0  0  0  0  0  0  0
   81.0219    6.1541  -35.1001 H   0  0  0  0  0  0  0  0  0  0  0  0
   81.0188    7.8866  -34.7513 H   0  0  0  0  0  0  0  0  0  0  0  0
   81.2375    8.3786  -37.1936 H   0  0  0  0  0  0  0  0  0  0  0  0
   81.2406    6.6461  -37.5424 H   0  0  0  0  0  0  0  0  0  0  0  0
   83.2766    6.3624  -36.1189 H   0  0  0  0  0  0  0  0  0  0  0  0
   83.2732    8.0945  -35.7678 H   0  0  0  0  0  0  0  0  0  0  0  0
   83.4919    8.5899  -38.2094 H   0  0  0  0  0  0  0  0  0  0  0  0
   83.4954    6.8578  -38.5605 H   0  0  0  0  0  0  0  0  0  0  0  0
   85.5317    6.5734  -37.1367 H   0  0  0  0  0  0  0  0  0  0  0  0
   85.5282    8.3053  -36.7855 H   0  0  0  0  0  0  0  0  0  0  0  0
   85.7461    8.8004  -39.2285 H   0  0  0  0  0  0  0  0  0  0  0  0
   85.7516    7.0679  -39.5784 H   0  0  0  0  0  0  0  0  0  0  0  0
   87.7884    6.7880  -38.1533 H   0  0  0  0  0  0  0  0  0  0  0  0
   87.7831    8.5198  -37.8059 H   0  0  0  0  0  0  0  0  0  0  0  0
   88.0184    9.0113  -40.2507 H   0  0  0  0  0  0  0  0  0  0  0  0
   88.0237    7.2786  -40.5982 H   0  0  0  0  0  0  0  0  0  0  0  0
   90.0626    8.7382  -38.8395 H   0  0  0  0  0  0  0  0  0  0  0  0
   90.3352    8.1667  -40.4983 H   0  0  0  0  0  0  0  0  0  0  0  0
   90.0679    6.9983  -39.1884 H   0  0  0  0  0  0  0  0  0  0  0  0
  1  2  2  0  0  0  0
  1 81  1  0  0  0  0
  1 82  1  0  0  0  0
  2  3  1  0  0  0  0
  2 83  1  0  0  0  0
  3  4  1  0  0  0  0
  3 84  1  0  0  0  0
  3 85  1  0  0  0  0
  4  5  1  0  0  0  0
  4 86  1  0  0  0  0
  5  6  1  0  0  0  0
  5 87  1  0  0  0  0
  6  7  1  0  0  0  0
  6 88  1  0  0  0  0
  7  8  1  0  0  0  0
  7 89  1  0  0  0  0
  7 90  1  0  0  0  0
  8  9  1  0  0  0  0
  8 91  1  0  0  0  0
  9 10  1  0  0  0  0
  9 92  1  0  0  0  0
  9 93  1  0  0  0  0
 10 11  1  0  0  0  0
 10 94  1  0  0  0  0
 11 12  1  0  0  0  0
 11 95  1  0  0  0  0
 11 96  1  0  0  0  0
 12 13  1  0  0  0  0
 12 97  1  0  0  0  0
 13 14  1  0  0  0  0
 13 98  1  0  0  0  0
 13 99  1  0  0  0  0
 14 15  1  0  0  0  0
 14100  1  0  0  0  0
 15 16  1  0  0  0  0
 15101  1  0  0  0  0
 15102  1  0  0  0  0
 16 17  1  0  0  0  0
 16103  1  0  0  0  0
 16104  1  0  0  0  0
 17 18  1  0  0  0  0
 17105  1  0  0  0  0
 17106  1  0  0  0  0
 18 19  1  0  0  0  0
 18107  1  0  0  0  0
 18108  1  0  0  0  0
 19 20  1  0  0  0  0
 19109  1  0  0  0  0
 19110  1  0  0  0  0
 20 21  1  0  0  0  0
 20111  1  0  0  0  0
 20112  1  0  0  0  0
 21 22  1  0  0  0  0
 21113  1  0  0  0  0
 21114  1  0  0  0  0
 22 23  1  0  0  0  0
 22115  1  0  0  0  0
 22116  1  0  0  0  0
 23 24  1  0  0  0  0
 23117  1  0  0  0  0
 23118  1  0  0  0  0
 24 25  1  0  0  0  0
 24119  1  0  0  0  0
 24120  1  0  0  0  0
 25 26  1  0  0  0  0
 25121  1  0  0  0  0
 25122  1  0  0  0  0
 26 27  1  0  0  0  0
 26123  1  0  0  0  0
 26124  1  0  0  0  0
 27 28  1  0  0  0  0
 27125  1  0  0  0  0
 27126  1  0  0  0  0
 28 29  1  0  0  0  0
 28127  1  0  0  0  0
 28128  1  0  0  0  0
 29 30  1  0  0  0  0
 29129  1  0  0  0  0
 29130  1  0  0  0  0
 30 31  1  0  0  0  0
 30131  1  0  0  0  0
 30132  1  0  0  0  0
 31 32  1  0  0  0  0
 31133  1  0  0  0  0
 31134  1  0  0  0  0
 32 33  1  0  0  0  0
 32135  1  0  0  0  0
 32136  1  0  0  0  0
 33 34  1  0  0  0  0
 33137  1  0  0  0  0
 33138  1  0  0  0  0
 34 35  1  0  0  0  0
 34139  1  0  0  0  0
 34140  1  0  0  0  0
 35 36  1  0  0  0  0
 35141  1  0  0  0  0
 35142  1  0  0  0  0
 36 37  1  0  0  0  0
 36143  1  0  0  0  0
 36144  1  0  0  0  0
 37 38  1  0  0  0  0
 37145  1  0  0  0  0
 37146  1  0  0  0  0
 38 39  1  0  0  0  0
 38147  1  0  0  0  0
 38148  1  0  0  0  0
 39 40  1  0  0  0  0
 39149  1  0  0  0  0
 39150  1  0  0  0  0
 40 41  1  0  0  0  0
 40151  1  0  0  0  0
 40152  1  0  0  0  0
 41 42  1  0  0  0  0
 41153  1  0  0  0  0
 41154  1  0  0  0  0
 42 43  1  0  0  0  0
 42155  1  0  0  0  0
 42156  1  0  0  0  0
 43 44  1  0  0  0  0
 43157  1  0  0  0  0
 43158  1  0  0  0  0
 44 45  1  0  0  0  0
 44159  1  0  0  0  0
 44160  1  0  0  0  0
 45 46  1  0  0  0  0
 45161  1  0  0  0  0
 45162  1  0  0  0  0
 46 47  1  0  0  0  0
 46163  1  0  0  0  0
 46164  1  0  0  0  0
 47 48  1  0  0  0  0
 47165  1  0  0  0  0
 47166  1  0  0  0  0
 48 49  1  0  0  0  0
 48167  1  0  0  0  0
 48168  1  0  0  0  0
 49 50  1  0  0  0  0
 49169  1  0  0  0  0
 49170  1  0  0  0  0
 50 51  1  0  0  0  0
 50171  1  0  0  0  0
 50172  1  0  0  0  0
 51 52  1  0  0  0  0
 51173  1  0  0  0  0
 51174  1  0  0  0  0
 52 53  1  0  0  0  0
 52175  1  0  0  0  0
 52176  1  0  0  0  0
 53 54  1  0  0  0  0
 53177  1  0  0  0  0
 53178  1  0  0  0  0
 54 55  1  0  0  0  0
 54179  1  0  0  0  0
 54180  1  0  0  0  0
 55 56  1  0  0  0  0
 55181  1  0  0  0  0
 55182  1  0  0  0  0
 56 57  1  0  0  0  0
 56183  1  0  0  0  0
 56184  1  0  0  0  0
 57 58  1  0  0  0  0
 57185  1  0  0  0  0
 57186  1  0  0  0  0
 58 59  1  0  0  0  0
 58187  1  0  0  0  0
 58188  1  0  0  0  0
 59 60  1  0  0  0  0
 59189  1  0  0  0  0
 59190  1  0  0  0  0
 60 61  1  0  0  0  0
 60191  1  0  0  0  0
 60192  1  0  0  0  0
 61 62  1  0  0  0  0
 61193  1  0  0  0  0
 61194  1  0  0  0  0
 62 63  1  0  0  0  0
 62195  1  0  0  0  0
 62196  1  0  0  0  0
 63 64  1  0  0  0  0
 63197  1  0  0  0  0
 63198  1  0  0  0  0
 64 65  1  0  0  0  0
 64199  1  0  0  0  0
 64200  1  0  0  0  0
 65 66  1  0  0  0  0
 65201  1  0  0  0  0
 65202  1  0  0  0  0
 66 67  1  0  0  0  0
 66203  1  0  0  0  0
 66204  1  0  0  0  0
 67 68  1  0  0  0  0
 67205  1  0  0  0  0
 67206  1  0  0  0  0
 68 69  1  0  0  0  0
 68207  1  0  0  0  0
 68208  1  0  0  0  0
 69 70  1  0  0  0  0
 69209  1  0  0  0  0
 69210  1  0  0  0  0
 70 71  1  0  0  0  0
 70211  1  0  0  0  0
 70212  1  0  0  0  0
 71 72  1  0  0  0  0
 71213  1  0  0  0  0
 71214  1  0  0  0  0
 72 73  1  0  0  0  0
 72215  1  0  0  0  0
 72216  1  0  0  0  0
 73 74  1  0  0  0  0
 73217  1  0  0  0  0
 73218  1  0  0  0  0
 74 75  1  0  0  0  0
 74219  1  0  0  0  0
 74220  1  0  0  0  0
 75 76  1  0  0  0  0
 75221  1  0  0  0  0
 75222  1  0  0  0  0
 76 77  1  0  0  0  0
 76223  1  0  0  0  0
 76224  1  0  0  0  0
 77 78  1  0  0  0  0
 77225  1  0  0  0  0
 77226  1  0  0  0  0
 78 79  1  0  0  0  0
 78227  1  0  0  0  0
 78228  1  0  0  0  0
 79 80  1  0  0  0  0
 79229  1  0  0  0  0
 79230  1  0  0  0  0
 80231  1  0  0  0  0
 80232  1  0  0  0  0
 80233  1  0  0  0  0
M  END
$$$$
