
 OpenBabel04232216443D

 58 60  0  0  0  0  0  0  0  0999 V2000
    2.9847    2.1958    0.3979 C   0  0  0  0  0  0  0  0  0  0  0  0
    4.2528    1.4828    0.9431 C   0  0  0  0  0  0  0  0  0  0  0  0
    4.8085    0.9191   -0.4431 C   0  0  0  0  0  0  0  0  0  0  0  0
    3.3716    0.5949    1.9368 C   0  0  0  0  0  3  0  0  0  0  0  0
    3.4063    0.5762    3.4104 C   0  0  0  0  0  0  0  0  0  0  0  0
    2.1302    1.4781    4.2028 C   0  0  0  0  0  0  0  0  0  0  0  0
    0.5287    1.2048    4.7333 C   0  0  0  0  0  0  0  0  0  0  0  0
   -0.1469    0.9651    6.1856 C   0  0  0  0  0  0  0  0  0  0  0  0
   -0.1625   -0.4078    6.9108 C   0  0  0  0  0  0  0  0  0  0  0  0
    0.9740   -0.5073    7.9560 C   0  0  0  0  0  0  0  0  0  0  0  0
    2.1772   -0.9262    7.1756 C   0  0  0  0  0  0  0  0  0  0  0  0
    3.5612   -0.3288    7.5022 C   0  0  0  0  0  0  0  0  0  0  0  0
    3.9363    0.1716    6.1475 C   0  0  0  0  0  0  0  0  0  0  0  0
    5.1755    0.1565    5.3108 C   0  0  0  0  0  0  0  0  0  0  0  0
    4.6299    0.0344    3.8333 C   0  0  0  0  0  0  0  0  0  0  0  0
    5.6420   -0.6503    2.9272 C   0  0  0  0  0  0  0  0  0  0  0  0
    5.3702   -1.4096    1.6213 C   0  0  0  0  0  0  0  0  0  0  0  0
    6.9409   -0.2650    3.0493 C   0  0  0  0  0  0  0  0  0  0  0  0
    7.4799    0.4090    1.8692 C   0  0  0  0  0  0  0  0  0  0  0  0
    8.9069    0.0299    1.5550 C   0  0  0  0  0  0  0  0  0  0  0  0
    6.8572    1.6079    1.5264 C   0  0  0  0  0  0  0  0  0  0  0  0
    7.0647    2.8188    2.3254 C   0  0  0  0  0  0  0  0  0  0  0  0
    5.7538    2.8443    2.6745 C   0  0  0  0  0  0  0  0  0  0  0  0
    5.3866    2.0418    1.5353 C   0  0  0  0  0  0  0  0  0  0  0  0
    3.1491    2.8693   -0.4445 H   0  0  0  0  0  0  0  0  0  0  0  0
    2.3682    2.7044    1.1377 H   0  0  0  0  0  0  0  0  0  0  0  0
    2.3239    1.4130   -0.0476 H   0  0  0  0  0  0  0  0  0  0  0  0
    4.5412    1.5860   -1.2825 H   0  0  0  0  0  0  0  0  0  0  0  0
    4.4222   -0.0693   -0.6946 H   0  0  0  0  0  0  0  0  0  0  0  0
    5.9024    0.9028   -0.5485 H   0  0  0  0  0  0  0  0  0  0  0  0
    2.6169   -0.0603    1.5186 H   0  0  0  0  0  0  0  0  0  0  0  0
    1.9036    2.2100    3.4074 H   0  0  0  0  0  0  0  0  0  0  0  0
    2.5613    2.1562    4.9518 H   0  0  0  0  0  0  0  0  0  0  0  0
    0.1105    2.2249    4.5794 H   0  0  0  0  0  0  0  0  0  0  0  0
   -0.0145    0.6028    3.9994 H   0  0  0  0  0  0  0  0  0  0  0  0
   -1.2316    1.1521    6.0293 H   0  0  0  0  0  0  0  0  0  0  0  0
    0.1251    1.7570    6.8971 H   0  0  0  0  0  0  0  0  0  0  0  0
   -0.1196   -1.2128    6.1635 H   0  0  0  0  0  0  0  0  0  0  0  0
   -1.1098   -0.5652    7.4475 H   0  0  0  0  0  0  0  0  0  0  0  0
    0.7678   -1.2663    8.7159 H   0  0  0  0  0  0  0  0  0  0  0  0
    1.1130    0.4549    8.4554 H   0  0  0  0  0  0  0  0  0  0  0  0
    1.8786   -0.5904    6.1762 H   0  0  0  0  0  0  0  0  0  0  0  0
    2.2466   -2.0066    7.0388 H   0  0  0  0  0  0  0  0  0  0  0  0
    4.2454   -1.0811    7.9005 H   0  0  0  0  0  0  0  0  0  0  0  0
    3.4953    0.5122    8.2011 H   0  0  0  0  0  0  0  0  0  0  0  0
    3.5693    1.1956    6.1256 H   0  0  0  0  0  0  0  0  0  0  0  0
    3.3981   -0.5174    5.5042 H   0  0  0  0  0  0  0  0  0  0  0  0
    5.7862   -0.7212    5.5812 H   0  0  0  0  0  0  0  0  0  0  0  0
    5.7507    1.0667    5.4487 H   0  0  0  0  0  0  0  0  0  0  0  0
    4.3139   -1.6911    1.4513 H   0  0  0  0  0  0  0  0  0  0  0  0
    5.9482   -2.3373    1.6161 H   0  0  0  0  0  0  0  0  0  0  0  0
    5.7191   -0.8920    0.7457 H   0  0  0  0  0  0  0  0  0  0  0  0
    7.3406    0.1177    3.9594 H   0  0  0  0  0  0  0  0  0  0  0  0
    8.9754   -0.2969    0.5076 H   0  0  0  0  0  0  0  0  0  0  0  0
    9.2501   -0.7991    2.1802 H   0  0  0  0  0  0  0  0  0  0  0  0
    9.6081    0.8517    1.6938 H   0  0  0  0  0  0  0  0  0  0  0  0
    7.9799    3.1779    2.8004 H   0  0  0  0  0  0  0  0  0  0  0  0
    5.2611    3.2498    3.5435 H   0  0  0  0  0  0  0  0  0  0  0  0
  1  2  1  0  0  0  0
  1 25  1  0  0  0  0
  1 26  1  0  0  0  0
  1 27  1  0  0  0  0
  2  3  1  0  0  0  0
  2  4  1  0  0  0  0
  2 24  2  0  0  0  0
  3 28  1  0  0  0  0
  3 29  1  0  0  0  0
  3 30  1  0  0  0  0
  4  5  1  0  0  0  0
  4 31  1  0  0  0  0
  5  6  1  0  0  0  0
  5 15  2  3  0  0  0
  6  7  1  0  0  0  0
  6 32  1  0  0  0  0
  6 33  1  0  0  0  0
  7  8  1  0  0  0  0
  7 34  1  0  0  0  0
  7 35  1  0  0  0  0
  8  9  1  0  0  0  0
  8 36  1  0  0  0  0
  8 37  1  0  0  0  0
  9 10  1  0  0  0  0
  9 38  1  0  0  0  0
  9 39  1  0  0  0  0
 10 11  1  0  0  0  0
 10 40  1  0  0  0  0
 10 41  1  0  0  0  0
 11 12  1  0  0  0  0
 11 42  1  0  0  0  0
 11 43  1  0  0  0  0
 12 13  1  0  0  0  0
 12 44  1  0  0  0  0
 12 45  1  0  0  0  0
 13 14  1  0  0  0  0
 13 46  1  0  0  0  0
 13 47  1  0  0  0  0
 14 15  1  0  0  0  0
 14 48  1  0  0  0  0
 14 49  1  0  0  0  0
 15 16  1  0  0  0  0
 16 17  1  0  0  0  0
 16 18  2  3  0  0  0
 17 50  1  0  0  0  0
 17 51  1  0  0  0  0
 17 52  1  0  0  0  0
 18 19  1  0  0  0  0
 18 53  1  0  0  0  0
 19 20  1  0  0  0  0
 19 21  2  3  0  0  0
 20 54  1  0  0  0  0
 20 55  1  0  0  0  0
 20 56  1  0  0  0  0
 21 22  1  0  0  0  0
 21 24  1  0  0  0  0
 22 23  2  0  0  0  0
 22 57  1  0  0  0  0
 23 24  1  0  0  0  0
 23 58  1  0  0  0  0
M  END
$$$$
