
 OpenBabel04232216483D

 56 57  0  0  1  0  0  0  0  0999 V2000
    2.5600   -0.6459    0.3641 C   0  0  0  0  0  0  0  0  0  0  0  0
    4.0463   -0.3334    0.6101 C   0  0  0  0  0  0  0  0  0  0  0  0
    5.0221   -1.3862    0.9325 C   0  0  0  0  0  0  0  0  0  0  0  0
    6.4178   -1.4201    0.9215 C   0  0  0  0  0  0  0  0  0  0  0  0
    7.5500   -0.3523    0.3580 C   0  0  3  0  0  0  0  0  0  0  0  0
    7.5548   -0.9638   -1.0725 C   0  0  0  0  0  0  0  0  0  0  0  0
    6.3474   -0.7269   -1.9569 C   0  0  0  0  0  0  0  0  0  0  0  0
    6.9407    0.9084    1.0819 C   0  0  0  0  0  0  0  0  0  0  0  0
    5.6179    1.6459    0.7744 C   0  0  3  0  0  0  0  0  0  0  0  0
    5.6208    2.6469   -0.4131 C   0  0  0  0  0  0  0  0  0  0  0  0
    6.8414    3.4834   -0.3333 C   0  0  0  0  0  0  0  0  0  0  0  0
    6.9005    4.4582    0.4016 O   0  0  0  0  0  0  0  0  0  0  0  0
    7.9682    2.9852   -1.1844 C   0  0  0  0  0  0  0  0  0  0  0  0
    9.2601    3.2762   -0.4902 C   0  0  0  0  0  0  0  0  0  0  0  0
   10.3301    3.4306   -1.4954 C   0  0  0  0  0  0  0  0  0  0  0  0
   11.4112    4.1065   -1.1256 C   0  0  0  0  0  0  0  0  0  0  0  0
   12.6132    3.9625   -1.7460 N   0  0  0  0  0  0  0  0  0  0  0  0
   13.5240    3.0337   -1.0727 C   0  0  0  0  0  0  0  0  0  0  0  0
   13.0521    1.5273   -1.2003 C   0  0  0  0  0  0  0  0  0  0  0  0
   12.0635    0.7978   -0.0951 C   0  0  0  0  0  0  0  0  0  0  0  0
   10.5626    0.0775   -0.4314 C   0  0  0  0  0  0  0  0  0  0  0  0
    9.3061   -0.2889    0.7383 C   0  0  0  0  0  0  0  0  0  0  0  0
    4.3459    0.9771    0.6477 C   0  0  0  0  0  0  0  0  0  0  0  0
    2.3320   -1.6805    0.0857 H   0  0  0  0  0  0  0  0  0  0  0  0
    2.1717   -0.0227   -0.4647 H   0  0  0  0  0  0  0  0  0  0  0  0
    1.9508   -0.3784    1.2369 H   0  0  0  0  0  0  0  0  0  0  0  0
    4.5270   -2.3248    1.1728 H   0  0  0  0  0  0  0  0  0  0  0  0
    6.8398   -2.3850    1.1926 H   0  0  0  0  0  0  0  0  0  0  0  0
    8.4719   -0.9281   -1.6724 H   0  0  0  0  0  0  0  0  0  0  0  0
    7.5941   -2.0535   -0.8748 H   0  0  0  0  0  0  0  0  0  0  0  0
    5.7539   -1.6448   -2.0404 H   0  0  0  0  0  0  0  0  0  0  0  0
    6.6576   -0.4255   -2.9589 H   0  0  0  0  0  0  0  0  0  0  0  0
    5.7013    0.0559   -1.5789 H   0  0  0  0  0  0  0  0  0  0  0  0
    7.7194    1.6536    1.2768 H   0  0  0  0  0  0  0  0  0  0  0  0
    6.7648    0.5612    2.1270 H   0  0  0  0  0  0  0  0  0  0  0  0
    5.4665    2.3100    1.6645 H   0  0  0  0  0  0  0  0  0  0  0  0
    4.7573    3.3084   -0.4036 H   0  0  0  0  0  0  0  0  0  0  0  0
    5.6069    2.1264   -1.3713 H   0  0  0  0  0  0  0  0  0  0  0  0
    7.8676    3.4353   -2.1735 H   0  0  0  0  0  0  0  0  0  0  0  0
    7.8792    1.9001   -1.3126 H   0  0  0  0  0  0  0  0  0  0  0  0
    9.5197    2.4442    0.1738 H   0  0  0  0  0  0  0  0  0  0  0  0
    9.2146    4.1587    0.1523 H   0  0  0  0  0  0  0  0  0  0  0  0
   10.3225    2.8392   -2.4104 H   0  0  0  0  0  0  0  0  0  0  0  0
   11.4687    4.5940   -0.1522 H   0  0  0  0  0  0  0  0  0  0  0  0
   12.4968    3.6971   -2.7234 H   0  0  0  0  0  0  0  0  0  0  0  0
   13.6827    3.3418   -0.0328 H   0  0  0  0  0  0  0  0  0  0  0  0
   14.4913    3.1832   -1.5783 H   0  0  0  0  0  0  0  0  0  0  0  0
   12.7370    1.3271   -2.2292 H   0  0  0  0  0  0  0  0  0  0  0  0
   14.0268    1.0172   -1.0933 H   0  0  0  0  0  0  0  0  0  0  0  0
   12.6845   -0.0826    0.1427 H   0  0  0  0  0  0  0  0  0  0  0  0
   12.0431    1.3966    0.8183 H   0  0  0  0  0  0  0  0  0  0  0  0
   10.8725   -0.9350   -0.7335 H   0  0  0  0  0  0  0  0  0  0  0  0
   10.1322    0.5410   -1.3204 H   0  0  0  0  0  0  0  0  0  0  0  0
    9.4529    0.4053    1.5760 H   0  0  0  0  0  0  0  0  0  0  0  0
    9.5438   -1.2922    1.1095 H   0  0  0  0  0  0  0  0  0  0  0  0
    3.4778    1.6323    0.5426 H   0  0  0  0  0  0  0  0  0  0  0  0
  1  2  1  0  0  0  0
  1 24  1  0  0  0  0
  1 25  1  0  0  0  0
  1 26  1  0  0  0  0
  2  3  1  0  0  0  0
  2 23  2  0  0  0  0
  3  4  2  0  0  0  0
  3 27  1  0  0  0  0
  4  5  1  0  0  0  0
  4 28  1  0  0  0  0
  5  6  1  0  0  0  0
  5  8  1  0  0  0  0
  5 22  1  0  0  0  0
  6  7  1  0  0  0  0
  6 29  1  0  0  0  0
  6 30  1  0  0  0  0
  7 31  1  0  0  0  0
  7 32  1  0  0  0  0
  7 33  1  0  0  0  0
  8  9  1  0  0  0  0
  8 34  1  0  0  0  0
  8 35  1  0  0  0  0
  9 10  1  0  0  0  0
  9 23  1  0  0  0  0
  9 36  1  0  0  0  0
 10 11  1  0  0  0  0
 10 37  1  0  0  0  0
 10 38  1  0  0  0  0
 11 12  2  0  0  0  0
 11 13  1  0  0  0  0
 13 14  1  0  0  0  0
 13 39  1  0  0  0  0
 13 40  1  0  0  0  0
 14 15  1  0  0  0  0
 14 41  1  0  0  0  0
 14 42  1  0  0  0  0
 15 16  2  3  0  0  0
 15 43  1  0  0  0  0
 16 17  1  0  0  0  0
 16 44  1  0  0  0  0
 17 18  1  0  0  0  0
 17 45  1  0  0  0  0
 18 19  1  0  0  0  0
 18 46  1  0  0  0  0
 18 47  1  0  0  0  0
 19 20  1  0  0  0  0
 19 48  1  0  0  0  0
 19 49  1  0  0  0  0
 20 21  1  0  0  0  0
 20 50  1  0  0  0  0
 20 51  1  0  0  0  0
 21 22  1  0  0  0  0
 21 52  1  0  0  0  0
 21 53  1  0  0  0  0
 22 54  1  0  0  0  0
 22 55  1  0  0  0  0
 23 56  1  0  0  0  0
M  END
$$$$
