
 OpenBabel04232217013D

183182  0  0  0  0  0  0  0  0999 V2000
    0.5229   -0.0401   -0.0025 O   0  0  0  0  0  0  0  0  0  0  0  0
    1.9499    0.1751   -0.0988 N   0  0  0  0  0  0  0  0  0  0  0  0
    2.2620    1.1511    0.9428 C   0  0  0  0  0  0  0  0  0  0  0  0
    2.5380   -1.0992    0.2276 C   0  0  0  0  0  0  0  0  0  0  0  0
    3.9356   -0.9555    0.1819 O   0  0  0  0  0  0  0  0  0  0  0  0
    4.3958   -2.2348    0.5602 O   0  0  0  0  0  0  0  0  0  0  0  0
    5.7882   -2.2222    0.5457 O   0  0  0  0  0  0  0  0  0  0  0  0
    6.2246   -3.5107    0.9001 O   0  0  0  0  0  0  0  0  0  0  0  0
    7.6221   -3.5045    0.8955 O   0  0  0  0  0  0  0  0  0  0  0  0
    8.0450   -4.7891    1.2345 O   0  0  0  0  0  0  0  0  0  0  0  0
    9.4284   -4.7590    1.2405 O   0  0  0  0  0  0  0  0  0  0  0  0
    9.8565   -6.0342    1.5954 O   0  0  0  0  0  0  0  0  0  0  0  0
   11.2432   -6.0016    1.5803 O   0  0  0  0  0  0  0  0  0  0  0  0
   11.6468   -7.2968    1.9379 O   0  0  0  0  0  0  0  0  0  0  0  0
   13.0290   -7.2637    1.9272 O   0  0  0  0  0  0  0  0  0  0  0  0
   13.4437   -8.5390    2.2790 O   0  0  0  0  0  0  0  0  0  0  0  0
   14.8227   -8.5044    2.2679 O   0  0  0  0  0  0  0  0  0  0  0  0
   15.2499   -9.7646    2.6150 O   0  0  0  0  0  0  0  0  0  0  0  0
   16.6318   -9.7169    2.5995 O   0  0  0  0  0  0  0  0  0  0  0  0
   17.0667  -10.9847    2.9510 O   0  0  0  0  0  0  0  0  0  0  0  0
   18.4494  -10.9351    2.9349 O   0  0  0  0  0  0  0  0  0  0  0  0
   18.8894  -12.1997    3.2811 O   0  0  0  0  0  0  0  0  0  0  0  0
   20.2779  -12.1462    3.2637 O   0  0  0  0  0  0  0  0  0  0  0  0
   20.7328  -13.4090    3.6133 O   0  0  0  0  0  0  0  0  0  0  0  0
   22.1209  -13.3487    3.5957 O   0  0  0  0  0  0  0  0  0  0  0  0
   22.5789  -14.6144    3.9474 O   0  0  0  0  0  0  0  0  0  0  0  0
   23.9731  -14.5770    3.9322 O   0  0  0  0  0  0  0  0  0  0  0  0
   24.2811  -15.8783    4.2937 C   0  0  0  0  0  0  0  0  0  0  0  0
   25.6639  -15.9236    4.3023 O   0  0  0  0  0  0  0  0  0  0  0  0
   26.0682  -17.2145    4.6608 C   0  0  0  0  0  0  0  0  0  0  0  0
   27.5575  -17.1415    4.6364 C   0  0  0  0  0  0  0  0  0  0  0  0
   28.0693  -18.4982    5.0149 C   0  0  0  0  0  0  0  0  0  0  0  0
   29.5749  -18.4710    5.0032 C   0  0  0  0  0  0  0  0  0  0  0  0
   30.0683  -19.8425    5.3859 C   0  0  0  0  0  0  0  0  0  0  0  0
   31.5778  -19.8417    5.3816 C   0  0  0  0  0  0  0  0  0  0  0  0
   32.0770  -21.2165    5.7653 C   0  0  0  0  0  0  0  0  0  0  0  0
   33.5902  -21.2186    5.7639 C   0  0  0  0  0  0  0  0  0  0  0  0
   34.0969  -22.5932    6.1494 C   0  0  0  0  0  0  0  0  0  0  0  0
   35.6119  -22.5958    6.1503 C   0  0  0  0  0  0  0  0  0  0  0  0
   36.1208  -23.9712    6.5341 C   0  0  0  0  0  0  0  0  0  0  0  0
   37.6369  -23.9745    6.5372 C   0  0  0  0  0  0  0  0  0  0  0  0
   38.1465  -25.3506    6.9191 C   0  0  0  0  0  0  0  0  0  0  0  0
   39.6629  -25.3544    6.9224 C   0  0  0  0  0  0  0  0  0  0  0  0
   40.1728  -26.7306    7.3043 C   0  0  0  0  0  0  0  0  0  0  0  0
   41.6893  -26.7345    7.3076 C   0  0  0  0  0  0  0  0  0  0  0  0
   42.1993  -28.1107    7.6894 C   0  0  0  0  0  0  0  0  0  0  0  0
   43.7159  -28.1146    7.6926 C   0  0  0  0  0  0  0  0  0  0  0  0
   44.2259  -29.4914    8.0727 C   0  0  0  0  0  0  0  0  0  0  0  0
   45.7426  -29.4960    8.0741 C   0  0  0  0  0  0  0  0  0  0  0  0
   46.2526  -30.8724    8.4560 C   0  0  0  0  0  0  0  0  0  0  0  0
   47.7693  -30.8767    8.4593 C   0  0  0  0  0  0  0  0  0  0  0  0
   48.2795  -32.2530    8.8413 C   0  0  0  0  0  0  0  0  0  0  0  0
   49.7962  -32.2577    8.8428 C   0  0  0  0  0  0  0  0  0  0  0  0
   50.3063  -33.6335    9.2266 C   0  0  0  0  0  0  0  0  0  0  0  0
   51.8229  -33.6378    9.2300 C   0  0  0  0  0  0  0  0  0  0  0  0
   52.3329  -35.0141    9.6119 C   0  0  0  0  0  0  0  0  0  0  0  0
   53.8495  -35.0181    9.6152 C   0  0  0  0  0  0  0  0  0  0  0  0
   54.3596  -36.3949    9.9952 C   0  0  0  0  0  0  0  0  0  0  0  0
   55.8763  -36.3988    9.9984 C   0  0  0  0  0  0  0  0  0  0  0  0
   56.3864  -37.7756   10.3784 C   0  0  0  0  0  0  0  0  0  0  0  0
   57.9031  -37.7796   10.3817 C   0  0  0  0  0  0  0  0  0  0  0  0
   58.4132  -39.1565   10.7617 C   0  0  0  0  0  0  0  0  0  0  0  0
   59.9299  -39.1607   10.7651 C   0  0  0  0  0  0  0  0  0  0  0  0
   60.4401  -40.5376   11.1451 C   0  0  0  0  0  0  0  0  0  0  0  0
   61.9569  -40.5418   11.1485 C   0  0  0  0  0  0  0  0  0  0  0  0
   62.4675  -41.9187   11.5284 C   0  0  0  0  0  0  0  0  0  0  0  0
   63.9845  -41.9230   11.5318 C   0  0  0  0  0  0  0  0  0  0  0  0
   64.4955  -43.3005   11.9099 C   0  0  0  0  0  0  0  0  0  0  0  0
   66.0126  -43.3050   11.9133 C   0  0  0  0  0  0  0  0  0  0  0  0
   66.5240  -44.6824   12.2914 C   0  0  0  0  0  0  0  0  0  0  0  0
   68.0413  -44.6875   12.2952 C   0  0  0  0  0  0  0  0  0  0  0  0
   68.5500  -46.0657   12.6733 C   0  0  0  0  0  0  0  0  0  0  0  0
   70.0664  -46.0782   12.6771 C   0  0  0  0  0  0  0  0  0  0  0  0
   70.5627  -47.4655   13.0500 C   0  0  0  0  0  0  0  0  0  0  0  0
   72.0142  -47.4271   13.0236 N   0  0  0  0  0  0  0  0  0  0  0  0
   72.5039  -48.7133   13.4219 N   0  0  0  0  0  0  0  0  0  0  0  0
   73.9522  -48.7365   13.3956 N   0  0  0  0  0  0  0  0  0  0  0  0
   74.5189  -47.8136   14.3685 N   0  0  0  0  0  0  0  0  0  0  0  0
   75.9521  -47.7930   14.3915 N   0  0  0  0  0  0  0  0  0  0  0  0
    0.2534    0.5865   -0.6920 H   0  0  0  0  0  0  0  0  0  0  0  0
    1.8279    2.1135    0.6756 H   0  0  0  0  0  0  0  0  0  0  0  0
    3.3468    1.3058    1.0313 H   0  0  0  0  0  0  0  0  0  0  0  0
    1.8849    0.8399    1.9229 H   0  0  0  0  0  0  0  0  0  0  0  0
    2.2662   -1.8769   -0.4977 H   0  0  0  0  0  0  0  0  0  0  0  0
    2.2445   -1.4586    1.2276 H   0  0  0  0  0  0  0  0  0  0  0  0
   23.8637  -16.5803    3.5565 H   0  0  0  0  0  0  0  0  0  0  0  0
   23.8687  -16.0976    5.2898 H   0  0  0  0  0  0  0  0  0  0  0  0
   25.6886  -17.9427    3.9360 H   0  0  0  0  0  0  0  0  0  0  0  0
   25.6932  -17.4624    5.6598 H   0  0  0  0  0  0  0  0  0  0  0  0
   27.9106  -16.3665    5.3295 H   0  0  0  0  0  0  0  0  0  0  0  0
   27.9060  -16.8394    3.6399 H   0  0  0  0  0  0  0  0  0  0  0  0
   27.6933  -19.2486    4.3084 H   0  0  0  0  0  0  0  0  0  0  0  0
   27.6979  -18.7720    6.0102 H   0  0  0  0  0  0  0  0  0  0  0  0
   29.9416  -17.7154    5.7087 H   0  0  0  0  0  0  0  0  0  0  0  0
   29.9371  -18.1921    4.0062 H   0  0  0  0  0  0  0  0  0  0  0  0
   29.6853  -20.5893    4.6790 H   0  0  0  0  0  0  0  0  0  0  0  0
   29.6899  -20.1129    6.3798 H   0  0  0  0  0  0  0  0  0  0  0  0
   31.9523  -19.0906    6.0878 H   0  0  0  0  0  0  0  0  0  0  0  0
   31.9478  -19.5671    4.3862 H   0  0  0  0  0  0  0  0  0  0  0  0
   31.6969  -21.9640    5.0577 H   0  0  0  0  0  0  0  0  0  0  0  0
   31.6992  -21.4884    6.7588 H   0  0  0  0  0  0  0  0  0  0  0  0
   33.9656  -20.4674    6.4697 H   0  0  0  0  0  0  0  0  0  0  0  0
   33.9634  -20.9451    4.7692 H   0  0  0  0  0  0  0  0  0  0  0  0
   33.7197  -23.3423    5.4424 H   0  0  0  0  0  0  0  0  0  0  0  0
   33.7198  -22.8654    7.1430 H   0  0  0  0  0  0  0  0  0  0  0  0
   35.9869  -21.8461    6.8580 H   0  0  0  0  0  0  0  0  0  0  0  0
   35.9872  -22.3208    5.1568 H   0  0  0  0  0  0  0  0  0  0  0  0
   35.7457  -24.7198    5.8254 H   0  0  0  0  0  0  0  0  0  0  0  0
   35.7434  -24.2461    7.5268 H   0  0  0  0  0  0  0  0  0  0  0  0
   38.0112  -23.2263    7.2468 H   0  0  0  0  0  0  0  0  0  0  0  0
   38.0137  -23.6978    5.5448 H   0  0  0  0  0  0  0  0  0  0  0  0
   37.7718  -26.0985    6.2094 H   0  0  0  0  0  0  0  0  0  0  0  0
   37.7693  -25.6272    7.9114 H   0  0  0  0  0  0  0  0  0  0  0  0
   40.0374  -24.6064    7.6320 H   0  0  0  0  0  0  0  0  0  0  0  0
   40.0399  -25.0777    5.9300 H   0  0  0  0  0  0  0  0  0  0  0  0
   39.7982  -27.4786    6.5946 H   0  0  0  0  0  0  0  0  0  0  0  0
   39.7957  -27.0073    8.2966 H   0  0  0  0  0  0  0  0  0  0  0  0
   42.0638  -25.9865    8.0172 H   0  0  0  0  0  0  0  0  0  0  0  0
   42.0663  -26.4578    6.3152 H   0  0  0  0  0  0  0  0  0  0  0  0
   41.8247  -28.8587    6.9797 H   0  0  0  0  0  0  0  0  0  0  0  0
   41.8223  -28.3875    8.6817 H   0  0  0  0  0  0  0  0  0  0  0  0
   44.0904  -27.3675    8.4033 H   0  0  0  0  0  0  0  0  0  0  0  0
   44.0928  -27.8365    6.7007 H   0  0  0  0  0  0  0  0  0  0  0  0
   43.8502  -30.2387    7.3630 H   0  0  0  0  0  0  0  0  0  0  0  0
   43.8499  -29.7685    9.0653 H   0  0  0  0  0  0  0  0  0  0  0  0
   46.1182  -28.7479    8.7831 H   0  0  0  0  0  0  0  0  0  0  0  0
   46.1185  -29.2198    7.0812 H   0  0  0  0  0  0  0  0  0  0  0  0
   45.8779  -31.6203    7.7463 H   0  0  0  0  0  0  0  0  0  0  0  0
   45.8757  -31.1490    9.4483 H   0  0  0  0  0  0  0  0  0  0  0  0
   48.1440  -30.1287    9.1689 H   0  0  0  0  0  0  0  0  0  0  0  0
   48.1464  -30.6000    7.4669 H   0  0  0  0  0  0  0  0  0  0  0  0
   47.9038  -33.0013    8.1325 H   0  0  0  0  0  0  0  0  0  0  0  0
   47.9035  -32.5289    9.8342 H   0  0  0  0  0  0  0  0  0  0  0  0
   50.1720  -31.5085    9.5505 H   0  0  0  0  0  0  0  0  0  0  0  0
   50.1721  -31.9831    7.8494 H   0  0  0  0  0  0  0  0  0  0  0  0
   49.9316  -34.3825    8.5180 H   0  0  0  0  0  0  0  0  0  0  0  0
   49.9293  -33.9088   10.2193 H   0  0  0  0  0  0  0  0  0  0  0  0
   52.1976  -32.8898    9.9396 H   0  0  0  0  0  0  0  0  0  0  0  0
   52.2001  -33.3612    8.2376 H   0  0  0  0  0  0  0  0  0  0  0  0
   51.9583  -35.7621    8.9022 H   0  0  0  0  0  0  0  0  0  0  0  0
   51.9559  -35.2908   10.6042 H   0  0  0  0  0  0  0  0  0  0  0  0
   54.2240  -34.2711   10.3259 H   0  0  0  0  0  0  0  0  0  0  0  0
   54.2266  -34.7401    8.6233 H   0  0  0  0  0  0  0  0  0  0  0  0
   53.9851  -37.1419    9.2845 H   0  0  0  0  0  0  0  0  0  0  0  0
   53.9827  -36.6730   10.9872 H   0  0  0  0  0  0  0  0  0  0  0  0
   56.2508  -35.6517   10.7091 H   0  0  0  0  0  0  0  0  0  0  0  0
   56.2532  -36.1208    9.0065 H   0  0  0  0  0  0  0  0  0  0  0  0
   56.0119  -38.5226    9.6677 H   0  0  0  0  0  0  0  0  0  0  0  0
   56.0094  -38.0536   11.3704 H   0  0  0  0  0  0  0  0  0  0  0  0
   58.2776  -37.0326   11.0925 H   0  0  0  0  0  0  0  0  0  0  0  0
   58.2801  -37.5016    9.3898 H   0  0  0  0  0  0  0  0  0  0  0  0
   58.0386  -39.9034   10.0510 H   0  0  0  0  0  0  0  0  0  0  0  0
   58.0361  -39.4345   11.7537 H   0  0  0  0  0  0  0  0  0  0  0  0
   60.3044  -38.4136   11.4758 H   0  0  0  0  0  0  0  0  0  0  0  0
   60.3069  -38.8826    9.7731 H   0  0  0  0  0  0  0  0  0  0  0  0
   60.0655  -41.2845   10.4343 H   0  0  0  0  0  0  0  0  0  0  0  0
   60.0630  -40.8155   12.1370 H   0  0  0  0  0  0  0  0  0  0  0  0
   62.3314  -39.7947   11.8592 H   0  0  0  0  0  0  0  0  0  0  0  0
   62.3338  -40.2636   10.1565 H   0  0  0  0  0  0  0  0  0  0  0  0
   62.0928  -42.6656   10.8176 H   0  0  0  0  0  0  0  0  0  0  0  0
   62.0904  -42.1968   12.5203 H   0  0  0  0  0  0  0  0  0  0  0  0
   64.3587  -41.1768   12.2435 H   0  0  0  0  0  0  0  0  0  0  0  0
   64.3613  -41.6435   10.5403 H   0  0  0  0  0  0  0  0  0  0  0  0
   64.1208  -44.0464   11.1982 H   0  0  0  0  0  0  0  0  0  0  0  0
   64.1183  -43.5799   12.9014 H   0  0  0  0  0  0  0  0  0  0  0  0
   66.3870  -42.5589   12.6251 H   0  0  0  0  0  0  0  0  0  0  0  0
   66.3894  -43.0255   10.9218 H   0  0  0  0  0  0  0  0  0  0  0  0
   66.1494  -45.4284   11.5797 H   0  0  0  0  0  0  0  0  0  0  0  0
   66.1468  -44.9619   13.2829 H   0  0  0  0  0  0  0  0  0  0  0  0
   68.4162  -43.9419   13.0070 H   0  0  0  0  0  0  0  0  0  0  0  0
   68.4187  -44.4085   11.3037 H   0  0  0  0  0  0  0  0  0  0  0  0
   68.1746  -46.8110   11.9614 H   0  0  0  0  0  0  0  0  0  0  0  0
   68.1731  -46.3445   13.6650 H   0  0  0  0  0  0  0  0  0  0  0  0
   70.4418  -45.3309   13.3900 H   0  0  0  0  0  0  0  0  0  0  0  0
   70.4449  -45.7949   11.6860 H   0  0  0  0  0  0  0  0  0  0  0  0
   70.1861  -48.1999   12.3287 H   0  0  0  0  0  0  0  0  0  0  0  0
   70.1945  -47.7365   14.0480 H   0  0  0  0  0  0  0  0  0  0  0  0
   72.3121  -46.7166   13.6912 H   0  0  0  0  0  0  0  0  0  0  0  0
   72.1165  -49.4148   12.7730 H   0  0  0  0  0  0  0  0  0  0  0  0
   74.2382  -48.4867   12.4411 H   0  0  0  0  0  0  0  0  0  0  0  0
   74.1526  -48.0012   15.3149 H   0  0  0  0  0  0  0  0  0  0  0  0
   76.3724  -47.4400   13.5279 H   0  0  0  0  0  0  0  0  0  0  0  0
   76.3719  -48.7034   14.5937 H   0  0  0  0  0  0  0  0  0  0  0  0
  1  2  1  0  0  0  0
  1 80  1  0  0  0  0
  2  3  1  0  0  0  0
  2  4  1  0  0  0  0
  3 81  1  0  0  0  0
  3 82  1  0  0  0  0
  3 83  1  0  0  0  0
  4  5  1  0  0  0  0
  4 84  1  0  0  0  0
  4 85  1  0  0  0  0
  5  6  1  0  0  0  0
  6  7  1  0  0  0  0
  7  8  1  0  0  0  0
  8  9  1  0  0  0  0
  9 10  1  0  0  0  0
 10 11  1  0  0  0  0
 11 12  1  0  0  0  0
 12 13  1  0  0  0  0
 13 14  1  0  0  0  0
 14 15  1  0  0  0  0
 15 16  1  0  0  0  0
 16 17  1  0  0  0  0
 17 18  1  0  0  0  0
 18 19  1  0  0  0  0
 19 20  1  0  0  0  0
 20 21  1  0  0  0  0
 21 22  1  0  0  0  0
 22 23  1  0  0  0  0
 23 24  1  0  0  0  0
 24 25  1  0  0  0  0
 25 26  1  0  0  0  0
 26 27  1  0  0  0  0
 27 28  1  0  0  0  0
 28 29  1  0  0  0  0
 28 86  1  0  0  0  0
 28 87  1  0  0  0  0
 29 30  1  0  0  0  0
 30 31  1  0  0  0  0
 30 88  1  0  0  0  0
 30 89  1  0  0  0  0
 31 32  1  0  0  0  0
 31 90  1  0  0  0  0
 31 91  1  0  0  0  0
 32 33  1  0  0  0  0
 32 92  1  0  0  0  0
 32 93  1  0  0  0  0
 33 34  1  0  0  0  0
 33 94  1  0  0  0  0
 33 95  1  0  0  0  0
 34 35  1  0  0  0  0
 34 96  1  0  0  0  0
 34 97  1  0  0  0  0
 35 36  1  0  0  0  0
 35 98  1  0  0  0  0
 35 99  1  0  0  0  0
 36 37  1  0  0  0  0
 36100  1  0  0  0  0
 36101  1  0  0  0  0
 37 38  1  0  0  0  0
 37102  1  0  0  0  0
 37103  1  0  0  0  0
 38 39  1  0  0  0  0
 38104  1  0  0  0  0
 38105  1  0  0  0  0
 39 40  1  0  0  0  0
 39106  1  0  0  0  0
 39107  1  0  0  0  0
 40 41  1  0  0  0  0
 40108  1  0  0  0  0
 40109  1  0  0  0  0
 41 42  1  0  0  0  0
 41110  1  0  0  0  0
 41111  1  0  0  0  0
 42 43  1  0  0  0  0
 42112  1  0  0  0  0
 42113  1  0  0  0  0
 43 44  1  0  0  0  0
 43114  1  0  0  0  0
 43115  1  0  0  0  0
 44 45  1  0  0  0  0
 44116  1  0  0  0  0
 44117  1  0  0  0  0
 45 46  1  0  0  0  0
 45118  1  0  0  0  0
 45119  1  0  0  0  0
 46 47  1  0  0  0  0
 46120  1  0  0  0  0
 46121  1  0  0  0  0
 47 48  1  0  0  0  0
 47122  1  0  0  0  0
 47123  1  0  0  0  0
 48 49  1  0  0  0  0
 48124  1  0  0  0  0
 48125  1  0  0  0  0
 49 50  1  0  0  0  0
 49126  1  0  0  0  0
 49127  1  0  0  0  0
 50 51  1  0  0  0  0
 50128  1  0  0  0  0
 50129  1  0  0  0  0
 51 52  1  0  0  0  0
 51130  1  0  0  0  0
 51131  1  0  0  0  0
 52 53  1  0  0  0  0
 52132  1  0  0  0  0
 52133  1  0  0  0  0
 53 54  1  0  0  0  0
 53134  1  0  0  0  0
 53135  1  0  0  0  0
 54 55  1  0  0  0  0
 54136  1  0  0  0  0
 54137  1  0  0  0  0
 55 56  1  0  0  0  0
 55138  1  0  0  0  0
 55139  1  0  0  0  0
 56 57  1  0  0  0  0
 56140  1  0  0  0  0
 56141  1  0  0  0  0
 57 58  1  0  0  0  0
 57142  1  0  0  0  0
 57143  1  0  0  0  0
 58 59  1  0  0  0  0
 58144  1  0  0  0  0
 58145  1  0  0  0  0
 59 60  1  0  0  0  0
 59146  1  0  0  0  0
 59147  1  0  0  0  0
 60 61  1  0  0  0  0
 60148  1  0  0  0  0
 60149  1  0  0  0  0
 61 62  1  0  0  0  0
 61150  1  0  0  0  0
 61151  1  0  0  0  0
 62 63  1  0  0  0  0
 62152  1  0  0  0  0
 62153  1  0  0  0  0
 63 64  1  0  0  0  0
 63154  1  0  0  0  0
 63155  1  0  0  0  0
 64 65  1  0  0  0  0
 64156  1  0  0  0  0
 64157  1  0  0  0  0
 65 66  1  0  0  0  0
 65158  1  0  0  0  0
 65159  1  0  0  0  0
 66 67  1  0  0  0  0
 66160  1  0  0  0  0
 66161  1  0  0  0  0
 67 68  1  0  0  0  0
 67162  1  0  0  0  0
 67163  1  0  0  0  0
 68 69  1  0  0  0  0
 68164  1  0  0  0  0
 68165  1  0  0  0  0
 69 70  1  0  0  0  0
 69166  1  0  0  0  0
 69167  1  0  0  0  0
 70 71  1  0  0  0  0
 70168  1  0  0  0  0
 70169  1  0  0  0  0
 71 72  1  0  0  0  0
 71170  1  0  0  0  0
 71171  1  0  0  0  0
 72 73  1  0  0  0  0
 72172  1  0  0  0  0
 72173  1  0  0  0  0
 73 74  1  0  0  0  0
 73174  1  0  0  0  0
 73175  1  0  0  0  0
 74 75  1  0  0  0  0
 74176  1  0  0  0  0
 74177  1  0  0  0  0
 75 76  1  0  0  0  0
 75178  1  0  0  0  0
 76 77  1  0  0  0  0
 76179  1  0  0  0  0
 77 78  1  0  0  0  0
 77180  1  0  0  0  0
 78 79  1  0  0  0  0
 78181  1  0  0  0  0
 79182  1  0  0  0  0
 79183  1  0  0  0  0
M  END
$$$$
