
 OpenBabel04232217003D

 44 45  0  0  0  0  0  0  0  0999 V2000
    1.6334   -2.5418   -1.2855 O   0  0  0  0  0  0  0  0  0  0  0  0
    2.8812   -1.9916   -1.1464 C   0  0  0  0  0  0  0  0  0  0  0  0
    2.9721   -0.5944   -0.8602 C   0  0  0  0  0  0  0  0  0  0  0  0
    4.2227    0.0353   -0.6491 C   0  0  0  0  0  0  0  0  0  0  0  0
    4.3186    1.5180   -0.3878 C   0  0  0  0  0  0  0  0  0  0  0  0
    5.3728   -0.7606   -0.5933 C   0  0  0  0  0  0  0  0  0  0  0  0
    6.7585   -0.2163   -0.2976 C   0  0  0  0  0  0  0  0  0  0  0  0
    7.7831   -0.4334   -1.4247 C   0  0  0  0  0  0  0  0  0  0  0  0
    7.4705    0.3385   -2.6982 C   0  0  0  0  0  0  0  0  0  0  0  0
    5.2181   -2.1521   -0.7423 C   0  0  0  0  0  0  0  0  0  0  0  0
    6.2210   -3.0080   -0.2537 N   0  0  0  0  0  0  0  0  0  0  0  0
    5.8012   -3.4419    0.8503 N   0  0  0  0  0  0  0  0  0  0  0  0
    5.9949   -4.7899    1.0224 C   0  0  0  0  0  0  0  0  0  0  0  0
    7.3893   -5.2653    0.7071 C   0  0  0  0  0  0  0  0  0  0  0  0
    4.9540   -5.6063    1.3258 C   0  0  0  0  0  0  0  0  0  0  0  0
    3.5274   -5.1466    1.5840 C   0  0  0  0  0  0  0  0  0  0  0  0
    5.0074   -6.9566    1.3957 N   0  0  0  0  0  0  0  0  0  0  0  0
    4.8291   -7.6350    0.2930 C   0  0  0  0  0  0  0  0  0  0  0  0
    4.9538   -7.2380   -1.1414 C   0  0  0  0  0  0  0  0  0  0  0  0
    4.4461   -6.3253   -1.9223 N   0  0  0  0  0  0  0  0  0  0  0  0
    3.6765   -5.2519   -1.5352 C   0  0  0  0  0  0  0  0  0  0  0  0
    2.4082   -5.4549   -1.2192 F   0  0  0  0  0  0  0  0  0  0  0  0
    4.2656   -4.1241   -1.5803 N   0  0  0  0  0  0  0  0  0  0  0  0
    4.0228   -2.7884   -1.1790 C   0  0  0  0  0  0  0  0  0  0  0  0
    0.9826   -1.9159   -0.9234 H   0  0  0  0  0  0  0  0  0  0  0  0
    2.0759    0.0143   -0.8219 H   0  0  0  0  0  0  0  0  0  0  0  0
    3.3515    2.0221   -0.4561 H   0  0  0  0  0  0  0  0  0  0  0  0
    4.9911    1.9913   -1.1139 H   0  0  0  0  0  0  0  0  0  0  0  0
    4.7129    1.6962    0.6205 H   0  0  0  0  0  0  0  0  0  0  0  0
    7.1252   -0.7094    0.6120 H   0  0  0  0  0  0  0  0  0  0  0  0
    6.7368    0.8478   -0.0516 H   0  0  0  0  0  0  0  0  0  0  0  0
    7.8817   -1.4963   -1.6718 H   0  0  0  0  0  0  0  0  0  0  0  0
    8.7655   -0.1094   -1.0598 H   0  0  0  0  0  0  0  0  0  0  0  0
    6.5059    0.0468   -3.1238 H   0  0  0  0  0  0  0  0  0  0  0  0
    8.2399    0.1395   -3.4528 H   0  0  0  0  0  0  0  0  0  0  0  0
    7.4569    1.4170   -2.5111 H   0  0  0  0  0  0  0  0  0  0  0  0
    8.1010   -4.4285    0.7542 H   0  0  0  0  0  0  0  0  0  0  0  0
    7.4259   -5.6536   -0.3164 H   0  0  0  0  0  0  0  0  0  0  0  0
    7.7367   -6.0214    1.4102 H   0  0  0  0  0  0  0  0  0  0  0  0
    3.3477   -4.0860    1.4178 H   0  0  0  0  0  0  0  0  0  0  0  0
    3.2217   -5.4135    2.5996 H   0  0  0  0  0  0  0  0  0  0  0  0
    2.8483   -5.7047    0.9272 H   0  0  0  0  0  0  0  0  0  0  0  0
    4.6754   -8.7187    0.4289 H   0  0  0  0  0  0  0  0  0  0  0  0
    5.6625   -7.9239   -1.6342 H   0  0  0  0  0  0  0  0  0  0  0  0
  1  2  1  0  0  0  0
  1 25  1  0  0  0  0
  2  3  1  0  0  0  0
  2 24  2  0  0  0  0
  3  4  2  0  0  0  0
  3 26  1  0  0  0  0
  4  5  1  0  0  0  0
  4  6  1  0  0  0  0
  5 27  1  0  0  0  0
  5 28  1  0  0  0  0
  5 29  1  0  0  0  0
  6  7  1  0  0  0  0
  6 10  2  0  0  0  0
  7  8  1  0  0  0  0
  7 30  1  0  0  0  0
  7 31  1  0  0  0  0
  8  9  1  0  0  0  0
  8 32  1  0  0  0  0
  8 33  1  0  0  0  0
  9 34  1  0  0  0  0
  9 35  1  0  0  0  0
  9 36  1  0  0  0  0
 10 11  1  0  0  0  0
 10 24  1  0  0  0  0
 11 12  2  3  0  0  0
 12 13  1  0  0  0  0
 13 14  1  0  0  0  0
 13 15  2  3  0  0  0
 14 37  1  0  0  0  0
 14 38  1  0  0  0  0
 14 39  1  0  0  0  0
 15 16  1  0  0  0  0
 15 17  1  0  0  0  0
 16 40  1  0  0  0  0
 16 41  1  0  0  0  0
 16 42  1  0  0  0  0
 17 18  2  3  0  0  0
 18 19  1  0  0  0  0
 18 43  1  0  0  0  0
 19 20  2  3  0  0  0
 19 44  1  0  0  0  0
 20 21  1  0  0  0  0
 21 22  1  0  0  0  0
 21 23  2  3  0  0  0
 23 24  1  0  0  0  0
M  END
$$$$
