
 OpenBabel04232216543D

228227  0  0  0  0  0  0  0  0999 V2000
    8.6805   -1.2656   -5.4119 C   0  0  0  0  0  0  0  0  0  0  0  0
    8.1980   -0.9236   -4.0164 C   0  0  0  0  0  0  0  0  0  0  0  0
    8.7293   -1.9372   -3.0091 C   0  0  0  0  0  0  0  0  0  0  0  0
    8.2481   -1.6008   -1.6021 C   0  0  0  0  0  0  0  0  0  0  0  0
    8.7689   -2.5848   -0.6671 N   0  0  0  0  0  0  0  0  0  0  0  0
    8.3062   -2.2505    0.6345 N   0  0  0  0  0  0  0  0  0  0  0  0
    8.7946   -3.1919    1.5337 N   0  0  0  0  0  0  0  0  0  0  0  0
    8.3554   -2.8859    2.8612 N   0  0  0  0  0  0  0  0  0  0  0  0
    8.8519   -3.8297    3.8036 N   0  0  0  0  0  0  0  0  0  0  0  0
   10.2713   -3.8354    3.8222 N   0  0  0  0  0  0  0  0  0  0  0  0
   10.7405   -4.7761    4.7547 N   0  0  0  0  0  0  0  0  0  0  0  0
   12.1496   -4.7782    4.7572 N   0  0  0  0  0  0  0  0  0  0  0  0
   12.6221   -5.7167    5.6945 N   0  0  0  0  0  0  0  0  0  0  0  0
   14.0262   -5.7128    5.6915 N   0  0  0  0  0  0  0  0  0  0  0  0
   14.4972   -6.6566    6.6328 N   0  0  0  0  0  0  0  0  0  0  0  0
   15.9146   -6.6621    6.6386 N   0  0  0  0  0  0  0  0  0  0  0  0
   16.4151   -7.6116    7.5901 N   0  0  0  0  0  0  0  0  0  0  0  0
   17.8371   -7.6161    7.5996 N   0  0  0  0  0  0  0  0  0  0  0  0
   18.3166   -8.5631    8.5433 N   0  0  0  0  0  0  0  0  0  0  0  0
   19.7341   -8.5700    8.5537 N   0  0  0  0  0  0  0  0  0  0  0  0
   20.1996   -9.5209    9.5050 N   0  0  0  0  0  0  0  0  0  0  0  0
   21.6547   -9.4983    9.4876 C   0  0  0  0  0  0  0  0  0  0  0  0
   22.1676  -10.5088   10.5011 C   0  0  0  0  0  0  0  0  0  0  0  0
   23.6868  -10.5137   10.5090 C   0  0  0  0  0  0  0  0  0  0  0  0
   24.2004  -11.5215   11.5200 C   0  0  0  0  0  0  0  0  0  0  0  0
   25.7170  -11.5263   11.5248 C   0  0  0  0  0  0  0  0  0  0  0  0
   26.2285  -12.5341   12.5357 C   0  0  0  0  0  0  0  0  0  0  0  0
   27.7445  -12.5384   12.5400 C   0  0  0  0  0  0  0  0  0  0  0  0
   28.2555  -13.5460   13.5508 C   0  0  0  0  0  0  0  0  0  0  0  0
   29.7713  -13.5502   13.5550 C   0  0  0  0  0  0  0  0  0  0  0  0
   30.2822  -14.5578   14.5657 C   0  0  0  0  0  0  0  0  0  0  0  0
   31.7980  -14.5620   14.5699 C   0  0  0  0  0  0  0  0  0  0  0  0
   32.3089  -15.5695   15.5806 C   0  0  0  0  0  0  0  0  0  0  0  0
   33.8246  -15.5723   15.5863 C   0  0  0  0  0  0  0  0  0  0  0  0
   34.3355  -16.5798   16.5970 C   0  0  0  0  0  0  0  0  0  0  0  0
   35.8513  -16.5841   16.6012 C   0  0  0  0  0  0  0  0  0  0  0  0
   36.3622  -17.5902   17.6133 C   0  0  0  0  0  0  0  0  0  0  0  0
   37.8780  -17.5958   17.6161 C   0  0  0  0  0  0  0  0  0  0  0  0
   38.3888  -18.6033   18.6268 C   0  0  0  0  0  0  0  0  0  0  0  0
   39.9046  -18.6076   18.6310 C   0  0  0  0  0  0  0  0  0  0  0  0
   40.4155  -19.6165   19.6403 C   0  0  0  0  0  0  0  0  0  0  0  0
   41.9313  -19.6207   19.6445 C   0  0  0  0  0  0  0  0  0  0  0  0
   42.4422  -20.6297   20.6538 C   0  0  0  0  0  0  0  0  0  0  0  0
   43.9579  -20.6339   20.6580 C   0  0  0  0  0  0  0  0  0  0  0  0
   44.4688  -21.6428   21.6673 C   0  0  0  0  0  0  0  0  0  0  0  0
   45.9846  -21.6471   21.6715 C   0  0  0  0  0  0  0  0  0  0  0  0
   46.4955  -22.6560   22.6808 C   0  0  0  0  0  0  0  0  0  0  0  0
   48.0113  -22.6602   22.6850 C   0  0  0  0  0  0  0  0  0  0  0  0
   48.5222  -23.6692   23.6943 C   0  0  0  0  0  0  0  0  0  0  0  0
   50.0379  -23.6748   23.6971 C   0  0  0  0  0  0  0  0  0  0  0  0
   50.5488  -24.6838   24.7064 C   0  0  0  0  0  0  0  0  0  0  0  0
   52.0646  -24.6880   24.7106 C   0  0  0  0  0  0  0  0  0  0  0  0
   52.5755  -25.6955   25.7213 C   0  0  0  0  0  0  0  0  0  0  0  0
   54.0912  -25.7012   25.7241 C   0  0  0  0  0  0  0  0  0  0  0  0
   54.6021  -26.7101   26.7333 C   0  0  0  0  0  0  0  0  0  0  0  0
   56.1179  -26.7172   26.7347 C   0  0  0  0  0  0  0  0  0  0  0  0
   56.6288  -27.7276   27.7426 C   0  0  0  0  0  0  0  0  0  0  0  0
   58.1445  -27.7333   27.7454 C   0  0  0  0  0  0  0  0  0  0  0  0
   58.6554  -28.7436   28.7532 C   0  0  0  0  0  0  0  0  0  0  0  0
   60.1712  -28.7507   28.7546 C   0  0  0  0  0  0  0  0  0  0  0  0
   60.6821  -29.7611   29.7625 C   0  0  0  0  0  0  0  0  0  0  0  0
   62.1978  -29.7682   29.7638 C   0  0  0  0  0  0  0  0  0  0  0  0
   62.7087  -30.7785   30.7717 C   0  0  0  0  0  0  0  0  0  0  0  0
   64.2245  -30.7856   30.7731 C   0  0  0  0  0  0  0  0  0  0  0  0
   64.7354  -31.7960   31.7809 C   0  0  0  0  0  0  0  0  0  0  0  0
   66.2511  -31.8031   31.7823 C   0  0  0  0  0  0  0  0  0  0  0  0
   66.7620  -32.8134   32.7901 C   0  0  0  0  0  0  0  0  0  0  0  0
   68.2778  -32.8205   32.7915 C   0  0  0  0  0  0  0  0  0  0  0  0
   68.7887  -33.8309   33.7994 C   0  0  0  0  0  0  0  0  0  0  0  0
   70.3044  -33.8394   33.7993 C   0  0  0  0  0  0  0  0  0  0  0  0
   70.8153  -34.8498   34.8072 C   0  0  0  0  0  0  0  0  0  0  0  0
   72.3311  -34.8583   34.8071 C   0  0  0  0  0  0  0  0  0  0  0  0
   72.8419  -35.8686   35.8150 C   0  0  0  0  0  0  0  0  0  0  0  0
   74.3577  -35.8771   35.8149 C   0  0  0  0  0  0  0  0  0  0  0  0
   74.8686  -36.8875   36.8228 C   0  0  0  0  0  0  0  0  0  0  0  0
   76.3844  -36.8946   36.8241 C   0  0  0  0  0  0  0  0  0  0  0  0
   76.8955  -37.9050   37.8320 C   0  0  0  0  0  0  0  0  0  0  0  0
   78.4118  -37.9120   37.8334 C   0  0  0  0  0  0  0  0  0  0  0  0
   78.9238  -38.9214   38.8430 C   0  0  0  0  0  0  0  0  0  0  0  0
   80.4423  -38.9331   38.8462 C   0  0  0  0  0  0  0  0  0  0  0  0
   80.9502  -39.9406   39.8540 C   0  0  0  0  0  0  0  0  0  0  0  0
    8.3001   -0.5386   -6.1343 H   0  0  0  0  0  0  0  0  0  0  0  0
    8.3317   -2.2612   -5.7039 H   0  0  0  0  0  0  0  0  0  0  0  0
    9.7743   -1.2555   -5.4516 H   0  0  0  0  0  0  0  0  0  0  0  0
    7.1021   -0.9204   -4.0009 H   0  0  0  0  0  0  0  0  0  0  0  0
    8.5408    0.0826   -3.7493 H   0  0  0  0  0  0  0  0  0  0  0  0
    9.8260   -1.9363   -3.0410 H   0  0  0  0  0  0  0  0  0  0  0  0
    8.3888   -2.9411   -3.2937 H   0  0  0  0  0  0  0  0  0  0  0  0
    7.1495   -1.6078   -1.5976 H   0  0  0  0  0  0  0  0  0  0  0  0
    8.5852   -0.5903   -1.3413 H   0  0  0  0  0  0  0  0  0  0  0  0
    9.7884   -2.5559   -0.6709 H   0  0  0  0  0  0  0  0  0  0  0  0
    7.2875   -2.2752    0.6602 H   0  0  0  0  0  0  0  0  0  0  0  0
    9.8184   -3.1723    1.4711 H   0  0  0  0  0  0  0  0  0  0  0  0
    7.3320   -2.8979    2.8948 H   0  0  0  0  0  0  0  0  0  0  0  0
    8.5421   -4.7732    3.5653 H   0  0  0  0  0  0  0  0  0  0  0  0
   10.6152   -2.9144    4.0791 H   0  0  0  0  0  0  0  0  0  0  0  0
   10.4071   -5.7045    4.4990 H   0  0  0  0  0  0  0  0  0  0  0  0
   12.4949   -3.8532    5.0083 H   0  0  0  0  0  0  0  0  0  0  0  0
   12.2905   -6.6465    5.4493 H   0  0  0  0  0  0  0  0  0  0  0  0
   14.3260   -4.7640    5.9145 H   0  0  0  0  0  0  0  0  0  0  0  0
   14.1098   -7.5712    6.3694 H   0  0  0  0  0  0  0  0  0  0  0  0
   16.2589   -5.7218    6.8711 H   0  0  0  0  0  0  0  0  0  0  0  0
   16.1022   -8.5621    7.3619 H   0  0  0  0  0  0  0  0  0  0  0  0
   18.1912   -6.6969    7.8647 H   0  0  0  0  0  0  0  0  0  0  0  0
   17.9833   -9.4920    8.2907 H   0  0  0  0  0  0  0  0  0  0  0  0
   20.0635   -7.6387    8.8086 H   0  0  0  0  0  0  0  0  0  0  0  0
   19.8732  -10.4479    9.2331 H   0  0  0  0  0  0  0  0  0  0  0  0
   22.0250   -8.5017    9.7560 H   0  0  0  0  0  0  0  0  0  0  0  0
   22.0377   -9.7546    8.4922 H   0  0  0  0  0  0  0  0  0  0  0  0
   21.8008  -11.5124   10.2514 H   0  0  0  0  0  0  0  0  0  0  0  0
   21.7979  -10.2570   11.5032 H   0  0  0  0  0  0  0  0  0  0  0  0
   24.0614   -9.5145   10.7619 H   0  0  0  0  0  0  0  0  0  0  0  0
   24.0634  -10.7684    9.5109 H   0  0  0  0  0  0  0  0  0  0  0  0
   23.8284  -12.5221   11.2691 H   0  0  0  0  0  0  0  0  0  0  0  0
   23.8283  -11.2676   12.5198 H   0  0  0  0  0  0  0  0  0  0  0  0
   26.0910  -10.5266   11.7765 H   0  0  0  0  0  0  0  0  0  0  0  0
   26.0910  -11.7813   10.5258 H   0  0  0  0  0  0  0  0  0  0  0  0
   25.8555  -13.5343   12.2844 H   0  0  0  0  0  0  0  0  0  0  0  0
   25.8555  -12.2796   13.5351 H   0  0  0  0  0  0  0  0  0  0  0  0
   28.1179  -11.5384   12.7915 H   0  0  0  0  0  0  0  0  0  0  0  0
   28.1179  -12.7931   11.5408 H   0  0  0  0  0  0  0  0  0  0  0  0
   27.8822  -14.5461   13.2993 H   0  0  0  0  0  0  0  0  0  0  0  0
   27.8822  -13.2914   14.5501 H   0  0  0  0  0  0  0  0  0  0  0  0
   30.1446  -12.5502   13.8065 H   0  0  0  0  0  0  0  0  0  0  0  0
   30.1446  -13.8049   12.5557 H   0  0  0  0  0  0  0  0  0  0  0  0
   29.9089  -15.5578   14.3143 H   0  0  0  0  0  0  0  0  0  0  0  0
   29.9089  -14.3032   15.5650 H   0  0  0  0  0  0  0  0  0  0  0  0
   32.1713  -13.5619   14.8214 H   0  0  0  0  0  0  0  0  0  0  0  0
   32.1713  -14.8166   13.5707 H   0  0  0  0  0  0  0  0  0  0  0  0
   31.9367  -16.5698   15.3283 H   0  0  0  0  0  0  0  0  0  0  0  0
   31.9344  -15.3157   16.5797 H   0  0  0  0  0  0  0  0  0  0  0  0
   34.1968  -14.5720   15.8386 H   0  0  0  0  0  0  0  0  0  0  0  0
   34.1991  -15.8261   14.5872 H   0  0  0  0  0  0  0  0  0  0  0  0
   33.9622  -17.5799   16.3455 H   0  0  0  0  0  0  0  0  0  0  0  0
   33.9622  -16.3252   17.5962 H   0  0  0  0  0  0  0  0  0  0  0  0
   36.2246  -15.5836   16.8512 H   0  0  0  0  0  0  0  0  0  0  0  0
   36.2246  -16.8401   15.6023 H   0  0  0  0  0  0  0  0  0  0  0  0
   35.9877  -18.5903   17.3641 H   0  0  0  0  0  0  0  0  0  0  0  0
   35.9900  -17.3333   18.6124 H   0  0  0  0  0  0  0  0  0  0  0  0
   38.2524  -16.5960   17.8667 H   0  0  0  0  0  0  0  0  0  0  0  0
   38.2501  -17.8512   16.6166 H   0  0  0  0  0  0  0  0  0  0  0  0
   38.0155  -19.6034   18.3753 H   0  0  0  0  0  0  0  0  0  0  0  0
   38.0155  -18.3487   19.6261 H   0  0  0  0  0  0  0  0  0  0  0  0
   40.2779  -17.6078   18.8839 H   0  0  0  0  0  0  0  0  0  0  0  0
   40.2779  -18.8607   17.6314 H   0  0  0  0  0  0  0  0  0  0  0  0
   40.0422  -20.6162   19.3874 H   0  0  0  0  0  0  0  0  0  0  0  0
   40.0422  -19.3633   20.6399 H   0  0  0  0  0  0  0  0  0  0  0  0
   42.3046  -18.6210   19.8974 H   0  0  0  0  0  0  0  0  0  0  0  0
   42.3046  -19.8739   18.6449 H   0  0  0  0  0  0  0  0  0  0  0  0
   42.0688  -21.6294   20.4009 H   0  0  0  0  0  0  0  0  0  0  0  0
   42.0688  -20.3765   21.6534 H   0  0  0  0  0  0  0  0  0  0  0  0
   44.3313  -19.6342   20.9109 H   0  0  0  0  0  0  0  0  0  0  0  0
   44.3313  -20.8871   19.6584 H   0  0  0  0  0  0  0  0  0  0  0  0
   44.0955  -22.6426   21.4144 H   0  0  0  0  0  0  0  0  0  0  0  0
   44.0955  -21.3897   22.6669 H   0  0  0  0  0  0  0  0  0  0  0  0
   46.3579  -20.6474   21.9244 H   0  0  0  0  0  0  0  0  0  0  0  0
   46.3579  -21.9003   20.6719 H   0  0  0  0  0  0  0  0  0  0  0  0
   46.1222  -23.6557   22.4279 H   0  0  0  0  0  0  0  0  0  0  0  0
   46.1222  -22.4028   23.6804 H   0  0  0  0  0  0  0  0  0  0  0  0
   48.3846  -21.6605   22.9379 H   0  0  0  0  0  0  0  0  0  0  0  0
   48.3846  -22.9134   21.6854 H   0  0  0  0  0  0  0  0  0  0  0  0
   48.1477  -24.6687   23.4422 H   0  0  0  0  0  0  0  0  0  0  0  0
   48.1500  -23.4152   24.6941 H   0  0  0  0  0  0  0  0  0  0  0  0
   50.4124  -22.6754   23.9491 H   0  0  0  0  0  0  0  0  0  0  0  0
   50.4101  -23.9289   22.6972 H   0  0  0  0  0  0  0  0  0  0  0  0
   50.1755  -25.6835   24.4535 H   0  0  0  0  0  0  0  0  0  0  0  0
   50.1755  -24.4306   25.7060 H   0  0  0  0  0  0  0  0  0  0  0  0
   52.4379  -23.6880   24.9620 H   0  0  0  0  0  0  0  0  0  0  0  0
   52.4379  -24.9426   23.7113 H   0  0  0  0  0  0  0  0  0  0  0  0
   52.2010  -26.6954   25.4706 H   0  0  0  0  0  0  0  0  0  0  0  0
   52.2033  -25.4401   26.7208 H   0  0  0  0  0  0  0  0  0  0  0  0
   54.4657  -24.7017   25.9761 H   0  0  0  0  0  0  0  0  0  0  0  0
   54.4634  -25.9552   24.7242 H   0  0  0  0  0  0  0  0  0  0  0  0
   54.2265  -27.7094   26.4821 H   0  0  0  0  0  0  0  0  0  0  0  0
   54.2312  -26.4553   27.7334 H   0  0  0  0  0  0  0  0  0  0  0  0
   56.4936  -25.7183   26.9874 H   0  0  0  0  0  0  0  0  0  0  0  0
   56.4889  -26.9707   25.7343 H   0  0  0  0  0  0  0  0  0  0  0  0
   56.2543  -28.7267   27.4891 H   0  0  0  0  0  0  0  0  0  0  0  0
   56.2566  -27.4750   28.7428 H   0  0  0  0  0  0  0  0  0  0  0  0
   58.5191  -26.7341   27.9988 H   0  0  0  0  0  0  0  0  0  0  0  0
   58.5167  -27.9858   26.7452 H   0  0  0  0  0  0  0  0  0  0  0  0
   58.2798  -29.7425   28.5006 H   0  0  0  0  0  0  0  0  0  0  0  0
   58.2844  -28.4902   29.7537 H   0  0  0  0  0  0  0  0  0  0  0  0
   60.5469  -27.7518   29.0072 H   0  0  0  0  0  0  0  0  0  0  0  0
   60.5422  -29.0041   27.7542 H   0  0  0  0  0  0  0  0  0  0  0  0
   60.3064  -30.7600   29.5098 H   0  0  0  0  0  0  0  0  0  0  0  0
   60.3111  -29.5076   30.7629 H   0  0  0  0  0  0  0  0  0  0  0  0
   62.5735  -28.7693   30.0165 H   0  0  0  0  0  0  0  0  0  0  0  0
   62.5688  -30.0216   28.7634 H   0  0  0  0  0  0  0  0  0  0  0  0
   62.3330  -31.7774   30.5191 H   0  0  0  0  0  0  0  0  0  0  0  0
   62.3377  -30.5251   31.7721 H   0  0  0  0  0  0  0  0  0  0  0  0
   64.6002  -29.7867   31.0257 H   0  0  0  0  0  0  0  0  0  0  0  0
   64.5955  -31.0390   29.7726 H   0  0  0  0  0  0  0  0  0  0  0  0
   64.3597  -32.7949   31.5283 H   0  0  0  0  0  0  0  0  0  0  0  0
   64.3644  -31.5425   32.7814 H   0  0  0  0  0  0  0  0  0  0  0  0
   66.6268  -30.8042   32.0349 H   0  0  0  0  0  0  0  0  0  0  0  0
   66.6221  -32.0565   30.7818 H   0  0  0  0  0  0  0  0  0  0  0  0
   66.3863  -33.8123   32.5375 H   0  0  0  0  0  0  0  0  0  0  0  0
   66.3910  -32.5600   33.7906 H   0  0  0  0  0  0  0  0  0  0  0  0
   68.6535  -31.8216   33.0442 H   0  0  0  0  0  0  0  0  0  0  0  0
   68.6487  -33.0739   31.7911 H   0  0  0  0  0  0  0  0  0  0  0  0
   68.4118  -34.8295   33.5476 H   0  0  0  0  0  0  0  0  0  0  0  0
   68.4189  -33.5766   34.8000 H   0  0  0  0  0  0  0  0  0  0  0  0
   70.6813  -32.8407   34.0511 H   0  0  0  0  0  0  0  0  0  0  0  0
   70.6742  -34.0936   32.7986 H   0  0  0  0  0  0  0  0  0  0  0  0
   70.4385  -35.8484   34.5554 H   0  0  0  0  0  0  0  0  0  0  0  0
   70.4455  -34.5955   35.8078 H   0  0  0  0  0  0  0  0  0  0  0  0
   72.7079  -33.8596   35.0589 H   0  0  0  0  0  0  0  0  0  0  0  0
   72.7009  -35.1125   33.8064 H   0  0  0  0  0  0  0  0  0  0  0  0
   72.4651  -36.8673   35.5632 H   0  0  0  0  0  0  0  0  0  0  0  0
   72.4722  -35.6144   36.8156 H   0  0  0  0  0  0  0  0  0  0  0  0
   74.7346  -34.8785   36.0667 H   0  0  0  0  0  0  0  0  0  0  0  0
   74.7275  -36.1314   34.8143 H   0  0  0  0  0  0  0  0  0  0  0  0
   74.4929  -37.8864   36.5701 H   0  0  0  0  0  0  0  0  0  0  0  0
   74.4976  -36.6341   37.8232 H   0  0  0  0  0  0  0  0  0  0  0  0
   76.7600  -35.8957   37.0768 H   0  0  0  0  0  0  0  0  0  0  0  0
   76.7553  -37.1480   35.8237 H   0  0  0  0  0  0  0  0  0  0  0  0
   76.5197  -38.9038   37.5794 H   0  0  0  0  0  0  0  0  0  0  0  0
   76.5243  -37.6515   38.8324 H   0  0  0  0  0  0  0  0  0  0  0  0
   78.7870  -36.9125   38.0844 H   0  0  0  0  0  0  0  0  0  0  0  0
   78.7823  -38.1667   36.8330 H   0  0  0  0  0  0  0  0  0  0  0  0
   78.5450  -39.9199   38.5923 H   0  0  0  0  0  0  0  0  0  0  0  0
   78.5521  -38.6654   39.8429 H   0  0  0  0  0  0  0  0  0  0  0  0
   80.8208  -37.9360   39.0983 H   0  0  0  0  0  0  0  0  0  0  0  0
   80.8137  -39.1905   37.8478 H   0  0  0  0  0  0  0  0  0  0  0  0
   80.5983  -39.6855   40.8586 H   0  0  0  0  0  0  0  0  0  0  0  0
   82.0425  -39.9517   39.8590 H   0  0  0  0  0  0  0  0  0  0  0  0
   80.5912  -40.9440   39.6042 H   0  0  0  0  0  0  0  0  0  0  0  0
  1  2  1  0  0  0  0
  1 82  1  0  0  0  0
  1 83  1  0  0  0  0
  1 84  1  0  0  0  0
  2  3  1  0  0  0  0
  2 85  1  0  0  0  0
  2 86  1  0  0  0  0
  3  4  1  0  0  0  0
  3 87  1  0  0  0  0
  3 88  1  0  0  0  0
  4  5  1  0  0  0  0
  4 89  1  0  0  0  0
  4 90  1  0  0  0  0
  5  6  1  0  0  0  0
  5 91  1  0  0  0  0
  6  7  1  0  0  0  0
  6 92  1  0  0  0  0
  7  8  1  0  0  0  0
  7 93  1  0  0  0  0
  8  9  1  0  0  0  0
  8 94  1  0  0  0  0
  9 10  1  0  0  0  0
  9 95  1  0  0  0  0
 10 11  1  0  0  0  0
 10 96  1  0  0  0  0
 11 12  1  0  0  0  0
 11 97  1  0  0  0  0
 12 13  1  0  0  0  0
 12 98  1  0  0  0  0
 13 14  1  0  0  0  0
 13 99  1  0  0  0  0
 14 15  1  0  0  0  0
 14100  1  0  0  0  0
 15 16  1  0  0  0  0
 15101  1  0  0  0  0
 16 17  1  0  0  0  0
 16102  1  0  0  0  0
 17 18  1  0  0  0  0
 17103  1  0  0  0  0
 18 19  1  0  0  0  0
 18104  1  0  0  0  0
 19 20  1  0  0  0  0
 19105  1  0  0  0  0
 20 21  1  0  0  0  0
 20106  1  0  0  0  0
 21 22  1  0  0  0  0
 21107  1  0  0  0  0
 22 23  1  0  0  0  0
 22108  1  0  0  0  0
 22109  1  0  0  0  0
 23 24  1  0  0  0  0
 23110  1  0  0  0  0
 23111  1  0  0  0  0
 24 25  1  0  0  0  0
 24112  1  0  0  0  0
 24113  1  0  0  0  0
 25 26  1  0  0  0  0
 25114  1  0  0  0  0
 25115  1  0  0  0  0
 26 27  1  0  0  0  0
 26116  1  0  0  0  0
 26117  1  0  0  0  0
 27 28  1  0  0  0  0
 27118  1  0  0  0  0
 27119  1  0  0  0  0
 28 29  1  0  0  0  0
 28120  1  0  0  0  0
 28121  1  0  0  0  0
 29 30  1  0  0  0  0
 29122  1  0  0  0  0
 29123  1  0  0  0  0
 30 31  1  0  0  0  0
 30124  1  0  0  0  0
 30125  1  0  0  0  0
 31 32  1  0  0  0  0
 31126  1  0  0  0  0
 31127  1  0  0  0  0
 32 33  1  0  0  0  0
 32128  1  0  0  0  0
 32129  1  0  0  0  0
 33 34  1  0  0  0  0
 33130  1  0  0  0  0
 33131  1  0  0  0  0
 34 35  1  0  0  0  0
 34132  1  0  0  0  0
 34133  1  0  0  0  0
 35 36  1  0  0  0  0
 35134  1  0  0  0  0
 35135  1  0  0  0  0
 36 37  1  0  0  0  0
 36136  1  0  0  0  0
 36137  1  0  0  0  0
 37 38  1  0  0  0  0
 37138  1  0  0  0  0
 37139  1  0  0  0  0
 38 39  1  0  0  0  0
 38140  1  0  0  0  0
 38141  1  0  0  0  0
 39 40  1  0  0  0  0
 39142  1  0  0  0  0
 39143  1  0  0  0  0
 40 41  1  0  0  0  0
 40144  1  0  0  0  0
 40145  1  0  0  0  0
 41 42  1  0  0  0  0
 41146  1  0  0  0  0
 41147  1  0  0  0  0
 42 43  1  0  0  0  0
 42148  1  0  0  0  0
 42149  1  0  0  0  0
 43 44  1  0  0  0  0
 43150  1  0  0  0  0
 43151  1  0  0  0  0
 44 45  1  0  0  0  0
 44152  1  0  0  0  0
 44153  1  0  0  0  0
 45 46  1  0  0  0  0
 45154  1  0  0  0  0
 45155  1  0  0  0  0
 46 47  1  0  0  0  0
 46156  1  0  0  0  0
 46157  1  0  0  0  0
 47 48  1  0  0  0  0
 47158  1  0  0  0  0
 47159  1  0  0  0  0
 48 49  1  0  0  0  0
 48160  1  0  0  0  0
 48161  1  0  0  0  0
 49 50  1  0  0  0  0
 49162  1  0  0  0  0
 49163  1  0  0  0  0
 50 51  1  0  0  0  0
 50164  1  0  0  0  0
 50165  1  0  0  0  0
 51 52  1  0  0  0  0
 51166  1  0  0  0  0
 51167  1  0  0  0  0
 52 53  1  0  0  0  0
 52168  1  0  0  0  0
 52169  1  0  0  0  0
 53 54  1  0  0  0  0
 53170  1  0  0  0  0
 53171  1  0  0  0  0
 54 55  1  0  0  0  0
 54172  1  0  0  0  0
 54173  1  0  0  0  0
 55 56  1  0  0  0  0
 55174  1  0  0  0  0
 55175  1  0  0  0  0
 56 57  1  0  0  0  0
 56176  1  0  0  0  0
 56177  1  0  0  0  0
 57 58  1  0  0  0  0
 57178  1  0  0  0  0
 57179  1  0  0  0  0
 58 59  1  0  0  0  0
 58180  1  0  0  0  0
 58181  1  0  0  0  0
 59 60  1  0  0  0  0
 59182  1  0  0  0  0
 59183  1  0  0  0  0
 60 61  1  0  0  0  0
 60184  1  0  0  0  0
 60185  1  0  0  0  0
 61 62  1  0  0  0  0
 61186  1  0  0  0  0
 61187  1  0  0  0  0
 62 63  1  0  0  0  0
 62188  1  0  0  0  0
 62189  1  0  0  0  0
 63 64  1  0  0  0  0
 63190  1  0  0  0  0
 63191  1  0  0  0  0
 64 65  1  0  0  0  0
 64192  1  0  0  0  0
 64193  1  0  0  0  0
 65 66  1  0  0  0  0
 65194  1  0  0  0  0
 65195  1  0  0  0  0
 66 67  1  0  0  0  0
 66196  1  0  0  0  0
 66197  1  0  0  0  0
 67 68  1  0  0  0  0
 67198  1  0  0  0  0
 67199  1  0  0  0  0
 68 69  1  0  0  0  0
 68200  1  0  0  0  0
 68201  1  0  0  0  0
 69 70  1  0  0  0  0
 69202  1  0  0  0  0
 69203  1  0  0  0  0
 70 71  1  0  0  0  0
 70204  1  0  0  0  0
 70205  1  0  0  0  0
 71 72  1  0  0  0  0
 71206  1  0  0  0  0
 71207  1  0  0  0  0
 72 73  1  0  0  0  0
 72208  1  0  0  0  0
 72209  1  0  0  0  0
 73 74  1  0  0  0  0
 73210  1  0  0  0  0
 73211  1  0  0  0  0
 74 75  1  0  0  0  0
 74212  1  0  0  0  0
 74213  1  0  0  0  0
 75 76  1  0  0  0  0
 75214  1  0  0  0  0
 75215  1  0  0  0  0
 76 77  1  0  0  0  0
 76216  1  0  0  0  0
 76217  1  0  0  0  0
 77 78  1  0  0  0  0
 77218  1  0  0  0  0
 77219  1  0  0  0  0
 78 79  1  0  0  0  0
 78220  1  0  0  0  0
 78221  1  0  0  0  0
 79 80  1  0  0  0  0
 79222  1  0  0  0  0
 79223  1  0  0  0  0
 80 81  1  0  0  0  0
 80224  1  0  0  0  0
 80225  1  0  0  0  0
 81226  1  0  0  0  0
 81227  1  0  0  0  0
 81228  1  0  0  0  0
M  END
$$$$
