
 OpenBabel04232216463D

 58 58  0  0  0  0  0  0  0  0999 V2000
    6.6280   -2.1015    2.2742 C   0  0  0  0  0  0  0  0  0  0  0  0
    7.9946   -1.3345    2.6893 C   0  0  0  0  0  0  0  0  0  0  0  0
    7.0856   -0.1171    2.6333 C   0  0  0  0  0  0  0  0  0  0  0  0
    6.7047    0.7793    1.6854 C   0  0  0  0  0  0  0  0  0  0  0  0
    6.6442    0.4747    0.1587 C   0  0  0  0  0  0  0  0  0  0  0  0
    7.6669    0.7087   -0.9829 C   0  0  0  0  0  0  0  0  0  0  0  0
    7.4321    1.8704   -1.9461 C   0  0  0  0  0  0  0  0  0  0  0  0
    7.6797    3.2070   -1.2841 C   0  0  0  0  0  0  0  0  0  0  0  0
    7.5287    4.3438   -2.2889 C   0  0  0  0  0  0  0  0  0  0  0  0
    7.7455    5.6787   -1.6041 C   0  0  0  0  0  0  0  0  0  0  0  0
    5.9236    1.8769    2.2890 C   0  0  0  0  0  0  0  0  0  0  0  0
    6.2541    2.5423    3.4279 C   0  0  0  0  0  0  0  0  0  0  0  0
    6.9514    2.0285    4.6402 C   0  0  0  0  0  0  0  0  0  0  0  0
    8.2854    1.9529    4.6652 C   0  0  0  0  0  0  0  0  0  0  0  0
    9.1251    1.9016    5.8247 C   0  0  0  0  0  0  0  0  0  0  0  0
   10.3287    2.4428    5.6306 C   0  0  0  0  0  0  0  0  0  0  0  0
   11.2762    2.7732    6.7031 C   0  0  0  0  0  0  0  0  0  0  0  0
   11.0067    2.8239    7.8897 O   0  0  0  0  0  0  0  0  0  0  0  0
   12.6257    2.9272    6.1171 C   0  0  0  0  0  0  0  0  0  0  0  0
   13.3129    1.8622    6.5353 C   0  0  0  0  0  0  0  0  0  0  0  0
   13.7008    0.8806    5.5106 C   0  0  0  0  0  0  0  0  0  0  0  0
   15.2527    0.9279    5.6509 C   0  0  0  0  0  0  0  0  0  0  0  0
   12.8678   -0.2234    5.3877 C   0  0  0  0  0  0  0  0  0  0  0  0
   11.4842   -0.4491    4.5385 C   0  0  0  0  0  0  0  0  0  0  0  0
   10.6355   -0.6975    3.4525 C   0  0  0  0  0  0  0  0  0  0  0  0
    9.1324   -0.6142    3.0140 C   0  0  0  0  0  0  0  0  0  0  0  0
    5.9062   -2.2593    3.0851 H   0  0  0  0  0  0  0  0  0  0  0  0
    6.8123   -3.0554    1.7621 H   0  0  0  0  0  0  0  0  0  0  0  0
    5.9704   -1.6276    1.5066 H   0  0  0  0  0  0  0  0  0  0  0  0
    6.5990   -0.0456    3.6140 H   0  0  0  0  0  0  0  0  0  0  0  0
    5.6387    0.7245   -0.2072 H   0  0  0  0  0  0  0  0  0  0  0  0
    6.6630   -0.6148    0.1228 H   0  0  0  0  0  0  0  0  0  0  0  0
    7.5671   -0.1708   -1.6446 H   0  0  0  0  0  0  0  0  0  0  0  0
    8.6998    0.6844   -0.6273 H   0  0  0  0  0  0  0  0  0  0  0  0
    6.4219    1.8283   -2.3749 H   0  0  0  0  0  0  0  0  0  0  0  0
    8.1188    1.7589   -2.7999 H   0  0  0  0  0  0  0  0  0  0  0  0
    8.6914    3.2184   -0.8617 H   0  0  0  0  0  0  0  0  0  0  0  0
    6.9724    3.3383   -0.4594 H   0  0  0  0  0  0  0  0  0  0  0  0
    6.5290    4.3189   -2.7385 H   0  0  0  0  0  0  0  0  0  0  0  0
    8.2526    4.2276   -3.1050 H   0  0  0  0  0  0  0  0  0  0  0  0
    7.0205    5.8183   -0.7959 H   0  0  0  0  0  0  0  0  0  0  0  0
    7.6275    6.4966   -2.3195 H   0  0  0  0  0  0  0  0  0  0  0  0
    8.7517    5.7347   -1.1765 H   0  0  0  0  0  0  0  0  0  0  0  0
    4.8604    1.8848    2.0383 H   0  0  0  0  0  0  0  0  0  0  0  0
    7.0079    3.2909    3.1162 H   0  0  0  0  0  0  0  0  0  0  0  0
    6.3739    1.8625    5.5470 H   0  0  0  0  0  0  0  0  0  0  0  0
    8.8116    2.0996    3.7226 H   0  0  0  0  0  0  0  0  0  0  0  0
    8.7755    1.6076    6.8076 H   0  0  0  0  0  0  0  0  0  0  0  0
   10.6592    2.6778    4.6208 H   0  0  0  0  0  0  0  0  0  0  0  0
   12.6658    3.1828    5.0603 H   0  0  0  0  0  0  0  0  0  0  0  0
   13.3265    1.5651    7.5860 H   0  0  0  0  0  0  0  0  0  0  0  0
   15.7435    0.8088    4.6803 H   0  0  0  0  0  0  0  0  0  0  0  0
   15.6721    0.2210    6.3756 H   0  0  0  0  0  0  0  0  0  0  0  0
   15.6062    1.9252    5.9927 H   0  0  0  0  0  0  0  0  0  0  0  0
   12.7376   -0.7577    6.3443 H   0  0  0  0  0  0  0  0  0  0  0  0
   12.3531   -0.7035    3.8666 H   0  0  0  0  0  0  0  0  0  0  0  0
   11.1625   -0.7270    2.4871 H   0  0  0  0  0  0  0  0  0  0  0  0
    9.1745    0.3424    2.4718 H   0  0  0  0  0  0  0  0  0  0  0  0
  1  2  1  0  0  0  0
  1 27  1  0  0  0  0
  1 28  1  0  0  0  0
  1 29  1  0  0  0  0
  2  3  1  0  0  0  0
  2 26  2  3  0  0  0
  3  4  2  3  0  0  0
  3 30  1  0  0  0  0
  4  5  1  0  0  0  0
  4 11  1  0  0  0  0
  5  6  1  0  0  0  0
  5 31  1  0  0  0  0
  5 32  1  0  0  0  0
  6  7  1  0  0  0  0
  6 33  1  0  0  0  0
  6 34  1  0  0  0  0
  7  8  1  0  0  0  0
  7 35  1  0  0  0  0
  7 36  1  0  0  0  0
  8  9  1  0  0  0  0
  8 37  1  0  0  0  0
  8 38  1  0  0  0  0
  9 10  1  0  0  0  0
  9 39  1  0  0  0  0
  9 40  1  0  0  0  0
 10 41  1  0  0  0  0
 10 42  1  0  0  0  0
 10 43  1  0  0  0  0
 11 12  2  3  0  0  0
 11 44  1  0  0  0  0
 12 13  1  0  0  0  0
 12 45  1  0  0  0  0
 13 14  2  3  0  0  0
 13 46  1  0  0  0  0
 14 15  1  0  0  0  0
 14 47  1  0  0  0  0
 15 16  2  3  0  0  0
 15 48  1  0  0  0  0
 16 17  1  0  0  0  0
 16 49  1  0  0  0  0
 17 18  2  0  0  0  0
 17 19  1  0  0  0  0
 19 20  2  3  0  0  0
 19 50  1  0  0  0  0
 20 21  1  0  0  0  0
 20 51  1  0  0  0  0
 21 22  1  0  0  0  0
 21 23  2  3  0  0  0
 22 52  1  0  0  0  0
 22 53  1  0  0  0  0
 22 54  1  0  0  0  0
 23 24  1  0  0  0  0
 23 55  1  0  0  0  0
 24 25  2  3  0  0  0
 24 56  1  0  0  0  0
 25 26  1  0  0  0  0
 25 57  1  0  0  0  0
 26 58  1  0  0  0  0
M  END
$$$$
