
 OpenBabel04232216523D

 66 67  0  0  1  0  0  0  0  0999 V2000
    4.0308    0.8299    1.1345 C   0  0  0  0  0  0  0  0  0  0  0  0
    4.7671   -0.1027    2.0784 C   0  0  0  0  0  0  0  0  0  0  0  0
    4.4022   -1.5590    1.8108 C   0  0  0  0  0  0  0  0  0  0  0  0
    5.1224   -2.4790    2.7917 C   0  0  0  0  0  0  0  0  0  0  0  0
    4.7761   -3.9427    2.5110 C   0  0  0  0  0  0  0  0  0  0  0  0
    5.5437   -4.9557    3.4055 C   0  0  3  0  0  0  0  0  0  0  0  0
    5.2921   -4.7360    4.9131 C   0  0  0  0  0  0  0  0  0  0  0  0
    3.7985   -4.8286    5.3007 C   0  0  0  0  0  0  0  0  0  0  0  0
    3.5532   -4.5380    6.7783 C   0  0  0  0  0  0  0  0  0  0  0  0
    2.0730   -4.6626    7.1138 C   0  0  0  0  0  0  0  0  0  0  0  0
    5.1730   -6.4013    3.0226 C   0  0  0  0  0  0  0  0  0  0  0  0
    5.4252   -6.6943    1.5589 C   0  0  0  0  0  0  0  0  0  0  0  0
    4.4752   -6.8756    0.7933 O   0  0  0  0  0  0  0  0  0  0  0  0
    6.8283   -6.8504    1.0477 C   0  0  0  0  0  0  0  0  0  0  0  0
    7.7047   -5.8046    1.1294 C   0  0  0  0  0  0  0  0  0  0  0  0
    8.7285   -5.7011    0.1984 N   0  0  0  0  0  0  0  0  0  0  0  0
   10.0604   -5.1671    0.4909 C   0  0  0  0  0  0  0  0  0  0  0  0
   11.0351   -5.8248   -0.5017 C   0  0  0  0  0  0  0  0  0  0  0  0
   11.4519   -7.2158   -0.0069 C   0  0  0  0  0  0  0  0  0  0  0  0
   11.4433   -8.3010   -1.0917 C   0  0  0  0  0  0  0  0  0  0  0  0
   10.4385   -9.4120   -0.7621 C   0  0  0  0  0  0  0  0  0  0  0  0
    9.0031   -8.9094   -0.9084 C   0  0  0  0  0  0  0  0  0  0  0  0
    8.2120   -8.9711    0.3957 C   0  0  0  0  0  0  0  0  0  0  0  0
    6.9260   -8.1504    0.2739 C   0  0  0  0  0  0  0  0  0  0  0  0
    7.3587   -4.6919    1.8542 N   0  0  0  0  0  0  0  0  0  0  0  0
    7.0357   -4.9504    3.0786 C   0  0  0  0  0  0  0  0  0  0  0  0
    4.2927    1.8695    1.3515 H   0  0  0  0  0  0  0  0  0  0  0  0
    2.9473    0.7196    1.2437 H   0  0  0  0  0  0  0  0  0  0  0  0
    4.2952    0.6198    0.0933 H   0  0  0  0  0  0  0  0  0  0  0  0
    4.5193    0.1581    3.1138 H   0  0  0  0  0  0  0  0  0  0  0  0
    5.8479    0.0372    1.9579 H   0  0  0  0  0  0  0  0  0  0  0  0
    4.6739   -1.8251    0.7818 H   0  0  0  0  0  0  0  0  0  0  0  0
    3.3186   -1.6983    1.9061 H   0  0  0  0  0  0  0  0  0  0  0  0
    4.8390   -2.2108    3.8139 H   0  0  0  0  0  0  0  0  0  0  0  0
    6.2040   -2.3241    2.7018 H   0  0  0  0  0  0  0  0  0  0  0  0
    4.9796   -4.1312    1.4485 H   0  0  0  0  0  0  0  0  0  0  0  0
    3.6939   -4.0933    2.6123 H   0  0  0  0  0  0  0  0  0  0  0  0
    5.6864   -3.7605    5.2284 H   0  0  0  0  0  0  0  0  0  0  0  0
    5.8487   -5.4763    5.4989 H   0  0  0  0  0  0  0  0  0  0  0  0
    3.4169   -5.8306    5.0774 H   0  0  0  0  0  0  0  0  0  0  0  0
    3.2061   -4.1212    4.7111 H   0  0  0  0  0  0  0  0  0  0  0  0
    3.8941   -3.5250    7.0177 H   0  0  0  0  0  0  0  0  0  0  0  0
    4.1257   -5.2373    7.3969 H   0  0  0  0  0  0  0  0  0  0  0  0
    1.4742   -3.9651    6.5182 H   0  0  0  0  0  0  0  0  0  0  0  0
    1.9023   -4.4404    8.1711 H   0  0  0  0  0  0  0  0  0  0  0  0
    1.7092   -5.6765    6.9157 H   0  0  0  0  0  0  0  0  0  0  0  0
    4.1123   -6.6003    3.2007 H   0  0  0  0  0  0  0  0  0  0  0  0
    5.7328   -7.1363    3.6134 H   0  0  0  0  0  0  0  0  0  0  0  0
    8.3443   -5.0328   -0.4752 H   0  0  0  0  0  0  0  0  0  0  0  0
   10.3616   -5.3597    1.5258 H   0  0  0  0  0  0  0  0  0  0  0  0
   10.0691   -4.0825    0.3381 H   0  0  0  0  0  0  0  0  0  0  0  0
   11.9339   -5.2054   -0.6035 H   0  0  0  0  0  0  0  0  0  0  0  0
   10.5729   -5.8685   -1.4954 H   0  0  0  0  0  0  0  0  0  0  0  0
   10.8231   -7.5234    0.8361 H   0  0  0  0  0  0  0  0  0  0  0  0
   12.4656   -7.1418    0.4037 H   0  0  0  0  0  0  0  0  0  0  0  0
   12.4424   -8.7465   -1.1588 H   0  0  0  0  0  0  0  0  0  0  0  0
   11.2209   -7.8900   -2.0838 H   0  0  0  0  0  0  0  0  0  0  0  0
   10.6315   -9.8044    0.2444 H   0  0  0  0  0  0  0  0  0  0  0  0
   10.5953  -10.2475   -1.4542 H   0  0  0  0  0  0  0  0  0  0  0  0
    8.4853   -9.5221   -1.6571 H   0  0  0  0  0  0  0  0  0  0  0  0
    8.9883   -7.8886   -1.3027 H   0  0  0  0  0  0  0  0  0  0  0  0
    8.8033   -8.6603    1.2635 H   0  0  0  0  0  0  0  0  0  0  0  0
    7.9440  -10.0231    0.5690 H   0  0  0  0  0  0  0  0  0  0  0  0
    6.1403   -8.8162    0.6636 H   0  0  0  0  0  0  0  0  0  0  0  0
    6.6563   -7.9699   -0.7739 H   0  0  0  0  0  0  0  0  0  0  0  0
    7.7048   -5.5189    3.7630 H   0  0  0  0  0  0  0  0  0  0  0  0
  1  2  1  0  0  0  0
  1 27  1  0  0  0  0
  1 28  1  0  0  0  0
  1 29  1  0  0  0  0
  2  3  1  0  0  0  0
  2 30  1  0  0  0  0
  2 31  1  0  0  0  0
  3  4  1  0  0  0  0
  3 32  1  0  0  0  0
  3 33  1  0  0  0  0
  4  5  1  0  0  0  0
  4 34  1  0  0  0  0
  4 35  1  0  0  0  0
  5  6  1  0  0  0  0
  5 36  1  0  0  0  0
  5 37  1  0  0  0  0
  6  7  1  0  0  0  0
  6 11  1  0  0  0  0
  6 26  1  0  0  0  0
  7  8  1  0  0  0  0
  7 38  1  0  0  0  0
  7 39  1  0  0  0  0
  8  9  1  0  0  0  0
  8 40  1  0  0  0  0
  8 41  1  0  0  0  0
  9 10  1  0  0  0  0
  9 42  1  0  0  0  0
  9 43  1  0  0  0  0
 10 44  1  0  0  0  0
 10 45  1  0  0  0  0
 10 46  1  0  0  0  0
 11 12  1  0  0  0  0
 11 47  1  0  0  0  0
 11 48  1  0  0  0  0
 12 13  2  0  0  0  0
 12 14  1  0  0  0  0
 14 15  2  0  0  0  0
 14 24  1  0  0  0  0
 15 16  1  0  0  0  0
 15 25  1  0  0  0  0
 16 17  1  0  0  0  0
 16 49  1  0  0  0  0
 17 18  1  0  0  0  0
 17 50  1  0  0  0  0
 17 51  1  0  0  0  0
 18 19  1  0  0  0  0
 18 52  1  0  0  0  0
 18 53  1  0  0  0  0
 19 20  1  0  0  0  0
 19 54  1  0  0  0  0
 19 55  1  0  0  0  0
 20 21  1  0  0  0  0
 20 56  1  0  0  0  0
 20 57  1  0  0  0  0
 21 22  1  0  0  0  0
 21 58  1  0  0  0  0
 21 59  1  0  0  0  0
 22 23  1  0  0  0  0
 22 60  1  0  0  0  0
 22 61  1  0  0  0  0
 23 24  1  0  0  0  0
 23 62  1  0  0  0  0
 23 63  1  0  0  0  0
 24 64  1  0  0  0  0
 24 65  1  0  0  0  0
 25 26  2  0  0  0  0
 26 66  1  0  0  0  0
M  END
$$$$
