
 OpenBabel04232216523D

 68 68  0  0  1  0  0  0  0  0999 V2000
    4.9619   -1.4196    2.3639 C   0  0  0  0  0  0  0  0  0  0  0  0
    4.3760   -0.5880    1.2297 C   0  0  0  0  0  0  0  0  0  0  0  0
    5.0211   -0.9697   -0.1002 C   0  0  0  0  0  0  0  0  0  0  0  0
    4.3958   -0.2433   -1.3032 C   0  0  0  0  0  0  0  0  0  0  0  0
    5.1610   -0.4974   -2.6254 C   0  0  3  0  0  0  0  0  0  0  0  0
    4.6216    0.3655   -3.7847 C   0  0  0  0  0  0  0  0  0  0  0  0
    3.6235   -0.2866   -4.7579 C   0  0  3  0  0  0  0  0  0  0  0  0
    3.8743    0.2309   -6.1829 C   0  0  0  0  0  0  0  0  0  0  0  0
    3.6380   -1.7827   -4.7860 C   0  0  0  0  0  0  0  0  0  0  0  0
    4.4024   -2.5632   -4.0089 C   0  0  0  0  0  0  0  0  0  0  0  0
    4.4389   -4.0787   -4.0870 C   0  0  0  0  0  0  0  0  0  0  0  0
    3.5944   -4.7016   -5.1945 C   0  0  0  0  0  0  0  0  0  0  0  0
    3.7066   -6.2212   -5.2161 C   0  0  0  0  0  0  0  0  0  0  0  0
    2.8424   -6.7677   -6.3458 C   0  0  0  0  0  0  0  0  0  0  0  0
    2.9098   -8.2853   -6.4156 C   0  0  0  0  0  0  0  0  0  0  0  0
    2.0308   -8.7961   -7.5538 C   0  0  0  0  0  0  0  0  0  0  0  0
    2.0821  -10.3182   -7.6259 C   0  0  0  0  0  0  0  0  0  0  0  0
    1.2303  -10.8095   -8.7621 C   0  0  0  0  0  0  0  0  0  0  0  0
    1.7242  -11.4637   -9.8246 C   0  0  0  0  0  0  0  0  0  0  0  0
    0.8832  -11.9630  -10.9547 C   0  0  0  0  0  0  0  0  0  0  0  0
    0.9512  -13.4918  -11.0285 C   0  0  0  0  0  0  0  0  0  0  0  0
    0.0869  -14.0277  -12.1690 C   0  0  0  0  0  0  0  0  0  0  0  0
    0.1562  -15.5438  -12.2453 C   0  0  0  0  0  0  0  0  0  0  0  0
    5.3328   -1.9859   -2.9822 C   0  0  0  0  0  0  0  0  0  0  0  0
    4.4958   -1.1521    3.3165 H   0  0  0  0  0  0  0  0  0  0  0  0
    6.0413   -1.2582    2.4530 H   0  0  0  0  0  0  0  0  0  0  0  0
    4.7927   -2.4885    2.1927 H   0  0  0  0  0  0  0  0  0  0  0  0
    4.5360    0.4759    1.4354 H   0  0  0  0  0  0  0  0  0  0  0  0
    3.2948   -0.7580    1.1813 H   0  0  0  0  0  0  0  0  0  0  0  0
    4.9132   -2.0520   -0.2141 H   0  0  0  0  0  0  0  0  0  0  0  0
    6.0964   -0.7542   -0.0573 H   0  0  0  0  0  0  0  0  0  0  0  0
    4.4205    0.8355   -1.0954 H   0  0  0  0  0  0  0  0  0  0  0  0
    3.3426   -0.5244   -1.4086 H   0  0  0  0  0  0  0  0  0  0  0  0
    6.1754   -0.1203   -2.4268 H   0  0  0  0  0  0  0  0  0  0  0  0
    5.4917    0.7202   -4.3527 H   0  0  0  0  0  0  0  0  0  0  0  0
    4.1581    1.2794   -3.3881 H   0  0  0  0  0  0  0  0  0  0  0  0
    2.6076    0.0122   -4.4679 H   0  0  0  0  0  0  0  0  0  0  0  0
    4.8859   -0.0234   -6.5247 H   0  0  0  0  0  0  0  0  0  0  0  0
    3.7673    1.3194   -6.2278 H   0  0  0  0  0  0  0  0  0  0  0  0
    3.1694   -0.2035   -6.9016 H   0  0  0  0  0  0  0  0  0  0  0  0
    2.9681   -2.2282   -5.5186 H   0  0  0  0  0  0  0  0  0  0  0  0
    4.1114   -4.4844   -3.1209 H   0  0  0  0  0  0  0  0  0  0  0  0
    5.4828   -4.3905   -4.2268 H   0  0  0  0  0  0  0  0  0  0  0  0
    3.9128   -4.3081   -6.1681 H   0  0  0  0  0  0  0  0  0  0  0  0
    2.5408   -4.4290   -5.0546 H   0  0  0  0  0  0  0  0  0  0  0  0
    3.3775   -6.6361   -4.2554 H   0  0  0  0  0  0  0  0  0  0  0  0
    4.7514   -6.5206   -5.3620 H   0  0  0  0  0  0  0  0  0  0  0  0
    3.1738   -6.3403   -7.3006 H   0  0  0  0  0  0  0  0  0  0  0  0
    1.8018   -6.4519   -6.1977 H   0  0  0  0  0  0  0  0  0  0  0  0
    2.5731   -8.7168   -5.4652 H   0  0  0  0  0  0  0  0  0  0  0  0
    3.9459   -8.6046   -6.5711 H   0  0  0  0  0  0  0  0  0  0  0  0
    2.3737   -8.3593   -8.5037 H   0  0  0  0  0  0  0  0  0  0  0  0
    0.9985   -8.4600   -7.4037 H   0  0  0  0  0  0  0  0  0  0  0  0
    1.7110  -10.7553   -6.6965 H   0  0  0  0  0  0  0  0  0  0  0  0
    3.1200  -10.6450   -7.7548 H   0  0  0  0  0  0  0  0  0  0  0  0
    0.1622  -10.6107   -8.6959 H   0  0  0  0  0  0  0  0  0  0  0  0
    2.7967  -11.6548   -9.8872 H   0  0  0  0  0  0  0  0  0  0  0  0
    1.2534  -11.5278  -11.8878 H   0  0  0  0  0  0  0  0  0  0  0  0
   -0.1576  -11.6459  -10.8400 H   0  0  0  0  0  0  0  0  0  0  0  0
    0.6139  -13.9253  -10.0792 H   0  0  0  0  0  0  0  0  0  0  0  0
    1.9906  -13.8116  -11.1757 H   0  0  0  0  0  0  0  0  0  0  0  0
    0.4208  -13.6016  -13.1220 H   0  0  0  0  0  0  0  0  0  0  0  0
   -0.9554  -13.7208  -12.0222 H   0  0  0  0  0  0  0  0  0  0  0  0
    1.1831  -15.8800  -12.4210 H   0  0  0  0  0  0  0  0  0  0  0  0
   -0.4679  -15.9109  -13.0655 H   0  0  0  0  0  0  0  0  0  0  0  0
   -0.1997  -15.9990  -11.3155 H   0  0  0  0  0  0  0  0  0  0  0  0
    6.3575   -2.1381   -3.3435 H   0  0  0  0  0  0  0  0  0  0  0  0
    5.2479   -2.6078   -2.0886 H   0  0  0  0  0  0  0  0  0  0  0  0
  1  2  1  0  0  0  0
  1 25  1  0  0  0  0
  1 26  1  0  0  0  0
  1 27  1  0  0  0  0
  2  3  1  0  0  0  0
  2 28  1  0  0  0  0
  2 29  1  0  0  0  0
  3  4  1  0  0  0  0
  3 30  1  0  0  0  0
  3 31  1  0  0  0  0
  4  5  1  0  0  0  0
  4 32  1  0  0  0  0
  4 33  1  0  0  0  0
  5  6  1  0  0  0  0
  5 24  1  0  0  0  0
  5 34  1  0  0  0  0
  6  7  1  0  0  0  0
  6 35  1  0  0  0  0
  6 36  1  0  0  0  0
  7  8  1  0  0  0  0
  7  9  1  0  0  0  0
  7 37  1  0  0  0  0
  8 38  1  0  0  0  0
  8 39  1  0  0  0  0
  8 40  1  0  0  0  0
  9 10  2  0  0  0  0
  9 41  1  0  0  0  0
 10 11  1  0  0  0  0
 10 24  1  0  0  0  0
 11 12  1  0  0  0  0
 11 42  1  0  0  0  0
 11 43  1  0  0  0  0
 12 13  1  0  0  0  0
 12 44  1  0  0  0  0
 12 45  1  0  0  0  0
 13 14  1  0  0  0  0
 13 46  1  0  0  0  0
 13 47  1  0  0  0  0
 14 15  1  0  0  0  0
 14 48  1  0  0  0  0
 14 49  1  0  0  0  0
 15 16  1  0  0  0  0
 15 50  1  0  0  0  0
 15 51  1  0  0  0  0
 16 17  1  0  0  0  0
 16 52  1  0  0  0  0
 16 53  1  0  0  0  0
 17 18  1  0  0  0  0
 17 54  1  0  0  0  0
 17 55  1  0  0  0  0
 18 19  2  3  0  0  0
 18 56  1  0  0  0  0
 19 20  1  0  0  0  0
 19 57  1  0  0  0  0
 20 21  1  0  0  0  0
 20 58  1  0  0  0  0
 20 59  1  0  0  0  0
 21 22  1  0  0  0  0
 21 60  1  0  0  0  0
 21 61  1  0  0  0  0
 22 23  1  0  0  0  0
 22 62  1  0  0  0  0
 22 63  1  0  0  0  0
 23 64  1  0  0  0  0
 23 65  1  0  0  0  0
 23 66  1  0  0  0  0
 24 67  1  0  0  0  0
 24 68  1  0  0  0  0
M  END
$$$$
