
 OpenBabel04232216433D

 84 84  0  0  0  0  0  0  0  0999 V2000
   18.5315    8.1872    5.0611 C   0  0  0  0  0  0  0  0  0  0  0  0
   15.9580    6.8877    4.4483 C   0  0  0  0  0  0  0  0  0  0  0  0
   13.7101    5.8266    3.9484 C   0  0  0  0  0  0  0  0  0  0  0  0
   11.3432    4.6170    3.2385 C   0  0  0  0  0  0  0  0  0  0  0  0
    9.4389    3.6057    2.4492 C   0  0  0  0  0  0  0  0  0  0  0  0
    8.3101    2.2961    0.9751 C   0  0  0  0  0  0  0  0  0  0  0  0
    9.1361    3.1983    0.7590 C   0  0  0  0  0  0  0  0  0  0  0  0
   10.7619    2.8991    1.0253 C   0  0  0  0  0  0  0  0  0  0  0  0
   11.3613    4.3505    1.1624 C   0  0  0  0  0  0  0  0  0  0  0  0
   13.1046    4.7414    1.5142 C   0  0  0  0  0  0  0  0  0  0  0  0
   13.7108    6.2159    1.6814 C   0  0  0  0  0  0  0  0  0  0  0  0
   15.6192    5.9309    1.8852 C   0  0  0  0  0  0  0  0  0  0  0  0
   15.1711    7.3755    2.4093 C   0  0  0  0  0  0  0  0  0  0  0  0
   16.1875    6.3242    2.4631 C   0  0  0  0  0  0  0  0  0  0  0  0
   17.1955    7.7273    2.5901 C   0  0  0  0  0  0  0  0  0  0  0  0
   18.9428    7.6334    2.8288 C   0  0  0  0  0  0  0  0  0  0  0  0
   19.9179    8.7482    2.9394 C   0  0  0  0  0  0  0  0  0  0  0  0
   21.3430    8.6055    3.4477 C   0  0  0  0  0  0  0  0  0  0  0  0
   21.2206   10.0384    3.6607 C   0  0  0  0  0  0  0  0  0  0  0  0
   21.7990   10.6872    4.7101 C   0  0  0  0  0  0  0  0  0  0  0  0
   22.8949   10.6846    4.2096 C   0  0  0  0  0  0  0  0  0  0  0  0
   24.1591   10.8194    4.0115 C   0  0  0  0  0  0  0  0  0  0  0  0
   24.1918   12.1710    4.5263 C   0  0  0  0  0  0  0  0  0  0  0  0
   25.8516   11.5248    4.3644 C   0  0  0  0  0  0  0  0  0  0  0  0
   26.9195   12.3547    4.7267 C   0  0  0  0  0  0  0  0  0  0  0  0
   27.5755   13.6841    5.3776 C   0  0  0  0  0  0  0  0  0  0  0  0
   28.7558   14.3668    5.4713 C   0  0  0  0  0  0  0  0  0  0  0  0
   30.3392   13.6765    5.2828 C   0  0  0  0  0  0  0  0  0  0  0  0
   30.8971   15.0220    5.6961 C   0  0  0  0  0  0  0  0  0  0  0  0
   32.6546   15.0066    5.7685 C   0  0  0  0  0  0  0  0  0  0  0  0
   32.7296   16.4262    6.3826 C   0  0  0  0  0  0  0  0  0  0  0  0
   34.1162   17.1105    6.6951 C   0  0  0  0  0  0  0  0  0  0  0  0
   34.5081   18.1918    7.6198 C   0  0  0  0  0  0  0  0  0  0  0  0
   35.9548   17.9834    6.9896 C   0  0  0  0  0  0  0  0  0  0  0  0
   36.8074   18.2111    7.8565 C   0  0  0  0  0  0  0  0  0  0  0  0
   35.2575   16.5047    8.0913 C   0  0  0  0  0  0  0  0  0  0  0  0
   33.3364   15.3028    8.0636 C   0  0  0  0  0  0  0  0  0  0  0  0
   30.9160   14.0361    7.3000 C   0  0  0  0  0  0  0  0  0  0  0  0
   28.6388   12.9972    7.1622 C   0  0  0  0  0  0  0  0  0  0  0  0
   25.9288   11.6649    6.6977 C   0  0  0  0  0  0  0  0  0  0  0  0
   23.5491   10.5064    6.2474 C   0  0  0  0  0  0  0  0  0  0  0  0
   20.8935    9.2308    5.6493 C   0  0  0  0  0  0  0  0  0  0  0  0
   16.8761    8.0936    4.4744 H   0  0  0  0  0  0  0  0  0  0  0  0
   14.3338    6.3834    3.7772 H   0  0  0  0  0  0  0  0  0  0  0  0
   12.0710    5.1989    3.2005 H   0  0  0  0  0  0  0  0  0  0  0  0
    9.6201    3.9236    2.7121 H   0  0  0  0  0  0  0  0  0  0  0  0
    7.6001    3.3135    1.9041 H   0  0  0  0  0  0  0  0  0  0  0  0
    7.6402    1.1006    0.5979 H   0  0  0  0  0  0  0  0  0  0  0  0
    8.4022    4.4189    1.2686 H   0  0  0  0  0  0  0  0  0  0  0  0
    9.9094    2.2232    1.0976 H   0  0  0  0  0  0  0  0  0  0  0  0
   10.5115    5.4047    1.7407 H   0  0  0  0  0  0  0  0  0  0  0  0
   12.3173    3.7423    1.6633 H   0  0  0  0  0  0  0  0  0  0  0  0
   12.6780    6.8498    2.5248 H   0  0  0  0  0  0  0  0  0  0  0  0
   15.1621    4.4737    1.8903 H   0  0  0  0  0  0  0  0  0  0  0  0
   14.0791    7.7525    3.2734 H   0  0  0  0  0  0  0  0  0  0  0  0
   14.7741    5.4040    2.8192 H   0  0  0  0  0  0  0  0  0  0  0  0
   16.9277    8.9310    3.3517 H   0  0  0  0  0  0  0  0  0  0  0  0
   18.5621    6.5934    2.8957 H   0  0  0  0  0  0  0  0  0  0  0  0
   19.1794    9.7124    3.6001 H   0  0  0  0  0  0  0  0  0  0  0  0
   20.8349    7.6766    3.5208 H   0  0  0  0  0  0  0  0  0  0  0  0
   20.3427   10.7592    4.4302 H   0  0  0  0  0  0  0  0  0  0  0  0
   22.5053    9.5884    4.3806 H   0  0  0  0  0  0  0  0  0  0  0  0
   22.4055   11.5189    4.9608 H   0  0  0  0  0  0  0  0  0  0  0  0
   24.7559    9.7478    4.2258 H   0  0  0  0  0  0  0  0  0  0  0  0
   24.2646   13.0007    5.5581 H   0  0  0  0  0  0  0  0  0  0  0  0
   26.8722   10.9358    4.7599 H   0  0  0  0  0  0  0  0  0  0  0  0
   26.6032   13.3395    5.5863 H   0  0  0  0  0  0  0  0  0  0  0  0
   28.4378   12.7038    5.2506 H   0  0  0  0  0  0  0  0  0  0  0  0
   28.8390   15.0330    6.4299 H   0  0  0  0  0  0  0  0  0  0  0  0
   31.4058   13.1159    5.6698 H   0  0  0  0  0  0  0  0  0  0  0  0
   30.9335   15.9061    6.8443 H   0  0  0  0  0  0  0  0  0  0  0  0
   33.7008   14.2511    6.1422 H   0  0  0  0  0  0  0  0  0  0  0  0
   33.0561   17.0364    7.4342 H   0  0  0  0  0  0  0  0  0  0  0  0
   34.9904   16.0104    6.4658 H   0  0  0  0  0  0  0  0  0  0  0  0
   35.3501   18.4079    8.2357 H   0  0  0  0  0  0  0  0  0  0  0  0
   36.4859   16.6686    6.6508 H   0  0  0  0  0  0  0  0  0  0  0  0
   37.5666   19.4214    8.4555 H   0  0  0  0  0  0  0  0  0  0  0  0
   37.0941   17.1484    8.1111 H   0  0  0  0  0  0  0  0  0  0  0  0
   35.0450   15.9474    8.1624 H   0  0  0  0  0  0  0  0  0  0  0  0
   32.5749   14.7240    7.5843 H   0  0  0  0  0  0  0  0  0  0  0  0
   30.2587   13.6002    7.1099 H   0  0  0  0  0  0  0  0  0  0  0  0
   27.5215   12.3194    6.6182 H   0  0  0  0  0  0  0  0  0  0  0  0
   24.7803   11.5806    5.9375 H   0  0  0  0  0  0  0  0  0  0  0  0
   19.6231    8.8267    4.7226 H   0  0  0  0  0  0  0  0  0  0  0  0
  1  2  1  0  0  0  0
  1 42  2  3  0  0  0
  1 43  1  0  0  0  0
  2  3  2  3  0  0  0
  2 44  1  0  0  0  0
  3  4  1  0  0  0  0
  3 45  1  0  0  0  0
  4  5  2  3  0  0  0
  4 46  1  0  0  0  0
  5  6  1  0  0  0  0
  5 47  1  0  0  0  0
  6  7  2  3  0  0  0
  6 48  1  0  0  0  0
  7  8  1  0  0  0  0
  7 49  1  0  0  0  0
  8  9  2  3  0  0  0
  8 50  1  0  0  0  0
  9 10  1  0  0  0  0
  9 51  1  0  0  0  0
 10 11  2  3  0  0  0
 10 52  1  0  0  0  0
 11 12  1  0  0  0  0
 11 53  1  0  0  0  0
 12 13  2  3  0  0  0
 12 54  1  0  0  0  0
 13 14  1  0  0  0  0
 13 55  1  0  0  0  0
 14 15  2  3  0  0  0
 14 56  1  0  0  0  0
 15 16  1  0  0  0  0
 15 57  1  0  0  0  0
 16 17  2  3  0  0  0
 16 58  1  0  0  0  0
 17 18  1  0  0  0  0
 17 59  1  0  0  0  0
 18 19  2  3  0  0  0
 18 60  1  0  0  0  0
 19 20  1  0  0  0  0
 19 61  1  0  0  0  0
 20 21  2  3  0  0  0
 20 62  1  0  0  0  0
 21 22  1  0  0  0  0
 21 63  1  0  0  0  0
 22 23  2  3  0  0  0
 22 64  1  0  0  0  0
 23 24  1  0  0  0  0
 23 65  1  0  0  0  0
 24 25  2  3  0  0  0
 24 66  1  0  0  0  0
 25 26  1  0  0  0  0
 25 67  1  0  0  0  0
 26 27  2  3  0  0  0
 26 68  1  0  0  0  0
 27 28  1  0  0  0  0
 27 69  1  0  0  0  0
 28 29  2  3  0  0  0
 28 70  1  0  0  0  0
 29 30  1  0  0  0  0
 29 71  1  0  0  0  0
 30 31  2  3  0  0  0
 30 72  1  0  0  0  0
 31 32  1  0  0  0  0
 31 73  1  0  0  0  0
 32 33  2  3  0  0  0
 32 74  1  0  0  0  0
 33 34  1  0  0  0  0
 33 75  1  0  0  0  0
 34 35  2  3  0  0  0
 34 76  1  0  0  0  0
 35 36  1  0  0  0  0
 35 77  1  0  0  0  0
 36 37  2  3  0  0  0
 36 78  1  0  0  0  0
 37 38  1  0  0  0  0
 37 79  1  0  0  0  0
 38 39  2  3  0  0  0
 38 80  1  0  0  0  0
 39 40  1  0  0  0  0
 39 81  1  0  0  0  0
 40 41  2  3  0  0  0
 40 82  1  0  0  0  0
 41 42  1  0  0  0  0
 41 83  1  0  0  0  0
 42 84  1  0  0  0  0
M  END
$$$$
