
 OpenBabel04232216503D

 73 74  0  0  1  0  0  0  0  0999 V2000
    6.5382   -3.3520    1.7525 C   0  0  0  0  0  0  0  0  0  0  0  0
    7.2211   -4.0954    0.3868 C   0  0  3  0  0  0  0  0  0  0  0  0
    5.5998   -4.0259   -0.3797 C   0  0  0  0  0  0  0  0  0  0  0  0
    5.1291   -2.5539   -0.9966 C   0  0  0  0  0  0  0  0  0  0  0  0
    5.4380   -2.4370   -2.4796 C   0  0  0  0  0  0  0  0  0  0  0  0
    6.8961   -2.3744   -2.5329 C   0  0  0  0  0  0  0  0  0  0  0  0
    7.3169   -3.8431   -2.6668 C   0  0  0  0  0  0  0  0  0  0  0  0
    8.6966   -3.7820   -2.5068 C   0  0  0  0  0  0  0  0  0  0  0  0
    9.0955   -5.1887   -2.6610 C   0  0  0  0  0  0  0  0  0  0  0  0
   10.5470   -5.0428   -2.8102 C   0  0  0  0  0  0  0  0  0  0  0  0
   10.9212   -6.2858   -3.4728 C   0  0  0  0  0  0  0  0  0  0  0  0
   12.3166   -5.9579   -3.8941 C   0  0  0  0  0  0  0  0  0  0  0  0
   12.9123   -7.2853   -3.9274 C   0  0  0  0  0  0  0  0  0  0  0  0
   13.2551   -7.3642   -2.4553 C   0  0  0  0  0  0  0  0  0  0  0  0
   14.3158   -6.8881   -2.0465 O   0  0  0  0  0  0  0  0  0  0  0  0
   12.3053   -8.3242   -1.6544 C   0  0  0  0  0  0  0  0  0  0  0  0
   11.9456   -7.5714   -0.4346 C   0  0  0  0  0  0  0  0  0  0  0  0
   13.3716   -7.5643    0.4944 C   0  0  0  0  0  0  0  0  0  0  0  0
   14.8273   -8.4979    0.3726 C   0  0  0  0  0  0  0  0  0  0  0  0
   15.1590  -10.0047    0.7940 C   0  0  0  0  0  0  0  0  0  0  0  0
   15.5648  -11.0682   -0.2907 C   0  0  0  0  0  0  0  0  0  0  0  0
   14.3069  -11.7429   -0.8437 C   0  0  0  0  0  0  0  0  0  0  0  0
   14.3294  -12.0254   -2.3233 C   0  0  0  0  0  0  0  0  0  0  0  0
   13.4116  -10.9900   -3.0176 C   0  0  0  0  0  0  0  0  0  0  0  0
   13.4456   -9.5543   -2.3411 C   0  0  0  0  0  0  0  0  0  0  0  0
   10.5135   -6.2885    0.0887 C   0  0  0  0  0  0  0  0  0  0  0  0
    8.7317   -5.3805    0.5245 C   0  0  0  0  0  0  0  0  0  0  0  0
    5.7135   -2.6701    1.4189 H   0  0  0  0  0  0  0  0  0  0  0  0
    7.1413   -2.5984    2.2660 H   0  0  0  0  0  0  0  0  0  0  0  0
    5.9525   -3.9993    2.4255 H   0  0  0  0  0  0  0  0  0  0  0  0
    7.7540   -3.2315   -0.0023 H   0  0  0  0  0  0  0  0  0  0  0  0
    5.3690   -4.8214   -1.0947 H   0  0  0  0  0  0  0  0  0  0  0  0
    4.8117   -4.1834    0.3785 H   0  0  0  0  0  0  0  0  0  0  0  0
    5.6051   -1.7125   -0.4688 H   0  0  0  0  0  0  0  0  0  0  0  0
    4.0482   -2.3640   -0.9056 H   0  0  0  0  0  0  0  0  0  0  0  0
    5.0619   -1.5559   -3.0010 H   0  0  0  0  0  0  0  0  0  0  0  0
    5.0301   -3.3115   -3.0010 H   0  0  0  0  0  0  0  0  0  0  0  0
    7.3604   -1.9573   -1.6114 H   0  0  0  0  0  0  0  0  0  0  0  0
    7.3424   -1.8129   -3.3398 H   0  0  0  0  0  0  0  0  0  0  0  0
    6.9826   -4.2360   -3.6439 H   0  0  0  0  0  0  0  0  0  0  0  0
    6.9435   -4.5643   -1.9498 H   0  0  0  0  0  0  0  0  0  0  0  0
    9.0900   -3.4210   -1.5487 H   0  0  0  0  0  0  0  0  0  0  0  0
    9.2030   -3.1132   -3.2849 H   0  0  0  0  0  0  0  0  0  0  0  0
    8.6296   -5.6425   -3.5397 H   0  0  0  0  0  0  0  0  0  0  0  0
    8.8166   -5.8638   -1.8325 H   0  0  0  0  0  0  0  0  0  0  0  0
   11.0530   -4.8621   -1.8554 H   0  0  0  0  0  0  0  0  0  0  0  0
   10.8116   -4.2125   -3.4695 H   0  0  0  0  0  0  0  0  0  0  0  0
   10.3260   -6.5689   -4.3457 H   0  0  0  0  0  0  0  0  0  0  0  0
   10.7425   -7.0974   -2.7596 H   0  0  0  0  0  0  0  0  0  0  0  0
   12.8211   -5.2978   -3.1604 H   0  0  0  0  0  0  0  0  0  0  0  0
   12.3308   -5.4412   -4.8479 H   0  0  0  0  0  0  0  0  0  0  0  0
   13.7785   -7.3650   -4.5797 H   0  0  0  0  0  0  0  0  0  0  0  0
   12.1959   -8.0738   -4.1891 H   0  0  0  0  0  0  0  0  0  0  0  0
   13.1017   -7.5143    1.5549 H   0  0  0  0  0  0  0  0  0  0  0  0
   13.7759   -6.5611    0.2669 H   0  0  0  0  0  0  0  0  0  0  0  0
   15.4736   -7.9486    1.0804 H   0  0  0  0  0  0  0  0  0  0  0  0
   15.3531   -8.2993   -0.5683 H   0  0  0  0  0  0  0  0  0  0  0  0
   14.3869  -10.4211    1.4407 H   0  0  0  0  0  0  0  0  0  0  0  0
   16.0750   -9.9591    1.4118 H   0  0  0  0  0  0  0  0  0  0  0  0
   16.1651  -11.8740    0.1687 H   0  0  0  0  0  0  0  0  0  0  0  0
   16.2273  -10.6490   -1.0595 H   0  0  0  0  0  0  0  0  0  0  0  0
   13.4630  -11.0885   -0.6105 H   0  0  0  0  0  0  0  0  0  0  0  0
   14.0913  -12.6557   -0.2838 H   0  0  0  0  0  0  0  0  0  0  0  0
   13.9588  -13.0395   -2.5319 H   0  0  0  0  0  0  0  0  0  0  0  0
   15.3524  -12.0098   -2.7359 H   0  0  0  0  0  0  0  0  0  0  0  0
   12.4045  -11.3737   -3.1809 H   0  0  0  0  0  0  0  0  0  0  0  0
   13.8538  -10.9384   -4.0373 H   0  0  0  0  0  0  0  0  0  0  0  0
   13.7128   -9.1532   -3.3319 H   0  0  0  0  0  0  0  0  0  0  0  0
   14.4355   -9.4231   -1.8926 H   0  0  0  0  0  0  0  0  0  0  0  0
   11.1722   -5.4761    0.3895 H   0  0  0  0  0  0  0  0  0  0  0  0
   10.3964   -6.8735    1.0292 H   0  0  0  0  0  0  0  0  0  0  0  0
    9.3441   -4.4775    0.6652 H   0  0  0  0  0  0  0  0  0  0  0  0
    8.5869   -5.7237    1.5689 H   0  0  0  0  0  0  0  0  0  0  0  0
  1  2  1  0  0  0  0
  1 28  1  0  0  0  0
  1 29  1  0  0  0  0
  1 30  1  0  0  0  0
  2  3  1  0  0  0  0
  2 27  1  0  0  0  0
  2 31  1  0  0  0  0
  3  4  1  0  0  0  0
  3 32  1  0  0  0  0
  3 33  1  0  0  0  0
  4  5  1  0  0  0  0
  4 34  1  0  0  0  0
  4 35  1  0  0  0  0
  5  6  1  0  0  0  0
  5 36  1  0  0  0  0
  5 37  1  0  0  0  0
  6  7  1  0  0  0  0
  6 38  1  0  0  0  0
  6 39  1  0  0  0  0
  7  8  1  0  0  0  0
  7 40  1  0  0  0  0
  7 41  1  0  0  0  0
  8  9  1  0  0  0  0
  8 42  1  0  0  0  0
  8 43  1  0  0  0  0
  9 10  1  0  0  0  0
  9 44  1  0  0  0  0
  9 45  1  0  0  0  0
 10 11  1  0  0  0  0
 10 46  1  0  0  0  0
 10 47  1  0  0  0  0
 11 12  1  0  0  0  0
 11 48  1  0  0  0  0
 11 49  1  0  0  0  0
 12 13  1  0  0  0  0
 12 50  1  0  0  0  0
 12 51  1  0  0  0  0
 13 14  1  0  0  0  0
 13 52  1  0  0  0  0
 13 53  1  0  0  0  0
 14 15  2  0  0  0  0
 14 16  1  0  0  0  0
 16 17  2  3  0  0  0
 16 25  1  0  0  0  0
 17 18  1  0  0  0  0
 17 26  1  0  0  0  0
 18 19  1  0  0  0  0
 18 54  1  0  0  0  0
 18 55  1  0  0  0  0
 19 20  1  0  0  0  0
 19 56  1  0  0  0  0
 19 57  1  0  0  0  0
 20 21  1  0  0  0  0
 20 58  1  0  0  0  0
 20 59  1  0  0  0  0
 21 22  1  0  0  0  0
 21 60  1  0  0  0  0
 21 61  1  0  0  0  0
 22 23  1  0  0  0  0
 22 62  1  0  0  0  0
 22 63  1  0  0  0  0
 23 24  1  0  0  0  0
 23 64  1  0  0  0  0
 23 65  1  0  0  0  0
 24 25  1  0  0  0  0
 24 66  1  0  0  0  0
 24 67  1  0  0  0  0
 25 68  1  0  0  0  0
 25 69  1  0  0  0  0
 26 27  1  0  0  0  0
 26 70  1  0  0  0  0
 26 71  1  0  0  0  0
 27 72  1  0  0  0  0
 27 73  1  0  0  0  0
M  END
$$$$
