
 OpenBabel04232216593D

 62 63  0  0  1  0  0  0  0  0999 V2000
    9.1341   -0.7955   -2.2026 O   0  0  0  0  0  0  0  0  0  0  0  0
    7.9899   -0.3703   -2.0476 C   0  0  0  0  0  0  0  0  0  0  0  0
    7.0990   -0.9234   -0.9484 C   0  0  0  0  0  0  0  0  0  0  0  0
    5.6029   -0.8008   -1.2137 C   0  0  3  0  0  0  0  0  0  0  0  0
    4.8363   -1.9889   -0.5750 C   0  0  0  0  0  0  0  0  0  0  0  0
    3.3239   -1.8277   -0.7644 C   0  0  0  0  0  0  0  0  0  0  0  0
    2.5051   -3.0037   -0.2455 C   0  0  0  0  0  0  0  0  0  0  0  0
    1.0158   -2.7211   -0.4694 C   0  0  0  0  0  0  0  0  0  0  0  0
    0.1414   -3.8600    0.0416 C   0  0  0  0  0  0  0  0  0  0  0  0
   -1.3410   -3.5712   -0.1923 C   0  0  0  0  0  0  0  0  0  0  0  0
   -2.2030   -4.7133    0.3188 C   0  0  0  0  0  0  0  0  0  0  0  0
    4.9955    0.3988   -0.6580 N   0  0  0  0  0  0  0  0  0  0  0  0
    5.3648    1.6116   -0.7396 C   0  0  0  0  0  0  0  0  0  0  0  0
    6.5386    2.3157   -1.2970 C   0  0  0  0  0  0  0  0  0  0  0  0
    7.4426    1.9469   -2.2162 C   0  0  0  0  0  0  0  0  0  0  0  0
    8.6573    2.8371   -2.4399 C   0  0  0  0  0  0  0  0  0  0  0  0
    8.4243    3.9412   -3.4718 C   0  0  0  0  0  0  0  0  0  0  0  0
    9.6549    4.8384   -3.6209 C   0  0  0  0  0  0  0  0  0  0  0  0
    9.4297    5.9110   -4.6753 C   0  0  0  0  0  0  0  0  0  0  0  0
    7.4920    0.6894   -2.7901 N   0  0  0  0  0  0  0  0  0  0  0  0
    6.8730    0.4223   -4.1003 C   0  0  0  0  0  0  0  0  0  0  0  0
    7.8590    0.4548   -5.2473 C   0  0  0  0  0  0  0  0  0  0  0  0
    8.9037   -0.3944   -5.3244 C   0  0  0  0  0  0  0  0  0  0  0  0
    9.9329   -0.3493   -6.3327 C   0  0  0  0  0  0  0  0  0  0  0  0
    9.7317   -0.1305   -7.6394 C   0  0  0  0  0  0  0  0  0  0  0  0
    8.5379   -0.0000   -8.2995 N   0  0  0  0  0  0  0  0  0  0  0  0
    7.5044    0.5528   -7.8542 N   0  0  0  0  0  0  0  0  0  0  0  0
    7.5589    1.6003   -6.5393 S   0  0  0  0  0  0  0  0  0  0  0  0
    7.3927   -0.4746    0.0045 H   0  0  0  0  0  0  0  0  0  0  0  0
    7.3615   -1.9906   -0.9061 H   0  0  0  0  0  0  0  0  0  0  0  0
    5.3762   -0.8439   -2.2804 H   0  0  0  0  0  0  0  0  0  0  0  0
    5.0680   -2.0563    0.4964 H   0  0  0  0  0  0  0  0  0  0  0  0
    5.1682   -2.9290   -1.0374 H   0  0  0  0  0  0  0  0  0  0  0  0
    3.1090   -1.6779   -1.8298 H   0  0  0  0  0  0  0  0  0  0  0  0
    2.9851   -0.9264   -0.2389 H   0  0  0  0  0  0  0  0  0  0  0  0
    2.6995   -3.1523    0.8238 H   0  0  0  0  0  0  0  0  0  0  0  0
    2.7958   -3.9235   -0.7648 H   0  0  0  0  0  0  0  0  0  0  0  0
    0.8304   -2.5660   -1.5398 H   0  0  0  0  0  0  0  0  0  0  0  0
    0.7380   -1.7895    0.0404 H   0  0  0  0  0  0  0  0  0  0  0  0
    0.3221   -4.0076    1.1131 H   0  0  0  0  0  0  0  0  0  0  0  0
    0.4192   -4.7908   -0.4671 H   0  0  0  0  0  0  0  0  0  0  0  0
   -1.5308   -3.4244   -1.2622 H   0  0  0  0  0  0  0  0  0  0  0  0
   -1.6286   -2.6438    0.3173 H   0  0  0  0  0  0  0  0  0  0  0  0
   -1.9514   -5.6491   -0.1905 H   0  0  0  0  0  0  0  0  0  0  0  0
   -3.2618   -4.5022    0.1415 H   0  0  0  0  0  0  0  0  0  0  0  0
   -2.0591   -4.8585    1.3942 H   0  0  0  0  0  0  0  0  0  0  0  0
    4.6802    2.3189   -0.2310 H   0  0  0  0  0  0  0  0  0  0  0  0
    6.6419    3.3051   -0.8501 H   0  0  0  0  0  0  0  0  0  0  0  0
    9.5242    2.2286   -2.7248 H   0  0  0  0  0  0  0  0  0  0  0  0
    8.9337    3.3048   -1.4837 H   0  0  0  0  0  0  0  0  0  0  0  0
    7.5621    4.5538   -3.1808 H   0  0  0  0  0  0  0  0  0  0  0  0
    8.1857    3.4976   -4.4402 H   0  0  0  0  0  0  0  0  0  0  0  0
   10.5267    4.2358   -3.9016 H   0  0  0  0  0  0  0  0  0  0  0  0
    9.8873    5.3185   -2.6628 H   0  0  0  0  0  0  0  0  0  0  0  0
    9.2144    5.4617   -5.6502 H   0  0  0  0  0  0  0  0  0  0  0  0
   10.3210    6.5375   -4.7795 H   0  0  0  0  0  0  0  0  0  0  0  0
    8.5896    6.5577   -4.4023 H   0  0  0  0  0  0  0  0  0  0  0  0
    6.0449    1.1275   -4.2439 H   0  0  0  0  0  0  0  0  0  0  0  0
    6.4305   -0.5809   -4.0820 H   0  0  0  0  0  0  0  0  0  0  0  0
    9.0661   -1.1365   -4.5490 H   0  0  0  0  0  0  0  0  0  0  0  0
   10.9451   -0.5107   -5.9710 H   0  0  0  0  0  0  0  0  0  0  0  0
   10.5999   -0.1147   -8.2962 H   0  0  0  0  0  0  0  0  0  0  0  0
  1  2  2  0  0  0  0
  2  3  1  0  0  0  0
  2 20  1  0  0  0  0
  3  4  1  0  0  0  0
  3 29  1  0  0  0  0
  3 30  1  0  0  0  0
  4  5  1  0  0  0  0
  4 12  1  0  0  0  0
  4 31  1  0  0  0  0
  5  6  1  0  0  0  0
  5 32  1  0  0  0  0
  5 33  1  0  0  0  0
  6  7  1  0  0  0  0
  6 34  1  0  0  0  0
  6 35  1  0  0  0  0
  7  8  1  0  0  0  0
  7 36  1  0  0  0  0
  7 37  1  0  0  0  0
  8  9  1  0  0  0  0
  8 38  1  0  0  0  0
  8 39  1  0  0  0  0
  9 10  1  0  0  0  0
  9 40  1  0  0  0  0
  9 41  1  0  0  0  0
 10 11  1  0  0  0  0
 10 42  1  0  0  0  0
 10 43  1  0  0  0  0
 11 44  1  0  0  0  0
 11 45  1  0  0  0  0
 11 46  1  0  0  0  0
 12 13  2  0  0  0  0
 13 14  1  0  0  0  0
 13 47  1  0  0  0  0
 14 15  2  0  0  0  0
 14 48  1  0  0  0  0
 15 16  1  0  0  0  0
 15 20  1  0  0  0  0
 16 17  1  0  0  0  0
 16 49  1  0  0  0  0
 16 50  1  0  0  0  0
 17 18  1  0  0  0  0
 17 51  1  0  0  0  0
 17 52  1  0  0  0  0
 18 19  1  0  0  0  0
 18 53  1  0  0  0  0
 18 54  1  0  0  0  0
 19 55  1  0  0  0  0
 19 56  1  0  0  0  0
 19 57  1  0  0  0  0
 20 21  1  0  0  0  0
 21 22  1  0  0  0  0
 21 58  1  0  0  0  0
 21 59  1  0  0  0  0
 22 23  2  0  0  0  0
 22 28  1  0  0  0  0
 23 24  1  0  0  0  0
 23 60  1  0  0  0  0
 24 25  2  0  0  0  0
 24 61  1  0  0  0  0
 25 26  1  0  0  0  0
 25 62  1  0  0  0  0
 26 27  2  0  0  0  0
 27 28  1  0  0  0  0
M  END
$$$$
