
 OpenBabel04232216553D

 61 62  0  0  0  0  0  0  0  0999 V2000
    0.8857   -0.1849    0.3321 C   0  0  0  0  0  0  0  0  0  0  0  0
    2.3643   -0.2587    0.1109 N   0  0  0  0  0  0  0  0  0  0  0  0
    3.0591    0.9580   -0.0054 C   0  0  0  0  0  0  0  0  0  0  0  0
    2.1728    2.1771   -0.2579 C   0  0  0  0  0  0  0  0  0  0  0  0
    2.2391    3.1912    1.0688 C   0  0  0  0  0  0  0  0  0  0  0  0
    3.2022    2.8302    2.3294 C   0  0  0  0  0  0  0  0  0  0  0  0
    4.7182    3.3863    2.6022 C   0  0  0  0  0  0  0  0  0  0  0  0
    6.0591    2.8601    1.8364 C   0  0  0  0  0  0  0  0  0  0  0  0
    6.7654    3.4772    0.3197 C   0  0  0  0  0  0  0  0  0  0  0  0
    6.6963    2.8686   -1.3835 C   0  0  0  0  0  0  0  0  0  0  0  0
    5.4245    2.5786   -2.5865 C   0  0  0  0  0  0  0  0  0  0  0  0
    3.8381    2.0469   -2.6154 C   0  0  0  0  0  0  0  0  0  0  0  0
    2.4892    2.6061   -1.8453 C   0  0  0  0  0  0  0  0  0  0  0  0
    4.3836    1.3147   -0.0369 C   0  0  0  0  0  0  0  0  0  0  0  0
    4.4713    3.0140   -0.2073 C   0  0  0  0  0  0  0  0  0  0  0  0
    5.5418    0.2387   -0.0199 C   0  0  0  0  0  0  0  0  0  0  0  0
    7.0160    0.5345    0.2969 C   0  0  0  0  0  0  0  0  0  0  0  0
    5.4349   -1.1291   -0.1668 C   0  0  0  0  0  0  0  0  0  0  0  0
    6.6980   -2.0907   -0.3087 C   0  0  0  0  0  0  0  0  0  0  0  0
    7.9212   -1.6054   -0.8365 O   0  0  0  0  0  0  0  0  0  0  0  0
    4.2006   -1.9561   -0.1217 C   0  0  0  0  0  0  0  0  0  0  0  0
    4.4335   -3.4774   -0.0113 C   0  0  0  0  0  0  0  0  0  0  0  0
    2.9086   -1.5500   -0.0481 C   0  0  0  0  0  0  0  0  0  0  0  0
    1.8358   -2.6542   -0.1695 C   0  0  0  0  0  0  0  0  0  0  0  0
    0.5637    0.6951    0.8955 H   0  0  0  0  0  0  0  0  0  0  0  0
    0.5096   -0.9966    0.9586 H   0  0  0  0  0  0  0  0  0  0  0  0
    0.3734   -0.2073   -0.6393 H   0  0  0  0  0  0  0  0  0  0  0  0
    1.0979    2.0095   -0.3460 H   0  0  0  0  0  0  0  0  0  0  0  0
    1.2202    3.1709    1.4803 H   0  0  0  0  0  0  0  0  0  0  0  0
    2.3668    4.2505    0.7895 H   0  0  0  0  0  0  0  0  0  0  0  0
    3.1772    1.7486    2.5050 H   0  0  0  0  0  0  0  0  0  0  0  0
    2.6486    3.2498    3.1850 H   0  0  0  0  0  0  0  0  0  0  0  0
    4.8927    3.0704    3.6412 H   0  0  0  0  0  0  0  0  0  0  0  0
    4.7125    4.4766    2.6149 H   0  0  0  0  0  0  0  0  0  0  0  0
    5.9661    1.7882    1.9001 H   0  0  0  0  0  0  0  0  0  0  0  0
    6.8766    3.0807    2.5514 H   0  0  0  0  0  0  0  0  0  0  0  0
    7.8492    3.4471    0.5124 H   0  0  0  0  0  0  0  0  0  0  0  0
    6.5283    4.5450    0.2780 H   0  0  0  0  0  0  0  0  0  0  0  0
    7.4201    2.0708   -1.5219 H   0  0  0  0  0  0  0  0  0  0  0  0
    7.2159    3.7048   -1.8794 H   0  0  0  0  0  0  0  0  0  0  0  0
    5.9166    1.8569   -3.2575 H   0  0  0  0  0  0  0  0  0  0  0  0
    5.3908    3.5176   -3.1565 H   0  0  0  0  0  0  0  0  0  0  0  0
    3.8448    0.9523   -2.5203 H   0  0  0  0  0  0  0  0  0  0  0  0
    3.5630    2.1884   -3.6737 H   0  0  0  0  0  0  0  0  0  0  0  0
    1.6543    2.1535   -2.4049 H   0  0  0  0  0  0  0  0  0  0  0  0
    2.3600    3.6864   -2.0043 H   0  0  0  0  0  0  0  0  0  0  0  0
    3.6084    3.5755   -0.5140 H   0  0  0  0  0  0  0  0  0  0  0  0
    4.9744    3.5805   -0.9556 H   0  0  0  0  0  0  0  0  0  0  0  0
    4.5850    3.6262    0.6464 H   0  0  0  0  0  0  0  0  0  0  0  0
    7.3497    1.4423    0.7554 H   0  0  0  0  0  0  0  0  0  0  0  0
    7.6411    0.4711   -0.5914 H   0  0  0  0  0  0  0  0  0  0  0  0
    7.3866   -0.1767    1.0512 H   0  0  0  0  0  0  0  0  0  0  0  0
    6.4804   -2.8973   -1.0105 H   0  0  0  0  0  0  0  0  0  0  0  0
    6.9398   -2.4997    0.6809 H   0  0  0  0  0  0  0  0  0  0  0  0
    7.7368   -1.3131   -1.7299 H   0  0  0  0  0  0  0  0  0  0  0  0
    5.3771   -3.7916    0.4405 H   0  0  0  0  0  0  0  0  0  0  0  0
    4.3592   -3.9346   -1.0040 H   0  0  0  0  0  0  0  0  0  0  0  0
    3.7279   -3.9491    0.6818 H   0  0  0  0  0  0  0  0  0  0  0  0
    2.1771   -3.6171   -0.5515 H   0  0  0  0  0  0  0  0  0  0  0  0
    1.0684   -2.3654   -0.8904 H   0  0  0  0  0  0  0  0  0  0  0  0
    1.3834   -2.8461    0.8123 H   0  0  0  0  0  0  0  0  0  0  0  0
  1  2  1  0  0  0  0
  1 25  1  0  0  0  0
  1 26  1  0  0  0  0
  1 27  1  0  0  0  0
  2  3  1  0  0  0  0
  2 23  1  0  0  0  0
  3  4  1  0  0  0  0
  3 14  2  0  0  0  0
  4  5  1  0  0  0  0
  4 13  1  0  0  0  0
  4 28  1  0  0  0  0
  5  6  1  0  0  0  0
  5 29  1  0  0  0  0
  5 30  1  0  0  0  0
  6  7  1  0  0  0  0
  6 31  1  0  0  0  0
  6 32  1  0  0  0  0
  7  8  1  0  0  0  0
  7 33  1  0  0  0  0
  7 34  1  0  0  0  0
  8  9  1  0  0  0  0
  8 35  1  0  0  0  0
  8 36  1  0  0  0  0
  9 10  1  0  0  0  0
  9 37  1  0  0  0  0
  9 38  1  0  0  0  0
 10 11  1  0  0  0  0
 10 39  1  0  0  0  0
 10 40  1  0  0  0  0
 11 12  1  0  0  0  0
 11 41  1  0  0  0  0
 11 42  1  0  0  0  0
 12 13  1  0  0  0  0
 12 43  1  0  0  0  0
 12 44  1  0  0  0  0
 13 45  1  0  0  0  0
 13 46  1  0  0  0  0
 14 15  1  0  0  0  0
 14 16  1  0  0  0  0
 15 47  1  0  0  0  0
 15 48  1  0  0  0  0
 15 49  1  0  0  0  0
 16 17  1  0  0  0  0
 16 18  2  0  0  0  0
 17 50  1  0  0  0  0
 17 51  1  0  0  0  0
 17 52  1  0  0  0  0
 18 19  1  0  0  0  0
 18 21  1  0  0  0  0
 19 20  1  0  0  0  0
 19 53  1  0  0  0  0
 19 54  1  0  0  0  0
 20 55  1  0  0  0  0
 21 22  1  0  0  0  0
 21 23  2  0  0  0  0
 22 56  1  0  0  0  0
 22 57  1  0  0  0  0
 22 58  1  0  0  0  0
 23 24  1  0  0  0  0
 24 59  1  0  0  0  0
 24 60  1  0  0  0  0
 24 61  1  0  0  0  0
M  END
$$$$
