
 OpenBabel04232216543D

135134  0  0  0  0  0  0  0  0999 V2000
   20.0763    0.9282  -16.7277 C   0  0  0  0  0  0  0  0  0  0  0  0
   19.6109    0.0375  -15.5884 C   0  0  0  0  0  0  0  0  0  0  0  0
   20.1040    0.5625  -14.2413 C   0  0  0  0  0  0  0  0  0  0  0  0
   19.6197   -0.3291  -13.1033 C   0  0  0  0  0  0  0  0  0  0  0  0
   20.1012    0.1831  -11.7480 C   0  0  0  0  0  0  0  0  0  0  0  0
   19.5929   -0.7269  -10.7361 N   0  0  0  0  0  0  0  0  0  0  0  0
   20.0915   -0.2891   -9.4675 N   0  0  0  0  0  0  0  0  0  0  0  0
   19.5846   -1.0934   -8.4167 N   0  0  0  0  0  0  0  0  0  0  0  0
   20.0718   -0.5912   -7.1554 N   0  0  0  0  0  0  0  0  0  0  0  0
   19.6122   -1.3635   -6.0292 N   0  0  0  0  0  0  0  0  0  0  0  0
   20.1128   -2.7002   -6.1254 N   0  0  0  0  0  0  0  0  0  0  0  0
   19.7309   -3.5138   -5.0425 N   0  0  0  0  0  0  0  0  0  0  0  0
   20.3350   -4.7689   -5.2285 N   0  0  0  0  0  0  0  0  0  0  0  0
   19.7654   -5.6578   -4.2917 N   0  0  0  0  0  0  0  0  0  0  0  0
   20.0414   -6.9950   -4.6184 N   0  0  0  0  0  0  0  0  0  0  0  0
   19.4621   -7.8348   -3.6352 N   0  0  0  0  0  0  0  0  0  0  0  0
   20.0845   -9.1127   -3.7306 N   0  0  0  0  0  0  0  0  0  0  0  0
   19.7185   -9.9867   -2.6643 N   0  0  0  0  0  0  0  0  0  0  0  0
   20.2699  -11.2744   -2.9109 N   0  0  0  0  0  0  0  0  0  0  0  0
   19.8806  -12.1586   -1.8608 N   0  0  0  0  0  0  0  0  0  0  0  0
   20.3393  -13.5008   -2.0305 N   0  0  0  0  0  0  0  0  0  0  0  0
   21.7058  -13.6074   -1.6723 N   0  0  0  0  0  0  0  0  0  0  0  0
   22.2069  -14.8933   -2.0207 N   0  0  0  0  0  0  0  0  0  0  0  0
   23.6147  -14.8438   -2.2166 N   0  0  0  0  0  0  0  0  0  0  0  0
   24.1222  -16.1610   -2.3340 N   0  0  0  0  0  0  0  0  0  0  0  0
   25.5242  -16.1974   -2.1671 N   0  0  0  0  0  0  0  0  0  0  0  0
   25.9532  -17.5159   -2.5081 N   0  0  0  0  0  0  0  0  0  0  0  0
   27.3817  -17.5886   -2.6085 N   0  0  0  0  0  0  0  0  0  0  0  0
   27.8486  -18.9299   -2.7117 N   0  0  0  0  0  0  0  0  0  0  0  0
   29.2688  -18.9265   -2.6384 N   0  0  0  0  0  0  0  0  0  0  0  0
   29.7692  -20.2359   -2.8936 N   0  0  0  0  0  0  0  0  0  0  0  0
   31.1972  -20.1995   -2.9417 N   0  0  0  0  0  0  0  0  0  0  0  0
   31.7600  -21.5154   -3.0281 N   0  0  0  0  0  0  0  0  0  0  0  0
   33.1888  -21.4289   -3.1285 N   0  0  0  0  0  0  0  0  0  0  0  0
   33.7292  -22.7196   -3.2415 N   0  0  0  0  0  0  0  0  0  0  0  0
   35.1367  -22.6712   -3.3276 N   0  0  0  0  0  0  0  0  0  0  0  0
   35.5364  -24.0268   -3.4441 N   0  0  0  0  0  0  0  0  0  0  0  0
   34.9729  -24.5843   -4.6588 N   0  0  0  0  0  0  0  0  0  0  0  0
   35.5977  -26.0664   -5.0445 S   0  0  0  0  0  0  0  0  0  0  0  0
   35.1333  -27.0858   -3.8321 N   0  0  0  0  0  0  0  0  0  0  0  0
   33.6091  -27.6864   -4.0626 S   0  0  0  0  0  0  0  0  0  0  0  0
   33.1450  -28.4175   -2.6441 N   0  0  0  0  0  0  0  0  0  0  0  0
   33.4663  -30.0489   -2.6063 S   0  0  0  0  0  0  0  0  0  0  0  0
   35.0976  -30.3269   -2.4434 N   0  0  0  0  0  0  0  0  0  0  0  0
   35.7793  -29.5824   -1.1320 S   0  0  0  0  0  0  0  0  0  0  0  0
   35.4743  -30.5427    0.1622 N   0  0  0  0  0  0  0  0  0  0  0  0
   36.0122  -29.8658    1.5692 S   0  0  0  0  0  0  0  0  0  0  0  0
   35.7307  -31.0065    2.7350 N   0  0  0  0  0  0  0  0  0  0  0  0
   34.1479  -31.0418    3.1960 S   0  0  0  0  0  0  0  0  0  0  0  0
   33.2109  -31.7266    2.0226 N   0  0  0  0  0  0  0  0  0  0  0  0
   33.6174  -33.2641    1.6015 S   0  0  0  0  0  0  0  0  0  0  0  0
   32.9727  -34.2039    2.7720 N   0  0  0  0  0  0  0  0  0  0  0  0
   33.5761  -35.7223    2.7690 S   0  0  0  0  0  0  0  0  0  0  0  0
   32.7744  -36.4347    4.0177 N   0  0  0  0  0  0  0  0  0  0  0  0
   33.4077  -36.0653    5.5056 S   0  0  0  0  0  0  0  0  0  0  0  0
   32.8677  -34.5384    5.8953 N   0  0  0  0  0  0  0  0  0  0  0  0
   31.2087  -34.4826    5.9350 S   0  0  0  0  0  0  0  0  0  0  0  0
   30.8860  -32.5308    6.4832 S   0  0  0  0  0  0  0  0  0  0  0  0
   31.2440  -31.3506    4.8440 S   0  0  0  0  0  0  0  0  0  0  0  0
   29.7348  -31.5351    3.4463 S   0  0  0  0  0  0  0  0  0  0  0  0
   29.9972  -29.9734    2.0854 S   0  0  0  0  0  0  0  0  0  0  0  0
   30.3667  -30.7269    0.1677 S   0  0  0  0  0  0  0  0  0  0  0  0
   29.7234  -29.2447   -1.1747 S   0  0  0  0  0  0  0  0  0  0  0  0
   29.4113  -30.0927   -3.0636 S   0  0  0  0  0  0  0  0  0  0  0  0
   30.0265  -28.7139   -4.5241 S   0  0  0  0  0  0  0  0  0  0  0  0
   28.9363  -29.0537   -6.2810 S   0  0  0  0  0  0  0  0  0  0  0  0
   29.7788  -27.9023   -7.8278 S   0  0  0  0  0  0  0  0  0  0  0  0
   28.6315  -28.2220   -9.5580 S   0  0  0  0  0  0  0  0  0  0  0  0
   29.3059  -26.9380  -11.0754 S   0  0  0  0  0  0  0  0  0  0  0  0
   28.2133  -27.3780  -12.8128 S   0  0  0  0  0  0  0  0  0  0  0  0
   28.8291  -26.0759  -14.3335 S   0  0  0  0  0  0  0  0  0  0  0  0
   27.7020  -26.5130  -16.0423 S   0  0  0  0  0  0  0  0  0  0  0  0
   28.3675  -25.2737  -17.5866 S   0  0  0  0  0  0  0  0  0  0  0  0
   27.1787  -25.6593  -19.2571 S   0  0  0  0  0  0  0  0  0  0  0  0
   27.7991  -24.3735  -20.7709 S   0  0  0  0  0  0  0  0  0  0  0  0
   26.8639  -24.9857  -22.5222 S   0  0  0  0  0  0  0  0  0  0  0  0
   27.2560  -23.5289  -23.9444 S   0  0  0  0  0  0  0  0  0  0  0  0
   26.0725  -23.9708  -25.5800 S   0  0  0  0  0  0  0  0  0  0  0  0
   26.9844  -23.0955  -27.2100 S   0  0  0  0  0  0  0  0  0  0  0  0
   25.6498  -23.2915  -28.7669 S   0  0  0  0  0  0  0  0  0  0  0  0
   26.1094  -25.0920  -29.6422 S   0  0  0  0  0  0  0  0  0  0  0  0
   19.7217    0.5380  -17.6857 H   0  0  0  0  0  0  0  0  0  0  0  0
   21.1694    0.9771  -16.7599 H   0  0  0  0  0  0  0  0  0  0  0  0
   19.6893    1.9443  -16.6066 H   0  0  0  0  0  0  0  0  0  0  0  0
   19.9823   -0.9814  -15.7491 H   0  0  0  0  0  0  0  0  0  0  0  0
   18.5160   -0.0127  -15.5908 H   0  0  0  0  0  0  0  0  0  0  0  0
   19.7421    1.5859  -14.0854 H   0  0  0  0  0  0  0  0  0  0  0  0
   21.1999    0.5997  -14.2363 H   0  0  0  0  0  0  0  0  0  0  0  0
   19.9797   -1.3537  -13.2678 H   0  0  0  0  0  0  0  0  0  0  0  0
   18.5216   -0.3710  -13.1141 H   0  0  0  0  0  0  0  0  0  0  0  0
   19.7266    1.2008  -11.5839 H   0  0  0  0  0  0  0  0  0  0  0  0
   21.1984    0.2133  -11.7363 H   0  0  0  0  0  0  0  0  0  0  0  0
   19.9283   -1.6621  -10.9894 H   0  0  0  0  0  0  0  0  0  0  0  0
   19.7907    0.6673   -9.2760 H   0  0  0  0  0  0  0  0  0  0  0  0
   19.9162   -2.0426   -8.5821 H   0  0  0  0  0  0  0  0  0  0  0  0
   19.8150    0.3994   -7.0679 H   0  0  0  0  0  0  0  0  0  0  0  0
   18.5892   -1.3156   -5.9447 H   0  0  0  0  0  0  0  0  0  0  0  0
   21.1398   -2.6460   -6.1290 H   0  0  0  0  0  0  0  0  0  0  0  0
   18.7302   -3.7216   -4.9835 H   0  0  0  0  0  0  0  0  0  0  0  0
   21.3442   -4.6886   -5.0982 H   0  0  0  0  0  0  0  0  0  0  0  0
   18.7507   -5.5160   -4.2591 H   0  0  0  0  0  0  0  0  0  0  0  0
   21.0413   -7.1952   -4.5879 H   0  0  0  0  0  0  0  0  0  0  0  0
   18.4562   -7.8713   -3.7915 H   0  0  0  0  0  0  0  0  0  0  0  0
   21.0997   -8.9621   -3.7344 H   0  0  0  0  0  0  0  0  0  0  0  0
   18.7108  -10.1135   -2.5935 H   0  0  0  0  0  0  0  0  0  0  0  0
   21.2828  -11.1598   -2.9494 H   0  0  0  0  0  0  0  0  0  0  0  0
   18.8545  -12.1279   -1.7584 H   0  0  0  0  0  0  0  0  0  0  0  0
   20.2342  -13.8403   -2.9857 H   0  0  0  0  0  0  0  0  0  0  0  0
   21.7835  -13.3912   -0.6761 H   0  0  0  0  0  0  0  0  0  0  0  0
   21.7392  -15.1882   -2.8865 H   0  0  0  0  0  0  0  0  0  0  0  0
   24.0684  -14.4065   -1.4096 H   0  0  0  0  0  0  0  0  0  0  0  0
   23.9329  -16.5723   -3.2475 H   0  0  0  0  0  0  0  0  0  0  0  0
   25.7779  -15.9852   -1.2002 H   0  0  0  0  0  0  0  0  0  0  0  0
   25.5014  -17.7537   -3.3978 H   0  0  0  0  0  0  0  0  0  0  0  0
   27.8092  -17.1740   -1.7769 H   0  0  0  0  0  0  0  0  0  0  0  0
   27.6156  -19.3520   -3.6126 H   0  0  0  0  0  0  0  0  0  0  0  0
   29.5560  -18.6081   -1.7139 H   0  0  0  0  0  0  0  0  0  0  0  0
   29.3939  -20.5608   -3.7925 H   0  0  0  0  0  0  0  0  0  0  0  0
   31.5365  -19.7172   -2.1034 H   0  0  0  0  0  0  0  0  0  0  0  0
   31.4082  -22.0137   -3.8551 H   0  0  0  0  0  0  0  0  0  0  0  0
   33.5922  -21.0604   -2.2666 H   0  0  0  0  0  0  0  0  0  0  0  0
   33.4367  -23.2153   -4.0845 H   0  0  0  0  0  0  0  0  0  0  0  0
   35.5271  -22.2178   -2.4964 H   0  0  0  0  0  0  0  0  0  0  0  0
   35.1039  -24.4842   -2.6401 H   0  0  0  0  0  0  0  0  0  0  0  0
   35.1036  -23.9136   -5.4273 H   0  0  0  0  0  0  0  0  0  0  0  0
   35.2148  -26.5703   -2.9594 H   0  0  0  0  0  0  0  0  0  0  0  0
   32.1351  -28.2692   -2.5213 H   0  0  0  0  0  0  0  0  0  0  0  0
   35.5758  -30.0464   -3.3000 H   0  0  0  0  0  0  0  0  0  0  0  0
   35.7919  -31.5051    0.0551 H   0  0  0  0  0  0  0  0  0  0  0  0
   36.2887  -30.8312    3.5677 H   0  0  0  0  0  0  0  0  0  0  0  0
   33.1303  -31.1322    1.2050 H   0  0  0  0  0  0  0  0  0  0  0  0
   31.9528  -34.2041    2.8450 H   0  0  0  0  0  0  0  0  0  0  0  0
   32.7767  -37.4538    3.8899 H   0  0  0  0  0  0  0  0  0  0  0  0
   33.2249  -33.9009    5.1847 H   0  0  0  0  0  0  0  0  0  0  0  0
   25.3346  -25.0267  -30.7371 H   0  0  0  0  0  0  0  0  0  0  0  0
  1  2  1  0  0  0  0
  1 82  1  0  0  0  0
  1 83  1  0  0  0  0
  1 84  1  0  0  0  0
  2  3  1  0  0  0  0
  2 85  1  0  0  0  0
  2 86  1  0  0  0  0
  3  4  1  0  0  0  0
  3 87  1  0  0  0  0
  3 88  1  0  0  0  0
  4  5  1  0  0  0  0
  4 89  1  0  0  0  0
  4 90  1  0  0  0  0
  5  6  1  0  0  0  0
  5 91  1  0  0  0  0
  5 92  1  0  0  0  0
  6  7  1  0  0  0  0
  6 93  1  0  0  0  0
  7  8  1  0  0  0  0
  7 94  1  0  0  0  0
  8  9  1  0  0  0  0
  8 95  1  0  0  0  0
  9 10  1  0  0  0  0
  9 96  1  0  0  0  0
 10 11  1  0  0  0  0
 10 97  1  0  0  0  0
 11 12  1  0  0  0  0
 11 98  1  0  0  0  0
 12 13  1  0  0  0  0
 12 99  1  0  0  0  0
 13 14  1  0  0  0  0
 13100  1  0  0  0  0
 14 15  1  0  0  0  0
 14101  1  0  0  0  0
 15 16  1  0  0  0  0
 15102  1  0  0  0  0
 16 17  1  0  0  0  0
 16103  1  0  0  0  0
 17 18  1  0  0  0  0
 17104  1  0  0  0  0
 18 19  1  0  0  0  0
 18105  1  0  0  0  0
 19 20  1  0  0  0  0
 19106  1  0  0  0  0
 20 21  1  0  0  0  0
 20107  1  0  0  0  0
 21 22  1  0  0  0  0
 21108  1  0  0  0  0
 22 23  1  0  0  0  0
 22109  1  0  0  0  0
 23 24  1  0  0  0  0
 23110  1  0  0  0  0
 24 25  1  0  0  0  0
 24111  1  0  0  0  0
 25 26  1  0  0  0  0
 25112  1  0  0  0  0
 26 27  1  0  0  0  0
 26113  1  0  0  0  0
 27 28  1  0  0  0  0
 27114  1  0  0  0  0
 28 29  1  0  0  0  0
 28115  1  0  0  0  0
 29 30  1  0  0  0  0
 29116  1  0  0  0  0
 30 31  1  0  0  0  0
 30117  1  0  0  0  0
 31 32  1  0  0  0  0
 31118  1  0  0  0  0
 32 33  1  0  0  0  0
 32119  1  0  0  0  0
 33 34  1  0  0  0  0
 33120  1  0  0  0  0
 34 35  1  0  0  0  0
 34121  1  0  0  0  0
 35 36  1  0  0  0  0
 35122  1  0  0  0  0
 36 37  1  0  0  0  0
 36123  1  0  0  0  0
 37 38  1  0  0  0  0
 37124  1  0  0  0  0
 38 39  1  0  0  0  0
 38125  1  0  0  0  0
 39 40  1  0  0  0  0
 40 41  1  0  0  0  0
 40126  1  0  0  0  0
 41 42  1  0  0  0  0
 42 43  1  0  0  0  0
 42127  1  0  0  0  0
 43 44  1  0  0  0  0
 44 45  1  0  0  0  0
 44128  1  0  0  0  0
 45 46  1  0  0  0  0
 46 47  1  0  0  0  0
 46129  1  0  0  0  0
 47 48  1  0  0  0  0
 48 49  1  0  0  0  0
 48130  1  0  0  0  0
 49 50  1  0  0  0  0
 50 51  1  0  0  0  0
 50131  1  0  0  0  0
 51 52  1  0  0  0  0
 52 53  1  0  0  0  0
 52132  1  0  0  0  0
 53 54  1  0  0  0  0
 54 55  1  0  0  0  0
 54133  1  0  0  0  0
 55 56  1  0  0  0  0
 56 57  1  0  0  0  0
 56134  1  0  0  0  0
 57 58  1  0  0  0  0
 58 59  1  0  0  0  0
 59 60  1  0  0  0  0
 60 61  1  0  0  0  0
 61 62  1  0  0  0  0
 62 63  1  0  0  0  0
 63 64  1  0  0  0  0
 64 65  1  0  0  0  0
 65 66  1  0  0  0  0
 66 67  1  0  0  0  0
 67 68  1  0  0  0  0
 68 69  1  0  0  0  0
 69 70  1  0  0  0  0
 70 71  1  0  0  0  0
 71 72  1  0  0  0  0
 72 73  1  0  0  0  0
 73 74  1  0  0  0  0
 74 75  1  0  0  0  0
 75 76  1  0  0  0  0
 76 77  1  0  0  0  0
 77 78  1  0  0  0  0
 78 79  1  0  0  0  0
 79 80  1  0  0  0  0
 80 81  1  0  0  0  0
 81135  1  0  0  0  0
M  END
$$$$
