
 OpenBabel04232216583D

177176  0  0  0  0  0  0  0  0999 V2000
   21.4255  -16.9698   18.6079 N   0  0  0  0  0  0  0  0  0  0  0  0
   20.9629  -15.6555   18.9690 N   0  0  0  0  0  0  0  0  0  0  0  0
   21.6257  -15.2581   20.2039 C   0  0  0  0  0  0  0  0  0  0  0  0
   21.1713  -13.8585   20.6225 C   0  0  0  0  0  0  0  0  0  0  0  0
   21.8030  -13.4240   21.8777 N   0  0  0  0  0  0  0  0  0  0  0  0
   23.2015  -13.4144   21.6704 N   0  0  0  0  0  0  0  0  0  0  0  0
   23.8717  -13.0212   22.8658 N   0  0  0  0  0  0  0  0  0  0  0  0
   25.2841  -12.9919   22.6780 N   0  0  0  0  0  0  0  0  0  0  0  0
   25.6292  -12.0551   21.6561 N   0  0  0  0  0  0  0  0  0  0  0  0
   25.1616  -10.7426   22.0081 N   0  0  0  0  0  0  0  0  0  0  0  0
   25.7739  -10.3344   23.2350 N   0  0  0  0  0  0  0  0  0  0  0  0
   27.1915  -10.3244   23.0579 N   0  0  0  0  0  0  0  0  0  0  0  0
   27.5226   -9.4282   22.0096 N   0  0  0  0  0  0  0  0  0  0  0  0
   27.0474   -8.1179   22.3474 N   0  0  0  0  0  0  0  0  0  0  0  0
   27.6596   -7.6649   23.5782 N   0  0  0  0  0  0  0  0  0  0  0  0
   29.0837   -7.6702   23.4354 N   0  0  0  0  0  0  0  0  0  0  0  0
   29.4405   -6.7741   22.3809 N   0  0  0  0  0  0  0  0  0  0  0  0
   28.9525   -5.4552   22.6853 N   0  0  0  0  0  0  0  0  0  0  0  0
   29.5448   -5.0059   23.9124 N   0  0  0  0  0  0  0  0  0  0  0  0
   30.9758   -4.9971   23.8018 N   0  0  0  0  0  0  0  0  0  0  0  0
   31.3513   -4.1124   22.7414 N   0  0  0  0  0  0  0  0  0  0  0  0
   30.8583   -2.7890   23.0176 N   0  0  0  0  0  0  0  0  0  0  0  0
   31.4236   -2.3429   24.2606 N   0  0  0  0  0  0  0  0  0  0  0  0
   32.8606   -2.3219   24.1661 N   0  0  0  0  0  0  0  0  0  0  0  0
   33.2480   -1.4613   23.0934 N   0  0  0  0  0  0  0  0  0  0  0  0
   32.7837   -0.1328   23.3607 N   0  0  0  0  0  0  0  0  0  0  0  0
   33.3207    0.3546   24.6089 N   0  0  0  0  0  0  0  0  0  0  0  0
   34.7363    0.3698   24.5337 N   0  0  0  0  0  0  0  0  0  0  0  0
   35.1413    1.1999   23.4551 N   0  0  0  0  0  0  0  0  0  0  0  0
   34.6579    2.5313   23.7041 N   0  0  0  0  0  0  0  0  0  0  0  0
   35.1824    3.0337   24.9469 N   0  0  0  0  0  0  0  0  0  0  0  0
   36.6110    3.0366   24.8920 N   0  0  0  0  0  0  0  0  0  0  0  0
   37.0386    3.8729   23.8063 N   0  0  0  0  0  0  0  0  0  0  0  0
   36.5612    5.2117   24.0221 N   0  0  0  0  0  0  0  0  0  0  0  0
   37.0392    5.6868   25.2625 N   0  0  0  0  0  0  0  0  0  0  0  0
   38.4676    5.6992   25.2302 N   0  0  0  0  0  0  0  0  0  0  0  0
   38.9187    6.5417   24.1539 N   0  0  0  0  0  0  0  0  0  0  0  0
   38.4281    7.8813   24.3294 N   0  0  0  0  0  0  0  0  0  0  0  0
   38.9197    8.3822   25.5766 N   0  0  0  0  0  0  0  0  0  0  0  0
   40.3741    8.4155   25.5557 N   0  0  0  0  0  0  0  0  0  0  0  0
   40.8390    9.2137   24.4563 N   0  0  0  0  0  0  0  0  0  0  0  0
   40.3541   10.5554   24.6240 N   0  0  0  0  0  0  0  0  0  0  0  0
   40.8439   11.0794   25.8729 N   0  0  0  0  0  0  0  0  0  0  0  0
   42.2731   11.0648   25.8910 N   0  0  0  0  0  0  0  0  0  0  0  0
   42.7555   11.8557   24.8092 N   0  0  0  0  0  0  0  0  0  0  0  0
   42.2699   13.1984   24.9613 N   0  0  0  0  0  0  0  0  0  0  0  0
   42.7216   13.7406   26.2143 N   0  0  0  0  0  0  0  0  0  0  0  0
   44.1552   13.7399   26.2619 N   0  0  0  0  0  0  0  0  0  0  0  0
   44.6617   14.5226   25.1770 N   0  0  0  0  0  0  0  0  0  0  0  0
   44.1572   15.8558   25.2943 N   0  0  0  0  0  0  0  0  0  0  0  0
   44.5792   16.4000   26.5499 N   0  0  0  0  0  0  0  0  0  0  0  0
   46.0086   16.4028   26.6076 N   0  0  0  0  0  0  0  0  0  0  0  0
   46.5417   17.1692   25.5386 N   0  0  0  0  0  0  0  0  0  0  0  0
   46.0592   18.5219   25.6227 N   0  0  0  0  0  0  0  0  0  0  0  0
   46.4590   19.0929   26.8826 N   0  0  0  0  0  0  0  0  0  0  0  0
   47.8858   19.0799   26.9637 N   0  0  0  0  0  0  0  0  0  0  0  0
   48.4266   19.8693   25.8877 N   0  0  0  0  0  0  0  0  0  0  0  0
   47.9402   21.2086   25.9485 N   0  0  0  0  0  0  0  0  0  0  0  0
   48.3209   21.7977   27.1817 N   0  0  0  0  0  0  0  0  0  0  0  0
   49.7382   21.7842   27.2808 N   0  0  0  0  0  0  0  0  0  0  0  0
   50.2858   22.5074   26.1911 N   0  0  0  0  0  0  0  0  0  0  0  0
   49.8116   23.8653   26.2358 N   0  0  0  0  0  0  0  0  0  0  0  0
   50.1820   24.4848   27.4841 N   0  0  0  0  0  0  0  0  0  0  0  0
   51.6214   24.4835   27.6068 N   0  0  0  0  0  0  0  0  0  0  0  0
   52.1870   25.2159   26.5071 N   0  0  0  0  0  0  0  0  0  0  0  0
   51.6964   26.5448   26.5324 N   0  0  0  0  0  0  0  0  0  0  0  0
   52.0551   27.1550   27.7583 N   0  0  0  0  0  0  0  0  0  0  0  0
   53.4672   27.1844   27.9154 N   0  0  0  0  0  0  0  0  0  0  0  0
   54.0498   27.8946   26.8266 N   0  0  0  0  0  0  0  0  0  0  0  0
   53.5247   29.2614   26.8516 C   0  0  0  0  0  0  0  0  0  0  0  0
   54.1189   30.0593   25.7063 C   0  0  0  0  0  0  0  0  0  0  0  0
   53.5912   31.4843   25.7205 C   0  0  0  0  0  0  0  0  0  0  0  0
   54.1897   32.2789   24.5765 C   0  0  0  0  0  0  0  0  0  0  0  0
   53.6629   33.6989   24.5928 C   0  0  0  0  0  0  0  0  0  0  0  0
   54.2618   34.4906   23.4496 C   0  0  0  0  0  0  0  0  0  0  0  0
   53.7365   35.9105   23.4673 C   0  0  0  0  0  0  0  0  0  0  0  0
   54.3355   36.7025   22.3240 C   0  0  0  0  0  0  0  0  0  0  0  0
   53.8108   38.1238   22.3404 C   0  0  0  0  0  0  0  0  0  0  0  0
   54.4119   38.9198   21.1959 C   0  0  0  0  0  0  0  0  0  0  0  0
   53.8890   40.3433   21.2119 C   0  0  0  0  0  0  0  0  0  0  0  0
   54.4681   41.0937   20.1089 N   0  0  0  0  0  0  0  0  0  0  0  0
   20.9560  -17.2570   17.7537 H   0  0  0  0  0  0  0  0  0  0  0  0
   21.1897  -17.6520   19.3336 H   0  0  0  0  0  0  0  0  0  0  0  0
   19.9492  -15.6705   19.1021 H   0  0  0  0  0  0  0  0  0  0  0  0
   22.7152  -15.2319   20.0664 H   0  0  0  0  0  0  0  0  0  0  0  0
   21.4010  -15.9507   21.0217 H   0  0  0  0  0  0  0  0  0  0  0  0
   20.0837  -13.8610   20.7723 H   0  0  0  0  0  0  0  0  0  0  0  0
   21.3882  -13.1356   19.8240 H   0  0  0  0  0  0  0  0  0  0  0  0
   21.5862  -14.0909   22.6194 H   0  0  0  0  0  0  0  0  0  0  0  0
   23.4088  -12.7522   20.9105 H   0  0  0  0  0  0  0  0  0  0  0  0
   23.6759  -13.6567   23.6341 H   0  0  0  0  0  0  0  0  0  0  0  0
   25.6227  -13.9305   22.4395 H   0  0  0  0  0  0  0  0  0  0  0  0
   25.2129  -12.3145   20.7668 H   0  0  0  0  0  0  0  0  0  0  0  0
   24.1399  -10.7579   22.1320 H   0  0  0  0  0  0  0  0  0  0  0  0
   25.5503  -11.0036   23.9717 H   0  0  0  0  0  0  0  0  0  0  0  0
   27.4982  -11.2766   22.8130 H   0  0  0  0  0  0  0  0  0  0  0  0
   27.0714   -9.7059   21.1417 H   0  0  0  0  0  0  0  0  0  0  0  0
   26.0290   -8.1432   22.4604 H   0  0  0  0  0  0  0  0  0  0  0  0
   27.4227   -8.3235   24.3195 H   0  0  0  0  0  0  0  0  0  0  0  0
   29.4010   -8.6225   23.2161 H   0  0  0  0  0  0  0  0  0  0  0  0
   29.0168   -7.0549   21.5012 H   0  0  0  0  0  0  0  0  0  0  0  0
   27.9273   -5.4941   22.7779 H   0  0  0  0  0  0  0  0  0  0  0  0
   29.2945   -5.6313   24.6770 H   0  0  0  0  0  0  0  0  0  0  0  0
   31.3010   -5.9502   23.5987 H   0  0  0  0  0  0  0  0  0  0  0  0
   30.9360   -4.4076   21.8646 H   0  0  0  0  0  0  0  0  0  0  0  0
   29.8320   -2.8285   23.0954 H   0  0  0  0  0  0  0  0  0  0  0  0
   31.1295   -2.9719   25.0219 H   0  0  0  0  0  0  0  0  0  0  0  0
   33.2043   -3.2595   23.9536 H   0  0  0  0  0  0  0  0  0  0  0  0
   32.8491   -1.7920   22.2105 H   0  0  0  0  0  0  0  0  0  0  0  0
   31.7684   -0.1283   23.4504 H   0  0  0  0  0  0  0  0  0  0  0  0
   32.9974   -0.2838   25.3554 H   0  0  0  0  0  0  0  0  0  0  0  0
   35.0885   -0.5626   24.3391 H   0  0  0  0  0  0  0  0  0  0  0  0
   34.7390    0.8523   22.5782 H   0  0  0  0  0  0  0  0  0  0  0  0
   33.6302    2.5031   23.7525 H   0  0  0  0  0  0  0  0  0  0  0  0
   34.9004    2.4136   25.7051 H   0  0  0  0  0  0  0  0  0  0  0  0
   36.9274    2.0707   24.7369 H   0  0  0  0  0  0  0  0  0  0  0  0
   36.6583    3.5100   22.9242 H   0  0  0  0  0  0  0  0  0  0  0  0
   35.5432    5.2091   24.0703 H   0  0  0  0  0  0  0  0  0  0  0  0
   36.7123    5.0904   26.0299 H   0  0  0  0  0  0  0  0  0  0  0  0
   38.8167    4.7466   25.0853 H   0  0  0  0  0  0  0  0  0  0  0  0
   38.5487    6.2019   23.2683 H   0  0  0  0  0  0  0  0  0  0  0  0
   37.3982    7.8553   24.3395 H   0  0  0  0  0  0  0  0  0  0  0  0
   38.5932    7.7883   26.3485 H   0  0  0  0  0  0  0  0  0  0  0  0
   40.7194    7.4632   25.4061 H   0  0  0  0  0  0  0  0  0  0  0  0
   40.4853    8.8069   23.5778 H   0  0  0  0  0  0  0  0  0  0  0  0
   39.3236   10.5254   24.6317 H   0  0  0  0  0  0  0  0  0  0  0  0
   40.5254   10.4919   26.6457 H   0  0  0  0  0  0  0  0  0  0  0  0
   42.6024   10.1071   25.7667 H   0  0  0  0  0  0  0  0  0  0  0  0
   42.3970   11.4378   23.9363 H   0  0  0  0  0  0  0  0  0  0  0  0
   41.2348   13.1666   24.9437 H   0  0  0  0  0  0  0  0  0  0  0  0
   42.3832   13.1489   26.9723 H   0  0  0  0  0  0  0  0  0  0  0  0
   44.4718   12.7764   26.1418 H   0  0  0  0  0  0  0  0  0  0  0  0
   44.3316   14.0882   24.3009 H   0  0  0  0  0  0  0  0  0  0  0  0
   43.1319   15.8158   25.2635 H   0  0  0  0  0  0  0  0  0  0  0  0
   44.2423   15.8147   27.3132 H   0  0  0  0  0  0  0  0  0  0  0  0
   46.3584   15.4508   26.5199 H   0  0  0  0  0  0  0  0  0  0  0  0
   46.2436   16.7837   24.6508 H   0  0  0  0  0  0  0  0  0  0  0  0
   45.0381   18.4907   25.5742 H   0  0  0  0  0  0  0  0  0  0  0  0
   46.0642   18.5110   27.6423 H   0  0  0  0  0  0  0  0  0  0  0  0
   48.2325   18.1066   26.9043 H   0  0  0  0  0  0  0  0  0  0  0  0
   48.1319   19.4694   24.9973 H   0  0  0  0  0  0  0  0  0  0  0  0
   46.9301   21.2007   25.9074 H   0  0  0  0  0  0  0  0  0  0  0  0
   47.9481   21.2370   27.9399 H   0  0  0  0  0  0  0  0  0  0  0  0
   50.0664   20.8195   27.2220 H   0  0  0  0  0  0  0  0  0  0  0  0
   50.0011   22.0615   25.3095 H   0  0  0  0  0  0  0  0  0  0  0  0
   48.7863   23.8494   26.1600 H   0  0  0  0  0  0  0  0  0  0  0  0
   49.7827   23.9316   28.2506 H   0  0  0  0  0  0  0  0  0  0  0  0
   51.9448   23.5096   27.5717 H   0  0  0  0  0  0  0  0  0  0  0  0
   51.9142   24.7637   25.6236 H   0  0  0  0  0  0  0  0  0  0  0  0
   50.6795   26.5723   26.4472 H   0  0  0  0  0  0  0  0  0  0  0  0
   51.6604   26.6555   28.5469 H   0  0  0  0  0  0  0  0  0  0  0  0
   53.8042   26.2232   27.8820 H   0  0  0  0  0  0  0  0  0  0  0  0
   53.7581   27.4477   25.9577 H   0  0  0  0  0  0  0  0  0  0  0  0
   53.7821   29.7503   27.7980 H   0  0  0  0  0  0  0  0  0  0  0  0
   52.4321   29.2786   26.7462 H   0  0  0  0  0  0  0  0  0  0  0  0
   53.8603   29.5911   24.7503 H   0  0  0  0  0  0  0  0  0  0  0  0
   55.2096   30.0793   25.7952 H   0  0  0  0  0  0  0  0  0  0  0  0
   53.8478   31.9643   26.6712 H   0  0  0  0  0  0  0  0  0  0  0  0
   52.4997   31.4761   25.6267 H   0  0  0  0  0  0  0  0  0  0  0  0
   53.9328   31.8032   23.6240 H   0  0  0  0  0  0  0  0  0  0  0  0
   55.2810   32.2914   24.6686 H   0  0  0  0  0  0  0  0  0  0  0  0
   53.9199   34.1757   25.5447 H   0  0  0  0  0  0  0  0  0  0  0  0
   52.5717   33.6876   24.5001 H   0  0  0  0  0  0  0  0  0  0  0  0
   54.0037   34.0148   22.4975 H   0  0  0  0  0  0  0  0  0  0  0  0
   55.3532   34.5010   23.5413 H   0  0  0  0  0  0  0  0  0  0  0  0
   53.9947   36.3863   24.4195 H   0  0  0  0  0  0  0  0  0  0  0  0
   52.6452   35.9001   23.3757 H   0  0  0  0  0  0  0  0  0  0  0  0
   54.0773   36.2261   21.3723 H   0  0  0  0  0  0  0  0  0  0  0  0
   55.4268   36.7123   22.4161 H   0  0  0  0  0  0  0  0  0  0  0  0
   54.0672   38.5974   23.2944 H   0  0  0  0  0  0  0  0  0  0  0  0
   52.7192   38.1117   22.2487 H   0  0  0  0  0  0  0  0  0  0  0  0
   54.1528   38.4391   20.2462 H   0  0  0  0  0  0  0  0  0  0  0  0
   55.5032   38.9226   21.2924 H   0  0  0  0  0  0  0  0  0  0  0  0
   54.1458   40.8155   22.1653 H   0  0  0  0  0  0  0  0  0  0  0  0
   52.7993   40.3315   21.1167 H   0  0  0  0  0  0  0  0  0  0  0  0
   55.4817   41.1233   20.2113 H   0  0  0  0  0  0  0  0  0  0  0  0
   54.1279   42.0524   20.1356 H   0  0  0  0  0  0  0  0  0  0  0  0
  1  2  1  0  0  0  0
  1 82  1  0  0  0  0
  1 83  1  0  0  0  0
  2  3  1  0  0  0  0
  2 84  1  0  0  0  0
  3  4  1  0  0  0  0
  3 85  1  0  0  0  0
  3 86  1  0  0  0  0
  4  5  1  0  0  0  0
  4 87  1  0  0  0  0
  4 88  1  0  0  0  0
  5  6  1  0  0  0  0
  5 89  1  0  0  0  0
  6  7  1  0  0  0  0
  6 90  1  0  0  0  0
  7  8  1  0  0  0  0
  7 91  1  0  0  0  0
  8  9  1  0  0  0  0
  8 92  1  0  0  0  0
  9 10  1  0  0  0  0
  9 93  1  0  0  0  0
 10 11  1  0  0  0  0
 10 94  1  0  0  0  0
 11 12  1  0  0  0  0
 11 95  1  0  0  0  0
 12 13  1  0  0  0  0
 12 96  1  0  0  0  0
 13 14  1  0  0  0  0
 13 97  1  0  0  0  0
 14 15  1  0  0  0  0
 14 98  1  0  0  0  0
 15 16  1  0  0  0  0
 15 99  1  0  0  0  0
 16 17  1  0  0  0  0
 16100  1  0  0  0  0
 17 18  1  0  0  0  0
 17101  1  0  0  0  0
 18 19  1  0  0  0  0
 18102  1  0  0  0  0
 19 20  1  0  0  0  0
 19103  1  0  0  0  0
 20 21  1  0  0  0  0
 20104  1  0  0  0  0
 21 22  1  0  0  0  0
 21105  1  0  0  0  0
 22 23  1  0  0  0  0
 22106  1  0  0  0  0
 23 24  1  0  0  0  0
 23107  1  0  0  0  0
 24 25  1  0  0  0  0
 24108  1  0  0  0  0
 25 26  1  0  0  0  0
 25109  1  0  0  0  0
 26 27  1  0  0  0  0
 26110  1  0  0  0  0
 27 28  1  0  0  0  0
 27111  1  0  0  0  0
 28 29  1  0  0  0  0
 28112  1  0  0  0  0
 29 30  1  0  0  0  0
 29113  1  0  0  0  0
 30 31  1  0  0  0  0
 30114  1  0  0  0  0
 31 32  1  0  0  0  0
 31115  1  0  0  0  0
 32 33  1  0  0  0  0
 32116  1  0  0  0  0
 33 34  1  0  0  0  0
 33117  1  0  0  0  0
 34 35  1  0  0  0  0
 34118  1  0  0  0  0
 35 36  1  0  0  0  0
 35119  1  0  0  0  0
 36 37  1  0  0  0  0
 36120  1  0  0  0  0
 37 38  1  0  0  0  0
 37121  1  0  0  0  0
 38 39  1  0  0  0  0
 38122  1  0  0  0  0
 39 40  1  0  0  0  0
 39123  1  0  0  0  0
 40 41  1  0  0  0  0
 40124  1  0  0  0  0
 41 42  1  0  0  0  0
 41125  1  0  0  0  0
 42 43  1  0  0  0  0
 42126  1  0  0  0  0
 43 44  1  0  0  0  0
 43127  1  0  0  0  0
 44 45  1  0  0  0  0
 44128  1  0  0  0  0
 45 46  1  0  0  0  0
 45129  1  0  0  0  0
 46 47  1  0  0  0  0
 46130  1  0  0  0  0
 47 48  1  0  0  0  0
 47131  1  0  0  0  0
 48 49  1  0  0  0  0
 48132  1  0  0  0  0
 49 50  1  0  0  0  0
 49133  1  0  0  0  0
 50 51  1  0  0  0  0
 50134  1  0  0  0  0
 51 52  1  0  0  0  0
 51135  1  0  0  0  0
 52 53  1  0  0  0  0
 52136  1  0  0  0  0
 53 54  1  0  0  0  0
 53137  1  0  0  0  0
 54 55  1  0  0  0  0
 54138  1  0  0  0  0
 55 56  1  0  0  0  0
 55139  1  0  0  0  0
 56 57  1  0  0  0  0
 56140  1  0  0  0  0
 57 58  1  0  0  0  0
 57141  1  0  0  0  0
 58 59  1  0  0  0  0
 58142  1  0  0  0  0
 59 60  1  0  0  0  0
 59143  1  0  0  0  0
 60 61  1  0  0  0  0
 60144  1  0  0  0  0
 61 62  1  0  0  0  0
 61145  1  0  0  0  0
 62 63  1  0  0  0  0
 62146  1  0  0  0  0
 63 64  1  0  0  0  0
 63147  1  0  0  0  0
 64 65  1  0  0  0  0
 64148  1  0  0  0  0
 65 66  1  0  0  0  0
 65149  1  0  0  0  0
 66 67  1  0  0  0  0
 66150  1  0  0  0  0
 67 68  1  0  0  0  0
 67151  1  0  0  0  0
 68 69  1  0  0  0  0
 68152  1  0  0  0  0
 69 70  1  0  0  0  0
 69153  1  0  0  0  0
 70 71  1  0  0  0  0
 70154  1  0  0  0  0
 70155  1  0  0  0  0
 71 72  1  0  0  0  0
 71156  1  0  0  0  0
 71157  1  0  0  0  0
 72 73  1  0  0  0  0
 72158  1  0  0  0  0
 72159  1  0  0  0  0
 73 74  1  0  0  0  0
 73160  1  0  0  0  0
 73161  1  0  0  0  0
 74 75  1  0  0  0  0
 74162  1  0  0  0  0
 74163  1  0  0  0  0
 75 76  1  0  0  0  0
 75164  1  0  0  0  0
 75165  1  0  0  0  0
 76 77  1  0  0  0  0
 76166  1  0  0  0  0
 76167  1  0  0  0  0
 77 78  1  0  0  0  0
 77168  1  0  0  0  0
 77169  1  0  0  0  0
 78 79  1  0  0  0  0
 78170  1  0  0  0  0
 78171  1  0  0  0  0
 79 80  1  0  0  0  0
 79172  1  0  0  0  0
 79173  1  0  0  0  0
 80 81  1  0  0  0  0
 80174  1  0  0  0  0
 80175  1  0  0  0  0
 81176  1  0  0  0  0
 81177  1  0  0  0  0
M  END
$$$$
