
 OpenBabel04232216503D

 35 39  0  0  1  0  0  0  0  0999 V2000
    7.6176   -5.1847   -0.3954 C   0  0  0  0  0  0  0  0  0  0  0  0
    7.1450   -3.7899   -0.0013 C   0  0  0  0  0  0  0  0  0  0  0  0
    6.6247   -3.6356    1.2932 N   0  0  0  0  0  0  0  0  0  0  0  0
    6.0876   -2.4367    1.2740 C   0  0  0  0  0  0  0  0  0  0  0  0
    4.7363   -2.2972    1.4369 N   0  0  0  0  0  0  0  0  0  0  0  0
    4.1399   -1.3309    0.8121 C   0  0  0  0  0  0  0  0  0  0  0  0
    4.7568   -0.1273    0.1678 C   0  0  0  0  0  0  0  0  0  0  0  0
    6.2585   -0.0920    0.2280 C   0  0  0  0  0  0  0  0  0  0  0  0
    6.8665    0.4461   -1.1717 N   0  0  0  0  0  0  0  0  0  0  0  0
    7.8248    1.5894   -1.2616 C   0  0  0  0  0  0  0  0  0  0  0  0
    8.0563    2.0563    0.1084 C   0  0  0  0  0  0  0  0  0  0  0  0
    7.3873    2.0890    1.3698 C   0  0  0  0  0  0  0  0  0  0  0  0
    7.6997    3.2697    1.8073 C   0  0  0  0  0  0  0  0  0  0  0  0
    8.0658    4.7362    2.4108 C   0  0  0  0  0  0  0  0  0  0  0  0
    8.7920    5.2719    1.5674 O   0  0  0  0  0  0  0  0  0  0  0  0
    7.1393    3.7131    2.9152 C   0  0  0  0  0  0  0  0  0  0  0  0
    6.2799    3.3178    3.7880 C   0  0  0  0  0  0  0  0  0  0  0  0
    5.5920    1.9892    3.5818 C   0  0  0  0  0  0  0  0  0  0  0  0
    5.6438    1.0119    2.7029 N   0  0  0  0  0  0  0  0  0  0  0  0
    6.5529    0.9707    1.6020 N   0  0  0  0  0  0  0  0  0  0  0  0
    6.6765   -1.5901    0.2451 C   0  0  3  0  0  3  0  0  0  0  0  0
    6.7667   -2.7285   -0.7854 C   0  0  0  0  0  0  0  0  0  0  0  0
    8.6968   -5.2412   -0.1933 H   0  0  0  0  0  0  0  0  0  0  0  0
    7.4881   -5.4532   -1.4522 H   0  0  0  0  0  0  0  0  0  0  0  0
    7.1592   -5.9873    0.2003 H   0  0  0  0  0  0  0  0  0  0  0  0
    3.0401   -1.3733    0.7422 H   0  0  0  0  0  0  0  0  0  0  0  0
    4.2242    0.7766    0.4537 H   0  0  0  0  0  0  0  0  0  0  0  0
    7.4185   -0.3154   -1.5716 H   0  0  0  0  0  0  0  0  0  0  0  0
    7.4930    2.4636   -1.8637 H   0  0  0  0  0  0  0  0  0  0  0  0
    8.8375    1.3758   -1.6430 H   0  0  0  0  0  0  0  0  0  0  0  0
    8.5577    1.1162    0.4269 H   0  0  0  0  0  0  0  0  0  0  0  0
    7.0164    2.4104   -0.1104 H   0  0  0  0  0  0  0  0  0  0  0  0
    6.0194    3.9585    4.6511 H   0  0  0  0  0  0  0  0  0  0  0  0
    4.8515    1.8462    4.3898 H   0  0  0  0  0  0  0  0  0  0  0  0
    5.8128   -2.9960   -1.3231 H   0  0  0  0  0  0  0  0  0  0  0  0
  1  2  1  0  0  0  0
  1 23  1  0  0  0  0
  1 24  1  0  0  0  0
  1 25  1  0  0  0  0
  2  3  1  0  0  0  0
  2 22  2  0  0  0  0
  3  4  2  0  0  0  0
  4  5  1  0  0  0  0
  4 21  1  0  0  0  0
  5  6  2  0  0  0  0
  6  7  1  0  0  0  0
  6 26  1  0  0  0  0
  7  8  2  0  0  0  0
  7 27  1  0  0  0  0
  8  9  1  0  0  0  0
  8 21  1  0  0  0  0
  9 10  1  0  0  0  0
  9 28  1  0  0  0  0
 10 11  1  0  0  0  0
 10 29  1  0  0  0  0
 10 30  1  0  0  0  0
 11 12  1  0  0  0  0
 11 31  1  0  0  0  0
 11 32  1  0  0  0  0
 12 13  2  0  0  0  0
 12 20  1  0  0  0  0
 13 14  1  0  0  0  0
 13 16  1  0  0  0  0
 14 15  2  0  0  0  0
 14 16  1  0  0  0  0
 16 17  2  0  0  0  0
 17 18  1  0  0  0  0
 17 33  1  0  0  0  0
 18 19  2  0  0  0  0
 18 34  1  0  0  0  0
 19 20  1  0  0  0  0
 20  8  1  0  0  0  0
 21 22  1  0  0  0  0
 22 35  1  0  0  0  0
M  END
$$$$
