
 OpenBabel04232216443D

 29 30  0  0  0  0  0  0  0  0999 V2000
    3.9412   -1.3015    0.6921 C   0  0  0  0  0  0  0  0  0  0  0  0
    5.1529   -0.3813    0.5194 C   0  0  0  0  0  0  0  0  0  0  0  0
    5.9194   -0.6608   -0.7809 C   0  0  0  0  0  0  0  0  0  0  0  0
    6.0923   -1.8902   -1.2847 C   0  0  0  0  0  0  0  0  0  0  0  0
    6.2408    0.4188   -1.5434 N   0  0  0  0  0  0  0  0  0  0  0  0
    7.1122    1.1691   -0.9443 C   0  0  0  0  0  0  0  0  0  0  0  0
    8.4482    0.6631   -0.3554 C   0  0  0  0  0  0  0  0  0  0  0  0
    9.0594   -0.5701   -0.9930 C   0  0  0  0  0  0  0  0  0  0  0  0
    6.5159    2.4789   -0.4903 C   0  0  0  0  0  0  0  0  0  0  0  0
    6.7557    2.5222    0.8276 C   0  0  0  0  0  0  0  0  0  0  0  0
    7.9121    3.1574    1.2369 N   0  0  0  0  0  0  0  0  0  0  0  0
    8.4387    2.7275    2.2850 N   0  0  0  0  0  0  0  0  0  0  0  0
    7.8797    3.3586    3.3713 C   0  0  0  0  0  0  0  0  0  0  0  0
    8.4321    4.2447    4.0097 O   0  0  0  0  0  0  0  0  0  0  0  0
    6.5528    3.0133    3.5939 O   0  0  0  0  0  0  0  0  0  0  0  0
    6.0898    1.7566    3.0987 N   0  0  0  0  0  0  0  0  0  0  0  0
    6.0443    1.5961    1.8043 C   0  0  0  0  0  0  0  0  0  0  0  0
    5.2431    0.5327    1.4345 N   0  0  0  0  0  0  0  0  0  0  0  0
    4.1845   -2.3487    0.5004 H   0  0  0  0  0  0  0  0  0  0  0  0
    3.1712   -0.9851   -0.0202 H   0  0  0  0  0  0  0  0  0  0  0  0
    3.5352   -1.2354    1.7044 H   0  0  0  0  0  0  0  0  0  0  0  0
    5.8443   -2.8022   -0.7605 H   0  0  0  0  0  0  0  0  0  0  0  0
    6.5367   -2.0017   -2.2719 H   0  0  0  0  0  0  0  0  0  0  0  0
    8.3112    0.4342    0.7076 H   0  0  0  0  0  0  0  0  0  0  0  0
    9.1676    1.4843   -0.4386 H   0  0  0  0  0  0  0  0  0  0  0  0
    8.6455   -1.4803   -0.5447 H   0  0  0  0  0  0  0  0  0  0  0  0
   10.1339   -0.5988   -0.7892 H   0  0  0  0  0  0  0  0  0  0  0  0
    8.8983   -0.6055   -2.0724 H   0  0  0  0  0  0  0  0  0  0  0  0
    5.4623    2.4291   -0.7927 H   0  0  0  0  0  0  0  0  0  0  0  0
  1  2  1  0  0  0  0
  1 19  1  0  0  0  0
  1 20  1  0  0  0  0
  1 21  1  0  0  0  0
  2  3  1  0  0  0  0
  2 18  2  0  0  0  0
  3  4  2  0  0  0  0
  3  5  1  0  0  0  0
  4 22  1  0  0  0  0
  4 23  1  0  0  0  0
  5  6  2  0  0  0  0
  6  7  1  0  0  0  0
  6  9  1  0  0  0  0
  7  8  1  0  0  0  0
  7 24  1  0  0  0  0
  7 25  1  0  0  0  0
  8 26  1  0  0  0  0
  8 27  1  0  0  0  0
  8 28  1  0  0  0  0
  9 10  2  0  0  0  0
  9 29  1  0  0  0  0
 10 11  1  0  0  0  0
 10 17  1  0  0  0  0
 11 12  2  0  0  0  0
 12 13  1  0  0  0  0
 13 14  2  0  0  0  0
 13 15  1  0  0  0  0
 15 16  1  0  0  0  0
 16 17  2  0  0  0  0
 17 18  1  0  0  0  0
M  END
$$$$
