
 OpenBabel04232216503D

 68 69  0  0  1  0  0  0  0  0999 V2000
    0.8175    1.0884   -0.5689 C   0  0  0  0  0  0  0  0  0  0  0  0
    2.2076    0.5776   -0.1646 C   0  0  3  0  0  0  0  0  0  0  0  0
    3.2491    1.6920   -0.5137 C   0  0  0  0  0  0  0  0  0  0  0  0
    2.7333    2.9313   -1.3198 C   0  0  0  0  0  0  0  0  0  0  0  0
    2.4357    2.5888   -2.7996 C   0  0  0  0  0  0  0  0  0  0  0  0
    1.0633    3.0619   -3.3538 C   0  0  0  0  0  0  0  0  0  0  0  0
    0.5759    2.1503   -4.5093 C   0  0  0  0  0  0  0  0  0  0  0  0
   -0.2265    0.8965   -4.0758 C   0  0  0  0  0  0  0  0  0  0  0  0
    0.1054   -0.3609   -4.9004 C   0  0  0  0  0  0  0  0  0  0  0  0
   -0.6988   -1.6122   -4.4661 C   0  0  0  0  0  0  0  0  0  0  0  0
    0.1776   -2.8641   -4.1861 C   0  0  0  0  0  0  0  0  0  0  0  0
    0.3550   -3.0926   -2.6672 C   0  0  0  0  0  0  0  0  0  0  0  0
    1.4744   -4.0658   -2.2685 C   0  0  0  0  0  0  0  0  0  0  0  0
    1.9018   -4.2933   -0.7861 C   0  0  0  0  0  0  0  0  0  0  0  0
    2.3581   -5.4067   -0.4830 O   0  0  0  0  0  0  0  0  0  0  0  0
    1.7368   -3.2799    0.3561 C   0  0  0  0  0  0  0  0  0  0  0  0
    1.5858   -1.9655    0.0832 C   0  0  0  0  0  0  0  0  0  0  0  0
    0.2940   -1.5625    0.0744 N   0  0  0  0  0  0  0  0  0  0  0  0
   -0.2750   -0.9441    1.2145 C   0  0  0  0  0  0  0  0  0  0  0  0
   -1.7073   -1.3331    1.2249 C   0  0  0  0  0  0  0  0  0  0  0  0
   -2.3320   -1.7510    0.2404 O   0  0  0  0  0  0  0  0  0  0  0  0
   -2.3204   -1.3298    2.5655 C   0  0  0  0  0  0  0  0  0  0  0  0
   -1.9523   -2.6987    3.1515 C   0  0  0  0  0  0  0  0  0  0  0  0
   -0.5347   -2.8214    3.7310 C   0  0  0  0  0  0  0  0  0  0  0  0
    0.7801   -3.3812    3.0545 C   0  0  0  0  0  0  0  0  0  0  0  0
    1.0575   -3.9886    1.6054 C   0  0  0  0  0  0  0  0  0  0  0  0
    2.5548   -0.9246   -0.6057 C   0  0  0  0  0  0  0  0  0  0  0  0
    0.4516    1.8259    0.1555 H   0  0  0  0  0  0  0  0  0  0  0  0
    0.0283    0.3718   -0.7639 H   0  0  0  0  0  0  0  0  0  0  0  0
    0.8317    1.5598   -1.5198 H   0  0  0  0  0  0  0  0  0  0  0  0
    2.2097    0.5197    0.9388 H   0  0  0  0  0  0  0  0  0  0  0  0
    4.1346    1.2746   -1.0006 H   0  0  0  0  0  0  0  0  0  0  0  0
    3.6088    2.0974    0.4519 H   0  0  0  0  0  0  0  0  0  0  0  0
    3.4933    3.7209   -1.2812 H   0  0  0  0  0  0  0  0  0  0  0  0
    1.8587    3.3748   -0.8189 H   0  0  0  0  0  0  0  0  0  0  0  0
    2.5267    1.5055   -2.9407 H   0  0  0  0  0  0  0  0  0  0  0  0
    3.2227    3.0381   -3.4161 H   0  0  0  0  0  0  0  0  0  0  0  0
    1.1861    4.0850   -3.7298 H   0  0  0  0  0  0  0  0  0  0  0  0
    0.2835    3.1346   -2.5878 H   0  0  0  0  0  0  0  0  0  0  0  0
    1.4382    1.8646   -5.1209 H   0  0  0  0  0  0  0  0  0  0  0  0
   -0.0777    2.7485   -5.1566 H   0  0  0  0  0  0  0  0  0  0  0  0
   -1.2984    1.1185   -4.1538 H   0  0  0  0  0  0  0  0  0  0  0  0
   -0.0443    0.6471   -3.0351 H   0  0  0  0  0  0  0  0  0  0  0  0
    1.1789   -0.5513   -4.8248 H   0  0  0  0  0  0  0  0  0  0  0  0
   -0.1122   -0.1539   -5.9557 H   0  0  0  0  0  0  0  0  0  0  0  0
   -1.3938   -1.8573   -5.2804 H   0  0  0  0  0  0  0  0  0  0  0  0
   -1.3296   -1.3921   -3.5958 H   0  0  0  0  0  0  0  0  0  0  0  0
    1.1534   -2.7636   -4.6746 H   0  0  0  0  0  0  0  0  0  0  0  0
   -0.3045   -3.7451   -4.6297 H   0  0  0  0  0  0  0  0  0  0  0  0
   -0.6017   -3.4468   -2.2556 H   0  0  0  0  0  0  0  0  0  0  0  0
    0.5540   -2.1129   -2.2579 H   0  0  0  0  0  0  0  0  0  0  0  0
    2.3872   -3.8373   -2.8296 H   0  0  0  0  0  0  0  0  0  0  0  0
    1.1382   -5.0587   -2.6169 H   0  0  0  0  0  0  0  0  0  0  0  0
   -0.3411   -2.3071   -0.2591 H   0  0  0  0  0  0  0  0  0  0  0  0
   -0.2413    0.1390    1.2603 H   0  0  0  0  0  0  0  0  0  0  0  0
    0.2452   -1.2641    2.1039 H   0  0  0  0  0  0  0  0  0  0  0  0
   -3.3829   -1.1531    2.4528 H   0  0  0  0  0  0  0  0  0  0  0  0
   -1.8975   -0.4869    3.1352 H   0  0  0  0  0  0  0  0  0  0  0  0
   -2.1576   -3.5126    2.4341 H   0  0  0  0  0  0  0  0  0  0  0  0
   -2.6659   -2.8218    3.9723 H   0  0  0  0  0  0  0  0  0  0  0  0
   -0.2622   -1.8411    4.1743 H   0  0  0  0  0  0  0  0  0  0  0  0
   -0.6770   -3.4496    4.6257 H   0  0  0  0  0  0  0  0  0  0  0  0
    1.5898   -2.6821    3.2914 H   0  0  0  0  0  0  0  0  0  0  0  0
    0.9968   -4.2403    3.7064 H   0  0  0  0  0  0  0  0  0  0  0  0
    1.8664   -4.7031    1.8706 H   0  0  0  0  0  0  0  0  0  0  0  0
    0.2195   -4.5940    1.2889 H   0  0  0  0  0  0  0  0  0  0  0  0
    2.4941   -0.9914   -1.7020 H   0  0  0  0  0  0  0  0  0  0  0  0
    3.5876   -1.1458   -0.3122 H   0  0  0  0  0  0  0  0  0  0  0  0
  1  2  1  0  0  0  0
  1 28  1  0  0  0  0
  1 29  1  0  0  0  0
  1 30  1  0  0  0  0
  2  3  1  0  0  0  0
  2 27  1  0  0  0  0
  2 31  1  0  0  0  0
  3  4  1  0  0  0  0
  3 32  1  0  0  0  0
  3 33  1  0  0  0  0
  4  5  1  0  0  0  0
  4 34  1  0  0  0  0
  4 35  1  0  0  0  0
  5  6  1  0  0  0  0
  5 36  1  0  0  0  0
  5 37  1  0  0  0  0
  6  7  1  0  0  0  0
  6 38  1  0  0  0  0
  6 39  1  0  0  0  0
  7  8  1  0  0  0  0
  7 40  1  0  0  0  0
  7 41  1  0  0  0  0
  8  9  1  0  0  0  0
  8 42  1  0  0  0  0
  8 43  1  0  0  0  0
  9 10  1  0  0  0  0
  9 44  1  0  0  0  0
  9 45  1  0  0  0  0
 10 11  1  0  0  0  0
 10 46  1  0  0  0  0
 10 47  1  0  0  0  0
 11 12  1  0  0  0  0
 11 48  1  0  0  0  0
 11 49  1  0  0  0  0
 12 13  1  0  0  0  0
 12 50  1  0  0  0  0
 12 51  1  0  0  0  0
 13 14  1  0  0  0  0
 13 52  1  0  0  0  0
 13 53  1  0  0  0  0
 14 15  2  0  0  0  0
 14 16  1  0  0  0  0
 16 17  2  3  0  0  0
 16 26  1  0  0  0  0
 17 18  1  0  0  0  0
 17 27  1  0  0  0  0
 18 19  1  0  0  0  0
 18 54  1  0  0  0  0
 19 20  1  0  0  0  0
 19 55  1  0  0  0  0
 19 56  1  0  0  0  0
 20 21  2  0  0  0  0
 20 22  1  0  0  0  0
 22 23  1  0  0  0  0
 22 57  1  0  0  0  0
 22 58  1  0  0  0  0
 23 24  1  0  0  0  0
 23 59  1  0  0  0  0
 23 60  1  0  0  0  0
 24 25  1  0  0  0  0
 24 61  1  0  0  0  0
 24 62  1  0  0  0  0
 25 26  1  0  0  0  0
 25 63  1  0  0  0  0
 25 64  1  0  0  0  0
 26 65  1  0  0  0  0
 26 66  1  0  0  0  0
 27 67  1  0  0  0  0
 27 68  1  0  0  0  0
M  END
$$$$
