
 OpenBabel04232216453D

 57 58  0  0  1  0  0  0  0  0999 V2000
    4.6914    2.1296    2.7263 C   0  0  0  0  0  0  0  0  0  0  0  0
    5.5086    1.0403    2.1102 C   0  0  0  0  0  0  0  0  0  0  0  0
    4.8686   -0.0095    1.3209 C   0  0  0  0  0  0  0  0  0  0  0  0
    5.9125   -0.7462    0.9194 C   0  0  0  0  0  0  0  0  0  0  0  0
    5.8240   -1.9932    0.1176 C   0  0  0  0  0  0  0  0  0  0  0  0
    7.2080   -0.1705    1.4210 C   0  0  3  0  0  0  0  0  0  0  0  0
    8.1600    0.3378    0.3378 C   0  0  0  0  0  0  0  0  0  0  0  0
    7.5411    1.4490   -0.5325 C   0  0  0  0  0  0  0  0  0  0  0  0
    8.4422    1.9250   -1.6590 C   0  0  0  0  0  0  0  0  0  0  0  0
    8.7205    0.8132   -2.6593 C   0  0  0  0  0  0  0  0  0  0  0  0
    8.2027   -0.2978   -2.5463 O   0  0  0  0  0  0  0  0  0  0  0  0
    9.6881    1.1260   -3.7740 C   0  0  3  0  0  0  0  0  0  0  0  0
    9.9573   -0.1478   -4.6021 C   0  0  0  0  0  0  0  0  0  0  0  0
   11.2948   -0.0775   -5.3379 C   0  0  0  0  0  0  0  0  0  0  0  0
   11.1204    0.2286   -6.8233 C   0  0  0  0  0  0  0  0  0  0  0  0
   12.3416    0.9305   -7.4268 C   0  0  0  0  0  0  0  0  0  0  0  0
   12.5692    2.3522   -6.8926 C   0  0  0  0  0  0  0  0  0  0  0  0
   11.4581    3.3290   -7.2892 C   0  0  0  0  0  0  0  0  0  0  0  0
   11.2514    4.4559   -6.2730 C   0  0  0  0  0  0  0  0  0  0  0  0
    9.8395    4.4768   -5.6778 C   0  0  0  0  0  0  0  0  0  0  0  0
    9.7215    3.6396   -4.3975 C   0  0  0  0  0  0  0  0  0  0  0  0
    9.1628    2.2519   -4.6393 C   0  0  0  0  0  0  0  0  0  0  0  0
    8.2291    2.0798   -5.4221 O   0  0  0  0  0  0  0  0  0  0  0  0
    6.8013    0.9891    2.2567 N   0  0  0  0  0  0  0  0  0  0  0  0
    3.6326    2.0030    2.4922 H   0  0  0  0  0  0  0  0  0  0  0  0
    5.0288    3.0963    2.3385 H   0  0  0  0  0  0  0  0  0  0  0  0
    4.8305    2.1086    3.8093 H   0  0  0  0  0  0  0  0  0  0  0  0
    3.8218   -0.1374    1.1363 H   0  0  0  0  0  0  0  0  0  0  0  0
    4.7987   -2.3748    0.0994 H   0  0  0  0  0  0  0  0  0  0  0  0
    6.4561   -2.7762    0.5516 H   0  0  0  0  0  0  0  0  0  0  0  0
    6.1361   -1.8224   -0.9171 H   0  0  0  0  0  0  0  0  0  0  0  0
    7.7205   -0.9034    2.0593 H   0  0  0  0  0  0  0  0  0  0  0  0
    8.4729   -0.5229   -0.2654 H   0  0  0  0  0  0  0  0  0  0  0  0
    9.0779    0.7262    0.8004 H   0  0  0  0  0  0  0  0  0  0  0  0
    7.3086    2.3176    0.0934 H   0  0  0  0  0  0  0  0  0  0  0  0
    6.5975    1.1053   -0.9692 H   0  0  0  0  0  0  0  0  0  0  0  0
    9.3877    2.3146   -1.2634 H   0  0  0  0  0  0  0  0  0  0  0  0
    7.9281    2.7335   -2.1871 H   0  0  0  0  0  0  0  0  0  0  0  0
   10.6238    1.4372   -3.2926 H   0  0  0  0  0  0  0  0  0  0  0  0
    9.1286   -0.3488   -5.2939 H   0  0  0  0  0  0  0  0  0  0  0  0
   10.0077   -1.0182   -3.9354 H   0  0  0  0  0  0  0  0  0  0  0  0
   11.8013   -1.0446   -5.2436 H   0  0  0  0  0  0  0  0  0  0  0  0
   11.9489    0.6428   -4.8403 H   0  0  0  0  0  0  0  0  0  0  0  0
   10.2181    0.8190   -7.0003 H   0  0  0  0  0  0  0  0  0  0  0  0
   10.9592   -0.7195   -7.3520 H   0  0  0  0  0  0  0  0  0  0  0  0
   12.2244    0.9709   -8.5156 H   0  0  0  0  0  0  0  0  0  0  0  0
   13.2341    0.3258   -7.2258 H   0  0  0  0  0  0  0  0  0  0  0  0
   13.5197    2.7233   -7.2909 H   0  0  0  0  0  0  0  0  0  0  0  0
   12.6959    2.3267   -5.8035 H   0  0  0  0  0  0  0  0  0  0  0  0
   10.5129    2.8141   -7.4779 H   0  0  0  0  0  0  0  0  0  0  0  0
   11.7395    3.7752   -8.2511 H   0  0  0  0  0  0  0  0  0  0  0  0
   11.3969    5.4100   -6.7973 H   0  0  0  0  0  0  0  0  0  0  0  0
   12.0070    4.4367   -5.4788 H   0  0  0  0  0  0  0  0  0  0  0  0
    9.0923    4.1899   -6.4227 H   0  0  0  0  0  0  0  0  0  0  0  0
    9.6127    5.5130   -5.4024 H   0  0  0  0  0  0  0  0  0  0  0  0
    9.0376    4.1354   -3.7014 H   0  0  0  0  0  0  0  0  0  0  0  0
   10.6917    3.5634   -3.8915 H   0  0  0  0  0  0  0  0  0  0  0  0
  1  2  1  0  0  0  0
  1 25  1  0  0  0  0
  1 26  1  0  0  0  0
  1 27  1  0  0  0  0
  2  3  1  0  0  0  0
  2 24  2  0  0  0  0
  3  4  2  0  0  0  0
  3 28  1  0  0  0  0
  4  5  1  0  0  0  0
  4  6  1  0  0  0  0
  5 29  1  0  0  0  0
  5 30  1  0  0  0  0
  5 31  1  0  0  0  0
  6  7  1  0  0  0  0
  6 24  1  0  0  0  0
  6 32  1  0  0  0  0
  7  8  1  0  0  0  0
  7 33  1  0  0  0  0
  7 34  1  0  0  0  0
  8  9  1  0  0  0  0
  8 35  1  0  0  0  0
  8 36  1  0  0  0  0
  9 10  1  0  0  0  0
  9 37  1  0  0  0  0
  9 38  1  0  0  0  0
 10 11  2  0  0  0  0
 10 12  1  0  0  0  0
 12 13  1  0  0  0  0
 12 22  1  0  0  0  0
 12 39  1  0  0  0  0
 13 14  1  0  0  0  0
 13 40  1  0  0  0  0
 13 41  1  0  0  0  0
 14 15  1  0  0  0  0
 14 42  1  0  0  0  0
 14 43  1  0  0  0  0
 15 16  1  0  0  0  0
 15 44  1  0  0  0  0
 15 45  1  0  0  0  0
 16 17  1  0  0  0  0
 16 46  1  0  0  0  0
 16 47  1  0  0  0  0
 17 18  1  0  0  0  0
 17 48  1  0  0  0  0
 17 49  1  0  0  0  0
 18 19  1  0  0  0  0
 18 50  1  0  0  0  0
 18 51  1  0  0  0  0
 19 20  1  0  0  0  0
 19 52  1  0  0  0  0
 19 53  1  0  0  0  0
 20 21  1  0  0  0  0
 20 54  1  0  0  0  0
 20 55  1  0  0  0  0
 21 22  1  0  0  0  0
 21 56  1  0  0  0  0
 21 57  1  0  0  0  0
 22 23  2  0  0  0  0
M  END
$$$$
