
 OpenBabel04232216513D

 66 67  0  0  0  0  0  0  0  0999 V2000
    5.2766    0.4165   -2.8813 C   0  0  0  0  0  0  0  0  0  0  0  0
    5.0612    0.2635   -1.3835 C   0  0  0  0  0  0  0  0  0  0  0  0
    3.7661   -0.4518   -0.9892 C   0  0  0  0  0  0  0  0  0  0  0  0
    3.6328   -1.9168   -1.4309 C   0  0  0  0  0  0  0  0  0  0  0  0
    4.6848   -2.9030   -0.8618 C   0  0  0  0  0  0  0  0  0  0  0  0
    4.1961   -4.3565   -0.6630 C   0  0  0  0  0  0  0  0  0  0  0  0
    5.2348   -5.4112   -0.2293 C   0  0  0  0  0  0  0  0  0  0  0  0
    5.8978   -5.2926    1.1530 C   0  0  0  0  0  0  0  0  0  0  0  0
    5.0102   -5.3847    2.4076 C   0  0  0  0  0  0  0  0  0  0  0  0
    4.2685   -6.7016    2.7545 C   0  0  0  0  0  0  0  0  0  0  0  0
    5.0031   -7.8927    3.4716 C   0  0  0  0  0  0  0  0  0  0  0  0
    5.7393   -8.8696    2.5446 C   0  0  0  0  0  0  0  0  0  0  0  0
    5.4693   -8.7433    1.3325 O   0  0  0  0  0  0  0  0  0  0  0  0
    6.7068  -10.0066    3.0347 C   0  0  0  0  0  0  0  0  0  0  0  0
    7.2324  -10.5402    1.9190 C   0  0  0  0  0  0  0  0  0  0  0  0
    8.1616  -11.6525    1.7821 C   0  0  0  0  0  0  0  0  0  0  0  0
    7.5760  -13.0129    2.0560 C   0  0  0  0  0  0  0  0  0  0  0  0
    9.4700  -11.3061    1.9081 C   0  0  0  0  0  0  0  0  0  0  0  0
    9.9646  -11.6443    3.2618 C   0  0  0  0  0  0  0  0  0  0  0  0
   11.0177  -10.9220    4.0403 C   0  0  0  0  0  0  0  0  0  0  0  0
   10.7505  -11.2840    5.5122 C   0  0  0  0  0  0  0  0  0  0  0  0
    9.2651  -11.4041    6.0886 C   0  0  0  0  0  0  0  0  0  0  0  0
    7.8368  -11.5770    5.3655 C   0  0  0  0  0  0  0  0  0  0  0  0
    6.8676  -10.4776    4.5582 C   0  0  0  0  0  0  0  0  0  0  0  0
    3.1216   -2.1839   -2.7667 C   0  0  0  0  0  3  0  0  0  0  0  0
    2.2668   -2.3431   -1.6522 C   0  0  0  0  0  0  0  0  0  0  0  0
    6.2021    0.9713   -3.0713 H   0  0  0  0  0  0  0  0  0  0  0  0
    4.4540    0.9695   -3.3465 H   0  0  0  0  0  0  0  0  0  0  0  0
    5.3709   -0.5547   -3.3751 H   0  0  0  0  0  0  0  0  0  0  0  0
    5.0378    1.2676   -0.9452 H   0  0  0  0  0  0  0  0  0  0  0  0
    5.9237   -0.2489   -0.9454 H   0  0  0  0  0  0  0  0  0  0  0  0
    2.9211    0.1426   -1.3659 H   0  0  0  0  0  0  0  0  0  0  0  0
    3.6815   -0.4251    0.1052 H   0  0  0  0  0  0  0  0  0  0  0  0
    5.0372   -2.5199    0.1038 H   0  0  0  0  0  0  0  0  0  0  0  0
    5.5519   -2.8995   -1.5359 H   0  0  0  0  0  0  0  0  0  0  0  0
    3.7957   -4.7104   -1.6209 H   0  0  0  0  0  0  0  0  0  0  0  0
    3.3595   -4.3697    0.0487 H   0  0  0  0  0  0  0  0  0  0  0  0
    6.0341   -5.4207   -0.9834 H   0  0  0  0  0  0  0  0  0  0  0  0
    4.7526   -6.3954   -0.2924 H   0  0  0  0  0  0  0  0  0  0  0  0
    6.4253   -4.3293    1.1827 H   0  0  0  0  0  0  0  0  0  0  0  0
    6.6759   -6.0629    1.2279 H   0  0  0  0  0  0  0  0  0  0  0  0
    4.2509   -4.5941    2.3112 H   0  0  0  0  0  0  0  0  0  0  0  0
    5.6188   -5.0945    3.2715 H   0  0  0  0  0  0  0  0  0  0  0  0
    3.7208   -7.0503    1.8695 H   0  0  0  0  0  0  0  0  0  0  0  0
    3.4890   -6.3863    3.4649 H   0  0  0  0  0  0  0  0  0  0  0  0
    4.2173   -8.4946    3.9347 H   0  0  0  0  0  0  0  0  0  0  0  0
    5.6800   -7.5293    4.2617 H   0  0  0  0  0  0  0  0  0  0  0  0
    7.0317  -10.1339    0.9274 H   0  0  0  0  0  0  0  0  0  0  0  0
    6.5147  -13.0545    1.7782 H   0  0  0  0  0  0  0  0  0  0  0  0
    7.6410  -13.3091    3.0919 H   0  0  0  0  0  0  0  0  0  0  0  0
    8.0972  -13.7815    1.4636 H   0  0  0  0  0  0  0  0  0  0  0  0
    9.7710  -10.2986    1.6070 H   0  0  0  0  0  0  0  0  0  0  0  0
    9.9759  -12.7213    3.4604 H   0  0  0  0  0  0  0  0  0  0  0  0
    9.1360  -11.1973    3.7824 H   0  0  0  0  0  0  0  0  0  0  0  0
   10.9631   -9.8309    3.9149 H   0  0  0  0  0  0  0  0  0  0  0  0
   12.0196  -11.2358    3.7275 H   0  0  0  0  0  0  0  0  0  0  0  0
   11.2512  -12.2508    5.6774 H   0  0  0  0  0  0  0  0  0  0  0  0
   11.3115  -10.5885    6.1509 H   0  0  0  0  0  0  0  0  0  0  0  0
    9.1720  -10.6945    6.9109 H   0  0  0  0  0  0  0  0  0  0  0  0
    9.3588  -12.3811    6.6238 H   0  0  0  0  0  0  0  0  0  0  0  0
    7.2059  -11.8282    6.2390 H   0  0  0  0  0  0  0  0  0  0  0  0
    7.8521  -12.5260    4.8321 H   0  0  0  0  0  0  0  0  0  0  0  0
    6.8256   -9.5969    5.2033 H   0  0  0  0  0  0  0  0  0  0  0  0
    5.8918  -10.9784    4.6997 H   0  0  0  0  0  0  0  0  0  0  0  0
    2.9368   -1.4166   -3.5076 H   0  0  0  0  0  0  0  0  0  0  0  0
    1.8421   -3.2917   -1.3765 H   0  0  0  0  0  0  0  0  0  0  0  0
  1  2  1  0  0  0  0
  1 27  1  0  0  0  0
  1 28  1  0  0  0  0
  1 29  1  0  0  0  0
  2  3  1  0  0  0  0
  2 30  1  0  0  0  0
  2 31  1  0  0  0  0
  3  4  1  0  0  0  0
  3 32  1  0  0  0  0
  3 33  1  0  0  0  0
  4  5  1  0  0  0  0
  4 25  1  0  0  0  0
  4 26  2  0  0  0  0
  5  6  1  0  0  0  0
  5 34  1  0  0  0  0
  5 35  1  0  0  0  0
  6  7  1  0  0  0  0
  6 36  1  0  0  0  0
  6 37  1  0  0  0  0
  7  8  1  0  0  0  0
  7 38  1  0  0  0  0
  7 39  1  0  0  0  0
  8  9  1  0  0  0  0
  8 40  1  0  0  0  0
  8 41  1  0  0  0  0
  9 10  1  0  0  0  0
  9 42  1  0  0  0  0
  9 43  1  0  0  0  0
 10 11  1  0  0  0  0
 10 44  1  0  0  0  0
 10 45  1  0  0  0  0
 11 12  1  0  0  0  0
 11 46  1  0  0  0  0
 11 47  1  0  0  0  0
 12 13  2  0  0  0  0
 12 14  1  0  0  0  0
 14 15  2  3  0  0  0
 14 24  1  0  0  0  0
 15 16  1  0  0  0  0
 15 48  1  0  0  0  0
 16 17  1  0  0  0  0
 16 18  2  3  0  0  0
 17 49  1  0  0  0  0
 17 50  1  0  0  0  0
 17 51  1  0  0  0  0
 18 19  1  0  0  0  0
 18 52  1  0  0  0  0
 19 20  1  0  0  0  0
 19 53  1  0  0  0  0
 19 54  1  0  0  0  0
 20 21  1  0  0  0  0
 20 55  1  0  0  0  0
 20 56  1  0  0  0  0
 21 22  1  0  0  0  0
 21 57  1  0  0  0  0
 21 58  1  0  0  0  0
 22 23  1  0  0  0  0
 22 59  1  0  0  0  0
 22 60  1  0  0  0  0
 23 24  1  0  0  0  0
 23 61  1  0  0  0  0
 23 62  1  0  0  0  0
 24 63  1  0  0  0  0
 24 64  1  0  0  0  0
 25 26  1  0  0  0  0
 25 65  1  0  0  0  0
 26 66  1  0  0  0  0
M  END
$$$$
