
 OpenBabel04232216473D

 48 50  0  0  0  0  0  0  0  0999 V2000
    1.7946    0.0453   -0.3017 C   0  0  0  0  0  0  0  0  0  0  0  0
    3.0712   -0.7235   -0.0859 C   0  0  0  0  0  0  0  0  0  0  0  0
    3.8896   -0.8797   -1.3363 C   0  0  0  0  0  0  0  0  0  0  0  0
    5.2048   -0.8522   -1.0286 C   0  0  0  0  0  0  0  0  0  0  0  0
    5.9236    0.2600   -0.5279 N   0  0  0  0  0  0  0  0  0  0  0  0
    7.3921    0.0811   -0.3935 C   0  0  0  0  0  0  0  0  0  0  0  0
    8.1975    1.3235   -0.7892 C   0  0  0  0  0  0  0  0  0  0  0  0
    7.7875    1.9306   -2.1348 C   0  0  0  0  0  0  0  0  0  0  0  0
    7.4651    3.4279   -2.0551 C   0  0  0  0  0  0  0  0  0  0  0  0
    6.3513    3.8168   -1.0794 C   0  0  0  0  0  0  0  0  0  0  0  0
    5.0250    3.1160   -1.3658 C   0  0  0  0  0  0  0  0  0  0  0  0
    4.4783    2.3504   -0.1692 C   0  0  0  0  0  0  0  0  0  0  0  0
    5.3713    1.2622    0.4242 C   0  0  0  0  0  0  0  0  0  0  0  0
    5.6998   -2.1385   -0.9026 N   0  0  0  0  0  0  0  0  0  0  0  0
    5.3123   -2.6414    0.2429 C   0  0  0  0  0  0  0  0  0  0  0  0
    5.8603   -3.9712    0.7218 C   0  0  0  0  0  0  0  0  0  0  0  0
    5.6511   -5.0141    0.1253 O   0  0  0  0  0  0  0  0  0  0  0  0
    6.6416   -3.8497    1.9775 C   0  0  0  0  0  0  0  0  0  0  0  0
    7.5866   -4.9471    2.3325 C   0  0  0  0  0  0  0  0  0  0  0  0
    6.3730   -2.7620    2.7284 C   0  0  0  0  0  0  0  0  0  0  0  0
    5.2049   -1.9216    2.4716 C   0  0  0  0  0  0  0  0  0  0  0  0
    4.5136   -1.9340    1.3152 C   0  0  0  0  0  0  0  0  0  0  0  0
    3.3504   -1.2047    1.0950 N   0  0  0  0  0  0  0  0  0  0  0  0
    0.9581   -0.6493   -0.4009 H   0  0  0  0  0  0  0  0  0  0  0  0
    1.8545    0.6392   -1.2217 H   0  0  0  0  0  0  0  0  0  0  0  0
    1.6181    0.7249    0.5370 H   0  0  0  0  0  0  0  0  0  0  0  0
    3.4911   -1.7438   -1.8637 H   0  0  0  0  0  0  0  0  0  0  0  0
    7.7440   -0.7451   -1.0232 H   0  0  0  0  0  0  0  0  0  0  0  0
    7.6288   -0.1941    0.6433 H   0  0  0  0  0  0  0  0  0  0  0  0
    9.2503    1.0260   -0.8482 H   0  0  0  0  0  0  0  0  0  0  0  0
    8.1605    2.0621    0.0153 H   0  0  0  0  0  0  0  0  0  0  0  0
    6.9529    1.3884   -2.5894 H   0  0  0  0  0  0  0  0  0  0  0  0
    8.6192    1.8057   -2.8383 H   0  0  0  0  0  0  0  0  0  0  0  0
    7.1891    3.7775   -3.0576 H   0  0  0  0  0  0  0  0  0  0  0  0
    8.3742    3.9730   -1.7745 H   0  0  0  0  0  0  0  0  0  0  0  0
    6.1955    4.9003   -1.1579 H   0  0  0  0  0  0  0  0  0  0  0  0
    6.6774    3.6592   -0.0467 H   0  0  0  0  0  0  0  0  0  0  0  0
    5.0799    2.4508   -2.2320 H   0  0  0  0  0  0  0  0  0  0  0  0
    4.2840    3.8815   -1.6364 H   0  0  0  0  0  0  0  0  0  0  0  0
    3.5109    1.9440   -0.4594 H   0  0  0  0  0  0  0  0  0  0  0  0
    4.2546    3.0689    0.6322 H   0  0  0  0  0  0  0  0  0  0  0  0
    4.8291    0.7714    1.2338 H   0  0  0  0  0  0  0  0  0  0  0  0
    6.1906    1.7546    0.9608 H   0  0  0  0  0  0  0  0  0  0  0  0
    7.1588   -5.9252    2.0837 H   0  0  0  0  0  0  0  0  0  0  0  0
    7.7933   -4.9608    3.4088 H   0  0  0  0  0  0  0  0  0  0  0  0
    8.5342   -4.8401    1.7975 H   0  0  0  0  0  0  0  0  0  0  0  0
    6.9369   -2.5625    3.6367 H   0  0  0  0  0  0  0  0  0  0  0  0
    4.8682   -1.2958    3.2932 H   0  0  0  0  0  0  0  0  0  0  0  0
  1  2  1  0  0  0  0
  1 24  1  0  0  0  0
  1 25  1  0  0  0  0
  1 26  1  0  0  0  0
  2  3  1  0  0  0  0
  2 23  2  0  0  0  0
  3  4  2  0  0  0  0
  3 27  1  0  0  0  0
  4  5  1  0  0  0  0
  4 14  1  0  0  0  0
  5  6  1  0  0  0  0
  5 13  1  0  0  0  0
  6  7  1  0  0  0  0
  6 28  1  0  0  0  0
  6 29  1  0  0  0  0
  7  8  1  0  0  0  0
  7 30  1  0  0  0  0
  7 31  1  0  0  0  0
  8  9  1  0  0  0  0
  8 32  1  0  0  0  0
  8 33  1  0  0  0  0
  9 10  1  0  0  0  0
  9 34  1  0  0  0  0
  9 35  1  0  0  0  0
 10 11  1  0  0  0  0
 10 36  1  0  0  0  0
 10 37  1  0  0  0  0
 11 12  1  0  0  0  0
 11 38  1  0  0  0  0
 11 39  1  0  0  0  0
 12 13  1  0  0  0  0
 12 40  1  0  0  0  0
 12 41  1  0  0  0  0
 13 42  1  0  0  0  0
 13 43  1  0  0  0  0
 14 15  2  0  0  0  0
 15 16  1  0  0  0  0
 15 22  1  0  0  0  0
 16 17  2  0  0  0  0
 16 18  1  0  0  0  0
 18 19  1  0  0  0  0
 18 20  2  0  0  0  0
 19 44  1  0  0  0  0
 19 45  1  0  0  0  0
 19 46  1  0  0  0  0
 20 21  1  0  0  0  0
 20 47  1  0  0  0  0
 21 22  2  0  0  0  0
 21 48  1  0  0  0  0
 22 23  1  0  0  0  0
M  END
$$$$
