
 OpenBabel04232216433D

 27 27  0  0  0  0  0  0  0  0999 V2000
    5.0067    0.4864   -0.2561 C   0  0  0  0  0  0  0  0  0  0  0  0
    3.8600    1.3017   -0.6363 C   0  0  0  0  0  0  0  0  0  0  0  0
    3.6143    2.5693   -0.2364 C   0  0  0  0  0  0  0  0  0  0  0  0
    4.6072    3.3410    0.4998 C   0  0  0  0  0  0  0  0  0  0  0  0
    4.7572    3.2098    1.8411 C   0  0  0  0  0  0  0  0  0  0  0  0
    5.9863    2.5492    2.3512 C   0  0  0  0  0  0  0  0  0  0  0  0
    7.2003    3.1119    2.5649 C   0  0  0  0  0  0  0  0  0  0  0  0
    8.2064    2.7011    1.5575 C   0  0  0  0  0  0  0  0  0  0  0  0
    9.1749    1.5763    1.7442 C   0  0  0  0  0  0  0  0  0  0  0  0
    7.9613    3.2635    0.3679 C   0  0  0  0  0  0  0  0  0  0  0  0
    7.8946    2.5905   -0.9134 C   0  0  0  0  0  0  0  0  0  0  0  0
    7.1110    1.5458   -1.2492 C   0  0  0  0  0  0  0  0  0  0  0  0
    6.3347    0.6230   -0.4383 C   0  0  0  0  0  0  0  0  0  0  0  0
    4.6886   -0.3890    0.3168 H   0  0  0  0  0  0  0  0  0  0  0  0
    3.0760    0.7675   -1.1733 H   0  0  0  0  0  0  0  0  0  0  0  0
    2.6888    3.0652   -0.5118 H   0  0  0  0  0  0  0  0  0  0  0  0
    5.4668    3.4575   -0.1384 H   0  0  0  0  0  0  0  0  0  0  0  0
    3.8885    3.0191    2.4619 H   0  0  0  0  0  0  0  0  0  0  0  0
    5.9929    1.5151    2.0020 H   0  0  0  0  0  0  0  0  0  0  0  0
    7.2633    4.1506    2.8787 H   0  0  0  0  0  0  0  0  0  0  0  0
    8.7041    0.5977    1.6363 H   0  0  0  0  0  0  0  0  0  0  0  0
    9.6877    1.6277    2.7101 H   0  0  0  0  0  0  0  0  0  0  0  0
    9.9705    1.6487    0.9867 H   0  0  0  0  0  0  0  0  0  0  0  0
    7.4078    4.2094    0.3463 H   0  0  0  0  0  0  0  0  0  0  0  0
    8.3769    3.1438   -1.7169 H   0  0  0  0  0  0  0  0  0  0  0  0
    7.0769    1.2843   -2.3037 H   0  0  0  0  0  0  0  0  0  0  0  0
    6.9577   -0.1349    0.0408 H   0  0  0  0  0  0  0  0  0  0  0  0
  1  2  1  0  0  0  0
  1 13  2  3  0  0  0
  1 14  1  0  0  0  0
  2  3  2  3  0  0  0
  2 15  1  0  0  0  0
  3  4  1  0  0  0  0
  3 16  1  0  0  0  0
  4  5  2  3  0  0  0
  4 17  1  0  0  0  0
  5  6  1  0  0  0  0
  5 18  1  0  0  0  0
  6  7  2  3  0  0  0
  6 19  1  0  0  0  0
  7  8  1  0  0  0  0
  7 20  1  0  0  0  0
  8  9  1  0  0  0  0
  8 10  2  3  0  0  0
  9 21  1  0  0  0  0
  9 22  1  0  0  0  0
  9 23  1  0  0  0  0
 10 11  1  0  0  0  0
 10 24  1  0  0  0  0
 11 12  2  3  0  0  0
 11 25  1  0  0  0  0
 12 13  1  0  0  0  0
 12 26  1  0  0  0  0
 13 27  1  0  0  0  0
M  END
$$$$
