
 OpenBabel04232216423D

 39 39  0  0  0  0  0  0  0  0999 V2000
    2.3983    1.6297    0.5294 C   0  0  0  0  0  0  0  0  0  0  0  0
    2.4719    1.7306   -0.8151 C   0  0  0  0  0  0  0  0  0  0  0  0
    3.6838    2.0480   -1.5107 C   0  0  0  0  0  0  0  0  0  0  0  0
    4.8934    1.4939   -1.3192 C   0  0  0  0  0  0  0  0  0  0  0  0
    5.2487    0.0416   -1.0494 C   0  0  0  0  0  0  0  0  0  0  0  0
    4.3462   -1.0965   -1.5114 C   0  0  0  0  0  0  0  0  0  0  0  0
    4.1925   -1.1815   -3.0277 C   0  0  0  0  0  0  0  0  0  0  0  0
    3.4639   -2.4727   -3.4037 C   0  0  0  0  0  0  0  0  0  0  0  0
    3.2681   -2.5873   -4.9037 C   0  0  0  0  0  0  0  0  0  0  0  0
    5.9267    2.3980   -1.0778 N   0  0  0  0  0  0  0  0  0  0  0  0
    6.4343    2.4361    0.3068 C   0  0  0  0  0  0  0  0  0  0  0  0
    5.3446    2.7392    1.3605 C   0  0  0  0  0  0  0  0  0  0  0  0
    4.5800    1.5499    1.9688 C   0  0  0  0  0  0  0  0  0  0  0  0
    3.3206    1.0450    1.3842 N   0  0  0  0  0  0  0  0  0  0  0  0
    2.7846   -0.1601    2.0497 C   0  0  0  0  0  0  0  0  0  0  0  0
    1.3966    1.6370    0.9641 H   0  0  0  0  0  0  0  0  0  0  0  0
    1.5450    1.8492   -1.3722 H   0  0  0  0  0  0  0  0  0  0  0  0
    3.6242    3.0856   -1.8213 H   0  0  0  0  0  0  0  0  0  0  0  0
    5.4301   -0.1047    0.0177 H   0  0  0  0  0  0  0  0  0  0  0  0
    6.2276   -0.1252   -1.5250 H   0  0  0  0  0  0  0  0  0  0  0  0
    3.3674   -1.0413   -1.0266 H   0  0  0  0  0  0  0  0  0  0  0  0
    4.8118   -2.0288   -1.1605 H   0  0  0  0  0  0  0  0  0  0  0  0
    5.1795   -1.1640   -3.5069 H   0  0  0  0  0  0  0  0  0  0  0  0
    3.6353   -0.3142   -3.3991 H   0  0  0  0  0  0  0  0  0  0  0  0
    2.4885   -2.5001   -2.9064 H   0  0  0  0  0  0  0  0  0  0  0  0
    4.0296   -3.3409   -3.0507 H   0  0  0  0  0  0  0  0  0  0  0  0
    2.7193   -1.7249   -5.2954 H   0  0  0  0  0  0  0  0  0  0  0  0
    2.6978   -3.4908   -5.1385 H   0  0  0  0  0  0  0  0  0  0  0  0
    4.2309   -2.6473   -5.4200 H   0  0  0  0  0  0  0  0  0  0  0  0
    5.6585    3.3427   -1.3528 H   0  0  0  0  0  0  0  0  0  0  0  0
    7.1782    3.2421    0.3335 H   0  0  0  0  0  0  0  0  0  0  0  0
    6.9805    1.5160    0.5343 H   0  0  0  0  0  0  0  0  0  0  0  0
    5.9164    3.1560    2.2053 H   0  0  0  0  0  0  0  0  0  0  0  0
    4.6683    3.5333    1.0338 H   0  0  0  0  0  0  0  0  0  0  0  0
    4.3479    1.8245    3.0070 H   0  0  0  0  0  0  0  0  0  0  0  0
    5.2760    0.7039    2.0547 H   0  0  0  0  0  0  0  0  0  0  0  0
    3.5883   -0.8627    2.2772 H   0  0  0  0  0  0  0  0  0  0  0  0
    2.0869   -0.6751    1.3773 H   0  0  0  0  0  0  0  0  0  0  0  0
    2.2507    0.1048    2.9638 H   0  0  0  0  0  0  0  0  0  0  0  0
  1  2  2  3  0  0  0
  1 14  1  0  0  0  0
  1 16  1  0  0  0  0
  2  3  1  0  0  0  0
  2 17  1  0  0  0  0
  3  4  2  3  0  0  0
  3 18  1  0  0  0  0
  4  5  1  0  0  0  0
  4 10  1  0  0  0  0
  5  6  1  0  0  0  0
  5 19  1  0  0  0  0
  5 20  1  0  0  0  0
  6  7  1  0  0  0  0
  6 21  1  0  0  0  0
  6 22  1  0  0  0  0
  7  8  1  0  0  0  0
  7 23  1  0  0  0  0
  7 24  1  0  0  0  0
  8  9  1  0  0  0  0
  8 25  1  0  0  0  0
  8 26  1  0  0  0  0
  9 27  1  0  0  0  0
  9 28  1  0  0  0  0
  9 29  1  0  0  0  0
 10 11  1  0  0  0  0
 10 30  1  0  0  0  0
 11 12  1  0  0  0  0
 11 31  1  0  0  0  0
 11 32  1  0  0  0  0
 12 13  1  0  0  0  0
 12 33  1  0  0  0  0
 12 34  1  0  0  0  0
 13 14  1  0  0  0  0
 13 35  1  0  0  0  0
 13 36  1  0  0  0  0
 14 15  1  0  0  0  0
 15 37  1  0  0  0  0
 15 38  1  0  0  0  0
 15 39  1  0  0  0  0
M  END
$$$$
