
 OpenBabel04232216533D

233232  0  0  0  0  0  0  0  0999 V2000
   23.1924   -9.9022   -5.1491 C   0  0  0  0  0  0  0  0  0  0  0  0
   22.6989   -8.8384   -4.1846 C   0  0  0  0  0  0  0  0  0  0  0  0
   23.1532   -7.4552   -4.6297 C   0  0  0  0  0  0  0  0  0  0  0  0
   22.6574   -6.3868   -3.6641 C   0  0  0  0  0  0  0  0  0  0  0  0
   23.1167   -5.0107   -4.1185 C   0  0  0  0  0  0  0  0  0  0  0  0
   22.6211   -3.9459   -3.1540 C   0  0  0  0  0  0  0  0  0  0  0  0
   23.0800   -2.5734   -3.6120 C   0  0  0  0  0  0  0  0  0  0  0  0
   22.5848   -1.5132   -2.6456 C   0  0  0  0  0  0  0  0  0  0  0  0
   23.0443   -0.1432   -3.1048 C   0  0  0  0  0  0  0  0  0  0  0  0
   22.5468    0.9137   -2.1389 C   0  0  0  0  0  0  0  0  0  0  0  0
   23.0082    2.2816   -2.5981 C   0  0  0  0  0  0  0  0  0  0  0  0
   22.5083    3.3358   -1.6328 C   0  0  0  0  0  0  0  0  0  0  0  0
   22.9684    4.7025   -2.0941 C   0  0  0  0  0  0  0  0  0  0  0  0
   22.4662    5.7548   -1.1297 C   0  0  0  0  0  0  0  0  0  0  0  0
   22.9270    7.1196   -1.5881 C   0  0  0  0  0  0  0  0  0  0  0  0
   22.4336    8.1700   -0.6249 C   0  0  0  0  0  0  0  0  0  0  0  0
   22.9351    9.4075   -1.0760 O   0  0  0  0  0  0  0  0  0  0  0  0
   22.4279   10.3696   -0.1262 O   0  0  0  0  0  0  0  0  0  0  0  0
   22.7877   11.6933   -0.5510 O   0  0  0  0  0  0  0  0  0  0  0  0
   22.2125   11.9566   -1.8525 O   0  0  0  0  0  0  0  0  0  0  0  0
   22.7132   13.2273   -2.1990 C   0  0  0  0  0  0  0  0  0  0  0  0
   22.2358   13.5930   -3.4868 O   0  0  0  0  0  0  0  0  0  0  0  0
   22.6983   14.8862   -3.8322 C   0  0  0  0  0  0  0  0  0  0  0  0
   24.1152   14.9193   -3.9021 O   0  0  0  0  0  0  0  0  0  0  0  0
   24.5779   16.2204   -4.1867 C   0  0  0  0  0  0  0  0  0  0  0  0
   26.0862   16.1718   -4.1620 C   0  0  0  0  0  0  0  0  0  0  0  0
   26.6221   17.5408   -4.5131 C   0  0  0  0  0  0  0  0  0  0  0  0
   28.1340   17.5321   -4.5124 C   0  0  0  0  0  0  0  0  0  0  0  0
   28.6412   18.9149   -4.8720 C   0  0  0  0  0  0  0  0  0  0  0  0
   30.1561   18.9206   -4.8756 C   0  0  0  0  0  0  0  0  0  0  0  0
   30.6613   20.3033   -5.2355 C   0  0  0  0  0  0  0  0  0  0  0  0
   32.1777   20.3081   -5.2384 C   0  0  0  0  0  0  0  0  0  0  0  0
   32.6865   21.6904   -5.5978 C   0  0  0  0  0  0  0  0  0  0  0  0
   34.2032   21.6948   -5.5989 C   0  0  0  0  0  0  0  0  0  0  0  0
   34.7132   23.0772   -5.9584 C   0  0  0  0  0  0  0  0  0  0  0  0
   36.2296   23.0813   -5.9610 C   0  0  0  0  0  0  0  0  0  0  0  0
   36.7393   24.4648   -6.3182 C   0  0  0  0  0  0  0  0  0  0  0  0
   38.2559   24.4691   -6.3193 C   0  0  0  0  0  0  0  0  0  0  0  0
   38.7665   25.8519   -6.6759 C   0  0  0  0  0  0  0  0  0  0  0  0
   40.2832   25.8553   -6.6782 C   0  0  0  0  0  0  0  0  0  0  0  0
   40.7933   27.2390   -7.0320 C   0  0  0  0  0  0  0  0  0  0  0  0
   42.3099   27.2434   -7.0333 C   0  0  0  0  0  0  0  0  0  0  0  0
   42.8197   28.6273   -7.3866 C   0  0  0  0  0  0  0  0  0  0  0  0
   44.3363   28.6320   -7.3878 C   0  0  0  0  0  0  0  0  0  0  0  0
   44.8462   30.0159   -7.7412 C   0  0  0  0  0  0  0  0  0  0  0  0
   46.3628   30.0205   -7.7424 C   0  0  0  0  0  0  0  0  0  0  0  0
   46.8728   31.4044   -8.0958 C   0  0  0  0  0  0  0  0  0  0  0  0
   48.3894   31.4090   -8.0971 C   0  0  0  0  0  0  0  0  0  0  0  0
   48.8994   32.7929   -8.4505 C   0  0  0  0  0  0  0  0  0  0  0  0
   50.4160   32.7969   -8.4537 C   0  0  0  0  0  0  0  0  0  0  0  0
   50.9261   34.1807   -8.8071 C   0  0  0  0  0  0  0  0  0  0  0  0
   52.4429   34.1839   -8.8116 C   0  0  0  0  0  0  0  0  0  0  0  0
   52.9530   35.5684   -9.1632 C   0  0  0  0  0  0  0  0  0  0  0  0
   54.4696   35.5726   -9.1666 C   0  0  0  0  0  0  0  0  0  0  0  0
   54.9794   36.9575   -9.5166 C   0  0  0  0  0  0  0  0  0  0  0  0
   56.4961   36.9614   -9.5217 C   0  0  0  0  0  0  0  0  0  0  0  0
   57.0061   38.3459   -9.8732 C   0  0  0  0  0  0  0  0  0  0  0  0
   58.5225   38.3500   -9.8762 C   0  0  0  0  0  0  0  0  0  0  0  0
   59.0332   39.7362  -10.2297 C   0  0  0  0  0  0  0  0  0  0  0  0
   60.5492   39.7382  -10.2344 C   0  0  0  0  0  0  0  0  0  0  0  0
   61.0582   41.1287  -10.5830 C   0  0  0  0  0  0  0  0  0  0  0  0
   62.5766   41.1316  -10.5834 C   0  0  0  0  0  0  0  0  0  0  0  0
   63.0854   42.5113  -10.9356 C   0  0  0  0  0  0  0  0  0  0  0  0
   64.6009   42.5235  -10.9431 C   0  0  0  0  0  0  0  0  0  0  0  0
   65.1130   43.9036  -11.2867 C   0  0  0  0  0  0  0  0  0  0  0  0
   66.6282   43.9108  -11.2822 C   0  0  0  0  0  0  0  0  0  0  0  0
   67.1399   45.2918  -11.6381 C   0  0  0  0  0  0  0  0  0  0  0  0
   68.6570   45.2955  -11.6401 C   0  0  0  0  0  0  0  0  0  0  0  0
   69.1661   46.6808  -11.9921 C   0  0  0  0  0  0  0  0  0  0  0  0
   70.6868   46.6805  -11.9969 C   0  0  0  0  0  0  0  0  0  0  0  0
   71.1952   48.0698  -12.3473 C   0  0  0  0  0  0  0  0  0  0  0  0
   72.7119   48.0750  -12.3504 C   0  0  0  0  0  0  0  0  0  0  0  0
   73.2240   49.4604  -12.7018 C   0  0  0  0  0  0  0  0  0  0  0  0
   74.7419   49.4638  -12.7045 C   0  0  0  0  0  0  0  0  0  0  0  0
   75.2555   50.8483  -13.0563 C   0  0  0  0  0  0  0  0  0  0  0  0
   76.7739   50.8529  -13.0617 C   0  0  0  0  0  0  0  0  0  0  0  0
   77.2890   52.2358  -13.4128 C   0  0  0  0  0  0  0  0  0  0  0  0
   78.8085   52.2473  -13.4203 C   0  0  0  0  0  0  0  0  0  0  0  0
   79.3218   53.6325  -13.7710 C   0  0  0  0  0  0  0  0  0  0  0  0
   80.8492   53.6570  -13.7824 C   0  0  0  0  0  0  0  0  0  0  0  0
   81.3699   55.0429  -14.1320 C   0  0  0  0  0  0  0  0  0  0  0  0
   22.8624  -10.8914   -4.8227 H   0  0  0  0  0  0  0  0  0  0  0  0
   24.2859   -9.9027   -5.1996 H   0  0  0  0  0  0  0  0  0  0  0  0
   22.8024   -9.7235   -6.1562 H   0  0  0  0  0  0  0  0  0  0  0  0
   23.0808   -9.0514   -3.1793 H   0  0  0  0  0  0  0  0  0  0  0  0
   21.6046   -8.8730   -4.1314 H   0  0  0  0  0  0  0  0  0  0  0  0
   22.7737   -7.2437   -5.6370 H   0  0  0  0  0  0  0  0  0  0  0  0
   24.2484   -7.4212   -4.6835 H   0  0  0  0  0  0  0  0  0  0  0  0
   23.0375   -6.5896   -2.6554 H   0  0  0  0  0  0  0  0  0  0  0  0
   21.5621   -6.4122   -3.6094 H   0  0  0  0  0  0  0  0  0  0  0  0
   22.7368   -4.8026   -5.1265 H   0  0  0  0  0  0  0  0  0  0  0  0
   24.2119   -4.9799   -4.1726 H   0  0  0  0  0  0  0  0  0  0  0  0
   23.0023   -4.1481   -2.1455 H   0  0  0  0  0  0  0  0  0  0  0  0
   21.5258   -3.9721   -3.0982 H   0  0  0  0  0  0  0  0  0  0  0  0
   22.6975   -2.3665   -4.6191 H   0  0  0  0  0  0  0  0  0  0  0  0
   24.1751   -2.5431   -3.6682 H   0  0  0  0  0  0  0  0  0  0  0  0
   22.9673   -1.7164   -1.6378 H   0  0  0  0  0  0  0  0  0  0  0  0
   21.4896   -1.5398   -2.5887 H   0  0  0  0  0  0  0  0  0  0  0  0
   22.6628    0.0629   -4.1125 H   0  0  0  0  0  0  0  0  0  0  0  0
   24.1395   -0.1131   -3.1597 H   0  0  0  0  0  0  0  0  0  0  0  0
   22.9271    0.7100   -1.1302 H   0  0  0  0  0  0  0  0  0  0  0  0
   21.4515    0.8872   -2.0845 H   0  0  0  0  0  0  0  0  0  0  0  0
   22.6289    2.4876   -3.6066 H   0  0  0  0  0  0  0  0  0  0  0  0
   24.1035    2.3113   -2.6505 H   0  0  0  0  0  0  0  0  0  0  0  0
   22.8886    3.1331   -0.6239 H   0  0  0  0  0  0  0  0  0  0  0  0
   21.4129    3.3077   -1.5788 H   0  0  0  0  0  0  0  0  0  0  0  0
   22.5893    4.9066   -3.1031 H   0  0  0  0  0  0  0  0  0  0  0  0
   24.0638    4.7329   -2.1462 H   0  0  0  0  0  0  0  0  0  0  0  0
   22.8452    5.5511   -0.1204 H   0  0  0  0  0  0  0  0  0  0  0  0
   21.3708    5.7260   -1.0772 H   0  0  0  0  0  0  0  0  0  0  0  0
   22.5588    7.3350   -2.5997 H   0  0  0  0  0  0  0  0  0  0  0  0
   24.0220    7.1583   -1.6518 H   0  0  0  0  0  0  0  0  0  0  0  0
   22.8139    7.9812    0.3843 H   0  0  0  0  0  0  0  0  0  0  0  0
   21.3376    8.1916   -0.6001 H   0  0  0  0  0  0  0  0  0  0  0  0
   23.8102   13.1982   -2.1952 H   0  0  0  0  0  0  0  0  0  0  0  0
   22.3627   13.9528   -1.4554 H   0  0  0  0  0  0  0  0  0  0  0  0
   22.3259   15.6137   -3.0989 H   0  0  0  0  0  0  0  0  0  0  0  0
   22.2879   15.1360   -4.8149 H   0  0  0  0  0  0  0  0  0  0  0  0
   24.2090   16.9289   -3.4345 H   0  0  0  0  0  0  0  0  0  0  0  0
   24.2179   16.5198   -5.1748 H   0  0  0  0  0  0  0  0  0  0  0  0
   26.4508   15.4132   -4.8672 H   0  0  0  0  0  0  0  0  0  0  0  0
   26.4409   15.8541   -3.1709 H   0  0  0  0  0  0  0  0  0  0  0  0
   26.2511   18.2802   -3.7923 H   0  0  0  0  0  0  0  0  0  0  0  0
   26.2507   17.8389   -5.5017 H   0  0  0  0  0  0  0  0  0  0  0  0
   28.5070   16.7948   -5.2347 H   0  0  0  0  0  0  0  0  0  0  0  0
   28.5086   17.2384   -3.5238 H   0  0  0  0  0  0  0  0  0  0  0  0
   28.2645   19.6508   -4.1502 H   0  0  0  0  0  0  0  0  0  0  0  0
   28.2622   19.2073   -5.8595 H   0  0  0  0  0  0  0  0  0  0  0  0
   30.5300   18.1843   -5.5975 H   0  0  0  0  0  0  0  0  0  0  0  0
   30.5324   18.6283   -3.8878 H   0  0  0  0  0  0  0  0  0  0  0  0
   30.2854   21.0392   -4.5141 H   0  0  0  0  0  0  0  0  0  0  0  0
   30.2836   20.5951   -6.2234 H   0  0  0  0  0  0  0  0  0  0  0  0
   32.5522   19.5716   -5.9600 H   0  0  0  0  0  0  0  0  0  0  0  0
   32.5539   20.0153   -4.2504 H   0  0  0  0  0  0  0  0  0  0  0  0
   32.3105   22.4268   -4.8768 H   0  0  0  0  0  0  0  0  0  0  0  0
   32.3104   21.9821   -6.5860 H   0  0  0  0  0  0  0  0  0  0  0  0
   34.5787   20.9580   -6.3198 H   0  0  0  0  0  0  0  0  0  0  0  0
   34.5790   21.4027   -4.6106 H   0  0  0  0  0  0  0  0  0  0  0  0
   34.3381   23.8132   -5.2367 H   0  0  0  0  0  0  0  0  0  0  0  0
   34.3361   23.3697   -6.9461 H   0  0  0  0  0  0  0  0  0  0  0  0
   36.6044   22.3470   -6.6847 H   0  0  0  0  0  0  0  0  0  0  0  0
   36.6067   22.7869   -4.9744 H   0  0  0  0  0  0  0  0  0  0  0  0
   36.3634   25.2002   -5.5961 H   0  0  0  0  0  0  0  0  0  0  0  0
   36.3637   24.7587   -7.3059 H   0  0  0  0  0  0  0  0  0  0  0  0
   38.6312   23.7340   -7.0418 H   0  0  0  0  0  0  0  0  0  0  0  0
   38.6319   24.1747   -5.3318 H   0  0  0  0  0  0  0  0  0  0  0  0
   38.3919   26.5869   -5.9528 H   0  0  0  0  0  0  0  0  0  0  0  0
   38.3902   26.1467   -7.6632 H   0  0  0  0  0  0  0  0  0  0  0  0
   40.6580   25.1214   -7.4023 H   0  0  0  0  0  0  0  0  0  0  0  0
   40.6595   25.5589   -5.6912 H   0  0  0  0  0  0  0  0  0  0  0  0
   40.4177   27.9725   -6.3082 H   0  0  0  0  0  0  0  0  0  0  0  0
   40.4174   27.5350   -8.0192 H   0  0  0  0  0  0  0  0  0  0  0  0
   42.6857   26.5099   -7.7573 H   0  0  0  0  0  0  0  0  0  0  0  0
   42.6856   26.9470   -6.0461 H   0  0  0  0  0  0  0  0  0  0  0  0
   42.4439   29.3607   -6.6625 H   0  0  0  0  0  0  0  0  0  0  0  0
   42.4438   28.9238   -8.3736 H   0  0  0  0  0  0  0  0  0  0  0  0
   44.7121   27.8986   -8.1119 H   0  0  0  0  0  0  0  0  0  0  0  0
   44.7121   28.3356   -6.4007 H   0  0  0  0  0  0  0  0  0  0  0  0
   44.4704   30.7493   -7.0171 H   0  0  0  0  0  0  0  0  0  0  0  0
   44.4704   30.3123   -8.7283 H   0  0  0  0  0  0  0  0  0  0  0  0
   46.7386   29.2871   -8.4665 H   0  0  0  0  0  0  0  0  0  0  0  0
   46.7386   29.7241   -6.7553 H   0  0  0  0  0  0  0  0  0  0  0  0
   46.4970   32.1379   -7.3717 H   0  0  0  0  0  0  0  0  0  0  0  0
   46.4970   31.7008   -9.0829 H   0  0  0  0  0  0  0  0  0  0  0  0
   48.7651   30.6755   -8.8212 H   0  0  0  0  0  0  0  0  0  0  0  0
   48.7653   31.1125   -7.1100 H   0  0  0  0  0  0  0  0  0  0  0  0
   48.5248   33.5261   -7.7256 H   0  0  0  0  0  0  0  0  0  0  0  0
   48.5225   33.0899   -9.4370 H   0  0  0  0  0  0  0  0  0  0  0  0
   50.7905   32.0637   -9.1787 H   0  0  0  0  0  0  0  0  0  0  0  0
   50.7930   32.4998   -7.4673 H   0  0  0  0  0  0  0  0  0  0  0  0
   50.5526   34.9137   -8.0814 H   0  0  0  0  0  0  0  0  0  0  0  0
   50.5484   34.4784   -9.7929 H   0  0  0  0  0  0  0  0  0  0  0  0
   52.8162   33.4522   -9.5384 H   0  0  0  0  0  0  0  0  0  0  0  0
   52.8206   33.8846   -7.8262 H   0  0  0  0  0  0  0  0  0  0  0  0
   52.5785   36.3008   -8.4374 H   0  0  0  0  0  0  0  0  0  0  0  0
   52.5759   35.8662  -10.1493 H   0  0  0  0  0  0  0  0  0  0  0  0
   54.8439   34.8413   -9.8936 H   0  0  0  0  0  0  0  0  0  0  0  0
   54.8472   35.2730   -8.1811 H   0  0  0  0  0  0  0  0  0  0  0  0
   54.6059   37.6886   -8.7889 H   0  0  0  0  0  0  0  0  0  0  0  0
   54.6012   37.2577  -10.5016 H   0  0  0  0  0  0  0  0  0  0  0  0
   56.8697   36.2296  -10.2485 H   0  0  0  0  0  0  0  0  0  0  0  0
   56.8741   36.6624   -8.5362 H   0  0  0  0  0  0  0  0  0  0  0  0
   56.6316   39.0780   -9.1471 H   0  0  0  0  0  0  0  0  0  0  0  0
   56.6290   38.6443  -10.8591 H   0  0  0  0  0  0  0  0  0  0  0  0
   58.8973   37.6177  -10.6023 H   0  0  0  0  0  0  0  0  0  0  0  0
   58.8997   38.0515   -8.8903 H   0  0  0  0  0  0  0  0  0  0  0  0
   58.6578   40.4671   -9.5026 H   0  0  0  0  0  0  0  0  0  0  0  0
   58.6562   40.0321  -11.2140 H   0  0  0  0  0  0  0  0  0  0  0  0
   60.9231   39.0010  -10.9542 H   0  0  0  0  0  0  0  0  0  0  0  0
   60.9273   39.4459   -9.2435 H   0  0  0  0  0  0  0  0  0  0  0  0
   60.6837   41.8534   -9.8598 H   0  0  0  0  0  0  0  0  0  0  0  0
   60.6854   41.4205  -11.5653 H   0  0  0  0  0  0  0  0  0  0  0  0
   62.9527   40.3959  -11.3081 H   0  0  0  0  0  0  0  0  0  0  0  0
   62.9520   40.8342   -9.6010 H   0  0  0  0  0  0  0  0  0  0  0  0
   62.7111   43.2439  -10.2091 H   0  0  0  0  0  0  0  0  0  0  0  0
   62.7100   42.8147  -11.9259 H   0  0  0  0  0  0  0  0  0  0  0  0
   64.9796   41.7861  -11.6600 H   0  0  0  0  0  0  0  0  0  0  0  0
   64.9770   42.2222   -9.9507 H   0  0  0  0  0  0  0  0  0  0  0  0
   64.7382   44.6342  -10.5614 H   0  0  0  0  0  0  0  0  0  0  0  0
   64.7387   44.2001  -12.2724 H   0  0  0  0  0  0  0  0  0  0  0  0
   67.0068   43.1749  -12.0122 H   0  0  0  0  0  0  0  0  0  0  0  0
   67.0069   43.6091  -10.3003 H   0  0  0  0  0  0  0  0  0  0  0  0
   66.7650   46.0235  -10.9137 H   0  0  0  0  0  0  0  0  0  0  0  0
   66.7644   45.5887  -12.6252 H   0  0  0  0  0  0  0  0  0  0  0  0
   69.0329   44.5640  -12.3659 H   0  0  0  0  0  0  0  0  0  0  0  0
   69.0338   44.9984  -10.6542 H   0  0  0  0  0  0  0  0  0  0  0  0
   68.7927   47.4126  -11.2654 H   0  0  0  0  0  0  0  0  0  0  0  0
   68.7896   46.9798  -12.9773 H   0  0  0  0  0  0  0  0  0  0  0  0
   71.0581   45.9528  -12.7217 H   0  0  0  0  0  0  0  0  0  0  0  0
   71.0608   46.3869  -11.0099 H   0  0  0  0  0  0  0  0  0  0  0  0
   70.8202   48.8018  -11.6211 H   0  0  0  0  0  0  0  0  0  0  0  0
   70.8180   48.3684  -13.3330 H   0  0  0  0  0  0  0  0  0  0  0  0
   73.0864   47.3425  -13.0760 H   0  0  0  0  0  0  0  0  0  0  0  0
   73.0885   47.7759  -11.3640 H   0  0  0  0  0  0  0  0  0  0  0  0
   72.8486   50.1914  -11.9755 H   0  0  0  0  0  0  0  0  0  0  0  0
   72.8464   49.7576  -13.6875 H   0  0  0  0  0  0  0  0  0  0  0  0
   75.1146   48.7307  -13.4304 H   0  0  0  0  0  0  0  0  0  0  0  0
   75.1170   49.1645  -11.7184 H   0  0  0  0  0  0  0  0  0  0  0  0
   74.8820   51.5806  -12.3294 H   0  0  0  0  0  0  0  0  0  0  0  0
   74.8775   51.1474  -14.0422 H   0  0  0  0  0  0  0  0  0  0  0  0
   77.1460   50.1210  -13.7885 H   0  0  0  0  0  0  0  0  0  0  0  0
   77.1507   50.5538  -12.0764 H   0  0  0  0  0  0  0  0  0  0  0  0
   76.9135   52.9702  -12.6871 H   0  0  0  0  0  0  0  0  0  0  0  0
   76.9087   52.5375  -14.3984 H   0  0  0  0  0  0  0  0  0  0  0  0
   79.1819   51.5174  -14.1481 H   0  0  0  0  0  0  0  0  0  0  0  0
   79.1871   51.9482  -12.4354 H   0  0  0  0  0  0  0  0  0  0  0  0
   78.9515   54.3646  -13.0422 H   0  0  0  0  0  0  0  0  0  0  0  0
   78.9444   53.9353  -14.7543 H   0  0  0  0  0  0  0  0  0  0  0  0
   81.2302   52.9320  -14.5121 H   0  0  0  0  0  0  0  0  0  0  0  0
   81.2372   53.3616  -12.7994 H   0  0  0  0  0  0  0  0  0  0  0  0
   81.0164   55.3484  -15.1218 H   0  0  0  0  0  0  0  0  0  0  0  0
   82.4614   55.0479  -14.1378 H   0  0  0  0  0  0  0  0  0  0  0  0
   81.0236   55.7801  -13.4009 H   0  0  0  0  0  0  0  0  0  0  0  0
  1  2  1  0  0  0  0
  1 82  1  0  0  0  0
  1 83  1  0  0  0  0
  1 84  1  0  0  0  0
  2  3  1  0  0  0  0
  2 85  1  0  0  0  0
  2 86  1  0  0  0  0
  3  4  1  0  0  0  0
  3 87  1  0  0  0  0
  3 88  1  0  0  0  0
  4  5  1  0  0  0  0
  4 89  1  0  0  0  0
  4 90  1  0  0  0  0
  5  6  1  0  0  0  0
  5 91  1  0  0  0  0
  5 92  1  0  0  0  0
  6  7  1  0  0  0  0
  6 93  1  0  0  0  0
  6 94  1  0  0  0  0
  7  8  1  0  0  0  0
  7 95  1  0  0  0  0
  7 96  1  0  0  0  0
  8  9  1  0  0  0  0
  8 97  1  0  0  0  0
  8 98  1  0  0  0  0
  9 10  1  0  0  0  0
  9 99  1  0  0  0  0
  9100  1  0  0  0  0
 10 11  1  0  0  0  0
 10101  1  0  0  0  0
 10102  1  0  0  0  0
 11 12  1  0  0  0  0
 11103  1  0  0  0  0
 11104  1  0  0  0  0
 12 13  1  0  0  0  0
 12105  1  0  0  0  0
 12106  1  0  0  0  0
 13 14  1  0  0  0  0
 13107  1  0  0  0  0
 13108  1  0  0  0  0
 14 15  1  0  0  0  0
 14109  1  0  0  0  0
 14110  1  0  0  0  0
 15 16  1  0  0  0  0
 15111  1  0  0  0  0
 15112  1  0  0  0  0
 16 17  1  0  0  0  0
 16113  1  0  0  0  0
 16114  1  0  0  0  0
 17 18  1  0  0  0  0
 18 19  1  0  0  0  0
 19 20  1  0  0  0  0
 20 21  1  0  0  0  0
 21 22  1  0  0  0  0
 21115  1  0  0  0  0
 21116  1  0  0  0  0
 22 23  1  0  0  0  0
 23 24  1  0  0  0  0
 23117  1  0  0  0  0
 23118  1  0  0  0  0
 24 25  1  0  0  0  0
 25 26  1  0  0  0  0
 25119  1  0  0  0  0
 25120  1  0  0  0  0
 26 27  1  0  0  0  0
 26121  1  0  0  0  0
 26122  1  0  0  0  0
 27 28  1  0  0  0  0
 27123  1  0  0  0  0
 27124  1  0  0  0  0
 28 29  1  0  0  0  0
 28125  1  0  0  0  0
 28126  1  0  0  0  0
 29 30  1  0  0  0  0
 29127  1  0  0  0  0
 29128  1  0  0  0  0
 30 31  1  0  0  0  0
 30129  1  0  0  0  0
 30130  1  0  0  0  0
 31 32  1  0  0  0  0
 31131  1  0  0  0  0
 31132  1  0  0  0  0
 32 33  1  0  0  0  0
 32133  1  0  0  0  0
 32134  1  0  0  0  0
 33 34  1  0  0  0  0
 33135  1  0  0  0  0
 33136  1  0  0  0  0
 34 35  1  0  0  0  0
 34137  1  0  0  0  0
 34138  1  0  0  0  0
 35 36  1  0  0  0  0
 35139  1  0  0  0  0
 35140  1  0  0  0  0
 36 37  1  0  0  0  0
 36141  1  0  0  0  0
 36142  1  0  0  0  0
 37 38  1  0  0  0  0
 37143  1  0  0  0  0
 37144  1  0  0  0  0
 38 39  1  0  0  0  0
 38145  1  0  0  0  0
 38146  1  0  0  0  0
 39 40  1  0  0  0  0
 39147  1  0  0  0  0
 39148  1  0  0  0  0
 40 41  1  0  0  0  0
 40149  1  0  0  0  0
 40150  1  0  0  0  0
 41 42  1  0  0  0  0
 41151  1  0  0  0  0
 41152  1  0  0  0  0
 42 43  1  0  0  0  0
 42153  1  0  0  0  0
 42154  1  0  0  0  0
 43 44  1  0  0  0  0
 43155  1  0  0  0  0
 43156  1  0  0  0  0
 44 45  1  0  0  0  0
 44157  1  0  0  0  0
 44158  1  0  0  0  0
 45 46  1  0  0  0  0
 45159  1  0  0  0  0
 45160  1  0  0  0  0
 46 47  1  0  0  0  0
 46161  1  0  0  0  0
 46162  1  0  0  0  0
 47 48  1  0  0  0  0
 47163  1  0  0  0  0
 47164  1  0  0  0  0
 48 49  1  0  0  0  0
 48165  1  0  0  0  0
 48166  1  0  0  0  0
 49 50  1  0  0  0  0
 49167  1  0  0  0  0
 49168  1  0  0  0  0
 50 51  1  0  0  0  0
 50169  1  0  0  0  0
 50170  1  0  0  0  0
 51 52  1  0  0  0  0
 51171  1  0  0  0  0
 51172  1  0  0  0  0
 52 53  1  0  0  0  0
 52173  1  0  0  0  0
 52174  1  0  0  0  0
 53 54  1  0  0  0  0
 53175  1  0  0  0  0
 53176  1  0  0  0  0
 54 55  1  0  0  0  0
 54177  1  0  0  0  0
 54178  1  0  0  0  0
 55 56  1  0  0  0  0
 55179  1  0  0  0  0
 55180  1  0  0  0  0
 56 57  1  0  0  0  0
 56181  1  0  0  0  0
 56182  1  0  0  0  0
 57 58  1  0  0  0  0
 57183  1  0  0  0  0
 57184  1  0  0  0  0
 58 59  1  0  0  0  0
 58185  1  0  0  0  0
 58186  1  0  0  0  0
 59 60  1  0  0  0  0
 59187  1  0  0  0  0
 59188  1  0  0  0  0
 60 61  1  0  0  0  0
 60189  1  0  0  0  0
 60190  1  0  0  0  0
 61 62  1  0  0  0  0
 61191  1  0  0  0  0
 61192  1  0  0  0  0
 62 63  1  0  0  0  0
 62193  1  0  0  0  0
 62194  1  0  0  0  0
 63 64  1  0  0  0  0
 63195  1  0  0  0  0
 63196  1  0  0  0  0
 64 65  1  0  0  0  0
 64197  1  0  0  0  0
 64198  1  0  0  0  0
 65 66  1  0  0  0  0
 65199  1  0  0  0  0
 65200  1  0  0  0  0
 66 67  1  0  0  0  0
 66201  1  0  0  0  0
 66202  1  0  0  0  0
 67 68  1  0  0  0  0
 67203  1  0  0  0  0
 67204  1  0  0  0  0
 68 69  1  0  0  0  0
 68205  1  0  0  0  0
 68206  1  0  0  0  0
 69 70  1  0  0  0  0
 69207  1  0  0  0  0
 69208  1  0  0  0  0
 70 71  1  0  0  0  0
 70209  1  0  0  0  0
 70210  1  0  0  0  0
 71 72  1  0  0  0  0
 71211  1  0  0  0  0
 71212  1  0  0  0  0
 72 73  1  0  0  0  0
 72213  1  0  0  0  0
 72214  1  0  0  0  0
 73 74  1  0  0  0  0
 73215  1  0  0  0  0
 73216  1  0  0  0  0
 74 75  1  0  0  0  0
 74217  1  0  0  0  0
 74218  1  0  0  0  0
 75 76  1  0  0  0  0
 75219  1  0  0  0  0
 75220  1  0  0  0  0
 76 77  1  0  0  0  0
 76221  1  0  0  0  0
 76222  1  0  0  0  0
 77 78  1  0  0  0  0
 77223  1  0  0  0  0
 77224  1  0  0  0  0
 78 79  1  0  0  0  0
 78225  1  0  0  0  0
 78226  1  0  0  0  0
 79 80  1  0  0  0  0
 79227  1  0  0  0  0
 79228  1  0  0  0  0
 80 81  1  0  0  0  0
 80229  1  0  0  0  0
 80230  1  0  0  0  0
 81231  1  0  0  0  0
 81232  1  0  0  0  0
 81233  1  0  0  0  0
M  END
$$$$
