
 OpenBabel04232216523D

 39 39  0  0  0  0  0  0  0  0999 V2000
    4.7768   -0.2590    2.8306 C   0  0  0  0  0  0  0  0  0  0  0  0
    4.2792   -0.0703    1.4042 C   0  0  0  0  0  0  0  0  0  0  0  0
    4.8799    1.1907    0.7846 C   0  0  0  0  0  0  0  0  0  0  0  0
    4.3916    1.4282   -0.6549 C   0  0  0  0  0  0  0  0  0  0  0  0
    5.0335    2.6689   -1.3699 C   0  0  0  0  0  0  0  0  0  0  0  0
    4.4752    2.7630   -2.8209 C   0  0  0  0  0  0  0  0  0  0  0  0
    3.0924    3.3943   -2.9888 C   0  0  0  0  0  0  0  0  0  0  0  0
    3.1451    4.9133   -3.1537 C   0  0  0  0  0  0  0  0  0  0  0  0
    3.4714    5.6810   -1.8807 C   0  0  0  0  0  0  0  0  0  0  0  0
    4.7937    5.2875   -1.2255 C   0  0  0  0  0  0  0  0  0  0  0  0
    4.7198    3.9347   -0.5174 C   0  0  0  0  0  0  0  0  0  0  0  0
    6.5896    2.5057   -1.4611 C   0  0  0  0  0  0  0  0  0  0  0  0
    7.0858    1.2652   -2.2007 C   0  0  0  0  0  0  0  0  0  0  0  0
    4.3299   -1.1523    3.2772 H   0  0  0  0  0  0  0  0  0  0  0  0
    4.5152    0.6016    3.4555 H   0  0  0  0  0  0  0  0  0  0  0  0
    5.8664   -0.3773    2.8525 H   0  0  0  0  0  0  0  0  0  0  0  0
    3.1848   -0.0026    1.4082 H   0  0  0  0  0  0  0  0  0  0  0  0
    4.5525   -0.9480    0.8076 H   0  0  0  0  0  0  0  0  0  0  0  0
    5.9704    1.0936    0.8041 H   0  0  0  0  0  0  0  0  0  0  0  0
    4.6191    2.0494    1.4129 H   0  0  0  0  0  0  0  0  0  0  0  0
    3.3006    1.5507   -0.6312 H   0  0  0  0  0  0  0  0  0  0  0  0
    4.5682    0.5219   -1.2447 H   0  0  0  0  0  0  0  0  0  0  0  0
    4.4278    1.7488   -3.2412 H   0  0  0  0  0  0  0  0  0  0  0  0
    5.1839    3.3042   -3.4606 H   0  0  0  0  0  0  0  0  0  0  0  0
    2.4156    3.1125   -2.1755 H   0  0  0  0  0  0  0  0  0  0  0  0
    2.6542    2.9897   -3.9102 H   0  0  0  0  0  0  0  0  0  0  0  0
    2.1686    5.2567   -3.5161 H   0  0  0  0  0  0  0  0  0  0  0  0
    3.8687    5.1779   -3.9348 H   0  0  0  0  0  0  0  0  0  0  0  0
    2.6500    5.5669   -1.1631 H   0  0  0  0  0  0  0  0  0  0  0  0
    3.5108    6.7496   -2.1282 H   0  0  0  0  0  0  0  0  0  0  0  0
    5.0108    6.0468   -0.4630 H   0  0  0  0  0  0  0  0  0  0  0  0
    5.6189    5.3266   -1.9455 H   0  0  0  0  0  0  0  0  0  0  0  0
    3.7274    3.8367   -0.0584 H   0  0  0  0  0  0  0  0  0  0  0  0
    5.4232    3.9698    0.3248 H   0  0  0  0  0  0  0  0  0  0  0  0
    7.0276    2.4993   -0.4564 H   0  0  0  0  0  0  0  0  0  0  0  0
    7.0193    3.3857   -1.9573 H   0  0  0  0  0  0  0  0  0  0  0  0
    6.7046    0.3408   -1.7587 H   0  0  0  0  0  0  0  0  0  0  0  0
    8.1786    1.2184   -2.1526 H   0  0  0  0  0  0  0  0  0  0  0  0
    6.8048    1.2878   -3.2575 H   0  0  0  0  0  0  0  0  0  0  0  0
  1  2  1  0  0  0  0
  1 14  1  0  0  0  0
  1 15  1  0  0  0  0
  1 16  1  0  0  0  0
  2  3  1  0  0  0  0
  2 17  1  0  0  0  0
  2 18  1  0  0  0  0
  3  4  1  0  0  0  0
  3 19  1  0  0  0  0
  3 20  1  0  0  0  0
  4  5  1  0  0  0  0
  4 21  1  0  0  0  0
  4 22  1  0  0  0  0
  5  6  1  0  0  0  0
  5 11  1  0  0  0  0
  5 12  1  0  0  0  0
  6  7  1  0  0  0  0
  6 23  1  0  0  0  0
  6 24  1  0  0  0  0
  7  8  1  0  0  0  0
  7 25  1  0  0  0  0
  7 26  1  0  0  0  0
  8  9  1  0  0  0  0
  8 27  1  0  0  0  0
  8 28  1  0  0  0  0
  9 10  1  0  0  0  0
  9 29  1  0  0  0  0
  9 30  1  0  0  0  0
 10 11  1  0  0  0  0
 10 31  1  0  0  0  0
 10 32  1  0  0  0  0
 11 33  1  0  0  0  0
 11 34  1  0  0  0  0
 12 13  1  0  0  0  0
 12 35  1  0  0  0  0
 12 36  1  0  0  0  0
 13 37  1  0  0  0  0
 13 38  1  0  0  0  0
 13 39  1  0  0  0  0
M  END
$$$$
