
 OpenBabel04232216483D

151151  0  0  1  0  0  0  0  0999 V2000
    0.7671   -0.4429   -0.6315 C   0  0  0  0  0  0  0  0  0  0  0  0
    2.3908   -0.3245   -0.3982 C   0  0  0  0  0  0  0  0  0  0  0  0
    3.1601    0.7064   -0.6433 C   0  0  0  0  0  0  0  0  0  0  0  0
    4.6097    1.0463   -0.6475 C   0  0  0  0  0  0  0  0  0  0  0  0
    5.6532    0.4768   -0.0760 C   0  0  0  0  0  0  0  0  0  0  0  0
    6.8977    1.1038   -0.0690 N   0  0  0  0  0  0  0  0  0  0  0  0
    7.0631    2.5635   -0.0619 C   0  0  0  0  0  0  0  0  0  0  0  0
    8.5328    2.9517   -0.0473 C   0  0  0  0  0  0  0  0  0  0  0  0
    8.6698    4.4710   -0.0494 C   0  0  0  0  0  0  0  0  0  0  0  0
   10.1381    4.8519   -0.0365 C   0  0  0  0  0  0  0  0  0  0  0  0
   10.2984    6.3607   -0.0336 C   0  0  0  0  0  0  0  0  0  0  0  0
   11.7755    6.7073   -0.0213 C   0  0  0  0  0  0  0  0  0  0  0  0
   11.9511    8.2122   -0.0171 C   0  0  0  0  0  0  0  0  0  0  0  0
   13.4276    8.5567   -0.0062 C   0  0  0  0  0  0  0  0  0  0  0  0
   13.5990   10.0632   -0.0019 C   0  0  0  0  0  0  0  0  0  0  0  0
   15.0747   10.4096    0.0065 C   0  0  0  0  0  0  0  0  0  0  0  0
   15.2487   11.9158    0.0126 C   0  0  0  0  0  0  0  0  0  0  0  0
   16.7248   12.2616    0.0194 C   0  0  0  0  0  0  0  0  0  0  0  0
   16.9012   13.7669    0.0276 C   0  0  0  0  0  0  0  0  0  0  0  0
   18.3781   14.1090    0.0326 C   0  0  0  0  0  0  0  0  0  0  0  0
   18.5483   15.6159    0.0426 C   0  0  0  0  0  0  0  0  0  0  0  0
   20.0235   15.9656    0.0455 C   0  0  0  0  0  0  0  0  0  0  0  0
   20.1986   17.4726    0.0576 C   0  0  0  0  0  0  0  0  0  0  0  0
   21.6765   17.8178    0.0604 C   0  0  0  0  0  0  0  0  0  0  0  0
   21.8617   19.3229    0.0721 C   0  0  0  0  0  0  0  0  0  0  0  0
   23.3425   19.6662    0.0767 C   0  0  0  0  0  0  0  0  0  0  0  0
   23.5095   21.1761    0.0855 C   0  0  0  0  0  0  0  0  0  0  0  0
   24.9849   21.5339    0.0870 C   0  0  0  0  0  0  0  0  0  0  0  0
   25.1578   23.0449    0.0985 C   0  0  0  0  0  0  0  0  0  0  0  0
   26.6301   23.4147    0.0994 C   0  0  0  0  0  0  0  0  0  0  0  0
   26.8021   24.9223    0.1135 C   0  0  0  0  0  0  0  0  0  0  0  0
   28.2823   25.2561    0.1102 C   0  0  0  0  0  0  0  0  0  0  0  0
   28.4608   26.7607    0.1264 C   0  0  0  0  0  0  0  0  0  0  0  0
   29.9386   27.1039    0.1233 C   0  0  0  0  0  0  0  0  0  0  0  0
   30.1183   28.6116    0.1396 C   0  0  0  0  0  0  0  0  0  0  0  0
   31.5967   28.9696    0.1366 C   0  0  0  0  0  0  0  0  0  0  0  0
   31.7735   30.4747    0.1547 C   0  0  0  0  0  0  0  0  0  0  0  0
    5.4759   -0.8596    0.5440 C   0  0  0  0  0  0  0  0  0  0  0  0
    4.4704   -1.6673    0.5123 C   0  0  0  0  0  0  0  0  0  0  0  0
    3.0641   -1.6826   -0.1183 C   0  0  3  0  0  0  0  0  0  0  0  0
    3.1158   -2.4896   -1.4476 C   0  0  0  0  0  0  0  0  0  0  0  0
    3.4914   -4.0025   -1.3662 C   0  0  3  0  0  0  0  0  0  0  0  0
    2.6073   -5.0457   -0.5096 C   0  0  0  0  0  0  0  0  0  0  0  0
    1.0860   -5.1862   -0.8907 C   0  0  0  0  0  0  0  0  0  0  0  0
   -0.0340   -6.1283   -0.3952 C   0  0  0  0  0  0  0  0  0  0  0  0
   -1.4300   -5.9497   -1.1334 C   0  0  0  0  0  0  0  0  0  0  0  0
   -2.4382   -6.8328   -0.4468 C   0  0  0  0  0  0  0  0  0  0  0  0
   -2.6117   -6.4800    1.0108 C   0  0  0  0  0  0  0  0  0  0  0  0
   -3.5963   -7.4816    1.5396 C   0  0  0  0  0  0  0  0  0  0  0  0
   -3.8595   -7.2321    3.0007 C   0  0  0  0  0  0  0  0  0  0  0  0
   -4.8613   -8.2564    3.4769 C   0  0  0  0  0  0  0  0  0  0  0  0
    3.5331   -4.5268   -2.7097 O   0  0  0  0  0  0  0  0  0  0  0  0
    4.5967   -3.7724   -3.3648 O   0  0  0  0  0  0  0  0  0  0  0  0
    4.7608   -4.1980   -4.7299 O   0  0  0  0  0  0  0  0  0  0  0  0
    3.5209   -4.0210   -5.4555 O   0  0  0  0  0  0  0  0  0  0  0  0
    3.1308   -2.6236   -5.4549 O   0  0  0  0  0  0  0  0  0  0  0  0
    0.2438    0.4712   -0.9869 H   0  0  0  0  0  0  0  0  0  0  0  0
    0.1862   -0.8357    0.2261 H   0  0  0  0  0  0  0  0  0  0  0  0
    0.5211   -1.1502   -1.4366 H   0  0  0  0  0  0  0  0  0  0  0  0
    2.7425    1.5644   -1.2010 H   0  0  0  0  0  0  0  0  0  0  0  0
    4.7957    1.9482   -1.2305 H   0  0  0  0  0  0  0  0  0  0  0  0
    7.6091    0.6314    0.4927 H   0  0  0  0  0  0  0  0  0  0  0  0
    6.5819    2.9914    0.8265 H   0  0  0  0  0  0  0  0  0  0  0  0
    6.5867    3.0090   -0.9443 H   0  0  0  0  0  0  0  0  0  0  0  0
    9.0632    2.5310   -0.9113 H   0  0  0  0  0  0  0  0  0  0  0  0
    9.0087    2.5383    0.8504 H   0  0  0  0  0  0  0  0  0  0  0  0
    8.1636    4.9037    0.8221 H   0  0  0  0  0  0  0  0  0  0  0  0
    8.1888    4.8908   -0.9411 H   0  0  0  0  0  0  0  0  0  0  0  0
   10.6357    4.4298   -0.9175 H   0  0  0  0  0  0  0  0  0  0  0  0
   10.6253    4.4242    0.8496 H   0  0  0  0  0  0  0  0  0  0  0  0
    9.8013    6.7923    0.8442 H   0  0  0  0  0  0  0  0  0  0  0  0
    9.8225    6.7947   -0.9216 H   0  0  0  0  0  0  0  0  0  0  0  0
   12.2718    6.2721   -0.8980 H   0  0  0  0  0  0  0  0  0  0  0  0
   12.2501    6.2744    0.8678 H   0  0  0  0  0  0  0  0  0  0  0  0
   11.4606    8.6426    0.8646 H   0  0  0  0  0  0  0  0  0  0  0  0
   11.4685    8.6477   -0.9007 H   0  0  0  0  0  0  0  0  0  0  0  0
   13.9233    8.1231   -0.8836 H   0  0  0  0  0  0  0  0  0  0  0  0
   13.9065    8.1237    0.8808 H   0  0  0  0  0  0  0  0  0  0  0  0
   13.1084   10.4923    0.8806 H   0  0  0  0  0  0  0  0  0  0  0  0
   13.1163   10.4994   -0.8852 H   0  0  0  0  0  0  0  0  0  0  0  0
   15.5647    9.9792   -0.8757 H   0  0  0  0  0  0  0  0  0  0  0  0
   15.5558    9.9734    0.8905 H   0  0  0  0  0  0  0  0  0  0  0  0
   14.7595   12.3451    0.8956 H   0  0  0  0  0  0  0  0  0  0  0  0
   14.7660   12.3519   -0.8707 H   0  0  0  0  0  0  0  0  0  0  0  0
   17.2136   11.8335   -0.8645 H   0  0  0  0  0  0  0  0  0  0  0  0
   17.2075   11.8245    0.9020 H   0  0  0  0  0  0  0  0  0  0  0  0
   16.4152   14.1972    0.9119 H   0  0  0  0  0  0  0  0  0  0  0  0
   16.4185   14.2067   -0.8539 H   0  0  0  0  0  0  0  0  0  0  0  0
   18.8665   13.6807   -0.8516 H   0  0  0  0  0  0  0  0  0  0  0  0
   18.8624   13.6700    0.9139 H   0  0  0  0  0  0  0  0  0  0  0  0
   18.0595   16.0406    0.9281 H   0  0  0  0  0  0  0  0  0  0  0  0
   18.0602   16.0526   -0.8375 H   0  0  0  0  0  0  0  0  0  0  0  0
   20.5091   15.5392   -0.8409 H   0  0  0  0  0  0  0  0  0  0  0  0
   20.5090   15.5250    0.9251 H   0  0  0  0  0  0  0  0  0  0  0  0
   19.7121   17.8971    0.9444 H   0  0  0  0  0  0  0  0  0  0  0  0
   19.7119   17.9114   -0.8222 H   0  0  0  0  0  0  0  0  0  0  0  0
   22.1606   17.3908   -0.8260 H   0  0  0  0  0  0  0  0  0  0  0  0
   22.1602   17.3768    0.9403 H   0  0  0  0  0  0  0  0  0  0  0  0
   21.3754   19.7511    0.9578 H   0  0  0  0  0  0  0  0  0  0  0  0
   21.3725   19.7659   -0.8047 H   0  0  0  0  0  0  0  0  0  0  0  0
   23.8431   19.2377   -0.8008 H   0  0  0  0  0  0  0  0  0  0  0  0
   23.8274   19.2265    0.9580 H   0  0  0  0  0  0  0  0  0  0  0  0
   23.0172   21.5988    0.9702 H   0  0  0  0  0  0  0  0  0  0  0  0
   23.0190   21.6114   -0.7940 H   0  0  0  0  0  0  0  0  0  0  0  0
   25.4683   21.1060   -0.8000 H   0  0  0  0  0  0  0  0  0  0  0  0
   25.4693   21.0896    0.9658 H   0  0  0  0  0  0  0  0  0  0  0  0
   24.6722   23.4644    0.9881 H   0  0  0  0  0  0  0  0  0  0  0  0
   24.6625   23.4836   -0.7762 H   0  0  0  0  0  0  0  0  0  0  0  0
   27.1330   22.9895   -0.7787 H   0  0  0  0  0  0  0  0  0  0  0  0
   27.1153   22.9923    0.9867 H   0  0  0  0  0  0  0  0  0  0  0  0
   26.3309   25.3495    1.0075 H   0  0  0  0  0  0  0  0  0  0  0  0
   26.3117   25.3731   -0.7585 H   0  0  0  0  0  0  0  0  0  0  0  0
   28.7612   24.8291   -0.7795 H   0  0  0  0  0  0  0  0  0  0  0  0
   28.7711   24.8106    0.9859 H   0  0  0  0  0  0  0  0  0  0  0  0
   27.9772   27.1831    1.0161 H   0  0  0  0  0  0  0  0  0  0  0  0
   27.9698   27.2007   -0.7504 H   0  0  0  0  0  0  0  0  0  0  0  0
   30.4160   26.6777   -0.7675 H   0  0  0  0  0  0  0  0  0  0  0  0
   30.4253   26.6571    0.9989 H   0  0  0  0  0  0  0  0  0  0  0  0
   29.6323   29.0310    1.0293 H   0  0  0  0  0  0  0  0  0  0  0  0
   29.6241   29.0509   -0.7360 H   0  0  0  0  0  0  0  0  0  0  0  0
   32.0799   28.5513   -0.7541 H   0  0  0  0  0  0  0  0  0  0  0  0
   32.0888   28.5291    1.0116 H   0  0  0  0  0  0  0  0  0  0  0  0
   31.3057   30.9293   -0.7244 H   0  0  0  0  0  0  0  0  0  0  0  0
   32.8359   30.7312    0.1527 H   0  0  0  0  0  0  0  0  0  0  0  0
   31.3145   30.9069    1.0495 H   0  0  0  0  0  0  0  0  0  0  0  0
    6.3980   -1.2034    1.0437 H   0  0  0  0  0  0  0  0  0  0  0  0
    4.6341   -2.6433    0.9988 H   0  0  0  0  0  0  0  0  0  0  0  0
    2.3916   -2.1709    0.5840 H   0  0  0  0  0  0  0  0  0  0  0  0
    3.8937   -1.9927   -2.0634 H   0  0  0  0  0  0  0  0  0  0  0  0
    2.2157   -2.3925   -2.0690 H   0  0  0  0  0  0  0  0  0  0  0  0
    4.5470   -4.0130   -1.0607 H   0  0  0  0  0  0  0  0  0  0  0  0
    2.6869   -4.7977    0.5545 H   0  0  0  0  0  0  0  0  0  0  0  0
    3.0705   -6.0274   -0.6707 H   0  0  0  0  0  0  0  0  0  0  0  0
    1.0448   -5.2132   -1.9760 H   0  0  0  0  0  0  0  0  0  0  0  0
    0.6897   -4.2922   -0.4295 H   0  0  0  0  0  0  0  0  0  0  0  0
   -0.2102   -5.8641    0.6609 H   0  0  0  0  0  0  0  0  0  0  0  0
    0.2696   -7.1769   -0.4249 H   0  0  0  0  0  0  0  0  0  0  0  0
   -1.5184   -6.3084   -2.1683 H   0  0  0  0  0  0  0  0  0  0  0  0
   -1.7889   -4.9069   -1.1684 H   0  0  0  0  0  0  0  0  0  0  0  0
   -2.0993   -7.8711   -0.5756 H   0  0  0  0  0  0  0  0  0  0  0  0
   -3.4111   -6.7335   -0.9490 H   0  0  0  0  0  0  0  0  0  0  0  0
   -2.9797   -5.4560    1.1256 H   0  0  0  0  0  0  0  0  0  0  0  0
   -1.6799   -6.5513    1.5719 H   0  0  0  0  0  0  0  0  0  0  0  0
   -3.1950   -8.4919    1.3857 H   0  0  0  0  0  0  0  0  0  0  0  0
   -4.5225   -7.4068    0.9606 H   0  0  0  0  0  0  0  0  0  0  0  0
   -4.2471   -6.2168    3.1429 H   0  0  0  0  0  0  0  0  0  0  0  0
   -2.9247   -7.3148    3.5662 H   0  0  0  0  0  0  0  0  0  0  0  0
   -5.7955   -8.1675    2.9120 H   0  0  0  0  0  0  0  0  0  0  0  0
   -5.0713   -8.1106    4.5362 H   0  0  0  0  0  0  0  0  0  0  0  0
   -4.4704   -9.2685    3.3269 H   0  0  0  0  0  0  0  0  0  0  0  0
    2.3101   -2.7570   -5.9498 H   0  0  0  0  0  0  0  0  0  0  0  0
  1  2  1  0  0  0  0
  1 57  1  0  0  0  0
  1 58  1  0  0  0  0
  1 59  1  0  0  0  0
  2  3  2  0  0  0  0
  2 40  1  0  0  0  0
  3  4  1  0  0  0  0
  3 60  1  0  0  0  0
  4  5  2  0  0  0  0
  4 61  1  0  0  0  0
  5  6  1  0  0  0  0
  5 38  1  0  0  0  0
  6  7  1  0  0  0  0
  6 62  1  0  0  0  0
  7  8  1  0  0  0  0
  7 63  1  0  0  0  0
  7 64  1  0  0  0  0
  8  9  1  0  0  0  0
  8 65  1  0  0  0  0
  8 66  1  0  0  0  0
  9 10  1  0  0  0  0
  9 67  1  0  0  0  0
  9 68  1  0  0  0  0
 10 11  1  0  0  0  0
 10 69  1  0  0  0  0
 10 70  1  0  0  0  0
 11 12  1  0  0  0  0
 11 71  1  0  0  0  0
 11 72  1  0  0  0  0
 12 13  1  0  0  0  0
 12 73  1  0  0  0  0
 12 74  1  0  0  0  0
 13 14  1  0  0  0  0
 13 75  1  0  0  0  0
 13 76  1  0  0  0  0
 14 15  1  0  0  0  0
 14 77  1  0  0  0  0
 14 78  1  0  0  0  0
 15 16  1  0  0  0  0
 15 79  1  0  0  0  0
 15 80  1  0  0  0  0
 16 17  1  0  0  0  0
 16 81  1  0  0  0  0
 16 82  1  0  0  0  0
 17 18  1  0  0  0  0
 17 83  1  0  0  0  0
 17 84  1  0  0  0  0
 18 19  1  0  0  0  0
 18 85  1  0  0  0  0
 18 86  1  0  0  0  0
 19 20  1  0  0  0  0
 19 87  1  0  0  0  0
 19 88  1  0  0  0  0
 20 21  1  0  0  0  0
 20 89  1  0  0  0  0
 20 90  1  0  0  0  0
 21 22  1  0  0  0  0
 21 91  1  0  0  0  0
 21 92  1  0  0  0  0
 22 23  1  0  0  0  0
 22 93  1  0  0  0  0
 22 94  1  0  0  0  0
 23 24  1  0  0  0  0
 23 95  1  0  0  0  0
 23 96  1  0  0  0  0
 24 25  1  0  0  0  0
 24 97  1  0  0  0  0
 24 98  1  0  0  0  0
 25 26  1  0  0  0  0
 25 99  1  0  0  0  0
 25100  1  0  0  0  0
 26 27  1  0  0  0  0
 26101  1  0  0  0  0
 26102  1  0  0  0  0
 27 28  1  0  0  0  0
 27103  1  0  0  0  0
 27104  1  0  0  0  0
 28 29  1  0  0  0  0
 28105  1  0  0  0  0
 28106  1  0  0  0  0
 29 30  1  0  0  0  0
 29107  1  0  0  0  0
 29108  1  0  0  0  0
 30 31  1  0  0  0  0
 30109  1  0  0  0  0
 30110  1  0  0  0  0
 31 32  1  0  0  0  0
 31111  1  0  0  0  0
 31112  1  0  0  0  0
 32 33  1  0  0  0  0
 32113  1  0  0  0  0
 32114  1  0  0  0  0
 33 34  1  0  0  0  0
 33115  1  0  0  0  0
 33116  1  0  0  0  0
 34 35  1  0  0  0  0
 34117  1  0  0  0  0
 34118  1  0  0  0  0
 35 36  1  0  0  0  0
 35119  1  0  0  0  0
 35120  1  0  0  0  0
 36 37  1  0  0  0  0
 36121  1  0  0  0  0
 36122  1  0  0  0  0
 37123  1  0  0  0  0
 37124  1  0  0  0  0
 37125  1  0  0  0  0
 38 39  2  0  0  0  0
 38126  1  0  0  0  0
 39 40  1  0  0  0  0
 39127  1  0  0  0  0
 40 41  1  0  0  0  0
 40128  1  0  0  0  0
 41 42  1  0  0  0  0
 41129  1  0  0  0  0
 41130  1  0  0  0  0
 42 43  1  0  0  0  0
 42 52  1  0  0  0  0
 42131  1  0  0  0  0
 43 44  1  0  0  0  0
 43132  1  0  0  0  0
 43133  1  0  0  0  0
 44 45  1  0  0  0  0
 44134  1  0  0  0  0
 44135  1  0  0  0  0
 45 46  1  0  0  0  0
 45136  1  0  0  0  0
 45137  1  0  0  0  0
 46 47  1  0  0  0  0
 46138  1  0  0  0  0
 46139  1  0  0  0  0
 47 48  1  0  0  0  0
 47140  1  0  0  0  0
 47141  1  0  0  0  0
 48 49  1  0  0  0  0
 48142  1  0  0  0  0
 48143  1  0  0  0  0
 49 50  1  0  0  0  0
 49144  1  0  0  0  0
 49145  1  0  0  0  0
 50 51  1  0  0  0  0
 50146  1  0  0  0  0
 50147  1  0  0  0  0
 51148  1  0  0  0  0
 51149  1  0  0  0  0
 51150  1  0  0  0  0
 52 53  1  0  0  0  0
 53 54  1  0  0  0  0
 54 55  1  0  0  0  0
 55 56  1  0  0  0  0
 56151  1  0  0  0  0
M  END
$$$$
