
 OpenBabel04232216523D

 29 29  0  0  0  0  0  0  0  0999 V2000
    2.8737   -2.4941    0.8513 C   0  0  0  0  0  0  0  0  0  0  0  0
    3.2202   -1.1260    1.4240 C   0  0  0  0  0  0  0  0  0  0  0  0
    4.6540   -0.5776    1.1626 C   0  0  0  0  0  0  0  0  0  0  0  0
    5.8387   -1.0700    1.9894 C   0  0  0  0  0  0  0  0  0  0  0  0
    5.4954   -1.6124    3.2848 C   0  0  0  0  0  0  0  0  0  0  0  0
    6.1177   -2.6681    3.8324 C   0  0  0  0  0  0  0  0  0  0  0  0
    6.5705   -2.3644    5.1673 C   0  0  0  0  0  0  0  0  0  0  0  0
    7.8521   -2.0069    5.3725 C   0  0  0  0  0  0  0  0  0  0  0  0
    9.0287   -2.2769    4.4726 C   0  0  0  0  0  0  0  0  0  0  0  0
    8.8894   -1.9896    2.9802 C   0  0  0  0  0  0  0  0  0  0  0  0
    8.3468   -0.8259    2.5477 C   0  0  0  0  0  0  0  0  0  0  0  0
    9.1936    0.2628    2.4182 O   0  0  0  0  0  0  0  0  0  0  0  0
    7.1317   -0.7017    1.7007 C   0  0  0  0  0  0  0  0  0  0  0  0
    1.8159   -2.7121    1.0600 H   0  0  0  0  0  0  0  0  0  0  0  0
    3.4641   -3.2971    1.2975 H   0  0  0  0  0  0  0  0  0  0  0  0
    2.9909   -2.5187   -0.2360 H   0  0  0  0  0  0  0  0  0  0  0  0
    2.9873   -1.1257    2.4955 H   0  0  0  0  0  0  0  0  0  0  0  0
    2.5154   -0.4135    0.9748 H   0  0  0  0  0  0  0  0  0  0  0  0
    4.5751    0.4987    1.3939 H   0  0  0  0  0  0  0  0  0  0  0  0
    4.8808   -0.6466    0.0951 H   0  0  0  0  0  0  0  0  0  0  0  0
    4.9853   -0.8926    3.9148 H   0  0  0  0  0  0  0  0  0  0  0  0
    6.7059   -3.3453    3.2157 H   0  0  0  0  0  0  0  0  0  0  0  0
    5.8152   -2.0970    5.8986 H   0  0  0  0  0  0  0  0  0  0  0  0
    8.0735   -1.4402    6.2720 H   0  0  0  0  0  0  0  0  0  0  0  0
    9.3029   -3.3352    4.6041 H   0  0  0  0  0  0  0  0  0  0  0  0
    9.8970   -1.7115    4.8558 H   0  0  0  0  0  0  0  0  0  0  0  0
    9.9150   -2.1706    2.6184 H   0  0  0  0  0  0  0  0  0  0  0  0
    9.9497    0.1140    3.0235 H   0  0  0  0  0  0  0  0  0  0  0  0
    7.3121   -0.1014    0.8229 H   0  0  0  0  0  0  0  0  0  0  0  0
  1  2  1  0  0  0  0
  1 14  1  0  0  0  0
  1 15  1  0  0  0  0
  1 16  1  0  0  0  0
  2  3  1  0  0  0  0
  2 17  1  0  0  0  0
  2 18  1  0  0  0  0
  3  4  1  0  0  0  0
  3 19  1  0  0  0  0
  3 20  1  0  0  0  0
  4  5  1  0  0  0  0
  4 13  2  3  0  0  0
  5  6  2  3  0  0  0
  5 21  1  0  0  0  0
  6  7  1  0  0  0  0
  6 22  1  0  0  0  0
  7  8  2  3  0  0  0
  7 23  1  0  0  0  0
  8  9  1  0  0  0  0
  8 24  1  0  0  0  0
  9 10  1  0  0  0  0
  9 25  1  0  0  0  0
  9 26  1  0  0  0  0
 10 11  2  3  0  0  0
 10 27  1  0  0  0  0
 11 12  1  0  0  0  0
 11 13  1  0  0  0  0
 12 28  1  0  0  0  0
 13 29  1  0  0  0  0
M  END
$$$$
