
 OpenBabel04232216453D

 40 42  0  0  0  0  0  0  0  0999 V2000
   21.5271   -8.4872   -0.1327 C   0  0  0  0  0  0  0  0  0  0  0  0
   20.0299   -8.3726   -0.0816 C   0  0  0  0  0  0  0  0  0  0  0  0
   19.2385   -9.5116   -0.0441 C   0  0  0  0  0  0  0  0  0  0  0  0
   17.8394   -9.3783   -0.0127 C   0  0  0  0  0  0  0  0  0  0  0  0
   17.0043  -10.6305    0.0248 C   0  0  0  0  0  0  0  0  0  0  0  0
   17.2586   -8.0928   -0.0269 C   0  0  0  0  0  0  0  0  0  0  0  0
   15.7495   -7.9470   -0.0107 C   0  0  0  0  0  0  0  0  0  0  0  0
   15.0731   -6.5593   -0.0145 C   0  0  0  0  0  0  0  0  0  0  0  0
   13.5281   -6.7257   -0.0321 C   0  0  0  0  0  0  0  0  0  0  0  0
   12.6947   -5.4626    0.2686 C   0  0  0  0  0  0  0  0  0  0  0  0
   11.3487   -5.6312    0.4864 N   0  0  0  0  0  0  0  0  0  0  0  0
   10.7212   -6.0277   -0.5476 N   0  0  0  0  0  0  0  0  0  0  0  0
    9.4191   -5.5674   -0.4347 N   0  0  0  0  0  0  0  0  0  0  0  0
    8.8357   -5.0772   -1.5449 N   0  0  0  0  0  0  0  0  0  0  0  0
    9.2364   -4.2214   -0.6718 C   0  0  0  0  0  0  0  0  0  0  0  0
   10.3017   -3.2061   -0.7380 C   0  0  0  0  0  0  0  0  0  0  0  0
   10.5154   -2.5001    0.3594 C   0  0  0  0  0  0  0  0  0  0  0  0
   11.8661   -2.2958    0.8377 C   0  0  0  0  0  0  0  0  0  0  0  0
   12.9481   -3.0995    0.8391 C   0  0  0  0  0  0  0  0  0  0  0  0
   13.3347   -4.3382    0.3875 N   0  0  0  0  0  0  0  0  0  0  0  0
   18.1389   -7.0181   -0.0543 C   0  0  0  0  0  0  0  0  0  0  0  0
   19.4999   -7.1289   -0.0832 N   0  0  0  0  0  0  0  0  0  0  0  0
   21.8565   -9.5323   -0.1192 H   0  0  0  0  0  0  0  0  0  0  0  0
   21.9735   -7.9831    0.7298 H   0  0  0  0  0  0  0  0  0  0  0  0
   21.9055   -8.0283   -1.0513 H   0  0  0  0  0  0  0  0  0  0  0  0
   19.7007  -10.4947   -0.0408 H   0  0  0  0  0  0  0  0  0  0  0  0
   17.6248  -11.5334    0.0324 H   0  0  0  0  0  0  0  0  0  0  0  0
   16.3605  -10.6806   -0.8583 H   0  0  0  0  0  0  0  0  0  0  0  0
   16.3892  -10.6509    0.9297 H   0  0  0  0  0  0  0  0  0  0  0  0
   15.3977   -8.4684    0.8877 H   0  0  0  0  0  0  0  0  0  0  0  0
   15.3704   -8.4925   -0.8827 H   0  0  0  0  0  0  0  0  0  0  0  0
   15.3935   -5.9803   -0.8900 H   0  0  0  0  0  0  0  0  0  0  0  0
   15.3873   -5.9947    0.8722 H   0  0  0  0  0  0  0  0  0  0  0  0
   13.2543   -7.4576    0.7377 H   0  0  0  0  0  0  0  0  0  0  0  0
   13.2191   -7.1429   -0.9967 H   0  0  0  0  0  0  0  0  0  0  0  0
   11.1457   -3.5690   -1.3306 H   0  0  0  0  0  0  0  0  0  0  0  0
    9.7140   -2.1023    0.9803 H   0  0  0  0  0  0  0  0  0  0  0  0
   12.0000   -1.3162    1.3096 H   0  0  0  0  0  0  0  0  0  0  0  0
   13.8142   -2.6175    1.2974 H   0  0  0  0  0  0  0  0  0  0  0  0
   17.7943   -5.9899   -0.0573 H   0  0  0  0  0  0  0  0  0  0  0  0
  1  2  1  0  0  0  0
  1 23  1  0  0  0  0
  1 24  1  0  0  0  0
  1 25  1  0  0  0  0
  2  3  1  0  0  0  0
  2 22  2  0  0  0  0
  3  4  2  0  0  0  0
  3 26  1  0  0  0  0
  4  5  1  0  0  0  0
  4  6  1  0  0  0  0
  5 27  1  0  0  0  0
  5 28  1  0  0  0  0
  5 29  1  0  0  0  0
  6  7  1  0  0  0  0
  6 21  2  0  0  0  0
  7  8  1  0  0  0  0
  7 30  1  0  0  0  0
  7 31  1  0  0  0  0
  8  9  1  0  0  0  0
  8 32  1  0  0  0  0
  8 33  1  0  0  0  0
  9 10  1  0  0  0  0
  9 34  1  0  0  0  0
  9 35  1  0  0  0  0
 10 11  1  0  0  0  0
 10 20  2  3  0  0  0
 11 12  2  3  0  0  0
 12 13  1  0  0  0  0
 13 14  1  0  0  0  0
 13 15  1  0  0  0  0
 14 15  2  0  0  0  0
 15 16  1  0  0  0  0
 16 17  2  3  0  0  0
 16 36  1  0  0  0  0
 17 18  1  0  0  0  0
 17 37  1  0  0  0  0
 18 19  2  3  0  0  0
 18 38  1  0  0  0  0
 19 20  1  0  0  0  0
 19 39  1  0  0  0  0
 21 22  1  0  0  0  0
 21 40  1  0  0  0  0
M  END
$$$$
