
 OpenBabel04232216513D

 32 32  0  0  0  0  0  0  0  0999 V2000
    3.2029    0.4571   -1.3647 C   0  0  0  0  0  0  0  0  0  0  0  0
    2.3550    0.1854   -0.1289 C   0  0  0  0  0  0  0  0  0  0  0  0
    3.0080   -0.8537    0.7708 C   0  0  0  0  0  0  0  0  0  0  0  0
    2.6683   -2.1370    0.5671 C   0  0  0  0  0  0  0  0  0  0  0  0
    3.0882   -3.4000    1.1253 C   0  0  0  0  0  0  0  0  0  0  0  0
    3.5493   -3.7301    2.3456 C   0  0  0  0  0  0  0  0  0  0  0  0
    3.8496   -5.1671    2.7623 C   0  0  0  0  0  0  0  0  0  0  0  0
    3.5971   -6.2754    1.7454 C   0  0  0  0  0  0  0  0  0  0  0  0
    3.8277   -2.7275    3.4315 C   0  0  0  0  0  0  0  0  0  0  0  0
    5.1722   -2.0317    3.2391 C   0  0  0  0  0  0  0  0  0  0  0  0
    5.2522   -1.0206    2.0956 C   0  0  0  0  0  0  0  0  0  0  0  0
    3.9701   -0.2534    1.7851 C   0  0  0  0  0  0  0  0  0  0  0  0
    2.7047    1.1800   -2.0200 H   0  0  0  0  0  0  0  0  0  0  0  0
    3.3646   -0.4605   -1.9457 H   0  0  0  0  0  0  0  0  0  0  0  0
    4.1849    0.8631   -1.0994 H   0  0  0  0  0  0  0  0  0  0  0  0
    1.3609   -0.1509   -0.4518 H   0  0  0  0  0  0  0  0  0  0  0  0
    2.1838    1.1191    0.4221 H   0  0  0  0  0  0  0  0  0  0  0  0
    1.9502   -2.3133   -0.2414 H   0  0  0  0  0  0  0  0  0  0  0  0
    2.9198   -4.2045    0.4100 H   0  0  0  0  0  0  0  0  0  0  0  0
    3.2476   -5.3913    3.6505 H   0  0  0  0  0  0  0  0  0  0  0  0
    4.9025   -5.2229    3.0676 H   0  0  0  0  0  0  0  0  0  0  0  0
    2.5442   -6.3135    1.4500 H   0  0  0  0  0  0  0  0  0  0  0  0
    3.8535   -7.2464    2.1821 H   0  0  0  0  0  0  0  0  0  0  0  0
    4.2110   -6.1425    0.8489 H   0  0  0  0  0  0  0  0  0  0  0  0
    3.8496   -3.2445    4.4009 H   0  0  0  0  0  0  0  0  0  0  0  0
    3.0028   -2.0139    3.5283 H   0  0  0  0  0  0  0  0  0  0  0  0
    5.9645   -2.7791    3.0903 H   0  0  0  0  0  0  0  0  0  0  0  0
    5.4249   -1.5188    4.1759 H   0  0  0  0  0  0  0  0  0  0  0  0
    5.6318   -1.5004    1.1864 H   0  0  0  0  0  0  0  0  0  0  0  0
    6.0187   -0.2881    2.3806 H   0  0  0  0  0  0  0  0  0  0  0  0
    4.3002    0.7177    1.3814 H   0  0  0  0  0  0  0  0  0  0  0  0
    3.4222    0.0052    2.7017 H   0  0  0  0  0  0  0  0  0  0  0  0
  1  2  1  0  0  0  0
  1 13  1  0  0  0  0
  1 14  1  0  0  0  0
  1 15  1  0  0  0  0
  2  3  1  0  0  0  0
  2 16  1  0  0  0  0
  2 17  1  0  0  0  0
  3  4  2  0  0  0  0
  3 12  1  0  0  0  0
  4  5  1  0  0  0  0
  4 18  1  0  0  0  0
  5  6  2  0  0  0  0
  5 19  1  0  0  0  0
  6  7  1  0  0  0  0
  6  9  1  0  0  0  0
  7  8  1  0  0  0  0
  7 20  1  0  0  0  0
  7 21  1  0  0  0  0
  8 22  1  0  0  0  0
  8 23  1  0  0  0  0
  8 24  1  0  0  0  0
  9 10  1  0  0  0  0
  9 25  1  0  0  0  0
  9 26  1  0  0  0  0
 10 11  1  0  0  0  0
 10 27  1  0  0  0  0
 10 28  1  0  0  0  0
 11 12  1  0  0  0  0
 11 29  1  0  0  0  0
 11 30  1  0  0  0  0
 12 31  1  0  0  0  0
 12 32  1  0  0  0  0
M  END
$$$$
