
 OpenBabel04232216483D

109109  0  0  0  0  0  0  0  0999 V2000
    1.4063    7.7321   -0.9832 C   0  0  0  0  0  0  0  0  0  0  0  0
    2.4808    8.3756   -0.1607 C   0  0  0  0  0  0  0  0  0  0  0  0
    2.1266    8.6938    1.2166 C   0  0  0  0  0  0  0  0  0  0  0  0
    2.6234    8.0647    2.2759 C   0  0  0  0  0  0  0  0  0  0  0  0
    3.5986    6.9793    2.2005 C   0  0  0  0  0  0  0  0  0  0  0  0
    3.0500    5.6105    2.5304 C   0  0  0  0  0  0  0  0  0  0  0  0
    3.1718    5.2739    4.0035 C   0  0  0  0  0  0  0  0  0  0  0  0
    2.6071    3.8994    4.3475 C   0  0  0  0  0  0  0  0  0  0  0  0
    2.7778    3.6513    5.8417 C   0  0  0  0  0  0  0  0  0  0  0  0
    2.0331    4.7078    6.6413 C   0  0  0  0  0  0  0  0  0  0  0  0
    2.2109    4.4745    8.1242 C   0  0  0  0  0  0  0  0  0  0  0  0
    1.4649    5.5455    8.8949 C   0  0  0  0  0  0  0  0  0  0  0  0
    1.6278    5.3192   10.3840 C   0  0  0  0  0  0  0  0  0  0  0  0
    0.8756    6.3924   11.1472 C   0  0  0  0  0  0  0  0  0  0  0  0
    1.0371    6.1708   12.6380 C   0  0  0  0  0  0  0  0  0  0  0  0
    0.2835    7.2427   13.4011 C   0  0  0  0  0  0  0  0  0  0  0  0
    0.4444    7.0186   14.8921 C   0  0  0  0  0  0  0  0  0  0  0  0
   -0.3087    8.0895   15.6569 C   0  0  0  0  0  0  0  0  0  0  0  0
   -0.1485    7.8639   17.1478 C   0  0  0  0  0  0  0  0  0  0  0  0
   -0.9034    8.9338   17.9130 C   0  0  0  0  0  0  0  0  0  0  0  0
   -0.7419    8.7100   19.4042 C   0  0  0  0  0  0  0  0  0  0  0  0
   -1.4966    9.7799   20.1698 C   0  0  0  0  0  0  0  0  0  0  0  0
   -1.3351    9.5559   21.6612 C   0  0  0  0  0  0  0  0  0  0  0  0
   -2.0896   10.6252   22.4281 C   0  0  0  0  0  0  0  0  0  0  0  0
   -1.9276   10.4006   23.9196 C   0  0  0  0  0  0  0  0  0  0  0  0
   -2.6820   11.4699   24.6871 C   0  0  0  0  0  0  0  0  0  0  0  0
   -2.5205   11.2459   26.1791 C   0  0  0  0  0  0  0  0  0  0  0  0
   -3.2770   12.3145   26.9467 C   0  0  0  0  0  0  0  0  0  0  0  0
   -3.1153   12.0939   28.4401 C   0  0  0  0  0  0  0  0  0  0  0  0
   -3.8723   13.1633   29.2089 C   0  0  0  0  0  0  0  0  0  0  0  0
   -3.7122   12.9448   30.7045 C   0  0  0  0  0  0  0  0  0  0  0  0
   -4.4671   14.0148   31.4787 C   0  0  0  0  0  0  0  0  0  0  0  0
   -4.3065   13.7958   32.9767 C   0  0  0  0  0  0  0  0  0  0  0  0
   -5.0572   14.8633   33.7623 C   0  0  0  0  0  0  0  0  0  0  0  0
   -4.8979   14.6461   35.2554 C   0  0  0  0  0  0  0  0  0  0  0  0
    4.8477    7.1918    1.7434 C   0  0  0  0  0  0  0  0  0  0  0  0
    5.3457    8.4530    1.2310 C   0  0  0  0  0  0  0  0  0  0  0  0
    4.8469    9.0640    0.1415 C   0  0  0  0  0  0  0  0  0  0  0  0
    3.7321    8.5621   -0.6371 C   0  0  0  0  0  0  0  0  0  0  0  0
    0.4490    7.6964   -0.4492 H   0  0  0  0  0  0  0  0  0  0  0  0
    1.6816    6.6968   -1.2154 H   0  0  0  0  0  0  0  0  0  0  0  0
    1.2462    8.2735   -1.9196 H   0  0  0  0  0  0  0  0  0  0  0  0
    1.4133    9.5064    1.3498 H   0  0  0  0  0  0  0  0  0  0  0  0
    2.3182    8.3518    3.2803 H   0  0  0  0  0  0  0  0  0  0  0  0
    3.5881    4.8484    1.9558 H   0  0  0  0  0  0  0  0  0  0  0  0
    1.9978    5.5443    2.2224 H   0  0  0  0  0  0  0  0  0  0  0  0
    2.6339    6.0379    4.5706 H   0  0  0  0  0  0  0  0  0  0  0  0
    4.2219    5.3084    4.3157 H   0  0  0  0  0  0  0  0  0  0  0  0
    3.1284    3.1196    3.7810 H   0  0  0  0  0  0  0  0  0  0  0  0
    1.5433    3.8465    4.0808 H   0  0  0  0  0  0  0  0  0  0  0  0
    3.8436    3.6765    6.1033 H   0  0  0  0  0  0  0  0  0  0  0  0
    2.4016    2.6565    6.1060 H   0  0  0  0  0  0  0  0  0  0  0  0
    0.9692    4.6963    6.3740 H   0  0  0  0  0  0  0  0  0  0  0  0
    2.4098    5.7090    6.4111 H   0  0  0  0  0  0  0  0  0  0  0  0
    3.2767    4.4985    8.3819 H   0  0  0  0  0  0  0  0  0  0  0  0
    1.8309    3.4850    8.3897 H   0  0  0  0  0  0  0  0  0  0  0  0
    0.4012    5.5247    8.6276 H   0  0  0  0  0  0  0  0  0  0  0  0
    1.8476    6.5379    8.6235 H   0  0  0  0  0  0  0  0  0  0  0  0
    2.6908    5.3426   10.6534 H   0  0  0  0  0  0  0  0  0  0  0  0
    1.2451    4.3278   10.6562 H   0  0  0  0  0  0  0  0  0  0  0  0
   -0.1876    6.3675   10.8780 H   0  0  0  0  0  0  0  0  0  0  0  0
    1.2562    7.3841   10.8725 H   0  0  0  0  0  0  0  0  0  0  0  0
    2.1001    6.1968   12.9075 H   0  0  0  0  0  0  0  0  0  0  0  0
    0.6567    5.1790   12.9119 H   0  0  0  0  0  0  0  0  0  0  0  0
   -0.7795    7.2174   13.1312 H   0  0  0  0  0  0  0  0  0  0  0  0
    0.6642    8.2346   13.1282 H   0  0  0  0  0  0  0  0  0  0  0  0
    1.5075    7.0438   15.1615 H   0  0  0  0  0  0  0  0  0  0  0  0
    0.0639    6.0264   15.1644 H   0  0  0  0  0  0  0  0  0  0  0  0
   -1.3716    8.0648   15.3866 H   0  0  0  0  0  0  0  0  0  0  0  0
    0.0725    9.0815   15.3852 H   0  0  0  0  0  0  0  0  0  0  0  0
    0.9144    7.8897   17.4181 H   0  0  0  0  0  0  0  0  0  0  0  0
   -0.5284    6.8712   17.4190 H   0  0  0  0  0  0  0  0  0  0  0  0
   -1.9664    8.9067   17.6433 H   0  0  0  0  0  0  0  0  0  0  0  0
   -0.5243    9.9264   17.6403 H   0  0  0  0  0  0  0  0  0  0  0  0
    0.3212    8.7371   19.6733 H   0  0  0  0  0  0  0  0  0  0  0  0
   -1.1204    7.7169   19.6765 H   0  0  0  0  0  0  0  0  0  0  0  0
   -2.5596    9.7540   19.8998 H   0  0  0  0  0  0  0  0  0  0  0  0
   -1.1167   10.7723   19.8975 H   0  0  0  0  0  0  0  0  0  0  0  0
   -0.2719    9.5836   21.9298 H   0  0  0  0  0  0  0  0  0  0  0  0
   -1.7129    8.5627   21.9336 H   0  0  0  0  0  0  0  0  0  0  0  0
   -3.1528   10.5991   22.1590 H   0  0  0  0  0  0  0  0  0  0  0  0
   -1.7102   11.6179   22.1561 H   0  0  0  0  0  0  0  0  0  0  0  0
   -0.8644   10.4269   24.1883 H   0  0  0  0  0  0  0  0  0  0  0  0
   -2.3065    9.4075   24.1913 H   0  0  0  0  0  0  0  0  0  0  0  0
   -3.7450   11.4430   24.4178 H   0  0  0  0  0  0  0  0  0  0  0  0
   -2.3032   12.4628   24.4147 H   0  0  0  0  0  0  0  0  0  0  0  0
   -1.4573   11.2737   26.4480 H   0  0  0  0  0  0  0  0  0  0  0  0
   -2.8980   10.2524   26.4505 H   0  0  0  0  0  0  0  0  0  0  0  0
   -4.3399   12.2849   26.6773 H   0  0  0  0  0  0  0  0  0  0  0  0
   -2.9004   13.3075   26.6724 H   0  0  0  0  0  0  0  0  0  0  0  0
   -2.0519   12.1228   28.7076 H   0  0  0  0  0  0  0  0  0  0  0  0
   -3.4915   11.1002   28.7124 H   0  0  0  0  0  0  0  0  0  0  0  0
   -4.9351   13.1335   28.9383 H   0  0  0  0  0  0  0  0  0  0  0  0
   -3.4953   14.1561   28.9334 H   0  0  0  0  0  0  0  0  0  0  0  0
   -2.6483   12.9715   30.9706 H   0  0  0  0  0  0  0  0  0  0  0  0
   -4.0892   11.9511   30.9757 H   0  0  0  0  0  0  0  0  0  0  0  0
   -5.5298   13.9864   31.2085 H   0  0  0  0  0  0  0  0  0  0  0  0
   -4.0887   15.0068   31.2033 H   0  0  0  0  0  0  0  0  0  0  0  0
   -3.2417   13.8193   33.2399 H   0  0  0  0  0  0  0  0  0  0  0  0
   -4.6837   12.8012   33.2455 H   0  0  0  0  0  0  0  0  0  0  0  0
   -6.1216   14.8389   33.5006 H   0  0  0  0  0  0  0  0  0  0  0  0
   -4.6794   15.8572   33.4950 H   0  0  0  0  0  0  0  0  0  0  0  0
   -5.2926   13.6684   35.5509 H   0  0  0  0  0  0  0  0  0  0  0  0
   -5.4399   15.4168   35.8103 H   0  0  0  0  0  0  0  0  0  0  0  0
   -3.8430   14.6919   35.5452 H   0  0  0  0  0  0  0  0  0  0  0  0
    5.5765    6.3870    1.6809 H   0  0  0  0  0  0  0  0  0  0  0  0
    6.2129    8.8679    1.7346 H   0  0  0  0  0  0  0  0  0  0  0  0
    5.3208    9.9704   -0.2225 H   0  0  0  0  0  0  0  0  0  0  0  0
    3.9713    8.2925   -1.6607 H   0  0  0  0  0  0  0  0  0  0  0  0
  1  2  1  0  0  0  0
  1 40  1  0  0  0  0
  1 41  1  0  0  0  0
  1 42  1  0  0  0  0
  2  3  1  0  0  0  0
  2 39  2  0  0  0  0
  3  4  2  0  0  0  0
  3 43  1  0  0  0  0
  4  5  1  0  0  0  0
  4 44  1  0  0  0  0
  5  6  1  0  0  0  0
  5 36  2  0  0  0  0
  6  7  1  0  0  0  0
  6 45  1  0  0  0  0
  6 46  1  0  0  0  0
  7  8  1  0  0  0  0
  7 47  1  0  0  0  0
  7 48  1  0  0  0  0
  8  9  1  0  0  0  0
  8 49  1  0  0  0  0
  8 50  1  0  0  0  0
  9 10  1  0  0  0  0
  9 51  1  0  0  0  0
  9 52  1  0  0  0  0
 10 11  1  0  0  0  0
 10 53  1  0  0  0  0
 10 54  1  0  0  0  0
 11 12  1  0  0  0  0
 11 55  1  0  0  0  0
 11 56  1  0  0  0  0
 12 13  1  0  0  0  0
 12 57  1  0  0  0  0
 12 58  1  0  0  0  0
 13 14  1  0  0  0  0
 13 59  1  0  0  0  0
 13 60  1  0  0  0  0
 14 15  1  0  0  0  0
 14 61  1  0  0  0  0
 14 62  1  0  0  0  0
 15 16  1  0  0  0  0
 15 63  1  0  0  0  0
 15 64  1  0  0  0  0
 16 17  1  0  0  0  0
 16 65  1  0  0  0  0
 16 66  1  0  0  0  0
 17 18  1  0  0  0  0
 17 67  1  0  0  0  0
 17 68  1  0  0  0  0
 18 19  1  0  0  0  0
 18 69  1  0  0  0  0
 18 70  1  0  0  0  0
 19 20  1  0  0  0  0
 19 71  1  0  0  0  0
 19 72  1  0  0  0  0
 20 21  1  0  0  0  0
 20 73  1  0  0  0  0
 20 74  1  0  0  0  0
 21 22  1  0  0  0  0
 21 75  1  0  0  0  0
 21 76  1  0  0  0  0
 22 23  1  0  0  0  0
 22 77  1  0  0  0  0
 22 78  1  0  0  0  0
 23 24  1  0  0  0  0
 23 79  1  0  0  0  0
 23 80  1  0  0  0  0
 24 25  1  0  0  0  0
 24 81  1  0  0  0  0
 24 82  1  0  0  0  0
 25 26  1  0  0  0  0
 25 83  1  0  0  0  0
 25 84  1  0  0  0  0
 26 27  1  0  0  0  0
 26 85  1  0  0  0  0
 26 86  1  0  0  0  0
 27 28  1  0  0  0  0
 27 87  1  0  0  0  0
 27 88  1  0  0  0  0
 28 29  1  0  0  0  0
 28 89  1  0  0  0  0
 28 90  1  0  0  0  0
 29 30  1  0  0  0  0
 29 91  1  0  0  0  0
 29 92  1  0  0  0  0
 30 31  1  0  0  0  0
 30 93  1  0  0  0  0
 30 94  1  0  0  0  0
 31 32  1  0  0  0  0
 31 95  1  0  0  0  0
 31 96  1  0  0  0  0
 32 33  1  0  0  0  0
 32 97  1  0  0  0  0
 32 98  1  0  0  0  0
 33 34  1  0  0  0  0
 33 99  1  0  0  0  0
 33100  1  0  0  0  0
 34 35  1  0  0  0  0
 34101  1  0  0  0  0
 34102  1  0  0  0  0
 35103  1  0  0  0  0
 35104  1  0  0  0  0
 35105  1  0  0  0  0
 36 37  1  0  0  0  0
 36106  1  0  0  0  0
 37 38  2  0  0  0  0
 37107  1  0  0  0  0
 38 39  1  0  0  0  0
 38108  1  0  0  0  0
 39109  1  0  0  0  0
M  END
$$$$
