
 OpenBabel04232216433D

 41 43  0  0  0  0  0  0  0  0999 V2000
    7.4325   -2.0854    0.0835 C   0  0  0  0  0  0  0  0  0  0  0  0
    8.6894   -1.9180   -0.7589 C   0  0  0  0  0  0  0  0  0  0  0  0
    9.2641   -2.8548   -1.5886 C   0  0  0  0  0  0  0  0  0  0  0  0
   10.6920   -3.5591   -1.5664 C   0  0  0  0  0  0  0  0  0  0  0  0
   11.3273   -4.1947   -0.5123 C   0  0  0  0  0  0  0  0  0  0  0  0
   10.4519   -4.0869    0.6296 C   0  0  0  0  0  0  0  0  0  0  0  0
    9.1419   -4.4334    0.7810 C   0  0  0  0  0  0  0  0  0  0  0  0
    8.0762   -5.3342    0.1418 C   0  0  0  0  0  0  0  0  0  0  0  0
    8.4191   -3.6432    1.7693 C   0  0  0  0  0  0  0  0  0  0  0  0
    8.6367   -4.0361    3.0041 C   0  0  0  0  0  0  0  0  0  0  0  0
    9.9715   -4.4560    3.5057 C   0  0  0  0  0  0  0  0  0  0  0  0
   10.6475   -5.5767    3.1984 C   0  0  0  0  0  0  0  0  0  0  0  0
   11.9110   -5.8611    3.6745 N   0  0  0  0  0  0  0  0  0  0  0  0
   12.3963   -6.9714    3.2132 C   0  0  0  0  0  0  0  0  0  0  0  0
   13.6037   -7.4676    3.5965 N   0  0  0  0  0  0  0  0  0  0  0  0
   14.4977   -7.6604    2.6748 C   0  0  0  0  0  0  0  0  0  0  0  0
   14.4700   -7.2570    1.3509 N   0  0  0  0  0  0  0  0  0  0  0  0
   13.3959   -6.6970    0.9732 N   0  0  0  0  0  0  0  0  0  0  0  0
   13.5027   -5.3511    0.7058 C   0  0  0  0  0  0  0  0  0  0  0  0
   14.6750   -4.5974    0.8876 C   0  0  0  0  0  0  0  0  0  0  0  0
   15.0445   -4.4180   -0.4653 C   0  0  0  0  0  0  0  0  0  0  0  0
   13.8983   -4.5441   -1.2180 C   0  0  0  0  0  0  0  0  0  0  0  0
   12.7796   -4.6803   -0.3594 N   0  0  0  0  0  0  0  0  0  0  0  0
    7.3239   -2.7807    1.2690 C   0  0  0  0  0  0  0  0  0  0  0  0
    6.5490   -1.5091   -0.2160 H   0  0  0  0  0  0  0  0  0  0  0  0
    8.4266   -0.9855   -1.2996 H   0  0  0  0  0  0  0  0  0  0  0  0
    8.5624   -3.6013   -1.9578 H   0  0  0  0  0  0  0  0  0  0  0  0
   11.1195   -3.6375   -2.5575 H   0  0  0  0  0  0  0  0  0  0  0  0
   10.8342   -3.2931    1.2918 H   0  0  0  0  0  0  0  0  0  0  0  0
    7.1925   -4.7755   -0.2224 H   0  0  0  0  0  0  0  0  0  0  0  0
    7.6470   -5.9692    0.9348 H   0  0  0  0  0  0  0  0  0  0  0  0
    8.3945   -5.9662   -0.6786 H   0  0  0  0  0  0  0  0  0  0  0  0
    7.8838   -3.9286    3.7862 H   0  0  0  0  0  0  0  0  0  0  0  0
   10.5040   -3.6872    4.0592 H   0  0  0  0  0  0  0  0  0  0  0  0
   10.1822   -6.2859    2.5148 H   0  0  0  0  0  0  0  0  0  0  0  0
   11.8471   -7.5768    2.4628 H   0  0  0  0  0  0  0  0  0  0  0  0
   15.4225   -8.1660    3.0179 H   0  0  0  0  0  0  0  0  0  0  0  0
   15.4054   -4.7387    1.6963 H   0  0  0  0  0  0  0  0  0  0  0  0
   16.0864   -4.4165   -0.8192 H   0  0  0  0  0  0  0  0  0  0  0  0
   13.7559   -4.6742   -2.2916 H   0  0  0  0  0  0  0  0  0  0  0  0
    6.3995   -2.7548    1.8308 H   0  0  0  0  0  0  0  0  0  0  0  0
  1  2  1  0  0  0  0
  1 24  2  3  0  0  0
  1 25  1  0  0  0  0
  2  3  2  3  0  0  0
  2 26  1  0  0  0  0
  3  4  1  0  0  0  0
  3 27  1  0  0  0  0
  4  5  2  3  0  0  0
  4 28  1  0  0  0  0
  5  6  1  0  0  0  0
  5 23  1  0  0  0  0
  6  7  2  3  0  0  0
  6 29  1  0  0  0  0
  7  8  1  0  0  0  0
  7  9  1  0  0  0  0
  8 30  1  0  0  0  0
  8 31  1  0  0  0  0
  8 32  1  0  0  0  0
  9 10  2  3  0  0  0
  9 24  1  0  0  0  0
 10 11  1  0  0  0  0
 10 33  1  0  0  0  0
 11 12  2  3  0  0  0
 11 34  1  0  0  0  0
 12 13  1  0  0  0  0
 12 35  1  0  0  0  0
 13 14  2  3  0  0  0
 14 15  1  0  0  0  0
 14 36  1  0  0  0  0
 15 16  2  3  0  0  0
 16 17  1  0  0  0  0
 16 37  1  0  0  0  0
 17 18  2  3  0  0  0
 18 19  1  0  0  0  0
 19 20  2  0  0  0  0
 19 23  1  0  0  0  0
 20 21  1  0  0  0  0
 20 38  1  0  0  0  0
 21 22  2  0  0  0  0
 21 39  1  0  0  0  0
 22 23  1  0  0  0  0
 22 40  1  0  0  0  0
 24 41  1  0  0  0  0
M  END
$$$$
