
 OpenBabel04232216403D

238237  0  0  0  0  0  0  0  0999 V2000
    1.5398    0.7245   -0.9874 C   0  0  0  0  0  0  0  0  0  0  0  0
    2.3888    0.1703   -0.1178 C   0  0  0  0  0  0  0  0  0  0  0  0
    3.1661    0.9724    0.8814 C   0  0  0  0  0  0  0  0  0  0  0  0
    4.6065    0.7846    0.6775 N   0  0  0  0  0  0  0  0  0  0  0  0
    5.3168    1.5759    1.6526 N   0  0  0  0  0  0  0  0  0  0  0  0
    6.7444    1.3771    1.4284 C   0  0  0  0  0  0  0  0  0  0  0  0
    7.5110    2.2063    2.4504 C   0  0  0  0  0  0  0  0  0  0  0  0
    9.0080    2.0281    2.2514 C   0  0  0  0  0  0  0  0  0  0  0  0
    9.7745    2.8545    3.2694 C   0  0  0  0  0  0  0  0  0  0  0  0
   11.2686    2.6756    3.0663 C   0  0  0  0  0  0  0  0  0  0  0  0
   12.0328    3.5035    4.0830 C   0  0  0  0  0  0  0  0  0  0  0  0
   13.5255    3.3252    3.8775 C   0  0  0  0  0  0  0  0  0  0  0  0
   14.2889    4.1514    4.8952 C   0  0  0  0  0  0  0  0  0  0  0  0
   15.7810    3.9744    4.6881 C   0  0  0  0  0  0  0  0  0  0  0  0
   16.5437    4.8006    5.7057 C   0  0  0  0  0  0  0  0  0  0  0  0
   18.0358    4.6254    5.4977 C   0  0  0  0  0  0  0  0  0  0  0  0
   18.7979    5.4535    6.5144 C   0  0  0  0  0  0  0  0  0  0  0  0
   20.2899    5.2797    6.3048 C   0  0  0  0  0  0  0  0  0  0  0  0
   21.0524    6.1091    7.3201 C   0  0  0  0  0  0  0  0  0  0  0  0
   22.5443    5.9336    7.1116 C   0  0  0  0  0  0  0  0  0  0  0  0
   23.3068    6.7615    8.1282 C   0  0  0  0  0  0  0  0  0  0  0  0
   24.7988    6.5876    7.9185 C   0  0  0  0  0  0  0  0  0  0  0  0
   25.5612    7.4170    8.9338 C   0  0  0  0  0  0  0  0  0  0  0  0
   27.0531    7.2415    8.7253 C   0  0  0  0  0  0  0  0  0  0  0  0
   27.8156    8.0711    9.7406 C   0  0  0  0  0  0  0  0  0  0  0  0
   29.3076    7.8971    9.5310 C   0  0  0  0  0  0  0  0  0  0  0  0
   30.0700    8.7265   10.5463 C   0  0  0  0  0  0  0  0  0  0  0  0
   31.5618    8.5522   10.3369 C   0  0  0  0  0  0  0  0  0  0  0  0
   32.3244    9.3821   11.3519 C   0  0  0  0  0  0  0  0  0  0  0  0
   33.8164    9.2082   11.1422 C   0  0  0  0  0  0  0  0  0  0  0  0
   34.5793   10.0347   12.1579 C   0  0  0  0  0  0  0  0  0  0  0  0
   36.0708    9.8636   11.9480 C   0  0  0  0  0  0  0  0  0  0  0  0
   36.8332   10.6948   12.9618 C   0  0  0  0  0  0  0  0  0  0  0  0
   38.3252   10.5209   12.7521 C   0  0  0  0  0  0  0  0  0  0  0  0
   39.0876   11.3512   13.7665 C   0  0  0  0  0  0  0  0  0  0  0  0
   40.5796   11.1779   13.5566 C   0  0  0  0  0  0  0  0  0  0  0  0
   41.3421   12.0105   14.5692 C   0  0  0  0  0  0  0  0  0  0  0  0
   42.8340   11.8378   14.3587 C   0  0  0  0  0  0  0  0  0  0  0  0
   43.5965   12.6694   15.3721 C   0  0  0  0  0  0  0  0  0  0  0  0
   45.0884   12.4991   15.1595 C   0  0  0  0  0  0  0  0  0  0  0  0
   45.8509   13.3282   16.1750 C   0  0  0  0  0  0  0  0  0  0  0  0
   47.3428   13.1557   15.9642 C   0  0  0  0  0  0  0  0  0  0  0  0
   48.1053   13.9852   16.9794 C   0  0  0  0  0  0  0  0  0  0  0  0
   49.5972   13.8128   16.7684 C   0  0  0  0  0  0  0  0  0  0  0  0
   50.3597   14.6422   17.7837 C   0  0  0  0  0  0  0  0  0  0  0  0
   51.8515   14.4707   17.5723 C   0  0  0  0  0  0  0  0  0  0  0  0
   52.6141   15.2992   18.5882 C   0  0  0  0  0  0  0  0  0  0  0  0
   54.1060   15.1254   18.3784 C   0  0  0  0  0  0  0  0  0  0  0  0
   54.8685   15.9533   19.3949 C   0  0  0  0  0  0  0  0  0  0  0  0
   56.3604   15.7809   19.1840 C   0  0  0  0  0  0  0  0  0  0  0  0
   57.1229   16.6087   20.2006 C   0  0  0  0  0  0  0  0  0  0  0  0
   58.6148   16.4350   19.9908 C   0  0  0  0  0  0  0  0  0  0  0  0
   59.3773   17.2649   21.0056 C   0  0  0  0  0  0  0  0  0  0  0  0
   60.8692   17.0920   20.7952 C   0  0  0  0  0  0  0  0  0  0  0  0
   61.6317   17.9200   21.8116 C   0  0  0  0  0  0  0  0  0  0  0  0
   63.1237   17.7461   21.6020 C   0  0  0  0  0  0  0  0  0  0  0  0
   63.8861   18.5758   22.6170 C   0  0  0  0  0  0  0  0  0  0  0  0
   65.3781   18.4015   22.4076 C   0  0  0  0  0  0  0  0  0  0  0  0
   66.1405   19.2295   23.4241 C   0  0  0  0  0  0  0  0  0  0  0  0
   67.6325   19.0556   23.2144 C   0  0  0  0  0  0  0  0  0  0  0  0
   68.3950   19.8839   24.2305 C   0  0  0  0  0  0  0  0  0  0  0  0
   69.8871   19.7094   24.0217 C   0  0  0  0  0  0  0  0  0  0  0  0
   70.6495   20.5375   25.0379 C   0  0  0  0  0  0  0  0  0  0  0  0
   72.1414   20.3635   24.8282 C   0  0  0  0  0  0  0  0  0  0  0  0
   72.9038   21.1914   25.8448 C   0  0  0  0  0  0  0  0  0  0  0  0
   74.3957   21.0174   25.6350 C   0  0  0  0  0  0  0  0  0  0  0  0
   75.1581   21.8454   26.6516 C   0  0  0  0  0  0  0  0  0  0  0  0
   76.6501   21.6715   26.4419 C   0  0  0  0  0  0  0  0  0  0  0  0
   77.4126   22.5009   27.4572 C   0  0  0  0  0  0  0  0  0  0  0  0
   78.9046   22.3270   27.2475 C   0  0  0  0  0  0  0  0  0  0  0  0
   79.6671   23.1565   28.2628 C   0  0  0  0  0  0  0  0  0  0  0  0
   81.1592   22.9826   28.0531 C   0  0  0  0  0  0  0  0  0  0  0  0
   81.9221   23.8120   29.0683 C   0  0  0  0  0  0  0  0  0  0  0  0
   83.4145   23.6383   28.8589 C   0  0  0  0  0  0  0  0  0  0  0  0
   84.1778   24.4697   29.8733 C   0  0  0  0  0  0  0  0  0  0  0  0
   85.6713   24.2970   29.6651 C   0  0  0  0  0  0  0  0  0  0  0  0
   86.4366   25.1290   30.6803 C   0  0  0  0  0  0  0  0  0  0  0  0
   87.9322   24.9562   30.4752 C   0  0  0  0  0  0  0  0  0  0  0  0
   88.7077   25.7847   31.4893 C   0  0  0  0  0  0  0  0  0  0  0  0
   90.1990   25.6102   31.2821 C   0  0  0  0  0  0  0  0  0  0  0  0
    0.9965    0.0985   -1.6924 H   0  0  0  0  0  0  0  0  0  0  0  0
    1.3706    1.7937   -1.0264 H   0  0  0  0  0  0  0  0  0  0  0  0
    2.5121   -0.9096   -0.1255 H   0  0  0  0  0  0  0  0  0  0  0  0
    2.8927    0.6443    1.8915 H   0  0  0  0  0  0  0  0  0  0  0  0
    2.9095    2.0343    0.7837 H   0  0  0  0  0  0  0  0  0  0  0  0
    4.8214    1.1239   -0.2602 H   0  0  0  0  0  0  0  0  0  0  0  0
    5.0862    1.2450    2.5909 H   0  0  0  0  0  0  0  0  0  0  0  0
    7.0264    1.6961    0.4173 H   0  0  0  0  0  0  0  0  0  0  0  0
    7.0111    0.3184    1.5401 H   0  0  0  0  0  0  0  0  0  0  0  0
    7.2374    1.9023    3.4691 H   0  0  0  0  0  0  0  0  0  0  0  0
    7.2495    3.2675    2.3480 H   0  0  0  0  0  0  0  0  0  0  0  0
    9.2891    2.3352    1.2365 H   0  0  0  0  0  0  0  0  0  0  0  0
    9.2752    0.9693    2.3559 H   0  0  0  0  0  0  0  0  0  0  0  0
    9.4979    2.5474    4.2856 H   0  0  0  0  0  0  0  0  0  0  0  0
    9.5096    3.9141    3.1671 H   0  0  0  0  0  0  0  0  0  0  0  0
   11.5474    2.9820    2.0506 H   0  0  0  0  0  0  0  0  0  0  0  0
   11.5362    1.6169    3.1708 H   0  0  0  0  0  0  0  0  0  0  0  0
   11.7567    3.1963    5.0992 H   0  0  0  0  0  0  0  0  0  0  0  0
   11.7659    4.5625    3.9798 H   0  0  0  0  0  0  0  0  0  0  0  0
   13.8028    3.6340    2.8621 H   0  0  0  0  0  0  0  0  0  0  0  0
   13.7934    2.2664    3.9795 H   0  0  0  0  0  0  0  0  0  0  0  0
   14.0130    3.8422    5.9108 H   0  0  0  0  0  0  0  0  0  0  0  0
   14.0204    5.2102    4.7946 H   0  0  0  0  0  0  0  0  0  0  0  0
   16.0570    4.2833    3.6724 H   0  0  0  0  0  0  0  0  0  0  0  0
   16.0496    2.9157    4.7882 H   0  0  0  0  0  0  0  0  0  0  0  0
   16.2689    4.4905    6.7213 H   0  0  0  0  0  0  0  0  0  0  0  0
   16.2742    5.8592    5.6062 H   0  0  0  0  0  0  0  0  0  0  0  0
   18.3105    4.9349    4.4817 H   0  0  0  0  0  0  0  0  0  0  0  0
   18.3057    3.5671    5.5993 H   0  0  0  0  0  0  0  0  0  0  0  0
   18.5242    5.1433    7.5304 H   0  0  0  0  0  0  0  0  0  0  0  0
   18.5269    6.5118    6.4139 H   0  0  0  0  0  0  0  0  0  0  0  0
   20.5633    5.5886    5.2883 H   0  0  0  0  0  0  0  0  0  0  0  0
   20.5610    4.2216    6.4067 H   0  0  0  0  0  0  0  0  0  0  0  0
   20.7779    5.8011    8.3365 H   0  0  0  0  0  0  0  0  0  0  0  0
   20.7822    7.1673    7.2171 H   0  0  0  0  0  0  0  0  0  0  0  0
   22.8190    6.2429    6.0956 H   0  0  0  0  0  0  0  0  0  0  0  0
   22.8143    4.8752    7.2131 H   0  0  0  0  0  0  0  0  0  0  0  0
   23.0332    6.4512    9.1442 H   0  0  0  0  0  0  0  0  0  0  0  0
   23.0358    7.8198    8.0276 H   0  0  0  0  0  0  0  0  0  0  0  0
   25.0722    6.8966    6.9021 H   0  0  0  0  0  0  0  0  0  0  0  0
   25.0700    5.5296    8.0204 H   0  0  0  0  0  0  0  0  0  0  0  0
   25.2868    7.1091    9.9503 H   0  0  0  0  0  0  0  0  0  0  0  0
   25.2911    8.4753    8.8309 H   0  0  0  0  0  0  0  0  0  0  0  0
   27.3276    7.5496    7.7089 H   0  0  0  0  0  0  0  0  0  0  0  0
   27.3234    6.1834    8.8283 H   0  0  0  0  0  0  0  0  0  0  0  0
   27.5422    7.7621   10.7571 H   0  0  0  0  0  0  0  0  0  0  0  0
   27.5444    9.1291    9.6387 H   0  0  0  0  0  0  0  0  0  0  0  0
   29.5810    8.2061    8.5145 H   0  0  0  0  0  0  0  0  0  0  0  0
   29.5788    6.8391    9.6329 H   0  0  0  0  0  0  0  0  0  0  0  0
   29.7967    8.4177   11.5627 H   0  0  0  0  0  0  0  0  0  0  0  0
   29.7988    9.7847   10.4443 H   0  0  0  0  0  0  0  0  0  0  0  0
   31.8354    8.8617    9.3201 H   0  0  0  0  0  0  0  0  0  0  0  0
   31.8332    7.4947   10.4385 H   0  0  0  0  0  0  0  0  0  0  0  0
   32.0511    9.0732   12.3683 H   0  0  0  0  0  0  0  0  0  0  0  0
   32.0532   10.4402   11.2499 H   0  0  0  0  0  0  0  0  0  0  0  0
   34.0898    9.5172   10.1257 H   0  0  0  0  0  0  0  0  0  0  0  0
   34.0876    8.1502   11.2441 H   0  0  0  0  0  0  0  0  0  0  0  0
   34.3055    9.7288   13.1739 H   0  0  0  0  0  0  0  0  0  0  0  0
   34.3076   11.0958   12.0555 H   0  0  0  0  0  0  0  0  0  0  0  0
   36.3440   10.1714   10.9308 H   0  0  0  0  0  0  0  0  0  0  0  0
   36.3422    8.8060   12.0511 H   0  0  0  0  0  0  0  0  0  0  0  0
   36.5601   10.3873   13.9787 H   0  0  0  0  0  0  0  0  0  0  0  0
   36.5618   11.7527   12.8584 H   0  0  0  0  0  0  0  0  0  0  0  0
   38.5984   10.8285   11.7351 H   0  0  0  0  0  0  0  0  0  0  0  0
   38.5967    9.4631   12.8555 H   0  0  0  0  0  0  0  0  0  0  0  0
   38.8145   11.0444   14.7830 H   0  0  0  0  0  0  0  0  0  0  0  0
   38.8162   12.4098   13.6627 H   0  0  0  0  0  0  0  0  0  0  0  0
   40.8525   11.4843   12.5390 H   0  0  0  0  0  0  0  0  0  0  0  0
   40.8513   10.1204   13.6612 H   0  0  0  0  0  0  0  0  0  0  0  0
   41.0702   11.7034   15.5865 H   0  0  0  0  0  0  0  0  0  0  0  0
   41.0693   13.0681   14.4653 H   0  0  0  0  0  0  0  0  0  0  0  0
   43.1061   12.1468   13.3412 H   0  0  0  0  0  0  0  0  0  0  0  0
   43.1066   10.7806   14.4606 H   0  0  0  0  0  0  0  0  0  0  0  0
   43.3254   12.3598   16.3890 H   0  0  0  0  0  0  0  0  0  0  0  0
   43.3229   13.7268   15.2707 H   0  0  0  0  0  0  0  0  0  0  0  0
   45.3596   12.8094   14.1435 H   0  0  0  0  0  0  0  0  0  0  0  0
   45.3618   11.4409   15.2599 H   0  0  0  0  0  0  0  0  0  0  0  0
   45.5786   13.0181   17.1916 H   0  0  0  0  0  0  0  0  0  0  0  0
   45.5785   14.3858   16.0742 H   0  0  0  0  0  0  0  0  0  0  0  0
   47.6151   13.4656   14.9477 H   0  0  0  0  0  0  0  0  0  0  0  0
   47.6151   12.0978   16.0652 H   0  0  0  0  0  0  0  0  0  0  0  0
   47.8330   13.6752   17.9959 H   0  0  0  0  0  0  0  0  0  0  0  0
   47.8330   15.0429   16.8785 H   0  0  0  0  0  0  0  0  0  0  0  0
   49.8695   14.1227   15.7521 H   0  0  0  0  0  0  0  0  0  0  0  0
   49.8695   12.7549   16.8695 H   0  0  0  0  0  0  0  0  0  0  0  0
   50.0874   14.3323   18.8002 H   0  0  0  0  0  0  0  0  0  0  0  0
   50.0874   15.7001   17.6828 H   0  0  0  0  0  0  0  0  0  0  0  0
   52.1240   14.7798   16.5564 H   0  0  0  0  0  0  0  0  0  0  0  0
   52.1239   13.4120   17.6738 H   0  0  0  0  0  0  0  0  0  0  0  0
   52.3407   14.9903   19.6046 H   0  0  0  0  0  0  0  0  0  0  0  0
   52.3428   16.3573   18.4862 H   0  0  0  0  0  0  0  0  0  0  0  0
   54.3796   15.4357   17.3624 H   0  0  0  0  0  0  0  0  0  0  0  0
   54.3771   14.0672   18.4789 H   0  0  0  0  0  0  0  0  0  0  0  0
   54.5959   15.6420   20.4109 H   0  0  0  0  0  0  0  0  0  0  0  0
   54.5964   17.0113   19.2954 H   0  0  0  0  0  0  0  0  0  0  0  0
   56.6330   16.0922   18.1680 H   0  0  0  0  0  0  0  0  0  0  0  0
   56.6325   14.7229   19.2835 H   0  0  0  0  0  0  0  0  0  0  0  0
   56.8493   16.2985   21.2165 H   0  0  0  0  0  0  0  0  0  0  0  0
   56.8518   17.6670   20.1000 H   0  0  0  0  0  0  0  0  0  0  0  0
   58.8882   16.7439   18.9744 H   0  0  0  0  0  0  0  0  0  0  0  0
   58.8861   15.3769   20.0928 H   0  0  0  0  0  0  0  0  0  0  0  0
   59.1049   16.9544   22.0226 H   0  0  0  0  0  0  0  0  0  0  0  0
   59.1050   18.3222   20.9051 H   0  0  0  0  0  0  0  0  0  0  0  0
   61.1418   17.4033   19.7792 H   0  0  0  0  0  0  0  0  0  0  0  0
   61.1413   16.0340   20.8947 H   0  0  0  0  0  0  0  0  0  0  0  0
   61.3581   17.6096   22.8277 H   0  0  0  0  0  0  0  0  0  0  0  0
   61.3607   18.9781   21.7112 H   0  0  0  0  0  0  0  0  0  0  0  0
   63.3971   18.0550   20.5855 H   0  0  0  0  0  0  0  0  0  0  0  0
   63.3949   16.6880   21.7039 H   0  0  0  0  0  0  0  0  0  0  0  0
   63.6127   18.2665   23.6337 H   0  0  0  0  0  0  0  0  0  0  0  0
   63.6149   19.6335   22.5153 H   0  0  0  0  0  0  0  0  0  0  0  0
   65.6517   18.7118   21.3916 H   0  0  0  0  0  0  0  0  0  0  0  0
   65.6491   17.3433   22.5081 H   0  0  0  0  0  0  0  0  0  0  0  0
   65.8669   18.9192   24.4401 H   0  0  0  0  0  0  0  0  0  0  0  0
   65.8695   20.2877   23.3236 H   0  0  0  0  0  0  0  0  0  0  0  0
   67.9061   19.3658   22.1985 H   0  0  0  0  0  0  0  0  0  0  0  0
   67.9035   17.9973   23.3150 H   0  0  0  0  0  0  0  0  0  0  0  0
   68.1213   19.5731   25.2470 H   0  0  0  0  0  0  0  0  0  0  0  0
   68.1239   20.9417   24.1305 H   0  0  0  0  0  0  0  0  0  0  0  0
   70.1605   20.0198   23.0053 H   0  0  0  0  0  0  0  0  0  0  0  0
   70.1579   18.6513   24.1218 H   0  0  0  0  0  0  0  0  0  0  0  0
   70.3757   20.2271   26.0538 H   0  0  0  0  0  0  0  0  0  0  0  0
   70.3783   21.5956   24.9373 H   0  0  0  0  0  0  0  0  0  0  0  0
   72.4149   20.6738   23.8122 H   0  0  0  0  0  0  0  0  0  0  0  0
   72.4123   19.3053   24.9287 H   0  0  0  0  0  0  0  0  0  0  0  0
   72.6301   20.8811   26.8607 H   0  0  0  0  0  0  0  0  0  0  0  0
   72.6327   22.2496   25.7442 H   0  0  0  0  0  0  0  0  0  0  0  0
   74.6693   21.3278   24.6190 H   0  0  0  0  0  0  0  0  0  0  0  0
   74.6667   19.9592   25.7355 H   0  0  0  0  0  0  0  0  0  0  0  0
   74.8845   21.5351   27.6676 H   0  0  0  0  0  0  0  0  0  0  0  0
   74.8871   22.9036   26.5510 H   0  0  0  0  0  0  0  0  0  0  0  0
   76.9235   21.9804   25.4254 H   0  0  0  0  0  0  0  0  0  0  0  0
   76.9213   20.6134   26.5438 H   0  0  0  0  0  0  0  0  0  0  0  0
   77.1392   22.1920   28.4736 H   0  0  0  0  0  0  0  0  0  0  0  0
   77.1414   23.5590   27.3552 H   0  0  0  0  0  0  0  0  0  0  0  0
   79.1779   22.6360   26.2310 H   0  0  0  0  0  0  0  0  0  0  0  0
   79.1758   21.2690   27.3494 H   0  0  0  0  0  0  0  0  0  0  0  0
   79.3937   22.8475   29.2792 H   0  0  0  0  0  0  0  0  0  0  0  0
   79.3959   24.2145   28.1608 H   0  0  0  0  0  0  0  0  0  0  0  0
   81.4324   23.2915   27.0365 H   0  0  0  0  0  0  0  0  0  0  0  0
   81.4302   21.9245   28.1550 H   0  0  0  0  0  0  0  0  0  0  0  0
   81.6485   23.5030   30.0847 H   0  0  0  0  0  0  0  0  0  0  0  0
   81.6506   24.8700   28.9663 H   0  0  0  0  0  0  0  0  0  0  0  0
   83.6873   23.9458   27.8419 H   0  0  0  0  0  0  0  0  0  0  0  0
   83.6856   22.5804   28.9622 H   0  0  0  0  0  0  0  0  0  0  0  0
   83.9038   24.1618   30.8898 H   0  0  0  0  0  0  0  0  0  0  0  0
   83.9055   25.5271   29.7695 H   0  0  0  0  0  0  0  0  0  0  0  0
   85.9435   24.6040   28.6477 H   0  0  0  0  0  0  0  0  0  0  0  0
   85.9418   23.2388   29.7679 H   0  0  0  0  0  0  0  0  0  0  0  0
   86.1598   24.8214   31.6961 H   0  0  0  0  0  0  0  0  0  0  0  0
   86.1636   26.1861   30.5748 H   0  0  0  0  0  0  0  0  0  0  0  0
   88.2030   25.2622   29.4571 H   0  0  0  0  0  0  0  0  0  0  0  0
   88.1987   23.8968   30.5758 H   0  0  0  0  0  0  0  0  0  0  0  0
   88.4380   25.4775   32.5065 H   0  0  0  0  0  0  0  0  0  0  0  0
   88.4423   26.8435   31.3873 H   0  0  0  0  0  0  0  0  0  0  0  0
   90.4855   24.5604   31.4016 H   0  0  0  0  0  0  0  0  0  0  0  0
   90.7553   26.2055   32.0108 H   0  0  0  0  0  0  0  0  0  0  0  0
   90.4898   25.9327   30.2772 H   0  0  0  0  0  0  0  0  0  0  0  0
  1  2  2  0  0  0  0
  1 81  1  0  0  0  0
  1 82  1  0  0  0  0
  2  3  1  0  0  0  0
  2 83  1  0  0  0  0
  3  4  1  0  0  0  0
  3 84  1  0  0  0  0
  3 85  1  0  0  0  0
  4  5  1  0  0  0  0
  4 86  1  0  0  0  0
  5  6  1  0  0  0  0
  5 87  1  0  0  0  0
  6  7  1  0  0  0  0
  6 88  1  0  0  0  0
  6 89  1  0  0  0  0
  7  8  1  0  0  0  0
  7 90  1  0  0  0  0
  7 91  1  0  0  0  0
  8  9  1  0  0  0  0
  8 92  1  0  0  0  0
  8 93  1  0  0  0  0
  9 10  1  0  0  0  0
  9 94  1  0  0  0  0
  9 95  1  0  0  0  0
 10 11  1  0  0  0  0
 10 96  1  0  0  0  0
 10 97  1  0  0  0  0
 11 12  1  0  0  0  0
 11 98  1  0  0  0  0
 11 99  1  0  0  0  0
 12 13  1  0  0  0  0
 12100  1  0  0  0  0
 12101  1  0  0  0  0
 13 14  1  0  0  0  0
 13102  1  0  0  0  0
 13103  1  0  0  0  0
 14 15  1  0  0  0  0
 14104  1  0  0  0  0
 14105  1  0  0  0  0
 15 16  1  0  0  0  0
 15106  1  0  0  0  0
 15107  1  0  0  0  0
 16 17  1  0  0  0  0
 16108  1  0  0  0  0
 16109  1  0  0  0  0
 17 18  1  0  0  0  0
 17110  1  0  0  0  0
 17111  1  0  0  0  0
 18 19  1  0  0  0  0
 18112  1  0  0  0  0
 18113  1  0  0  0  0
 19 20  1  0  0  0  0
 19114  1  0  0  0  0
 19115  1  0  0  0  0
 20 21  1  0  0  0  0
 20116  1  0  0  0  0
 20117  1  0  0  0  0
 21 22  1  0  0  0  0
 21118  1  0  0  0  0
 21119  1  0  0  0  0
 22 23  1  0  0  0  0
 22120  1  0  0  0  0
 22121  1  0  0  0  0
 23 24  1  0  0  0  0
 23122  1  0  0  0  0
 23123  1  0  0  0  0
 24 25  1  0  0  0  0
 24124  1  0  0  0  0
 24125  1  0  0  0  0
 25 26  1  0  0  0  0
 25126  1  0  0  0  0
 25127  1  0  0  0  0
 26 27  1  0  0  0  0
 26128  1  0  0  0  0
 26129  1  0  0  0  0
 27 28  1  0  0  0  0
 27130  1  0  0  0  0
 27131  1  0  0  0  0
 28 29  1  0  0  0  0
 28132  1  0  0  0  0
 28133  1  0  0  0  0
 29 30  1  0  0  0  0
 29134  1  0  0  0  0
 29135  1  0  0  0  0
 30 31  1  0  0  0  0
 30136  1  0  0  0  0
 30137  1  0  0  0  0
 31 32  1  0  0  0  0
 31138  1  0  0  0  0
 31139  1  0  0  0  0
 32 33  1  0  0  0  0
 32140  1  0  0  0  0
 32141  1  0  0  0  0
 33 34  1  0  0  0  0
 33142  1  0  0  0  0
 33143  1  0  0  0  0
 34 35  1  0  0  0  0
 34144  1  0  0  0  0
 34145  1  0  0  0  0
 35 36  1  0  0  0  0
 35146  1  0  0  0  0
 35147  1  0  0  0  0
 36 37  1  0  0  0  0
 36148  1  0  0  0  0
 36149  1  0  0  0  0
 37 38  1  0  0  0  0
 37150  1  0  0  0  0
 37151  1  0  0  0  0
 38 39  1  0  0  0  0
 38152  1  0  0  0  0
 38153  1  0  0  0  0
 39 40  1  0  0  0  0
 39154  1  0  0  0  0
 39155  1  0  0  0  0
 40 41  1  0  0  0  0
 40156  1  0  0  0  0
 40157  1  0  0  0  0
 41 42  1  0  0  0  0
 41158  1  0  0  0  0
 41159  1  0  0  0  0
 42 43  1  0  0  0  0
 42160  1  0  0  0  0
 42161  1  0  0  0  0
 43 44  1  0  0  0  0
 43162  1  0  0  0  0
 43163  1  0  0  0  0
 44 45  1  0  0  0  0
 44164  1  0  0  0  0
 44165  1  0  0  0  0
 45 46  1  0  0  0  0
 45166  1  0  0  0  0
 45167  1  0  0  0  0
 46 47  1  0  0  0  0
 46168  1  0  0  0  0
 46169  1  0  0  0  0
 47 48  1  0  0  0  0
 47170  1  0  0  0  0
 47171  1  0  0  0  0
 48 49  1  0  0  0  0
 48172  1  0  0  0  0
 48173  1  0  0  0  0
 49 50  1  0  0  0  0
 49174  1  0  0  0  0
 49175  1  0  0  0  0
 50 51  1  0  0  0  0
 50176  1  0  0  0  0
 50177  1  0  0  0  0
 51 52  1  0  0  0  0
 51178  1  0  0  0  0
 51179  1  0  0  0  0
 52 53  1  0  0  0  0
 52180  1  0  0  0  0
 52181  1  0  0  0  0
 53 54  1  0  0  0  0
 53182  1  0  0  0  0
 53183  1  0  0  0  0
 54 55  1  0  0  0  0
 54184  1  0  0  0  0
 54185  1  0  0  0  0
 55 56  1  0  0  0  0
 55186  1  0  0  0  0
 55187  1  0  0  0  0
 56 57  1  0  0  0  0
 56188  1  0  0  0  0
 56189  1  0  0  0  0
 57 58  1  0  0  0  0
 57190  1  0  0  0  0
 57191  1  0  0  0  0
 58 59  1  0  0  0  0
 58192  1  0  0  0  0
 58193  1  0  0  0  0
 59 60  1  0  0  0  0
 59194  1  0  0  0  0
 59195  1  0  0  0  0
 60 61  1  0  0  0  0
 60196  1  0  0  0  0
 60197  1  0  0  0  0
 61 62  1  0  0  0  0
 61198  1  0  0  0  0
 61199  1  0  0  0  0
 62 63  1  0  0  0  0
 62200  1  0  0  0  0
 62201  1  0  0  0  0
 63 64  1  0  0  0  0
 63202  1  0  0  0  0
 63203  1  0  0  0  0
 64 65  1  0  0  0  0
 64204  1  0  0  0  0
 64205  1  0  0  0  0
 65 66  1  0  0  0  0
 65206  1  0  0  0  0
 65207  1  0  0  0  0
 66 67  1  0  0  0  0
 66208  1  0  0  0  0
 66209  1  0  0  0  0
 67 68  1  0  0  0  0
 67210  1  0  0  0  0
 67211  1  0  0  0  0
 68 69  1  0  0  0  0
 68212  1  0  0  0  0
 68213  1  0  0  0  0
 69 70  1  0  0  0  0
 69214  1  0  0  0  0
 69215  1  0  0  0  0
 70 71  1  0  0  0  0
 70216  1  0  0  0  0
 70217  1  0  0  0  0
 71 72  1  0  0  0  0
 71218  1  0  0  0  0
 71219  1  0  0  0  0
 72 73  1  0  0  0  0
 72220  1  0  0  0  0
 72221  1  0  0  0  0
 73 74  1  0  0  0  0
 73222  1  0  0  0  0
 73223  1  0  0  0  0
 74 75  1  0  0  0  0
 74224  1  0  0  0  0
 74225  1  0  0  0  0
 75 76  1  0  0  0  0
 75226  1  0  0  0  0
 75227  1  0  0  0  0
 76 77  1  0  0  0  0
 76228  1  0  0  0  0
 76229  1  0  0  0  0
 77 78  1  0  0  0  0
 77230  1  0  0  0  0
 77231  1  0  0  0  0
 78 79  1  0  0  0  0
 78232  1  0  0  0  0
 78233  1  0  0  0  0
 79 80  1  0  0  0  0
 79234  1  0  0  0  0
 79235  1  0  0  0  0
 80236  1  0  0  0  0
 80237  1  0  0  0  0
 80238  1  0  0  0  0
M  END
$$$$
