
 OpenBabel04232216513D

 33 33  0  0  1  0  0  0  0  0999 V2000
    1.0729    1.6037   -0.8151 C   0  0  0  0  0  0  0  0  0  0  0  0
    2.5873    1.4769   -0.8408 C   0  0  0  0  0  0  0  0  0  0  0  0
    3.0454    0.1056   -1.3517 C   0  0  0  0  0  0  0  0  0  0  0  0
    4.5438    0.0168   -1.3514 C   0  0  3  0  0  0  0  0  0  0  0  0
    5.3001   -1.2225   -1.7907 C   0  0  3  0  0  0  0  0  0  0  0  0
    4.6379   -2.4683   -2.3033 C   0  0  0  0  0  0  0  0  0  0  0  0
    5.6851   -3.5160   -2.6916 C   0  0  0  0  0  0  0  0  0  0  0  0
    5.0569   -4.7972   -3.2024 C   0  0  0  0  0  0  0  0  0  0  0  0
    5.3140    0.0206   -2.6534 C   0  0  3  0  0  0  0  0  0  0  0  0
    6.5674    0.8323   -2.7874 C   0  0  0  0  0  0  0  0  0  0  0  0
    7.6910    0.0247   -3.4196 C   0  0  0  0  0  0  0  0  0  0  0  0
    0.7867    2.6038   -0.4734 H   0  0  0  0  0  0  0  0  0  0  0  0
    0.6292    0.8719   -0.1325 H   0  0  0  0  0  0  0  0  0  0  0  0
    0.6506    1.4503   -1.8102 H   0  0  0  0  0  0  0  0  0  0  0  0
    2.9736    1.6415    0.1726 H   0  0  0  0  0  0  0  0  0  0  0  0
    3.0108    2.2695   -1.4732 H   0  0  0  0  0  0  0  0  0  0  0  0
    2.6450   -0.0658   -2.3582 H   0  0  0  0  0  0  0  0  0  0  0  0
    2.6404   -0.6805   -0.7018 H   0  0  0  0  0  0  0  0  0  0  0  0
    4.9709    0.5315   -0.4949 H   0  0  0  0  0  0  0  0  0  0  0  0
    6.1776   -1.4533   -1.1908 H   0  0  0  0  0  0  0  0  0  0  0  0
    4.0072   -2.2446   -3.1710 H   0  0  0  0  0  0  0  0  0  0  0  0
    3.9845   -2.8755   -1.5223 H   0  0  0  0  0  0  0  0  0  0  0  0
    6.3149   -3.7533   -1.8240 H   0  0  0  0  0  0  0  0  0  0  0  0
    6.3519   -3.1086   -3.4626 H   0  0  0  0  0  0  0  0  0  0  0  0
    4.4321   -5.2660   -2.4306 H   0  0  0  0  0  0  0  0  0  0  0  0
    5.8309   -5.5153   -3.4968 H   0  0  0  0  0  0  0  0  0  0  0  0
    4.4254   -4.6019   -4.0783 H   0  0  0  0  0  0  0  0  0  0  0  0
    4.7565   -0.0029   -3.5844 H   0  0  0  0  0  0  0  0  0  0  0  0
    6.8946    1.2097   -1.8129 H   0  0  0  0  0  0  0  0  0  0  0  0
    6.3526    1.7085   -3.4129 H   0  0  0  0  0  0  0  0  0  0  0  0
    7.9661   -0.8233   -2.7854 H   0  0  0  0  0  0  0  0  0  0  0  0
    8.5787    0.6497   -3.5515 H   0  0  0  0  0  0  0  0  0  0  0  0
    7.3924   -0.3688   -4.3954 H   0  0  0  0  0  0  0  0  0  0  0  0
  1  2  1  0  0  0  0
  1 12  1  0  0  0  0
  1 13  1  0  0  0  0
  1 14  1  0  0  0  0
  2  3  1  0  0  0  0
  2 15  1  0  0  0  0
  2 16  1  0  0  0  0
  3  4  1  0  0  0  0
  3 17  1  0  0  0  0
  3 18  1  0  0  0  0
  4  5  1  0  0  0  0
  4  9  1  0  0  0  0
  4 19  1  0  0  0  0
  5  6  1  0  0  0  0
  5  9  1  0  0  0  0
  5 20  1  0  0  0  0
  6  7  1  0  0  0  0
  6 21  1  0  0  0  0
  6 22  1  0  0  0  0
  7  8  1  0  0  0  0
  7 23  1  0  0  0  0
  7 24  1  0  0  0  0
  8 25  1  0  0  0  0
  8 26  1  0  0  0  0
  8 27  1  0  0  0  0
  9 10  1  0  0  0  0
  9 28  1  0  0  0  0
 10 11  1  0  0  0  0
 10 29  1  0  0  0  0
 10 30  1  0  0  0  0
 11 31  1  0  0  0  0
 11 32  1  0  0  0  0
 11 33  1  0  0  0  0
M  END
$$$$
