
 OpenBabel04232216403D

 90 89  0  0  0  0  0  0  0  0999 V2000
    1.5148    0.9757    0.0011 C   0  0  0  0  0  0  0  0  0  0  0  0
    2.3326   -0.0770   -0.1051 C   0  0  0  0  0  0  0  0  0  0  0  0
    3.1031   -0.3056   -1.3531 C   0  0  0  0  0  0  0  0  0  0  0  0
    4.5738   -0.2353   -1.0572 C   0  0  0  0  0  0  0  0  0  0  0  0
    5.3021   -0.4777   -2.3341 C   0  0  0  0  0  0  0  0  0  0  0  0
    6.6378   -0.4013   -1.9485 O   0  0  0  0  0  0  0  0  0  0  0  0
    7.2970   -0.6327   -3.1636 O   0  0  0  0  0  0  0  0  0  0  0  0
    8.6612   -0.5842   -2.9017 O   0  0  0  0  0  0  0  0  0  0  0  0
    9.3154   -0.8082   -4.1072 O   0  0  0  0  0  0  0  0  0  0  0  0
   10.6676   -0.7551   -3.8165 O   0  0  0  0  0  0  0  0  0  0  0  0
   11.3346   -1.0115   -5.0007 O   0  0  0  0  0  0  0  0  0  0  0  0
   12.6707   -0.9122   -4.7404 O   0  0  0  0  0  0  0  0  0  0  0  0
   13.3191   -1.1226   -5.9180 O   0  0  0  0  0  0  0  0  0  0  0  0
   14.6590   -1.1031   -5.6232 O   0  0  0  0  0  0  0  0  0  0  0  0
   15.2888   -1.3376   -6.8171 O   0  0  0  0  0  0  0  0  0  0  0  0
   16.6225   -1.2670   -6.5195 O   0  0  0  0  0  0  0  0  0  0  0  0
   17.2576   -1.4949   -7.7067 O   0  0  0  0  0  0  0  0  0  0  0  0
   18.5886   -1.4402   -7.4065 O   0  0  0  0  0  0  0  0  0  0  0  0
   19.2211   -1.6621   -8.5958 O   0  0  0  0  0  0  0  0  0  0  0  0
   20.5511   -1.6010   -8.2962 O   0  0  0  0  0  0  0  0  0  0  0  0
   21.1825   -1.8294   -9.4839 O   0  0  0  0  0  0  0  0  0  0  0  0
   22.5116   -1.7630   -9.1848 O   0  0  0  0  0  0  0  0  0  0  0  0
   23.1420   -1.9959  -10.3715 O   0  0  0  0  0  0  0  0  0  0  0  0
   24.4707   -1.9347  -10.0710 O   0  0  0  0  0  0  0  0  0  0  0  0
   25.1007   -2.1582  -11.2593 O   0  0  0  0  0  0  0  0  0  0  0  0
   26.4290   -2.1015  -10.9576 O   0  0  0  0  0  0  0  0  0  0  0  0
   27.0589   -2.3345  -12.1440 O   0  0  0  0  0  0  0  0  0  0  0  0
   28.3871   -2.2701  -11.8438 O   0  0  0  0  0  0  0  0  0  0  0  0
   29.0168   -2.4944  -13.0318 O   0  0  0  0  0  0  0  0  0  0  0  0
   30.3450   -2.4348  -12.7306 O   0  0  0  0  0  0  0  0  0  0  0  0
   30.9747   -2.6674  -13.9170 O   0  0  0  0  0  0  0  0  0  0  0  0
   32.3028   -2.6126  -13.6148 O   0  0  0  0  0  0  0  0  0  0  0  0
   32.9325   -2.8367  -14.8028 O   0  0  0  0  0  0  0  0  0  0  0  0
   34.2606   -2.7736  -14.5023 O   0  0  0  0  0  0  0  0  0  0  0  0
   34.8902   -3.0060  -15.6888 O   0  0  0  0  0  0  0  0  0  0  0  0
   36.2183   -2.9514  -15.3867 O   0  0  0  0  0  0  0  0  0  0  0  0
   36.8480   -3.1790  -16.5741 O   0  0  0  0  0  0  0  0  0  0  0  0
   38.1761   -3.1162  -16.2735 O   0  0  0  0  0  0  0  0  0  0  0  0
   38.8057   -3.3388  -17.4618 O   0  0  0  0  0  0  0  0  0  0  0  0
   40.1338   -3.2846  -17.1596 O   0  0  0  0  0  0  0  0  0  0  0  0
   40.7635   -3.5157  -18.3463 O   0  0  0  0  0  0  0  0  0  0  0  0
   42.0916   -3.4525  -18.0458 O   0  0  0  0  0  0  0  0  0  0  0  0
   42.7213   -3.6745  -19.2342 O   0  0  0  0  0  0  0  0  0  0  0  0
   44.0494   -3.6203  -18.9320 O   0  0  0  0  0  0  0  0  0  0  0  0
   44.6791   -3.8514  -20.1187 O   0  0  0  0  0  0  0  0  0  0  0  0
   46.0071   -3.7890  -19.8180 O   0  0  0  0  0  0  0  0  0  0  0  0
   46.6361   -4.0101  -21.0065 O   0  0  0  0  0  0  0  0  0  0  0  0
   47.9629   -3.9496  -20.7046 O   0  0  0  0  0  0  0  0  0  0  0  0
   48.5912   -4.1947  -21.8872 O   0  0  0  0  0  0  0  0  0  0  0  0
   49.9185   -4.1607  -21.5798 O   0  0  0  0  0  0  0  0  0  0  0  0
   50.5432   -4.2773  -22.7846 O   0  0  0  0  0  0  0  0  0  0  0  0
   51.8710   -4.2709  -22.4836 O   0  0  0  0  0  0  0  0  0  0  0  0
   52.4963   -4.5890  -23.6531 O   0  0  0  0  0  0  0  0  0  0  0  0
   53.8282   -4.5243  -23.3594 O   0  0  0  0  0  0  0  0  0  0  0  0
   54.4630   -4.6249  -24.5626 O   0  0  0  0  0  0  0  0  0  0  0  0
   55.7900   -4.6166  -24.2458 O   0  0  0  0  0  0  0  0  0  0  0  0
   56.4239   -4.8874  -25.4227 O   0  0  0  0  0  0  0  0  0  0  0  0
   57.7555   -4.8237  -25.1258 O   0  0  0  0  0  0  0  0  0  0  0  0
   58.3793   -5.0139  -26.3255 O   0  0  0  0  0  0  0  0  0  0  0  0
   59.7089   -4.9601  -26.0278 O   0  0  0  0  0  0  0  0  0  0  0  0
   60.3412   -5.2273  -27.2062 O   0  0  0  0  0  0  0  0  0  0  0  0
   61.6705   -5.1565  -26.9045 O   0  0  0  0  0  0  0  0  0  0  0  0
   62.3022   -5.3700  -28.0946 O   0  0  0  0  0  0  0  0  0  0  0  0
   63.6317   -5.3263  -27.7923 O   0  0  0  0  0  0  0  0  0  0  0  0
   64.2601   -5.5582  -28.9815 O   0  0  0  0  0  0  0  0  0  0  0  0
   65.5909   -5.4978  -28.6855 O   0  0  0  0  0  0  0  0  0  0  0  0
   66.2230   -5.7241  -29.8754 O   0  0  0  0  0  0  0  0  0  0  0  0
   67.5549   -5.6749  -29.5738 O   0  0  0  0  0  0  0  0  0  0  0  0
   68.1963   -5.8956  -30.7616 O   0  0  0  0  0  0  0  0  0  0  0  0
   69.5314   -5.8328  -30.4570 O   0  0  0  0  0  0  0  0  0  0  0  0
   70.1804   -6.0612  -31.6433 O   0  0  0  0  0  0  0  0  0  0  0  0
   71.5228   -6.0150  -31.3457 O   0  0  0  0  0  0  0  0  0  0  0  0
   72.1724   -6.2414  -32.5415 O   0  0  0  0  0  0  0  0  0  0  0  0
   73.5258   -6.1904  -32.2589 O   0  0  0  0  0  0  0  0  0  0  0  0
   74.1923   -6.3998  -33.4601 O   0  0  0  0  0  0  0  0  0  0  0  0
   75.5591   -6.3346  -33.1742 O   0  0  0  0  0  0  0  0  0  0  0  0
   76.2546   -6.6591  -34.3470 O   0  0  0  0  0  0  0  0  0  0  0  0
   77.6482   -6.5933  -34.0782 O   0  0  0  0  0  0  0  0  0  0  0  0
   78.3483   -6.7213  -35.3156 O   0  0  0  0  0  0  0  0  0  0  0  0
   77.9141   -5.6846  -36.2264 O   0  0  0  0  0  0  0  0  0  0  0  0
    0.9608    1.1244    0.9657 H   0  0  0  0  0  0  0  0  0  0  0  0
    1.3377    1.6995   -0.7531 H   0  0  0  0  0  0  0  0  0  0  0  0
    2.4728   -0.7696    0.7148 H   0  0  0  0  0  0  0  0  0  0  0  0
    2.8591    0.4423   -2.1185 H   0  0  0  0  0  0  0  0  0  0  0  0
    2.8527   -1.2890   -1.7656 H   0  0  0  0  0  0  0  0  0  0  0  0
    4.8924   -0.9807   -0.3156 H   0  0  0  0  0  0  0  0  0  0  0  0
    4.8808    0.7392   -0.6511 H   0  0  0  0  0  0  0  0  0  0  0  0
    5.0989    0.2868   -3.0946 H   0  0  0  0  0  0  0  0  0  0  0  0
    5.1016   -1.4699   -2.7569 H   0  0  0  0  0  0  0  0  0  0  0  0
   78.4042   -6.0342  -36.9840 H   0  0  0  0  0  0  0  0  0  0  0  0
  1  2  2  0  0  0  0
  1 81  1  0  0  0  0
  1 82  1  0  0  0  0
  2  3  1  0  0  0  0
  2 83  1  0  0  0  0
  3  4  1  0  0  0  0
  3 84  1  0  0  0  0
  3 85  1  0  0  0  0
  4  5  1  0  0  0  0
  4 86  1  0  0  0  0
  4 87  1  0  0  0  0
  5  6  1  0  0  0  0
  5 88  1  0  0  0  0
  5 89  1  0  0  0  0
  6  7  1  0  0  0  0
  7  8  1  0  0  0  0
  8  9  1  0  0  0  0
  9 10  1  0  0  0  0
 10 11  1  0  0  0  0
 11 12  1  0  0  0  0
 12 13  1  0  0  0  0
 13 14  1  0  0  0  0
 14 15  1  0  0  0  0
 15 16  1  0  0  0  0
 16 17  1  0  0  0  0
 17 18  1  0  0  0  0
 18 19  1  0  0  0  0
 19 20  1  0  0  0  0
 20 21  1  0  0  0  0
 21 22  1  0  0  0  0
 22 23  1  0  0  0  0
 23 24  1  0  0  0  0
 24 25  1  0  0  0  0
 25 26  1  0  0  0  0
 26 27  1  0  0  0  0
 27 28  1  0  0  0  0
 28 29  1  0  0  0  0
 29 30  1  0  0  0  0
 30 31  1  0  0  0  0
 31 32  1  0  0  0  0
 32 33  1  0  0  0  0
 33 34  1  0  0  0  0
 34 35  1  0  0  0  0
 35 36  1  0  0  0  0
 36 37  1  0  0  0  0
 37 38  1  0  0  0  0
 38 39  1  0  0  0  0
 39 40  1  0  0  0  0
 40 41  1  0  0  0  0
 41 42  1  0  0  0  0
 42 43  1  0  0  0  0
 43 44  1  0  0  0  0
 44 45  1  0  0  0  0
 45 46  1  0  0  0  0
 46 47  1  0  0  0  0
 47 48  1  0  0  0  0
 48 49  1  0  0  0  0
 49 50  1  0  0  0  0
 50 51  1  0  0  0  0
 51 52  1  0  0  0  0
 52 53  1  0  0  0  0
 53 54  1  0  0  0  0
 54 55  1  0  0  0  0
 55 56  1  0  0  0  0
 56 57  1  0  0  0  0
 57 58  1  0  0  0  0
 58 59  1  0  0  0  0
 59 60  1  0  0  0  0
 60 61  1  0  0  0  0
 61 62  1  0  0  0  0
 62 63  1  0  0  0  0
 63 64  1  0  0  0  0
 64 65  1  0  0  0  0
 65 66  1  0  0  0  0
 66 67  1  0  0  0  0
 67 68  1  0  0  0  0
 68 69  1  0  0  0  0
 69 70  1  0  0  0  0
 70 71  1  0  0  0  0
 71 72  1  0  0  0  0
 72 73  1  0  0  0  0
 73 74  1  0  0  0  0
 74 75  1  0  0  0  0
 75 76  1  0  0  0  0
 76 77  1  0  0  0  0
 77 78  1  0  0  0  0
 78 79  1  0  0  0  0
 79 80  1  0  0  0  0
 80 90  1  0  0  0  0
M  END
$$$$
