
 OpenBabel04232216393D

 65 66  0  0  0  0  0  0  0  0999 V2000
    9.4209   -2.3509   -3.5542 C   0  0  0  0  0  0  0  0  0  0  0  0
   10.9941   -3.1865   -3.8007 C   0  0  0  0  0  0  0  0  0  0  0  0
   12.8167   -4.4199   -3.3516 C   0  0  0  0  0  0  0  0  0  0  0  0
   11.0054   -4.4367   -2.7072 C   0  0  0  0  0  0  0  0  0  0  0  0
    9.1264   -4.0214   -1.9561 C   0  0  0  0  0  0  0  0  0  0  0  0
    8.4793   -3.2906   -0.7091 C   0  0  0  0  0  0  0  0  0  0  0  0
    9.2176   -4.1557    0.1117 C   0  0  0  0  0  0  0  0  0  0  0  0
   10.5086   -3.7094    0.0465 C   0  0  0  0  0  0  0  0  0  0  0  0
   11.3317   -4.8108   -0.5646 C   0  0  0  0  0  0  0  0  0  0  0  0
   12.5531   -5.1868   -0.6015 N   0  0  0  0  0  0  0  0  0  0  0  0
   12.4472   -6.3697   -1.3113 N   0  0  0  0  0  0  0  0  0  0  0  0
   13.5880   -6.6164   -1.7481 C   0  0  0  0  0  0  0  0  0  0  0  0
   13.5511   -7.6768   -2.7315 C   0  0  0  0  0  0  0  0  0  0  0  0
   14.9821   -7.6284   -2.7381 C   0  0  0  0  0  0  0  0  0  0  0  0
   15.1395   -8.9026   -3.3291 C   0  0  0  0  0  0  0  0  0  0  0  0
   16.4892   -8.8691   -3.4868 C   0  0  0  0  0  0  0  0  0  0  0  0
   17.0603  -10.1310   -3.8709 C   0  0  0  0  0  0  0  0  0  0  0  0
   18.0296   -9.1612   -3.7446 C   0  0  0  0  0  0  0  0  0  0  0  0
   19.1466   -9.6180   -4.1938 C   0  0  0  0  0  0  0  0  0  0  0  0
   18.6343   -7.7746   -3.7520 C   0  0  0  0  0  0  0  0  0  0  0  0
   20.1407   -8.7162   -3.3815 C   0  0  0  0  0  0  0  0  0  0  0  0
   21.7249  -10.0614   -3.3637 C   0  0  0  0  0  0  0  0  0  0  0  0
   22.6061  -11.1978   -4.1769 C   0  0  0  0  0  0  0  0  0  0  0  0
   24.3259  -11.3680   -3.5574 C   0  0  0  0  0  0  0  0  0  0  0  0
   25.0602  -10.8989   -4.5822 C   0  0  0  0  0  0  0  0  0  0  0  0
   24.3796   -9.1333   -4.5513 C   0  0  0  0  0  0  0  0  0  0  0  0
   22.8845   -8.0463   -4.5212 C   0  0  0  0  0  0  0  0  0  0  0  0
   20.8560   -7.2252   -4.6500 C   0  0  0  0  0  0  0  0  0  0  0  0
   19.1129   -6.4564   -4.1014 C   0  0  0  0  0  0  0  0  0  0  0  0
   16.8855   -6.2489   -3.6997 C   0  0  0  0  0  0  0  0  0  0  0  0
   15.0349   -5.2990   -3.6430 C   0  0  0  0  0  0  0  0  0  0  0  0
    8.0129   -2.6394   -3.3511 H   0  0  0  0  0  0  0  0  0  0  0  0
    8.3139   -1.8969   -2.7555 H   0  0  0  0  0  0  0  0  0  0  0  0
    9.6406   -3.7189   -3.7834 H   0  0  0  0  0  0  0  0  0  0  0  0
   10.3166   -3.2925   -2.1222 H   0  0  0  0  0  0  0  0  0  0  0  0
    7.7422   -3.9669   -2.0634 H   0  0  0  0  0  0  0  0  0  0  0  0
    7.8880   -2.1853   -0.4031 H   0  0  0  0  0  0  0  0  0  0  0  0
    8.8865   -5.2071   -0.3024 H   0  0  0  0  0  0  0  0  0  0  0  0
   10.5143   -2.6767   -0.4411 H   0  0  0  0  0  0  0  0  0  0  0  0
   10.7390   -5.4620   -1.2624 H   0  0  0  0  0  0  0  0  0  0  0  0
   14.4760   -5.9134   -1.5523 H   0  0  0  0  0  0  0  0  0  0  0  0
   13.1947   -7.5177   -3.7903 H   0  0  0  0  0  0  0  0  0  0  0  0
   13.1335   -8.5848   -2.3260 H   0  0  0  0  0  0  0  0  0  0  0  0
   15.6086   -7.2774   -1.8403 H   0  0  0  0  0  0  0  0  0  0  0  0
   15.1750   -7.0832   -3.6258 H   0  0  0  0  0  0  0  0  0  0  0  0
   14.8464   -8.7747   -4.3788 H   0  0  0  0  0  0  0  0  0  0  0  0
   15.0108   -9.5511   -2.5005 H   0  0  0  0  0  0  0  0  0  0  0  0
   16.8519   -8.5149   -2.4501 H   0  0  0  0  0  0  0  0  0  0  0  0
   16.5882   -8.1797   -4.4067 H   0  0  0  0  0  0  0  0  0  0  0  0
   17.2781  -10.1680   -4.9589 H   0  0  0  0  0  0  0  0  0  0  0  0
   17.4927  -10.6785   -3.0244 H   0  0  0  0  0  0  0  0  0  0  0  0
   18.5419   -9.1281   -2.4646 H   0  0  0  0  0  0  0  0  0  0  0  0
   18.3727   -8.7664   -5.0404 H   0  0  0  0  0  0  0  0  0  0  0  0
   19.3574  -10.0812   -5.2413 H   0  0  0  0  0  0  0  0  0  0  0  0
   19.3579  -10.6417   -3.4148 H   0  0  0  0  0  0  0  0  0  0  0  0
   20.7202   -9.8828   -4.1706 H   0  0  0  0  0  0  0  0  0  0  0  0
   22.6277   -9.7270   -2.8222 H   0  0  0  0  0  0  0  0  0  0  0  0
   23.4260  -12.1264   -4.6222 H   0  0  0  0  0  0  0  0  0  0  0  0
   24.7598  -10.6790   -2.7987 H   0  0  0  0  0  0  0  0  0  0  0  0
   25.9239  -11.8869   -4.9670 H   0  0  0  0  0  0  0  0  0  0  0  0
   25.7148   -9.2731   -4.4674 H   0  0  0  0  0  0  0  0  0  0  0  0
   23.1225   -9.2549   -5.0670 H   0  0  0  0  0  0  0  0  0  0  0  0
   21.4040   -8.3437   -4.7098 H   0  0  0  0  0  0  0  0  0  0  0  0
   19.8329   -6.7741   -3.0241 H   0  0  0  0  0  0  0  0  0  0  0  0
   13.8720   -5.7634   -3.5400 H   0  0  0  0  0  0  0  0  0  0  0  0
  1  2  2  0  0  0  0
  1 32  1  0  0  0  0
  1 33  1  0  0  0  0
  2  3  1  0  0  0  0
  2 34  1  0  0  0  0
  3  4  2  3  0  0  0
  3 31  1  0  0  0  0
  4  5  1  0  0  0  0
  4 35  1  0  0  0  0
  5  6  2  3  0  0  0
  5 36  1  0  0  0  0
  6  7  1  0  0  0  0
  6 37  1  0  0  0  0
  7  8  2  3  0  0  0
  7 38  1  0  0  0  0
  8  9  1  0  0  0  0
  8 39  1  0  0  0  0
  9 10  2  3  0  0  0
  9 40  1  0  0  0  0
 10 11  1  0  0  0  0
 11 12  2  3  0  0  0
 12 13  1  0  0  0  0
 12 41  1  0  0  0  0
 13 14  1  0  0  0  0
 13 42  1  0  0  0  0
 13 43  1  0  0  0  0
 14 15  1  0  0  0  0
 14 44  1  0  0  0  0
 14 45  1  0  0  0  0
 15 16  1  0  0  0  0
 15 46  1  0  0  0  0
 15 47  1  0  0  0  0
 16 17  1  0  0  0  0
 16 48  1  0  0  0  0
 16 49  1  0  0  0  0
 17 18  1  0  0  0  0
 17 50  1  0  0  0  0
 17 51  1  0  0  0  0
 18 19  1  0  0  0  0
 18 52  1  0  0  0  0
 18 53  1  0  0  0  0
 19 20  1  0  0  0  0
 19 54  1  0  0  0  0
 19 55  1  0  0  0  0
 20 21  2  3  0  0  0
 20 30  1  0  0  0  0
 21 22  1  0  0  0  0
 21 56  1  0  0  0  0
 22 23  2  3  0  0  0
 22 57  1  0  0  0  0
 23 24  1  0  0  0  0
 23 58  1  0  0  0  0
 24 25  2  3  0  0  0
 24 59  1  0  0  0  0
 25 26  1  0  0  0  0
 25 60  1  0  0  0  0
 26 27  2  3  0  0  0
 26 61  1  0  0  0  0
 27 28  1  0  0  0  0
 27 62  1  0  0  0  0
 28 29  2  3  0  0  0
 28 63  1  0  0  0  0
 29 30  1  0  0  0  0
 29 64  1  0  0  0  0
 30 31  2  3  0  0  0
 31 65  1  0  0  0  0
M  END
$$$$
