
 OpenBabel04232216523D

 57 58  0  0  1  0  0  0  0  0999 V2000
    1.9127    5.6743   10.5666 C   0  0  0  0  0  0  0  0  0  0  0  0
    3.1685    4.9307   10.0829 C   0  0  0  0  0  0  0  0  0  0  0  0
    3.4027    4.9194    8.5618 C   0  0  0  0  0  0  0  0  0  0  0  0
    4.7744    4.2834    8.1005 C   0  0  3  0  0  0  0  0  0  0  0  0
    5.2829    2.8316    8.3781 C   0  0  0  0  0  0  0  0  0  0  0  0
    5.9032    2.2499    7.3217 C   0  0  0  0  0  0  0  0  0  0  0  0
    6.6976    0.8529    7.0053 C   0  0  0  0  0  0  0  0  0  0  0  0
    7.3743    0.1072    8.1266 O   0  0  0  0  0  0  0  0  0  0  0  0
    8.7215   -0.6385    7.9593 C   0  0  3  0  0  0  0  0  0  0  0  0
    8.8005   -1.5045    6.7098 C   0  0  0  0  0  0  0  0  0  0  0  0
    9.7378   -1.2763    5.7539 C   0  0  0  0  0  0  0  0  0  0  0  0
   10.4899   -2.5264    5.4757 C   0  0  0  0  0  0  0  0  0  0  0  0
   10.1491   -3.4017    4.7012 O   0  0  0  0  0  0  0  0  0  0  0  0
   11.6486   -2.5885    6.3996 C   0  0  0  0  0  0  0  0  0  0  0  0
   11.9510   -3.7127    7.0582 C   0  0  0  0  0  0  0  0  0  0  0  0
   12.9858   -3.6708    8.0584 C   0  0  0  0  0  0  0  0  0  0  0  0
   13.5575   -4.7586    8.5763 C   0  0  0  0  0  0  0  0  0  0  0  0
   14.6059   -4.7575    9.4838 N   0  0  0  0  0  0  0  0  0  0  0  0
   14.4467   -5.3783   10.8064 C   0  0  0  0  0  0  0  0  0  0  0  0
   13.7382   -4.2580   11.5651 C   0  0  0  0  0  0  0  0  0  0  0  0
   12.3799   -4.1450   11.4507 C   0  0  0  0  0  0  0  0  0  0  0  0
   11.4926   -2.8531   11.2969 C   0  0  0  0  0  0  0  0  0  0  0  0
   10.2343   -2.7397   10.1004 C   0  0  0  0  0  0  0  0  0  0  0  0
    9.2388   -1.4194    9.4719 C   0  0  0  0  0  0  0  0  0  0  0  0
    5.5129    3.1568    6.1999 C   0  0  0  0  0  0  0  0  0  0  0  0
    4.9182    4.3168    6.6032 C   0  0  0  0  0  0  0  0  0  0  0  0
    1.8300    5.5827   11.6587 H   0  0  0  0  0  0  0  0  0  0  0  0
    0.9922    5.2631   10.1399 H   0  0  0  0  0  0  0  0  0  0  0  0
    1.9463    6.7472   10.3440 H   0  0  0  0  0  0  0  0  0  0  0  0
    3.1032    3.8981   10.4336 H   0  0  0  0  0  0  0  0  0  0  0  0
    4.0280    5.3996   10.5750 H   0  0  0  0  0  0  0  0  0  0  0  0
    3.4029    5.9799    8.2394 H   0  0  0  0  0  0  0  0  0  0  0  0
    2.5452    4.4731    8.0446 H   0  0  0  0  0  0  0  0  0  0  0  0
    5.5385    4.9609    8.5125 H   0  0  0  0  0  0  0  0  0  0  0  0
    5.2819    2.4103    9.3675 H   0  0  0  0  0  0  0  0  0  0  0  0
    7.4254    1.0550    6.2110 H   0  0  0  0  0  0  0  0  0  0  0  0
    5.9519    0.1606    6.5786 H   0  0  0  0  0  0  0  0  0  0  0  0
    9.4351    0.1840    7.8356 H   0  0  0  0  0  0  0  0  0  0  0  0
    8.2804   -2.4562    6.7017 H   0  0  0  0  0  0  0  0  0  0  0  0
   10.3231   -0.3712    5.7423 H   0  0  0  0  0  0  0  0  0  0  0  0
   12.1495   -1.6539    6.6346 H   0  0  0  0  0  0  0  0  0  0  0  0
   11.4149   -4.6422    6.8778 H   0  0  0  0  0  0  0  0  0  0  0  0
   13.2850   -2.6909    8.4319 H   0  0  0  0  0  0  0  0  0  0  0  0
   13.2201   -5.7596    8.3238 H   0  0  0  0  0  0  0  0  0  0  0  0
   14.9220   -3.7969    9.6257 H   0  0  0  0  0  0  0  0  0  0  0  0
   15.4370   -5.6450   11.1915 H   0  0  0  0  0  0  0  0  0  0  0  0
   13.8534   -6.3093   10.7364 H   0  0  0  0  0  0  0  0  0  0  0  0
   14.4120   -3.4255   11.7764 H   0  0  0  0  0  0  0  0  0  0  0  0
   11.8632   -5.1043   11.4856 H   0  0  0  0  0  0  0  0  0  0  0  0
   10.9812   -2.8572   12.2693 H   0  0  0  0  0  0  0  0  0  0  0  0
   12.1491   -1.9814   11.2758 H   0  0  0  0  0  0  0  0  0  0  0  0
   10.1623   -3.6688    9.5189 H   0  0  0  0  0  0  0  0  0  0  0  0
    9.4877   -2.9567   10.8851 H   0  0  0  0  0  0  0  0  0  0  0  0
    9.5235   -0.5687   10.0924 H   0  0  0  0  0  0  0  0  0  0  0  0
    8.2519   -1.7682    9.8042 H   0  0  0  0  0  0  0  0  0  0  0  0
    5.7443    2.9868    5.1562 H   0  0  0  0  0  0  0  0  0  0  0  0
    4.6166    5.1328    5.9810 H   0  0  0  0  0  0  0  0  0  0  0  0
  1  2  1  0  0  0  0
  1 27  1  0  0  0  0
  1 28  1  0  0  0  0
  1 29  1  0  0  0  0
  2  3  1  0  0  0  0
  2 30  1  0  0  0  0
  2 31  1  0  0  0  0
  3  4  1  0  0  0  0
  3 32  1  0  0  0  0
  3 33  1  0  0  0  0
  4  5  1  0  0  0  0
  4 26  1  0  0  0  0
  4 34  1  0  0  0  0
  5  6  2  0  0  0  0
  5 35  1  0  0  0  0
  6  7  1  0  0  0  0
  6 25  1  0  0  0  0
  7  8  1  0  0  0  0
  7 36  1  0  0  0  0
  7 37  1  0  0  0  0
  8  9  1  0  0  0  0
  9 10  1  0  0  0  0
  9 24  1  0  0  0  0
  9 38  1  0  0  0  0
 10 11  2  3  0  0  0
 10 39  1  0  0  0  0
 11 12  1  0  0  0  0
 11 40  1  0  0  0  0
 12 13  2  0  0  0  0
 12 14  1  0  0  0  0
 14 15  2  3  0  0  0
 14 41  1  0  0  0  0
 15 16  1  0  0  0  0
 15 42  1  0  0  0  0
 16 17  2  3  0  0  0
 16 43  1  0  0  0  0
 17 18  1  0  0  0  0
 17 44  1  0  0  0  0
 18 19  1  0  0  0  0
 18 45  1  0  0  0  0
 19 20  1  0  0  0  0
 19 46  1  0  0  0  0
 19 47  1  0  0  0  0
 20 21  2  3  0  0  0
 20 48  1  0  0  0  0
 21 22  1  0  0  0  0
 21 49  1  0  0  0  0
 22 23  1  0  0  0  0
 22 50  1  0  0  0  0
 22 51  1  0  0  0  0
 23 24  1  0  0  0  0
 23 52  1  0  0  0  0
 23 53  1  0  0  0  0
 24 54  1  0  0  0  0
 24 55  1  0  0  0  0
 25 26  2  0  0  0  0
 25 56  1  0  0  0  0
 26 57  1  0  0  0  0
M  END
$$$$
