
 OpenBabel04232216473D

233233  0  0  1  0  0  0  0  0999 V2000
    6.0160  -18.7567   -2.5084 C   0  0  0  0  0  0  0  0  0  0  0  0
    6.3622  -18.1886   -1.1718 C   0  0  3  0  0  0  0  0  0  0  0  0
    7.1691  -18.8229   -0.2859 C   0  0  0  0  0  0  0  0  0  0  0  0
    5.9466  -19.0037    0.1401 C   0  0  0  0  0  0  0  0  0  0  0  0
    4.4493  -18.8825    0.1926 C   0  0  0  0  0  0  0  0  0  0  0  0
    3.8300  -18.9023    1.5963 C   0  0  0  0  0  0  0  0  0  0  0  0
    2.2904  -18.7742    1.5762 C   0  0  0  0  0  0  0  0  0  0  0  0
    1.6898  -18.7946    2.9968 C   0  0  0  0  0  0  0  0  0  0  0  0
    2.1923  -17.6503    3.8889 C   0  0  0  0  0  0  0  0  0  0  0  0
    1.5773  -17.7501    5.2164 N   0  0  0  0  0  0  0  0  0  0  0  0
    2.0730  -16.6712    6.0267 N   0  0  0  0  0  0  0  0  0  0  0  0
    1.4564  -16.7756    7.3494 C   0  0  0  0  0  0  0  0  0  0  0  0
    1.9622  -15.6378    8.2330 C   0  0  0  0  0  0  0  0  0  0  0  0
    1.3370  -15.7189    9.6213 C   0  0  0  0  0  0  0  0  0  0  0  0
    1.8416  -14.5853   10.5011 C   0  0  0  0  0  0  0  0  0  0  0  0
    1.2152  -14.6707   11.8824 C   0  0  0  0  0  0  0  0  0  0  0  0
    1.7204  -13.5334   12.7553 C   0  0  0  0  0  0  0  0  0  0  0  0
    1.0929  -13.6145   14.1279 C   0  0  0  0  0  0  0  0  0  0  0  0
    1.5969  -12.4835   15.0115 C   0  0  0  0  0  0  0  0  0  0  0  0
    0.9725  -12.5727   16.3933 C   0  0  0  0  0  0  0  0  0  0  0  0
    1.3349  -13.8936   17.0533 C   0  0  0  0  0  0  0  0  0  0  0  0
    0.7065  -13.9866   18.4231 C   0  0  0  0  0  0  0  0  0  0  0  0
    1.0705  -15.3108   19.0682 C   0  0  0  0  0  0  0  0  0  0  0  0
    0.4444  -15.4000   20.4410 C   0  0  0  0  0  0  0  0  0  0  0  0
    0.8074  -16.7210   21.0918 C   0  0  0  0  0  0  0  0  0  0  0  0
    0.1801  -16.8089   22.4697 C   0  0  0  0  0  0  0  0  0  0  0  0
    0.5455  -18.1302   23.1181 C   0  0  0  0  0  0  0  0  0  0  0  0
   -0.0818  -18.2182   24.4960 C   0  0  0  0  0  0  0  0  0  0  0  0
    0.2821  -19.5403   25.1436 C   0  0  0  0  0  0  0  0  0  0  0  0
   -0.3468  -19.6291   26.5206 C   0  0  0  0  0  0  0  0  0  0  0  0
    0.0172  -20.9514   27.1681 C   0  0  0  0  0  0  0  0  0  0  0  0
   -0.6102  -21.0392   28.5459 C   0  0  0  0  0  0  0  0  0  0  0  0
   -0.2447  -22.3606   29.1943 C   0  0  0  0  0  0  0  0  0  0  0  0
   -0.8721  -22.4483   30.5722 C   0  0  0  0  0  0  0  0  0  0  0  0
   -0.5067  -23.7697   31.2208 C   0  0  0  0  0  0  0  0  0  0  0  0
   -1.1341  -23.8575   32.5989 C   0  0  0  0  0  0  0  0  0  0  0  0
   -0.7686  -25.1790   33.2474 C   0  0  0  0  0  0  0  0  0  0  0  0
   -1.3959  -25.2671   34.6255 C   0  0  0  0  0  0  0  0  0  0  0  0
   -1.0306  -26.5884   35.2743 C   0  0  0  0  0  0  0  0  0  0  0  0
   -1.6564  -26.6754   36.6531 C   0  0  0  0  0  0  0  0  0  0  0  0
   -1.2923  -27.9979   37.3007 C   0  0  0  0  0  0  0  0  0  0  0  0
   -1.9183  -28.0847   38.6796 C   0  0  0  0  0  0  0  0  0  0  0  0
   -1.5540  -29.4075   39.3270 C   0  0  0  0  0  0  0  0  0  0  0  0
   -2.1802  -29.4940   40.7062 C   0  0  0  0  0  0  0  0  0  0  0  0
   -1.8142  -30.8160   41.3543 C   0  0  0  0  0  0  0  0  0  0  0  0
   -2.4421  -30.9033   42.7327 C   0  0  0  0  0  0  0  0  0  0  0  0
   -2.0744  -32.2245   43.3815 C   0  0  0  0  0  0  0  0  0  0  0  0
   -2.7007  -32.3109   44.7606 C   0  0  0  0  0  0  0  0  0  0  0  0
   -2.3314  -33.6311   45.4102 C   0  0  0  0  0  0  0  0  0  0  0  0
   -2.9591  -33.7184   46.7884 C   0  0  0  0  0  0  0  0  0  0  0  0
   -2.5900  -35.0384   47.4382 C   0  0  0  0  0  0  0  0  0  0  0  0
   -3.2178  -35.1259   48.8165 C   0  0  0  0  0  0  0  0  0  0  0  0
   -2.8504  -36.4467   49.4655 C   0  0  0  0  0  0  0  0  0  0  0  0
   -3.4778  -36.5345   50.8434 C   0  0  0  0  0  0  0  0  0  0  0  0
   -3.1105  -37.8551   51.4925 C   0  0  0  0  0  0  0  0  0  0  0  0
   -3.7364  -37.9419   52.8712 C   0  0  0  0  0  0  0  0  0  0  0  0
   -3.3687  -39.2626   53.5197 C   0  0  0  0  0  0  0  0  0  0  0  0
   -3.9959  -39.3508   54.8978 C   0  0  0  0  0  0  0  0  0  0  0  0
   -3.6271  -40.6706   55.5477 C   0  0  0  0  0  0  0  0  0  0  0  0
   -4.2528  -40.7577   56.9265 C   0  0  0  0  0  0  0  0  0  0  0  0
   -3.8861  -42.0780   57.5765 C   0  0  0  0  0  0  0  0  0  0  0  0
   -4.5104  -42.1638   58.9559 C   0  0  0  0  0  0  0  0  0  0  0  0
   -4.1418  -43.4832   59.6061 C   0  0  0  0  0  0  0  0  0  0  0  0
   -4.7669  -43.5707   60.9843 C   0  0  0  0  0  0  0  0  0  0  0  0
   -4.3963  -44.8894   61.6344 C   0  0  0  0  0  0  0  0  0  0  0  0
   -5.0204  -44.9751   63.0135 C   0  0  0  0  0  0  0  0  0  0  0  0
   -4.6498  -46.2934   63.6636 C   0  0  0  0  0  0  0  0  0  0  0  0
   -5.2715  -46.3799   65.0434 C   0  0  0  0  0  0  0  0  0  0  0  0
   -4.9010  -47.6996   65.6913 C   0  0  0  0  0  0  0  0  0  0  0  0
   -5.5224  -47.7880   67.0692 C   0  0  0  0  0  0  0  0  0  0  0  0
   -5.1579  -49.1011   67.7258 C   0  0  0  0  0  0  0  0  0  0  0  0
   -5.7774  -49.1836   69.1051 C   0  0  0  0  0  0  0  0  0  0  0  0
   -5.4156  -50.5018   69.7614 C   0  0  0  0  0  0  0  0  0  0  0  0
   -6.0377  -50.5829   71.1434 C   0  0  0  0  0  0  0  0  0  0  0  0
   -5.6756  -51.9054   71.7972 C   0  0  0  0  0  0  0  0  0  0  0  0
   -6.2928  -51.9985   73.1836 C   0  0  0  0  0  0  0  0  0  0  0  0
   -5.9280  -53.3236   73.8367 C   0  0  0  0  0  0  0  0  0  0  0  0
   -6.5440  -53.4293   75.2257 C   0  0  0  0  0  0  0  0  0  0  0  0
   -6.1780  -54.7513   75.8738 C   0  0  0  0  0  0  0  0  0  0  0  0
    6.6287  -18.2908   -3.2866 H   0  0  0  0  0  0  0  0  0  0  0  0
    4.9663  -18.5560   -2.7427 H   0  0  0  0  0  0  0  0  0  0  0  0
    6.1737  -19.8397   -2.5525 H   0  0  0  0  0  0  0  0  0  0  0  0
    6.2327  -17.1156   -1.0903 H   0  0  0  0  0  0  0  0  0  0  0  0
    8.2065  -19.0420   -0.1214 H   0  0  0  0  0  0  0  0  0  0  0  0
    4.0175  -19.7191   -0.3710 H   0  0  0  0  0  0  0  0  0  0  0  0
    4.1351  -17.9557   -0.3027 H   0  0  0  0  0  0  0  0  0  0  0  0
    4.2551  -18.0773    2.1776 H   0  0  0  0  0  0  0  0  0  0  0  0
    4.0974  -19.8339    2.1072 H   0  0  0  0  0  0  0  0  0  0  0  0
    1.8531  -19.5950    0.9976 H   0  0  0  0  0  0  0  0  0  0  0  0
    1.9942  -17.8441    1.0759 H   0  0  0  0  0  0  0  0  0  0  0  0
    1.9250  -19.7578    3.4671 H   0  0  0  0  0  0  0  0  0  0  0  0
    0.5957  -18.7386    2.9221 H   0  0  0  0  0  0  0  0  0  0  0  0
    1.9375  -16.6908    3.4234 H   0  0  0  0  0  0  0  0  0  0  0  0
    3.2817  -17.7027    3.9871 H   0  0  0  0  0  0  0  0  0  0  0  0
    1.8524  -18.6370    5.6413 H   0  0  0  0  0  0  0  0  0  0  0  0
    1.8018  -15.7812    5.6073 H   0  0  0  0  0  0  0  0  0  0  0  0
    1.7124  -17.7339    7.8191 H   0  0  0  0  0  0  0  0  0  0  0  0
    0.3629  -16.7173    7.2730 H   0  0  0  0  0  0  0  0  0  0  0  0
    1.7177  -14.6686    7.7799 H   0  0  0  0  0  0  0  0  0  0  0  0
    3.0550  -15.6875    8.3216 H   0  0  0  0  0  0  0  0  0  0  0  0
    1.5814  -16.6823   10.0855 H   0  0  0  0  0  0  0  0  0  0  0  0
    0.2442  -15.6655    9.5423 H   0  0  0  0  0  0  0  0  0  0  0  0
    1.5965  -13.6187   10.0439 H   0  0  0  0  0  0  0  0  0  0  0  0
    2.9341  -14.6355   10.5870 H   0  0  0  0  0  0  0  0  0  0  0  0
    1.4609  -15.6342   12.3476 H   0  0  0  0  0  0  0  0  0  0  0  0
    0.1221  -14.6194   11.8038 H   0  0  0  0  0  0  0  0  0  0  0  0
    1.4749  -12.5708   12.2947 H   0  0  0  0  0  0  0  0  0  0  0  0
    2.8126  -13.5861   12.8422 H   0  0  0  0  0  0  0  0  0  0  0  0
    1.3462  -14.5883   14.5580 H   0  0  0  0  0  0  0  0  0  0  0  0
   -0.0009  -13.5716   14.0556 H   0  0  0  0  0  0  0  0  0  0  0  0
    1.3503  -11.5194   14.5560 H   0  0  0  0  0  0  0  0  0  0  0  0
    2.6904  -12.5347   15.0963 H   0  0  0  0  0  0  0  0  0  0  0  0
   -0.1188  -12.4828   16.3132 H   0  0  0  0  0  0  0  0  0  0  0  0
    1.3230  -11.7411   17.0130 H   0  0  0  0  0  0  0  0  0  0  0  0
    2.4256  -13.9902   17.1220 H   0  0  0  0  0  0  0  0  0  0  0  0
    0.9762  -14.7394   16.4592 H   0  0  0  0  0  0  0  0  0  0  0  0
   -0.3821  -13.8958   18.3444 H   0  0  0  0  0  0  0  0  0  0  0  0
    1.0540  -13.1581   19.0488 H   0  0  0  0  0  0  0  0  0  0  0  0
    2.1613  -15.4013   19.1451 H   0  0  0  0  0  0  0  0  0  0  0  0
    0.7206  -16.1422   18.4420 H   0  0  0  0  0  0  0  0  0  0  0  0
   -0.6469  -15.3085   20.3653 H   0  0  0  0  0  0  0  0  0  0  0  0
    0.7938  -14.5676   21.0685 H   0  0  0  0  0  0  0  0  0  0  0  0
    1.8978  -16.8114   21.1708 H   0  0  0  0  0  0  0  0  0  0  0  0
    0.4572  -17.5524   20.4676 H   0  0  0  0  0  0  0  0  0  0  0  0
   -0.9105  -16.7200   22.3907 H   0  0  0  0  0  0  0  0  0  0  0  0
    0.5292  -15.9768   23.0937 H   0  0  0  0  0  0  0  0  0  0  0  0
    1.6361  -18.2192   23.1972 H   0  0  0  0  0  0  0  0  0  0  0  0
    0.1964  -18.9624   22.4943 H   0  0  0  0  0  0  0  0  0  0  0  0
   -1.1723  -18.1278   24.4171 H   0  0  0  0  0  0  0  0  0  0  0  0
    0.2684  -17.3868   25.1203 H   0  0  0  0  0  0  0  0  0  0  0  0
    1.3725  -19.6300   25.2238 H   0  0  0  0  0  0  0  0  0  0  0  0
   -0.0669  -20.3716   24.5186 H   0  0  0  0  0  0  0  0  0  0  0  0
   -1.4373  -19.5394   26.4405 H   0  0  0  0  0  0  0  0  0  0  0  0
    0.0021  -18.7979   27.1457 H   0  0  0  0  0  0  0  0  0  0  0  0
    1.1076  -21.0418   27.2469 H   0  0  0  0  0  0  0  0  0  0  0  0
   -0.3330  -21.7827   26.5437 H   0  0  0  0  0  0  0  0  0  0  0  0
   -1.7008  -20.9502   28.4669 H   0  0  0  0  0  0  0  0  0  0  0  0
   -0.2612  -20.2071   29.1698 H   0  0  0  0  0  0  0  0  0  0  0  0
    0.8459  -22.4495   29.2735 H   0  0  0  0  0  0  0  0  0  0  0  0
   -0.5938  -23.1927   28.5705 H   0  0  0  0  0  0  0  0  0  0  0  0
   -1.9626  -22.3592   30.4930 H   0  0  0  0  0  0  0  0  0  0  0  0
   -0.5230  -21.6160   31.1958 H   0  0  0  0  0  0  0  0  0  0  0  0
    0.5839  -23.8587   31.2999 H   0  0  0  0  0  0  0  0  0  0  0  0
   -0.8557  -24.6018   30.5970 H   0  0  0  0  0  0  0  0  0  0  0  0
   -2.2246  -23.7685   32.5198 H   0  0  0  0  0  0  0  0  0  0  0  0
   -0.7850  -23.0254   33.2226 H   0  0  0  0  0  0  0  0  0  0  0  0
    0.3220  -25.2679   33.3264 H   0  0  0  0  0  0  0  0  0  0  0  0
   -1.1177  -26.0111   32.6235 H   0  0  0  0  0  0  0  0  0  0  0  0
   -2.4865  -25.1782   34.5465 H   0  0  0  0  0  0  0  0  0  0  0  0
   -1.0468  -24.4350   35.2493 H   0  0  0  0  0  0  0  0  0  0  0  0
    0.0600  -26.6782   35.3523 H   0  0  0  0  0  0  0  0  0  0  0  0
   -1.3810  -27.4206   34.6513 H   0  0  0  0  0  0  0  0  0  0  0  0
   -2.7469  -26.5845   36.5755 H   0  0  0  0  0  0  0  0  0  0  0  0
   -1.3049  -25.8441   37.2767 H   0  0  0  0  0  0  0  0  0  0  0  0
   -0.2019  -28.0888   37.3782 H   0  0  0  0  0  0  0  0  0  0  0  0
   -1.6439  -28.8291   36.6771 H   0  0  0  0  0  0  0  0  0  0  0  0
   -3.0086  -27.9938   38.6019 H   0  0  0  0  0  0  0  0  0  0  0  0
   -1.5667  -27.2536   39.3031 H   0  0  0  0  0  0  0  0  0  0  0  0
   -0.4638  -29.4983   39.4047 H   0  0  0  0  0  0  0  0  0  0  0  0
   -1.9056  -30.2386   38.7036 H   0  0  0  0  0  0  0  0  0  0  0  0
   -3.2705  -29.4046   40.6283 H   0  0  0  0  0  0  0  0  0  0  0  0
   -1.8297  -28.6622   41.3292 H   0  0  0  0  0  0  0  0  0  0  0  0
   -0.7239  -30.9047   41.4335 H   0  0  0  0  0  0  0  0  0  0  0  0
   -2.1635  -31.6479   40.7308 H   0  0  0  0  0  0  0  0  0  0  0  0
   -3.5325  -30.8161   42.6534 H   0  0  0  0  0  0  0  0  0  0  0  0
   -2.0939  -30.0707   43.3559 H   0  0  0  0  0  0  0  0  0  0  0  0
   -0.9840  -32.3124   43.4596 H   0  0  0  0  0  0  0  0  0  0  0  0
   -2.4238  -33.0571   42.7591 H   0  0  0  0  0  0  0  0  0  0  0  0
   -3.7912  -32.2244   44.6824 H   0  0  0  0  0  0  0  0  0  0  0  0
   -2.3524  -31.4774   45.3827 H   0  0  0  0  0  0  0  0  0  0  0  0
   -1.2407  -33.7170   45.4896 H   0  0  0  0  0  0  0  0  0  0  0  0
   -2.6784  -34.4647   44.7874 H   0  0  0  0  0  0  0  0  0  0  0  0
   -4.0498  -33.6325   46.7089 H   0  0  0  0  0  0  0  0  0  0  0  0
   -2.6121  -32.8848   47.4112 H   0  0  0  0  0  0  0  0  0  0  0  0
   -1.4995  -35.1244   47.5177 H   0  0  0  0  0  0  0  0  0  0  0  0
   -2.9370  -35.8720   46.8155 H   0  0  0  0  0  0  0  0  0  0  0  0
   -4.3083  -35.0386   48.7372 H   0  0  0  0  0  0  0  0  0  0  0  0
   -2.8697  -34.2931   49.4397 H   0  0  0  0  0  0  0  0  0  0  0  0
   -1.7598  -36.5341   49.5448 H   0  0  0  0  0  0  0  0  0  0  0  0
   -3.1985  -37.2795   48.8423 H   0  0  0  0  0  0  0  0  0  0  0  0
   -4.5684  -36.4472   50.7643 H   0  0  0  0  0  0  0  0  0  0  0  0
   -3.1297  -35.7018   51.4669 H   0  0  0  0  0  0  0  0  0  0  0  0
   -2.0198  -37.9433   51.5705 H   0  0  0  0  0  0  0  0  0  0  0  0
   -3.4597  -38.6881   50.8699 H   0  0  0  0  0  0  0  0  0  0  0  0
   -4.8271  -37.8538   52.7934 H   0  0  0  0  0  0  0  0  0  0  0  0
   -3.3872  -37.1090   53.4939 H   0  0  0  0  0  0  0  0  0  0  0  0
   -2.2780  -39.3497   53.5986 H   0  0  0  0  0  0  0  0  0  0  0  0
   -3.7168  -40.0953   52.8961 H   0  0  0  0  0  0  0  0  0  0  0  0
   -5.0866  -39.2648   54.8184 H   0  0  0  0  0  0  0  0  0  0  0  0
   -3.6491  -38.5171   55.5206 H   0  0  0  0  0  0  0  0  0  0  0  0
   -2.5362  -40.7572   55.6256 H   0  0  0  0  0  0  0  0  0  0  0  0
   -3.9752  -41.5042   54.9252 H   0  0  0  0  0  0  0  0  0  0  0  0
   -5.3435  -40.6695   56.8487 H   0  0  0  0  0  0  0  0  0  0  0  0
   -3.9036  -39.9247   57.5491 H   0  0  0  0  0  0  0  0  0  0  0  0
   -2.7953  -42.1669   57.6533 H   0  0  0  0  0  0  0  0  0  0  0  0
   -4.2366  -42.9111   56.9547 H   0  0  0  0  0  0  0  0  0  0  0  0
   -5.6013  -42.0764   58.8793 H   0  0  0  0  0  0  0  0  0  0  0  0
   -4.1611  -41.3300   59.5776 H   0  0  0  0  0  0  0  0  0  0  0  0
   -3.0508  -43.5700   59.6841 H   0  0  0  0  0  0  0  0  0  0  0  0
   -4.4898  -44.3172   58.9839 H   0  0  0  0  0  0  0  0  0  0  0  0
   -5.8582  -43.4856   60.9068 H   0  0  0  0  0  0  0  0  0  0  0  0
   -4.4200  -42.7363   61.6067 H   0  0  0  0  0  0  0  0  0  0  0  0
   -3.3052  -44.9755   61.7112 H   0  0  0  0  0  0  0  0  0  0  0  0
   -4.7446  -45.7241   61.0134 H   0  0  0  0  0  0  0  0  0  0  0  0
   -6.1114  -44.8892   62.9367 H   0  0  0  0  0  0  0  0  0  0  0  0
   -4.6719  -44.1405   63.6345 H   0  0  0  0  0  0  0  0  0  0  0  0
   -3.5587  -46.3801   63.7394 H   0  0  0  0  0  0  0  0  0  0  0  0
   -4.9994  -47.1282   63.0434 H   0  0  0  0  0  0  0  0  0  0  0  0
   -6.3628  -46.2924   64.9693 H   0  0  0  0  0  0  0  0  0  0  0  0
   -4.9210  -45.5465   65.6655 H   0  0  0  0  0  0  0  0  0  0  0  0
   -3.8093  -47.7875   65.7635 H   0  0  0  0  0  0  0  0  0  0  0  0
   -5.2513  -48.5331   65.0677 H   0  0  0  0  0  0  0  0  0  0  0  0
   -6.6141  -47.6956   66.9942 H   0  0  0  0  0  0  0  0  0  0  0  0
   -5.1727  -46.9491   67.6906 H   0  0  0  0  0  0  0  0  0  0  0  0
   -4.0657  -49.1956   67.7998 H   0  0  0  0  0  0  0  0  0  0  0  0
   -5.5105  -49.9400   67.1075 H   0  0  0  0  0  0  0  0  0  0  0  0
   -6.8686  -49.0899   69.0301 H   0  0  0  0  0  0  0  0  0  0  0  0
   -5.4228  -48.3481   69.7230 H   0  0  0  0  0  0  0  0  0  0  0  0
   -4.3242  -50.5937   69.8354 H   0  0  0  0  0  0  0  0  0  0  0  0
   -5.7687  -51.3352   69.1414 H   0  0  0  0  0  0  0  0  0  0  0  0
   -7.1286  -50.4893   71.0663 H   0  0  0  0  0  0  0  0  0  0  0  0
   -5.6837  -49.7487   71.7610 H   0  0  0  0  0  0  0  0  0  0  0  0
   -4.5841  -51.9966   71.8667 H   0  0  0  0  0  0  0  0  0  0  0  0
   -6.0302  -52.7351   71.1733 H   0  0  0  0  0  0  0  0  0  0  0  0
   -7.3837  -51.9061   73.1097 H   0  0  0  0  0  0  0  0  0  0  0  0
   -5.9382  -51.1661   73.8034 H   0  0  0  0  0  0  0  0  0  0  0  0
   -4.8364  -53.4117   73.9059 H   0  0  0  0  0  0  0  0  0  0  0  0
   -6.2791  -54.1525   73.2096 H   0  0  0  0  0  0  0  0  0  0  0  0
   -7.6349  -53.3442   75.1576 H   0  0  0  0  0  0  0  0  0  0  0  0
   -6.1917  -52.6031   75.8542 H   0  0  0  0  0  0  0  0  0  0  0  0
   -6.5422  -55.5916   75.2740 H   0  0  0  0  0  0  0  0  0  0  0  0
   -6.6227  -54.8217   76.8699 H   0  0  0  0  0  0  0  0  0  0  0  0
   -5.0922  -54.8469   75.9740 H   0  0  0  0  0  0  0  0  0  0  0  0
  1  2  1  0  0  0  0
  1 80  1  0  0  0  0
  1 81  1  0  0  0  0
  1 82  1  0  0  0  0
  2  3  1  0  0  0  0
  2  4  1  0  0  0  0
  2 83  1  0  0  0  0
  3  4  2  0  0  0  0
  3 84  1  0  0  0  0
  4  5  1  0  0  0  0
  5  6  1  0  0  0  0
  5 85  1  0  0  0  0
  5 86  1  0  0  0  0
  6  7  1  0  0  0  0
  6 87  1  0  0  0  0
  6 88  1  0  0  0  0
  7  8  1  0  0  0  0
  7 89  1  0  0  0  0
  7 90  1  0  0  0  0
  8  9  1  0  0  0  0
  8 91  1  0  0  0  0
  8 92  1  0  0  0  0
  9 10  1  0  0  0  0
  9 93  1  0  0  0  0
  9 94  1  0  0  0  0
 10 11  1  0  0  0  0
 10 95  1  0  0  0  0
 11 12  1  0  0  0  0
 11 96  1  0  0  0  0
 12 13  1  0  0  0  0
 12 97  1  0  0  0  0
 12 98  1  0  0  0  0
 13 14  1  0  0  0  0
 13 99  1  0  0  0  0
 13100  1  0  0  0  0
 14 15  1  0  0  0  0
 14101  1  0  0  0  0
 14102  1  0  0  0  0
 15 16  1  0  0  0  0
 15103  1  0  0  0  0
 15104  1  0  0  0  0
 16 17  1  0  0  0  0
 16105  1  0  0  0  0
 16106  1  0  0  0  0
 17 18  1  0  0  0  0
 17107  1  0  0  0  0
 17108  1  0  0  0  0
 18 19  1  0  0  0  0
 18109  1  0  0  0  0
 18110  1  0  0  0  0
 19 20  1  0  0  0  0
 19111  1  0  0  0  0
 19112  1  0  0  0  0
 20 21  1  0  0  0  0
 20113  1  0  0  0  0
 20114  1  0  0  0  0
 21 22  1  0  0  0  0
 21115  1  0  0  0  0
 21116  1  0  0  0  0
 22 23  1  0  0  0  0
 22117  1  0  0  0  0
 22118  1  0  0  0  0
 23 24  1  0  0  0  0
 23119  1  0  0  0  0
 23120  1  0  0  0  0
 24 25  1  0  0  0  0
 24121  1  0  0  0  0
 24122  1  0  0  0  0
 25 26  1  0  0  0  0
 25123  1  0  0  0  0
 25124  1  0  0  0  0
 26 27  1  0  0  0  0
 26125  1  0  0  0  0
 26126  1  0  0  0  0
 27 28  1  0  0  0  0
 27127  1  0  0  0  0
 27128  1  0  0  0  0
 28 29  1  0  0  0  0
 28129  1  0  0  0  0
 28130  1  0  0  0  0
 29 30  1  0  0  0  0
 29131  1  0  0  0  0
 29132  1  0  0  0  0
 30 31  1  0  0  0  0
 30133  1  0  0  0  0
 30134  1  0  0  0  0
 31 32  1  0  0  0  0
 31135  1  0  0  0  0
 31136  1  0  0  0  0
 32 33  1  0  0  0  0
 32137  1  0  0  0  0
 32138  1  0  0  0  0
 33 34  1  0  0  0  0
 33139  1  0  0  0  0
 33140  1  0  0  0  0
 34 35  1  0  0  0  0
 34141  1  0  0  0  0
 34142  1  0  0  0  0
 35 36  1  0  0  0  0
 35143  1  0  0  0  0
 35144  1  0  0  0  0
 36 37  1  0  0  0  0
 36145  1  0  0  0  0
 36146  1  0  0  0  0
 37 38  1  0  0  0  0
 37147  1  0  0  0  0
 37148  1  0  0  0  0
 38 39  1  0  0  0  0
 38149  1  0  0  0  0
 38150  1  0  0  0  0
 39 40  1  0  0  0  0
 39151  1  0  0  0  0
 39152  1  0  0  0  0
 40 41  1  0  0  0  0
 40153  1  0  0  0  0
 40154  1  0  0  0  0
 41 42  1  0  0  0  0
 41155  1  0  0  0  0
 41156  1  0  0  0  0
 42 43  1  0  0  0  0
 42157  1  0  0  0  0
 42158  1  0  0  0  0
 43 44  1  0  0  0  0
 43159  1  0  0  0  0
 43160  1  0  0  0  0
 44 45  1  0  0  0  0
 44161  1  0  0  0  0
 44162  1  0  0  0  0
 45 46  1  0  0  0  0
 45163  1  0  0  0  0
 45164  1  0  0  0  0
 46 47  1  0  0  0  0
 46165  1  0  0  0  0
 46166  1  0  0  0  0
 47 48  1  0  0  0  0
 47167  1  0  0  0  0
 47168  1  0  0  0  0
 48 49  1  0  0  0  0
 48169  1  0  0  0  0
 48170  1  0  0  0  0
 49 50  1  0  0  0  0
 49171  1  0  0  0  0
 49172  1  0  0  0  0
 50 51  1  0  0  0  0
 50173  1  0  0  0  0
 50174  1  0  0  0  0
 51 52  1  0  0  0  0
 51175  1  0  0  0  0
 51176  1  0  0  0  0
 52 53  1  0  0  0  0
 52177  1  0  0  0  0
 52178  1  0  0  0  0
 53 54  1  0  0  0  0
 53179  1  0  0  0  0
 53180  1  0  0  0  0
 54 55  1  0  0  0  0
 54181  1  0  0  0  0
 54182  1  0  0  0  0
 55 56  1  0  0  0  0
 55183  1  0  0  0  0
 55184  1  0  0  0  0
 56 57  1  0  0  0  0
 56185  1  0  0  0  0
 56186  1  0  0  0  0
 57 58  1  0  0  0  0
 57187  1  0  0  0  0
 57188  1  0  0  0  0
 58 59  1  0  0  0  0
 58189  1  0  0  0  0
 58190  1  0  0  0  0
 59 60  1  0  0  0  0
 59191  1  0  0  0  0
 59192  1  0  0  0  0
 60 61  1  0  0  0  0
 60193  1  0  0  0  0
 60194  1  0  0  0  0
 61 62  1  0  0  0  0
 61195  1  0  0  0  0
 61196  1  0  0  0  0
 62 63  1  0  0  0  0
 62197  1  0  0  0  0
 62198  1  0  0  0  0
 63 64  1  0  0  0  0
 63199  1  0  0  0  0
 63200  1  0  0  0  0
 64 65  1  0  0  0  0
 64201  1  0  0  0  0
 64202  1  0  0  0  0
 65 66  1  0  0  0  0
 65203  1  0  0  0  0
 65204  1  0  0  0  0
 66 67  1  0  0  0  0
 66205  1  0  0  0  0
 66206  1  0  0  0  0
 67 68  1  0  0  0  0
 67207  1  0  0  0  0
 67208  1  0  0  0  0
 68 69  1  0  0  0  0
 68209  1  0  0  0  0
 68210  1  0  0  0  0
 69 70  1  0  0  0  0
 69211  1  0  0  0  0
 69212  1  0  0  0  0
 70 71  1  0  0  0  0
 70213  1  0  0  0  0
 70214  1  0  0  0  0
 71 72  1  0  0  0  0
 71215  1  0  0  0  0
 71216  1  0  0  0  0
 72 73  1  0  0  0  0
 72217  1  0  0  0  0
 72218  1  0  0  0  0
 73 74  1  0  0  0  0
 73219  1  0  0  0  0
 73220  1  0  0  0  0
 74 75  1  0  0  0  0
 74221  1  0  0  0  0
 74222  1  0  0  0  0
 75 76  1  0  0  0  0
 75223  1  0  0  0  0
 75224  1  0  0  0  0
 76 77  1  0  0  0  0
 76225  1  0  0  0  0
 76226  1  0  0  0  0
 77 78  1  0  0  0  0
 77227  1  0  0  0  0
 77228  1  0  0  0  0
 78 79  1  0  0  0  0
 78229  1  0  0  0  0
 78230  1  0  0  0  0
 79231  1  0  0  0  0
 79232  1  0  0  0  0
 79233  1  0  0  0  0
M  END
$$$$
