
 OpenBabel04232216463D

 52 54  0  0  1  0  0  0  0  0999 V2000
    0.7439   -0.4866   -0.3266 C   0  0  0  0  0  0  0  0  0  0  0  0
    2.1542   -0.7803   -0.9132 C   0  0  0  0  0  0  0  0  0  0  0  0
    3.2553   -0.1718    0.1094 C   0  0  0  0  0  0  0  0  0  0  0  0
    4.5700   -0.1376    0.3470 C   0  0  0  0  0  0  0  0  0  0  0  0
    5.7112    0.3834    1.1921 C   0  0  3  0  0  0  0  0  0  0  0  0
    6.0817   -0.0818    2.5815 C   0  0  0  0  0  0  0  0  0  0  0  0
    7.3913    0.5274    3.1843 C   0  0  0  0  0  0  0  0  0  0  0  0
    7.3469    2.0235    3.5576 C   0  0  0  0  0  0  0  0  0  0  0  0
    8.6381    2.5258    4.2178 C   0  0  0  0  0  0  0  0  0  0  0  0
    5.9058   -0.3792   -0.0231 C   0  0  0  0  0  0  0  0  0  0  0  0
    6.7809   -0.6218   -0.8942 N   0  0  0  0  0  0  0  0  0  0  0  0
    6.2481   -0.7982   -2.1833 N   0  0  0  0  0  0  0  0  0  0  0  0
    5.0175   -0.1574   -2.4431 C   0  0  0  0  0  0  0  0  0  0  0  0
    6.7610   -1.6585   -3.1337 C   0  0  0  0  0  0  0  0  0  0  0  0
    6.3439   -2.1960   -4.3121 C   0  0  0  0  0  0  0  0  0  0  0  0
    7.4616   -2.5085   -5.1915 C   0  0  0  0  0  0  0  0  0  0  0  0
    7.5858   -3.6491   -5.8710 C   0  0  0  0  0  0  0  0  0  0  0  0
    8.1376   -3.6186   -7.2221 C   0  0  0  0  0  0  0  0  0  0  0  0
    7.3579   -2.9378   -8.0899 C   0  0  0  0  0  0  0  0  0  0  0  0
    6.0862   -3.5342   -8.4644 C   0  0  0  0  0  0  0  0  0  0  0  0
    4.9806   -3.6749   -7.6980 C   0  0  0  0  0  0  0  0  0  0  0  0
    4.5646   -3.4075   -6.2378 C   0  0  0  0  0  0  0  0  0  0  0  0
    4.7351   -1.8830   -5.2146 S   0  0  3  0  0  0  0  0  0  0  0  0
    3.4543   -2.2499   -3.7919 C   0  0  0  0  0  0  0  0  0  0  0  0
    2.8806   -1.2112   -3.2275 N   0  0  0  0  0  0  0  0  0  0  0  0
    2.0200   -1.3412   -2.1013 N   0  0  0  0  0  0  0  0  0  0  0  0
    0.7670   -0.0138    0.6651 H   0  0  0  0  0  0  0  0  0  0  0  0
    0.1523   -1.3976   -0.2584 H   0  0  0  0  0  0  0  0  0  0  0  0
    0.2274    0.2287   -0.9884 H   0  0  0  0  0  0  0  0  0  0  0  0
    2.7209    0.3673    0.9070 H   0  0  0  0  0  0  0  0  0  0  0  0
    5.8297    1.4580    1.1070 H   0  0  0  0  0  0  0  0  0  0  0  0
    6.2090   -1.1703    2.5781 H   0  0  0  0  0  0  0  0  0  0  0  0
    5.2598    0.1440    3.2659 H   0  0  0  0  0  0  0  0  0  0  0  0
    8.2322    0.3543    2.5012 H   0  0  0  0  0  0  0  0  0  0  0  0
    7.6231   -0.0254    4.1060 H   0  0  0  0  0  0  0  0  0  0  0  0
    6.5195    2.2104    4.2509 H   0  0  0  0  0  0  0  0  0  0  0  0
    7.1703    2.6271    2.6617 H   0  0  0  0  0  0  0  0  0  0  0  0
    8.8221    2.0339    5.1792 H   0  0  0  0  0  0  0  0  0  0  0  0
    8.5703    3.6051    4.4145 H   0  0  0  0  0  0  0  0  0  0  0  0
    9.5110    2.3646    3.5785 H   0  0  0  0  0  0  0  0  0  0  0  0
    4.8306    0.7993   -1.9224 H   0  0  0  0  0  0  0  0  0  0  0  0
    4.3633   -0.8972   -1.9775 H   0  0  0  0  0  0  0  0  0  0  0  0
    4.8090    0.0541   -3.4741 H   0  0  0  0  0  0  0  0  0  0  0  0
    7.7884   -1.8756   -2.8355 H   0  0  0  0  0  0  0  0  0  0  0  0
    8.0615   -1.6413   -5.4741 H   0  0  0  0  0  0  0  0  0  0  0  0
    6.9657   -4.5138   -5.6458 H   0  0  0  0  0  0  0  0  0  0  0  0
    8.5102   -4.6056   -7.5016 H   0  0  0  0  0  0  0  0  0  0  0  0
    7.1220   -1.8936   -7.8516 H   0  0  0  0  0  0  0  0  0  0  0  0
    6.0903   -3.9527   -9.4763 H   0  0  0  0  0  0  0  0  0  0  0  0
    4.1969   -4.2557   -8.1975 H   0  0  0  0  0  0  0  0  0  0  0  0
    3.9423   -4.2262   -5.8292 H   0  0  0  0  0  0  0  0  0  0  0  0
    3.2879   -3.2925   -3.4802 H   0  0  0  0  0  0  0  0  0  0  0  0
  1  2  1  0  0  0  0
  1 27  1  0  0  0  0
  1 28  1  0  0  0  0
  1 29  1  0  0  0  0
  2  3  1  0  0  0  0
  2 26  2  3  0  0  0
  3  4  2  3  0  0  0
  3 30  1  0  0  0  0
  4  5  1  0  0  0  0
  4 10  1  0  0  0  0
  5  6  1  0  0  0  0
  5 10  1  0  0  0  0
  5 31  1  0  0  0  0
  6  7  1  0  0  0  0
  6 32  1  0  0  0  0
  6 33  1  0  0  0  0
  7  8  1  0  0  0  0
  7 34  1  0  0  0  0
  7 35  1  0  0  0  0
  8  9  1  0  0  0  0
  8 36  1  0  0  0  0
  8 37  1  0  0  0  0
  9 38  1  0  0  0  0
  9 39  1  0  0  0  0
  9 40  1  0  0  0  0
 10 11  2  3  0  0  0
 11 12  1  0  0  0  0
 12 13  1  0  0  0  0
 12 14  1  0  0  0  0
 13 41  1  0  0  0  0
 13 42  1  0  0  0  0
 13 43  1  0  0  0  0
 14 15  2  3  0  0  0
 14 44  1  0  0  0  0
 15 16  1  0  0  0  0
 15 23  1  0  0  0  0
 16 17  2  3  0  0  0
 16 45  1  0  0  0  0
 17 18  1  0  0  0  0
 17 46  1  0  0  0  0
 18 19  2  3  0  0  0
 18 47  1  0  0  0  0
 19 20  1  0  0  0  0
 19 48  1  0  0  0  0
 20 21  2  3  0  0  0
 20 49  1  0  0  0  0
 21 22  1  0  0  0  0
 21 50  1  0  0  0  0
 22 23  2  3  0  0  0
 22 51  1  0  0  0  0
 23 24  1  0  0  0  0
 24 25  2  3  0  0  0
 24 52  1  0  0  0  0
 25 26  1  0  0  0  0
M  END
$$$$
