
 OpenBabel04232216473D

 59 60  0  0  1  0  0  0  0  0999 V2000
    5.0000   -1.4890   -0.5156 C   0  0  0  0  0  0  0  0  0  0  0  0
    6.4684   -1.5204   -1.3461 C   0  0  0  0  0  0  0  0  0  0  0  0
    5.9887   -2.1384   -2.6586 C   0  0  0  0  0  0  0  0  0  0  0  0
    7.0635   -2.7786   -2.3962 C   0  0  0  0  0  0  0  0  0  0  0  0
    8.0574   -1.6305   -3.1228 N   0  0  0  0  0  0  0  0  0  0  0  0
    8.6848   -0.2460   -2.4756 C   0  0  0  0  0  0  0  0  0  0  0  0
    7.8670    0.9390   -1.8023 C   0  0  0  0  0  0  0  0  0  0  0  0
    7.4985    1.1966   -0.2284 C   0  0  3  0  0  0  0  0  0  0  0  0
    6.6142    2.5365   -0.2105 C   0  0  0  0  0  0  0  0  0  0  0  0
    7.2677    3.8421   -0.6418 C   0  0  0  0  0  0  0  0  0  0  0  0
    6.6198    0.2020    0.6703 C   0  0  0  0  0  0  0  0  0  0  0  0
    7.0556   -1.3504    1.1708 C   0  0  0  0  0  0  0  0  0  0  0  0
    6.9368   -3.6121   -0.9553 N   0  0  0  0  0  0  0  0  0  0  0  0
    6.9647   -3.0755    0.4053 C   0  0  0  0  0  0  0  0  0  0  0  0
    7.2805   -4.1809    1.4176 C   0  0  0  0  0  0  0  0  0  0  0  0
    6.2612   -5.2792    1.3034 C   0  0  0  0  0  0  0  0  0  0  0  0
    8.5820   -4.2465    1.8008 C   0  0  0  0  0  0  0  0  0  0  0  0
    9.5187   -3.0327    2.0370 C   0  0  0  0  0  0  0  0  0  0  0  0
    9.3955   -5.5181    1.7045 C   0  0  0  0  0  0  0  0  0  0  0  0
    8.9238   -6.7709    0.9982 C   0  0  0  0  0  0  0  0  0  0  0  0
   10.7305   -5.3393    1.6419 C   0  0  0  0  0  0  0  0  0  0  0  0
   11.3479   -5.1912    0.3099 C   0  0  0  0  0  0  0  0  0  0  0  0
   10.9068   -4.5554   -0.8188 C   0  0  0  0  0  0  0  0  0  0  0  0
    9.5830   -3.8494   -1.1409 C   0  0  0  0  0  0  0  0  0  0  0  0
    9.2446   -2.5094   -0.9651 C   0  0  0  0  0  0  0  0  0  0  0  0
    7.8922   -1.5509   -0.7934 N   0  0  0  0  0  0  0  0  0  0  0  0
    4.5212   -2.4831   -0.5936 H   0  0  0  0  0  0  0  0  0  0  0  0
    4.3264   -0.7805   -1.0101 H   0  0  0  0  0  0  0  0  0  0  0  0
    4.9378   -1.3497    0.5644 H   0  0  0  0  0  0  0  0  0  0  0  0
    4.9592   -2.5043   -2.6012 H   0  0  0  0  0  0  0  0  0  0  0  0
    8.8692   -2.1912   -3.3427 H   0  0  0  0  0  0  0  0  0  0  0  0
    9.5124   -0.4337   -1.7834 H   0  0  0  0  0  0  0  0  0  0  0  0
    9.2424    0.1626   -3.3216 H   0  0  0  0  0  0  0  0  0  0  0  0
    7.0163    1.1985   -2.4346 H   0  0  0  0  0  0  0  0  0  0  0  0
    8.5856    1.7679   -1.9451 H   0  0  0  0  0  0  0  0  0  0  0  0
    8.4173    1.4091    0.3358 H   0  0  0  0  0  0  0  0  0  0  0  0
    6.2054    2.7115    0.7952 H   0  0  0  0  0  0  0  0  0  0  0  0
    5.7390    2.3770   -0.8567 H   0  0  0  0  0  0  0  0  0  0  0  0
    8.0571    4.1402    0.0529 H   0  0  0  0  0  0  0  0  0  0  0  0
    6.5140    4.6439   -0.6397 H   0  0  0  0  0  0  0  0  0  0  0  0
    7.6721    3.7927   -1.6539 H   0  0  0  0  0  0  0  0  0  0  0  0
    5.6420    0.3218    0.2103 H   0  0  0  0  0  0  0  0  0  0  0  0
    6.4387    0.7126    1.6271 H   0  0  0  0  0  0  0  0  0  0  0  0
    6.6938   -1.4786    2.1996 H   0  0  0  0  0  0  0  0  0  0  0  0
    8.1072   -1.0892    1.2516 H   0  0  0  0  0  0  0  0  0  0  0  0
    5.2555   -4.8713    1.3861 H   0  0  0  0  0  0  0  0  0  0  0  0
    6.3742   -6.0065    2.1098 H   0  0  0  0  0  0  0  0  0  0  0  0
    6.3132   -5.7806    0.3239 H   0  0  0  0  0  0  0  0  0  0  0  0
    9.0717   -2.0724    2.1433 H   0  0  0  0  0  0  0  0  0  0  0  0
   10.3043   -2.9059    1.2887 H   0  0  0  0  0  0  0  0  0  0  0  0
   10.0215   -3.1160    3.0053 H   0  0  0  0  0  0  0  0  0  0  0  0
    7.8620   -6.9685    0.9988 H   0  0  0  0  0  0  0  0  0  0  0  0
    9.3651   -7.6421    1.4997 H   0  0  0  0  0  0  0  0  0  0  0  0
    9.2499   -6.7944   -0.0458 H   0  0  0  0  0  0  0  0  0  0  0  0
   11.2503   -4.6906    2.3520 H   0  0  0  0  0  0  0  0  0  0  0  0
   12.3116   -5.7192    0.3089 H   0  0  0  0  0  0  0  0  0  0  0  0
   11.5429   -4.7265   -1.6932 H   0  0  0  0  0  0  0  0  0  0  0  0
    8.8658   -4.6061   -1.4742 H   0  0  0  0  0  0  0  0  0  0  0  0
   10.1513   -1.9219   -0.7991 H   0  0  0  0  0  0  0  0  0  0  0  0
  1  2  1  0  0  0  0
  1 27  1  0  0  0  0
  1 28  1  0  0  0  0
  1 29  1  0  0  0  0
  2  3  1  0  0  0  0
  2 26  2  0  0  0  0
  3  4  2  0  0  0  0
  3 30  1  0  0  0  0
  4  5  1  0  0  0  0
  4 13  1  0  0  0  0
  5  6  1  0  0  0  0
  5 31  1  0  0  0  0
  6  7  1  0  0  0  0
  6 32  1  0  0  0  0
  6 33  1  0  0  0  0
  7  8  1  0  0  0  0
  7 34  1  0  0  0  0
  7 35  1  0  0  0  0
  8  9  1  0  0  0  0
  8 11  1  0  0  0  0
  8 36  1  0  0  0  0
  9 10  1  0  0  0  0
  9 37  1  0  0  0  0
  9 38  1  0  0  0  0
 10 39  1  0  0  0  0
 10 40  1  0  0  0  0
 10 41  1  0  0  0  0
 11 12  1  0  0  0  0
 11 42  1  0  0  0  0
 11 43  1  0  0  0  0
 12 14  1  0  0  0  0
 12 44  1  0  0  0  0
 12 45  1  0  0  0  0
 13 14  2  0  0  0  0
 14 15  1  0  0  0  0
 15 16  1  0  0  0  0
 15 17  2  0  0  0  0
 16 46  1  0  0  0  0
 16 47  1  0  0  0  0
 16 48  1  0  0  0  0
 17 18  1  0  0  0  0
 17 19  1  0  0  0  0
 18 49  1  0  0  0  0
 18 50  1  0  0  0  0
 18 51  1  0  0  0  0
 19 20  1  0  0  0  0
 19 21  2  0  0  0  0
 20 52  1  0  0  0  0
 20 53  1  0  0  0  0
 20 54  1  0  0  0  0
 21 22  1  0  0  0  0
 21 55  1  0  0  0  0
 22 23  2  0  0  0  0
 22 56  1  0  0  0  0
 23 24  1  0  0  0  0
 23 57  1  0  0  0  0
 24 25  2  0  0  0  0
 24 58  1  0  0  0  0
 25 26  1  0  0  0  0
 25 59  1  0  0  0  0
M  END
$$$$
