
 OpenBabel04232216443D

 67 68  0  0  0  0  0  0  0  0999 V2000
   -1.6472    0.8804   -2.8146 C   0  0  0  0  0  0  0  0  0  0  0  0
   -0.5949    1.1796   -3.8730 C   0  0  0  0  0  0  0  0  0  0  0  0
    0.7644    0.8877   -2.8883 C   0  0  0  0  0  0  0  0  0  0  0  0
    0.5853    0.9208   -1.6538 O   0  0  0  0  0  0  0  0  0  0  0  0
    2.1538    0.4066   -3.2359 C   0  0  0  0  0  0  0  0  0  0  0  0
    3.3438    1.0707   -3.1736 C   0  0  0  0  0  0  0  0  0  0  0  0
    3.9940    2.2440   -2.3948 C   0  0  0  0  0  0  0  0  0  0  0  0
    2.9787    3.1229   -1.7251 C   0  0  0  0  0  0  0  0  0  0  0  0
    2.4011    3.9875   -2.8244 C   0  0  0  0  0  0  0  0  0  0  0  0
    0.9567    4.1866   -2.5684 C   0  0  0  0  0  0  0  0  0  0  0  0
    0.3632    4.9842   -3.6704 C   0  0  0  0  0  0  0  0  0  0  0  0
   -1.0928    4.7586   -3.4783 C   0  0  0  0  0  0  0  0  0  0  0  0
   -1.7949    5.4432   -4.5813 C   0  0  0  0  0  0  0  0  0  0  0  0
   -3.1965    5.4306   -4.1222 C   0  0  0  0  0  0  0  0  0  0  0  0
   -3.9833    6.1785   -5.1222 C   0  0  0  0  0  0  0  0  0  0  0  0
   -5.3819    5.9111   -4.7024 C   0  0  0  0  0  0  0  0  0  0  0  0
   -6.2839    6.4203   -5.7397 C   0  0  0  0  0  0  0  0  0  0  0  0
   -7.4507    5.4570   -5.6849 C   0  0  0  0  0  0  0  0  0  0  0  0
   -7.1834    4.4763   -6.8428 C   0  0  0  0  0  0  0  0  0  0  0  0
   -5.9789    3.2239   -6.5231 C   0  0  0  0  0  0  0  0  0  0  0  0
   -4.1534    2.9219   -6.6940 C   0  0  0  0  0  0  0  0  0  0  0  0
   -2.4678    2.4725   -5.8581 C   0  0  0  0  0  0  0  0  0  0  0  0
    3.8909    1.1109   -4.4884 C   0  0  0  0  0  0  0  0  0  0  0  0
    3.2470    1.6347   -5.5475 C   0  0  0  0  0  0  0  0  0  0  0  0
    1.8524    2.1678   -5.8787 C   0  0  0  0  0  0  0  0  0  0  0  0
    0.4842    2.2261   -5.8284 C   0  0  0  0  0  0  0  0  0  0  0  0
   -0.8604    1.6742   -5.1759 C   0  0  0  0  0  0  0  0  0  0  0  0
   -2.6716    0.8999   -3.1588 H   0  0  0  0  0  0  0  0  0  0  0  0
   -1.5500    1.6108   -1.9989 H   0  0  0  0  0  0  0  0  0  0  0  0
   -1.4536   -0.1157   -2.3795 H   0  0  0  0  0  0  0  0  0  0  0  0
    2.2688   -0.4202   -2.4975 H   0  0  0  0  0  0  0  0  0  0  0  0
    4.5475    2.8949   -3.0993 H   0  0  0  0  0  0  0  0  0  0  0  0
    4.7769    1.9287   -1.6952 H   0  0  0  0  0  0  0  0  0  0  0  0
    3.3973    3.7591   -0.9412 H   0  0  0  0  0  0  0  0  0  0  0  0
    2.2372    2.4966   -1.2249 H   0  0  0  0  0  0  0  0  0  0  0  0
    2.4720    3.4854   -3.7852 H   0  0  0  0  0  0  0  0  0  0  0  0
    2.9524    4.9223   -2.9568 H   0  0  0  0  0  0  0  0  0  0  0  0
    0.7669    4.6384   -1.5901 H   0  0  0  0  0  0  0  0  0  0  0  0
    0.4820    3.2124   -2.5436 H   0  0  0  0  0  0  0  0  0  0  0  0
    0.6820    4.6450   -4.6670 H   0  0  0  0  0  0  0  0  0  0  0  0
    0.6353    6.0370   -3.5870 H   0  0  0  0  0  0  0  0  0  0  0  0
   -1.3959    5.1399   -2.4953 H   0  0  0  0  0  0  0  0  0  0  0  0
   -1.3601    3.6970   -3.4724 H   0  0  0  0  0  0  0  0  0  0  0  0
   -1.6420    4.9468   -5.5472 H   0  0  0  0  0  0  0  0  0  0  0  0
   -1.4482    6.4683   -4.7067 H   0  0  0  0  0  0  0  0  0  0  0  0
   -3.3197    5.8847   -3.1380 H   0  0  0  0  0  0  0  0  0  0  0  0
   -3.5644    4.3946   -3.9952 H   0  0  0  0  0  0  0  0  0  0  0  0
   -3.7824    5.9059   -6.1959 H   0  0  0  0  0  0  0  0  0  0  0  0
   -3.7548    7.2401   -5.1090 H   0  0  0  0  0  0  0  0  0  0  0  0
   -5.6074    6.2559   -3.7193 H   0  0  0  0  0  0  0  0  0  0  0  0
   -5.4653    4.7775   -4.6539 H   0  0  0  0  0  0  0  0  0  0  0  0
   -5.8148    6.4088   -6.7412 H   0  0  0  0  0  0  0  0  0  0  0  0
   -6.5124    7.4693   -5.5413 H   0  0  0  0  0  0  0  0  0  0  0  0
   -8.3824    6.0477   -5.6964 H   0  0  0  0  0  0  0  0  0  0  0  0
   -7.5336    4.9022   -4.7395 H   0  0  0  0  0  0  0  0  0  0  0  0
   -7.2078    4.3196   -7.9398 H   0  0  0  0  0  0  0  0  0  0  0  0
   -7.3625    5.4066   -7.4568 H   0  0  0  0  0  0  0  0  0  0  0  0
   -6.4181    2.6284   -5.7143 H   0  0  0  0  0  0  0  0  0  0  0  0
   -6.2957    2.6423   -7.4171 H   0  0  0  0  0  0  0  0  0  0  0  0
   -4.1554    2.2901   -7.5853 H   0  0  0  0  0  0  0  0  0  0  0  0
   -3.9239    3.9447   -7.0162 H   0  0  0  0  0  0  0  0  0  0  0  0
   -1.9329    3.0023   -6.6686 H   0  0  0  0  0  0  0  0  0  0  0  0
   -2.6412    3.0823   -5.0044 H   0  0  0  0  0  0  0  0  0  0  0  0
    4.9577    0.9068   -4.5634 H   0  0  0  0  0  0  0  0  0  0  0  0
    3.9691    1.9417   -6.2962 H   0  0  0  0  0  0  0  0  0  0  0  0
    2.2118    3.0667   -6.4263 H   0  0  0  0  0  0  0  0  0  0  0  0
    0.1736    3.1004   -6.3783 H   0  0  0  0  0  0  0  0  0  0  0  0
  1  2  1  0  0  0  0
  1 28  1  0  0  0  0
  1 29  1  0  0  0  0
  1 30  1  0  0  0  0
  2  3  1  0  0  0  0
  2 27  2  3  0  0  0
  3  4  2  0  0  0  0
  3  5  1  0  0  0  0
  5  6  2  3  0  0  0
  5 31  1  0  0  0  0
  6  7  1  0  0  0  0
  6 23  1  0  0  0  0
  7  8  1  0  0  0  0
  7 32  1  0  0  0  0
  7 33  1  0  0  0  0
  8  9  1  0  0  0  0
  8 34  1  0  0  0  0
  8 35  1  0  0  0  0
  9 10  1  0  0  0  0
  9 36  1  0  0  0  0
  9 37  1  0  0  0  0
 10 11  1  0  0  0  0
 10 38  1  0  0  0  0
 10 39  1  0  0  0  0
 11 12  1  0  0  0  0
 11 40  1  0  0  0  0
 11 41  1  0  0  0  0
 12 13  1  0  0  0  0
 12 42  1  0  0  0  0
 12 43  1  0  0  0  0
 13 14  1  0  0  0  0
 13 44  1  0  0  0  0
 13 45  1  0  0  0  0
 14 15  1  0  0  0  0
 14 46  1  0  0  0  0
 14 47  1  0  0  0  0
 15 16  1  0  0  0  0
 15 48  1  0  0  0  0
 15 49  1  0  0  0  0
 16 17  1  0  0  0  0
 16 50  1  0  0  0  0
 16 51  1  0  0  0  0
 17 18  1  0  0  0  0
 17 52  1  0  0  0  0
 17 53  1  0  0  0  0
 18 19  1  0  0  0  0
 18 54  1  0  0  0  0
 18 55  1  0  0  0  0
 19 20  1  0  0  0  0
 19 56  1  0  0  0  0
 19 57  1  0  0  0  0
 20 21  1  0  0  0  0
 20 58  1  0  0  0  0
 20 59  1  0  0  0  0
 21 22  1  0  0  0  0
 21 60  1  0  0  0  0
 21 61  1  0  0  0  0
 22 27  1  0  0  0  0
 22 62  1  0  0  0  0
 22 63  1  0  0  0  0
 23 24  2  3  0  0  0
 23 64  1  0  0  0  0
 24 25  1  0  0  0  0
 24 65  1  0  0  0  0
 25 26  2  3  0  0  0
 25 66  1  0  0  0  0
 26 27  1  0  0  0  0
 26 67  1  0  0  0  0
M  END
$$$$
