
 OpenBabel04232217023D

128127  0  0  0  0  0  0  0  0999 V2000
   46.5979  -33.5305   17.3751 O   0  0  0  0  0  0  0  0  0  0  0  0
   46.1614  -32.3558   16.6201 O   0  0  0  0  0  0  0  0  0  0  0  0
   46.8193  -31.2409   17.2247 C   0  0  0  0  0  0  0  0  0  0  0  0
   46.5078  -29.9519   16.4782 C   0  0  0  0  0  0  0  0  0  0  0  0
   45.0286  -29.5810   16.5792 C   0  0  0  0  0  0  0  0  0  0  0  0
   44.8003  -28.3043   15.8921 N   0  0  0  0  0  0  0  0  0  0  0  0
   43.4204  -27.9598   16.0132 N   0  0  0  0  0  0  0  0  0  0  0  0
   43.1433  -26.7809   15.2799 N   0  0  0  0  0  0  0  0  0  0  0  0
   43.4418  -26.9390   13.8959 N   0  0  0  0  0  0  0  0  0  0  0  0
   42.8511  -28.1244   13.3254 N   0  0  0  0  0  0  0  0  0  0  0  0
   41.4270  -28.1699   13.5688 N   0  0  0  0  0  0  0  0  0  0  0  0
   40.7331  -27.2039   12.8052 N   0  0  0  0  0  0  0  0  0  0  0  0
   40.9756  -27.3897   11.4203 N   0  0  0  0  0  0  0  0  0  0  0  0
   40.1692  -28.4025   10.8239 N   0  0  0  0  0  0  0  0  0  0  0  0
   38.7747  -28.1743   11.0542 N   0  0  0  0  0  0  0  0  0  0  0  0
   38.2117  -27.4186    9.9892 N   0  0  0  0  0  0  0  0  0  0  0  0
   36.6114  -27.0587   10.1673 S   0  0  0  0  0  0  0  0  0  0  0  0
   36.2103  -27.0417   11.7677 N   0  0  0  0  0  0  0  0  0  0  0  0
   36.5923  -25.6638   12.5857 S   0  0  0  0  0  0  0  0  0  0  0  0
   36.0753  -24.3550   11.7485 N   0  0  0  0  0  0  0  0  0  0  0  0
   34.5593  -23.8572   12.0852 S   0  0  0  0  0  0  0  0  0  0  0  0
   33.5896  -24.7218   11.0684 N   0  0  0  0  0  0  0  0  0  0  0  0
   31.9915  -24.4019   11.3203 S   0  0  0  0  0  0  0  0  0  0  0  0
   31.7521  -22.8463   10.8075 N   0  0  0  0  0  0  0  0  0  0  0  0
   30.1762  -22.3705   10.9743 S   0  0  0  0  0  0  0  0  0  0  0  0
   29.8263  -22.4164   12.5887 N   0  0  0  0  0  0  0  0  0  0  0  0
   30.3764  -21.0975   13.4059 S   0  0  0  0  0  0  0  0  0  0  0  0
   31.9727  -21.4138   13.7249 N   0  0  0  0  0  0  0  0  0  0  0  0
   32.6246  -20.1338   14.5372 S   0  0  0  0  0  0  0  0  0  0  0  0
   34.2117  -20.4990   14.7580 N   0  0  0  0  0  0  0  0  0  0  0  0
   35.1096  -20.1038   13.4382 S   0  0  0  0  0  0  0  0  0  0  0  0
   36.6609  -20.0044   13.9502 N   0  0  0  0  0  0  0  0  0  0  0  0
   37.3058  -21.3594   14.6186 S   0  0  0  0  0  0  0  0  0  0  0  0
   37.6773  -22.4235   13.4020 N   0  0  0  0  0  0  0  0  0  0  0  0
   38.2162  -21.6765   12.0402 S   0  0  0  0  0  0  0  0  0  0  0  0
   39.5552  -22.3840   11.4403 N   0  0  0  0  0  0  0  0  0  0  0  0
   40.0791  -23.7652   12.1523 S   0  0  0  0  0  0  0  0  0  0  0  0
   39.6552  -24.9573   11.1128 N   0  0  0  0  0  0  0  0  0  0  0  0
   40.4325  -24.8547    9.6540 S   0  0  0  0  0  0  0  0  0  0  0  0
   39.1409  -24.6104    8.6946 N   0  0  0  0  0  0  0  0  0  0  0  0
   39.4264  -24.8258    7.0963 S   0  0  0  0  0  0  0  0  0  0  0  0
   38.6622  -23.5194    6.4329 N   0  0  0  0  0  0  0  0  0  0  0  0
   37.0124  -23.6426    6.4442 S   0  0  0  0  0  0  0  0  0  0  0  0
   36.5030  -23.4137    8.0088 N   0  0  0  0  0  0  0  0  0  0  0  0
   36.9664  -21.9842    8.7003 S   0  0  0  0  0  0  0  0  0  0  0  0
   36.5458  -20.7543    7.7006 N   0  0  0  0  0  0  0  0  0  0  0  0
   34.9726  -20.3041    7.9259 S   0  0  0  0  0  0  0  0  0  0  0  0
   34.7125  -19.0967    6.8250 N   0  0  0  0  0  0  0  0  0  0  0  0
   35.1024  -17.5984    7.4170 S   0  0  0  0  0  0  0  0  0  0  0  0
   36.7428  -17.5537    7.6437 N   0  0  0  0  0  0  0  0  0  0  0  0
   37.6484  -17.5393    6.2614 S   0  0  0  0  0  0  0  0  0  0  0  0
   37.1464  -16.2967    5.3050 N   0  0  0  0  0  0  0  0  0  0  0  0
   37.5942  -14.7851    5.7985 S   0  0  0  0  0  0  0  0  0  0  0  0
   39.2410  -14.7100    5.9506 N   0  0  0  0  0  0  0  0  0  0  0  0
   40.0800  -15.0811    4.5786 S   0  0  0  0  0  0  0  0  0  0  0  0
   39.8386  -13.8417    3.5123 N   0  0  0  0  0  0  0  0  0  0  0  0
   40.9286  -13.9058    2.2684 S   0  0  0  0  0  0  0  0  0  0  0  0
   40.5267  -15.2477    1.4022 N   0  0  0  0  0  0  0  0  0  0  0  0
   41.6116  -15.5671    0.2034 S   0  0  0  0  0  0  0  0  0  0  0  0
   41.0317  -16.9308   -0.5314 N   0  0  0  0  0  0  0  0  0  0  0  0
   41.4615  -18.3232    0.2580 S   0  0  0  0  0  0  0  0  0  0  0  0
   40.5336  -18.4211    1.6303 N   0  0  0  0  0  0  0  0  0  0  0  0
   38.9093  -18.4624    1.3228 S   0  0  0  0  0  0  0  0  0  0  0  0
   38.6063  -19.9547    0.7005 N   0  0  0  0  0  0  0  0  0  0  0  0
   37.0367  -20.0417    0.1921 S   0  0  0  0  0  0  0  0  0  0  0  0
   36.8112  -21.5523   -0.4462 N   0  0  0  0  0  0  0  0  0  0  0  0
   37.4589  -21.7151   -1.9674 S   0  0  0  0  0  0  0  0  0  0  0  0
   39.1128  -21.8056   -1.8394 N   0  0  0  0  0  0  0  0  0  0  0  0
   39.6381  -23.0117   -0.8347 S   0  0  0  0  0  0  0  0  0  0  0  0
   39.3790  -24.4386   -1.6227 N   0  0  0  0  0  0  0  0  0  0  0  0
   40.1779  -25.6548   -0.8350 S   0  0  0  0  0  0  0  0  0  0  0  0
   39.6907  -27.0668   -1.5289 N   0  0  0  0  0  0  0  0  0  0  0  0
   40.1544  -27.1819   -3.1117 S   0  0  0  0  0  0  0  0  0  0  0  0
   39.5357  -29.1055   -3.4601 S   0  0  0  0  0  0  0  0  0  0  0  0
   37.4887  -29.0248   -3.3385 S   0  0  0  0  0  0  0  0  0  0  0  0
   36.8598  -28.2065   -5.1053 S   0  0  0  0  0  0  0  0  0  0  0  0
   34.8172  -28.3741   -5.0608 S   0  0  0  0  0  0  0  0  0  0  0  0
   34.1288  -26.7595   -6.1165 S   0  0  0  0  0  0  0  0  0  0  0  0
   32.0895  -26.8242   -5.9129 S   0  0  0  0  0  0  0  0  0  0  0  0
   31.3712  -25.5850   -7.3805 S   0  0  0  0  0  0  0  0  0  0  0  0
   31.5736  -23.6997   -6.5935 S   0  0  0  0  0  0  0  0  0  0  0  0
   45.9304  -34.1390   17.0078 H   0  0  0  0  0  0  0  0  0  0  0  0
   47.9001  -31.4208   17.1901 H   0  0  0  0  0  0  0  0  0  0  0  0
   46.5178  -31.1676   18.2762 H   0  0  0  0  0  0  0  0  0  0  0  0
   46.7871  -30.0680   15.4238 H   0  0  0  0  0  0  0  0  0  0  0  0
   47.1235  -29.1457   16.8982 H   0  0  0  0  0  0  0  0  0  0  0  0
   44.7528  -29.4926   17.6374 H   0  0  0  0  0  0  0  0  0  0  0  0
   44.4164  -30.3728   16.1293 H   0  0  0  0  0  0  0  0  0  0  0  0
   45.0777  -28.4113   14.9167 H   0  0  0  0  0  0  0  0  0  0  0  0
   43.1744  -27.7696   16.9886 H   0  0  0  0  0  0  0  0  0  0  0  0
   43.6683  -26.0006   15.6934 H   0  0  0  0  0  0  0  0  0  0  0  0
   44.4539  -26.9344   13.7524 H   0  0  0  0  0  0  0  0  0  0  0  0
   43.2462  -28.9597   13.7650 H   0  0  0  0  0  0  0  0  0  0  0  0
   41.3158  -27.9755   14.5786 H   0  0  0  0  0  0  0  0  0  0  0  0
   41.0351  -26.2528   13.0636 H   0  0  0  0  0  0  0  0  0  0  0  0
   41.9800  -27.5461   11.2662 H   0  0  0  0  0  0  0  0  0  0  0  0
   40.4314  -29.3028   11.2382 H   0  0  0  0  0  0  0  0  0  0  0  0
   38.7067  -27.6733   11.9459 H   0  0  0  0  0  0  0  0  0  0  0  0
   38.7615  -26.5939    9.7602 H   0  0  0  0  0  0  0  0  0  0  0  0
   36.6085  -27.8648   12.2221 H   0  0  0  0  0  0  0  0  0  0  0  0
   36.4418  -24.1965   10.8025 H   0  0  0  0  0  0  0  0  0  0  0  0
   33.7735  -25.7130   11.2387 H   0  0  0  0  0  0  0  0  0  0  0  0
   32.0469  -22.7522    9.8337 H   0  0  0  0  0  0  0  0  0  0  0  0
   30.1658  -23.2792   13.0097 H   0  0  0  0  0  0  0  0  0  0  0  0
   32.4597  -21.5637   12.8373 H   0  0  0  0  0  0  0  0  0  0  0  0
   34.3466  -21.4842   14.9787 H   0  0  0  0  0  0  0  0  0  0  0  0
   36.9175  -19.1338   14.4029 H   0  0  0  0  0  0  0  0  0  0  0  0
   36.8955  -23.0339   13.1916 H   0  0  0  0  0  0  0  0  0  0  0  0
   40.3229  -21.7304   11.3892 H   0  0  0  0  0  0  0  0  0  0  0  0
   39.8433  -25.8828   11.5309 H   0  0  0  0  0  0  0  0  0  0  0  0
   38.8531  -23.6472    8.8587 H   0  0  0  0  0  0  0  0  0  0  0  0
   38.9784  -23.3703    5.4815 H   0  0  0  0  0  0  0  0  0  0  0  0
   36.8201  -24.1956    8.5884 H   0  0  0  0  0  0  0  0  0  0  0  0
   36.7324  -21.0277    6.7364 H   0  0  0  0  0  0  0  0  0  0  0  0
   33.7236  -19.0913    6.5630 H   0  0  0  0  0  0  0  0  0  0  0  0
   37.0054  -18.3820    8.1816 H   0  0  0  0  0  0  0  0  0  0  0  0
   36.1341  -16.3529    5.2159 H   0  0  0  0  0  0  0  0  0  0  0  0
   39.5210  -15.3438    6.6978 H   0  0  0  0  0  0  0  0  0  0  0  0
   39.9150  -12.9534    4.0123 H   0  0  0  0  0  0  0  0  0  0  0  0
   39.5731  -15.1929    1.0481 H   0  0  0  0  0  0  0  0  0  0  0  0
   41.3519  -16.9938   -1.4967 H   0  0  0  0  0  0  0  0  0  0  0  0
   40.7343  -17.6017    2.2065 H   0  0  0  0  0  0  0  0  0  0  0  0
   38.8556  -20.6626    1.3889 H   0  0  0  0  0  0  0  0  0  0  0  0
   35.8112  -21.7400   -0.5020 H   0  0  0  0  0  0  0  0  0  0  0  0
   39.4789  -20.9041   -1.5133 H   0  0  0  0  0  0  0  0  0  0  0  0
   39.7269  -24.3605   -2.5771 H   0  0  0  0  0  0  0  0  0  0  0  0
   38.6818  -27.1871   -1.4344 H   0  0  0  0  0  0  0  0  0  0  0  0
   31.1253  -22.9758   -7.6284 H   0  0  0  0  0  0  0  0  0  0  0  0
  1  2  1  0  0  0  0
  1 82  1  0  0  0  0
  2  3  1  0  0  0  0
  3  4  1  0  0  0  0
  3 83  1  0  0  0  0
  3 84  1  0  0  0  0
  4  5  1  0  0  0  0
  4 85  1  0  0  0  0
  4 86  1  0  0  0  0
  5  6  1  0  0  0  0
  5 87  1  0  0  0  0
  5 88  1  0  0  0  0
  6  7  1  0  0  0  0
  6 89  1  0  0  0  0
  7  8  1  0  0  0  0
  7 90  1  0  0  0  0
  8  9  1  0  0  0  0
  8 91  1  0  0  0  0
  9 10  1  0  0  0  0
  9 92  1  0  0  0  0
 10 11  1  0  0  0  0
 10 93  1  0  0  0  0
 11 12  1  0  0  0  0
 11 94  1  0  0  0  0
 12 13  1  0  0  0  0
 12 95  1  0  0  0  0
 13 14  1  0  0  0  0
 13 96  1  0  0  0  0
 14 15  1  0  0  0  0
 14 97  1  0  0  0  0
 15 16  1  0  0  0  0
 15 98  1  0  0  0  0
 16 17  1  0  0  0  0
 16 99  1  0  0  0  0
 17 18  1  0  0  0  0
 18 19  1  0  0  0  0
 18100  1  0  0  0  0
 19 20  1  0  0  0  0
 20 21  1  0  0  0  0
 20101  1  0  0  0  0
 21 22  1  0  0  0  0
 22 23  1  0  0  0  0
 22102  1  0  0  0  0
 23 24  1  0  0  0  0
 24 25  1  0  0  0  0
 24103  1  0  0  0  0
 25 26  1  0  0  0  0
 26 27  1  0  0  0  0
 26104  1  0  0  0  0
 27 28  1  0  0  0  0
 28 29  1  0  0  0  0
 28105  1  0  0  0  0
 29 30  1  0  0  0  0
 30 31  1  0  0  0  0
 30106  1  0  0  0  0
 31 32  1  0  0  0  0
 32 33  1  0  0  0  0
 32107  1  0  0  0  0
 33 34  1  0  0  0  0
 34 35  1  0  0  0  0
 34108  1  0  0  0  0
 35 36  1  0  0  0  0
 36 37  1  0  0  0  0
 36109  1  0  0  0  0
 37 38  1  0  0  0  0
 38 39  1  0  0  0  0
 38110  1  0  0  0  0
 39 40  1  0  0  0  0
 40 41  1  0  0  0  0
 40111  1  0  0  0  0
 41 42  1  0  0  0  0
 42 43  1  0  0  0  0
 42112  1  0  0  0  0
 43 44  1  0  0  0  0
 44 45  1  0  0  0  0
 44113  1  0  0  0  0
 45 46  1  0  0  0  0
 46 47  1  0  0  0  0
 46114  1  0  0  0  0
 47 48  1  0  0  0  0
 48 49  1  0  0  0  0
 48115  1  0  0  0  0
 49 50  1  0  0  0  0
 50 51  1  0  0  0  0
 50116  1  0  0  0  0
 51 52  1  0  0  0  0
 52 53  1  0  0  0  0
 52117  1  0  0  0  0
 53 54  1  0  0  0  0
 54 55  1  0  0  0  0
 54118  1  0  0  0  0
 55 56  1  0  0  0  0
 56 57  1  0  0  0  0
 56119  1  0  0  0  0
 57 58  1  0  0  0  0
 58 59  1  0  0  0  0
 58120  1  0  0  0  0
 59 60  1  0  0  0  0
 60 61  1  0  0  0  0
 60121  1  0  0  0  0
 61 62  1  0  0  0  0
 62 63  1  0  0  0  0
 62122  1  0  0  0  0
 63 64  1  0  0  0  0
 64 65  1  0  0  0  0
 64123  1  0  0  0  0
 65 66  1  0  0  0  0
 66 67  1  0  0  0  0
 66124  1  0  0  0  0
 67 68  1  0  0  0  0
 68 69  1  0  0  0  0
 68125  1  0  0  0  0
 69 70  1  0  0  0  0
 70 71  1  0  0  0  0
 70126  1  0  0  0  0
 71 72  1  0  0  0  0
 72 73  1  0  0  0  0
 72127  1  0  0  0  0
 73 74  1  0  0  0  0
 74 75  1  0  0  0  0
 75 76  1  0  0  0  0
 76 77  1  0  0  0  0
 77 78  1  0  0  0  0
 78 79  1  0  0  0  0
 79 80  1  0  0  0  0
 80 81  1  0  0  0  0
 81128  1  0  0  0  0
M  END
$$$$
