
 OpenBabel04232216463D

 44 44  0  0  0  0  0  0  0  0999 V2000
    2.9868   -2.3860    1.3488 C   0  0  0  0  0  0  0  0  0  0  0  0
    4.1774   -1.4923    1.6558 C   0  0  0  0  0  0  0  0  0  0  0  0
    3.8795   -0.0962    1.1397 C   0  0  0  0  0  0  0  0  0  0  0  0
    4.8755    0.7939    0.9923 C   0  0  0  0  0  0  0  0  0  0  0  0
    5.4253    0.7796   -0.4215 C   0  0  0  0  0  0  0  0  0  0  0  0
    4.3908    0.4293   -1.3638 O   0  0  0  0  0  0  0  0  0  0  0  0
    5.3914    1.4437    2.2425 C   0  0  0  0  0  0  0  0  0  0  0  0
    4.2915    1.8432    3.2133 C   0  0  0  0  0  0  0  0  0  0  0  0
    3.7897    3.0714    2.9062 F   0  0  0  0  0  0  0  0  0  0  0  0
    6.7101    1.4675    2.5943 C   0  0  0  0  0  0  0  0  0  0  0  0
    7.8115    1.2269    1.5182 C   0  0  0  0  0  0  0  0  0  0  0  0
    8.3674    2.4387    0.7828 C   0  0  0  0  0  0  0  0  0  0  0  0
    9.3251    1.9970   -0.0859 F   0  0  0  0  0  0  0  0  0  0  0  0
    7.2242    1.5444    4.0303 C   0  0  0  0  0  0  0  0  0  0  0  0
    6.7216    1.3761    5.2819 C   0  0  0  0  0  0  0  0  0  0  0  0
    5.5349    0.8828    6.0853 C   0  0  0  0  0  0  0  0  0  0  0  0
    4.8909   -0.4567    5.7480 C   0  0  0  0  0  0  0  0  0  0  0  0
    8.6219    1.4238    4.0261 N   0  0  0  0  0  0  0  0  0  0  0  0
    8.9861    0.3538    4.6316 N   0  0  0  0  0  0  0  0  0  0  0  0
    9.2491   -0.6757    3.7624 C   0  0  0  0  0  0  0  0  0  0  0  0
    8.4396   -1.4956    3.1522 N   0  0  0  0  0  0  0  0  0  0  0  0
    7.0434   -1.4754    3.3871 N   0  0  0  0  0  0  0  0  0  0  0  0
    6.4268   -1.3901    2.2862 N   0  0  0  0  0  0  0  0  0  0  0  0
    5.1774   -2.0342    2.2806 N   0  0  0  0  0  0  0  0  0  0  0  0
    2.3389   -2.4635    2.2235 H   0  0  0  0  0  0  0  0  0  0  0  0
    3.3330   -3.3714    1.0245 H   0  0  0  0  0  0  0  0  0  0  0  0
    2.4044   -1.9588    0.5232 H   0  0  0  0  0  0  0  0  0  0  0  0
    2.9539    0.2168    1.6017 H   0  0  0  0  0  0  0  0  0  0  0  0
    6.2029    0.0238   -0.5597 H   0  0  0  0  0  0  0  0  0  0  0  0
    5.7851    1.7598   -0.7338 H   0  0  0  0  0  0  0  0  0  0  0  0
    4.4395   -0.5368   -1.4984 H   0  0  0  0  0  0  0  0  0  0  0  0
    4.6323    1.9255    4.2231 H   0  0  0  0  0  0  0  0  0  0  0  0
    3.4568    1.1433    3.2737 H   0  0  0  0  0  0  0  0  0  0  0  0
    7.4979    0.4915    0.7812 H   0  0  0  0  0  0  0  0  0  0  0  0
    8.6878    0.7096    1.8976 H   0  0  0  0  0  0  0  0  0  0  0  0
    8.8498    3.1443    1.4646 H   0  0  0  0  0  0  0  0  0  0  0  0
    7.6079    2.9565    0.1877 H   0  0  0  0  0  0  0  0  0  0  0  0
    7.4884    1.5694    6.0492 H   0  0  0  0  0  0  0  0  0  0  0  0
    4.7873    1.6695    6.2302 H   0  0  0  0  0  0  0  0  0  0  0  0
    5.9323    0.7243    7.1013 H   0  0  0  0  0  0  0  0  0  0  0  0
    4.2335   -0.4036    4.8799 H   0  0  0  0  0  0  0  0  0  0  0  0
    4.2745   -0.7844    6.5969 H   0  0  0  0  0  0  0  0  0  0  0  0
    5.6337   -1.2431    5.5860 H   0  0  0  0  0  0  0  0  0  0  0  0
   10.3176   -0.7961    3.5342 H   0  0  0  0  0  0  0  0  0  0  0  0
  1  2  1  0  0  0  0
  1 25  1  0  0  0  0
  1 26  1  0  0  0  0
  1 27  1  0  0  0  0
  2  3  1  0  0  0  0
  2 24  2  3  0  0  0
  3  4  2  3  0  0  0
  3 28  1  0  0  0  0
  4  5  1  0  0  0  0
  4  7  1  0  0  0  0
  5  6  1  0  0  0  0
  5 29  1  0  0  0  0
  5 30  1  0  0  0  0
  6 31  1  0  0  0  0
  7  8  1  0  0  0  0
  7 10  2  3  0  0  0
  8  9  1  0  0  0  0
  8 32  1  0  0  0  0
  8 33  1  0  0  0  0
 10 11  1  0  0  0  0
 10 14  1  0  0  0  0
 11 12  1  0  0  0  0
 11 34  1  0  0  0  0
 11 35  1  0  0  0  0
 12 13  1  0  0  0  0
 12 36  1  0  0  0  0
 12 37  1  0  0  0  0
 14 15  2  3  0  0  0
 14 18  1  0  0  0  0
 15 16  1  0  0  0  0
 15 38  1  0  0  0  0
 16 17  1  0  0  0  0
 16 39  1  0  0  0  0
 16 40  1  0  0  0  0
 17 41  1  0  0  0  0
 17 42  1  0  0  0  0
 17 43  1  0  0  0  0
 18 19  2  3  0  0  0
 19 20  1  0  0  0  0
 20 21  2  3  0  0  0
 20 44  1  0  0  0  0
 21 22  1  0  0  0  0
 22 23  2  3  0  0  0
 23 24  1  0  0  0  0
M  END
$$$$
