
 OpenBabel04232216533D

125124  0  0  0  0  0  0  0  0999 V2000
    1.0191   -0.0599    0.0529 C   0  0  0  0  0  0  0  0  0  0  0  0
    2.5303   -0.0577    0.0467 C   0  0  0  0  0  0  0  0  0  0  0  0
    3.0462   -0.0680    1.4691 C   0  0  0  0  0  0  0  0  0  0  0  0
    4.5527   -0.0637    1.4513 C   0  0  0  0  0  0  0  0  0  0  0  0
    5.0339   -0.0740    2.8678 C   0  0  0  0  0  0  0  0  0  0  0  0
    6.5179   -0.0697    2.8419 C   0  0  0  0  0  0  0  0  0  0  0  0
    6.8351   -0.0817    4.1948 O   0  0  0  0  0  0  0  0  0  0  0  0
    8.2327   -0.0791    4.1489 O   0  0  0  0  0  0  0  0  0  0  0  0
    8.6824   -0.0909    5.4614 O   0  0  0  0  0  0  0  0  0  0  0  0
   10.0673   -0.0908    5.4041 O   0  0  0  0  0  0  0  0  0  0  0  0
   10.5047   -0.1023    6.7147 O   0  0  0  0  0  0  0  0  0  0  0  0
   11.8837   -0.1018    6.6638 O   0  0  0  0  0  0  0  0  0  0  0  0
   12.3029   -0.1134    7.9765 O   0  0  0  0  0  0  0  0  0  0  0  0
   13.6739   -0.1131    7.9392 O   0  0  0  0  0  0  0  0  0  0  0  0
   14.0778   -0.1247    9.2513 O   0  0  0  0  0  0  0  0  0  0  0  0
   15.4466   -0.1243    9.2080 O   0  0  0  0  0  0  0  0  0  0  0  0
   15.8521   -0.1359   10.5155 O   0  0  0  0  0  0  0  0  0  0  0  0
   17.2173   -0.1354   10.4618 O   0  0  0  0  0  0  0  0  0  0  0  0
   17.6298   -0.1470   11.7615 O   0  0  0  0  0  0  0  0  0  0  0  0
   18.9957   -0.1464   11.6950 O   0  0  0  0  0  0  0  0  0  0  0  0
   19.4027   -0.1579   12.9982 O   0  0  0  0  0  0  0  0  0  0  0  0
   20.7667   -0.1574   12.9408 O   0  0  0  0  0  0  0  0  0  0  0  0
   21.1615   -0.1690   14.2478 O   0  0  0  0  0  0  0  0  0  0  0  0
   22.5249   -0.1685   14.1980 O   0  0  0  0  0  0  0  0  0  0  0  0
   22.9174   -0.1801   15.5044 O   0  0  0  0  0  0  0  0  0  0  0  0
   24.2804   -0.1796   15.4462 O   0  0  0  0  0  0  0  0  0  0  0  0
   24.6808   -0.1911   16.7505 O   0  0  0  0  0  0  0  0  0  0  0  0
   26.0431   -0.1906   16.6878 O   0  0  0  0  0  0  0  0  0  0  0  0
   26.4427   -0.2021   17.9906 O   0  0  0  0  0  0  0  0  0  0  0  0
   27.8043   -0.2016   17.9333 O   0  0  0  0  0  0  0  0  0  0  0  0
   28.2011   -0.2131   19.2373 O   0  0  0  0  0  0  0  0  0  0  0  0
   29.5631   -0.2126   19.1785 O   0  0  0  0  0  0  0  0  0  0  0  0
   29.9620   -0.2242   20.4820 O   0  0  0  0  0  0  0  0  0  0  0  0
   31.3239   -0.2236   20.4225 O   0  0  0  0  0  0  0  0  0  0  0  0
   31.7223   -0.2352   21.7264 O   0  0  0  0  0  0  0  0  0  0  0  0
   33.0841   -0.2346   21.6676 O   0  0  0  0  0  0  0  0  0  0  0  0
   33.4825   -0.2462   22.9712 O   0  0  0  0  0  0  0  0  0  0  0  0
   34.8443   -0.2457   22.9124 O   0  0  0  0  0  0  0  0  0  0  0  0
   35.2427   -0.2572   24.2162 O   0  0  0  0  0  0  0  0  0  0  0  0
   36.6046   -0.2567   24.1569 O   0  0  0  0  0  0  0  0  0  0  0  0
   37.0035   -0.2682   25.4603 O   0  0  0  0  0  0  0  0  0  0  0  0
   38.3656   -0.2677   25.4016 O   0  0  0  0  0  0  0  0  0  0  0  0
   38.7622   -0.2792   26.7057 O   0  0  0  0  0  0  0  0  0  0  0  0
   40.1241   -0.2787   26.6488 O   0  0  0  0  0  0  0  0  0  0  0  0
   40.5239   -0.2903   27.9524 O   0  0  0  0  0  0  0  0  0  0  0  0
   41.8859   -0.2897   27.8907 O   0  0  0  0  0  0  0  0  0  0  0  0
   42.2873   -0.3013   29.1932 O   0  0  0  0  0  0  0  0  0  0  0  0
   43.6494   -0.3008   29.1347 O   0  0  0  0  0  0  0  0  0  0  0  0
   44.0415   -0.3123   30.4409 O   0  0  0  0  0  0  0  0  0  0  0  0
   45.4053   -0.3119   30.3911 O   0  0  0  0  0  0  0  0  0  0  0  0
   45.8004   -0.3234   31.6982 O   0  0  0  0  0  0  0  0  0  0  0  0
   47.1646   -0.3229   31.6409 O   0  0  0  0  0  0  0  0  0  0  0  0
   47.5710   -0.3345   32.9442 O   0  0  0  0  0  0  0  0  0  0  0  0
   48.9366   -0.3339   32.8799 O   0  0  0  0  0  0  0  0  0  0  0  0
   49.3482   -0.3454   34.1831 O   0  0  0  0  0  0  0  0  0  0  0  0
   50.7164   -0.3449   34.1233 O   0  0  0  0  0  0  0  0  0  0  0  0
   51.1215   -0.3565   35.4313 O   0  0  0  0  0  0  0  0  0  0  0  0
   52.4913   -0.3561   35.3919 O   0  0  0  0  0  0  0  0  0  0  0  0
   52.8869   -0.3677   36.7021 O   0  0  0  0  0  0  0  0  0  0  0  0
   54.2732   -0.3674   36.6653 O   0  0  0  0  0  0  0  0  0  0  0  0
   54.6806   -0.3790   37.9686 O   0  0  0  0  0  0  0  0  0  0  0  0
   56.0616   -0.3785   37.9209 O   0  0  0  0  0  0  0  0  0  0  0  0
   56.4977   -0.3902   39.2335 O   0  0  0  0  0  0  0  0  0  0  0  0
   57.8830   -0.3897   39.1771 O   0  0  0  0  0  0  0  0  0  0  0  0
   58.3325   -0.4013   40.4894 O   0  0  0  0  0  0  0  0  0  0  0  0
   59.7297   -0.4009   40.4427 O   0  0  0  0  0  0  0  0  0  0  0  0
   60.0468   -0.4129   41.7949 C   0  0  0  0  0  0  0  0  0  0  0  0
   61.5296   -0.4126   41.7661 C   0  0  0  0  0  0  0  0  0  0  0  0
   62.0074   -0.4251   43.1809 C   0  0  0  0  0  0  0  0  0  0  0  0
   63.5106   -0.4229   43.1590 C   0  0  0  0  0  0  0  0  0  0  0  0
   64.0086   -0.4355   44.5816 C   0  0  0  0  0  0  0  0  0  0  0  0
   65.5193   -0.4334   44.5774 C   0  0  0  0  0  0  0  0  0  0  0  0
   66.0240   -0.4460   46.0040 C   0  0  0  0  0  0  0  0  0  0  0  0
   67.5387   -0.4440   46.0065 C   0  0  0  0  0  0  0  0  0  0  0  0
   68.0476   -0.4566   47.4344 C   0  0  0  0  0  0  0  0  0  0  0  0
   69.5644   -0.4526   47.4389 C   0  0  0  0  0  0  0  0  0  0  0  0
   70.0767   -0.4653   48.8672 C   0  0  0  0  0  0  0  0  0  0  0  0
   71.5958   -0.4612   48.8741 C   0  0  0  0  0  0  0  0  0  0  0  0
   72.1099   -0.4758   50.3041 C   0  0  0  0  0  0  0  0  0  0  0  0
   73.6314   -0.4700   50.3249 C   0  0  0  0  0  0  0  0  0  0  0  0
   74.1387   -0.4847   51.7535 C   0  0  0  0  0  0  0  0  0  0  0  0
    0.6412   -0.0525   -0.9710 H   0  0  0  0  0  0  0  0  0  0  0  0
    0.6361    0.8226    0.5753 H   0  0  0  0  0  0  0  0  0  0  0  0
    0.6386   -0.9514    0.5616 H   0  0  0  0  0  0  0  0  0  0  0  0
    2.9038    0.8303   -0.4765 H   0  0  0  0  0  0  0  0  0  0  0  0
    2.9064   -0.9363   -0.4901 H   0  0  0  0  0  0  0  0  0  0  0  0
    2.6872   -0.9563    2.0042 H   0  0  0  0  0  0  0  0  0  0  0  0
    2.6824    0.8095    2.0187 H   0  0  0  0  0  0  0  0  0  0  0  0
    4.9377    0.8259    0.9377 H   0  0  0  0  0  0  0  0  0  0  0  0
    4.9424   -0.9426    0.9231 H   0  0  0  0  0  0  0  0  0  0  0  0
    4.6812   -0.9566    3.4184 H   0  0  0  0  0  0  0  0  0  0  0  0
    4.6764    0.7974    3.4329 H   0  0  0  0  0  0  0  0  0  0  0  0
    6.9336    0.8313    2.3742 H   0  0  0  0  0  0  0  0  0  0  0  0
    6.9384   -0.9594    2.3571 H   0  0  0  0  0  0  0  0  0  0  0  0
   59.6298   -1.3125   42.2643 H   0  0  0  0  0  0  0  0  0  0  0  0
   59.6298    0.4783   42.2802 H   0  0  0  0  0  0  0  0  0  0  0  0
   61.8857    0.4696   41.2172 H   0  0  0  0  0  0  0  0  0  0  0  0
   61.8858   -1.2849   41.2017 H   0  0  0  0  0  0  0  0  0  0  0  0
   61.6233   -1.3147   43.6953 H   0  0  0  0  0  0  0  0  0  0  0  0
   61.6211    0.4538   43.7118 H   0  0  0  0  0  0  0  0  0  0  0  0
   63.8754    0.4661   42.6293 H   0  0  0  0  0  0  0  0  0  0  0  0
   63.8777   -1.3009   42.6128 H   0  0  0  0  0  0  0  0  0  0  0  0
   63.6293   -1.3243   45.1009 H   0  0  0  0  0  0  0  0  0  0  0  0
   63.6269    0.4425   45.1174 H   0  0  0  0  0  0  0  0  0  0  0  0
   65.8900    0.4553   44.0518 H   0  0  0  0  0  0  0  0  0  0  0  0
   65.8924   -1.3112   44.0354 H   0  0  0  0  0  0  0  0  0  0  0  0
   65.6472   -1.3346   46.5255 H   0  0  0  0  0  0  0  0  0  0  0  0
   65.6448    0.4316   46.5419 H   0  0  0  0  0  0  0  0  0  0  0  0
   67.9117    0.4446   45.4824 H   0  0  0  0  0  0  0  0  0  0  0  0
   67.9142   -1.3216   45.4659 H   0  0  0  0  0  0  0  0  0  0  0  0
   67.6730   -1.3458   47.9564 H   0  0  0  0  0  0  0  0  0  0  0  0
   67.6684    0.4202   47.9737 H   0  0  0  0  0  0  0  0  0  0  0  0
   69.9364    0.4366   46.9153 H   0  0  0  0  0  0  0  0  0  0  0  0
   69.9411   -1.3294   46.8980 H   0  0  0  0  0  0  0  0  0  0  0  0
   69.7017   -1.3543   49.3892 H   0  0  0  0  0  0  0  0  0  0  0  0
   69.6970    0.4114   49.4066 H   0  0  0  0  0  0  0  0  0  0  0  0
   71.9669    0.4288   48.3512 H   0  0  0  0  0  0  0  0  0  0  0  0
   71.9718   -1.3373   48.3316 H   0  0  0  0  0  0  0  0  0  0  0  0
   71.7324   -1.3660   50.8224 H   0  0  0  0  0  0  0  0  0  0  0  0
   71.7254    0.3990   50.8431 H   0  0  0  0  0  0  0  0  0  0  0  0
   74.0086    0.4205   49.8087 H   0  0  0  0  0  0  0  0  0  0  0  0
   74.0156   -1.3452   49.7881 H   0  0  0  0  0  0  0  0  0  0  0  0
   73.7819    0.3946   52.2995 H   0  0  0  0  0  0  0  0  0  0  0  0
   75.2315   -0.4805   51.7677 H   0  0  0  0  0  0  0  0  0  0  0  0
   73.7890   -1.3793   52.2788 H   0  0  0  0  0  0  0  0  0  0  0  0
  1  2  1  0  0  0  0
  1 82  1  0  0  0  0
  1 83  1  0  0  0  0
  1 84  1  0  0  0  0
  2  3  1  0  0  0  0
  2 85  1  0  0  0  0
  2 86  1  0  0  0  0
  3  4  1  0  0  0  0
  3 87  1  0  0  0  0
  3 88  1  0  0  0  0
  4  5  1  0  0  0  0
  4 89  1  0  0  0  0
  4 90  1  0  0  0  0
  5  6  1  0  0  0  0
  5 91  1  0  0  0  0
  5 92  1  0  0  0  0
  6  7  1  0  0  0  0
  6 93  1  0  0  0  0
  6 94  1  0  0  0  0
  7  8  1  0  0  0  0
  8  9  1  0  0  0  0
  9 10  1  0  0  0  0
 10 11  1  0  0  0  0
 11 12  1  0  0  0  0
 12 13  1  0  0  0  0
 13 14  1  0  0  0  0
 14 15  1  0  0  0  0
 15 16  1  0  0  0  0
 16 17  1  0  0  0  0
 17 18  1  0  0  0  0
 18 19  1  0  0  0  0
 19 20  1  0  0  0  0
 20 21  1  0  0  0  0
 21 22  1  0  0  0  0
 22 23  1  0  0  0  0
 23 24  1  0  0  0  0
 24 25  1  0  0  0  0
 25 26  1  0  0  0  0
 26 27  1  0  0  0  0
 27 28  1  0  0  0  0
 28 29  1  0  0  0  0
 29 30  1  0  0  0  0
 30 31  1  0  0  0  0
 31 32  1  0  0  0  0
 32 33  1  0  0  0  0
 33 34  1  0  0  0  0
 34 35  1  0  0  0  0
 35 36  1  0  0  0  0
 36 37  1  0  0  0  0
 37 38  1  0  0  0  0
 38 39  1  0  0  0  0
 39 40  1  0  0  0  0
 40 41  1  0  0  0  0
 41 42  1  0  0  0  0
 42 43  1  0  0  0  0
 43 44  1  0  0  0  0
 44 45  1  0  0  0  0
 45 46  1  0  0  0  0
 46 47  1  0  0  0  0
 47 48  1  0  0  0  0
 48 49  1  0  0  0  0
 49 50  1  0  0  0  0
 50 51  1  0  0  0  0
 51 52  1  0  0  0  0
 52 53  1  0  0  0  0
 53 54  1  0  0  0  0
 54 55  1  0  0  0  0
 55 56  1  0  0  0  0
 56 57  1  0  0  0  0
 57 58  1  0  0  0  0
 58 59  1  0  0  0  0
 59 60  1  0  0  0  0
 60 61  1  0  0  0  0
 61 62  1  0  0  0  0
 62 63  1  0  0  0  0
 63 64  1  0  0  0  0
 64 65  1  0  0  0  0
 65 66  1  0  0  0  0
 66 67  1  0  0  0  0
 67 68  1  0  0  0  0
 67 95  1  0  0  0  0
 67 96  1  0  0  0  0
 68 69  1  0  0  0  0
 68 97  1  0  0  0  0
 68 98  1  0  0  0  0
 69 70  1  0  0  0  0
 69 99  1  0  0  0  0
 69100  1  0  0  0  0
 70 71  1  0  0  0  0
 70101  1  0  0  0  0
 70102  1  0  0  0  0
 71 72  1  0  0  0  0
 71103  1  0  0  0  0
 71104  1  0  0  0  0
 72 73  1  0  0  0  0
 72105  1  0  0  0  0
 72106  1  0  0  0  0
 73 74  1  0  0  0  0
 73107  1  0  0  0  0
 73108  1  0  0  0  0
 74 75  1  0  0  0  0
 74109  1  0  0  0  0
 74110  1  0  0  0  0
 75 76  1  0  0  0  0
 75111  1  0  0  0  0
 75112  1  0  0  0  0
 76 77  1  0  0  0  0
 76113  1  0  0  0  0
 76114  1  0  0  0  0
 77 78  1  0  0  0  0
 77115  1  0  0  0  0
 77116  1  0  0  0  0
 78 79  1  0  0  0  0
 78117  1  0  0  0  0
 78118  1  0  0  0  0
 79 80  1  0  0  0  0
 79119  1  0  0  0  0
 79120  1  0  0  0  0
 80 81  1  0  0  0  0
 80121  1  0  0  0  0
 80122  1  0  0  0  0
 81123  1  0  0  0  0
 81124  1  0  0  0  0
 81125  1  0  0  0  0
M  END
$$$$
