
 OpenBabel04232216563D

213213  0  0  0  0  0  0  0  0999 V2000
    7.9460   -2.5595   -2.2513 C   0  0  0  0  0  0  0  0  0  0  0  0
    6.8952   -1.5408   -2.2072 N   0  0  0  0  0  0  0  0  0  0  0  0
    7.2907   -0.3327   -2.9310 C   0  0  0  0  0  0  0  0  0  0  0  0
    5.9441    0.2685   -3.2709 C   0  0  0  0  0  0  0  0  0  0  0  0
    5.1293   -0.8505   -3.6283 O   0  0  0  0  0  0  0  0  0  0  0  0
    5.7525   -2.0042   -2.9718 N   0  0  0  0  0  0  0  0  0  0  0  0
    4.7214   -2.5160   -2.0585 C   0  0  0  0  0  0  0  0  0  0  0  0
    3.5492   -2.8949   -2.7746 O   0  0  0  0  0  0  0  0  0  0  0  0
    2.6561   -3.4539   -1.7784 O   0  0  0  0  0  0  0  0  0  0  0  0
    1.4265   -3.8857   -2.4013 O   0  0  0  0  0  0  0  0  0  0  0  0
    1.6930   -4.9601   -3.3323 O   0  0  0  0  0  0  0  0  0  0  0  0
    0.5761   -5.1215   -4.2380 O   0  0  0  0  0  0  0  0  0  0  0  0
    1.0030   -6.0887   -5.1769 C   0  0  0  0  0  0  0  0  0  0  0  0
   -0.2250   -6.5113   -5.9607 C   0  0  0  0  0  0  0  0  0  0  0  0
    0.1306   -7.5451   -7.0117 C   0  0  0  0  0  0  0  0  0  0  0  0
   -1.1166   -7.9483   -7.7749 C   0  0  0  0  0  0  0  0  0  0  0  0
   -0.7660   -8.9790   -8.8300 C   0  0  0  0  0  0  0  0  0  0  0  0
   -2.0146   -9.3784   -9.5936 C   0  0  0  0  0  0  0  0  0  0  0  0
   -1.6574  -10.4039  -10.6503 C   0  0  0  0  0  0  0  0  0  0  0  0
   -2.9020  -10.8063  -11.4155 C   0  0  0  0  0  0  0  0  0  0  0  0
   -2.5430  -11.8339  -12.4705 C   0  0  0  0  0  0  0  0  0  0  0  0
   -3.7884  -12.2347  -13.2356 C   0  0  0  0  0  0  0  0  0  0  0  0
   -3.4296  -13.2615  -14.2912 C   0  0  0  0  0  0  0  0  0  0  0  0
   -4.6738  -13.6646  -15.0574 C   0  0  0  0  0  0  0  0  0  0  0  0
   -4.3148  -14.6922  -16.1126 C   0  0  0  0  0  0  0  0  0  0  0  0
   -5.5585  -15.0952  -16.8799 C   0  0  0  0  0  0  0  0  0  0  0  0
   -5.2011  -16.1226  -17.9351 C   0  0  0  0  0  0  0  0  0  0  0  0
   -6.4455  -16.5257  -18.7019 C   0  0  0  0  0  0  0  0  0  0  0  0
   -6.0880  -17.5529  -19.7586 C   0  0  0  0  0  0  0  0  0  0  0  0
   -7.3330  -17.9553  -20.5254 C   0  0  0  0  0  0  0  0  0  0  0  0
   -6.9760  -18.9831  -21.5818 C   0  0  0  0  0  0  0  0  0  0  0  0
   -8.2208  -19.3858  -22.3487 C   0  0  0  0  0  0  0  0  0  0  0  0
   -7.8637  -20.4126  -23.4060 C   0  0  0  0  0  0  0  0  0  0  0  0
   -9.1084  -20.8150  -24.1732 C   0  0  0  0  0  0  0  0  0  0  0  0
   -8.7511  -21.8407  -25.2318 C   0  0  0  0  0  0  0  0  0  0  0  0
   -9.9956  -22.2419  -26.0001 C   0  0  0  0  0  0  0  0  0  0  0  0
   -9.6386  -23.2684  -27.0579 C   0  0  0  0  0  0  0  0  0  0  0  0
  -10.8831  -23.6693  -27.8265 C   0  0  0  0  0  0  0  0  0  0  0  0
  -10.5259  -24.6960  -28.8839 C   0  0  0  0  0  0  0  0  0  0  0  0
  -11.7704  -25.0964  -29.6530 C   0  0  0  0  0  0  0  0  0  0  0  0
  -11.4132  -26.1233  -30.7103 C   0  0  0  0  0  0  0  0  0  0  0  0
  -12.6572  -26.5255  -31.4785 C   0  0  0  0  0  0  0  0  0  0  0  0
  -12.3000  -27.5477  -32.5366 C   0  0  0  0  0  0  0  0  0  0  0  0
  -13.5442  -27.9547  -33.3033 C   0  0  0  0  0  0  0  0  0  0  0  0
  -13.1868  -28.9810  -34.3616 C   0  0  0  0  0  0  0  0  0  0  0  0
  -14.4323  -29.3859  -35.1275 C   0  0  0  0  0  0  0  0  0  0  0  0
  -14.0736  -30.4097  -36.1861 C   0  0  0  0  0  0  0  0  0  0  0  0
  -15.3198  -30.8145  -36.9522 C   0  0  0  0  0  0  0  0  0  0  0  0
  -14.9622  -31.8381  -38.0126 C   0  0  0  0  0  0  0  0  0  0  0  0
  -16.2077  -32.2433  -38.7773 C   0  0  0  0  0  0  0  0  0  0  0  0
  -15.8500  -33.2669  -39.8377 C   0  0  0  0  0  0  0  0  0  0  0  0
  -17.0953  -33.6742  -40.6014 C   0  0  0  0  0  0  0  0  0  0  0  0
  -16.7374  -34.6986  -41.6611 C   0  0  0  0  0  0  0  0  0  0  0  0
  -17.9831  -35.1048  -42.4251 C   0  0  0  0  0  0  0  0  0  0  0  0
  -17.6254  -36.1288  -43.4850 C   0  0  0  0  0  0  0  0  0  0  0  0
  -18.8711  -36.5354  -44.2485 C   0  0  0  0  0  0  0  0  0  0  0  0
  -18.5133  -37.5589  -45.3089 C   0  0  0  0  0  0  0  0  0  0  0  0
  -19.7587  -37.9646  -46.0730 C   0  0  0  0  0  0  0  0  0  0  0  0
  -19.4004  -38.9871  -47.1339 C   0  0  0  0  0  0  0  0  0  0  0  0
  -20.6454  -39.3925  -47.8957 C   0  0  0  0  0  0  0  0  0  0  0  0
  -20.2879  -40.4172  -48.9570 C   0  0  0  0  0  0  0  0  0  0  0  0
  -21.5329  -40.8211  -49.7204 C   0  0  0  0  0  0  0  0  0  0  0  0
  -21.1757  -41.8477  -50.7781 C   0  0  0  0  0  0  0  0  0  0  0  0
  -22.4201  -42.2518  -51.5457 C   0  0  0  0  0  0  0  0  0  0  0  0
  -22.0629  -43.2792  -52.6002 C   0  0  0  0  0  0  0  0  0  0  0  0
  -23.3063  -43.6828  -53.3699 C   0  0  0  0  0  0  0  0  0  0  0  0
  -22.9477  -44.7104  -54.4272 C   0  0  0  0  0  0  0  0  0  0  0  0
  -24.1919  -45.1137  -55.1938 C   0  0  0  0  0  0  0  0  0  0  0  0
  -23.8367  -46.1401  -56.2534 C   0  0  0  0  0  0  0  0  0  0  0  0
  -25.0849  -46.5440  -57.0170 C   0  0  0  0  0  0  0  0  0  0  0  0
  -24.7362  -47.5687  -58.0815 C   0  0  0  0  0  0  0  0  0  0  0  0
  -25.9870  -47.9730  -58.8459 C   0  0  0  0  0  0  0  0  0  0  0  0
  -25.6359  -48.9897  -59.9186 C   0  0  0  0  0  0  0  0  0  0  0  0
  -26.8656  -49.3946  -60.7081 C   0  0  0  0  0  0  0  0  0  0  0  0
  -26.4424  -50.2764  -61.7374 O   0  0  0  0  0  0  0  0  0  0  0  0
  -27.6629  -50.7119  -62.3867 O   0  0  0  0  0  0  0  0  0  0  0  0
  -27.3740  -51.7353  -63.3734 O   0  0  0  0  0  0  0  0  0  0  0  0
  -26.7854  -52.9047  -62.7461 O   0  0  0  0  0  0  0  0  0  0  0  0
  -27.7540  -53.5780  -61.9041 O   0  0  0  0  0  0  0  0  0  0  0  0
    8.8387   -2.1982   -1.7300 H   0  0  0  0  0  0  0  0  0  0  0  0
    8.2284   -2.8333   -3.2740 H   0  0  0  0  0  0  0  0  0  0  0  0
    7.6207   -3.4679   -1.7326 H   0  0  0  0  0  0  0  0  0  0  0  0
    7.8278   -0.5714   -3.8583 H   0  0  0  0  0  0  0  0  0  0  0  0
    7.9050    0.3413   -2.3266 H   0  0  0  0  0  0  0  0  0  0  0  0
    6.0023    0.9558   -4.1194 H   0  0  0  0  0  0  0  0  0  0  0  0
    5.4867    0.7816   -2.4193 H   0  0  0  0  0  0  0  0  0  0  0  0
    4.4428   -1.7673   -1.3045 H   0  0  0  0  0  0  0  0  0  0  0  0
    5.1030   -3.4043   -1.5402 H   0  0  0  0  0  0  0  0  0  0  0  0
    1.4374   -6.9522   -4.6638 H   0  0  0  0  0  0  0  0  0  0  0  0
    1.7557   -5.6478   -5.8396 H   0  0  0  0  0  0  0  0  0  0  0  0
   -0.6854   -5.6320   -6.4292 H   0  0  0  0  0  0  0  0  0  0  0  0
   -0.9783   -6.9138   -5.2719 H   0  0  0  0  0  0  0  0  0  0  0  0
    0.5781   -8.4268   -6.5365 H   0  0  0  0  0  0  0  0  0  0  0  0
    0.8767   -7.1352   -7.7042 H   0  0  0  0  0  0  0  0  0  0  0  0
   -1.5680   -7.0680   -8.2497 H   0  0  0  0  0  0  0  0  0  0  0  0
   -1.8627   -8.3616   -7.0847 H   0  0  0  0  0  0  0  0  0  0  0  0
   -0.3194   -9.8625   -8.3576 H   0  0  0  0  0  0  0  0  0  0  0  0
   -0.0207   -8.5685   -9.5224 H   0  0  0  0  0  0  0  0  0  0  0  0
   -2.4647   -8.4958  -10.0646 H   0  0  0  0  0  0  0  0  0  0  0  0
   -2.7581   -9.7939   -8.9017 H   0  0  0  0  0  0  0  0  0  0  0  0
   -1.2060  -11.2863  -10.1805 H   0  0  0  0  0  0  0  0  0  0  0  0
   -0.9131   -9.9874  -11.3404 H   0  0  0  0  0  0  0  0  0  0  0  0
   -3.3517   -9.9249  -11.8890 H   0  0  0  0  0  0  0  0  0  0  0  0
   -3.6481  -11.2213  -10.7265 H   0  0  0  0  0  0  0  0  0  0  0  0
   -2.0933  -12.7157  -11.9977 H   0  0  0  0  0  0  0  0  0  0  0  0
   -1.7969  -11.4192  -13.1593 H   0  0  0  0  0  0  0  0  0  0  0  0
   -4.2382  -11.3526  -13.7077 H   0  0  0  0  0  0  0  0  0  0  0  0
   -4.5339  -12.6498  -12.5463 H   0  0  0  0  0  0  0  0  0  0  0  0
   -2.9788  -14.1425  -13.8181 H   0  0  0  0  0  0  0  0  0  0  0  0
   -2.6839  -12.8452  -14.9797 H   0  0  0  0  0  0  0  0  0  0  0  0
   -5.1241  -12.7832  -15.5304 H   0  0  0  0  0  0  0  0  0  0  0  0
   -5.4196  -14.0799  -14.3684 H   0  0  0  0  0  0  0  0  0  0  0  0
   -3.8650  -15.5737  -15.6388 H   0  0  0  0  0  0  0  0  0  0  0  0
   -3.5683  -14.2769  -16.8012 H   0  0  0  0  0  0  0  0  0  0  0  0
   -6.0086  -14.2133  -17.3531 H   0  0  0  0  0  0  0  0  0  0  0  0
   -6.3057  -15.5099  -16.1907 H   0  0  0  0  0  0  0  0  0  0  0  0
   -4.7515  -17.0048  -17.4612 H   0  0  0  0  0  0  0  0  0  0  0  0
   -4.4540  -15.7084  -18.6240 H   0  0  0  0  0  0  0  0  0  0  0  0
   -6.8956  -15.6441  -19.1743 H   0  0  0  0  0  0  0  0  0  0  0  0
   -7.1915  -16.9413  -18.0130 H   0  0  0  0  0  0  0  0  0  0  0  0
   -5.6379  -18.4346  -19.2862 H   0  0  0  0  0  0  0  0  0  0  0  0
   -5.3424  -17.1370  -20.4473 H   0  0  0  0  0  0  0  0  0  0  0  0
   -7.7827  -17.0734  -20.9981 H   0  0  0  0  0  0  0  0  0  0  0  0
   -8.0790  -18.3703  -19.8364 H   0  0  0  0  0  0  0  0  0  0  0  0
   -6.5262  -19.8649  -21.1089 H   0  0  0  0  0  0  0  0  0  0  0  0
   -6.2299  -18.5680  -22.2705 H   0  0  0  0  0  0  0  0  0  0  0  0
   -8.6711  -18.5038  -22.8207 H   0  0  0  0  0  0  0  0  0  0  0  0
   -8.9665  -19.8016  -21.6599 H   0  0  0  0  0  0  0  0  0  0  0  0
   -7.4135  -21.2947  -22.9341 H   0  0  0  0  0  0  0  0  0  0  0  0
   -7.1178  -19.9967  -24.0946 H   0  0  0  0  0  0  0  0  0  0  0  0
   -9.5592  -19.9328  -24.6442 H   0  0  0  0  0  0  0  0  0  0  0  0
   -9.8538  -21.2320  -23.4848 H   0  0  0  0  0  0  0  0  0  0  0  0
   -8.3013  -22.7234  -24.7606 H   0  0  0  0  0  0  0  0  0  0  0  0
   -8.0049  -21.4242  -25.9196 H   0  0  0  0  0  0  0  0  0  0  0  0
  -10.4448  -21.3592  -26.4718 H   0  0  0  0  0  0  0  0  0  0  0  0
  -10.7422  -22.6577  -25.3122 H   0  0  0  0  0  0  0  0  0  0  0  0
   -9.1896  -24.1511  -26.5862 H   0  0  0  0  0  0  0  0  0  0  0  0
   -8.8919  -22.8526  -27.7457 H   0  0  0  0  0  0  0  0  0  0  0  0
  -11.3319  -22.7866  -28.2985 H   0  0  0  0  0  0  0  0  0  0  0  0
  -11.6300  -24.0846  -27.1387 H   0  0  0  0  0  0  0  0  0  0  0  0
  -10.0777  -25.5790  -28.4117 H   0  0  0  0  0  0  0  0  0  0  0  0
   -9.7786  -24.2810  -29.5713 H   0  0  0  0  0  0  0  0  0  0  0  0
  -12.2187  -24.2134  -30.1252 H   0  0  0  0  0  0  0  0  0  0  0  0
  -12.5172  -25.5113  -28.9656 H   0  0  0  0  0  0  0  0  0  0  0  0
  -10.9647  -27.0056  -30.2385 H   0  0  0  0  0  0  0  0  0  0  0  0
  -10.6668  -25.7079  -31.3983 H   0  0  0  0  0  0  0  0  0  0  0  0
  -13.1079  -25.6435  -31.9499 H   0  0  0  0  0  0  0  0  0  0  0  0
  -13.4032  -26.9422  -30.7900 H   0  0  0  0  0  0  0  0  0  0  0  0
  -11.8485  -28.4336  -32.0645 H   0  0  0  0  0  0  0  0  0  0  0  0
  -11.5533  -27.1347  -33.2260 H   0  0  0  0  0  0  0  0  0  0  0  0
  -13.9949  -27.0729  -33.7748 H   0  0  0  0  0  0  0  0  0  0  0  0
  -14.2893  -28.3719  -32.6144 H   0  0  0  0  0  0  0  0  0  0  0  0
  -12.7347  -29.8622  -33.8906 H   0  0  0  0  0  0  0  0  0  0  0  0
  -12.4431  -28.5630  -35.0510 H   0  0  0  0  0  0  0  0  0  0  0  0
  -14.8830  -28.5053  -35.5954 H   0  0  0  0  0  0  0  0  0  0  0  0
  -15.1756  -29.8038  -34.4378 H   0  0  0  0  0  0  0  0  0  0  0  0
  -13.6217  -31.2917  -35.7166 H   0  0  0  0  0  0  0  0  0  0  0  0
  -13.3310  -29.9915  -36.8757 H   0  0  0  0  0  0  0  0  0  0  0  0
  -15.7735  -29.9328  -37.4214 H   0  0  0  0  0  0  0  0  0  0  0  0
  -16.0632  -31.2338  -36.2629 H   0  0  0  0  0  0  0  0  0  0  0  0
  -14.5080  -32.7196  -37.5435 H   0  0  0  0  0  0  0  0  0  0  0  0
  -14.2195  -31.4185  -38.7023 H   0  0  0  0  0  0  0  0  0  0  0  0
  -16.6626  -31.3619  -39.2459 H   0  0  0  0  0  0  0  0  0  0  0  0
  -16.9499  -32.6634  -38.0873 H   0  0  0  0  0  0  0  0  0  0  0  0
  -15.3945  -34.1477  -39.3683 H   0  0  0  0  0  0  0  0  0  0  0  0
  -15.1081  -32.8469  -40.5281 H   0  0  0  0  0  0  0  0  0  0  0  0
  -17.5512  -32.7937  -41.0708 H   0  0  0  0  0  0  0  0  0  0  0  0
  -17.8369  -34.0943  -39.9107 H   0  0  0  0  0  0  0  0  0  0  0  0
  -16.2828  -35.5796  -41.1914 H   0  0  0  0  0  0  0  0  0  0  0  0
  -15.9951  -34.2795  -42.3515 H   0  0  0  0  0  0  0  0  0  0  0  0
  -18.4381  -34.2238  -42.8944 H   0  0  0  0  0  0  0  0  0  0  0  0
  -18.7252  -35.5244  -41.7347 H   0  0  0  0  0  0  0  0  0  0  0  0
  -17.1699  -37.0096  -43.0159 H   0  0  0  0  0  0  0  0  0  0  0  0
  -16.8837  -35.7088  -44.1757 H   0  0  0  0  0  0  0  0  0  0  0  0
  -19.3268  -35.6546  -44.7175 H   0  0  0  0  0  0  0  0  0  0  0  0
  -19.6127  -36.9557  -43.5580 H   0  0  0  0  0  0  0  0  0  0  0  0
  -18.0584  -38.4401  -44.8399 H   0  0  0  0  0  0  0  0  0  0  0  0
  -17.7711  -37.1389  -45.9990 H   0  0  0  0  0  0  0  0  0  0  0  0
  -20.2142  -37.0834  -46.5414 H   0  0  0  0  0  0  0  0  0  0  0  0
  -20.5006  -38.3854  -45.3831 H   0  0  0  0  0  0  0  0  0  0  0  0
  -18.9444  -39.8682  -46.6659 H   0  0  0  0  0  0  0  0  0  0  0  0
  -18.6594  -38.5661  -47.8246 H   0  0  0  0  0  0  0  0  0  0  0  0
  -21.1018  -38.5129  -48.3665 H   0  0  0  0  0  0  0  0  0  0  0  0
  -21.3879  -39.8138  -47.2068 H   0  0  0  0  0  0  0  0  0  0  0  0
  -19.8334  -41.2984  -48.4876 H   0  0  0  0  0  0  0  0  0  0  0  0
  -19.5456  -39.9974  -49.6468 H   0  0  0  0  0  0  0  0  0  0  0  0
  -21.9872  -39.9411  -50.1913 H   0  0  0  0  0  0  0  0  0  0  0  0
  -22.2773  -41.2389  -49.0297 H   0  0  0  0  0  0  0  0  0  0  0  0
  -20.7232  -42.7289  -50.3081 H   0  0  0  0  0  0  0  0  0  0  0  0
  -20.4313  -41.4291  -51.4675 H   0  0  0  0  0  0  0  0  0  0  0  0
  -22.8721  -41.3717  -52.0182 H   0  0  0  0  0  0  0  0  0  0  0  0
  -23.1653  -42.6685  -50.8554 H   0  0  0  0  0  0  0  0  0  0  0  0
  -21.6121  -44.1611  -52.1289 H   0  0  0  0  0  0  0  0  0  0  0  0
  -21.3144  -42.8644  -53.2908 H   0  0  0  0  0  0  0  0  0  0  0  0
  -23.7559  -42.8010  -53.8421 H   0  0  0  0  0  0  0  0  0  0  0  0
  -24.0517  -44.0981  -52.6817 H   0  0  0  0  0  0  0  0  0  0  0  0
  -22.4973  -45.5926  -53.9541 H   0  0  0  0  0  0  0  0  0  0  0  0
  -22.2028  -44.2943  -55.1154 H   0  0  0  0  0  0  0  0  0  0  0  0
  -24.6420  -44.2307  -55.6647 H   0  0  0  0  0  0  0  0  0  0  0  0
  -24.9372  -45.5291  -54.5047 H   0  0  0  0  0  0  0  0  0  0  0  0
  -23.3835  -47.0214  -55.7831 H   0  0  0  0  0  0  0  0  0  0  0  0
  -23.0934  -45.7224  -56.9436 H   0  0  0  0  0  0  0  0  0  0  0  0
  -25.5377  -45.6599  -57.4833 H   0  0  0  0  0  0  0  0  0  0  0  0
  -25.8262  -46.9615  -56.3251 H   0  0  0  0  0  0  0  0  0  0  0  0
  -24.2827  -48.4514  -57.6138 H   0  0  0  0  0  0  0  0  0  0  0  0
  -23.9932  -47.1496  -58.7712 H   0  0  0  0  0  0  0  0  0  0  0  0
  -26.4381  -47.0860  -59.3096 H   0  0  0  0  0  0  0  0  0  0  0  0
  -26.7271  -48.3929  -58.1575 H   0  0  0  0  0  0  0  0  0  0  0  0
  -25.1800  -49.8798  -59.4655 H   0  0  0  0  0  0  0  0  0  0  0  0
  -24.8799  -48.5804  -60.6012 H   0  0  0  0  0  0  0  0  0  0  0  0
  -27.3388  -48.5177  -61.1640 H   0  0  0  0  0  0  0  0  0  0  0  0
  -27.5914  -49.8950  -60.0565 H   0  0  0  0  0  0  0  0  0  0  0  0
  -27.1153  -54.1836  -61.4916 H   0  0  0  0  0  0  0  0  0  0  0  0
  1  2  1  0  0  0  0
  1 80  1  0  0  0  0
  1 81  1  0  0  0  0
  1 82  1  0  0  0  0
  2  3  1  0  0  0  0
  2  6  1  0  0  0  0
  3  4  1  0  0  0  0
  3 83  1  0  0  0  0
  3 84  1  0  0  0  0
  4  5  1  0  0  0  0
  4 85  1  0  0  0  0
  4 86  1  0  0  0  0
  5  6  1  0  0  0  0
  6  7  1  0  0  0  0
  7  8  1  0  0  0  0
  7 87  1  0  0  0  0
  7 88  1  0  0  0  0
  8  9  1  0  0  0  0
  9 10  1  0  0  0  0
 10 11  1  0  0  0  0
 11 12  1  0  0  0  0
 12 13  1  0  0  0  0
 13 14  1  0  0  0  0
 13 89  1  0  0  0  0
 13 90  1  0  0  0  0
 14 15  1  0  0  0  0
 14 91  1  0  0  0  0
 14 92  1  0  0  0  0
 15 16  1  0  0  0  0
 15 93  1  0  0  0  0
 15 94  1  0  0  0  0
 16 17  1  0  0  0  0
 16 95  1  0  0  0  0
 16 96  1  0  0  0  0
 17 18  1  0  0  0  0
 17 97  1  0  0  0  0
 17 98  1  0  0  0  0
 18 19  1  0  0  0  0
 18 99  1  0  0  0  0
 18100  1  0  0  0  0
 19 20  1  0  0  0  0
 19101  1  0  0  0  0
 19102  1  0  0  0  0
 20 21  1  0  0  0  0
 20103  1  0  0  0  0
 20104  1  0  0  0  0
 21 22  1  0  0  0  0
 21105  1  0  0  0  0
 21106  1  0  0  0  0
 22 23  1  0  0  0  0
 22107  1  0  0  0  0
 22108  1  0  0  0  0
 23 24  1  0  0  0  0
 23109  1  0  0  0  0
 23110  1  0  0  0  0
 24 25  1  0  0  0  0
 24111  1  0  0  0  0
 24112  1  0  0  0  0
 25 26  1  0  0  0  0
 25113  1  0  0  0  0
 25114  1  0  0  0  0
 26 27  1  0  0  0  0
 26115  1  0  0  0  0
 26116  1  0  0  0  0
 27 28  1  0  0  0  0
 27117  1  0  0  0  0
 27118  1  0  0  0  0
 28 29  1  0  0  0  0
 28119  1  0  0  0  0
 28120  1  0  0  0  0
 29 30  1  0  0  0  0
 29121  1  0  0  0  0
 29122  1  0  0  0  0
 30 31  1  0  0  0  0
 30123  1  0  0  0  0
 30124  1  0  0  0  0
 31 32  1  0  0  0  0
 31125  1  0  0  0  0
 31126  1  0  0  0  0
 32 33  1  0  0  0  0
 32127  1  0  0  0  0
 32128  1  0  0  0  0
 33 34  1  0  0  0  0
 33129  1  0  0  0  0
 33130  1  0  0  0  0
 34 35  1  0  0  0  0
 34131  1  0  0  0  0
 34132  1  0  0  0  0
 35 36  1  0  0  0  0
 35133  1  0  0  0  0
 35134  1  0  0  0  0
 36 37  1  0  0  0  0
 36135  1  0  0  0  0
 36136  1  0  0  0  0
 37 38  1  0  0  0  0
 37137  1  0  0  0  0
 37138  1  0  0  0  0
 38 39  1  0  0  0  0
 38139  1  0  0  0  0
 38140  1  0  0  0  0
 39 40  1  0  0  0  0
 39141  1  0  0  0  0
 39142  1  0  0  0  0
 40 41  1  0  0  0  0
 40143  1  0  0  0  0
 40144  1  0  0  0  0
 41 42  1  0  0  0  0
 41145  1  0  0  0  0
 41146  1  0  0  0  0
 42 43  1  0  0  0  0
 42147  1  0  0  0  0
 42148  1  0  0  0  0
 43 44  1  0  0  0  0
 43149  1  0  0  0  0
 43150  1  0  0  0  0
 44 45  1  0  0  0  0
 44151  1  0  0  0  0
 44152  1  0  0  0  0
 45 46  1  0  0  0  0
 45153  1  0  0  0  0
 45154  1  0  0  0  0
 46 47  1  0  0  0  0
 46155  1  0  0  0  0
 46156  1  0  0  0  0
 47 48  1  0  0  0  0
 47157  1  0  0  0  0
 47158  1  0  0  0  0
 48 49  1  0  0  0  0
 48159  1  0  0  0  0
 48160  1  0  0  0  0
 49 50  1  0  0  0  0
 49161  1  0  0  0  0
 49162  1  0  0  0  0
 50 51  1  0  0  0  0
 50163  1  0  0  0  0
 50164  1  0  0  0  0
 51 52  1  0  0  0  0
 51165  1  0  0  0  0
 51166  1  0  0  0  0
 52 53  1  0  0  0  0
 52167  1  0  0  0  0
 52168  1  0  0  0  0
 53 54  1  0  0  0  0
 53169  1  0  0  0  0
 53170  1  0  0  0  0
 54 55  1  0  0  0  0
 54171  1  0  0  0  0
 54172  1  0  0  0  0
 55 56  1  0  0  0  0
 55173  1  0  0  0  0
 55174  1  0  0  0  0
 56 57  1  0  0  0  0
 56175  1  0  0  0  0
 56176  1  0  0  0  0
 57 58  1  0  0  0  0
 57177  1  0  0  0  0
 57178  1  0  0  0  0
 58 59  1  0  0  0  0
 58179  1  0  0  0  0
 58180  1  0  0  0  0
 59 60  1  0  0  0  0
 59181  1  0  0  0  0
 59182  1  0  0  0  0
 60 61  1  0  0  0  0
 60183  1  0  0  0  0
 60184  1  0  0  0  0
 61 62  1  0  0  0  0
 61185  1  0  0  0  0
 61186  1  0  0  0  0
 62 63  1  0  0  0  0
 62187  1  0  0  0  0
 62188  1  0  0  0  0
 63 64  1  0  0  0  0
 63189  1  0  0  0  0
 63190  1  0  0  0  0
 64 65  1  0  0  0  0
 64191  1  0  0  0  0
 64192  1  0  0  0  0
 65 66  1  0  0  0  0
 65193  1  0  0  0  0
 65194  1  0  0  0  0
 66 67  1  0  0  0  0
 66195  1  0  0  0  0
 66196  1  0  0  0  0
 67 68  1  0  0  0  0
 67197  1  0  0  0  0
 67198  1  0  0  0  0
 68 69  1  0  0  0  0
 68199  1  0  0  0  0
 68200  1  0  0  0  0
 69 70  1  0  0  0  0
 69201  1  0  0  0  0
 69202  1  0  0  0  0
 70 71  1  0  0  0  0
 70203  1  0  0  0  0
 70204  1  0  0  0  0
 71 72  1  0  0  0  0
 71205  1  0  0  0  0
 71206  1  0  0  0  0
 72 73  1  0  0  0  0
 72207  1  0  0  0  0
 72208  1  0  0  0  0
 73 74  1  0  0  0  0
 73209  1  0  0  0  0
 73210  1  0  0  0  0
 74 75  1  0  0  0  0
 74211  1  0  0  0  0
 74212  1  0  0  0  0
 75 76  1  0  0  0  0
 76 77  1  0  0  0  0
 77 78  1  0  0  0  0
 78 79  1  0  0  0  0
 79213  1  0  0  0  0
M  END
$$$$
