
 OpenBabel04232216523D

 61 61  0  0  0  0  0  0  0  0999 V2000
    3.6203    0.7194   -2.2496 C   0  0  0  0  0  0  0  0  0  0  0  0
    5.0131    0.0768   -1.9191 C   0  0  0  0  0  0  0  0  0  0  0  0
    6.4229    0.5190   -2.7247 C   0  0  0  0  0  0  0  0  0  0  0  0
    7.6837   -0.5451   -3.0933 C   0  0  0  0  0  0  0  0  0  0  0  0
    7.0985   -1.8178   -2.8443 C   0  0  0  0  0  0  0  0  0  0  0  0
    7.2366   -2.5091   -1.7110 C   0  0  0  0  0  0  0  0  0  0  0  0
    7.8107   -1.8816   -0.4568 C   0  0  0  0  0  0  0  0  0  0  0  0
    7.2669   -3.9348   -2.0272 C   0  0  0  0  0  0  0  0  0  0  0  0
    8.4704   -4.2291   -2.5906 C   0  0  0  0  0  0  0  0  0  0  0  0
    8.7631   -4.7595   -3.9150 C   0  0  0  0  0  0  0  0  0  0  0  0
    7.8827   -4.7715   -5.1750 C   0  0  0  0  0  0  0  0  0  0  0  0
    6.7379   -3.8165   -5.4914 C   0  0  0  0  0  0  0  0  0  0  0  0
    6.1054   -4.2065   -6.8460 C   0  0  0  0  0  0  0  0  0  0  0  0
   10.0764   -5.0016   -4.0245 C   0  0  0  0  0  0  0  0  0  0  0  0
   10.8482   -5.0462   -5.2167 C   0  0  0  0  0  0  0  0  0  0  0  0
   12.1509   -4.8645   -4.9774 C   0  0  0  0  0  0  0  0  0  0  0  0
   12.7963   -3.8651   -5.7819 C   0  0  0  0  0  0  0  0  0  0  0  0
   13.5186   -4.7810   -6.9091 C   0  0  0  0  0  0  0  0  0  0  0  0
   14.9088   -4.9356   -7.6090 C   0  0  0  0  0  0  0  0  0  0  0  0
   16.1436   -5.4758   -6.8723 C   0  0  0  0  0  0  0  0  0  0  0  0
   16.1161   -6.9082   -6.3399 C   0  0  0  0  0  0  0  0  0  0  0  0
   12.4259   -2.5445   -5.4640 C   0  0  0  0  0  0  0  0  0  0  0  0
   11.5350   -1.9905   -4.1645 C   0  0  0  0  0  0  0  0  0  0  0  0
   10.4694   -1.3279   -3.5109 C   0  0  0  0  0  0  0  0  0  0  0  0
    9.0681   -0.4298   -3.3883 C   0  0  0  0  0  0  0  0  0  0  0  0
    2.9306    0.5973   -1.3905 H   0  0  0  0  0  0  0  0  0  0  0  0
    3.1010    0.2116   -3.0747 H   0  0  0  0  0  0  0  0  0  0  0  0
    3.6468    1.7922   -2.4567 H   0  0  0  0  0  0  0  0  0  0  0  0
    4.8309   -1.0027   -1.9577 H   0  0  0  0  0  0  0  0  0  0  0  0
    5.1650    0.3165   -0.8563 H   0  0  0  0  0  0  0  0  0  0  0  0
    6.8555    1.2953   -2.0823 H   0  0  0  0  0  0  0  0  0  0  0  0
    6.0892    0.9795   -3.6602 H   0  0  0  0  0  0  0  0  0  0  0  0
    6.5273   -2.2150   -3.6844 H   0  0  0  0  0  0  0  0  0  0  0  0
    6.9878   -1.5814    0.2215 H   0  0  0  0  0  0  0  0  0  0  0  0
    8.3614   -0.9513   -0.6556 H   0  0  0  0  0  0  0  0  0  0  0  0
    8.4838   -2.5360    0.0823 H   0  0  0  0  0  0  0  0  0  0  0  0
    6.3590   -4.3778   -2.4181 H   0  0  0  0  0  0  0  0  0  0  0  0
    9.3114   -3.6422   -2.1891 H   0  0  0  0  0  0  0  0  0  0  0  0
    7.4810   -5.7833   -5.2551 H   0  0  0  0  0  0  0  0  0  0  0  0
    8.5231   -4.6402   -6.0563 H   0  0  0  0  0  0  0  0  0  0  0  0
    7.0952   -2.7853   -5.5733 H   0  0  0  0  0  0  0  0  0  0  0  0
    5.9616   -3.9005   -4.7282 H   0  0  0  0  0  0  0  0  0  0  0  0
    6.8157   -3.9611   -7.6499 H   0  0  0  0  0  0  0  0  0  0  0  0
    5.1786   -3.6476   -6.9953 H   0  0  0  0  0  0  0  0  0  0  0  0
    5.8689   -5.2742   -6.8553 H   0  0  0  0  0  0  0  0  0  0  0  0
   10.6943   -4.8535   -3.1289 H   0  0  0  0  0  0  0  0  0  0  0  0
   10.4382   -4.6515   -6.1492 H   0  0  0  0  0  0  0  0  0  0  0  0
   12.6533   -5.1553   -4.0618 H   0  0  0  0  0  0  0  0  0  0  0  0
   12.8101   -4.7543   -7.7528 H   0  0  0  0  0  0  0  0  0  0  0  0
   13.4088   -5.8245   -6.5514 H   0  0  0  0  0  0  0  0  0  0  0  0
   15.1697   -4.0211   -8.1412 H   0  0  0  0  0  0  0  0  0  0  0  0
   14.7474   -5.6858   -8.4134 H   0  0  0  0  0  0  0  0  0  0  0  0
   16.3935   -4.7983   -6.0420 H   0  0  0  0  0  0  0  0  0  0  0  0
   16.9875   -5.4418   -7.5703 H   0  0  0  0  0  0  0  0  0  0  0  0
   15.3790   -7.0386   -5.5428 H   0  0  0  0  0  0  0  0  0  0  0  0
   17.0846   -7.1586   -5.9157 H   0  0  0  0  0  0  0  0  0  0  0  0
   15.9218   -7.6439   -7.1294 H   0  0  0  0  0  0  0  0  0  0  0  0
   13.0371   -1.7666   -5.9322 H   0  0  0  0  0  0  0  0  0  0  0  0
   12.2999   -2.2386   -3.3982 H   0  0  0  0  0  0  0  0  0  0  0  0
   10.7516   -1.2807   -2.4438 H   0  0  0  0  0  0  0  0  0  0  0  0
    9.4142    0.5743   -3.1197 H   0  0  0  0  0  0  0  0  0  0  0  0
  1  2  1  0  0  0  0
  1 26  1  0  0  0  0
  1 27  1  0  0  0  0
  1 28  1  0  0  0  0
  2  3  1  0  0  0  0
  2 29  1  0  0  0  0
  2 30  1  0  0  0  0
  3  4  1  0  0  0  0
  3 31  1  0  0  0  0
  3 32  1  0  0  0  0
  4  5  1  0  0  0  0
  4 25  2  0  0  0  0
  5  6  2  0  0  0  0
  5 33  1  0  0  0  0
  6  7  1  0  0  0  0
  6  8  1  0  0  0  0
  7 34  1  0  0  0  0
  7 35  1  0  0  0  0
  7 36  1  0  0  0  0
  8  9  2  0  0  0  0
  8 37  1  0  0  0  0
  9 10  1  0  0  0  0
  9 38  1  0  0  0  0
 10 11  1  0  0  0  0
 10 14  2  0  0  0  0
 11 12  1  0  0  0  0
 11 39  1  0  0  0  0
 11 40  1  0  0  0  0
 12 13  1  0  0  0  0
 12 41  1  0  0  0  0
 12 42  1  0  0  0  0
 13 43  1  0  0  0  0
 13 44  1  0  0  0  0
 13 45  1  0  0  0  0
 14 15  1  0  0  0  0
 14 46  1  0  0  0  0
 15 16  2  0  0  0  0
 15 47  1  0  0  0  0
 16 17  1  0  0  0  0
 16 48  1  0  0  0  0
 17 18  1  0  0  0  0
 17 22  2  0  0  0  0
 18 19  1  0  0  0  0
 18 49  1  0  0  0  0
 18 50  1  0  0  0  0
 19 20  1  0  0  0  0
 19 51  1  0  0  0  0
 19 52  1  0  0  0  0
 20 21  1  0  0  0  0
 20 53  1  0  0  0  0
 20 54  1  0  0  0  0
 21 55  1  0  0  0  0
 21 56  1  0  0  0  0
 21 57  1  0  0  0  0
 22 23  1  0  0  0  0
 22 58  1  0  0  0  0
 23 24  2  0  0  0  0
 23 59  1  0  0  0  0
 24 25  1  0  0  0  0
 24 60  1  0  0  0  0
 25 61  1  0  0  0  0
M  END
$$$$
