
 OpenBabel04232217013D

 94 93  0  0  0  0  0  0  0  0999 V2000
   16.0889   -3.8491   13.7149 O   0  0  0  0  0  0  0  0  0  0  0  0
   15.7116   -4.7214   12.6651 C   0  0  0  0  0  0  0  0  0  0  0  0
   13.8941   -4.9723   12.6660 S   0  0  0  0  0  0  0  0  0  0  0  0
   13.2953   -3.2447   12.3996 C   0  0  0  0  0  0  0  0  0  0  0  0
   13.7881   -2.7335   11.0443 C   0  0  0  0  0  0  0  0  0  0  0  0
   13.2931   -1.3599   10.8086 N   0  0  0  0  0  0  0  0  0  0  0  0
   13.7853   -0.9241    9.5276 N   0  0  0  0  0  0  0  0  0  0  0  0
   13.3177    0.4030    9.2950 N   0  0  0  0  0  0  0  0  0  0  0  0
   13.8009    0.8478    8.0312 N   0  0  0  0  0  0  0  0  0  0  0  0
   13.3319    2.1912    7.7404 N   0  0  0  0  0  0  0  0  0  0  0  0
   13.9949    2.6959    6.2857 S   0  0  0  0  0  0  0  0  0  0  0  0
   13.2633    4.6129    6.0147 S   0  0  0  0  0  0  0  0  0  0  0  0
   13.9762    5.8387    7.5234 S   0  0  0  0  0  0  0  0  0  0  0  0
   16.0533    5.8898    7.4871 S   0  0  0  0  0  0  0  0  0  0  0  0
   16.7289    7.1011    9.0748 S   0  0  0  0  0  0  0  0  0  0  0  0
   18.8397    7.0946    9.0660 S   0  0  0  0  0  0  0  0  0  0  0  0
   19.5310    8.3190   10.6388 S   0  0  0  0  0  0  0  0  0  0  0  0
   21.6406    8.3108   10.6285 S   0  0  0  0  0  0  0  0  0  0  0  0
   22.3313    9.5350   12.2014 S   0  0  0  0  0  0  0  0  0  0  0  0
   24.4406    9.5268   12.1910 S   0  0  0  0  0  0  0  0  0  0  0  0
   25.1313   10.7510   13.7639 S   0  0  0  0  0  0  0  0  0  0  0  0
   27.2406   10.7428   13.7535 S   0  0  0  0  0  0  0  0  0  0  0  0
   27.9313   11.9669   15.3264 S   0  0  0  0  0  0  0  0  0  0  0  0
   30.0406   11.9588   15.3160 S   0  0  0  0  0  0  0  0  0  0  0  0
   30.7312   13.1829   16.8889 S   0  0  0  0  0  0  0  0  0  0  0  0
   32.8406   13.1748   16.8785 S   0  0  0  0  0  0  0  0  0  0  0  0
   33.5312   14.3989   18.4514 S   0  0  0  0  0  0  0  0  0  0  0  0
   35.6406   14.3908   18.4409 S   0  0  0  0  0  0  0  0  0  0  0  0
   36.3312   15.6149   20.0139 S   0  0  0  0  0  0  0  0  0  0  0  0
   38.4406   15.6068   20.0034 S   0  0  0  0  0  0  0  0  0  0  0  0
   39.1312   16.8309   21.5764 S   0  0  0  0  0  0  0  0  0  0  0  0
   41.2406   16.8228   21.5659 S   0  0  0  0  0  0  0  0  0  0  0  0
   41.9312   18.0469   23.1389 S   0  0  0  0  0  0  0  0  0  0  0  0
   44.0406   18.0388   23.1284 S   0  0  0  0  0  0  0  0  0  0  0  0
   44.7312   19.2629   24.7014 S   0  0  0  0  0  0  0  0  0  0  0  0
   46.8406   19.2547   24.6909 S   0  0  0  0  0  0  0  0  0  0  0  0
   47.5312   20.4789   26.2638 S   0  0  0  0  0  0  0  0  0  0  0  0
   49.6406   20.4707   26.2534 S   0  0  0  0  0  0  0  0  0  0  0  0
   50.3312   21.6948   27.8263 S   0  0  0  0  0  0  0  0  0  0  0  0
   52.4405   21.6867   27.8159 S   0  0  0  0  0  0  0  0  0  0  0  0
   53.1312   22.9108   29.3888 S   0  0  0  0  0  0  0  0  0  0  0  0
   55.2405   22.9027   29.3784 S   0  0  0  0  0  0  0  0  0  0  0  0
   55.9312   24.1268   30.9513 S   0  0  0  0  0  0  0  0  0  0  0  0
   58.0405   24.1187   30.9409 S   0  0  0  0  0  0  0  0  0  0  0  0
   58.7312   25.3428   32.5138 S   0  0  0  0  0  0  0  0  0  0  0  0
   60.8405   25.3347   32.5034 S   0  0  0  0  0  0  0  0  0  0  0  0
   61.5312   26.5588   34.0763 S   0  0  0  0  0  0  0  0  0  0  0  0
   63.6405   26.5507   34.0659 S   0  0  0  0  0  0  0  0  0  0  0  0
   64.3312   27.7748   35.6388 S   0  0  0  0  0  0  0  0  0  0  0  0
   66.4405   27.7667   35.6284 S   0  0  0  0  0  0  0  0  0  0  0  0
   67.1311   28.9908   37.2013 S   0  0  0  0  0  0  0  0  0  0  0  0
   69.2405   28.9826   37.1909 S   0  0  0  0  0  0  0  0  0  0  0  0
   69.9311   30.2068   38.7638 S   0  0  0  0  0  0  0  0  0  0  0  0
   72.0405   30.1986   38.7534 S   0  0  0  0  0  0  0  0  0  0  0  0
   72.7311   31.4227   40.3263 S   0  0  0  0  0  0  0  0  0  0  0  0
   74.8405   31.4146   40.3159 S   0  0  0  0  0  0  0  0  0  0  0  0
   75.5311   32.6387   41.8888 S   0  0  0  0  0  0  0  0  0  0  0  0
   77.6405   32.6306   41.8783 S   0  0  0  0  0  0  0  0  0  0  0  0
   78.3311   33.8547   43.4513 S   0  0  0  0  0  0  0  0  0  0  0  0
   80.4405   33.8466   43.4408 S   0  0  0  0  0  0  0  0  0  0  0  0
   81.1311   35.0707   45.0138 S   0  0  0  0  0  0  0  0  0  0  0  0
   83.2405   35.0626   45.0033 S   0  0  0  0  0  0  0  0  0  0  0  0
   83.9311   36.2867   46.5763 S   0  0  0  0  0  0  0  0  0  0  0  0
   86.0405   36.2786   46.5658 S   0  0  0  0  0  0  0  0  0  0  0  0
   86.7311   37.5027   48.1388 S   0  0  0  0  0  0  0  0  0  0  0  0
   88.8404   37.4946   48.1283 S   0  0  0  0  0  0  0  0  0  0  0  0
   89.5311   38.7187   49.7013 S   0  0  0  0  0  0  0  0  0  0  0  0
   91.6404   38.7105   49.6908 S   0  0  0  0  0  0  0  0  0  0  0  0
   92.3311   39.9346   51.2637 S   0  0  0  0  0  0  0  0  0  0  0  0
   94.4404   39.9265   51.2533 S   0  0  0  0  0  0  0  0  0  0  0  0
   95.1311   41.1506   52.8262 S   0  0  0  0  0  0  0  0  0  0  0  0
   97.2404   41.1425   52.8158 S   0  0  0  0  0  0  0  0  0  0  0  0
   97.9311   42.3666   54.3887 S   0  0  0  0  0  0  0  0  0  0  0  0
  100.0404   42.3585   54.3783 S   0  0  0  0  0  0  0  0  0  0  0  0
  100.7310   43.5825   55.9512 S   0  0  0  0  0  0  0  0  0  0  0  0
  102.8394   43.5747   55.9404 S   0  0  0  0  0  0  0  0  0  0  0  0
  103.5286   44.7974   57.5121 S   0  0  0  0  0  0  0  0  0  0  0  0
  105.6289   44.7674   57.5035 S   0  0  0  0  0  0  0  0  0  0  0  0
  106.3214   46.0249   59.0162 S   0  0  0  0  0  0  0  0  0  0  0  0
  108.4085   45.9643   59.0150 S   0  0  0  0  0  0  0  0  0  0  0  0
  109.0310   46.7650   57.2217 S   0  0  0  0  0  0  0  0  0  0  0  0
   17.0650   -3.7586   13.6902 H   0  0  0  0  0  0  0  0  0  0  0  0
   16.2115   -5.6920   12.8179 H   0  0  0  0  0  0  0  0  0  0  0  0
   16.0776   -4.3295   11.7058 H   0  0  0  0  0  0  0  0  0  0  0  0
   13.6087   -2.5914   13.2207 H   0  0  0  0  0  0  0  0  0  0  0  0
   12.1924   -3.2625   12.4077 H   0  0  0  0  0  0  0  0  0  0  0  0
   13.4373   -3.4023   10.2621 H   0  0  0  0  0  0  0  0  0  0  0  0
   14.8817   -2.7248   11.0437 H   0  0  0  0  0  0  0  0  0  0  0  0
   13.6557   -0.7446   11.4998 H   0  0  0  0  0  0  0  0  0  0  0  0
   13.4455   -1.5121    8.7956 H   0  0  0  0  0  0  0  0  0  0  0  0
   13.6544    1.0145   10.0134 H   0  0  0  0  0  0  0  0  0  0  0  0
   13.4835    0.2079    7.3274 H   0  0  0  0  0  0  0  0  0  0  0  0
   13.6696    2.7902    8.4876 H   0  0  0  0  0  0  0  0  0  0  0  0
  110.3810   46.7118   57.2817 H   0  0  0  0  0  0  0  0  0  0  0  0
  1  2  1  0  0  0  0
  1 82  1  0  0  0  0
  2  3  1  0  0  0  0
  2 83  1  0  0  0  0
  2 84  1  0  0  0  0
  3  4  1  0  0  0  0
  4  5  1  0  0  0  0
  4 85  1  0  0  0  0
  4 86  1  0  0  0  0
  5  6  1  0  0  0  0
  5 87  1  0  0  0  0
  5 88  1  0  0  0  0
  6  7  1  0  0  0  0
  6 89  1  0  0  0  0
  7  8  1  0  0  0  0
  7 90  1  0  0  0  0
  8  9  1  0  0  0  0
  8 91  1  0  0  0  0
  9 10  1  0  0  0  0
  9 92  1  0  0  0  0
 10 11  1  0  0  0  0
 10 93  1  0  0  0  0
 11 12  1  0  0  0  0
 12 13  1  0  0  0  0
 13 14  1  0  0  0  0
 14 15  1  0  0  0  0
 15 16  1  0  0  0  0
 16 17  1  0  0  0  0
 17 18  1  0  0  0  0
 18 19  1  0  0  0  0
 19 20  1  0  0  0  0
 20 21  1  0  0  0  0
 21 22  1  0  0  0  0
 22 23  1  0  0  0  0
 23 24  1  0  0  0  0
 24 25  1  0  0  0  0
 25 26  1  0  0  0  0
 26 27  1  0  0  0  0
 27 28  1  0  0  0  0
 28 29  1  0  0  0  0
 29 30  1  0  0  0  0
 30 31  1  0  0  0  0
 31 32  1  0  0  0  0
 32 33  1  0  0  0  0
 33 34  1  0  0  0  0
 34 35  1  0  0  0  0
 35 36  1  0  0  0  0
 36 37  1  0  0  0  0
 37 38  1  0  0  0  0
 38 39  1  0  0  0  0
 39 40  1  0  0  0  0
 40 41  1  0  0  0  0
 41 42  1  0  0  0  0
 42 43  1  0  0  0  0
 43 44  1  0  0  0  0
 44 45  1  0  0  0  0
 45 46  1  0  0  0  0
 46 47  1  0  0  0  0
 47 48  1  0  0  0  0
 48 49  1  0  0  0  0
 49 50  1  0  0  0  0
 50 51  1  0  0  0  0
 51 52  1  0  0  0  0
 52 53  1  0  0  0  0
 53 54  1  0  0  0  0
 54 55  1  0  0  0  0
 55 56  1  0  0  0  0
 56 57  1  0  0  0  0
 57 58  1  0  0  0  0
 58 59  1  0  0  0  0
 59 60  1  0  0  0  0
 60 61  1  0  0  0  0
 61 62  1  0  0  0  0
 62 63  1  0  0  0  0
 63 64  1  0  0  0  0
 64 65  1  0  0  0  0
 65 66  1  0  0  0  0
 66 67  1  0  0  0  0
 67 68  1  0  0  0  0
 68 69  1  0  0  0  0
 69 70  1  0  0  0  0
 70 71  1  0  0  0  0
 71 72  1  0  0  0  0
 72 73  1  0  0  0  0
 73 74  1  0  0  0  0
 74 75  1  0  0  0  0
 75 76  1  0  0  0  0
 76 77  1  0  0  0  0
 77 78  1  0  0  0  0
 78 79  1  0  0  0  0
 79 80  1  0  0  0  0
 80 81  1  0  0  0  0
 81 94  1  0  0  0  0
M  END
$$$$
