
 OpenBabel04232216453D

 62 63  0  0  0  0  0  0  0  0999 V2000
    5.5144   -2.5817    1.9599 C   0  0  0  0  0  0  0  0  0  0  0  0
    6.2908   -1.4929    2.6296 C   0  0  0  0  0  0  0  0  0  0  0  0
    5.4100   -0.3162    2.8285 C   0  0  0  0  0  0  0  0  0  0  0  0
    4.9191    0.5593    1.9001 C   0  0  0  0  0  0  0  0  0  0  0  0
    4.3335    0.4636    0.5103 C   0  0  0  0  0  0  0  0  0  0  0  0
    5.5328    1.8829    2.1276 C   0  0  0  0  0  0  0  0  0  0  0  0
    6.8796    1.9268    1.9256 C   0  0  0  0  0  0  0  0  0  0  0  0
    7.6452    1.2037    0.8236 C   0  0  0  0  0  0  0  0  0  0  0  0
    7.1556    0.4136   -0.3810 C   0  0  0  0  0  0  0  0  0  0  0  0
    7.6620    2.1815    3.1593 C   0  0  0  0  0  0  0  0  0  0  0  0
    8.9725    1.9878    3.4620 C   0  0  0  0  0  0  0  0  0  0  0  0
   10.1158    1.6627    2.4739 C   0  0  0  0  0  0  0  0  0  0  0  0
   10.7802    2.8922    1.8625 C   0  0  0  0  0  0  0  0  0  0  0  0
   11.5696    2.6635    0.5506 C   0  0  0  0  0  0  0  0  0  0  0  0
   10.8964    2.2172   -0.7383 C   0  0  0  0  0  0  0  0  0  0  0  0
   10.1619    3.1196   -1.5243 C   0  0  0  0  0  0  0  0  0  0  0  0
    9.6997    2.7598   -2.7998 C   0  0  0  0  0  0  0  0  0  0  0  0
    9.9576    1.4901   -3.3108 C   0  0  0  0  0  0  0  0  0  0  0  0
   10.6712    0.5758   -2.5413 C   0  0  0  0  0  0  0  0  0  0  0  0
   11.1335    0.9349   -1.2660 C   0  0  0  0  0  0  0  0  0  0  0  0
    9.1768    1.8074    4.9811 C   0  0  0  0  0  0  0  0  0  0  0  0
   10.5824    1.6723    5.4761 C   0  0  0  0  0  0  0  0  0  0  0  0
   10.7503    0.7231    6.4120 C   0  0  0  0  0  0  0  0  0  0  0  0
   11.4726   -0.4575    6.0151 C   0  0  0  0  0  0  0  0  0  0  0  0
   11.2812   -1.2126    4.9110 C   0  0  0  0  0  0  0  0  0  0  0  0
   10.3187   -1.3255    3.7750 C   0  0  0  0  0  0  0  0  0  0  0  0
    8.9684   -1.4470    3.6152 C   0  0  0  0  0  0  0  0  0  0  0  0
    7.6052   -1.5641    3.0722 C   0  0  0  0  0  0  0  0  0  0  0  0
    4.6941   -2.9013    2.6200 H   0  0  0  0  0  0  0  0  0  0  0  0
    6.1045   -3.4580    1.6910 H   0  0  0  0  0  0  0  0  0  0  0  0
    5.0420   -2.2147    1.0440 H   0  0  0  0  0  0  0  0  0  0  0  0
    5.6026    0.1081    3.8194 H   0  0  0  0  0  0  0  0  0  0  0  0
    3.2405    0.4958    0.5518 H   0  0  0  0  0  0  0  0  0  0  0  0
    4.6096   -0.4308   -0.0464 H   0  0  0  0  0  0  0  0  0  0  0  0
    4.6120    1.3323   -0.1062 H   0  0  0  0  0  0  0  0  0  0  0  0
    5.0624    2.4065    2.9637 H   0  0  0  0  0  0  0  0  0  0  0  0
    8.1852    0.4123    1.3365 H   0  0  0  0  0  0  0  0  0  0  0  0
    8.3251    1.9545    0.4175 H   0  0  0  0  0  0  0  0  0  0  0  0
    6.6751   -0.5200   -0.0804 H   0  0  0  0  0  0  0  0  0  0  0  0
    8.0287    0.0849   -0.9564 H   0  0  0  0  0  0  0  0  0  0  0  0
    6.5210    0.9890   -1.0530 H   0  0  0  0  0  0  0  0  0  0  0  0
    7.0067    2.3106    4.0301 H   0  0  0  0  0  0  0  0  0  0  0  0
    9.8292    1.0029    1.6669 H   0  0  0  0  0  0  0  0  0  0  0  0
   10.8864    1.0505    2.9430 H   0  0  0  0  0  0  0  0  0  0  0  0
   11.5106    3.2417    2.6059 H   0  0  0  0  0  0  0  0  0  0  0  0
   10.0530    3.6977    1.7303 H   0  0  0  0  0  0  0  0  0  0  0  0
   12.4079    1.9858    0.7544 H   0  0  0  0  0  0  0  0  0  0  0  0
   12.0413    3.6274    0.3147 H   0  0  0  0  0  0  0  0  0  0  0  0
    9.9793    4.1315   -1.1714 H   0  0  0  0  0  0  0  0  0  0  0  0
    9.1612    3.4828   -3.4087 H   0  0  0  0  0  0  0  0  0  0  0  0
    9.6178    1.2208   -4.3089 H   0  0  0  0  0  0  0  0  0  0  0  0
   10.8916   -0.4099   -2.9458 H   0  0  0  0  0  0  0  0  0  0  0  0
   11.7225    0.2105   -0.7089 H   0  0  0  0  0  0  0  0  0  0  0  0
    8.6859    0.8422    5.2123 H   0  0  0  0  0  0  0  0  0  0  0  0
    8.6375    2.5522    5.5725 H   0  0  0  0  0  0  0  0  0  0  0  0
   11.3585    1.7960    4.7290 H   0  0  0  0  0  0  0  0  0  0  0  0
   10.0846    0.6216    7.2660 H   0  0  0  0  0  0  0  0  0  0  0  0
   12.3130   -0.6821    6.6761 H   0  0  0  0  0  0  0  0  0  0  0  0
   12.1905   -1.7864    4.6912 H   0  0  0  0  0  0  0  0  0  0  0  0
   10.9461   -1.3589    2.8721 H   0  0  0  0  0  0  0  0  0  0  0  0
    9.1603   -1.8075    2.5487 H   0  0  0  0  0  0  0  0  0  0  0  0
    7.5468   -0.5710    3.5815 H   0  0  0  0  0  0  0  0  0  0  0  0
  1  2  1  0  0  0  0
  1 29  1  0  0  0  0
  1 30  1  0  0  0  0
  1 31  1  0  0  0  0
  2  3  1  0  0  0  0
  2 28  2  3  0  0  0
  3  4  2  3  0  0  0
  3 32  1  0  0  0  0
  4  5  1  0  0  0  0
  4  6  1  0  0  0  0
  5 33  1  0  0  0  0
  5 34  1  0  0  0  0
  5 35  1  0  0  0  0
  6  7  2  3  0  0  0
  6 36  1  0  0  0  0
  7  8  1  0  0  0  0
  7 10  1  0  0  0  0
  8  9  1  0  0  0  0
  8 37  1  0  0  0  0
  8 38  1  0  0  0  0
  9 39  1  0  0  0  0
  9 40  1  0  0  0  0
  9 41  1  0  0  0  0
 10 11  2  3  0  0  0
 10 42  1  0  0  0  0
 11 12  1  0  0  0  0
 11 21  1  0  0  0  0
 12 13  1  0  0  0  0
 12 43  1  0  0  0  0
 12 44  1  0  0  0  0
 13 14  1  0  0  0  0
 13 45  1  0  0  0  0
 13 46  1  0  0  0  0
 14 15  1  0  0  0  0
 14 47  1  0  0  0  0
 14 48  1  0  0  0  0
 15 16  1  0  0  0  0
 15 20  2  0  0  0  0
 16 17  2  0  0  0  0
 16 49  1  0  0  0  0
 17 18  1  0  0  0  0
 17 50  1  0  0  0  0
 18 19  2  0  0  0  0
 18 51  1  0  0  0  0
 19 20  1  0  0  0  0
 19 52  1  0  0  0  0
 20 53  1  0  0  0  0
 21 22  1  0  0  0  0
 21 54  1  0  0  0  0
 21 55  1  0  0  0  0
 22 23  2  3  0  0  0
 22 56  1  0  0  0  0
 23 24  1  0  0  0  0
 23 57  1  0  0  0  0
 24 25  2  3  0  0  0
 24 58  1  0  0  0  0
 25 26  1  0  0  0  0
 25 59  1  0  0  0  0
 26 27  2  3  0  0  0
 26 60  1  0  0  0  0
 27 28  1  0  0  0  0
 27 61  1  0  0  0  0
 28 62  1  0  0  0  0
M  END
$$$$
