
 OpenBabel04232216473D

 45 47  0  0  0  0  0  0  0  0999 V2000
    1.2180   -0.0146    0.6387 C   0  0  0  0  0  0  0  0  0  0  0  0
    1.8257    0.1848   -0.7234 C   0  0  0  0  0  0  0  0  0  0  0  0
    3.1730    0.6348   -0.9487 C   0  0  0  0  0  0  0  0  0  0  0  0
    4.4570    0.7018   -0.5723 C   0  0  0  0  0  0  0  0  0  0  0  0
    5.2999    1.6585   -1.3612 C   0  0  0  0  0  0  0  0  0  0  0  0
    6.5666    1.4263   -0.9884 C   0  0  0  0  0  0  0  0  0  0  0  0
    6.5980    0.3715    0.0227 C   0  0  0  0  0  0  0  0  0  0  0  0
    7.9004   -0.1762    0.4830 C   0  0  0  0  0  0  0  0  0  0  0  0
    5.3337    0.0041    0.3564 C   0  0  0  0  0  0  0  0  0  0  0  0
    4.9545   -1.0644    1.3340 C   0  0  0  0  0  0  0  0  0  0  0  0
    4.0764   -2.1978    0.7947 C   0  0  0  0  0  0  0  0  0  0  0  0
    4.6005   -2.9092   -0.4535 C   0  0  0  0  0  0  0  0  0  0  0  0
    5.8613   -3.7175   -0.1646 C   0  0  0  0  0  0  0  0  0  0  0  0
    6.3316   -4.4864   -1.3861 C   0  0  0  0  0  0  0  0  0  0  0  0
    4.8188    2.6909   -2.1956 C   0  0  0  0  0  0  0  0  0  0  0  0
    4.9341    3.6852   -3.0000 C   0  0  0  0  0  0  0  0  0  0  0  0
    3.6358    3.0803   -2.9491 C   0  0  0  0  0  0  0  0  0  0  0  0
    2.5623    3.3116   -2.1812 C   0  0  0  0  0  0  0  0  0  0  0  0
    1.2277    2.8431   -2.5198 C   0  0  0  0  0  0  0  0  0  0  0  0
    0.6230    1.6456   -2.3805 C   0  0  0  0  0  0  0  0  0  0  0  0
    0.9208    0.3647   -1.7205 C   0  0  0  0  0  0  0  0  0  0  0  0
    0.2803    0.5646    0.6979 H   0  0  0  0  0  0  0  0  0  0  0  0
    1.8477    0.3709    1.4431 H   0  0  0  0  0  0  0  0  0  0  0  0
    0.9514   -1.0573    0.8261 H   0  0  0  0  0  0  0  0  0  0  0  0
    3.1307    0.9564   -1.9911 H   0  0  0  0  0  0  0  0  0  0  0  0
    7.4412    1.9615   -1.3307 H   0  0  0  0  0  0  0  0  0  0  0  0
    8.7525    0.3915    0.0703 H   0  0  0  0  0  0  0  0  0  0  0  0
    8.0275   -1.2093    0.1288 H   0  0  0  0  0  0  0  0  0  0  0  0
    7.9930   -0.1633    1.5695 H   0  0  0  0  0  0  0  0  0  0  0  0
    4.4458   -0.5938    2.1851 H   0  0  0  0  0  0  0  0  0  0  0  0
    5.8609   -1.5148    1.7592 H   0  0  0  0  0  0  0  0  0  0  0  0
    3.0853   -1.8103    0.5708 H   0  0  0  0  0  0  0  0  0  0  0  0
    3.9232   -2.9308    1.5951 H   0  0  0  0  0  0  0  0  0  0  0  0
    4.7857   -2.1937   -1.2628 H   0  0  0  0  0  0  0  0  0  0  0  0
    3.8139   -3.5826   -0.8167 H   0  0  0  0  0  0  0  0  0  0  0  0
    5.6680   -4.4213    0.6523 H   0  0  0  0  0  0  0  0  0  0  0  0
    6.6669   -3.0555    0.1643 H   0  0  0  0  0  0  0  0  0  0  0  0
    5.5800   -5.2164   -1.7028 H   0  0  0  0  0  0  0  0  0  0  0  0
    7.2541   -5.0268   -1.1532 H   0  0  0  0  0  0  0  0  0  0  0  0
    6.5340   -3.8117   -2.2239 H   0  0  0  0  0  0  0  0  0  0  0  0
    5.7452    4.1162   -3.5425 H   0  0  0  0  0  0  0  0  0  0  0  0
    2.6562    3.7752   -1.1939 H   0  0  0  0  0  0  0  0  0  0  0  0
    0.6049    3.6499   -2.9087 H   0  0  0  0  0  0  0  0  0  0  0  0
   -0.4276    1.6355   -2.7185 H   0  0  0  0  0  0  0  0  0  0  0  0
   -0.0030   -0.2109   -1.6384 H   0  0  0  0  0  0  0  0  0  0  0  0
  1  2  1  0  0  0  0
  1 22  1  0  0  0  0
  1 23  1  0  0  0  0
  1 24  1  0  0  0  0
  2  3  1  0  0  0  0
  2 21  2  0  0  0  0
  3  4  2  0  0  0  0
  3 25  1  0  0  0  0
  4  5  1  0  0  0  0
  4  9  1  0  0  0  0
  5  6  2  0  0  0  0
  5 15  1  0  0  0  0
  6  7  1  0  0  0  0
  6 26  1  0  0  0  0
  7  8  1  0  0  0  0
  7  9  2  0  0  0  0
  8 27  1  0  0  0  0
  8 28  1  0  0  0  0
  8 29  1  0  0  0  0
  9 10  1  0  0  0  0
 10 11  1  0  0  0  0
 10 30  1  0  0  0  0
 10 31  1  0  0  0  0
 11 12  1  0  0  0  0
 11 32  1  0  0  0  0
 11 33  1  0  0  0  0
 12 13  1  0  0  0  0
 12 34  1  0  0  0  0
 12 35  1  0  0  0  0
 13 14  1  0  0  0  0
 13 36  1  0  0  0  0
 13 37  1  0  0  0  0
 14 38  1  0  0  0  0
 14 39  1  0  0  0  0
 14 40  1  0  0  0  0
 15 16  2  0  0  0  0
 15 17  1  0  0  0  0
 16 17  1  0  0  0  0
 16 41  1  0  0  0  0
 17 18  2  0  0  0  0
 18 19  1  0  0  0  0
 18 42  1  0  0  0  0
 19 20  2  0  0  0  0
 19 43  1  0  0  0  0
 20 21  1  0  0  0  0
 20 44  1  0  0  0  0
 21 45  1  0  0  0  0
M  END
$$$$
