
 OpenBabel04232216393D

 33 33  0  0  0  0  0  0  0  0999 V2000
    6.0804    0.9812   -5.7329 C   0  0  0  0  0  0  0  0  0  0  0  0
    5.8685    0.5531   -4.3422 C   0  0  0  0  0  3  0  0  0  0  0  0
    4.6861    0.6989   -3.4439 C   0  0  0  0  0  0  0  0  0  0  0  0
    4.8291    1.0394   -2.1537 C   0  0  0  0  0  0  0  0  0  0  0  0
    5.5847    2.2082   -1.7207 C   0  0  0  0  0  0  0  0  0  0  0  0
    6.8987    2.1271   -1.7608 C   0  0  0  0  0  0  0  0  0  0  0  0
    7.5581    3.0970   -2.5971 C   0  0  0  0  0  0  0  0  0  0  0  0
    8.8150    2.9465   -3.0357 C   0  0  0  0  0  0  0  0  0  0  0  0
    9.2689    3.7776   -4.1008 C   0  0  0  0  0  0  0  0  0  0  0  0
   10.5474    3.8600   -4.5348 C   0  0  0  0  0  0  0  0  0  0  0  0
   10.8069    4.5668   -5.7605 C   0  0  0  0  0  0  0  0  0  0  0  0
   11.5922    3.9861   -6.6953 C   0  0  0  0  0  0  0  0  0  0  0  0
   10.8181    3.5691   -7.8716 C   0  0  0  0  0  0  0  0  0  0  0  0
   10.5537    2.2677   -7.9233 C   0  0  0  0  0  0  0  0  0  0  0  0
    9.2576    1.5671   -7.7512 C   0  0  0  0  0  0  0  0  0  0  0  0
    8.2396    2.0920   -7.0099 C   0  0  0  0  0  0  0  0  0  0  0  0
    7.1576    1.3646   -6.3404 C   0  0  0  0  0  3  0  0  0  0  0  0
    5.1195    1.2407   -6.2374 H   0  0  0  0  0  0  0  0  0  0  0  0
    6.2306   -0.4799   -4.2138 H   0  0  0  0  0  0  0  0  0  0  0  0
    3.9138   -0.0201   -3.6856 H   0  0  0  0  0  0  0  0  0  0  0  0
    4.3885    0.4304   -1.3843 H   0  0  0  0  0  0  0  0  0  0  0  0
    5.0675    3.1586   -1.8932 H   0  0  0  0  0  0  0  0  0  0  0  0
    7.4326    1.1293   -1.6510 H   0  0  0  0  0  0  0  0  0  0  0  0
    6.9314    3.8546   -3.0432 H   0  0  0  0  0  0  0  0  0  0  0  0
    9.4551    2.1357   -2.6754 H   0  0  0  0  0  0  0  0  0  0  0  0
    8.4862    4.3113   -4.6459 H   0  0  0  0  0  0  0  0  0  0  0  0
   11.3137    3.2493   -4.0648 H   0  0  0  0  0  0  0  0  0  0  0  0
    9.9609    5.1691   -6.1088 H   0  0  0  0  0  0  0  0  0  0  0  0
   12.3860    3.3054   -6.3649 H   0  0  0  0  0  0  0  0  0  0  0  0
   10.0568    4.2808   -8.1831 H   0  0  0  0  0  0  0  0  0  0  0  0
   11.3623    1.5566   -7.5909 H   0  0  0  0  0  0  0  0  0  0  0  0
    9.2755    0.5096   -7.9774 H   0  0  0  0  0  0  0  0  0  0  0  0
    8.2285    3.1474   -6.8019 H   0  0  0  0  0  0  0  0  0  0  0  0
  1  2  1  0  0  0  0
  1 17  2  3  0  0  0
  1 18  1  0  0  0  0
  2  3  1  0  0  0  0
  2 19  1  0  0  0  0
  3  4  2  3  0  0  0
  3 20  1  0  0  0  0
  4  5  1  0  0  0  0
  4 21  1  0  0  0  0
  5  6  2  3  0  0  0
  5 22  1  0  0  0  0
  6  7  1  0  0  0  0
  6 23  1  0  0  0  0
  7  8  2  3  0  0  0
  7 24  1  0  0  0  0
  8  9  1  0  0  0  0
  8 25  1  0  0  0  0
  9 10  2  3  0  0  0
  9 26  1  0  0  0  0
 10 11  1  0  0  0  0
 10 27  1  0  0  0  0
 11 12  2  3  0  0  0
 11 28  1  0  0  0  0
 12 13  1  0  0  0  0
 12 29  1  0  0  0  0
 13 14  2  3  0  0  0
 13 30  1  0  0  0  0
 14 15  1  0  0  0  0
 14 31  1  0  0  0  0
 15 16  2  3  0  0  0
 15 32  1  0  0  0  0
 16 17  1  0  0  0  0
 16 33  1  0  0  0  0
M  END
$$$$
