
 OpenBabel04232216443D

 51 52  0  0  0  0  0  0  0  0999 V2000
    8.3247    2.6947    0.2940 C   0  0  0  0  0  0  0  0  0  0  0  0
    8.8125    1.3869    1.0153 C   0  0  0  0  0  0  0  0  0  0  0  0
    7.1837    0.6750    0.7225 C   0  0  0  0  0  0  0  0  0  0  0  0
    6.0469    1.3532    1.3341 N   0  0  0  0  0  0  0  0  0  0  0  0
    6.6546    0.0039   -0.4190 C   0  0  0  0  0  0  0  0  0  0  0  0
    6.0795    0.3902   -1.7763 C   0  0  0  0  0  0  0  0  0  0  0  0
    6.2269   -1.3877   -0.1115 C   0  0  0  0  0  0  0  0  0  0  0  0
    7.2574   -2.0356    0.4613 C   0  0  0  0  0  0  0  0  0  0  0  0
    8.5986   -1.6232   -0.3988 C   0  0  0  0  0  0  0  0  0  0  0  0
    6.9617   -2.2353    1.9895 C   0  0  0  0  0  0  0  0  0  0  0  0
    5.9303   -1.3126    2.7663 C   0  0  0  0  0  0  0  0  0  0  0  0
    7.8050   -2.8003    2.9079 C   0  0  0  0  0  0  0  0  0  0  0  0
    8.1842   -1.8090    3.9820 C   0  0  0  0  0  0  0  0  0  0  0  0
    8.5967   -1.7312    5.4238 C   0  0  0  0  0  0  0  0  0  0  0  0
    8.7719   -0.7989    3.3271 C   0  0  0  0  0  0  0  0  0  0  0  0
   10.0284   -1.3081    2.8708 C   0  0  0  0  0  0  0  0  0  0  0  0
   10.7393   -0.2456    2.4578 C   0  0  0  0  0  0  0  0  0  0  0  0
   11.8164   -0.3554    3.5403 C   0  0  0  0  0  0  0  0  0  0  0  0
   12.8721   -1.0773    3.6496 C   0  0  0  0  0  0  0  0  0  0  0  0
   14.0246   -0.2367    3.9769 C   0  0  0  0  0  0  0  0  0  0  0  0
   14.0483    1.0126    3.4183 C   0  0  0  0  0  0  0  0  0  0  0  0
   12.8409    1.9032    2.7689 C   0  0  0  0  0  0  0  0  0  0  0  0
   11.7693    1.8661    1.7683 C   0  0  0  0  0  0  0  0  0  0  0  0
   10.2266    1.0582    1.7426 C   0  0  0  0  0  0  0  0  0  0  0  0
    8.8995    2.9714   -0.5803 H   0  0  0  0  0  0  0  0  0  0  0  0
    8.0357    3.4845    0.9972 H   0  0  0  0  0  0  0  0  0  0  0  0
    7.3374    2.5755   -0.2210 H   0  0  0  0  0  0  0  0  0  0  0  0
    5.4309    1.6920    0.5903 H   0  0  0  0  0  0  0  0  0  0  0  0
    5.4117    0.6298    1.6575 H   0  0  0  0  0  0  0  0  0  0  0  0
    4.9686    0.3428   -1.8160 H   0  0  0  0  0  0  0  0  0  0  0  0
    6.3878   -0.3446   -2.5397 H   0  0  0  0  0  0  0  0  0  0  0  0
    6.3834    1.3679   -2.1426 H   0  0  0  0  0  0  0  0  0  0  0  0
    5.1922   -1.5577    0.1784 H   0  0  0  0  0  0  0  0  0  0  0  0
    8.2917   -1.2220   -1.4051 H   0  0  0  0  0  0  0  0  0  0  0  0
    9.2800   -2.4030   -0.7204 H   0  0  0  0  0  0  0  0  0  0  0  0
    9.1736   -0.7702   -0.0262 H   0  0  0  0  0  0  0  0  0  0  0  0
    4.9416   -1.2408    2.3259 H   0  0  0  0  0  0  0  0  0  0  0  0
    6.3242   -0.3043    2.9681 H   0  0  0  0  0  0  0  0  0  0  0  0
    5.7634   -1.6736    3.7907 H   0  0  0  0  0  0  0  0  0  0  0  0
    8.6299   -3.4066    2.5290 H   0  0  0  0  0  0  0  0  0  0  0  0
    9.6465   -1.4279    5.5504 H   0  0  0  0  0  0  0  0  0  0  0  0
    8.0468   -0.8907    5.8865 H   0  0  0  0  0  0  0  0  0  0  0  0
    8.4354   -2.6409    5.9824 H   0  0  0  0  0  0  0  0  0  0  0  0
    8.3759   -0.4349    2.4015 H   0  0  0  0  0  0  0  0  0  0  0  0
   10.4517   -2.1303    3.4554 H   0  0  0  0  0  0  0  0  0  0  0  0
   11.6931    0.5227    4.2339 H   0  0  0  0  0  0  0  0  0  0  0  0
   13.1063   -2.0221    3.1656 H   0  0  0  0  0  0  0  0  0  0  0  0
   14.8147   -0.6875    4.6039 H   0  0  0  0  0  0  0  0  0  0  0  0
   14.9715    1.5588    3.6828 H   0  0  0  0  0  0  0  0  0  0  0  0
   12.9369    2.8457    3.3093 H   0  0  0  0  0  0  0  0  0  0  0  0
   12.1666    1.2087    0.9900 H   0  0  0  0  0  0  0  0  0  0  0  0
  1  2  1  0  0  0  0
  1 25  1  0  0  0  0
  1 26  1  0  0  0  0
  1 27  1  0  0  0  0
  2  3  1  0  0  0  0
  2 24  2  3  0  0  0
  3  4  1  0  0  0  0
  3  5  2  3  0  0  0
  4 28  1  0  0  0  0
  4 29  1  0  0  0  0
  5  6  1  0  0  0  0
  5  7  1  0  0  0  0
  6 30  1  0  0  0  0
  6 31  1  0  0  0  0
  6 32  1  0  0  0  0
  7  8  2  3  0  0  0
  7 33  1  0  0  0  0
  8  9  1  0  0  0  0
  8 10  1  0  0  0  0
  9 34  1  0  0  0  0
  9 35  1  0  0  0  0
  9 36  1  0  0  0  0
 10 11  1  0  0  0  0
 10 12  2  3  0  0  0
 11 37  1  0  0  0  0
 11 38  1  0  0  0  0
 11 39  1  0  0  0  0
 12 13  1  0  0  0  0
 12 40  1  0  0  0  0
 13 14  1  0  0  0  0
 13 15  2  3  0  0  0
 14 41  1  0  0  0  0
 14 42  1  0  0  0  0
 14 43  1  0  0  0  0
 15 16  1  0  0  0  0
 15 44  1  0  0  0  0
 16 17  2  3  0  0  0
 16 45  1  0  0  0  0
 17 18  1  0  0  0  0
 17 24  1  0  0  0  0
 18 19  2  0  0  0  0
 18 46  1  0  0  0  0
 19 20  1  0  0  0  0
 19 47  1  0  0  0  0
 20 21  2  0  0  0  0
 20 48  1  0  0  0  0
 21 22  1  0  0  0  0
 21 49  1  0  0  0  0
 22 23  2  0  0  0  0
 22 50  1  0  0  0  0
 23 24  1  0  0  0  0
 23 51  1  0  0  0  0
M  END
$$$$
