
 OpenBabel04232216523D

 65 66  0  0  1  0  0  0  0  0999 V2000
    6.5630    0.0008   -0.8528 C   0  0  0  0  0  0  0  0  0  0  0  0
    5.7493   -0.6894    0.2419 C   0  0  0  0  0  0  0  0  0  0  0  0
    6.2213   -1.9410    1.1604 C   0  0  0  0  0  0  0  0  0  0  0  0
    7.4401   -2.5424    2.2833 C   0  0  0  0  0  0  0  0  0  0  0  0
    8.5741   -2.0440    3.6106 C   0  0  3  0  0  0  0  0  0  0  0  0
    8.5880   -0.4502    3.6578 C   0  0  3  0  0  0  0  0  0  0  0  0
    7.7500    0.3886    2.6359 C   0  0  0  0  0  0  0  0  0  0  0  0
    6.4285    1.0730    3.0375 C   0  0  0  0  0  0  0  0  0  0  0  0
    8.3997    0.0446    5.0984 C   0  0  0  0  0  0  0  0  0  0  0  0
    9.7678    0.3536    5.7166 C   0  0  0  0  0  0  0  0  0  0  0  0
    9.9388   -0.0866    7.1795 C   0  0  0  0  0  0  0  0  0  0  0  0
   11.4287   -0.2027    7.7018 C   0  0  0  0  0  0  0  0  0  0  0  0
   11.9729    0.6714    8.3235 O   0  0  0  0  0  0  0  0  0  0  0  0
   12.1429   -1.5676    7.4616 C   0  0  0  0  0  0  0  0  0  0  0  0
   11.5589   -1.9388    6.2579 C   0  0  0  0  0  0  0  0  0  0  0  0
   11.2499   -2.9413    5.2150 C   0  0  0  0  0  0  0  0  0  0  0  0
   12.6389   -3.9429    5.2527 C   0  0  0  0  0  0  0  0  0  0  0  0
   13.5701   -4.1032    6.6133 C   0  0  0  0  0  0  0  0  0  0  0  0
   15.1424   -4.1555    6.8189 C   0  0  0  0  0  0  0  0  0  0  0  0
   15.6190   -4.6338    8.2453 C   0  0  0  0  0  0  0  0  0  0  0  0
   16.4575   -3.6178    9.0431 C   0  0  0  0  0  0  0  0  0  0  0  0
   15.6260   -2.6959    9.9589 C   0  0  0  0  0  0  0  0  0  0  0  0
   14.4106   -1.7586    9.4931 C   0  0  0  0  0  0  0  0  0  0  0  0
   12.8867   -2.1420    8.8645 C   0  0  0  0  0  0  0  0  0  0  0  0
   10.1314   -2.9294    4.2592 C   0  0  0  0  0  0  0  0  0  0  0  0
    5.9200    0.7654   -1.3431 H   0  0  0  0  0  0  0  0  0  0  0  0
    6.8707   -0.6857   -1.6538 H   0  0  0  0  0  0  0  0  0  0  0  0
    7.4339    0.5425   -0.4712 H   0  0  0  0  0  0  0  0  0  0  0  0
    4.8887   -1.0703   -0.3218 H   0  0  0  0  0  0  0  0  0  0  0  0
    5.2747    0.0808    0.8514 H   0  0  0  0  0  0  0  0  0  0  0  0
    6.1851   -2.7512    0.4104 H   0  0  0  0  0  0  0  0  0  0  0  0
    5.2783   -2.0917    1.7196 H   0  0  0  0  0  0  0  0  0  0  0  0
    7.8764   -3.4141    1.7879 H   0  0  0  0  0  0  0  0  0  0  0  0
    6.6789   -2.9996    2.9454 H   0  0  0  0  0  0  0  0  0  0  0  0
    7.9258   -2.3695    4.4534 H   0  0  0  0  0  0  0  0  0  0  0  0
    9.5759   -0.2640    3.3306 H   0  0  0  0  0  0  0  0  0  0  0  0
    7.6620   -0.1518    1.6965 H   0  0  0  0  0  0  0  0  0  0  0  0
    8.4054    1.2510    2.3422 H   0  0  0  0  0  0  0  0  0  0  0  0
    5.7128    0.3975    3.5034 H   0  0  0  0  0  0  0  0  0  0  0  0
    5.9527    1.5210    2.1581 H   0  0  0  0  0  0  0  0  0  0  0  0
    6.6033    1.9200    3.6995 H   0  0  0  0  0  0  0  0  0  0  0  0
    7.8427   -0.6846    5.6942 H   0  0  0  0  0  0  0  0  0  0  0  0
    7.8113    0.9699    5.1612 H   0  0  0  0  0  0  0  0  0  0  0  0
    9.9965    1.4212    5.6115 H   0  0  0  0  0  0  0  0  0  0  0  0
   10.4834   -0.0920    5.0418 H   0  0  0  0  0  0  0  0  0  0  0  0
    9.4347   -1.0561    7.3478 H   0  0  0  0  0  0  0  0  0  0  0  0
    9.4099    0.6172    7.8293 H   0  0  0  0  0  0  0  0  0  0  0  0
   11.7360   -1.0445    5.6213 H   0  0  0  0  0  0  0  0  0  0  0  0
   13.3102   -3.5063    4.4962 H   0  0  0  0  0  0  0  0  0  0  0  0
   12.3501   -4.9420    4.9183 H   0  0  0  0  0  0  0  0  0  0  0  0
   13.0745   -4.7822    7.3171 H   0  0  0  0  0  0  0  0  0  0  0  0
   13.5116   -3.1176    7.0040 H   0  0  0  0  0  0  0  0  0  0  0  0
   15.5350   -3.1307    6.7156 H   0  0  0  0  0  0  0  0  0  0  0  0
   15.6465   -4.7585    6.0625 H   0  0  0  0  0  0  0  0  0  0  0  0
   16.2624   -5.5187    8.1112 H   0  0  0  0  0  0  0  0  0  0  0  0
   14.7973   -4.9646    8.8890 H   0  0  0  0  0  0  0  0  0  0  0  0
   17.1596   -3.0560    8.4133 H   0  0  0  0  0  0  0  0  0  0  0  0
   17.1362   -4.1892    9.7101 H   0  0  0  0  0  0  0  0  0  0  0  0
   15.3313   -3.2930   10.8377 H   0  0  0  0  0  0  0  0  0  0  0  0
   16.3890   -2.0158   10.4011 H   0  0  0  0  0  0  0  0  0  0  0  0
   14.1299   -1.4040   10.5037 H   0  0  0  0  0  0  0  0  0  0  0  0
   14.8269   -0.8638    9.0175 H   0  0  0  0  0  0  0  0  0  0  0  0
   12.2442   -1.7448    9.6584 H   0  0  0  0  0  0  0  0  0  0  0  0
   12.7726   -3.2297    8.9584 H   0  0  0  0  0  0  0  0  0  0  0  0
   10.1323   -3.8181    3.5992 H   0  0  0  0  0  0  0  0  0  0  0  0
  1  2  1  0  0  0  0
  1 26  1  0  0  0  0
  1 27  1  0  0  0  0
  1 28  1  0  0  0  0
  2  3  1  0  0  0  0
  2 29  1  0  0  0  0
  2 30  1  0  0  0  0
  3  4  1  0  0  0  0
  3 31  1  0  0  0  0
  3 32  1  0  0  0  0
  4  5  1  0  0  0  0
  4 33  1  0  0  0  0
  4 34  1  0  0  0  0
  5  6  1  0  0  0  0
  5 25  1  0  0  0  0
  5 35  1  0  0  0  0
  6  7  1  0  0  0  0
  6  9  1  0  0  0  0
  6 36  1  0  0  0  0
  7  8  1  0  0  0  0
  7 37  1  0  0  0  0
  7 38  1  0  0  0  0
  8 39  1  0  0  0  0
  8 40  1  0  0  0  0
  8 41  1  0  0  0  0
  9 10  1  0  0  0  0
  9 42  1  0  0  0  0
  9 43  1  0  0  0  0
 10 11  1  0  0  0  0
 10 44  1  0  0  0  0
 10 45  1  0  0  0  0
 11 12  1  0  0  0  0
 11 46  1  0  0  0  0
 11 47  1  0  0  0  0
 12 13  2  0  0  0  0
 12 14  1  0  0  0  0
 14 15  2  3  0  0  0
 14 24  1  0  0  0  0
 15 16  1  0  0  0  0
 15 48  1  0  0  0  0
 16 17  1  0  0  0  0
 16 25  2  3  0  0  0
 17 18  1  0  0  0  0
 17 49  1  0  0  0  0
 17 50  1  0  0  0  0
 18 19  1  0  0  0  0
 18 51  1  0  0  0  0
 18 52  1  0  0  0  0
 19 20  1  0  0  0  0
 19 53  1  0  0  0  0
 19 54  1  0  0  0  0
 20 21  1  0  0  0  0
 20 55  1  0  0  0  0
 20 56  1  0  0  0  0
 21 22  1  0  0  0  0
 21 57  1  0  0  0  0
 21 58  1  0  0  0  0
 22 23  1  0  0  0  0
 22 59  1  0  0  0  0
 22 60  1  0  0  0  0
 23 24  1  0  0  0  0
 23 61  1  0  0  0  0
 23 62  1  0  0  0  0
 24 63  1  0  0  0  0
 24 64  1  0  0  0  0
 25 65  1  0  0  0  0
M  END
$$$$
