
 OpenBabel04232217033D

 93 92  0  0  0  0  0  0  0  0999 V2000
   19.8618  -10.8701    9.2241 S   0  0  0  0  0  0  0  0  0  0  0  0
   21.5051  -10.5994    9.1364 O   0  0  0  0  0  0  0  0  0  0  0  0
   21.8290   -9.1750    9.1107 C   0  0  0  0  0  0  0  0  0  0  0  0
   23.5352   -8.6796    9.2511 S   0  0  0  0  0  0  0  0  0  0  0  0
   24.1836   -9.6623    7.9394 C   0  0  0  0  0  0  0  0  0  0  0  0
   23.7752   -8.8627    6.7892 N   0  0  0  0  0  0  0  0  0  0  0  0
   24.0960   -9.4387    5.6239 N   0  0  0  0  0  0  0  0  0  0  0  0
   23.5880   -8.6087    4.5973 N   0  0  0  0  0  0  0  0  0  0  0  0
   23.8784   -9.2269    3.1065 S   0  0  0  0  0  0  0  0  0  0  0  0
   23.1358  -10.7163    3.0413 N   0  0  0  0  0  0  0  0  0  0  0  0
   21.4752  -10.6391    3.0567 S   0  0  0  0  0  0  0  0  0  0  0  0
   20.9781  -10.0997    4.5524 N   0  0  0  0  0  0  0  0  0  0  0  0
   19.3251   -9.9483    4.6435 S   0  0  0  0  0  0  0  0  0  0  0  0
   18.9305   -9.3161    6.1519 N   0  0  0  0  0  0  0  0  0  0  0  0
   19.6208   -7.8268    6.4403 S   0  0  0  0  0  0  0  0  0  0  0  0
   18.6641   -7.0366    8.1373 S   0  0  0  0  0  0  0  0  0  0  0  0
   19.1756   -7.7477   10.0824 S   0  0  0  0  0  0  0  0  0  0  0  0
   21.0304   -7.0764   11.2223 S   0  0  0  0  0  0  0  0  0  0  0  0
   21.8846   -8.9516   12.4783 S   0  0  0  0  0  0  0  0  0  0  0  0
   24.0243   -9.5249   12.0696 S   0  0  0  0  0  0  0  0  0  0  0  0
   24.8992  -11.1909   13.0663 S   0  0  0  0  0  0  0  0  0  0  0  0
   27.0533  -11.0889   12.8485 S   0  0  0  0  0  0  0  0  0  0  0  0
   27.8813  -12.3720   14.3057 S   0  0  0  0  0  0  0  0  0  0  0  0
   29.9837  -12.3513   14.2444 S   0  0  0  0  0  0  0  0  0  0  0  0
   30.6639  -13.6745   15.7425 S   0  0  0  0  0  0  0  0  0  0  0  0
   32.7652  -13.6693   15.7405 S   0  0  0  0  0  0  0  0  0  0  0  0
   33.4488  -14.9796   17.2420 S   0  0  0  0  0  0  0  0  0  0  0  0
   35.5571  -14.9727   17.2329 S   0  0  0  0  0  0  0  0  0  0  0  0
   36.2480  -16.2820   18.7352 S   0  0  0  0  0  0  0  0  0  0  0  0
   38.3577  -16.2733   18.7252 S   0  0  0  0  0  0  0  0  0  0  0  0
   39.0485  -17.5829   20.2278 S   0  0  0  0  0  0  0  0  0  0  0  0
   41.1579  -17.5742   20.2179 S   0  0  0  0  0  0  0  0  0  0  0  0
   41.8486  -18.8838   21.7205 S   0  0  0  0  0  0  0  0  0  0  0  0
   43.9579  -18.8751   21.7105 S   0  0  0  0  0  0  0  0  0  0  0  0
   44.6486  -20.1846   23.2131 S   0  0  0  0  0  0  0  0  0  0  0  0
   46.7579  -20.1759   23.2031 S   0  0  0  0  0  0  0  0  0  0  0  0
   47.4486  -21.4855   24.7056 S   0  0  0  0  0  0  0  0  0  0  0  0
   49.5579  -21.4768   24.6956 S   0  0  0  0  0  0  0  0  0  0  0  0
   50.2485  -22.7864   26.1982 S   0  0  0  0  0  0  0  0  0  0  0  0
   52.3579  -22.7777   26.1882 S   0  0  0  0  0  0  0  0  0  0  0  0
   53.0485  -24.0872   27.6908 S   0  0  0  0  0  0  0  0  0  0  0  0
   55.1579  -24.0785   27.6808 S   0  0  0  0  0  0  0  0  0  0  0  0
   55.8485  -25.3881   29.1834 S   0  0  0  0  0  0  0  0  0  0  0  0
   57.9579  -25.3794   29.1734 S   0  0  0  0  0  0  0  0  0  0  0  0
   58.6485  -26.6889   30.6759 S   0  0  0  0  0  0  0  0  0  0  0  0
   60.7579  -26.6802   30.6660 S   0  0  0  0  0  0  0  0  0  0  0  0
   61.4485  -27.9898   32.1685 S   0  0  0  0  0  0  0  0  0  0  0  0
   63.5579  -27.9811   32.1585 S   0  0  0  0  0  0  0  0  0  0  0  0
   64.2485  -29.2906   33.6611 S   0  0  0  0  0  0  0  0  0  0  0  0
   66.3579  -29.2819   33.6511 S   0  0  0  0  0  0  0  0  0  0  0  0
   67.0485  -30.5915   35.1537 S   0  0  0  0  0  0  0  0  0  0  0  0
   69.1579  -30.5828   35.1437 S   0  0  0  0  0  0  0  0  0  0  0  0
   69.8485  -31.8923   36.6463 S   0  0  0  0  0  0  0  0  0  0  0  0
   71.9579  -31.8836   36.6363 S   0  0  0  0  0  0  0  0  0  0  0  0
   72.6485  -33.1932   38.1388 S   0  0  0  0  0  0  0  0  0  0  0  0
   74.7579  -33.1845   38.1288 S   0  0  0  0  0  0  0  0  0  0  0  0
   75.4485  -34.4940   39.6314 S   0  0  0  0  0  0  0  0  0  0  0  0
   77.5578  -34.4853   39.6214 S   0  0  0  0  0  0  0  0  0  0  0  0
   78.2485  -35.7949   41.1240 S   0  0  0  0  0  0  0  0  0  0  0  0
   80.3578  -35.7862   41.1140 S   0  0  0  0  0  0  0  0  0  0  0  0
   81.0485  -37.0958   42.6166 S   0  0  0  0  0  0  0  0  0  0  0  0
   83.1578  -37.0871   42.6066 S   0  0  0  0  0  0  0  0  0  0  0  0
   83.8485  -38.3966   44.1091 S   0  0  0  0  0  0  0  0  0  0  0  0
   85.9578  -38.3879   44.0992 S   0  0  0  0  0  0  0  0  0  0  0  0
   86.6484  -39.6975   45.6017 S   0  0  0  0  0  0  0  0  0  0  0  0
   88.7578  -39.6888   45.5917 S   0  0  0  0  0  0  0  0  0  0  0  0
   89.4484  -40.9983   47.0943 S   0  0  0  0  0  0  0  0  0  0  0  0
   91.5578  -40.9896   47.0843 S   0  0  0  0  0  0  0  0  0  0  0  0
   92.2483  -42.2991   48.5868 S   0  0  0  0  0  0  0  0  0  0  0  0
   94.3575  -42.2903   48.5767 S   0  0  0  0  0  0  0  0  0  0  0  0
   95.0476  -43.5997   50.0790 S   0  0  0  0  0  0  0  0  0  0  0  0
   97.1561  -43.5906   50.0686 S   0  0  0  0  0  0  0  0  0  0  0  0
   97.8448  -44.8993   51.5703 S   0  0  0  0  0  0  0  0  0  0  0  0
   99.9507  -44.8890   51.5584 S   0  0  0  0  0  0  0  0  0  0  0  0
  100.6345  -46.1968   53.0572 S   0  0  0  0  0  0  0  0  0  0  0  0
  102.7329  -46.1786   53.0433 S   0  0  0  0  0  0  0  0  0  0  0  0
  103.4083  -47.4839   54.5340 S   0  0  0  0  0  0  0  0  0  0  0  0
  105.4910  -47.4891   54.4648 S   0  0  0  0  0  0  0  0  0  0  0  0
  106.1651  -48.6662   56.0346 S   0  0  0  0  0  0  0  0  0  0  0  0
  108.2308  -48.7063   55.9034 S   0  0  0  0  0  0  0  0  0  0  0  0
  108.8543  -46.8204   56.4377 S   0  0  0  0  0  0  0  0  0  0  0  0
   19.8666  -12.0442    8.6251 H   0  0  0  0  0  0  0  0  0  0  0  0
   21.4478   -8.9199    9.9953 H   0  0  0  0  0  0  0  0  0  0  0  0
   21.3908   -8.6746    8.3094 H   0  0  0  0  0  0  0  0  0  0  0  0
   23.7325  -10.6551    8.0168 H   0  0  0  0  0  0  0  0  0  0  0  0
   25.2776   -9.7596    8.0409 H   0  0  0  0  0  0  0  0  0  0  0  0
   24.0863   -7.9043    6.9539 H   0  0  0  0  0  0  0  0  0  0  0  0
   23.5807  -10.3118    5.5525 H   0  0  0  0  0  0  0  0  0  0  0  0
   23.9085   -7.6579    4.7428 H   0  0  0  0  0  0  0  0  0  0  0  0
   23.4881  -11.3126    3.7906 H   0  0  0  0  0  0  0  0  0  0  0  0
   21.3840   -9.1726    4.7249 H   0  0  0  0  0  0  0  0  0  0  0  0
   19.2090   -9.9830    6.8682 H   0  0  0  0  0  0  0  0  0  0  0  0
  110.1900  -46.9511   56.3521 H   0  0  0  0  0  0  0  0  0  0  0  0
  1  2  1  0  0  0  0
  1 82  1  0  0  0  0
  2  3  1  0  0  0  0
  3  4  1  0  0  0  0
  3 83  1  0  0  0  0
  3 84  1  0  0  0  0
  4  5  1  0  0  0  0
  5  6  1  0  0  0  0
  5 85  1  0  0  0  0
  5 86  1  0  0  0  0
  6  7  1  0  0  0  0
  6 87  1  0  0  0  0
  7  8  1  0  0  0  0
  7 88  1  0  0  0  0
  8  9  1  0  0  0  0
  8 89  1  0  0  0  0
  9 10  1  0  0  0  0
 10 11  1  0  0  0  0
 10 90  1  0  0  0  0
 11 12  1  0  0  0  0
 12 13  1  0  0  0  0
 12 91  1  0  0  0  0
 13 14  1  0  0  0  0
 14 15  1  0  0  0  0
 14 92  1  0  0  0  0
 15 16  1  0  0  0  0
 16 17  1  0  0  0  0
 17 18  1  0  0  0  0
 18 19  1  0  0  0  0
 19 20  1  0  0  0  0
 20 21  1  0  0  0  0
 21 22  1  0  0  0  0
 22 23  1  0  0  0  0
 23 24  1  0  0  0  0
 24 25  1  0  0  0  0
 25 26  1  0  0  0  0
 26 27  1  0  0  0  0
 27 28  1  0  0  0  0
 28 29  1  0  0  0  0
 29 30  1  0  0  0  0
 30 31  1  0  0  0  0
 31 32  1  0  0  0  0
 32 33  1  0  0  0  0
 33 34  1  0  0  0  0
 34 35  1  0  0  0  0
 35 36  1  0  0  0  0
 36 37  1  0  0  0  0
 37 38  1  0  0  0  0
 38 39  1  0  0  0  0
 39 40  1  0  0  0  0
 40 41  1  0  0  0  0
 41 42  1  0  0  0  0
 42 43  1  0  0  0  0
 43 44  1  0  0  0  0
 44 45  1  0  0  0  0
 45 46  1  0  0  0  0
 46 47  1  0  0  0  0
 47 48  1  0  0  0  0
 48 49  1  0  0  0  0
 49 50  1  0  0  0  0
 50 51  1  0  0  0  0
 51 52  1  0  0  0  0
 52 53  1  0  0  0  0
 53 54  1  0  0  0  0
 54 55  1  0  0  0  0
 55 56  1  0  0  0  0
 56 57  1  0  0  0  0
 57 58  1  0  0  0  0
 58 59  1  0  0  0  0
 59 60  1  0  0  0  0
 60 61  1  0  0  0  0
 61 62  1  0  0  0  0
 62 63  1  0  0  0  0
 63 64  1  0  0  0  0
 64 65  1  0  0  0  0
 65 66  1  0  0  0  0
 66 67  1  0  0  0  0
 67 68  1  0  0  0  0
 68 69  1  0  0  0  0
 69 70  1  0  0  0  0
 70 71  1  0  0  0  0
 71 72  1  0  0  0  0
 72 73  1  0  0  0  0
 73 74  1  0  0  0  0
 74 75  1  0  0  0  0
 75 76  1  0  0  0  0
 76 77  1  0  0  0  0
 77 78  1  0  0  0  0
 78 79  1  0  0  0  0
 79 80  1  0  0  0  0
 80 81  1  0  0  0  0
 81 93  1  0  0  0  0
M  END
$$$$
