
 OpenBabel04232216493D

 70 71  0  0  0  0  0  0  0  0999 V2000
    3.7064    0.5203    0.9861 C   0  0  0  0  0  0  0  0  0  0  0  0
    4.3024    1.1812    2.2887 C   0  0  0  0  0  0  0  0  0  0  0  0
    2.9217    1.5670    3.1540 C   0  0  0  0  0  0  0  0  0  0  0  0
    2.2795    2.7070    3.6769 C   0  0  0  0  0  0  0  0  0  0  0  0
    0.8905    2.9994    4.6491 C   0  0  0  0  0  0  0  0  0  0  0  0
    0.6747    4.0366    5.6241 C   0  0  0  0  0  0  0  0  0  0  0  0
   -1.1579    4.4046    6.6435 C   0  0  0  0  0  0  0  0  0  0  0  0
   -3.0933    4.4779    7.2782 C   0  0  0  0  0  0  0  0  0  0  0  0
   -4.5284    5.1167    8.5098 C   0  0  0  0  0  0  0  0  0  0  0  0
   -5.7858    4.4376    9.6428 C   0  0  0  0  0  0  0  0  0  0  0  0
   -5.5982    4.8314   11.1823 C   0  0  0  0  0  0  0  0  0  0  0  0
   -4.2419    4.3679   11.6706 C   0  0  0  0  0  0  0  0  0  0  0  0
   -3.0705    5.1259   11.0690 C   0  0  0  0  0  0  0  0  0  0  0  0
   -2.3679    4.5001    9.9236 C   0  0  0  0  0  0  0  0  0  0  0  0
   -0.8936    4.3885   10.1103 C   0  0  0  0  0  0  0  0  0  0  0  0
   -0.4198    3.4203    9.1254 C   0  0  0  0  0  0  0  0  0  0  0  0
    0.8584    3.3439    8.8008 C   0  0  0  0  0  0  0  0  0  0  0  0
    1.0325    2.1086    8.0562 C   0  0  0  0  0  0  0  0  0  0  0  0
    1.9061    1.2243    8.4012 N   0  0  0  0  0  0  0  0  0  0  0  0
    2.3132    0.4707    7.3210 C   0  0  0  0  0  0  0  0  0  0  0  0
    3.5931    0.7415    6.9725 C   0  0  0  0  0  0  0  0  0  0  0  0
    3.6313    1.8682    6.0471 C   0  0  0  0  0  0  0  0  0  0  0  0
    3.1734    3.0160    6.6336 C   0  0  0  0  0  0  0  0  0  0  0  0
    2.4928    4.1988    5.9648 C   0  0  0  0  0  0  0  0  0  0  0  0
    3.7819    4.6595    5.3086 C   0  0  0  0  0  0  0  0  0  0  0  0
    5.4648    4.1636    5.5462 C   0  0  0  0  0  0  0  0  0  0  0  0
    6.6611    3.9502    4.7675 C   0  0  0  0  0  0  0  0  0  0  0  0
    8.1309    3.3857    5.0741 C   0  0  0  0  0  0  0  0  0  0  0  0
    8.7728    2.4320    4.3265 C   0  0  0  0  0  0  0  0  0  0  0  0
    7.9307    1.4447    3.4831 C   0  0  0  0  0  0  0  0  0  0  0  0
    6.6831    1.7202    3.2124 N   0  0  0  0  0  0  0  0  0  0  0  0
    5.7167    1.1119    2.3823 C   0  0  0  0  0  0  0  0  0  0  0  0
    2.6103    0.5706    0.9752 H   0  0  0  0  0  0  0  0  0  0  0  0
    3.9465   -0.5460    0.8775 H   0  0  0  0  0  0  0  0  0  0  0  0
    4.0055    1.0501    0.0714 H   0  0  0  0  0  0  0  0  0  0  0  0
    2.2715    0.7051    3.1102 H   0  0  0  0  0  0  0  0  0  0  0  0
    2.7608    3.6212    3.4815 H   0  0  0  0  0  0  0  0  0  0  0  0
    0.5377    1.9955    4.9677 H   0  0  0  0  0  0  0  0  0  0  0  0
   -1.4996    4.9672    5.7382 H   0  0  0  0  0  0  0  0  0  0  0  0
   -1.3306    3.3117    6.5161 H   0  0  0  0  0  0  0  0  0  0  0  0
   -3.5382    3.4922    7.0914 H   0  0  0  0  0  0  0  0  0  0  0  0
   -3.4249    5.2802    6.6088 H   0  0  0  0  0  0  0  0  0  0  0  0
   -4.2086    5.9332    9.1489 H   0  0  0  0  0  0  0  0  0  0  0  0
   -5.2274    5.7027    7.8655 H   0  0  0  0  0  0  0  0  0  0  0  0
   -6.8056    4.9222    9.4616 H   0  0  0  0  0  0  0  0  0  0  0  0
   -6.0572    3.3742    9.6120 H   0  0  0  0  0  0  0  0  0  0  0  0
   -6.3545    4.3805   11.8702 H   0  0  0  0  0  0  0  0  0  0  0  0
   -5.7432    5.9105   11.3519 H   0  0  0  0  0  0  0  0  0  0  0  0
   -4.2004    4.5557   12.7472 H   0  0  0  0  0  0  0  0  0  0  0  0
   -4.1689    3.2839   11.5256 H   0  0  0  0  0  0  0  0  0  0  0  0
   -2.2982    5.1397   11.9046 H   0  0  0  0  0  0  0  0  0  0  0  0
   -3.2869    6.1575   10.8862 H   0  0  0  0  0  0  0  0  0  0  0  0
   -2.3919    5.2563    9.1467 H   0  0  0  0  0  0  0  0  0  0  0  0
   -2.8415    3.5556    9.5991 H   0  0  0  0  0  0  0  0  0  0  0  0
   -0.6583    3.9826   11.0884 H   0  0  0  0  0  0  0  0  0  0  0  0
   -0.4402    5.3778    9.9695 H   0  0  0  0  0  0  0  0  0  0  0  0
   -1.1204    2.6967    8.7061 H   0  0  0  0  0  0  0  0  0  0  0  0
    1.6532    4.0023    9.1177 H   0  0  0  0  0  0  0  0  0  0  0  0
    0.4060    2.0135    7.1494 H   0  0  0  0  0  0  0  0  0  0  0  0
    1.6201    0.4117    6.4696 H   0  0  0  0  0  0  0  0  0  0  0  0
    4.3204    0.9358    7.7685 H   0  0  0  0  0  0  0  0  0  0  0  0
    4.6017    1.7815    5.5466 H   0  0  0  0  0  0  0  0  0  0  0  0
    3.8558    3.4016    7.3833 H   0  0  0  0  0  0  0  0  0  0  0  0
    3.7937    5.0923    4.2615 H   0  0  0  0  0  0  0  0  0  0  0  0
    5.6708    3.7938    6.5536 H   0  0  0  0  0  0  0  0  0  0  0  0
    6.7151    4.1488    3.7010 H   0  0  0  0  0  0  0  0  0  0  0  0
    8.7993    3.9161    5.7705 H   0  0  0  0  0  0  0  0  0  0  0  0
    9.8777    2.2558    4.3905 H   0  0  0  0  0  0  0  0  0  0  0  0
    8.5548    0.5301    3.2132 H   0  0  0  0  0  0  0  0  0  0  0  0
    6.2269    0.5728    1.5660 H   0  0  0  0  0  0  0  0  0  0  0  0
  1  2  1  0  0  0  0
  1 33  1  0  0  0  0
  1 34  1  0  0  0  0
  1 35  1  0  0  0  0
  2  3  1  0  0  0  0
  2 32  2  0  0  0  0
  3  4  2  0  0  0  0
  3 36  1  0  0  0  0
  4  5  1  0  0  0  0
  4 37  1  0  0  0  0
  5  6  2  0  0  0  0
  5 38  1  0  0  0  0
  6  7  1  0  0  0  0
  6 24  1  0  0  0  0
  7  8  1  0  0  0  0
  7 39  1  0  0  0  0
  7 40  1  0  0  0  0
  8  9  1  0  0  0  0
  8 41  1  0  0  0  0
  8 42  1  0  0  0  0
  9 10  1  0  0  0  0
  9 43  1  0  0  0  0
  9 44  1  0  0  0  0
 10 11  1  0  0  0  0
 10 45  1  0  0  0  0
 10 46  1  0  0  0  0
 11 12  1  0  0  0  0
 11 47  1  0  0  0  0
 11 48  1  0  0  0  0
 12 13  1  0  0  0  0
 12 49  1  0  0  0  0
 12 50  1  0  0  0  0
 13 14  1  0  0  0  0
 13 51  1  0  0  0  0
 13 52  1  0  0  0  0
 14 15  1  0  0  0  0
 14 53  1  0  0  0  0
 14 54  1  0  0  0  0
 15 16  1  0  0  0  0
 15 55  1  0  0  0  0
 15 56  1  0  0  0  0
 16 17  2  3  0  0  0
 16 57  1  0  0  0  0
 17 18  1  0  0  0  0
 17 58  1  0  0  0  0
 18 19  2  3  0  0  0
 18 59  1  0  0  0  0
 19 20  1  0  0  0  0
 20 21  2  3  0  0  0
 20 60  1  0  0  0  0
 21 22  1  0  0  0  0
 21 61  1  0  0  0  0
 22 23  2  3  0  0  0
 22 62  1  0  0  0  0
 23 24  1  0  0  0  0
 23 63  1  0  0  0  0
 24 25  2  0  0  0  0
 25 26  1  0  0  0  0
 25 64  1  0  0  0  0
 26 27  2  0  0  0  0
 26 65  1  0  0  0  0
 27 28  1  0  0  0  0
 27 66  1  0  0  0  0
 28 29  2  0  0  0  0
 28 67  1  0  0  0  0
 29 30  1  0  0  0  0
 29 68  1  0  0  0  0
 30 31  2  0  0  0  0
 30 69  1  0  0  0  0
 31 32  1  0  0  0  0
 32 70  1  0  0  0  0
M  END
$$$$
