
 OpenBabel04232216423D

 42 43  0  0  0  0  0  0  0  0999 V2000
   -0.6019   -0.6961    2.7384 C   0  0  0  0  0  0  0  0  0  0  0  0
   -1.6897   -0.8803    1.9930 C   0  0  0  0  0  0  0  0  0  0  0  0
   -1.8185   -1.8777    0.9510 C   0  0  0  0  0  0  0  0  0  0  0  0
   -0.9547   -2.6680    0.2490 C   0  0  0  0  0  0  0  0  0  0  0  0
   -1.6278   -3.6648   -0.6078 C   0  0  0  0  0  0  0  0  0  0  0  0
    0.4531   -2.8462    0.2743 N   0  0  0  0  0  0  0  0  0  0  0  0
    1.2512   -4.1223   -0.7357 C   0  0  0  0  0  0  0  0  0  0  0  0
    1.0352   -5.8805   -1.4379 C   0  0  0  0  0  0  0  0  0  0  0  0
    2.1749   -6.1621   -0.6763 N   0  0  0  0  0  0  0  0  0  0  0  0
    1.8966   -6.4162    0.5014 N   0  0  0  0  0  0  0  0  0  0  0  0
    2.6145   -7.5140    0.8673 C   0  0  0  0  0  0  0  0  0  0  0  0
    4.0008   -7.6122    0.3007 C   0  0  0  0  0  0  0  0  0  0  0  0
    1.8680   -8.5053    1.3508 C   0  0  0  0  0  0  0  0  0  0  0  0
    2.1519   -9.9150    1.3730 C   0  0  0  0  0  0  0  0  0  0  0  0
    1.0006  -10.5848    1.5504 C   0  0  0  0  0  0  0  0  0  0  0  0
    0.4015  -11.4980    0.7222 N   0  0  0  0  0  0  0  0  0  0  0  0
   -0.0076  -11.0455   -0.3984 N   0  0  0  0  0  0  0  0  0  0  0  0
    0.9892  -10.2850   -1.0878 C   0  0  0  0  0  0  0  0  0  0  0  0
    2.1365  -11.6706   -1.2866 C   0  0  0  0  0  0  0  0  0  0  0  0
    0.6437   -8.9088   -1.2142 N   0  0  0  0  0  0  0  0  0  0  0  0
    0.8862   -7.2638   -1.8654 N   0  0  0  0  0  0  0  0  0  0  0  0
    1.0573   -2.3086    1.5471 C   0  0  0  0  0  0  0  0  0  0  0  0
    0.6282   -1.4612    2.5564 C   0  0  0  0  0  0  0  0  0  0  0  0
   -0.6930    0.0142    3.5780 H   0  0  0  0  0  0  0  0  0  0  0  0
   -2.5987   -0.3308    2.2711 H   0  0  0  0  0  0  0  0  0  0  0  0
   -2.8911   -2.0149    0.7760 H   0  0  0  0  0  0  0  0  0  0  0  0
   -2.7012   -3.4901   -0.7194 H   0  0  0  0  0  0  0  0  0  0  0  0
   -1.4602   -4.6526   -0.1637 H   0  0  0  0  0  0  0  0  0  0  0  0
   -1.1671   -3.5881   -1.5882 H   0  0  0  0  0  0  0  0  0  0  0  0
    2.2691   -3.9992   -0.3460 H   0  0  0  0  0  0  0  0  0  0  0  0
    1.2249   -3.5587   -1.6941 H   0  0  0  0  0  0  0  0  0  0  0  0
    4.4044   -6.5995    0.1542 H   0  0  0  0  0  0  0  0  0  0  0  0
    3.9494   -8.0728   -0.6963 H   0  0  0  0  0  0  0  0  0  0  0  0
    4.6731   -8.1607    0.9503 H   0  0  0  0  0  0  0  0  0  0  0  0
    0.7850   -8.2757    1.3349 H   0  0  0  0  0  0  0  0  0  0  0  0
    2.9176  -10.2511    0.6740 H   0  0  0  0  0  0  0  0  0  0  0  0
    0.2185  -10.1505    2.1564 H   0  0  0  0  0  0  0  0  0  0  0  0
    3.1898  -11.5809   -0.9842 H   0  0  0  0  0  0  0  0  0  0  0  0
    1.9753  -12.4055   -2.1015 H   0  0  0  0  0  0  0  0  0  0  0  0
    1.8927  -12.4578   -0.4912 H   0  0  0  0  0  0  0  0  0  0  0  0
    2.0492   -2.7246    1.7142 H   0  0  0  0  0  0  0  0  0  0  0  0
    1.2602   -1.2354    3.4317 H   0  0  0  0  0  0  0  0  0  0  0  0
  1  2  2  0  0  0  0
  1 23  1  0  0  0  0
  1 24  1  0  0  0  0
  2  3  1  0  0  0  0
  2 25  1  0  0  0  0
  3  4  2  0  0  0  0
  3 26  1  0  0  0  0
  4  5  1  0  0  0  0
  4  6  1  0  0  0  0
  5 27  1  0  0  0  0
  5 28  1  0  0  0  0
  5 29  1  0  0  0  0
  6  7  1  0  0  0  0
  6 22  1  0  0  0  0
  7  8  1  0  0  0  0
  7 30  1  0  0  0  0
  7 31  1  0  0  0  0
  8  9  1  0  0  0  0
  8 21  2  3  0  0  0
  9 10  2  3  0  0  0
 10 11  1  0  0  0  0
 11 12  1  0  0  0  0
 11 13  2  3  0  0  0
 12 32  1  0  0  0  0
 12 33  1  0  0  0  0
 12 34  1  0  0  0  0
 13 14  1  0  0  0  0
 13 35  1  0  0  0  0
 14 15  2  3  0  0  0
 14 36  1  0  0  0  0
 15 16  1  0  0  0  0
 15 37  1  0  0  0  0
 16 17  2  3  0  0  0
 17 18  1  0  0  0  0
 18 19  1  0  0  0  0
 18 20  2  3  0  0  0
 19 38  1  0  0  0  0
 19 39  1  0  0  0  0
 19 40  1  0  0  0  0
 20 21  1  0  0  0  0
 22 23  2  0  0  0  0
 22 41  1  0  0  0  0
 23 42  1  0  0  0  0
M  END
$$$$
