
 OpenBabel04232216423D

 53 53  0  0  0  0  0  0  0  0999 V2000
   -1.6411    0.2368    0.4009 C   0  0  0  0  0  0  0  0  0  0  0  0
   -1.0379    1.2749   -0.4086 C   0  0  0  0  0  0  0  0  0  0  0  0
    0.2705    1.5733   -0.3993 C   0  0  0  0  0  0  0  0  0  0  0  0
    1.2458    0.9483    0.4945 C   0  0  0  0  0  0  0  0  0  0  0  0
    1.7598    1.9364    1.5208 C   0  0  0  0  0  0  0  0  0  0  0  0
    2.9786    2.7260    1.0275 C   0  0  0  0  0  0  0  0  0  0  0  0
    3.4818    3.7523    2.0481 C   0  0  0  0  0  0  0  0  0  0  0  0
    3.9008    3.0947    3.3621 C   0  0  0  0  0  0  0  0  0  0  0  0
    4.4791    4.0926    4.3551 C   0  0  0  0  0  0  0  0  0  0  0  0
    4.8545    3.3806    5.6556 C   0  0  0  0  0  0  0  0  0  0  0  0
    5.4228    4.3631    6.6670 C   0  0  0  0  0  0  0  0  0  0  0  0
    5.8099    3.6744    7.9669 C   0  0  0  0  0  0  0  0  0  0  0  0
    6.3357    4.6332    8.8751 O   0  0  0  0  0  0  0  0  0  0  0  0
    1.5604   -0.3739    0.4418 C   0  0  0  0  0  0  0  0  0  0  0  0
    2.5276   -1.0806    1.3855 C   0  0  0  0  0  0  0  0  0  0  0  0
    1.9362   -2.2802    2.1340 C   0  0  0  0  0  0  0  0  0  0  0  0
    0.9812   -1.2569   -0.5906 C   0  0  0  0  0  0  0  0  0  0  0  0
    1.9515   -1.7025   -1.6542 C   0  0  0  0  0  0  0  0  0  0  0  0
   -0.3296   -1.6062   -0.6044 C   0  0  0  0  0  0  0  0  0  0  0  0
   -0.9560   -2.5409   -1.6046 C   0  0  0  0  0  0  0  0  0  0  0  0
   -1.3070   -1.0623    0.3383 C   0  0  0  0  0  0  0  0  0  0  0  0
   -2.4220    0.5592    1.0864 H   0  0  0  0  0  0  0  0  0  0  0  0
   -1.7133    1.8432   -1.0411 H   0  0  0  0  0  0  0  0  0  0  0  0
    0.6417    2.3844   -1.0248 H   0  0  0  0  0  0  0  0  0  0  0  0
    1.9828    1.4111    2.4527 H   0  0  0  0  0  0  0  0  0  0  0  0
    0.9618    2.6419    1.7910 H   0  0  0  0  0  0  0  0  0  0  0  0
    2.7278    3.2605    0.1018 H   0  0  0  0  0  0  0  0  0  0  0  0
    3.7942    2.0334    0.7791 H   0  0  0  0  0  0  0  0  0  0  0  0
    2.7043    4.5021    2.2361 H   0  0  0  0  0  0  0  0  0  0  0  0
    4.3378    4.2845    1.6163 H   0  0  0  0  0  0  0  0  0  0  0  0
    4.6369    2.3083    3.1551 H   0  0  0  0  0  0  0  0  0  0  0  0
    3.0353    2.6146    3.8314 H   0  0  0  0  0  0  0  0  0  0  0  0
    3.7416    4.8774    4.5628 H   0  0  0  0  0  0  0  0  0  0  0  0
    5.3631    4.5780    3.9250 H   0  0  0  0  0  0  0  0  0  0  0  0
    5.5896    2.5936    5.4456 H   0  0  0  0  0  0  0  0  0  0  0  0
    3.9686    2.8883    6.0763 H   0  0  0  0  0  0  0  0  0  0  0  0
    4.6930    5.1548    6.8796 H   0  0  0  0  0  0  0  0  0  0  0  0
    6.3009    4.8697    6.2467 H   0  0  0  0  0  0  0  0  0  0  0  0
    6.5678    2.9024    7.7988 H   0  0  0  0  0  0  0  0  0  0  0  0
    4.9389    3.2046    8.4353 H   0  0  0  0  0  0  0  0  0  0  0  0
    7.0770    5.0788    8.4306 H   0  0  0  0  0  0  0  0  0  0  0  0
    2.9270   -0.3961    2.1397 H   0  0  0  0  0  0  0  0  0  0  0  0
    3.4011   -1.4242    0.8192 H   0  0  0  0  0  0  0  0  0  0  0  0
    1.0468   -2.0013    2.7067 H   0  0  0  0  0  0  0  0  0  0  0  0
    2.6764   -2.6817    2.8354 H   0  0  0  0  0  0  0  0  0  0  0  0
    1.6691   -3.0922    1.4505 H   0  0  0  0  0  0  0  0  0  0  0  0
    2.9464   -1.2634   -1.5213 H   0  0  0  0  0  0  0  0  0  0  0  0
    1.6022   -1.3856   -2.6411 H   0  0  0  0  0  0  0  0  0  0  0  0
    2.0678   -2.7924   -1.6461 H   0  0  0  0  0  0  0  0  0  0  0  0
   -0.2462   -2.9211   -2.3445 H   0  0  0  0  0  0  0  0  0  0  0  0
   -1.7554   -2.0315   -2.1559 H   0  0  0  0  0  0  0  0  0  0  0  0
   -1.3898   -3.4101   -1.0961 H   0  0  0  0  0  0  0  0  0  0  0  0
   -1.8228   -1.7826    0.9686 H   0  0  0  0  0  0  0  0  0  0  0  0
  1  2  1  0  0  0  0
  1 21  2  0  0  0  0
  1 22  1  0  0  0  0
  2  3  2  0  0  0  0
  2 23  1  0  0  0  0
  3  4  1  0  0  0  0
  3 24  1  0  0  0  0
  4  5  1  0  0  0  0
  4 14  2  0  0  0  0
  5  6  1  0  0  0  0
  5 25  1  0  0  0  0
  5 26  1  0  0  0  0
  6  7  1  0  0  0  0
  6 27  1  0  0  0  0
  6 28  1  0  0  0  0
  7  8  1  0  0  0  0
  7 29  1  0  0  0  0
  7 30  1  0  0  0  0
  8  9  1  0  0  0  0
  8 31  1  0  0  0  0
  8 32  1  0  0  0  0
  9 10  1  0  0  0  0
  9 33  1  0  0  0  0
  9 34  1  0  0  0  0
 10 11  1  0  0  0  0
 10 35  1  0  0  0  0
 10 36  1  0  0  0  0
 11 12  1  0  0  0  0
 11 37  1  0  0  0  0
 11 38  1  0  0  0  0
 12 13  1  0  0  0  0
 12 39  1  0  0  0  0
 12 40  1  0  0  0  0
 13 41  1  0  0  0  0
 14 15  1  0  0  0  0
 14 17  1  0  0  0  0
 15 16  1  0  0  0  0
 15 42  1  0  0  0  0
 15 43  1  0  0  0  0
 16 44  1  0  0  0  0
 16 45  1  0  0  0  0
 16 46  1  0  0  0  0
 17 18  1  0  0  0  0
 17 19  2  0  0  0  0
 18 47  1  0  0  0  0
 18 48  1  0  0  0  0
 18 49  1  0  0  0  0
 19 20  1  0  0  0  0
 19 21  1  0  0  0  0
 20 50  1  0  0  0  0
 20 51  1  0  0  0  0
 20 52  1  0  0  0  0
 21 53  1  0  0  0  0
M  END
$$$$
