
 OpenBabel04232216463D

 52 54  0  0  0  0  0  0  0  0999 V2000
    0.9834    0.3692   -0.1574 C   0  0  0  0  0  0  0  0  0  0  0  0
    2.2693    0.6774   -0.8825 C   0  0  0  0  0  0  0  0  0  0  0  0
    3.1591   -0.4687   -1.1154 C   0  0  0  0  0  0  0  0  0  0  0  0
    4.4615   -0.7314   -0.8561 C   0  0  0  0  0  0  0  0  0  0  0  0
    5.0787   -1.9545   -1.5439 C   0  0  0  0  0  0  0  0  0  0  0  0
    4.5861   -3.3726   -1.1990 C   0  0  0  0  0  0  0  0  0  0  0  0
    4.7053   -3.8826    0.2388 C   0  0  0  0  0  0  0  0  0  0  0  0
    6.0943   -3.7547    0.8661 C   0  0  0  0  0  0  0  0  0  0  0  0
    6.1007   -2.9109    2.1466 C   0  0  0  0  0  0  0  0  0  0  0  0
    5.4435   -1.5273    2.0148 C   0  0  0  0  0  0  0  0  0  0  0  0
    6.1913   -0.6324    1.0237 C   0  0  0  0  0  0  0  0  0  0  0  0
    5.4292    0.0871   -0.0983 C   0  0  0  0  0  0  0  0  0  0  0  0
    5.8861    1.3132   -0.4795 C   0  0  0  0  0  0  0  0  0  0  0  0
    6.9644    2.0921    0.2284 C   0  0  0  0  0  0  0  0  0  0  0  0
    5.6440    1.8158   -1.8638 C   0  0  0  0  0  0  0  0  0  0  0  0
    6.3344    1.4280   -2.7994 O   0  0  0  0  0  0  0  0  0  0  0  0
    4.5704    2.8159   -2.0922 C   0  0  0  0  0  0  0  0  0  0  0  0
    4.5912    4.1213   -1.3484 C   0  0  0  0  0  0  0  0  0  0  0  0
    5.3483    5.1864   -2.1407 C   0  0  0  0  0  0  0  0  0  0  0  0
    3.5048    2.0793   -2.4444 C   0  0  0  0  0  0  0  0  0  0  0  0
    2.9825    2.4694   -3.7640 C   0  0  0  0  0  0  0  0  0  0  0  0
    1.8257    3.0219   -3.9265 N   0  0  0  0  0  0  0  0  0  0  0  0
    1.1259    3.3526   -2.7449 N   0  0  0  0  0  0  0  0  0  0  0  0
    1.3845    2.7743   -1.6576 N   0  0  0  0  0  0  0  0  0  0  0  0
    2.3876    1.8385   -1.5674 C   0  0  0  0  0  0  0  0  0  0  0  0
    1.1131   -0.4270    0.5808 H   0  0  0  0  0  0  0  0  0  0  0  0
    0.2203    0.0468   -0.8768 H   0  0  0  0  0  0  0  0  0  0  0  0
    0.5965    1.2458    0.3752 H   0  0  0  0  0  0  0  0  0  0  0  0
    2.6178   -1.2241   -1.6948 H   0  0  0  0  0  0  0  0  0  0  0  0
    6.1716   -1.9231   -1.4786 H   0  0  0  0  0  0  0  0  0  0  0  0
    4.8870   -1.8236   -2.6213 H   0  0  0  0  0  0  0  0  0  0  0  0
    5.1472   -4.0665   -1.8398 H   0  0  0  0  0  0  0  0  0  0  0  0
    3.5375   -3.4773   -1.5039 H   0  0  0  0  0  0  0  0  0  0  0  0
    4.4503   -4.9514    0.2224 H   0  0  0  0  0  0  0  0  0  0  0  0
    3.9291   -3.4271    0.8594 H   0  0  0  0  0  0  0  0  0  0  0  0
    6.8283   -3.3739    0.1488 H   0  0  0  0  0  0  0  0  0  0  0  0
    6.4566   -4.7578    1.1310 H   0  0  0  0  0  0  0  0  0  0  0  0
    7.1412   -2.7922    2.4795 H   0  0  0  0  0  0  0  0  0  0  0  0
    5.5921   -3.4700    2.9426 H   0  0  0  0  0  0  0  0  0  0  0  0
    5.4880   -1.0544    3.0052 H   0  0  0  0  0  0  0  0  0  0  0  0
    4.3791   -1.6079    1.7840 H   0  0  0  0  0  0  0  0  0  0  0  0
    6.9860   -1.2040    0.5273 H   0  0  0  0  0  0  0  0  0  0  0  0
    6.7337    0.0820    1.6513 H   0  0  0  0  0  0  0  0  0  0  0  0
    7.8193    1.4597    0.4891 H   0  0  0  0  0  0  0  0  0  0  0  0
    6.5643    2.5467    1.1412 H   0  0  0  0  0  0  0  0  0  0  0  0
    7.3669    2.8973   -0.3953 H   0  0  0  0  0  0  0  0  0  0  0  0
    5.0498    4.0240   -0.3607 H   0  0  0  0  0  0  0  0  0  0  0  0
    3.5735    4.4895   -1.1805 H   0  0  0  0  0  0  0  0  0  0  0  0
    6.4016    4.9157   -2.2726 H   0  0  0  0  0  0  0  0  0  0  0  0
    5.3151    6.1473   -1.6148 H   0  0  0  0  0  0  0  0  0  0  0  0
    4.9085    5.3360   -3.1333 H   0  0  0  0  0  0  0  0  0  0  0  0
    3.6009    2.1898   -4.6337 H   0  0  0  0  0  0  0  0  0  0  0  0
  1  2  1  0  0  0  0
  1 26  1  0  0  0  0
  1 27  1  0  0  0  0
  1 28  1  0  0  0  0
  2  3  1  0  0  0  0
  2 25  2  3  0  0  0
  3  4  2  3  0  0  0
  3 29  1  0  0  0  0
  4  5  1  0  0  0  0
  4 12  1  0  0  0  0
  5  6  1  0  0  0  0
  5 30  1  0  0  0  0
  5 31  1  0  0  0  0
  6  7  1  0  0  0  0
  6 32  1  0  0  0  0
  6 33  1  0  0  0  0
  7  8  1  0  0  0  0
  7 34  1  0  0  0  0
  7 35  1  0  0  0  0
  8  9  1  0  0  0  0
  8 36  1  0  0  0  0
  8 37  1  0  0  0  0
  9 10  1  0  0  0  0
  9 38  1  0  0  0  0
  9 39  1  0  0  0  0
 10 11  1  0  0  0  0
 10 40  1  0  0  0  0
 10 41  1  0  0  0  0
 11 12  1  0  0  0  0
 11 42  1  0  0  0  0
 11 43  1  0  0  0  0
 12 13  2  3  0  0  0
 13 14  1  0  0  0  0
 13 15  1  0  0  0  0
 14 44  1  0  0  0  0
 14 45  1  0  0  0  0
 14 46  1  0  0  0  0
 15 16  2  0  0  0  0
 15 17  1  0  0  0  0
 17 18  1  0  0  0  0
 17 20  2  3  0  0  0
 18 19  1  0  0  0  0
 18 47  1  0  0  0  0
 18 48  1  0  0  0  0
 19 49  1  0  0  0  0
 19 50  1  0  0  0  0
 19 51  1  0  0  0  0
 20 21  1  0  0  0  0
 20 25  1  0  0  0  0
 21 22  2  0  0  0  0
 21 52  1  0  0  0  0
 22 23  1  0  0  0  0
 23 24  2  0  0  0  0
 24 25  1  0  0  0  0
M  END
$$$$
