
 OpenBabel04232216433D

 23 23  0  0  0  0  0  0  0  0999 V2000
    3.8350    0.0167    1.4180 C   0  0  0  0  0  0  0  0  0  0  0  0
    4.0392    1.0218    0.3316 C   0  0  0  0  0  0  0  0  0  0  0  0
    3.4361    2.2253    0.2571 C   0  0  0  0  0  0  0  0  0  0  0  0
    4.1158    3.2573   -0.5198 C   0  0  0  0  0  0  0  0  0  0  0  0
    4.9464    4.0333    0.2142 C   0  0  0  0  0  0  0  0  0  0  0  0
    6.3985    3.8903   -0.0154 C   0  0  0  0  0  0  0  0  0  0  0  0
    7.1083    3.5417    1.0855 C   0  0  0  0  0  0  0  0  0  0  0  0
    7.2209    2.0886    1.2848 C   0  0  0  0  0  0  0  0  0  0  0  0
    6.6022    1.5302    2.3385 C   0  0  0  0  0  0  0  0  0  0  0  0
    6.2604    0.1357    2.4636 C   0  0  0  0  0  0  0  0  0  0  0  0
    5.1059   -0.4613    2.1029 C   0  0  0  0  0  0  0  0  0  0  0  0
    3.3584   -0.8601    0.9611 H   0  0  0  0  0  0  0  0  0  0  0  0
    3.1394    0.3875    2.1790 H   0  0  0  0  0  0  0  0  0  0  0  0
    4.8280    0.7759   -0.3785 H   0  0  0  0  0  0  0  0  0  0  0  0
    2.6677    2.5284    0.9631 H   0  0  0  0  0  0  0  0  0  0  0  0
    4.4032    2.9454   -1.5254 H   0  0  0  0  0  0  0  0  0  0  0  0
    4.6790    4.2054    1.2608 H   0  0  0  0  0  0  0  0  0  0  0  0
    6.6092    3.3411   -0.9382 H   0  0  0  0  0  0  0  0  0  0  0  0
    6.9016    4.0692    2.0188 H   0  0  0  0  0  0  0  0  0  0  0  0
    7.5748    1.4836    0.4532 H   0  0  0  0  0  0  0  0  0  0  0  0
    6.2300    2.1547    3.1499 H   0  0  0  0  0  0  0  0  0  0  0  0
    6.9988   -0.4587    3.0005 H   0  0  0  0  0  0  0  0  0  0  0  0
    5.0277   -1.5100    2.3918 H   0  0  0  0  0  0  0  0  0  0  0  0
  1  2  1  0  0  0  0
  1 11  1  0  0  0  0
  1 12  1  0  0  0  0
  1 13  1  0  0  0  0
  2  3  2  3  0  0  0
  2 14  1  0  0  0  0
  3  4  1  0  0  0  0
  3 15  1  0  0  0  0
  4  5  2  3  0  0  0
  4 16  1  0  0  0  0
  5  6  1  0  0  0  0
  5 17  1  0  0  0  0
  6  7  2  3  0  0  0
  6 18  1  0  0  0  0
  7  8  1  0  0  0  0
  7 19  1  0  0  0  0
  8  9  2  3  0  0  0
  8 20  1  0  0  0  0
  9 10  1  0  0  0  0
  9 21  1  0  0  0  0
 10 11  2  3  0  0  0
 10 22  1  0  0  0  0
 11 23  1  0  0  0  0
M  END
$$$$
