
 OpenBabel04232216453D

 66 66  0  0  0  0  0  0  0  0999 V2000
    5.9331   -1.6911    1.4914 C   0  0  0  0  0  0  0  0  0  0  0  0
    6.7435   -0.5836    2.2373 C   0  0  0  0  0  0  0  0  0  0  0  0
    5.6259    0.4086    2.2424 C   0  0  0  0  0  0  0  0  0  0  0  0
    5.2793    1.2913    1.2648 C   0  0  0  0  0  0  0  0  0  0  0  0
    5.7519    1.2155   -0.1781 C   0  0  0  0  0  0  0  0  0  0  0  0
    4.9360    2.7091    1.8206 C   0  0  0  0  0  0  0  0  0  0  0  0
    6.3083    3.0404    2.3389 C   0  0  0  0  0  0  0  0  0  0  0  0
    7.0512    4.0152    3.2243 C   0  0  0  0  0  0  0  0  0  0  0  0
    8.4364    3.3517    3.0880 C   0  0  0  0  0  0  0  0  0  0  0  0
    9.7229    4.1004    3.1275 C   0  0  0  0  0  0  0  0  0  0  0  0
   10.6733    3.1411    2.3671 C   0  0  0  0  0  0  0  0  0  0  0  0
   10.9856    2.0169    3.3331 C   0  0  0  0  0  0  0  0  0  0  0  0
   11.7078    2.4140    4.2658 O   0  0  0  0  0  0  0  0  0  0  0  0
   10.4701    0.4816    3.2641 C   0  0  0  0  0  0  0  0  0  0  0  0
   11.5383   -0.3788    3.8423 N   0  0  0  0  0  0  0  0  0  0  0  0
   12.6438    0.1669    4.6952 C   0  0  0  0  0  0  0  0  0  0  0  0
   13.5326   -0.8481    5.4286 C   0  0  0  0  0  0  0  0  0  0  0  0
   13.7623   -0.3388    6.8685 C   0  0  0  0  0  0  0  0  0  0  0  0
   14.5742   -1.2645    7.7735 C   0  0  0  0  0  0  0  0  0  0  0  0
   14.5134   -0.7412    9.2180 C   0  0  0  0  0  0  0  0  0  0  0  0
   15.2702   -1.6247   10.2051 C   0  0  0  0  0  0  0  0  0  0  0  0
   15.1383   -1.0940   11.6264 C   0  0  0  0  0  0  0  0  0  0  0  0
   15.8877   -1.9800   12.6345 C   0  0  0  0  0  0  0  0  0  0  0  0
   15.7311   -1.4502   14.0122 C   0  0  0  0  0  0  0  0  0  0  0  0
   15.2949   -2.0898   14.9893 O   0  0  0  0  0  0  0  0  0  0  0  0
    9.3326   -0.2225    2.8488 C   0  0  0  0  0  0  0  0  0  0  0  0
    8.0274   -0.0594    2.0487 C   0  0  0  0  0  0  0  0  0  0  0  0
    4.8806   -1.7101    1.8627 H   0  0  0  0  0  0  0  0  0  0  0  0
    6.2769   -2.7100    1.6396 H   0  0  0  0  0  0  0  0  0  0  0  0
    5.8122   -1.4880    0.4183 H   0  0  0  0  0  0  0  0  0  0  0  0
    5.2540    0.5715    3.2599 H   0  0  0  0  0  0  0  0  0  0  0  0
    4.9088    1.0719   -0.8543 H   0  0  0  0  0  0  0  0  0  0  0  0
    6.4536    0.3930   -0.3578 H   0  0  0  0  0  0  0  0  0  0  0  0
    6.2869    2.1194   -0.4833 H   0  0  0  0  0  0  0  0  0  0  0  0
    4.1634    2.6757    2.5898 H   0  0  0  0  0  0  0  0  0  0  0  0
    4.6425    3.3883    1.0163 H   0  0  0  0  0  0  0  0  0  0  0  0
    6.8698    3.0555    1.3978 H   0  0  0  0  0  0  0  0  0  0  0  0
    6.5825    2.1642    2.9401 H   0  0  0  0  0  0  0  0  0  0  0  0
    6.7265    3.9438    4.2695 H   0  0  0  0  0  0  0  0  0  0  0  0
    7.0135    5.0350    2.8631 H   0  0  0  0  0  0  0  0  0  0  0  0
    8.4925    2.9068    2.0857 H   0  0  0  0  0  0  0  0  0  0  0  0
    8.4861    2.4869    3.7653 H   0  0  0  0  0  0  0  0  0  0  0  0
   10.0171    4.2586    4.1734 H   0  0  0  0  0  0  0  0  0  0  0  0
    9.6530    5.0681    2.6320 H   0  0  0  0  0  0  0  0  0  0  0  0
   11.6191    3.6786    2.1730 H   0  0  0  0  0  0  0  0  0  0  0  0
   10.3360    2.7644    1.4091 H   0  0  0  0  0  0  0  0  0  0  0  0
   11.9809   -0.8381    3.0427 H   0  0  0  0  0  0  0  0  0  0  0  0
   12.1836    0.7766    5.4775 H   0  0  0  0  0  0  0  0  0  0  0  0
   13.3156    0.7815    4.0779 H   0  0  0  0  0  0  0  0  0  0  0  0
   14.5065   -0.9157    4.9251 H   0  0  0  0  0  0  0  0  0  0  0  0
   13.0878   -1.8456    5.4340 H   0  0  0  0  0  0  0  0  0  0  0  0
   12.7835   -0.1772    7.3363 H   0  0  0  0  0  0  0  0  0  0  0  0
   14.2590    0.6428    6.8361 H   0  0  0  0  0  0  0  0  0  0  0  0
   15.6154   -1.3098    7.4343 H   0  0  0  0  0  0  0  0  0  0  0  0
   14.1647   -2.2793    7.7314 H   0  0  0  0  0  0  0  0  0  0  0  0
   13.4637   -0.6770    9.5318 H   0  0  0  0  0  0  0  0  0  0  0  0
   14.9182    0.2775    9.2568 H   0  0  0  0  0  0  0  0  0  0  0  0
   16.3315   -1.6732    9.9169 H   0  0  0  0  0  0  0  0  0  0  0  0
   14.8784   -2.6518   10.1540 H   0  0  0  0  0  0  0  0  0  0  0  0
   14.0825   -1.0339   11.9091 H   0  0  0  0  0  0  0  0  0  0  0  0
   15.5266   -0.0819   11.6842 H   0  0  0  0  0  0  0  0  0  0  0  0
   16.9431   -2.0108   12.3922 H   0  0  0  0  0  0  0  0  0  0  0  0
   15.5018   -2.9973   12.5952 H   0  0  0  0  0  0  0  0  0  0  0  0
   16.0830   -0.4577   14.2176 H   0  0  0  0  0  0  0  0  0  0  0  0
    9.3466   -1.2622    3.1948 H   0  0  0  0  0  0  0  0  0  0  0  0
    8.1142    0.7721    1.3524 H   0  0  0  0  0  0  0  0  0  0  0  0
  1  2  1  0  0  0  0
  1 28  1  0  0  0  0
  1 29  1  0  0  0  0
  1 30  1  0  0  0  0
  2  3  1  0  0  0  0
  2 27  2  3  0  0  0
  3  4  2  3  0  0  0
  3 31  1  0  0  0  0
  4  5  1  0  0  0  0
  4  6  1  0  0  0  0
  5 32  1  0  0  0  0
  5 33  1  0  0  0  0
  5 34  1  0  0  0  0
  6  7  1  0  0  0  0
  6 35  1  0  0  0  0
  6 36  1  0  0  0  0
  7  8  1  0  0  0  0
  7 37  1  0  0  0  0
  7 38  1  0  0  0  0
  8  9  1  0  0  0  0
  8 39  1  0  0  0  0
  8 40  1  0  0  0  0
  9 10  1  0  0  0  0
  9 41  1  0  0  0  0
  9 42  1  0  0  0  0
 10 11  1  0  0  0  0
 10 43  1  0  0  0  0
 10 44  1  0  0  0  0
 11 12  1  0  0  0  0
 11 45  1  0  0  0  0
 11 46  1  0  0  0  0
 12 13  2  0  0  0  0
 12 14  1  0  0  0  0
 14 15  1  0  0  0  0
 14 26  2  3  0  0  0
 15 16  1  0  0  0  0
 15 47  1  0  0  0  0
 16 17  1  0  0  0  0
 16 48  1  0  0  0  0
 16 49  1  0  0  0  0
 17 18  1  0  0  0  0
 17 50  1  0  0  0  0
 17 51  1  0  0  0  0
 18 19  1  0  0  0  0
 18 52  1  0  0  0  0
 18 53  1  0  0  0  0
 19 20  1  0  0  0  0
 19 54  1  0  0  0  0
 19 55  1  0  0  0  0
 20 21  1  0  0  0  0
 20 56  1  0  0  0  0
 20 57  1  0  0  0  0
 21 22  1  0  0  0  0
 21 58  1  0  0  0  0
 21 59  1  0  0  0  0
 22 23  1  0  0  0  0
 22 60  1  0  0  0  0
 22 61  1  0  0  0  0
 23 24  1  0  0  0  0
 23 62  1  0  0  0  0
 23 63  1  0  0  0  0
 24 25  2  0  0  0  0
 24 64  1  0  0  0  0
 26 27  1  0  0  0  0
 26 65  1  0  0  0  0
 27 66  1  0  0  0  0
M  END
$$$$
