
 OpenBabel04232216523D

 63 64  0  0  0  0  0  0  0  0999 V2000
    4.3390   -2.9798   -0.1804 C   0  0  0  0  0  0  0  0  0  0  0  0
    6.1028   -3.0803   -0.3296 C   0  0  0  0  0  0  0  0  0  0  0  0
    7.7550   -4.1683   -0.2723 C   0  0  0  0  0  0  0  0  0  0  0  0
    8.9912   -4.7773    1.0894 C   0  0  0  0  0  0  0  0  0  0  0  0
    7.5866   -4.3991    2.1061 C   0  0  0  0  0  0  0  0  0  0  0  0
    7.2061   -2.8192    2.2111 C   0  0  0  0  0  0  0  0  0  0  0  0
    7.7417   -2.4701    3.5373 C   0  0  0  0  0  0  0  0  0  0  0  0
    9.1542   -2.3462    3.1467 C   0  0  0  0  0  0  0  0  0  0  0  0
    9.6944   -3.5777    3.7489 C   0  0  0  0  0  0  0  0  0  0  0  0
   11.0508   -3.3275    3.3751 C   0  0  0  0  0  0  0  0  0  0  0  0
   11.7440   -4.0964    4.4051 C   0  0  0  0  0  0  0  0  0  0  0  0
   12.9841   -3.3831    4.1554 C   0  0  0  0  0  0  0  0  0  0  0  0
   13.9543   -4.3908    4.4167 C   0  0  0  0  0  0  0  0  0  0  0  0
   14.3824   -4.3443    2.9956 C   0  0  0  0  0  0  0  0  0  0  0  0
   15.2750   -3.6203    2.5742 O   0  0  0  0  0  0  0  0  0  0  0  0
   13.7076   -5.4477    2.2366 C   0  0  0  0  0  0  0  0  0  0  0  0
   12.0788   -5.8430    2.1446 C   0  0  0  0  0  0  0  0  0  0  0  0
   12.7478   -7.4609    2.8171 C   0  0  0  0  0  0  0  0  0  0  0  0
   13.8494   -8.3798    4.2269 C   0  0  0  0  0  0  0  0  0  0  0  0
   13.4870   -9.5845    4.3671 O   0  0  0  0  0  0  0  0  0  0  0  0
   15.4187   -8.1871    5.0551 C   0  0  0  0  0  0  0  0  0  0  0  0
   15.7119   -7.4600    6.3966 C   0  0  0  0  0  0  0  0  0  0  0  0
   15.6277   -6.0031    6.0763 C   0  0  0  0  0  0  0  0  0  0  0  0
   16.1536   -5.6797    4.5709 C   0  0  0  0  0  0  0  0  0  0  0  0
   15.3013   -6.1730    2.9916 C   0  0  0  0  0  0  0  0  0  0  0  0
   10.6357   -5.2652    1.1382 N   0  0  0  0  0  0  0  0  0  0  0  0
    3.9625   -2.3056   -1.0077 H   0  0  0  0  0  0  0  0  0  0  0  0
    3.9302   -2.3879    0.6784 H   0  0  0  0  0  0  0  0  0  0  0  0
    3.6884   -3.8613   -0.3066 H   0  0  0  0  0  0  0  0  0  0  0  0
    6.3496   -2.0613   -0.0138 H   0  0  0  0  0  0  0  0  0  0  0  0
    6.0409   -3.0262   -1.4190 H   0  0  0  0  0  0  0  0  0  0  0  0
    8.3277   -3.5277   -0.9642 H   0  0  0  0  0  0  0  0  0  0  0  0
    7.3321   -5.0548   -0.7669 H   0  0  0  0  0  0  0  0  0  0  0  0
    6.7022   -4.7173    1.4981 H   0  0  0  0  0  0  0  0  0  0  0  0
    7.3527   -4.9871    2.9848 H   0  0  0  0  0  0  0  0  0  0  0  0
    6.1655   -2.4651    2.2152 H   0  0  0  0  0  0  0  0  0  0  0  0
    7.6845   -2.2192    1.4092 H   0  0  0  0  0  0  0  0  0  0  0  0
    7.5423   -3.3307    4.1933 H   0  0  0  0  0  0  0  0  0  0  0  0
    7.4026   -1.6088    4.0898 H   0  0  0  0  0  0  0  0  0  0  0  0
    9.5832   -1.4097    3.5097 H   0  0  0  0  0  0  0  0  0  0  0  0
    9.4155   -2.3520    2.0631 H   0  0  0  0  0  0  0  0  0  0  0  0
    9.4138   -4.5669    3.3710 H   0  0  0  0  0  0  0  0  0  0  0  0
    9.5263   -3.6216    4.8215 H   0  0  0  0  0  0  0  0  0  0  0  0
   11.3081   -2.2589    3.4816 H   0  0  0  0  0  0  0  0  0  0  0  0
   11.2803   -3.5340    2.3328 H   0  0  0  0  0  0  0  0  0  0  0  0
   11.6318   -5.1885    4.1720 H   0  0  0  0  0  0  0  0  0  0  0  0
   11.4368   -4.0333    5.4263 H   0  0  0  0  0  0  0  0  0  0  0  0
   13.1296   -2.4738    4.7403 H   0  0  0  0  0  0  0  0  0  0  0  0
   13.0451   -2.9960    3.1089 H   0  0  0  0  0  0  0  0  0  0  0  0
   13.5726   -5.3981    4.6644 H   0  0  0  0  0  0  0  0  0  0  0  0
   14.5535   -4.0254    5.2401 H   0  0  0  0  0  0  0  0  0  0  0  0
   13.6043   -7.6961    2.0867 H   0  0  0  0  0  0  0  0  0  0  0  0
   12.1457   -8.3344    2.4702 H   0  0  0  0  0  0  0  0  0  0  0  0
   16.3074   -8.0420    4.4157 H   0  0  0  0  0  0  0  0  0  0  0  0
   15.6770   -9.2107    5.3886 H   0  0  0  0  0  0  0  0  0  0  0  0
   16.7257   -7.6493    6.8381 H   0  0  0  0  0  0  0  0  0  0  0  0
   15.0468   -7.7540    7.2243 H   0  0  0  0  0  0  0  0  0  0  0  0
   16.1713   -5.4093    6.8409 H   0  0  0  0  0  0  0  0  0  0  0  0
   14.5826   -5.7700    6.2811 H   0  0  0  0  0  0  0  0  0  0  0  0
   17.1869   -6.0770    4.5360 H   0  0  0  0  0  0  0  0  0  0  0  0
   16.3682   -4.5977    4.5756 H   0  0  0  0  0  0  0  0  0  0  0  0
   15.4319   -7.2479    2.8415 H   0  0  0  0  0  0  0  0  0  0  0  0
   16.0969   -5.8143    2.2886 H   0  0  0  0  0  0  0  0  0  0  0  0
  1  2  1  0  0  0  0
  1 27  1  0  0  0  0
  1 28  1  0  0  0  0
  1 29  1  0  0  0  0
  2  3  1  0  0  0  0
  2 30  1  0  0  0  0
  2 31  1  0  0  0  0
  3  4  1  0  0  0  0
  3 32  1  0  0  0  0
  3 33  1  0  0  0  0
  4  5  1  0  0  0  0
  4 26  2  3  0  0  0
  5  6  1  0  0  0  0
  5 34  1  0  0  0  0
  5 35  1  0  0  0  0
  6  7  1  0  0  0  0
  6 36  1  0  0  0  0
  6 37  1  0  0  0  0
  7  8  1  0  0  0  0
  7 38  1  0  0  0  0
  7 39  1  0  0  0  0
  8  9  1  0  0  0  0
  8 40  1  0  0  0  0
  8 41  1  0  0  0  0
  9 10  1  0  0  0  0
  9 42  1  0  0  0  0
  9 43  1  0  0  0  0
 10 11  1  0  0  0  0
 10 44  1  0  0  0  0
 10 45  1  0  0  0  0
 11 12  1  0  0  0  0
 11 46  1  0  0  0  0
 11 47  1  0  0  0  0
 12 13  1  0  0  0  0
 12 48  1  0  0  0  0
 12 49  1  0  0  0  0
 13 14  1  0  0  0  0
 13 50  1  0  0  0  0
 13 51  1  0  0  0  0
 14 15  2  0  0  0  0
 14 16  1  0  0  0  0
 16 17  2  3  0  0  0
 16 25  1  0  0  0  0
 17 18  1  0  0  0  0
 17 26  1  0  0  0  0
 18 19  1  0  0  0  0
 18 52  1  0  0  0  0
 18 53  1  0  0  0  0
 19 20  2  0  0  0  0
 19 21  1  0  0  0  0
 21 22  1  0  0  0  0
 21 54  1  0  0  0  0
 21 55  1  0  0  0  0
 22 23  1  0  0  0  0
 22 56  1  0  0  0  0
 22 57  1  0  0  0  0
 23 24  1  0  0  0  0
 23 58  1  0  0  0  0
 23 59  1  0  0  0  0
 24 25  1  0  0  0  0
 24 60  1  0  0  0  0
 24 61  1  0  0  0  0
 25 62  1  0  0  0  0
 25 63  1  0  0  0  0
M  END
$$$$
