
 OpenBabel04232216523D

 56 57  0  0  0  0  0  0  0  0999 V2000
    0.0991    0.0001    0.9390 C   0  0  0  0  0  0  0  0  0  0  0  0
    1.5384    0.3708    1.1421 C   0  0  0  0  0  0  0  0  0  0  0  0
    2.1579   -0.1695   -0.0693 C   0  0  0  0  0  0  0  0  0  0  0  0
    3.6063    0.1739    0.0857 C   0  0  0  0  0  0  0  0  0  0  0  0
    3.8397   -0.9930   -0.6642 C   0  0  0  0  0  3  0  0  0  0  0  0
    3.7259   -0.8184   -2.1542 C   0  0  0  0  0  0  0  0  0  0  0  0
    3.0825   -2.2750   -2.3207 C   0  0  0  0  0  0  0  0  0  0  0  0
    3.3643   -2.9653   -3.6244 O   0  0  0  0  0  0  0  0  0  0  0  0
    5.0761   -0.8312   -2.7514 C   0  0  0  0  0  0  0  0  0  0  0  0
    6.2201   -0.5351   -1.8988 C   0  0  0  0  0  0  0  0  0  0  0  0
    6.1651   -0.0075   -0.6324 C   0  0  0  0  0  0  0  0  0  0  0  0
    7.2322    0.1682    0.4181 C   0  0  0  0  0  0  0  0  0  0  0  0
    8.9728    0.3175    0.1433 S   0  0  0  0  0  0  0  0  0  0  0  0
    8.9958    2.1292   -0.0720 C   0  0  0  0  0  0  0  0  0  0  0  0
    8.7980    2.3175   -1.5183 C   0  0  0  0  0  3  0  0  0  0  0  0
    8.9215    3.6720   -2.1064 C   0  0  0  0  0  0  0  0  0  0  0  0
    7.9916    3.7301   -3.3074 C   0  0  0  0  0  0  0  0  0  0  0  0
    6.5317    3.8022   -2.8282 C   0  0  0  0  0  0  0  0  0  0  0  0
    5.6285    3.0585   -3.7929 C   0  0  0  0  0  0  0  0  0  0  0  0
    4.1504    3.1021   -3.4098 C   0  0  0  0  0  0  0  0  0  0  0  0
    3.4928    1.7132   -3.7698 C   0  0  0  0  0  0  0  0  0  0  0  0
    3.1875    0.8356   -2.5243 C   0  0  0  0  0  0  0  0  0  0  0  0
    4.9115    0.4340    0.1689 C   0  0  0  0  0  0  0  0  0  0  0  0
   -0.4527    0.2401    1.8336 H   0  0  0  0  0  0  0  0  0  0  0  0
    0.0217   -1.0709    0.7073 H   0  0  0  0  0  0  0  0  0  0  0  0
   -0.3118    0.5348    0.0699 H   0  0  0  0  0  0  0  0  0  0  0  0
    2.0350   -0.1398    1.9687 H   0  0  0  0  0  0  0  0  0  0  0  0
    1.7051    1.4512    1.2009 H   0  0  0  0  0  0  0  0  0  0  0  0
    1.6236    0.2548   -0.9358 H   0  0  0  0  0  0  0  0  0  0  0  0
    1.9153   -1.2412   -0.1956 H   0  0  0  0  0  0  0  0  0  0  0  0
    3.7533   -1.8480    0.0175 H   0  0  0  0  0  0  0  0  0  0  0  0
    2.0006   -2.2692   -2.3229 H   0  0  0  0  0  0  0  0  0  0  0  0
    3.4614   -2.9969   -1.5851 H   0  0  0  0  0  0  0  0  0  0  0  0
    3.9070   -2.4193   -4.2315 H   0  0  0  0  0  0  0  0  0  0  0  0
    5.0920   -1.0237   -3.8235 H   0  0  0  0  0  0  0  0  0  0  0  0
    7.1299   -0.9061   -2.3780 H   0  0  0  0  0  0  0  0  0  0  0  0
    7.0532   -0.5935    1.1791 H   0  0  0  0  0  0  0  0  0  0  0  0
    7.0080    1.1212    0.9011 H   0  0  0  0  0  0  0  0  0  0  0  0
    9.9335    2.5652    0.2790 H   0  0  0  0  0  0  0  0  0  0  0  0
    8.1874    2.6446    0.4672 H   0  0  0  0  0  0  0  0  0  0  0  0
    8.1988    1.5823   -2.0520 H   0  0  0  0  0  0  0  0  0  0  0  0
    9.9606    3.8463   -2.3937 H   0  0  0  0  0  0  0  0  0  0  0  0
    8.6264    4.4271   -1.3701 H   0  0  0  0  0  0  0  0  0  0  0  0
    8.1569    2.8487   -3.9470 H   0  0  0  0  0  0  0  0  0  0  0  0
    8.2259    4.6035   -3.9216 H   0  0  0  0  0  0  0  0  0  0  0  0
    6.2406    4.8516   -2.7231 H   0  0  0  0  0  0  0  0  0  0  0  0
    6.4125    3.3467   -1.8355 H   0  0  0  0  0  0  0  0  0  0  0  0
    5.9678    2.0175   -3.8197 H   0  0  0  0  0  0  0  0  0  0  0  0
    5.7494    3.4631   -4.8031 H   0  0  0  0  0  0  0  0  0  0  0  0
    3.6858    3.9234   -3.9785 H   0  0  0  0  0  0  0  0  0  0  0  0
    4.0116    3.3983   -2.3573 H   0  0  0  0  0  0  0  0  0  0  0  0
    4.1212    1.1680   -4.4667 H   0  0  0  0  0  0  0  0  0  0  0  0
    2.5535    1.9525   -4.2872 H   0  0  0  0  0  0  0  0  0  0  0  0
    2.1504    1.0960   -2.2612 H   0  0  0  0  0  0  0  0  0  0  0  0
    3.7388    1.4353   -1.7849 H   0  0  0  0  0  0  0  0  0  0  0  0
    5.1295    0.9850    1.0787 H   0  0  0  0  0  0  0  0  0  0  0  0
  1  2  1  0  0  0  0
  1 24  1  0  0  0  0
  1 25  1  0  0  0  0
  1 26  1  0  0  0  0
  2  3  1  0  0  0  0
  2 27  1  0  0  0  0
  2 28  1  0  0  0  0
  3  4  1  0  0  0  0
  3 29  1  0  0  0  0
  3 30  1  0  0  0  0
  4  5  1  0  0  0  0
  4 23  2  0  0  0  0
  5  6  1  0  0  0  0
  5 31  1  0  0  0  0
  6  7  1  0  0  0  0
  6  9  2  0  0  0  0
  6 22  1  0  0  0  0
  7  8  1  0  0  0  0
  7 32  1  0  0  0  0
  7 33  1  0  0  0  0
  8 34  1  0  0  0  0
  9 10  1  0  0  0  0
  9 35  1  0  0  0  0
 10 11  2  0  0  0  0
 10 36  1  0  0  0  0
 11 12  1  0  0  0  0
 11 23  1  0  0  0  0
 12 13  1  0  0  0  0
 12 37  1  0  0  0  0
 12 38  1  0  0  0  0
 13 14  1  0  0  0  0
 14 15  1  0  0  0  0
 14 39  1  0  0  0  0
 14 40  1  0  0  0  0
 15 16  1  0  0  0  0
 15 41  1  0  0  0  0
 16 17  1  0  0  0  0
 16 42  1  0  0  0  0
 16 43  1  0  0  0  0
 17 18  1  0  0  0  0
 17 44  1  0  0  0  0
 17 45  1  0  0  0  0
 18 19  1  0  0  0  0
 18 46  1  0  0  0  0
 18 47  1  0  0  0  0
 19 20  1  0  0  0  0
 19 48  1  0  0  0  0
 19 49  1  0  0  0  0
 20 21  1  0  0  0  0
 20 50  1  0  0  0  0
 20 51  1  0  0  0  0
 21 22  1  0  0  0  0
 21 52  1  0  0  0  0
 21 53  1  0  0  0  0
 22 54  1  0  0  0  0
 22 55  1  0  0  0  0
 23 56  1  0  0  0  0
M  END
$$$$
