
 OpenBabel04232217023D

 55 54  0  0  0  0  0  0  0  0999 V2000
    3.6365   -0.5255   -8.0010 O   0  0  0  0  0  0  0  0  0  0  0  0
    5.0834   -0.5262   -8.1579 O   0  0  0  0  0  0  0  0  0  0  0  0
    5.5773   -0.7527   -6.8462 C   0  0  0  0  0  0  0  0  0  0  0  0
    7.0951   -0.7773   -6.8774 C   0  0  0  0  0  0  0  0  0  0  0  0
    7.6840   -1.0164   -5.4930 C   0  0  0  0  0  0  0  0  0  0  0  0
    9.2015   -1.0473   -5.5247 C   0  0  0  0  0  0  0  0  0  0  0  0
    9.9214   -1.3583   -3.8603 S   0  0  0  0  0  0  0  0  0  0  0  0
    9.2076   -3.1941   -3.2567 S   0  0  0  0  0  0  0  0  0  0  0  0
    9.8882   -4.5906   -4.6175 S   0  0  0  0  0  0  0  0  0  0  0  0
   11.9585   -4.6157   -4.5659 S   0  0  0  0  0  0  0  0  0  0  0  0
   12.6187   -6.0216   -5.9709 S   0  0  0  0  0  0  0  0  0  0  0  0
   14.7207   -6.0120   -5.9611 S   0  0  0  0  0  0  0  0  0  0  0  0
   15.4064   -7.4376   -7.3510 S   0  0  0  0  0  0  0  0  0  0  0  0
   17.5144   -7.4272   -7.3410 S   0  0  0  0  0  0  0  0  0  0  0  0
   18.2045   -8.8536   -8.7322 S   0  0  0  0  0  0  0  0  0  0  0  0
   20.3135   -8.8439   -8.7227 S   0  0  0  0  0  0  0  0  0  0  0  0
   21.0040  -10.2707  -10.1143 S   0  0  0  0  0  0  0  0  0  0  0  0
   23.1133  -10.2612  -10.1050 S   0  0  0  0  0  0  0  0  0  0  0  0
   23.8039  -11.6880  -11.4966 S   0  0  0  0  0  0  0  0  0  0  0  0
   25.9133  -11.6785  -11.4874 S   0  0  0  0  0  0  0  0  0  0  0  0
   26.6039  -13.1054  -12.8790 S   0  0  0  0  0  0  0  0  0  0  0  0
   28.7133  -13.0959  -12.8698 S   0  0  0  0  0  0  0  0  0  0  0  0
   29.4039  -14.5228  -14.2614 S   0  0  0  0  0  0  0  0  0  0  0  0
   31.5133  -14.5133  -14.2522 S   0  0  0  0  0  0  0  0  0  0  0  0
   32.2039  -15.9402  -15.6438 S   0  0  0  0  0  0  0  0  0  0  0  0
   34.3133  -15.9307  -15.6346 S   0  0  0  0  0  0  0  0  0  0  0  0
   35.0039  -17.3575  -17.0262 S   0  0  0  0  0  0  0  0  0  0  0  0
   37.1133  -17.3481  -17.0170 S   0  0  0  0  0  0  0  0  0  0  0  0
   37.8039  -18.7749  -18.4086 S   0  0  0  0  0  0  0  0  0  0  0  0
   39.9133  -18.7654  -18.3994 S   0  0  0  0  0  0  0  0  0  0  0  0
   40.6039  -20.1923  -19.7911 S   0  0  0  0  0  0  0  0  0  0  0  0
   42.7132  -20.1828  -19.7818 S   0  0  0  0  0  0  0  0  0  0  0  0
   43.4039  -21.6097  -21.1734 S   0  0  0  0  0  0  0  0  0  0  0  0
   45.5132  -21.6002  -21.1642 S   0  0  0  0  0  0  0  0  0  0  0  0
   46.2038  -23.0270  -22.5558 S   0  0  0  0  0  0  0  0  0  0  0  0
   48.3130  -23.0175  -22.5465 S   0  0  0  0  0  0  0  0  0  0  0  0
   49.0031  -24.4441  -23.9379 S   0  0  0  0  0  0  0  0  0  0  0  0
   51.1115  -24.4342  -23.9283 S   0  0  0  0  0  0  0  0  0  0  0  0
   51.8001  -25.8600  -25.3188 S   0  0  0  0  0  0  0  0  0  0  0  0
   53.9048  -25.8473  -25.3070 S   0  0  0  0  0  0  0  0  0  0  0  0
   54.5874  -27.2697  -26.6939 S   0  0  0  0  0  0  0  0  0  0  0  0
   56.6781  -27.2618  -26.6536 S   0  0  0  0  0  0  0  0  0  0  0  0
   57.3539  -28.6193  -28.0760 S   0  0  0  0  0  0  0  0  0  0  0  0
   59.4288  -28.6237  -28.0023 S   0  0  0  0  0  0  0  0  0  0  0  0
   60.0294  -26.7539  -28.6072 S   0  0  0  0  0  0  0  0  0  0  0  0
    3.4401   -0.3601   -8.9770 H   0  0  0  0  0  0  0  0  0  0  0  0
    5.1856   -1.7127   -6.4749 H   0  0  0  0  0  0  0  0  0  0  0  0
    5.2204    0.0512   -6.1835 H   0  0  0  0  0  0  0  0  0  0  0  0
    7.4661    0.1725   -7.2915 H   0  0  0  0  0  0  0  0  0  0  0  0
    7.4315   -1.5577   -7.5773 H   0  0  0  0  0  0  0  0  0  0  0  0
    7.2880   -1.9681   -5.1090 H   0  0  0  0  0  0  0  0  0  0  0  0
    7.3393   -0.2266   -4.8103 H   0  0  0  0  0  0  0  0  0  0  0  0
    9.5923   -0.1030   -5.8883 H   0  0  0  0  0  0  0  0  0  0  0  0
    9.5634   -1.8316   -6.1910 H   0  0  0  0  0  0  0  0  0  0  0  0
   61.3717  -26.8494  -28.5439 H   0  0  0  0  0  0  0  0  0  0  0  0
  1  2  1  0  0  0  0
  1 46  1  0  0  0  0
  2  3  1  0  0  0  0
  3  4  1  0  0  0  0
  3 47  1  0  0  0  0
  3 48  1  0  0  0  0
  4  5  1  0  0  0  0
  4 49  1  0  0  0  0
  4 50  1  0  0  0  0
  5  6  1  0  0  0  0
  5 51  1  0  0  0  0
  5 52  1  0  0  0  0
  6  7  1  0  0  0  0
  6 53  1  0  0  0  0
  6 54  1  0  0  0  0
  7  8  1  0  0  0  0
  8  9  1  0  0  0  0
  9 10  1  0  0  0  0
 10 11  1  0  0  0  0
 11 12  1  0  0  0  0
 12 13  1  0  0  0  0
 13 14  1  0  0  0  0
 14 15  1  0  0  0  0
 15 16  1  0  0  0  0
 16 17  1  0  0  0  0
 17 18  1  0  0  0  0
 18 19  1  0  0  0  0
 19 20  1  0  0  0  0
 20 21  1  0  0  0  0
 21 22  1  0  0  0  0
 22 23  1  0  0  0  0
 23 24  1  0  0  0  0
 24 25  1  0  0  0  0
 25 26  1  0  0  0  0
 26 27  1  0  0  0  0
 27 28  1  0  0  0  0
 28 29  1  0  0  0  0
 29 30  1  0  0  0  0
 30 31  1  0  0  0  0
 31 32  1  0  0  0  0
 32 33  1  0  0  0  0
 33 34  1  0  0  0  0
 34 35  1  0  0  0  0
 35 36  1  0  0  0  0
 36 37  1  0  0  0  0
 37 38  1  0  0  0  0
 38 39  1  0  0  0  0
 39 40  1  0  0  0  0
 40 41  1  0  0  0  0
 41 42  1  0  0  0  0
 42 43  1  0  0  0  0
 43 44  1  0  0  0  0
 44 45  1  0  0  0  0
 45 55  1  0  0  0  0
M  END
$$$$
