
 OpenBabel04232216533D

207206  0  0  0  0  0  0  0  0999 V2000
    1.0350    0.0448   -0.0425 C   0  0  0  0  0  0  0  0  0  0  0  0
    2.5510    0.0429   -0.0498 C   0  0  0  0  0  0  0  0  0  0  0  0
    3.0758    0.9872   -1.1205 C   0  0  0  0  0  0  0  0  0  0  0  0
    4.5951    0.9923   -1.1277 C   0  0  0  0  0  0  0  0  0  0  0  0
    5.1046    1.9393   -2.1960 C   0  0  0  0  0  0  0  0  0  0  0  0
    6.6301    1.9478   -2.1909 C   0  0  0  0  0  0  0  0  0  0  0  0
    7.1394    2.8908   -3.2713 C   0  0  0  0  0  0  0  0  0  0  0  0
    8.6786    2.9098   -3.2896 C   0  0  0  0  0  0  0  0  0  0  0  0
    9.1744    3.8454   -4.3646 C   0  0  0  0  0  0  0  0  0  0  0  0
   10.6894    3.8415   -4.3650 C   0  0  0  0  0  0  0  0  0  0  0  0
   11.2061    4.7840   -5.4326 C   0  0  0  0  0  0  0  0  0  0  0  0
   12.7161    4.8008   -5.4427 C   0  0  0  0  0  0  0  0  0  0  0  0
   13.2246    5.7325   -6.5081 C   0  0  0  0  0  0  0  0  0  0  0  0
   14.7411    5.7358   -6.5117 C   0  0  0  0  0  0  0  0  0  0  0  0
   15.2510    6.6810   -7.5824 C   0  0  0  0  0  0  0  0  0  0  0  0
   16.7671    6.6854   -7.5849 C   0  0  0  0  0  0  0  0  0  0  0  0
   17.2773    7.6289   -8.6570 C   0  0  0  0  0  0  0  0  0  0  0  0
   18.7935    7.6319   -8.6610 C   0  0  0  0  0  0  0  0  0  0  0  0
   19.3052    8.5761   -9.7318 C   0  0  0  0  0  0  0  0  0  0  0  0
   20.8219    8.5794   -9.7360 C   0  0  0  0  0  0  0  0  0  0  0  0
   21.3315    9.5237  -10.8081 C   0  0  0  0  0  0  0  0  0  0  0  0
   22.8479    9.5266  -10.8118 C   0  0  0  0  0  0  0  0  0  0  0  0
   23.3584   10.4719  -11.8828 C   0  0  0  0  0  0  0  0  0  0  0  0
   24.8751   10.4763  -11.8853 C   0  0  0  0  0  0  0  0  0  0  0  0
   25.3849   11.4219  -12.9556 C   0  0  0  0  0  0  0  0  0  0  0  0
   26.9015   11.4251  -12.9591 C   0  0  0  0  0  0  0  0  0  0  0  0
   27.4115   12.3705  -14.0298 C   0  0  0  0  0  0  0  0  0  0  0  0
   28.9281   12.3736  -14.0332 C   0  0  0  0  0  0  0  0  0  0  0  0
   29.4382   13.3191  -15.1037 C   0  0  0  0  0  0  0  0  0  0  0  0
   30.9549   13.3223  -15.1073 C   0  0  0  0  0  0  0  0  0  0  0  0
   31.4649   14.2676  -16.1780 C   0  0  0  0  0  0  0  0  0  0  0  0
   32.9816   14.2706  -16.1813 C   0  0  0  0  0  0  0  0  0  0  0  0
   33.4920   15.2157  -17.2526 C   0  0  0  0  0  0  0  0  0  0  0  0
   35.0065   15.2201  -17.2538 C   0  0  0  0  0  0  0  0  0  0  0  0
   35.5201   16.1681  -18.3275 C   0  0  0  0  0  0  0  0  0  0  0  0
   37.0389   16.1755  -18.3356 C   0  0  0  0  0  0  0  0  0  0  0  0
   37.5503   17.1252  -19.4053 C   0  0  0  0  0  0  0  0  0  0  0  0
   39.0704   17.1290  -19.4110 C   0  0  0  0  0  0  0  0  0  0  0  0
   39.5895   18.0760  -20.4813 C   0  0  0  0  0  0  0  0  0  0  0  0
   41.1101   18.0823  -20.4942 C   0  0  0  0  0  0  0  0  0  0  0  0
   41.6284   19.0368  -21.5662 C   0  0  0  0  0  0  0  0  0  0  0  0
   43.1532   19.0485  -21.5869 C   0  0  0  0  0  0  0  0  0  0  0  0
   43.7028   20.0015  -22.6582 C   0  0  0  0  0  0  0  0  0  0  0  0
   45.5234   19.9121  -22.5758 S   0  0  0  0  0  0  0  0  0  0  0  0
   46.0512   21.0855  -23.8878 C   0  0  0  0  0  0  0  0  0  0  0  0
   47.9004   21.0722  -23.8747 S   0  0  0  0  0  0  0  0  0  0  0  0
   48.3385   22.3116  -25.1448 C   0  0  0  0  0  0  0  0  0  0  0  0
   47.7255   23.9669  -24.6898 S   0  0  0  0  0  0  0  0  0  0  0  0
   48.2734   24.9827  -26.1083 C   0  0  0  0  0  0  0  0  0  0  0  0
   47.5318   24.4208  -27.6787 S   0  0  0  0  0  0  0  0  0  0  0  0
   48.2525   25.5923  -28.8759 C   0  0  0  0  0  0  0  0  0  0  0  0
   50.0744   25.5352  -28.8761 S   0  0  0  0  0  0  0  0  0  0  0  0
   50.5003   26.7867  -30.1531 C   0  0  0  0  0  0  0  0  0  0  0  0
   49.8824   28.4399  -29.6871 S   0  0  0  0  0  0  0  0  0  0  0  0
   50.4303   29.4654  -31.1023 C   0  0  0  0  0  0  0  0  0  0  0  0
   49.7032   28.9040  -32.6810 S   0  0  0  0  0  0  0  0  0  0  0  0
   50.4334   30.0750  -33.8833 C   0  0  0  0  0  0  0  0  0  0  0  0
   52.2571   30.0031  -33.9030 S   0  0  0  0  0  0  0  0  0  0  0  0
   52.6820   31.2664  -35.1576 C   0  0  0  0  0  0  0  0  0  0  0  0
   52.0715   32.9255  -34.6974 S   0  0  0  0  0  0  0  0  0  0  0  0
   52.6291   33.9498  -36.1102 C   0  0  0  0  0  0  0  0  0  0  0  0
   51.9038   33.3809  -37.6821 S   0  0  0  0  0  0  0  0  0  0  0  0
   52.6273   34.5585  -38.8717 C   0  0  0  0  0  0  0  0  0  0  0  0
   54.4513   34.4904  -38.8840 S   0  0  0  0  0  0  0  0  0  0  0  0
   54.8812   35.7510  -40.1385 C   0  0  0  0  0  0  0  0  0  0  0  0
   54.2731   37.4075  -39.6711 S   0  0  0  0  0  0  0  0  0  0  0  0
   54.8284   38.4328  -41.0796 C   0  0  0  0  0  0  0  0  0  0  0  0
   54.1191   37.8679  -42.6647 S   0  0  0  0  0  0  0  0  0  0  0  0
   54.8422   39.0500  -43.8561 C   0  0  0  0  0  0  0  0  0  0  0  0
   56.6645   38.9770  -43.8669 S   0  0  0  0  0  0  0  0  0  0  0  0
   57.0897   40.2415  -45.1140 C   0  0  0  0  0  0  0  0  0  0  0  0
   56.4945   41.9060  -44.6504 S   0  0  0  0  0  0  0  0  0  0  0  0
   57.0389   42.9278  -46.0636 C   0  0  0  0  0  0  0  0  0  0  0  0
   56.3023   42.3866  -47.6447 S   0  0  0  0  0  0  0  0  0  0  0  0
   57.0517   43.5574  -48.8496 C   0  0  0  0  0  0  0  0  0  0  0  0
   58.8648   43.4231  -48.8313 S   0  0  0  0  0  0  0  0  0  0  0  0
   59.4098   44.6112  -50.1274 C   0  0  0  0  0  0  0  0  0  0  0  0
   61.2585   44.5225  -50.1049 S   0  0  0  0  0  0  0  0  0  0  0  0
   61.7598   45.8008  -51.2921 C   0  0  0  0  0  0  0  0  0  0  0  0
   61.1494   47.4721  -50.9424 S   0  0  0  0  0  0  0  0  0  0  0  0
   61.8486   47.7623  -49.2958 C   0  0  0  0  0  0  0  0  0  0  0  0
    0.6568   -0.6350    0.7254 H   0  0  0  0  0  0  0  0  0  0  0  0
    0.6438   -0.2780   -1.0126 H   0  0  0  0  0  0  0  0  0  0  0  0
    0.6509    1.0486    0.1655 H   0  0  0  0  0  0  0  0  0  0  0  0
    2.9183   -0.9728   -0.2372 H   0  0  0  0  0  0  0  0  0  0  0  0
    2.9254    0.3475    0.9346 H   0  0  0  0  0  0  0  0  0  0  0  0
    2.7078    2.0055   -0.9340 H   0  0  0  0  0  0  0  0  0  0  0  0
    2.7025    0.6855   -2.1053 H   0  0  0  0  0  0  0  0  0  0  0  0
    4.9738   -0.0193   -1.3198 H   0  0  0  0  0  0  0  0  0  0  0  0
    4.9779    1.3021   -0.1471 H   0  0  0  0  0  0  0  0  0  0  0  0
    4.7358    2.9544   -2.0150 H   0  0  0  0  0  0  0  0  0  0  0  0
    4.7353    1.6274   -3.1832 H   0  0  0  0  0  0  0  0  0  0  0  0
    6.9994    0.9368   -2.3901 H   0  0  0  0  0  0  0  0  0  0  0  0
    7.0011    2.2536   -1.2201 H   0  0  0  0  0  0  0  0  0  0  0  0
    6.7677    3.9057   -3.0914 H   0  0  0  0  0  0  0  0  0  0  0  0
    6.7660    2.5797   -4.2595 H   0  0  0  0  0  0  0  0  0  0  0  0
    9.0334    1.8898   -3.4752 H   0  0  0  0  0  0  0  0  0  0  0  0
    9.0401    3.2082   -2.3093 H   0  0  0  0  0  0  0  0  0  0  0  0
    8.7991    4.8566   -4.1729 H   0  0  0  0  0  0  0  0  0  0  0  0
    8.7934    3.5311   -5.3430 H   0  0  0  0  0  0  0  0  0  0  0  0
   11.0600    2.8248   -4.5539 H   0  0  0  0  0  0  0  0  0  0  0  0
   11.0531    4.1690   -3.3815 H   0  0  0  0  0  0  0  0  0  0  0  0
   10.8269    5.7973   -5.2430 H   0  0  0  0  0  0  0  0  0  0  0  0
   10.8224    4.4775   -6.4149 H   0  0  0  0  0  0  0  0  0  0  0  0
   13.0897    3.7731   -5.6242 H   0  0  0  0  0  0  0  0  0  0  0  0
   13.0918    5.0965   -4.4543 H   0  0  0  0  0  0  0  0  0  0  0  0
   12.8488    6.7463   -6.3221 H   0  0  0  0  0  0  0  0  0  0  0  0
   12.8487    5.4223   -7.4910 H   0  0  0  0  0  0  0  0  0  0  0  0
   15.1172    4.7222   -6.6979 H   0  0  0  0  0  0  0  0  0  0  0  0
   15.1170    6.0459   -5.5288 H   0  0  0  0  0  0  0  0  0  0  0  0
   14.8745    7.6945   -7.3967 H   0  0  0  0  0  0  0  0  0  0  0  0
   14.8763    6.3699   -8.5654 H   0  0  0  0  0  0  0  0  0  0  0  0
   17.1444    5.6721   -7.7690 H   0  0  0  0  0  0  0  0  0  0  0  0
   17.1423    6.9977   -6.6026 H   0  0  0  0  0  0  0  0  0  0  0  0
   16.9017    8.6435   -8.4721 H   0  0  0  0  0  0  0  0  0  0  0  0
   16.9007    7.3181   -9.6392 H   0  0  0  0  0  0  0  0  0  0  0  0
   19.1698    6.6180   -8.8473 H   0  0  0  0  0  0  0  0  0  0  0  0
   19.1674    7.9450   -7.6777 H   0  0  0  0  0  0  0  0  0  0  0  0
   18.9308    9.5892   -9.5446 H   0  0  0  0  0  0  0  0  0  0  0  0
   18.9325    8.2654  -10.7156 H   0  0  0  0  0  0  0  0  0  0  0  0
   21.1967    7.5654   -9.9215 H   0  0  0  0  0  0  0  0  0  0  0  0
   21.1983    8.8905   -8.7538 H   0  0  0  0  0  0  0  0  0  0  0  0
   20.9557   10.5377  -10.6237 H   0  0  0  0  0  0  0  0  0  0  0  0
   20.9557    9.2118  -11.7907 H   0  0  0  0  0  0  0  0  0  0  0  0
   23.2240    8.5130  -10.9976 H   0  0  0  0  0  0  0  0  0  0  0  0
   23.2237    9.8370   -9.8290 H   0  0  0  0  0  0  0  0  0  0  0  0
   22.9811   11.4854  -11.6975 H   0  0  0  0  0  0  0  0  0  0  0  0
   22.9841   10.1602  -12.8658 H   0  0  0  0  0  0  0  0  0  0  0  0
   25.2519    9.4624  -12.0702 H   0  0  0  0  0  0  0  0  0  0  0  0
   25.2493   10.7873  -10.9021 H   0  0  0  0  0  0  0  0  0  0  0  0
   25.0090   12.4357  -12.7693 H   0  0  0  0  0  0  0  0  0  0  0  0
   25.0090   11.1113  -13.9382 H   0  0  0  0  0  0  0  0  0  0  0  0
   27.2772   10.4113  -13.1451 H   0  0  0  0  0  0  0  0  0  0  0  0
   27.2772   11.7355  -11.9763 H   0  0  0  0  0  0  0  0  0  0  0  0
   27.0357   13.3841  -13.8436 H   0  0  0  0  0  0  0  0  0  0  0  0
   27.0356   12.0604  -15.0126 H   0  0  0  0  0  0  0  0  0  0  0  0
   29.3040   11.3600  -14.2192 H   0  0  0  0  0  0  0  0  0  0  0  0
   29.3038   12.6838  -13.0503 H   0  0  0  0  0  0  0  0  0  0  0  0
   29.0623   14.3328  -14.9177 H   0  0  0  0  0  0  0  0  0  0  0  0
   29.0624   13.0090  -16.0866 H   0  0  0  0  0  0  0  0  0  0  0  0
   31.3306   12.3085  -15.2934 H   0  0  0  0  0  0  0  0  0  0  0  0
   31.3308   13.6323  -14.1243 H   0  0  0  0  0  0  0  0  0  0  0  0
   31.0891   15.2813  -15.9920 H   0  0  0  0  0  0  0  0  0  0  0  0
   31.0891   13.9575  -17.1608 H   0  0  0  0  0  0  0  0  0  0  0  0
   33.3573   13.2570  -16.3676 H   0  0  0  0  0  0  0  0  0  0  0  0
   33.3573   14.5811  -15.1986 H   0  0  0  0  0  0  0  0  0  0  0  0
   33.1153   16.2288  -17.0671 H   0  0  0  0  0  0  0  0  0  0  0  0
   33.1172   14.9047  -18.2350 H   0  0  0  0  0  0  0  0  0  0  0  0
   35.3861   14.2074  -17.4403 H   0  0  0  0  0  0  0  0  0  0  0  0
   35.3838   15.5321  -16.2718 H   0  0  0  0  0  0  0  0  0  0  0  0
   35.1413   17.1801  -18.1386 H   0  0  0  0  0  0  0  0  0  0  0  0
   35.1419   15.8554  -19.3084 H   0  0  0  0  0  0  0  0  0  0  0  0
   37.4148   15.1612  -18.5217 H   0  0  0  0  0  0  0  0  0  0  0  0
   37.4142   16.4817  -17.3509 H   0  0  0  0  0  0  0  0  0  0  0  0
   37.1754   18.1388  -19.2157 H   0  0  0  0  0  0  0  0  0  0  0  0
   37.1735   16.8137  -20.3872 H   0  0  0  0  0  0  0  0  0  0  0  0
   39.4335   16.1105  -19.5974 H   0  0  0  0  0  0  0  0  0  0  0  0
   39.4395   17.4324  -18.4216 H   0  0  0  0  0  0  0  0  0  0  0  0
   39.2182   19.0917  -20.2938 H   0  0  0  0  0  0  0  0  0  0  0  0
   39.2123   17.7711  -21.4664 H   0  0  0  0  0  0  0  0  0  0  0  0
   41.4786   17.0657  -20.6843 H   0  0  0  0  0  0  0  0  0  0  0  0
   41.4836   18.3835  -19.5085 H   0  0  0  0  0  0  0  0  0  0  0  0
   41.2516   20.0471  -21.3698 H   0  0  0  0  0  0  0  0  0  0  0  0
   41.2480   18.7296  -22.5466 H   0  0  0  0  0  0  0  0  0  0  0  0
   43.5084   18.0259  -21.7690 H   0  0  0  0  0  0  0  0  0  0  0  0
   43.5169   19.3479  -20.5987 H   0  0  0  0  0  0  0  0  0  0  0  0
   43.3578   21.0218  -22.4591 H   0  0  0  0  0  0  0  0  0  0  0  0
   43.3502   19.6916  -23.6466 H   0  0  0  0  0  0  0  0  0  0  0  0
   45.6722   22.0832  -23.6525 H   0  0  0  0  0  0  0  0  0  0  0  0
   45.6821   20.7549  -24.8626 H   0  0  0  0  0  0  0  0  0  0  0  0
   47.9651   21.9686  -26.1128 H   0  0  0  0  0  0  0  0  0  0  0  0
   49.4341   22.3365  -25.1968 H   0  0  0  0  0  0  0  0  0  0  0  0
   49.3663   24.9985  -26.1268 H   0  0  0  0  0  0  0  0  0  0  0  0
   47.9255   26.0015  -25.9033 H   0  0  0  0  0  0  0  0  0  0  0  0
   47.8669   26.5910  -28.6557 H   0  0  0  0  0  0  0  0  0  0  0  0
   47.8829   25.2968  -29.8641 H   0  0  0  0  0  0  0  0  0  0  0  0
   50.1168   26.4489  -31.1196 H   0  0  0  0  0  0  0  0  0  0  0  0
   51.5939   26.8162  -30.2109 H   0  0  0  0  0  0  0  0  0  0  0  0
   51.5232   29.4792  -31.1207 H   0  0  0  0  0  0  0  0  0  0  0  0
   50.0837   30.4850  -30.8994 H   0  0  0  0  0  0  0  0  0  0  0  0
   50.0559   31.0767  -33.6622 H   0  0  0  0  0  0  0  0  0  0  0  0
   50.0576   29.7823  -34.8700 H   0  0  0  0  0  0  0  0  0  0  0  0
   52.3030   30.9332  -36.1273 H   0  0  0  0  0  0  0  0  0  0  0  0
   53.7760   31.2937  -35.2130 H   0  0  0  0  0  0  0  0  0  0  0  0
   53.7218   33.9613  -36.1206 H   0  0  0  0  0  0  0  0  0  0  0  0
   52.2804   34.9684  -35.9061 H   0  0  0  0  0  0  0  0  0  0  0  0
   52.2470   35.5587  -38.6480 H   0  0  0  0  0  0  0  0  0  0  0  0
   52.2555   34.2704  -39.8614 H   0  0  0  0  0  0  0  0  0  0  0  0
   54.5030   35.4209  -41.1095 H   0  0  0  0  0  0  0  0  0  0  0  0
   55.9753   35.7767  -40.1919 H   0  0  0  0  0  0  0  0  0  0  0  0
   55.9214   38.4456  -41.0899 H   0  0  0  0  0  0  0  0  0  0  0  0
   54.4808   39.4524  -40.8786 H   0  0  0  0  0  0  0  0  0  0  0  0
   54.4631   40.0501  -43.6301 H   0  0  0  0  0  0  0  0  0  0  0  0
   54.4692   38.7623  -44.8454 H   0  0  0  0  0  0  0  0  0  0  0  0
   56.7120   39.9149  -46.0865 H   0  0  0  0  0  0  0  0  0  0  0  0
   58.1840   40.2639  -45.1690 H   0  0  0  0  0  0  0  0  0  0  0  0
   58.1319   42.9344  -46.0792 H   0  0  0  0  0  0  0  0  0  0  0  0
   56.6976   43.9473  -45.8549 H   0  0  0  0  0  0  0  0  0  0  0  0
   56.6957   44.5697  -48.6376 H   0  0  0  0  0  0  0  0  0  0  0  0
   56.6780   43.2575  -49.8344 H   0  0  0  0  0  0  0  0  0  0  0  0
   59.0609   45.6176  -49.8795 H   0  0  0  0  0  0  0  0  0  0  0  0
   59.0368   44.3058  -51.1089 H   0  0  0  0  0  0  0  0  0  0  0  0
   61.4248   45.5031  -52.2887 H   0  0  0  0  0  0  0  0  0  0  0  0
   62.8577   45.8264  -51.3297 H   0  0  0  0  0  0  0  0  0  0  0  0
   61.4908   48.7331  -48.9411 H   0  0  0  0  0  0  0  0  0  0  0  0
   62.9406   47.7898  -49.3326 H   0  0  0  0  0  0  0  0  0  0  0  0
   61.5202   47.0098  -48.5743 H   0  0  0  0  0  0  0  0  0  0  0  0
  1  2  1  0  0  0  0
  1 82  1  0  0  0  0
  1 83  1  0  0  0  0
  1 84  1  0  0  0  0
  2  3  1  0  0  0  0
  2 85  1  0  0  0  0
  2 86  1  0  0  0  0
  3  4  1  0  0  0  0
  3 87  1  0  0  0  0
  3 88  1  0  0  0  0
  4  5  1  0  0  0  0
  4 89  1  0  0  0  0
  4 90  1  0  0  0  0
  5  6  1  0  0  0  0
  5 91  1  0  0  0  0
  5 92  1  0  0  0  0
  6  7  1  0  0  0  0
  6 93  1  0  0  0  0
  6 94  1  0  0  0  0
  7  8  1  0  0  0  0
  7 95  1  0  0  0  0
  7 96  1  0  0  0  0
  8  9  1  0  0  0  0
  8 97  1  0  0  0  0
  8 98  1  0  0  0  0
  9 10  1  0  0  0  0
  9 99  1  0  0  0  0
  9100  1  0  0  0  0
 10 11  1  0  0  0  0
 10101  1  0  0  0  0
 10102  1  0  0  0  0
 11 12  1  0  0  0  0
 11103  1  0  0  0  0
 11104  1  0  0  0  0
 12 13  1  0  0  0  0
 12105  1  0  0  0  0
 12106  1  0  0  0  0
 13 14  1  0  0  0  0
 13107  1  0  0  0  0
 13108  1  0  0  0  0
 14 15  1  0  0  0  0
 14109  1  0  0  0  0
 14110  1  0  0  0  0
 15 16  1  0  0  0  0
 15111  1  0  0  0  0
 15112  1  0  0  0  0
 16 17  1  0  0  0  0
 16113  1  0  0  0  0
 16114  1  0  0  0  0
 17 18  1  0  0  0  0
 17115  1  0  0  0  0
 17116  1  0  0  0  0
 18 19  1  0  0  0  0
 18117  1  0  0  0  0
 18118  1  0  0  0  0
 19 20  1  0  0  0  0
 19119  1  0  0  0  0
 19120  1  0  0  0  0
 20 21  1  0  0  0  0
 20121  1  0  0  0  0
 20122  1  0  0  0  0
 21 22  1  0  0  0  0
 21123  1  0  0  0  0
 21124  1  0  0  0  0
 22 23  1  0  0  0  0
 22125  1  0  0  0  0
 22126  1  0  0  0  0
 23 24  1  0  0  0  0
 23127  1  0  0  0  0
 23128  1  0  0  0  0
 24 25  1  0  0  0  0
 24129  1  0  0  0  0
 24130  1  0  0  0  0
 25 26  1  0  0  0  0
 25131  1  0  0  0  0
 25132  1  0  0  0  0
 26 27  1  0  0  0  0
 26133  1  0  0  0  0
 26134  1  0  0  0  0
 27 28  1  0  0  0  0
 27135  1  0  0  0  0
 27136  1  0  0  0  0
 28 29  1  0  0  0  0
 28137  1  0  0  0  0
 28138  1  0  0  0  0
 29 30  1  0  0  0  0
 29139  1  0  0  0  0
 29140  1  0  0  0  0
 30 31  1  0  0  0  0
 30141  1  0  0  0  0
 30142  1  0  0  0  0
 31 32  1  0  0  0  0
 31143  1  0  0  0  0
 31144  1  0  0  0  0
 32 33  1  0  0  0  0
 32145  1  0  0  0  0
 32146  1  0  0  0  0
 33 34  1  0  0  0  0
 33147  1  0  0  0  0
 33148  1  0  0  0  0
 34 35  1  0  0  0  0
 34149  1  0  0  0  0
 34150  1  0  0  0  0
 35 36  1  0  0  0  0
 35151  1  0  0  0  0
 35152  1  0  0  0  0
 36 37  1  0  0  0  0
 36153  1  0  0  0  0
 36154  1  0  0  0  0
 37 38  1  0  0  0  0
 37155  1  0  0  0  0
 37156  1  0  0  0  0
 38 39  1  0  0  0  0
 38157  1  0  0  0  0
 38158  1  0  0  0  0
 39 40  1  0  0  0  0
 39159  1  0  0  0  0
 39160  1  0  0  0  0
 40 41  1  0  0  0  0
 40161  1  0  0  0  0
 40162  1  0  0  0  0
 41 42  1  0  0  0  0
 41163  1  0  0  0  0
 41164  1  0  0  0  0
 42 43  1  0  0  0  0
 42165  1  0  0  0  0
 42166  1  0  0  0  0
 43 44  1  0  0  0  0
 43167  1  0  0  0  0
 43168  1  0  0  0  0
 44 45  1  0  0  0  0
 45 46  1  0  0  0  0
 45169  1  0  0  0  0
 45170  1  0  0  0  0
 46 47  1  0  0  0  0
 47 48  1  0  0  0  0
 47171  1  0  0  0  0
 47172  1  0  0  0  0
 48 49  1  0  0  0  0
 49 50  1  0  0  0  0
 49173  1  0  0  0  0
 49174  1  0  0  0  0
 50 51  1  0  0  0  0
 51 52  1  0  0  0  0
 51175  1  0  0  0  0
 51176  1  0  0  0  0
 52 53  1  0  0  0  0
 53 54  1  0  0  0  0
 53177  1  0  0  0  0
 53178  1  0  0  0  0
 54 55  1  0  0  0  0
 55 56  1  0  0  0  0
 55179  1  0  0  0  0
 55180  1  0  0  0  0
 56 57  1  0  0  0  0
 57 58  1  0  0  0  0
 57181  1  0  0  0  0
 57182  1  0  0  0  0
 58 59  1  0  0  0  0
 59 60  1  0  0  0  0
 59183  1  0  0  0  0
 59184  1  0  0  0  0
 60 61  1  0  0  0  0
 61 62  1  0  0  0  0
 61185  1  0  0  0  0
 61186  1  0  0  0  0
 62 63  1  0  0  0  0
 63 64  1  0  0  0  0
 63187  1  0  0  0  0
 63188  1  0  0  0  0
 64 65  1  0  0  0  0
 65 66  1  0  0  0  0
 65189  1  0  0  0  0
 65190  1  0  0  0  0
 66 67  1  0  0  0  0
 67 68  1  0  0  0  0
 67191  1  0  0  0  0
 67192  1  0  0  0  0
 68 69  1  0  0  0  0
 69 70  1  0  0  0  0
 69193  1  0  0  0  0
 69194  1  0  0  0  0
 70 71  1  0  0  0  0
 71 72  1  0  0  0  0
 71195  1  0  0  0  0
 71196  1  0  0  0  0
 72 73  1  0  0  0  0
 73 74  1  0  0  0  0
 73197  1  0  0  0  0
 73198  1  0  0  0  0
 74 75  1  0  0  0  0
 75 76  1  0  0  0  0
 75199  1  0  0  0  0
 75200  1  0  0  0  0
 76 77  1  0  0  0  0
 77 78  1  0  0  0  0
 77201  1  0  0  0  0
 77202  1  0  0  0  0
 78 79  1  0  0  0  0
 79 80  1  0  0  0  0
 79203  1  0  0  0  0
 79204  1  0  0  0  0
 80 81  1  0  0  0  0
 81205  1  0  0  0  0
 81206  1  0  0  0  0
 81207  1  0  0  0  0
M  END
$$$$
