
 OpenBabel04232216453D

 64 65  0  0  0  0  0  0  0  0999 V2000
    6.8261   -2.5359   -0.3596 C   0  0  0  0  0  0  0  0  0  0  0  0
    7.7022   -1.8181   -1.4306 C   0  0  0  0  0  0  0  0  0  0  0  0
    6.5825   -1.0102   -2.0223 C   0  0  0  0  0  0  0  0  0  0  0  0
    5.9227    0.1407   -1.6902 C   0  0  0  0  0  0  0  0  0  0  0  0
    6.0475    0.9624   -0.4371 C   0  0  0  0  0  0  0  0  0  0  0  0
    5.3136    0.8919   -2.9071 C   0  0  0  0  0  0  0  0  0  0  0  0
    6.5868    1.2424   -3.7020 C   0  0  0  0  0  0  0  0  0  0  0  0
    6.8466    0.9196   -5.1834 C   0  0  0  0  0  0  0  0  0  0  0  0
    8.2971    0.3728   -5.2280 C   0  0  0  0  0  0  0  0  0  0  0  0
    9.4610    1.1038   -5.9785 C   0  0  0  0  0  0  0  0  0  0  0  0
   10.4417    1.4884   -4.8475 C   0  0  0  0  0  0  0  0  0  0  0  0
   11.9480    1.4544   -4.4591 C   0  0  0  0  0  0  0  0  0  0  0  0
   12.8446    1.9718   -5.0661 O   0  0  0  0  0  0  0  0  0  0  0  0
   12.1717    0.6412   -3.1674 C   0  0  0  0  0  0  0  0  0  0  0  0
   11.6617   -0.5725   -3.3578 C   0  0  0  0  0  0  0  0  0  0  0  0
   11.8252   -1.7739   -2.5676 C   0  0  0  0  0  0  0  0  0  0  0  0
   13.4398   -2.1770   -3.2355 C   0  0  0  0  0  0  0  0  0  0  0  0
   14.9329   -1.2459   -3.7294 C   0  0  0  0  0  0  0  0  0  0  0  0
   16.3181   -0.6241   -2.9694 C   0  0  0  0  0  0  0  0  0  0  0  0
   16.0539    0.3990   -1.9047 C   0  0  0  0  0  0  0  0  0  0  0  0
   16.0688    0.4804   -0.3673 C   0  0  0  0  0  0  0  0  0  0  0  0
   14.5854    0.6917    0.1501 C   0  0  0  0  0  0  0  0  0  0  0  0
   13.4215    0.0995   -0.7560 C   0  0  0  0  0  0  0  0  0  0  0  0
   13.1678    0.9819   -2.0858 C   0  0  0  0  0  0  0  0  0  0  0  0
   10.5546   -2.2821   -2.1012 C   0  0  0  0  0  0  0  0  0  0  0  0
    9.0790   -1.5480   -1.6855 C   0  0  0  0  0  0  0  0  0  0  0  0
    5.8992   -2.9635   -0.8151 H   0  0  0  0  0  0  0  0  0  0  0  0
    6.3907   -1.7635    0.3250 H   0  0  0  0  0  0  0  0  0  0  0  0
    7.2682   -3.2904    0.2645 H   0  0  0  0  0  0  0  0  0  0  0  0
    6.2582   -1.4761   -2.9756 H   0  0  0  0  0  0  0  0  0  0  0  0
    5.0676    1.1395    0.0012 H   0  0  0  0  0  0  0  0  0  0  0  0
    6.4948    1.9388   -0.6646 H   0  0  0  0  0  0  0  0  0  0  0  0
    6.6726    0.4753    0.3228 H   0  0  0  0  0  0  0  0  0  0  0  0
    4.8177    1.8154   -2.6178 H   0  0  0  0  0  0  0  0  0  0  0  0
    4.5940    0.2761   -3.4559 H   0  0  0  0  0  0  0  0  0  0  0  0
    7.3016    0.5862   -3.2205 H   0  0  0  0  0  0  0  0  0  0  0  0
    6.9916    2.1964   -3.4140 H   0  0  0  0  0  0  0  0  0  0  0  0
    6.7415    1.8298   -5.7702 H   0  0  0  0  0  0  0  0  0  0  0  0
    6.1604    0.1583   -5.5631 H   0  0  0  0  0  0  0  0  0  0  0  0
    8.3325   -0.7260   -5.3341 H   0  0  0  0  0  0  0  0  0  0  0  0
    8.6169    0.4356   -4.1842 H   0  0  0  0  0  0  0  0  0  0  0  0
    9.0970    1.9978   -6.4880 H   0  0  0  0  0  0  0  0  0  0  0  0
    9.8660    0.4081   -6.7118 H   0  0  0  0  0  0  0  0  0  0  0  0
   10.2682    0.5372   -4.3730 H   0  0  0  0  0  0  0  0  0  0  0  0
    9.9950    2.2159   -4.1907 H   0  0  0  0  0  0  0  0  0  0  0  0
   11.3641   -0.8859   -4.3556 H   0  0  0  0  0  0  0  0  0  0  0  0
   13.1461   -2.3871   -4.2914 H   0  0  0  0  0  0  0  0  0  0  0  0
   13.7684   -3.1482   -2.8615 H   0  0  0  0  0  0  0  0  0  0  0  0
   15.4278   -1.9367   -4.4358 H   0  0  0  0  0  0  0  0  0  0  0  0
   14.5876   -0.4303   -4.3862 H   0  0  0  0  0  0  0  0  0  0  0  0
   16.8585   -0.0328   -3.7487 H   0  0  0  0  0  0  0  0  0  0  0  0
   17.0248   -1.3651   -2.6369 H   0  0  0  0  0  0  0  0  0  0  0  0
   15.1379   -0.1109   -1.8344 H   0  0  0  0  0  0  0  0  0  0  0  0
   15.8936    1.4004   -2.2777 H   0  0  0  0  0  0  0  0  0  0  0  0
   16.6806    1.3398   -0.0219 H   0  0  0  0  0  0  0  0  0  0  0  0
   16.5204   -0.4098    0.0541 H   0  0  0  0  0  0  0  0  0  0  0  0
   14.5313    0.2583    1.1556 H   0  0  0  0  0  0  0  0  0  0  0  0
   14.3872    1.7647    0.2613 H   0  0  0  0  0  0  0  0  0  0  0  0
   12.5092   -0.0002   -0.1687 H   0  0  0  0  0  0  0  0  0  0  0  0
   13.7076   -0.9467   -0.9748 H   0  0  0  0  0  0  0  0  0  0  0  0
   14.0312    0.9162   -2.7340 H   0  0  0  0  0  0  0  0  0  0  0  0
   13.1422    2.0289   -1.8229 H   0  0  0  0  0  0  0  0  0  0  0  0
   10.4016   -3.3670   -2.1484 H   0  0  0  0  0  0  0  0  0  0  0  0
    9.2629   -0.4554   -1.7793 H   0  0  0  0  0  0  0  0  0  0  0  0
  1  2  1  0  0  0  0
  1 27  1  0  0  0  0
  1 28  1  0  0  0  0
  1 29  1  0  0  0  0
  2  3  1  0  0  0  0
  2 26  2  3  0  0  0
  3  4  2  3  0  0  0
  3 30  1  0  0  0  0
  4  5  1  0  0  0  0
  4  6  1  0  0  0  0
  5 31  1  0  0  0  0
  5 32  1  0  0  0  0
  5 33  1  0  0  0  0
  6  7  1  0  0  0  0
  6 34  1  0  0  0  0
  6 35  1  0  0  0  0
  7  8  1  0  0  0  0
  7 36  1  0  0  0  0
  7 37  1  0  0  0  0
  8  9  1  0  0  0  0
  8 38  1  0  0  0  0
  8 39  1  0  0  0  0
  9 10  1  0  0  0  0
  9 40  1  0  0  0  0
  9 41  1  0  0  0  0
 10 11  1  0  0  0  0
 10 42  1  0  0  0  0
 10 43  1  0  0  0  0
 11 12  1  0  0  0  0
 11 44  1  0  0  0  0
 11 45  1  0  0  0  0
 12 13  2  0  0  0  0
 12 14  1  0  0  0  0
 14 15  2  3  0  0  0
 14 24  1  0  0  0  0
 15 16  1  0  0  0  0
 15 46  1  0  0  0  0
 16 17  1  0  0  0  0
 16 25  2  3  0  0  0
 17 18  1  0  0  0  0
 17 47  1  0  0  0  0
 17 48  1  0  0  0  0
 18 19  1  0  0  0  0
 18 49  1  0  0  0  0
 18 50  1  0  0  0  0
 19 20  1  0  0  0  0
 19 51  1  0  0  0  0
 19 52  1  0  0  0  0
 20 21  1  0  0  0  0
 20 53  1  0  0  0  0
 20 54  1  0  0  0  0
 21 22  1  0  0  0  0
 21 55  1  0  0  0  0
 21 56  1  0  0  0  0
 22 23  1  0  0  0  0
 22 57  1  0  0  0  0
 22 58  1  0  0  0  0
 23 24  1  0  0  0  0
 23 59  1  0  0  0  0
 23 60  1  0  0  0  0
 24 61  1  0  0  0  0
 24 62  1  0  0  0  0
 25 26  1  0  0  0  0
 25 63  1  0  0  0  0
 26 64  1  0  0  0  0
M  END
$$$$
