
 OpenBabel04232216493D

 70 71  0  0  1  0  0  0  0  0999 V2000
    0.6483   -0.6140    0.0369 C   0  0  0  0  0  0  0  0  0  0  0  0
    2.0428   -0.2642    0.6005 C   0  0  3  0  0  0  0  0  0  0  0  0
    3.0960   -0.9996   -0.2273 C   0  0  0  0  0  3  0  0  0  0  0  0
    3.7023   -2.2844    0.2671 C   0  0  0  0  0  0  0  0  0  0  0  0
    5.1220   -2.5464   -0.2779 C   0  0  0  0  0  0  0  0  0  0  0  0
    6.2219   -2.2154    0.7446 C   0  0  0  0  0  0  0  0  0  0  0  0
    7.2673   -1.1937    0.2757 C   0  0  0  0  0  0  0  0  0  0  0  0
    7.3660    0.0173    1.2219 C   0  0  0  0  0  0  0  0  0  0  0  0
    6.6890    1.2814    0.6620 C   0  0  0  0  0  0  0  0  0  0  0  0
    5.7439    1.9632    1.6770 C   0  0  0  0  0  0  0  0  0  0  0  0
    4.3748    2.4461    1.1167 C   0  0  0  0  0  0  0  0  0  0  0  0
    2.9093    2.0771    1.6971 C   0  0  3  0  0  0  0  0  0  0  0  0
    2.2457    1.9183    3.3435 C   0  0  0  0  0  0  0  0  0  0  0  0
    1.2425    1.2230    3.5295 O   0  0  0  0  0  0  0  0  0  0  0  0
    2.8411    2.7899    4.6177 C   0  0  0  0  0  0  0  0  0  0  0  0
    4.0797    3.1073    4.2465 C   0  0  0  0  0  0  0  0  0  0  0  0
    4.9995    4.0764    4.7766 C   0  0  0  0  0  0  0  0  0  0  0  0
    4.7245    5.3337    4.3025 C   0  0  0  0  0  0  0  0  0  0  0  0
    3.6686    5.9404    5.1308 C   0  0  0  0  0  0  0  0  0  0  0  0
    3.8009    7.3512    5.6995 C   0  0  0  0  0  0  0  0  0  0  0  0
    3.0715    7.1063    6.9861 C   0  0  0  0  0  0  0  0  0  0  0  0
    2.9534    7.7485    8.3174 C   0  0  0  0  0  0  0  0  0  0  0  0
    2.5287    6.5024    9.1798 C   0  0  0  0  0  0  0  0  0  0  0  0
    1.6188    5.3128    8.4363 C   0  0  0  0  0  0  0  0  0  0  0  0
    2.2787    3.9640    7.6213 C   0  0  0  0  0  0  0  0  0  0  0  0
    1.9891    3.1146    6.0702 C   0  0  0  0  0  0  0  0  0  0  0  0
    2.1995    1.2681    0.5222 C   0  0  0  0  0  0  0  0  0  0  0  0
    0.3700   -1.6471    0.2646 H   0  0  0  0  0  0  0  0  0  0  0  0
    0.5925   -0.4795   -1.0513 H   0  0  0  0  0  0  0  0  0  0  0  0
   -0.1179    0.0338    0.4804 H   0  0  0  0  0  0  0  0  0  0  0  0
    2.0964   -0.5890    1.6355 H   0  0  0  0  0  0  0  0  0  0  0  0
    3.1036   -0.8466   -1.3077 H   0  0  0  0  0  0  0  0  0  0  0  0
    3.0538   -3.1129   -0.0478 H   0  0  0  0  0  0  0  0  0  0  0  0
    3.7033   -2.2897    1.3600 H   0  0  0  0  0  0  0  0  0  0  0  0
    5.2874   -2.0413   -1.2356 H   0  0  0  0  0  0  0  0  0  0  0  0
    5.1986   -3.6213   -0.4941 H   0  0  0  0  0  0  0  0  0  0  0  0
    6.7608   -3.1512    0.9541 H   0  0  0  0  0  0  0  0  0  0  0  0
    5.7851   -1.9197    1.7035 H   0  0  0  0  0  0  0  0  0  0  0  0
    7.1138   -0.8807   -0.7623 H   0  0  0  0  0  0  0  0  0  0  0  0
    8.2455   -1.6952    0.2902 H   0  0  0  0  0  0  0  0  0  0  0  0
    8.4293    0.2411    1.3755 H   0  0  0  0  0  0  0  0  0  0  0  0
    6.9816   -0.2379    2.2149 H   0  0  0  0  0  0  0  0  0  0  0  0
    6.1854    1.0752   -0.2870 H   0  0  0  0  0  0  0  0  0  0  0  0
    7.4955    1.9895    0.4180 H   0  0  0  0  0  0  0  0  0  0  0  0
    6.2756    2.8800    1.9808 H   0  0  0  0  0  0  0  0  0  0  0  0
    5.6330    1.3556    2.5763 H   0  0  0  0  0  0  0  0  0  0  0  0
    4.4104    2.2101    0.0414 H   0  0  0  0  0  0  0  0  0  0  0  0
    4.4225    3.5410    1.1039 H   0  0  0  0  0  0  0  0  0  0  0  0
    2.4367    3.0648    1.5181 H   0  0  0  0  0  0  0  0  0  0  0  0
    4.4555    2.7482    3.3420 H   0  0  0  0  0  0  0  0  0  0  0  0
    5.2081    3.8621    5.8189 H   0  0  0  0  0  0  0  0  0  0  0  0
    4.4850    5.4512    3.2520 H   0  0  0  0  0  0  0  0  0  0  0  0
    3.6169    5.2318    5.9857 H   0  0  0  0  0  0  0  0  0  0  0  0
    2.6769    5.7955    4.6924 H   0  0  0  0  0  0  0  0  0  0  0  0
    3.2760    8.0532    5.0459 H   0  0  0  0  0  0  0  0  0  0  0  0
    4.8375    7.6618    5.8400 H   0  0  0  0  0  0  0  0  0  0  0  0
    3.6358    6.2361    7.3558 H   0  0  0  0  0  0  0  0  0  0  0  0
    2.0463    6.8739    6.6799 H   0  0  0  0  0  0  0  0  0  0  0  0
    2.2145    8.5611    8.3245 H   0  0  0  0  0  0  0  0  0  0  0  0
    3.9172    8.1743    8.6524 H   0  0  0  0  0  0  0  0  0  0  0  0
    2.0014    6.9040   10.0559 H   0  0  0  0  0  0  0  0  0  0  0  0
    3.4435    6.0348    9.5713 H   0  0  0  0  0  0  0  0  0  0  0  0
    0.7886    5.7704    7.8887 H   0  0  0  0  0  0  0  0  0  0  0  0
    1.1470    4.8776    9.3346 H   0  0  0  0  0  0  0  0  0  0  0  0
    3.3271    3.8534    7.9076 H   0  0  0  0  0  0  0  0  0  0  0  0
    1.7546    3.2183    8.2505 H   0  0  0  0  0  0  0  0  0  0  0  0
    0.9118    3.1965    5.8587 H   0  0  0  0  0  0  0  0  0  0  0  0
    2.0918    2.0917    6.4827 H   0  0  0  0  0  0  0  0  0  0  0  0
    2.6985    1.4835   -0.4355 H   0  0  0  0  0  0  0  0  0  0  0  0
    1.2194    1.7387    0.3698 H   0  0  0  0  0  0  0  0  0  0  0  0
  1  2  1  0  0  0  0
  1 28  1  0  0  0  0
  1 29  1  0  0  0  0
  1 30  1  0  0  0  0
  2  3  1  0  0  0  0
  2 27  1  0  0  0  0
  2 31  1  0  0  0  0
  3  4  1  0  0  0  0
  3 32  1  0  0  0  0
  4  5  1  0  0  0  0
  4 33  1  0  0  0  0
  4 34  1  0  0  0  0
  5  6  1  0  0  0  0
  5 35  1  0  0  0  0
  5 36  1  0  0  0  0
  6  7  1  0  0  0  0
  6 37  1  0  0  0  0
  6 38  1  0  0  0  0
  7  8  1  0  0  0  0
  7 39  1  0  0  0  0
  7 40  1  0  0  0  0
  8  9  1  0  0  0  0
  8 41  1  0  0  0  0
  8 42  1  0  0  0  0
  9 10  1  0  0  0  0
  9 43  1  0  0  0  0
  9 44  1  0  0  0  0
 10 11  1  0  0  0  0
 10 45  1  0  0  0  0
 10 46  1  0  0  0  0
 11 12  1  0  0  0  0
 11 47  1  0  0  0  0
 11 48  1  0  0  0  0
 12 13  1  0  0  0  0
 12 27  1  0  0  0  0
 12 49  1  0  0  0  0
 13 14  2  0  0  0  0
 13 15  1  0  0  0  0
 15 16  2  3  0  0  0
 15 26  1  0  0  0  0
 16 17  1  0  0  0  0
 16 50  1  0  0  0  0
 17 18  2  3  0  0  0
 17 51  1  0  0  0  0
 18 19  1  0  0  0  0
 18 52  1  0  0  0  0
 19 20  1  0  0  0  0
 19 53  1  0  0  0  0
 19 54  1  0  0  0  0
 20 21  1  0  0  0  0
 20 55  1  0  0  0  0
 20 56  1  0  0  0  0
 21 22  1  0  0  0  0
 21 57  1  0  0  0  0
 21 58  1  0  0  0  0
 22 23  1  0  0  0  0
 22 59  1  0  0  0  0
 22 60  1  0  0  0  0
 23 24  1  0  0  0  0
 23 61  1  0  0  0  0
 23 62  1  0  0  0  0
 24 25  1  0  0  0  0
 24 63  1  0  0  0  0
 24 64  1  0  0  0  0
 25 26  1  0  0  0  0
 25 65  1  0  0  0  0
 25 66  1  0  0  0  0
 26 67  1  0  0  0  0
 26 68  1  0  0  0  0
 27 69  1  0  0  0  0
 27 70  1  0  0  0  0
M  END
$$$$
