
 OpenBabel04232216393D

216216  0  0  0  0  0  0  0  0999 V2000
  -84.5146  -57.6145  202.3449 C   0  0  0  0  0  0  0  0  0  0  0  0
  -83.6189  -63.4367  203.5077 C   0  0  0  0  0  0  0  0  0  0  0  0
  -82.4064  -68.7871  204.6581 C   0  0  0  0  0  0  0  0  0  0  0  0
  -81.5993  -73.0065  205.5098 C   0  0  0  0  0  0  0  0  0  0  0  0
  -80.6868  -77.4850  206.4104 C   0  0  0  0  0  0  0  0  0  0  0  0
  -79.7723  -81.3131  207.1960 C   0  0  0  0  0  0  0  0  0  0  0  0
  -78.4756  -85.3306  207.9669 C   0  0  0  0  0  0  0  0  0  0  0  0
  -76.7194  -87.7604  208.5838 C   0  0  0  0  0  0  0  0  0  0  0  0
  -77.3242  -86.6459  208.2401 C   0  0  0  0  0  0  0  0  0  0  0  0
  -77.4483  -84.9830  207.5611 C   0  0  0  0  0  0  0  0  0  0  0  0
  -78.5130  -83.1906  207.0246 C   0  0  0  0  0  0  0  0  0  0  0  0
  -80.3297  -81.6790  206.1703 C   0  0  0  0  0  0  0  0  0  0  0  0
  -78.8643  -81.9322  206.3741 C   0  0  0  0  0  0  0  0  0  0  0  0
  -80.9102  -80.3847  207.0839 C   0  0  0  0  0  0  0  0  0  0  0  0
  -79.4654  -78.3713  206.2569 C   0  0  0  0  0  0  0  0  0  0  0  0
  -81.6113  -77.4256  205.3309 C   0  0  0  0  0  0  0  0  0  0  0  0
  -80.2392  -77.6734  207.8694 C   0  0  0  0  0  0  0  0  0  0  0  0
  -81.6814  -76.6737  207.6010 C   0  0  0  0  0  0  0  0  0  0  0  0
  -80.9389  -74.7854  206.3183 C   0  0  0  0  0  0  0  0  0  0  0  0
  -81.9627  -73.8319  204.2977 C   0  0  0  0  0  0  0  0  0  0  0  0
  -80.4977  -72.1925  204.9641 C   0  0  0  0  0  0  0  0  0  0  0  0
  -81.2677  -72.3418  203.1327 C   0  0  0  0  0  0  0  0  0  0  0  0
  -81.4287  -70.4803  203.5691 C   0  0  0  0  0  0  0  0  0  0  0  0
  -81.8791  -68.8216  202.1662 C   0  0  0  0  0  0  0  0  0  0  0  0
  -81.9012  -66.6677  202.3677 C   0  0  0  0  0  0  0  0  0  0  0  0
  -83.3572  -65.5940  201.8600 C   0  0  0  0  0  0  0  0  0  0  0  0
  -84.2286  -65.1621  202.5690 C   0  0  0  0  0  0  0  0  0  0  0  0
  -84.2716  -64.0164  202.4634 C   0  0  0  0  0  0  0  0  0  0  0  0
  -85.3056  -62.9154  202.0960 C   0  0  0  0  0  0  0  0  0  0  0  0
  -84.0145  -62.1473  202.0732 C   0  0  0  0  0  0  0  0  0  0  0  0
  -82.8767  -60.4387  201.5479 C   0  0  0  0  0  0  0  0  0  0  0  0
  -83.4030  -59.4470  203.3800 C   0  0  0  0  0  0  0  0  0  0  0  0
  -83.3443  -58.0368  201.6776 C   0  0  0  0  0  0  0  0  0  0  0  0
  -84.3456  -58.0026  200.6129 C   0  0  0  0  0  0  0  0  0  0  0  0
  -84.4656  -56.2164  201.2616 C   0  0  0  0  0  0  0  0  0  0  0  0
  -85.6811  -55.0831  200.3741 C   0  0  0  0  0  0  0  0  0  0  0  0
  -84.4662  -53.4708  199.8882 C   0  0  0  0  0  0  0  0  0  0  0  0
  -86.2121  -52.5243  200.0887 C   0  0  0  0  0  0  0  0  0  0  0  0
  -85.4645  -51.3383  200.2601 C   0  0  0  0  0  0  0  0  0  0  0  0
  -86.5378  -50.4112  199.8010 C   0  0  0  0  0  0  0  0  0  0  0  0
  -85.9271  -49.0615  199.6795 C   0  0  0  0  0  0  0  0  0  0  0  0
  -87.0390  -48.3302  199.0433 C   0  0  0  0  0  0  0  0  0  0  0  0
  -86.0074  -46.9977  198.7031 C   0  0  0  0  0  0  0  0  0  0  0  0
  -87.2688  -45.4656  197.7611 C   0  0  0  0  0  0  0  0  0  0  0  0
  -86.5165  -43.7462  196.9027 C   0  0  0  0  0  0  0  0  0  0  0  0
  -87.9046  -43.6049  197.7296 C   0  0  0  0  0  0  0  0  0  0  0  0
  -87.0731  -42.2295  197.9065 C   0  0  0  0  0  0  0  0  0  0  0  0
  -88.5450  -41.7727  197.0012 C   0  0  0  0  0  0  0  0  0  0  0  0
  -87.7169  -39.8499  197.0555 C   0  0  0  0  0  0  0  0  0  0  0  0
  -88.6061  -40.3190  197.2496 C   0  0  0  0  0  0  0  0  0  0  0  0
  -88.6461  -38.2006  196.6768 C   0  0  0  0  0  0  0  0  0  0  0  0
  -90.1381  -38.1098  196.7061 C   0  0  0  0  0  0  0  0  0  0  0  0
  -89.3185  -35.9282  196.1444 C   0  0  0  0  0  0  0  0  0  0  0  0
  -90.3107  -33.9456  195.8741 C   0  0  0  0  0  0  0  0  0  0  0  0
  -89.5921  -32.5641  195.9238 C   0  0  0  0  0  0  0  0  0  0  0  0
  -90.8625  -31.3589  194.6176 C   0  0  0  0  0  0  0  0  0  0  0  0
  -89.4443  -30.6075  195.0803 C   0  0  0  0  0  0  0  0  0  0  0  0
  -90.7353  -29.3790  194.6890 C   0  0  0  0  0  0  0  0  0  0  0  0
  -89.3613  -27.5885  194.9453 C   0  0  0  0  0  0  0  0  0  0  0  0
  -91.3819  -27.3218  194.3123 C   0  0  0  0  0  0  0  0  0  0  0  0
  -89.9726  -25.8769  194.1429 C   0  0  0  0  0  0  0  0  0  0  0  0
  -91.8005  -24.6168  193.6462 C   0  0  0  0  0  0  0  0  0  0  0  0
  -90.9275  -23.7742  193.3430 C   0  0  0  0  0  0  0  0  0  0  0  0
  -92.7158  -22.7921  192.7723 C   0  0  0  0  0  0  0  0  0  0  0  0
  -92.2219  -21.4298  192.6995 C   0  0  0  0  0  0  0  0  0  0  0  0
  -92.9008  -20.2162  192.4119 C   0  0  0  0  0  0  0  0  0  0  0  0
  -93.6456  -20.5339  193.2248 C   0  0  0  0  0  0  0  0  0  0  0  0
  -93.6816  -18.8942  192.4424 C   0  0  0  0  0  0  0  0  0  0  0  0
  -93.1352  -19.0747  193.5796 C   0  0  0  0  0  0  0  0  0  0  0  0
  -92.1294  -21.9992  194.3553 C   0  0  0  0  0  0  0  0  0  0  0  0
  -90.8439  -26.1356  195.5886 C   0  0  0  0  0  0  0  0  0  0  0  0
  -90.0182  -31.1731  196.5493 C   0  0  0  0  0  0  0  0  0  0  0  0
  -88.9735  -36.4605  197.6569 C   0  0  0  0  0  3  0  0  0  0  0  0
  -87.8763  -41.8730  198.8273 C   0  0  0  0  0  0  0  0  0  0  0  0
  -86.6081  -47.5314  200.0940 C   0  0  0  0  0  0  0  0  0  0  0  0
  -85.4157  -53.0756  201.3304 C   0  0  0  0  0  3  0  0  0  0  0  0
  -84.2040  -60.1407  202.9213 H   0  0  0  0  0  0  0  0  0  0  0  0
  -83.0362  -65.9525  203.8647 H   0  0  0  0  0  0  0  0  0  0  0  0
  -83.0546  -65.9600  203.8323 H   0  0  0  0  0  0  0  0  0  0  0  0
  -81.9643  -71.3982  204.7516 H   0  0  0  0  0  0  0  0  0  0  0  0
  -81.2069  -75.7183  205.7795 H   0  0  0  0  0  0  0  0  0  0  0  0
  -80.0123  -80.4953  206.9998 H   0  0  0  0  0  0  0  0  0  0  0  0
  -79.5345  -84.2864  207.5730 H   0  0  0  0  0  0  0  0  0  0  0  0
  -77.6317  -88.2712  208.5358 H   0  0  0  0  0  0  0  0  0  0  0  0
  -77.0920  -87.9499  208.1682 H   0  0  0  0  0  0  0  0  0  0  0  0
  -78.4001  -88.5346  208.4231 H   0  0  0  0  0  0  0  0  0  0  0  0
  -77.8245  -87.9571  207.5496 H   0  0  0  0  0  0  0  0  0  0  0  0
  -76.9764  -86.8008  207.4036 H   0  0  0  0  0  0  0  0  0  0  0  0
  -77.6656  -86.8260  209.2808 H   0  0  0  0  0  0  0  0  0  0  0  0
  -77.2047  -85.9397  206.2179 H   0  0  0  0  0  0  0  0  0  0  0  0
  -76.0244  -85.4547  207.3540 H   0  0  0  0  0  0  0  0  0  0  0  0
  -78.2840  -84.1532  208.4499 H   0  0  0  0  0  0  0  0  0  0  0  0
  -78.4099  -84.8834  206.8548 H   0  0  0  0  0  0  0  0  0  0  0  0
  -78.8129  -80.8911  205.9319 H   0  0  0  0  0  0  0  0  0  0  0  0
  -79.2409  -81.4117  208.2972 H   0  0  0  0  0  0  0  0  0  0  0  0
  -78.1971  -82.4635  205.9273 H   0  0  0  0  0  0  0  0  0  0  0  0
  -78.1539  -81.2786  207.3138 H   0  0  0  0  0  0  0  0  0  0  0  0
  -81.5924  -79.2277  206.8928 H   0  0  0  0  0  0  0  0  0  0  0  0
  -80.5726  -82.1274  208.0862 H   0  0  0  0  0  0  0  0  0  0  0  0
  -78.7465  -79.4634  205.9878 H   0  0  0  0  0  0  0  0  0  0  0  0
  -79.0137  -79.1295  207.3767 H   0  0  0  0  0  0  0  0  0  0  0  0
  -82.8554  -76.3793  206.0255 H   0  0  0  0  0  0  0  0  0  0  0  0
  -80.5322  -78.2742  204.8448 H   0  0  0  0  0  0  0  0  0  0  0  0
  -79.6891  -79.5144  208.1129 H   0  0  0  0  0  0  0  0  0  0  0  0
  -79.5077  -77.7462  207.5718 H   0  0  0  0  0  0  0  0  0  0  0  0
  -82.1954  -77.8066  206.6188 H   0  0  0  0  0  0  0  0  0  0  0  0
  -82.6303  -76.6974  208.8229 H   0  0  0  0  0  0  0  0  0  0  0  0
  -79.4022  -75.0628  205.3060 H   0  0  0  0  0  0  0  0  0  0  0  0
  -80.1517  -74.5670  206.6366 H   0  0  0  0  0  0  0  0  0  0  0  0
  -80.5745  -73.1778  204.9840 H   0  0  0  0  0  0  0  0  0  0  0  0
  -82.6492  -73.2122  205.5094 H   0  0  0  0  0  0  0  0  0  0  0  0
  -80.4803  -72.0287  204.0044 H   0  0  0  0  0  0  0  0  0  0  0  0
  -79.7808  -72.7138  205.6604 H   0  0  0  0  0  0  0  0  0  0  0  0
  -80.2837  -73.6693  203.6596 H   0  0  0  0  0  0  0  0  0  0  0  0
  -80.8824  -73.1916  202.8378 H   0  0  0  0  0  0  0  0  0  0  0  0
  -80.7599  -70.1941  203.7674 H   0  0  0  0  0  0  0  0  0  0  0  0
  -80.9449  -70.2812  205.3456 H   0  0  0  0  0  0  0  0  0  0  0  0
  -81.7470  -70.1648  201.0535 H   0  0  0  0  0  0  0  0  0  0  0  0
  -80.7277  -69.3795  202.0666 H   0  0  0  0  0  0  0  0  0  0  0  0
  -82.7857  -65.9903  202.3710 H   0  0  0  0  0  0  0  0  0  0  0  0
  -82.2121  -65.0772  201.9828 H   0  0  0  0  0  0  0  0  0  0  0  0
  -82.5407  -64.3131  203.1791 H   0  0  0  0  0  0  0  0  0  0  0  0
  -83.7148  -66.6230  202.8788 H   0  0  0  0  0  0  0  0  0  0  0  0
  -82.9093  -64.0560  202.2009 H   0  0  0  0  0  0  0  0  0  0  0  0
  -84.7306  -65.3816  203.1405 H   0  0  0  0  0  0  0  0  0  0  0  0
  -83.8144  -64.7634  202.6269 H   0  0  0  0  0  0  0  0  0  0  0  0
  -84.8210  -64.5407  202.0717 H   0  0  0  0  0  0  0  0  0  0  0  0
  -83.7080  -62.5367  202.7756 H   0  0  0  0  0  0  0  0  0  0  0  0
  -85.8715  -63.0216  202.8777 H   0  0  0  0  0  0  0  0  0  0  0  0
  -84.4479  -62.0269  201.0558 H   0  0  0  0  0  0  0  0  0  0  0  0
  -84.7433  -62.6932  202.8635 H   0  0  0  0  0  0  0  0  0  0  0  0
  -83.8216  -60.1644  201.2442 H   0  0  0  0  0  0  0  0  0  0  0  0
  -82.2537  -61.0941  201.7240 H   0  0  0  0  0  0  0  0  0  0  0  0
  -84.2357  -60.0491  204.1276 H   0  0  0  0  0  0  0  0  0  0  0  0
  -85.0817  -60.3461  202.8932 H   0  0  0  0  0  0  0  0  0  0  0  0
  -84.4977  -58.0870  201.1614 H   0  0  0  0  0  0  0  0  0  0  0  0
  -83.1556  -59.0053  202.1995 H   0  0  0  0  0  0  0  0  0  0  0  0
  -84.2034  -56.4221  200.9735 H   0  0  0  0  0  0  0  0  0  0  0  0
  -84.7134  -57.4626  199.8951 H   0  0  0  0  0  0  0  0  0  0  0  0
  -85.2418  -56.5309  201.8756 H   0  0  0  0  0  0  0  0  0  0  0  0
  -84.6965  -55.3504  200.5553 H   0  0  0  0  0  0  0  0  0  0  0  0
  -85.8946  -54.7457  201.3078 H   0  0  0  0  0  0  0  0  0  0  0  0
  -86.3150  -55.7077  200.1703 H   0  0  0  0  0  0  0  0  0  0  0  0
  -85.2463  -53.1337  199.5257 H   0  0  0  0  0  0  0  0  0  0  0  0
  -84.1103  -53.9998  198.9756 H   0  0  0  0  0  0  0  0  0  0  0  0
  -86.9525  -53.0502  199.6684 H   0  0  0  0  0  0  0  0  0  0  0  0
  -85.6412  -51.8778  199.8081 H   0  0  0  0  0  0  0  0  0  0  0  0
  -85.6185  -50.9257  201.1809 H   0  0  0  0  0  0  0  0  0  0  0  0
  -85.8054  -50.7909  199.3616 H   0  0  0  0  0  0  0  0  0  0  0  0
  -87.0539  -50.0802  200.6402 H   0  0  0  0  0  0  0  0  0  0  0  0
  -87.2230  -50.9442  199.1170 H   0  0  0  0  0  0  0  0  0  0  0  0
  -85.1839  -49.0108  198.9199 H   0  0  0  0  0  0  0  0  0  0  0  0
  -85.4760  -48.7893  200.6369 H   0  0  0  0  0  0  0  0  0  0  0  0
  -87.9104  -48.1925  199.8811 H   0  0  0  0  0  0  0  0  0  0  0  0
  -87.3151  -48.3142  198.2143 H   0  0  0  0  0  0  0  0  0  0  0  0
  -85.2813  -46.6456  198.8003 H   0  0  0  0  0  0  0  0  0  0  0  0
  -86.1757  -46.1629  200.3305 H   0  0  0  0  0  0  0  0  0  0  0  0
  -86.3649  -44.5674  198.8936 H   0  0  0  0  0  0  0  0  0  0  0  0
  -88.2845  -45.3449  198.8812 H   0  0  0  0  0  0  0  0  0  0  0  0
  -87.1254  -43.9234  197.5380 H   0  0  0  0  0  0  0  0  0  0  0  0
  -88.1231  -44.2331  196.8814 H   0  0  0  0  0  0  0  0  0  0  0  0
  -88.9143  -43.5386  198.7346 H   0  0  0  0  0  0  0  0  0  0  0  0
  -88.2201  -42.9816  197.3108 H   0  0  0  0  0  0  0  0  0  0  0  0
  -86.3243  -41.9148  198.1954 H   0  0  0  0  0  0  0  0  0  0  0  0
  -87.1822  -41.7915  199.7299 H   0  0  0  0  0  0  0  0  0  0  0  0
  -89.5590  -42.5586  198.2613 H   0  0  0  0  0  0  0  0  0  0  0  0
  -89.3969  -41.5914  197.0791 H   0  0  0  0  0  0  0  0  0  0  0  0
  -86.9585  -39.8085  197.1546 H   0  0  0  0  0  0  0  0  0  0  0  0
  -88.2445  -39.0611  198.9251 H   0  0  0  0  0  0  0  0  0  0  0  0
  -88.7925  -40.5218  195.5425 H   0  0  0  0  0  0  0  0  0  0  0  0
  -86.9552  -39.8079  198.1943 H   0  0  0  0  0  0  0  0  0  0  0  0
  -87.8465  -36.9806  197.7826 H   0  0  0  0  0  0  0  0  0  0  0  0
  -89.7587  -37.1801  197.3274 H   0  0  0  0  0  0  0  0  0  0  0  0
  -89.4753  -39.2765  197.7121 H   0  0  0  0  0  0  0  0  0  0  0  0
  -90.2403  -38.0175  198.3346 H   0  0  0  0  0  0  0  0  0  0  0  0
  -88.1411  -34.8790  195.8581 H   0  0  0  0  0  0  0  0  0  0  0  0
  -88.3445  -34.9393  197.5412 H   0  0  0  0  0  0  0  0  0  0  0  0
  -90.8997  -34.0535  195.1157 H   0  0  0  0  0  0  0  0  0  0  0  0
  -89.3202  -33.7046  195.7408 H   0  0  0  0  0  0  0  0  0  0  0  0
  -88.3464  -32.6168  195.6823 H   0  0  0  0  0  0  0  0  0  0  0  0
  -89.7659  -32.0856  197.8537 H   0  0  0  0  0  0  0  0  0  0  0  0
  -90.4311  -32.6728  193.9801 H   0  0  0  0  0  0  0  0  0  0  0  0
  -90.0970  -31.0868  194.4235 H   0  0  0  0  0  0  0  0  0  0  0  0
  -89.3638  -29.7543  194.8392 H   0  0  0  0  0  0  0  0  0  0  0  0
  -89.0464  -30.4514  196.6373 H   0  0  0  0  0  0  0  0  0  0  0  0
  -92.1025  -30.2310  194.6624 H   0  0  0  0  0  0  0  0  0  0  0  0
  -91.2573  -28.7590  194.4591 H   0  0  0  0  0  0  0  0  0  0  0  0
  -89.6338  -27.8289  196.2139 H   0  0  0  0  0  0  0  0  0  0  0  0
  -89.2939  -28.7074  196.1692 H   0  0  0  0  0  0  0  0  0  0  0  0
  -92.5836  -27.1796  195.0286 H   0  0  0  0  0  0  0  0  0  0  0  0
  -91.6466  -26.6616  193.6447 H   0  0  0  0  0  0  0  0  0  0  0  0
  -89.3559  -25.2073  193.3397 H   0  0  0  0  0  0  0  0  0  0  0  0
  -90.0300  -25.4044  195.8745 H   0  0  0  0  0  0  0  0  0  0  0  0
  -91.3349  -23.3088  193.3839 H   0  0  0  0  0  0  0  0  0  0  0  0
  -92.4895  -24.0688  194.6064 H   0  0  0  0  0  0  0  0  0  0  0  0
  -90.2196  -22.9882  193.6620 H   0  0  0  0  0  0  0  0  0  0  0  0
  -90.2767  -23.9566  195.0157 H   0  0  0  0  0  0  0  0  0  0  0  0
  -92.9146  -22.8164  191.3372 H   0  0  0  0  0  0  0  0  0  0  0  0
  -93.5613  -23.1083  193.0483 H   0  0  0  0  0  0  0  0  0  0  0  0
  -92.1945  -19.9598  192.7629 H   0  0  0  0  0  0  0  0  0  0  0  0
  -91.1159  -20.3979  192.1389 H   0  0  0  0  0  0  0  0  0  0  0  0
  -94.1758  -19.8675  193.2977 H   0  0  0  0  0  0  0  0  0  0  0  0
  -92.9010  -19.7133  191.7409 H   0  0  0  0  0  0  0  0  0  0  0  0
  -92.8683  -19.3736  194.5218 H   0  0  0  0  0  0  0  0  0  0  0  0
  -94.1315  -17.8564  192.2640 H   0  0  0  0  0  0  0  0  0  0  0  0
  -94.4550  -16.5654  193.4108 H   0  0  0  0  0  0  0  0  0  0  0  0
  -92.8387  -19.1823  193.5083 H   0  0  0  0  0  0  0  0  0  0  0  0
  -91.3112  -23.1941  194.9349 H   0  0  0  0  0  0  0  0  0  0  0  0
  -91.1658  -23.1925  194.8744 H   0  0  0  0  0  0  0  0  0  0  0  0
  -90.4432  -28.3973  195.7330 H   0  0  0  0  0  0  0  0  0  0  0  0
  -90.4771  -28.3943  195.7629 H   0  0  0  0  0  0  0  0  0  0  0  0
  -89.4203  -33.7815  197.1733 H   0  0  0  0  0  0  0  0  0  0  0  0
  -88.3223  -39.3127  198.0547 H   0  0  0  0  0  0  0  0  0  0  0  0
  -88.2983  -39.3087  198.0535 H   0  0  0  0  0  0  0  0  0  0  0  0
  -87.2487  -45.3346  199.4631 H   0  0  0  0  0  0  0  0  0  0  0  0
  -87.2334  -45.3487  199.4063 H   0  0  0  0  0  0  0  0  0  0  0  0
  1  2  1  0  0  0  0
  1 76  2  3  0  0  0
  1 77  1  0  0  0  0
  2  3  1  0  0  0  0
  2 78  1  0  0  0  0
  2 79  1  0  0  0  0
  3  4  2  3  0  0  0
  3 80  1  0  0  0  0
  4  5  1  0  0  0  0
  4 81  1  0  0  0  0
  5  6  2  3  0  0  0
  5 82  1  0  0  0  0
  6  7  1  0  0  0  0
  6 83  1  0  0  0  0
  7  8  1  0  0  0  0
  7 84  1  0  0  0  0
  7 85  1  0  0  0  0
  8  9  1  0  0  0  0
  8 86  1  0  0  0  0
  8 87  1  0  0  0  0
  9 10  1  0  0  0  0
  9 88  1  0  0  0  0
  9 89  1  0  0  0  0
 10 11  1  0  0  0  0
 10 90  1  0  0  0  0
 10 91  1  0  0  0  0
 11 12  1  0  0  0  0
 11 92  1  0  0  0  0
 11 93  1  0  0  0  0
 12 13  1  0  0  0  0
 12 94  1  0  0  0  0
 12 95  1  0  0  0  0
 13 14  1  0  0  0  0
 13 96  1  0  0  0  0
 13 97  1  0  0  0  0
 14 15  1  0  0  0  0
 14 98  1  0  0  0  0
 14 99  1  0  0  0  0
 15 16  1  0  0  0  0
 15100  1  0  0  0  0
 15101  1  0  0  0  0
 16 17  1  0  0  0  0
 16102  1  0  0  0  0
 16103  1  0  0  0  0
 17 18  1  0  0  0  0
 17104  1  0  0  0  0
 17105  1  0  0  0  0
 18 19  1  0  0  0  0
 18106  1  0  0  0  0
 18107  1  0  0  0  0
 19 20  1  0  0  0  0
 19108  1  0  0  0  0
 19109  1  0  0  0  0
 20 21  1  0  0  0  0
 20110  1  0  0  0  0
 20111  1  0  0  0  0
 21 22  1  0  0  0  0
 21112  1  0  0  0  0
 21113  1  0  0  0  0
 22 23  1  0  0  0  0
 22114  1  0  0  0  0
 22115  1  0  0  0  0
 23 24  1  0  0  0  0
 23116  1  0  0  0  0
 23117  1  0  0  0  0
 24 25  1  0  0  0  0
 24118  1  0  0  0  0
 24119  1  0  0  0  0
 25 26  1  0  0  0  0
 25120  1  0  0  0  0
 25121  1  0  0  0  0
 26 27  1  0  0  0  0
 26122  1  0  0  0  0
 26123  1  0  0  0  0
 27 28  1  0  0  0  0
 27124  1  0  0  0  0
 27125  1  0  0  0  0
 28 29  1  0  0  0  0
 28126  1  0  0  0  0
 28127  1  0  0  0  0
 29 30  1  0  0  0  0
 29128  1  0  0  0  0
 29129  1  0  0  0  0
 30 31  1  0  0  0  0
 30130  1  0  0  0  0
 30131  1  0  0  0  0
 31 32  1  0  0  0  0
 31132  1  0  0  0  0
 31133  1  0  0  0  0
 32 33  1  0  0  0  0
 32134  1  0  0  0  0
 32135  1  0  0  0  0
 33 34  1  0  0  0  0
 33136  1  0  0  0  0
 33137  1  0  0  0  0
 34 35  1  0  0  0  0
 34138  1  0  0  0  0
 34139  1  0  0  0  0
 35 36  1  0  0  0  0
 35140  1  0  0  0  0
 35141  1  0  0  0  0
 36 37  1  0  0  0  0
 36142  1  0  0  0  0
 36143  1  0  0  0  0
 37 38  1  0  0  0  0
 37144  1  0  0  0  0
 37145  1  0  0  0  0
 38 39  1  0  0  0  0
 38146  1  0  0  0  0
 38147  1  0  0  0  0
 39 40  1  0  0  0  0
 39148  1  0  0  0  0
 39149  1  0  0  0  0
 40 41  1  0  0  0  0
 40150  1  0  0  0  0
 40151  1  0  0  0  0
 41 42  1  0  0  0  0
 41152  1  0  0  0  0
 41153  1  0  0  0  0
 42 43  1  0  0  0  0
 42154  1  0  0  0  0
 42155  1  0  0  0  0
 43 44  1  0  0  0  0
 43156  1  0  0  0  0
 43157  1  0  0  0  0
 44 45  1  0  0  0  0
 44158  1  0  0  0  0
 44159  1  0  0  0  0
 45 46  1  0  0  0  0
 45160  1  0  0  0  0
 45161  1  0  0  0  0
 46 47  1  0  0  0  0
 46162  1  0  0  0  0
 46163  1  0  0  0  0
 47 48  1  0  0  0  0
 47164  1  0  0  0  0
 47165  1  0  0  0  0
 48 49  1  0  0  0  0
 48166  1  0  0  0  0
 48167  1  0  0  0  0
 49 50  1  0  0  0  0
 49168  1  0  0  0  0
 49169  1  0  0  0  0
 50 51  1  0  0  0  0
 50170  1  0  0  0  0
 50171  1  0  0  0  0
 51 52  1  0  0  0  0
 51172  1  0  0  0  0
 51173  1  0  0  0  0
 52 53  1  0  0  0  0
 52174  1  0  0  0  0
 52175  1  0  0  0  0
 53 54  1  0  0  0  0
 53176  1  0  0  0  0
 53177  1  0  0  0  0
 54 55  1  0  0  0  0
 54178  1  0  0  0  0
 54179  1  0  0  0  0
 55 56  1  0  0  0  0
 55180  1  0  0  0  0
 55181  1  0  0  0  0
 56 57  1  0  0  0  0
 56182  1  0  0  0  0
 56183  1  0  0  0  0
 57 58  1  0  0  0  0
 57184  1  0  0  0  0
 57185  1  0  0  0  0
 58 59  1  0  0  0  0
 58186  1  0  0  0  0
 58187  1  0  0  0  0
 59 60  1  0  0  0  0
 59188  1  0  0  0  0
 59189  1  0  0  0  0
 60 61  1  0  0  0  0
 60190  1  0  0  0  0
 60191  1  0  0  0  0
 61 62  1  0  0  0  0
 61192  1  0  0  0  0
 61193  1  0  0  0  0
 62 63  1  0  0  0  0
 62194  1  0  0  0  0
 62195  1  0  0  0  0
 63 64  1  0  0  0  0
 63196  1  0  0  0  0
 63197  1  0  0  0  0
 64 65  1  0  0  0  0
 64198  1  0  0  0  0
 64199  1  0  0  0  0
 65 66  1  0  0  0  0
 65200  1  0  0  0  0
 65201  1  0  0  0  0
 66 67  1  0  0  0  0
 66202  1  0  0  0  0
 66203  1  0  0  0  0
 67 68  2  3  0  0  0
 67204  1  0  0  0  0
 68 69  1  0  0  0  0
 68205  1  0  0  0  0
 69 70  2  3  0  0  0
 69206  1  0  0  0  0
 70 71  1  0  0  0  0
 70207  1  0  0  0  0
 71 72  1  0  0  0  0
 71208  1  0  0  0  0
 71209  1  0  0  0  0
 72 73  1  0  0  0  0
 72210  1  0  0  0  0
 72211  1  0  0  0  0
 73 74  1  0  0  0  0
 73212  1  0  0  0  0
 74 75  1  0  0  0  0
 74213  1  0  0  0  0
 74214  1  0  0  0  0
 75 76  1  0  0  0  0
 75215  1  0  0  0  0
 75216  1  0  0  0  0
M  END
$$$$
