
 OpenBabel04232216433D

 27 27  0  0  0  0  0  0  0  0999 V2000
   -1.3825   -0.8946   -0.2956 C   0  0  0  0  0  0  0  0  0  0  0  0
   -0.2880   -1.5922    0.4445 C   0  0  0  0  0  0  0  0  0  0  0  0
    0.9797   -1.1759    0.5284 C   0  0  0  0  0  0  0  0  0  0  0  0
    1.5409   -0.0539   -0.1886 C   0  0  0  0  0  0  0  0  0  0  0  0
    0.9731    1.1040   -0.5623 C   0  0  0  0  0  0  0  0  0  0  0  0
    1.8297    2.0624   -1.3831 C   0  0  0  0  0  0  0  0  0  0  0  0
    2.0107    3.3654   -0.7453 N   0  0  0  0  0  0  0  0  0  0  0  0
    2.8597    4.2443   -1.5571 C   0  0  0  0  0  0  0  0  0  0  0  0
    3.0053    5.5785   -0.8381 C   0  0  0  0  0  0  0  0  0  0  0  0
   -0.4584    1.5549   -0.3200 C   0  0  0  0  0  0  0  0  0  0  0  0
   -1.4754    0.5373    0.0970 C   0  0  0  0  0  3  0  0  0  0  0  0
   -2.3328   -1.3807   -0.0436 H   0  0  0  0  0  0  0  0  0  0  0  0
   -1.2594   -1.0020   -1.3786 H   0  0  0  0  0  0  0  0  0  0  0  0
   -0.5695   -2.5070    0.9628 H   0  0  0  0  0  0  0  0  0  0  0  0
    1.6868   -1.7679    1.1016 H   0  0  0  0  0  0  0  0  0  0  0  0
    2.5939   -0.2175   -0.4293 H   0  0  0  0  0  0  0  0  0  0  0  0
    1.3568    2.1935   -2.3621 H   0  0  0  0  0  0  0  0  0  0  0  0
    2.8155    1.6114   -1.5619 H   0  0  0  0  0  0  0  0  0  0  0  0
    2.4530    3.2290    0.1626 H   0  0  0  0  0  0  0  0  0  0  0  0
    2.4113    4.4198   -2.5424 H   0  0  0  0  0  0  0  0  0  0  0  0
    3.8523    3.8062   -1.7079 H   0  0  0  0  0  0  0  0  0  0  0  0
    2.0317    6.0658   -0.7174 H   0  0  0  0  0  0  0  0  0  0  0  0
    3.6519    6.2534   -1.4089 H   0  0  0  0  0  0  0  0  0  0  0  0
    3.4475    5.4483    0.1554 H   0  0  0  0  0  0  0  0  0  0  0  0
   -0.8604    2.0080   -1.2352 H   0  0  0  0  0  0  0  0  0  0  0  0
   -0.4433    2.3389    0.4471 H   0  0  0  0  0  0  0  0  0  0  0  0
   -2.4548    0.9134    0.3801 H   0  0  0  0  0  0  0  0  0  0  0  0
  1  2  1  0  0  0  0
  1 11  1  0  0  0  0
  1 12  1  0  0  0  0
  1 13  1  0  0  0  0
  2  3  2  0  0  0  0
  2 14  1  0  0  0  0
  3  4  1  0  0  0  0
  3 15  1  0  0  0  0
  4  5  2  0  0  0  0
  4 16  1  0  0  0  0
  5  6  1  0  0  0  0
  5 10  1  0  0  0  0
  6  7  1  0  0  0  0
  6 17  1  0  0  0  0
  6 18  1  0  0  0  0
  7  8  1  0  0  0  0
  7 19  1  0  0  0  0
  8  9  1  0  0  0  0
  8 20  1  0  0  0  0
  8 21  1  0  0  0  0
  9 22  1  0  0  0  0
  9 23  1  0  0  0  0
  9 24  1  0  0  0  0
 10 11  1  0  0  0  0
 10 25  1  0  0  0  0
 10 26  1  0  0  0  0
 11 27  1  0  0  0  0
M  END
$$$$
