
 OpenBabel04232216423D

 46 47  0  0  0  0  0  0  0  0999 V2000
    2.4988    1.7274   -0.1345 C   0  0  0  0  0  0  0  0  0  0  0  0
    2.4587    0.5073    0.4451 C   0  0  0  0  0  0  0  0  0  0  0  0
    2.9371    0.5004    1.8654 C   0  0  0  0  0  0  0  0  0  0  0  0
    4.2449    0.6294    1.9691 C   0  0  0  0  0  0  0  0  0  0  0  0
    5.0509   -0.4091    1.1234 C   0  0  0  0  0  0  0  0  0  0  0  0
    4.8480    1.8856    2.3543 N   0  0  0  0  0  0  0  0  0  0  0  0
    4.0448    3.0462    3.1627 C   0  0  0  0  0  0  0  0  0  0  0  0
    3.5793    4.4010    2.4388 C   0  0  0  0  0  0  0  0  0  0  0  0
    2.3913    5.3901    2.9358 C   0  0  0  0  0  0  0  0  0  0  0  0
    1.1910    5.3144    2.4235 N   0  0  0  0  0  0  0  0  0  0  0  0
    0.2150    4.6412    3.1258 C   0  0  0  0  0  0  0  0  0  0  0  0
   -0.9556    5.1861    3.5322 C   0  0  0  0  0  0  0  0  0  0  0  0
   -1.2747    6.6076    3.3703 C   0  0  0  0  0  0  0  0  0  0  0  0
   -1.8150    7.3821    4.3419 C   0  0  0  0  0  0  0  0  0  0  0  0
   -0.8630    8.3566    4.9282 C   0  0  0  0  0  0  0  0  0  0  0  0
   -0.1247    9.2339    4.2171 C   0  0  0  0  0  0  0  0  0  0  0  0
    1.2439    8.9844    4.0605 N   0  0  0  0  0  0  0  0  0  0  0  0
    1.4535    7.9922    3.2982 N   0  0  0  0  0  0  0  0  0  0  0  0
    2.8802    7.0837    3.5484 S   0  0  0  0  0  0  0  0  0  0  0  0
    5.8954    2.3378    1.5129 C   0  0  0  0  0  0  0  0  0  0  0  0
    7.2190    1.5282    1.4282 C   0  0  0  0  0  0  0  0  0  0  0  0
    5.5430    3.1251    0.4743 C   0  0  0  0  0  0  0  0  0  0  0  0
    4.7944    2.7168   -0.7285 C   0  0  0  0  0  0  0  0  0  0  0  0
    3.5850    2.1687   -1.0007 C   0  0  0  0  0  0  0  0  0  0  0  0
    1.8860    2.5237    0.2761 H   0  0  0  0  0  0  0  0  0  0  0  0
    2.8754   -0.3372   -0.0936 H   0  0  0  0  0  0  0  0  0  0  0  0
    2.2539    1.1290    2.4693 H   0  0  0  0  0  0  0  0  0  0  0  0
    4.4561   -1.2988    0.8674 H   0  0  0  0  0  0  0  0  0  0  0  0
    5.9127   -0.8119    1.6595 H   0  0  0  0  0  0  0  0  0  0  0  0
    5.3653   -0.0027    0.1533 H   0  0  0  0  0  0  0  0  0  0  0  0
    4.7700    3.3495    3.9290 H   0  0  0  0  0  0  0  0  0  0  0  0
    3.2193    2.5813    3.7099 H   0  0  0  0  0  0  0  0  0  0  0  0
    3.2692    4.1425    1.4230 H   0  0  0  0  0  0  0  0  0  0  0  0
    4.4712    5.0352    2.3412 H   0  0  0  0  0  0  0  0  0  0  0  0
    0.3973    3.5791    3.2941 H   0  0  0  0  0  0  0  0  0  0  0  0
   -1.6792    4.5693    4.0862 H   0  0  0  0  0  0  0  0  0  0  0  0
   -0.6052    7.0746    2.6573 H   0  0  0  0  0  0  0  0  0  0  0  0
   -2.4922    6.9664    5.0824 H   0  0  0  0  0  0  0  0  0  0  0  0
   -0.2623    7.7478    5.6090 H   0  0  0  0  0  0  0  0  0  0  0  0
   -0.5882   10.0769    3.7025 H   0  0  0  0  0  0  0  0  0  0  0  0
    7.1979    0.7501    0.6615 H   0  0  0  0  0  0  0  0  0  0  0  0
    7.4704    1.0198    2.3757 H   0  0  0  0  0  0  0  0  0  0  0  0
    8.0848    2.1487    1.1607 H   0  0  0  0  0  0  0  0  0  0  0  0
    6.1815    3.9860    0.3076 H   0  0  0  0  0  0  0  0  0  0  0  0
    5.3726    2.9951   -1.6135 H   0  0  0  0  0  0  0  0  0  0  0  0
    3.3206    2.0831   -2.0523 H   0  0  0  0  0  0  0  0  0  0  0  0
  1  2  2  0  0  0  0
  1 24  1  0  0  0  0
  1 25  1  0  0  0  0
  2  3  1  0  0  0  0
  2 26  1  0  0  0  0
  3  4  2  0  0  0  0
  3 27  1  0  0  0  0
  4  5  1  0  0  0  0
  4  6  1  0  0  0  0
  5 28  1  0  0  0  0
  5 29  1  0  0  0  0
  5 30  1  0  0  0  0
  6  7  1  0  0  0  0
  6 20  1  0  0  0  0
  7  8  1  0  0  0  0
  7 31  1  0  0  0  0
  7 32  1  0  0  0  0
  8  9  1  0  0  0  0
  8 33  1  0  0  0  0
  8 34  1  0  0  0  0
  9 10  2  3  0  0  0
  9 19  1  0  0  0  0
 10 11  1  0  0  0  0
 11 12  2  3  0  0  0
 11 35  1  0  0  0  0
 12 13  1  0  0  0  0
 12 36  1  0  0  0  0
 13 14  2  3  0  0  0
 13 37  1  0  0  0  0
 14 15  1  0  0  0  0
 14 38  1  0  0  0  0
 15 16  2  3  0  0  0
 15 39  1  0  0  0  0
 16 17  1  0  0  0  0
 16 40  1  0  0  0  0
 17 18  2  3  0  0  0
 18 19  1  0  0  0  0
 20 21  1  0  0  0  0
 20 22  2  0  0  0  0
 21 41  1  0  0  0  0
 21 42  1  0  0  0  0
 21 43  1  0  0  0  0
 22 23  1  0  0  0  0
 22 44  1  0  0  0  0
 23 24  2  0  0  0  0
 23 45  1  0  0  0  0
 24 46  1  0  0  0  0
M  END
$$$$
