
 OpenBabel04232216403D

239238  0  0  0  0  0  0  0  0999 V2000
    1.4684   -1.0296   -0.5352 C   0  0  0  0  0  0  0  0  0  0  0  0
    2.3239   -0.0943   -0.1195 C   0  0  0  0  0  0  0  0  0  0  0  0
    3.1052    0.7614   -1.0634 C   0  0  0  0  0  0  0  0  0  0  0  0
    4.6066    0.5828   -0.8689 C   0  0  0  0  0  0  0  0  0  0  0  0
    5.3619    1.4657   -1.8538 C   0  0  0  0  0  0  0  0  0  0  0  0
    6.7991    1.2943   -1.6630 N   0  0  0  0  0  0  0  0  0  0  0  0
    7.5253    2.1341   -2.6046 C   0  0  0  0  0  0  0  0  0  0  0  0
    9.0188    1.9468   -2.3949 C   0  0  0  0  0  0  0  0  0  0  0  0
    9.7875    2.8216   -3.3731 C   0  0  0  0  0  0  0  0  0  0  0  0
   11.2816    2.6415   -3.1746 C   0  0  0  0  0  0  0  0  0  0  0  0
   12.0451    3.5176   -4.1516 C   0  0  0  0  0  0  0  0  0  0  0  0
   13.5382    3.3341   -3.9523 C   0  0  0  0  0  0  0  0  0  0  0  0
   14.3015    4.2110   -4.9271 C   0  0  0  0  0  0  0  0  0  0  0  0
   15.7938    4.0281   -4.7255 C   0  0  0  0  0  0  0  0  0  0  0  0
   16.5566    4.9049   -5.7001 C   0  0  0  0  0  0  0  0  0  0  0  0
   18.0487    4.7204   -5.4998 C   0  0  0  0  0  0  0  0  0  0  0  0
   18.8112    5.5957   -6.4758 C   0  0  0  0  0  0  0  0  0  0  0  0
   20.3032    5.4126   -6.2741 C   0  0  0  0  0  0  0  0  0  0  0  0
   21.0657    6.2865   -7.2515 C   0  0  0  0  0  0  0  0  0  0  0  0
   22.5577    6.1049   -7.0484 C   0  0  0  0  0  0  0  0  0  0  0  0
   23.3201    6.9802   -8.0245 C   0  0  0  0  0  0  0  0  0  0  0  0
   24.8121    6.7971   -7.8227 C   0  0  0  0  0  0  0  0  0  0  0  0
   25.5745    7.6740   -8.7975 C   0  0  0  0  0  0  0  0  0  0  0  0
   27.0665    7.4923   -8.5943 C   0  0  0  0  0  0  0  0  0  0  0  0
   27.8289    8.3692   -9.5690 C   0  0  0  0  0  0  0  0  0  0  0  0
   29.3209    8.1891   -9.3645 C   0  0  0  0  0  0  0  0  0  0  0  0
   30.0833    9.0660  -10.3393 C   0  0  0  0  0  0  0  0  0  0  0  0
   31.5753    8.8858  -10.1347 C   0  0  0  0  0  0  0  0  0  0  0  0
   32.3377    9.7627  -11.1095 C   0  0  0  0  0  0  0  0  0  0  0  0
   33.8297    9.5826  -10.9050 C   0  0  0  0  0  0  0  0  0  0  0  0
   34.5921   10.4595  -11.8797 C   0  0  0  0  0  0  0  0  0  0  0  0
   36.0842   10.2793  -11.6752 C   0  0  0  0  0  0  0  0  0  0  0  0
   36.8465   11.1577  -12.6486 C   0  0  0  0  0  0  0  0  0  0  0  0
   38.3386   10.9775  -12.4441 C   0  0  0  0  0  0  0  0  0  0  0  0
   39.1009   11.8560  -13.4175 C   0  0  0  0  0  0  0  0  0  0  0  0
   40.5930   11.6758  -13.2130 C   0  0  0  0  0  0  0  0  0  0  0  0
   41.3553   12.5527  -14.1877 C   0  0  0  0  0  0  0  0  0  0  0  0
   42.8474   12.3710  -13.9845 C   0  0  0  0  0  0  0  0  0  0  0  0
   43.6098   13.2464  -14.9607 C   0  0  0  0  0  0  0  0  0  0  0  0
   45.1018   13.0633  -14.7588 C   0  0  0  0  0  0  0  0  0  0  0  0
   45.8642   13.9372  -15.7363 C   0  0  0  0  0  0  0  0  0  0  0  0
   47.3562   13.7555  -15.5331 C   0  0  0  0  0  0  0  0  0  0  0  0
   48.1186   14.6294  -16.5106 C   0  0  0  0  0  0  0  0  0  0  0  0
   49.6106   14.4477  -16.3074 C   0  0  0  0  0  0  0  0  0  0  0  0
   50.3730   15.3216  -17.2849 C   0  0  0  0  0  0  0  0  0  0  0  0
   51.8650   15.1400  -17.0817 C   0  0  0  0  0  0  0  0  0  0  0  0
   52.6274   16.0139  -18.0591 C   0  0  0  0  0  0  0  0  0  0  0  0
   54.1194   15.8337  -17.8546 C   0  0  0  0  0  0  0  0  0  0  0  0
   54.8818   16.7091  -18.8307 C   0  0  0  0  0  0  0  0  0  0  0  0
   56.3738   16.5275  -18.6275 C   0  0  0  0  0  0  0  0  0  0  0  0
   57.1362   17.4028  -19.6037 C   0  0  0  0  0  0  0  0  0  0  0  0
   58.6282   17.2227  -19.3991 C   0  0  0  0  0  0  0  0  0  0  0  0
   59.3906   18.0966  -20.3766 C   0  0  0  0  0  0  0  0  0  0  0  0
   60.8826   17.9179  -20.1707 C   0  0  0  0  0  0  0  0  0  0  0  0
   61.6450   18.7933  -21.1468 C   0  0  0  0  0  0  0  0  0  0  0  0
   63.1370   18.6162  -20.9396 C   0  0  0  0  0  0  0  0  0  0  0  0
   63.8994   19.4931  -21.9144 C   0  0  0  0  0  0  0  0  0  0  0  0
   65.3914   19.3160  -21.7072 C   0  0  0  0  0  0  0  0  0  0  0  0
   66.1538   20.1914  -22.6833 C   0  0  0  0  0  0  0  0  0  0  0  0
   67.6458   20.0142  -22.4761 C   0  0  0  0  0  0  0  0  0  0  0  0
   68.4082   20.8896  -23.4522 C   0  0  0  0  0  0  0  0  0  0  0  0
   69.9002   20.7125  -23.2450 C   0  0  0  0  0  0  0  0  0  0  0  0
   70.6626   21.5879  -24.2211 C   0  0  0  0  0  0  0  0  0  0  0  0
   72.1546   21.4107  -24.0139 C   0  0  0  0  0  0  0  0  0  0  0  0
   72.9170   22.2861  -24.9900 C   0  0  0  0  0  0  0  0  0  0  0  0
   74.4089   22.1090  -24.7828 C   0  0  0  0  0  0  0  0  0  0  0  0
   75.1714   22.9844  -25.7589 C   0  0  0  0  0  0  0  0  0  0  0  0
   76.6634   22.8072  -25.5517 C   0  0  0  0  0  0  0  0  0  0  0  0
   77.4258   23.6841  -26.5265 C   0  0  0  0  0  0  0  0  0  0  0  0
   78.9178   23.5070  -26.3193 C   0  0  0  0  0  0  0  0  0  0  0  0
   79.6803   24.3839  -27.2940 C   0  0  0  0  0  0  0  0  0  0  0  0
   81.1725   24.2069  -27.0869 C   0  0  0  0  0  0  0  0  0  0  0  0
   81.9353   25.0837  -28.0616 C   0  0  0  0  0  0  0  0  0  0  0  0
   83.4279   24.9066  -27.8545 C   0  0  0  0  0  0  0  0  0  0  0  0
   84.1908   25.7826  -28.8314 C   0  0  0  0  0  0  0  0  0  0  0  0
   85.6849   25.6084  -28.6274 C   0  0  0  0  0  0  0  0  0  0  0  0
   86.4488   26.4850  -29.6048 C   0  0  0  0  0  0  0  0  0  0  0  0
   87.9446   26.3114  -29.3985 C   0  0  0  0  0  0  0  0  0  0  0  0
   88.7199   27.1865  -30.3712 C   0  0  0  0  0  0  0  0  0  0  0  0
   90.2114   27.0115  -30.1633 C   0  0  0  0  0  0  0  0  0  0  0  0
    0.9116   -1.6392    0.1741 H   0  0  0  0  0  0  0  0  0  0  0  0
    1.3048   -1.2098   -1.5952 H   0  0  0  0  0  0  0  0  0  0  0  0
    2.4596    0.0579    0.9520 H   0  0  0  0  0  0  0  0  0  0  0  0
    2.8319    1.8113   -0.9101 H   0  0  0  0  0  0  0  0  0  0  0  0
    2.8421    0.5067   -2.0979 H   0  0  0  0  0  0  0  0  0  0  0  0
    4.8814   -0.4689   -1.0215 H   0  0  0  0  0  0  0  0  0  0  0  0
    4.8856    0.8469    0.1593 H   0  0  0  0  0  0  0  0  0  0  0  0
    5.0868    2.5150   -1.6907 H   0  0  0  0  0  0  0  0  0  0  0  0
    5.0825    1.1976   -2.8804 H   0  0  0  0  0  0  0  0  0  0  0  0
    7.0452    0.3140   -1.8042 H   0  0  0  0  0  0  0  0  0  0  0  0
    7.2664    3.1880   -2.4457 H   0  0  0  0  0  0  0  0  0  0  0  0
    7.2623    1.8702   -3.6362 H   0  0  0  0  0  0  0  0  0  0  0  0
    9.2952    0.8952   -2.5444 H   0  0  0  0  0  0  0  0  0  0  0  0
    9.2936    2.2126   -1.3661 H   0  0  0  0  0  0  0  0  0  0  0  0
    9.5172    3.8747   -3.2256 H   0  0  0  0  0  0  0  0  0  0  0  0
    9.5153    2.5590   -4.4029 H   0  0  0  0  0  0  0  0  0  0  0  0
   11.5545    1.5900   -3.3260 H   0  0  0  0  0  0  0  0  0  0  0  0
   11.5563    2.9043   -2.1458 H   0  0  0  0  0  0  0  0  0  0  0  0
   11.7752    4.5702   -4.0005 H   0  0  0  0  0  0  0  0  0  0  0  0
   11.7714    3.2569   -5.1814 H   0  0  0  0  0  0  0  0  0  0  0  0
   13.8093    2.2822   -4.1053 H   0  0  0  0  0  0  0  0  0  0  0  0
   13.8127    3.5940   -2.9225 H   0  0  0  0  0  0  0  0  0  0  0  0
   14.0302    5.2630   -4.7753 H   0  0  0  0  0  0  0  0  0  0  0  0
   14.0289    3.9504   -5.9572 H   0  0  0  0  0  0  0  0  0  0  0  0
   16.0656    2.9762   -4.8774 H   0  0  0  0  0  0  0  0  0  0  0  0
   16.0670    4.2888   -3.6955 H   0  0  0  0  0  0  0  0  0  0  0  0
   16.2862    5.9570   -5.5474 H   0  0  0  0  0  0  0  0  0  0  0  0
   16.2828    4.6452   -6.7302 H   0  0  0  0  0  0  0  0  0  0  0  0
   18.3191    3.6681   -5.6513 H   0  0  0  0  0  0  0  0  0  0  0  0
   18.3229    4.9815   -4.4703 H   0  0  0  0  0  0  0  0  0  0  0  0
   18.5399    6.6479   -6.3254 H   0  0  0  0  0  0  0  0  0  0  0  0
   18.5381    5.3335   -7.5054 H   0  0  0  0  0  0  0  0  0  0  0  0
   20.5745    4.3602   -6.4232 H   0  0  0  0  0  0  0  0  0  0  0  0
   20.5765    5.6761   -5.2450 H   0  0  0  0  0  0  0  0  0  0  0  0
   20.7934    7.3387   -7.1034 H   0  0  0  0  0  0  0  0  0  0  0  0
   20.7934    6.0220   -8.2807 H   0  0  0  0  0  0  0  0  0  0  0  0
   22.8301    5.0529   -7.1980 H   0  0  0  0  0  0  0  0  0  0  0  0
   22.8297    6.3681   -6.0189 H   0  0  0  0  0  0  0  0  0  0  0  0
   23.0487    8.0323   -7.8740 H   0  0  0  0  0  0  0  0  0  0  0  0
   23.0471    6.7181   -9.0540 H   0  0  0  0  0  0  0  0  0  0  0  0
   25.0837    5.7453   -7.9746 H   0  0  0  0  0  0  0  0  0  0  0  0
   25.0849    7.0580   -6.7928 H   0  0  0  0  0  0  0  0  0  0  0  0
   25.3019    8.7257   -8.6465 H   0  0  0  0  0  0  0  0  0  0  0  0
   25.3027    7.4122   -9.8274 H   0  0  0  0  0  0  0  0  0  0  0  0
   27.3392    6.4407   -8.7452 H   0  0  0  0  0  0  0  0  0  0  0  0
   27.3383    7.7542   -7.5643 H   0  0  0  0  0  0  0  0  0  0  0  0
   27.5552    9.4208   -9.4190 H   0  0  0  0  0  0  0  0  0  0  0  0
   27.5582    8.1065  -10.5990 H   0  0  0  0  0  0  0  0  0  0  0  0
   29.5947    7.1375   -9.5145 H   0  0  0  0  0  0  0  0  0  0  0  0
   29.5916    8.4519   -8.3345 H   0  0  0  0  0  0  0  0  0  0  0  0
   29.8096   10.1175  -10.1893 H   0  0  0  0  0  0  0  0  0  0  0  0
   29.8127    8.8032  -11.3692 H   0  0  0  0  0  0  0  0  0  0  0  0
   31.8491    7.8343  -10.2847 H   0  0  0  0  0  0  0  0  0  0  0  0
   31.8460    9.1486   -9.1048 H   0  0  0  0  0  0  0  0  0  0  0  0
   32.0640   10.8143  -10.9595 H   0  0  0  0  0  0  0  0  0  0  0  0
   32.0671    9.4999  -12.1395 H   0  0  0  0  0  0  0  0  0  0  0  0
   34.1035    8.5310  -11.0550 H   0  0  0  0  0  0  0  0  0  0  0  0
   34.1004    9.8453   -9.8750 H   0  0  0  0  0  0  0  0  0  0  0  0
   34.3184   11.5110  -11.7297 H   0  0  0  0  0  0  0  0  0  0  0  0
   34.3215   10.1967  -12.9097 H   0  0  0  0  0  0  0  0  0  0  0  0
   36.3581    9.2280  -11.8266 H   0  0  0  0  0  0  0  0  0  0  0  0
   36.3546   10.5407  -10.6448 H   0  0  0  0  0  0  0  0  0  0  0  0
   36.5726   12.2090  -12.4972 H   0  0  0  0  0  0  0  0  0  0  0  0
   36.5761   10.8963  -13.6790 H   0  0  0  0  0  0  0  0  0  0  0  0
   38.6125    9.9263  -12.5955 H   0  0  0  0  0  0  0  0  0  0  0  0
   38.6090   11.2389  -11.4137 H   0  0  0  0  0  0  0  0  0  0  0  0
   38.8270   12.9072  -13.2661 H   0  0  0  0  0  0  0  0  0  0  0  0
   38.8305   11.5945  -14.4479 H   0  0  0  0  0  0  0  0  0  0  0  0
   40.8667   10.6242  -13.3630 H   0  0  0  0  0  0  0  0  0  0  0  0
   40.8636   11.9385  -12.1830 H   0  0  0  0  0  0  0  0  0  0  0  0
   41.0827   13.6044  -14.0368 H   0  0  0  0  0  0  0  0  0  0  0  0
   41.0836   12.2908  -15.2176 H   0  0  0  0  0  0  0  0  0  0  0  0
   43.1198   11.3191  -14.1341 H   0  0  0  0  0  0  0  0  0  0  0  0
   43.1194   12.6342  -12.9550 H   0  0  0  0  0  0  0  0  0  0  0  0
   43.3384   14.2985  -14.8102 H   0  0  0  0  0  0  0  0  0  0  0  0
   43.3367   12.9842  -15.9901 H   0  0  0  0  0  0  0  0  0  0  0  0
   45.3729   12.0109  -14.9080 H   0  0  0  0  0  0  0  0  0  0  0  0
   45.3750   13.3268  -13.7297 H   0  0  0  0  0  0  0  0  0  0  0  0
   45.5920   14.9894  -15.5881 H   0  0  0  0  0  0  0  0  0  0  0  0
   45.5919   13.6726  -16.7654 H   0  0  0  0  0  0  0  0  0  0  0  0
   47.6284   12.7033  -15.6813 H   0  0  0  0  0  0  0  0  0  0  0  0
   47.6284   14.0201  -14.5040 H   0  0  0  0  0  0  0  0  0  0  0  0
   47.8464   15.6816  -16.3624 H   0  0  0  0  0  0  0  0  0  0  0  0
   47.8464   14.3648  -17.5397 H   0  0  0  0  0  0  0  0  0  0  0  0
   49.8828   13.3955  -16.4555 H   0  0  0  0  0  0  0  0  0  0  0  0
   49.8828   14.7123  -15.2783 H   0  0  0  0  0  0  0  0  0  0  0  0
   50.1008   16.3738  -17.1367 H   0  0  0  0  0  0  0  0  0  0  0  0
   50.1008   15.0571  -18.3140 H   0  0  0  0  0  0  0  0  0  0  0  0
   52.1372   14.0878  -17.2298 H   0  0  0  0  0  0  0  0  0  0  0  0
   52.1372   15.4045  -16.0525 H   0  0  0  0  0  0  0  0  0  0  0  0
   52.3541   17.0659  -17.9119 H   0  0  0  0  0  0  0  0  0  0  0  0
   52.3562   15.7483  -19.0883 H   0  0  0  0  0  0  0  0  0  0  0  0
   54.3929   14.7819  -18.0032 H   0  0  0  0  0  0  0  0  0  0  0  0
   54.3904   16.0979  -16.8251 H   0  0  0  0  0  0  0  0  0  0  0  0
   54.6093   17.7610  -18.6811 H   0  0  0  0  0  0  0  0  0  0  0  0
   54.6098   16.4459  -19.8602 H   0  0  0  0  0  0  0  0  0  0  0  0
   56.6463   15.4755  -18.7771 H   0  0  0  0  0  0  0  0  0  0  0  0
   56.6458   16.7907  -17.5980 H   0  0  0  0  0  0  0  0  0  0  0  0
   56.8627   18.4547  -19.4551 H   0  0  0  0  0  0  0  0  0  0  0  0
   56.8652   17.1387  -20.6332 H   0  0  0  0  0  0  0  0  0  0  0  0
   58.9015   16.1706  -19.5463 H   0  0  0  0  0  0  0  0  0  0  0  0
   58.8993   17.4882  -18.3700 H   0  0  0  0  0  0  0  0  0  0  0  0
   59.1162   19.1485  -20.2303 H   0  0  0  0  0  0  0  0  0  0  0  0
   59.1206   17.8301  -21.4058 H   0  0  0  0  0  0  0  0  0  0  0  0
   61.1572   16.8663  -20.3183 H   0  0  0  0  0  0  0  0  0  0  0  0
   61.1524   18.1831  -19.1411 H   0  0  0  0  0  0  0  0  0  0  0  0
   61.3693   19.8448  -21.0002 H   0  0  0  0  0  0  0  0  0  0  0  0
   61.3762   18.5272  -22.1765 H   0  0  0  0  0  0  0  0  0  0  0  0
   63.4129   17.5649  -21.0877 H   0  0  0  0  0  0  0  0  0  0  0  0
   63.4055   18.8810  -19.9096 H   0  0  0  0  0  0  0  0  0  0  0  0
   63.6235   20.5444  -21.7663 H   0  0  0  0  0  0  0  0  0  0  0  0
   63.6308   19.2283  -22.9444 H   0  0  0  0  0  0  0  0  0  0  0  0
   65.6671   18.2645  -21.8538 H   0  0  0  0  0  0  0  0  0  0  0  0
   65.6601   19.5821  -20.6775 H   0  0  0  0  0  0  0  0  0  0  0  0
   65.8781   21.2429  -22.5366 H   0  0  0  0  0  0  0  0  0  0  0  0
   65.8850   19.9252  -23.7129 H   0  0  0  0  0  0  0  0  0  0  0  0
   67.9214   18.9627  -22.6227 H   0  0  0  0  0  0  0  0  0  0  0  0
   67.9145   20.2803  -21.4465 H   0  0  0  0  0  0  0  0  0  0  0  0
   68.1325   21.9411  -23.3055 H   0  0  0  0  0  0  0  0  0  0  0  0
   68.1394   20.6235  -24.4818 H   0  0  0  0  0  0  0  0  0  0  0  0
   70.1758   19.6610  -23.3916 H   0  0  0  0  0  0  0  0  0  0  0  0
   70.1689   20.9786  -22.2154 H   0  0  0  0  0  0  0  0  0  0  0  0
   70.3869   22.6394  -24.0744 H   0  0  0  0  0  0  0  0  0  0  0  0
   70.3938   21.3217  -25.2507 H   0  0  0  0  0  0  0  0  0  0  0  0
   72.4302   20.3592  -24.1605 H   0  0  0  0  0  0  0  0  0  0  0  0
   72.4233   21.6768  -22.9843 H   0  0  0  0  0  0  0  0  0  0  0  0
   72.6413   23.3376  -24.8434 H   0  0  0  0  0  0  0  0  0  0  0  0
   72.6482   22.0200  -26.0196 H   0  0  0  0  0  0  0  0  0  0  0  0
   74.6846   21.0575  -24.9295 H   0  0  0  0  0  0  0  0  0  0  0  0
   74.6777   22.3751  -23.7532 H   0  0  0  0  0  0  0  0  0  0  0  0
   74.8957   24.0359  -25.6122 H   0  0  0  0  0  0  0  0  0  0  0  0
   74.9026   22.7183  -26.7886 H   0  0  0  0  0  0  0  0  0  0  0  0
   76.9392   21.7560  -25.6997 H   0  0  0  0  0  0  0  0  0  0  0  0
   76.9319   23.0720  -24.5217 H   0  0  0  0  0  0  0  0  0  0  0  0
   77.1498   24.7354  -26.3784 H   0  0  0  0  0  0  0  0  0  0  0  0
   77.1572   23.4194  -27.5565 H   0  0  0  0  0  0  0  0  0  0  0  0
   79.1936   22.4557  -26.4673 H   0  0  0  0  0  0  0  0  0  0  0  0
   79.1863   23.7717  -25.2892 H   0  0  0  0  0  0  0  0  0  0  0  0
   79.4044   25.4352  -27.1460 H   0  0  0  0  0  0  0  0  0  0  0  0
   79.4117   24.1192  -28.3241 H   0  0  0  0  0  0  0  0  0  0  0  0
   81.4483   23.1555  -27.2349 H   0  0  0  0  0  0  0  0  0  0  0  0
   81.4409   24.4715  -26.0568 H   0  0  0  0  0  0  0  0  0  0  0  0
   81.6591   26.1350  -27.9137 H   0  0  0  0  0  0  0  0  0  0  0  0
   81.6665   24.8190  -29.0917 H   0  0  0  0  0  0  0  0  0  0  0  0
   83.7032   23.8550  -28.0011 H   0  0  0  0  0  0  0  0  0  0  0  0
   83.6962   25.1727  -26.8248 H   0  0  0  0  0  0  0  0  0  0  0  0
   83.9133   26.8335  -28.6843 H   0  0  0  0  0  0  0  0  0  0  0  0
   83.9203   25.5161  -29.8602 H   0  0  0  0  0  0  0  0  0  0  0  0
   85.9612   24.5571  -28.7736 H   0  0  0  0  0  0  0  0  0  0  0  0
   85.9542   25.8741  -27.5979 H   0  0  0  0  0  0  0  0  0  0  0  0
   86.1699   27.5357  -29.4581 H   0  0  0  0  0  0  0  0  0  0  0  0
   86.1790   26.2171  -30.6337 H   0  0  0  0  0  0  0  0  0  0  0  0
   88.2175   25.2585  -29.5427 H   0  0  0  0  0  0  0  0  0  0  0  0
   88.2080   26.5744  -28.3664 H   0  0  0  0  0  0  0  0  0  0  0  0
   88.4481   28.2384  -30.2249 H   0  0  0  0  0  0  0  0  0  0  0  0
   88.4576   26.9217  -31.4021 H   0  0  0  0  0  0  0  0  0  0  0  0
   90.4946   27.2919  -29.1437 H   0  0  0  0  0  0  0  0  0  0  0  0
   90.7674   27.6406  -30.8626 H   0  0  0  0  0  0  0  0  0  0  0  0
   90.5041   25.9693  -30.3261 H   0  0  0  0  0  0  0  0  0  0  0  0
  1  2  2  0  0  0  0
  1 81  1  0  0  0  0
  1 82  1  0  0  0  0
  2  3  1  0  0  0  0
  2 83  1  0  0  0  0
  3  4  1  0  0  0  0
  3 84  1  0  0  0  0
  3 85  1  0  0  0  0
  4  5  1  0  0  0  0
  4 86  1  0  0  0  0
  4 87  1  0  0  0  0
  5  6  1  0  0  0  0
  5 88  1  0  0  0  0
  5 89  1  0  0  0  0
  6  7  1  0  0  0  0
  6 90  1  0  0  0  0
  7  8  1  0  0  0  0
  7 91  1  0  0  0  0
  7 92  1  0  0  0  0
  8  9  1  0  0  0  0
  8 93  1  0  0  0  0
  8 94  1  0  0  0  0
  9 10  1  0  0  0  0
  9 95  1  0  0  0  0
  9 96  1  0  0  0  0
 10 11  1  0  0  0  0
 10 97  1  0  0  0  0
 10 98  1  0  0  0  0
 11 12  1  0  0  0  0
 11 99  1  0  0  0  0
 11100  1  0  0  0  0
 12 13  1  0  0  0  0
 12101  1  0  0  0  0
 12102  1  0  0  0  0
 13 14  1  0  0  0  0
 13103  1  0  0  0  0
 13104  1  0  0  0  0
 14 15  1  0  0  0  0
 14105  1  0  0  0  0
 14106  1  0  0  0  0
 15 16  1  0  0  0  0
 15107  1  0  0  0  0
 15108  1  0  0  0  0
 16 17  1  0  0  0  0
 16109  1  0  0  0  0
 16110  1  0  0  0  0
 17 18  1  0  0  0  0
 17111  1  0  0  0  0
 17112  1  0  0  0  0
 18 19  1  0  0  0  0
 18113  1  0  0  0  0
 18114  1  0  0  0  0
 19 20  1  0  0  0  0
 19115  1  0  0  0  0
 19116  1  0  0  0  0
 20 21  1  0  0  0  0
 20117  1  0  0  0  0
 20118  1  0  0  0  0
 21 22  1  0  0  0  0
 21119  1  0  0  0  0
 21120  1  0  0  0  0
 22 23  1  0  0  0  0
 22121  1  0  0  0  0
 22122  1  0  0  0  0
 23 24  1  0  0  0  0
 23123  1  0  0  0  0
 23124  1  0  0  0  0
 24 25  1  0  0  0  0
 24125  1  0  0  0  0
 24126  1  0  0  0  0
 25 26  1  0  0  0  0
 25127  1  0  0  0  0
 25128  1  0  0  0  0
 26 27  1  0  0  0  0
 26129  1  0  0  0  0
 26130  1  0  0  0  0
 27 28  1  0  0  0  0
 27131  1  0  0  0  0
 27132  1  0  0  0  0
 28 29  1  0  0  0  0
 28133  1  0  0  0  0
 28134  1  0  0  0  0
 29 30  1  0  0  0  0
 29135  1  0  0  0  0
 29136  1  0  0  0  0
 30 31  1  0  0  0  0
 30137  1  0  0  0  0
 30138  1  0  0  0  0
 31 32  1  0  0  0  0
 31139  1  0  0  0  0
 31140  1  0  0  0  0
 32 33  1  0  0  0  0
 32141  1  0  0  0  0
 32142  1  0  0  0  0
 33 34  1  0  0  0  0
 33143  1  0  0  0  0
 33144  1  0  0  0  0
 34 35  1  0  0  0  0
 34145  1  0  0  0  0
 34146  1  0  0  0  0
 35 36  1  0  0  0  0
 35147  1  0  0  0  0
 35148  1  0  0  0  0
 36 37  1  0  0  0  0
 36149  1  0  0  0  0
 36150  1  0  0  0  0
 37 38  1  0  0  0  0
 37151  1  0  0  0  0
 37152  1  0  0  0  0
 38 39  1  0  0  0  0
 38153  1  0  0  0  0
 38154  1  0  0  0  0
 39 40  1  0  0  0  0
 39155  1  0  0  0  0
 39156  1  0  0  0  0
 40 41  1  0  0  0  0
 40157  1  0  0  0  0
 40158  1  0  0  0  0
 41 42  1  0  0  0  0
 41159  1  0  0  0  0
 41160  1  0  0  0  0
 42 43  1  0  0  0  0
 42161  1  0  0  0  0
 42162  1  0  0  0  0
 43 44  1  0  0  0  0
 43163  1  0  0  0  0
 43164  1  0  0  0  0
 44 45  1  0  0  0  0
 44165  1  0  0  0  0
 44166  1  0  0  0  0
 45 46  1  0  0  0  0
 45167  1  0  0  0  0
 45168  1  0  0  0  0
 46 47  1  0  0  0  0
 46169  1  0  0  0  0
 46170  1  0  0  0  0
 47 48  1  0  0  0  0
 47171  1  0  0  0  0
 47172  1  0  0  0  0
 48 49  1  0  0  0  0
 48173  1  0  0  0  0
 48174  1  0  0  0  0
 49 50  1  0  0  0  0
 49175  1  0  0  0  0
 49176  1  0  0  0  0
 50 51  1  0  0  0  0
 50177  1  0  0  0  0
 50178  1  0  0  0  0
 51 52  1  0  0  0  0
 51179  1  0  0  0  0
 51180  1  0  0  0  0
 52 53  1  0  0  0  0
 52181  1  0  0  0  0
 52182  1  0  0  0  0
 53 54  1  0  0  0  0
 53183  1  0  0  0  0
 53184  1  0  0  0  0
 54 55  1  0  0  0  0
 54185  1  0  0  0  0
 54186  1  0  0  0  0
 55 56  1  0  0  0  0
 55187  1  0  0  0  0
 55188  1  0  0  0  0
 56 57  1  0  0  0  0
 56189  1  0  0  0  0
 56190  1  0  0  0  0
 57 58  1  0  0  0  0
 57191  1  0  0  0  0
 57192  1  0  0  0  0
 58 59  1  0  0  0  0
 58193  1  0  0  0  0
 58194  1  0  0  0  0
 59 60  1  0  0  0  0
 59195  1  0  0  0  0
 59196  1  0  0  0  0
 60 61  1  0  0  0  0
 60197  1  0  0  0  0
 60198  1  0  0  0  0
 61 62  1  0  0  0  0
 61199  1  0  0  0  0
 61200  1  0  0  0  0
 62 63  1  0  0  0  0
 62201  1  0  0  0  0
 62202  1  0  0  0  0
 63 64  1  0  0  0  0
 63203  1  0  0  0  0
 63204  1  0  0  0  0
 64 65  1  0  0  0  0
 64205  1  0  0  0  0
 64206  1  0  0  0  0
 65 66  1  0  0  0  0
 65207  1  0  0  0  0
 65208  1  0  0  0  0
 66 67  1  0  0  0  0
 66209  1  0  0  0  0
 66210  1  0  0  0  0
 67 68  1  0  0  0  0
 67211  1  0  0  0  0
 67212  1  0  0  0  0
 68 69  1  0  0  0  0
 68213  1  0  0  0  0
 68214  1  0  0  0  0
 69 70  1  0  0  0  0
 69215  1  0  0  0  0
 69216  1  0  0  0  0
 70 71  1  0  0  0  0
 70217  1  0  0  0  0
 70218  1  0  0  0  0
 71 72  1  0  0  0  0
 71219  1  0  0  0  0
 71220  1  0  0  0  0
 72 73  1  0  0  0  0
 72221  1  0  0  0  0
 72222  1  0  0  0  0
 73 74  1  0  0  0  0
 73223  1  0  0  0  0
 73224  1  0  0  0  0
 74 75  1  0  0  0  0
 74225  1  0  0  0  0
 74226  1  0  0  0  0
 75 76  1  0  0  0  0
 75227  1  0  0  0  0
 75228  1  0  0  0  0
 76 77  1  0  0  0  0
 76229  1  0  0  0  0
 76230  1  0  0  0  0
 77 78  1  0  0  0  0
 77231  1  0  0  0  0
 77232  1  0  0  0  0
 78 79  1  0  0  0  0
 78233  1  0  0  0  0
 78234  1  0  0  0  0
 79 80  1  0  0  0  0
 79235  1  0  0  0  0
 79236  1  0  0  0  0
 80237  1  0  0  0  0
 80238  1  0  0  0  0
 80239  1  0  0  0  0
M  END
$$$$
