
 OpenBabel04232216403D

188187  0  0  0  0  0  0  0  0999 V2000
    6.8858    5.9802    0.3843 C   0  0  0  0  0  0  0  0  0  0  0  0
    7.6921    4.9490    0.5181 C   0  0  0  0  0  0  0  0  0  0  0  0
    8.3819    4.3031   -0.6552 C   0  0  0  0  0  0  0  0  0  0  0  0
    9.8969    4.3628   -0.5206 C   0  0  0  0  0  0  0  0  0  0  0  0
   10.5593    3.7139   -1.7302 C   0  0  0  0  0  0  0  0  0  0  0  0
   12.0727    3.7704   -1.5987 C   0  0  0  0  0  0  0  0  0  0  0  0
   12.7294    3.1245   -2.8069 C   0  0  0  0  0  0  0  0  0  0  0  0
   14.2403    3.1821   -2.6690 C   0  0  0  0  0  0  0  0  0  0  0  0
   14.8961    2.5370   -3.8759 C   0  0  0  0  0  0  0  0  0  0  0  0
   16.4056    2.5939   -3.7349 C   0  0  0  0  0  0  0  0  0  0  0  0
   17.0607    1.9507   -4.9423 C   0  0  0  0  0  0  0  0  0  0  0  0
   18.5696    2.0063   -4.7998 C   0  0  0  0  0  0  0  0  0  0  0  0
   19.2244    1.3649   -6.0081 C   0  0  0  0  0  0  0  0  0  0  0  0
   20.7332    1.4222   -5.8665 C   0  0  0  0  0  0  0  0  0  0  0  0
   21.3876    0.7808   -7.0751 C   0  0  0  0  0  0  0  0  0  0  0  0
   22.8965    0.8361   -6.9329 C   0  0  0  0  0  0  0  0  0  0  0  0
   23.5513    0.1930   -8.1403 C   0  0  0  0  0  0  0  0  0  0  0  0
   25.0601    0.2466   -7.9969 C   0  0  0  0  0  0  0  0  0  0  0  0
   25.7143   -0.3947   -9.2052 C   0  0  0  0  0  0  0  0  0  0  0  0
   27.2226   -0.3425   -9.0605 C   0  0  0  0  0  0  0  0  0  0  0  0
   27.8747   -0.9821  -10.2698 C   0  0  0  0  0  0  0  0  0  0  0  0
   29.3823   -0.9294  -10.1282 C   0  0  0  0  0  0  0  0  0  0  0  0
   30.0261   -1.5722  -11.3398 C   0  0  0  0  0  0  0  0  0  0  0  0
   31.5292   -1.5243  -11.2032 C   0  0  0  0  0  0  0  0  0  0  0  0
   32.1794   -2.1627  -12.4060 C   0  0  0  0  0  0  0  0  0  0  0  0
   33.5661   -2.0646  -12.1796 O   0  0  0  0  0  0  0  0  0  0  0  0
   34.1803   -2.6717  -13.3249 O   0  0  0  0  0  0  0  0  0  0  0  0
   35.6013   -2.6033  -13.1539 O   0  0  0  0  0  0  0  0  0  0  0  0
   36.1432   -3.2085  -14.2997 C   0  0  0  0  0  0  0  0  0  0  0  0
   37.5425   -3.1494  -14.1720 O   0  0  0  0  0  0  0  0  0  0  0  0
   38.0708   -3.7405  -15.3775 O   0  0  0  0  0  0  0  0  0  0  0  0
   39.4699   -3.7009  -15.1497 C   0  0  0  0  0  0  0  0  0  0  0  0
   39.8537   -4.3946  -13.9582 O   0  0  0  0  0  0  0  0  0  0  0  0
   39.4416   -5.7538  -14.0584 C   0  0  0  0  0  0  0  0  0  0  0  0
   40.1051   -6.3765  -15.1469 O   0  0  0  0  0  0  0  0  0  0  0  0
   39.7201   -7.7312  -15.2631 C   0  0  0  0  0  0  0  0  0  0  0  0
   40.4598   -8.3161  -16.4399 C   0  0  0  0  0  0  0  0  0  0  0  0
   41.9598   -8.1965  -16.2113 C   0  0  0  0  0  0  0  0  0  0  0  0
   42.7218   -8.7876  -17.3781 C   0  0  0  0  0  0  0  0  0  0  0  0
   44.2125   -8.6632  -17.1299 C   0  0  0  0  0  0  0  0  0  0  0  0
   44.9735   -9.2532  -18.2985 C   0  0  0  0  0  0  0  0  0  0  0  0
   46.4612   -9.1275  -18.0512 C   0  0  0  0  0  0  0  0  0  0  0  0
   47.2141   -9.7181  -19.2210 C   0  0  0  0  0  0  0  0  0  0  0  0
   48.6972   -9.5918  -18.9727 C   0  0  0  0  0  0  0  0  0  0  0  0
   49.4323  -10.1840  -20.1455 C   0  0  0  0  0  0  0  0  0  0  0  0
   50.9059  -10.0560  -19.8938 C   0  0  0  0  0  0  0  0  0  0  0  0
   51.6339  -10.6428  -21.0581 C   0  0  0  0  0  0  0  0  0  0  0  0
   52.9817  -10.4639  -20.7405 O   0  0  0  0  0  0  0  0  0  0  0  0
   53.6629  -11.0164  -21.8710 O   0  0  0  0  0  0  0  0  0  0  0  0
   55.0601  -10.9148  -21.6388 O   0  0  0  0  0  0  0  0  0  0  0  0
   55.3523  -11.6078  -20.4269 O   0  0  0  0  0  0  0  0  0  0  0  0
   56.7300  -11.4856  -20.1661 O   0  0  0  0  0  0  0  0  0  0  0  0
   57.0188  -12.1898  -18.9824 O   0  0  0  0  0  0  0  0  0  0  0  0
   58.3996  -12.0743  -18.7355 O   0  0  0  0  0  0  0  0  0  0  0  0
   58.6862  -12.7796  -17.5460 O   0  0  0  0  0  0  0  0  0  0  0  0
   60.0638  -12.5944  -17.4046 C   0  0  0  0  0  0  0  0  0  0  0  0
   60.3824  -13.3324  -16.1506 C   0  0  0  0  0  0  0  0  0  0  0  0
   61.8502  -13.2014  -15.8963 C   0  0  0  0  0  0  0  0  0  0  0  0
   62.1699  -13.9474  -14.6332 C   0  0  0  0  0  0  0  0  0  0  0  0
   63.6452  -13.8154  -14.3782 C   0  0  0  0  0  0  0  0  0  0  0  0
   63.9742  -14.5578  -13.1179 C   0  0  0  0  0  0  0  0  0  0  0  0
   65.4524  -14.4176  -12.8747 C   0  0  0  0  0  0  0  0  0  0  0  0
   65.7776  -15.1572  -11.6199 C   0  0  0  0  0  0  0  0  0  0  0  0
   67.2379  -15.0172  -11.3820 C   0  0  0  0  0  0  0  0  0  0  0  0
   67.4242  -15.7363  -10.2025 O   0  0  0  0  0  0  0  0  0  0  0  0
   68.8065  -15.5978   -9.9867 O   0  0  0  0  0  0  0  0  0  0  0  0
   69.1242  -16.2883   -8.8105 O   0  0  0  0  0  0  0  0  0  0  0  0
   70.4991  -16.1497   -8.5971 O   0  0  0  0  0  0  0  0  0  0  0  0
   70.8029  -16.8413   -7.4278 O   0  0  0  0  0  0  0  0  0  0  0  0
   72.1817  -16.7114   -7.2035 O   0  0  0  0  0  0  0  0  0  0  0  0
   72.4719  -17.4053   -6.0304 O   0  0  0  0  0  0  0  0  0  0  0  0
   73.8458  -17.2827   -5.7917 O   0  0  0  0  0  0  0  0  0  0  0  0
   74.1299  -17.9809   -4.6182 O   0  0  0  0  0  0  0  0  0  0  0  0
   75.5029  -17.8632   -4.3767 O   0  0  0  0  0  0  0  0  0  0  0  0
   75.7880  -18.5698   -3.1929 O   0  0  0  0  0  0  0  0  0  0  0  0
   77.1660  -18.3835   -3.0560 C   0  0  0  0  0  0  0  0  0  0  0  0
   77.4834  -19.1269   -1.8053 C   0  0  0  0  0  0  0  0  0  0  0  0
   78.9556  -19.0005   -1.5501 C   0  0  0  0  0  0  0  0  0  0  0  0
   79.2960  -19.7484   -0.2815 C   0  0  0  0  0  0  0  0  0  0  0  0
   80.7768  -19.6270   -0.0160 C   0  0  0  0  0  0  0  0  0  0  0  0
    6.3926    6.4356    1.2558 H   0  0  0  0  0  0  0  0  0  0  0  0
    6.6743    6.4265   -0.5917 H   0  0  0  0  0  0  0  0  0  0  0  0
    7.8789    4.5286    1.5103 H   0  0  0  0  0  0  0  0  0  0  0  0
    8.0828    4.8114   -1.5815 H   0  0  0  0  0  0  0  0  0  0  0  0
    8.0592    3.2611   -0.7404 H   0  0  0  0  0  0  0  0  0  0  0  0
   10.2163    3.8457    0.3932 H   0  0  0  0  0  0  0  0  0  0  0  0
   10.2300    5.4050   -0.4359 H   0  0  0  0  0  0  0  0  0  0  0  0
   10.2491    4.2282   -2.6485 H   0  0  0  0  0  0  0  0  0  0  0  0
   10.2353    2.6694   -1.8198 H   0  0  0  0  0  0  0  0  0  0  0  0
   12.3880    3.2527   -0.6845 H   0  0  0  0  0  0  0  0  0  0  0  0
   12.4017    4.8131   -1.5113 H   0  0  0  0  0  0  0  0  0  0  0  0
   12.4194    3.6418   -3.7232 H   0  0  0  0  0  0  0  0  0  0  0  0
   12.4036    2.0809   -2.8975 H   0  0  0  0  0  0  0  0  0  0  0  0
   14.5526    2.6641   -1.7538 H   0  0  0  0  0  0  0  0  0  0  0  0
   14.5685    4.2250   -2.5796 H   0  0  0  0  0  0  0  0  0  0  0  0
   14.5868    3.0554   -4.7918 H   0  0  0  0  0  0  0  0  0  0  0  0
   14.5688    1.4939   -3.9670 H   0  0  0  0  0  0  0  0  0  0  0  0
   16.7159    2.0740   -2.8201 H   0  0  0  0  0  0  0  0  0  0  0  0
   16.7339    3.6366   -3.6429 H   0  0  0  0  0  0  0  0  0  0  0  0
   16.7521    2.4715   -5.8572 H   0  0  0  0  0  0  0  0  0  0  0  0
   16.7320    0.9083   -5.0355 H   0  0  0  0  0  0  0  0  0  0  0  0
   18.8787    1.4842   -3.8858 H   0  0  0  0  0  0  0  0  0  0  0  0
   18.8985    3.0485   -4.7054 H   0  0  0  0  0  0  0  0  0  0  0  0
   18.9144    1.8860   -6.9224 H   0  0  0  0  0  0  0  0  0  0  0  0
   18.8967    0.3222   -6.1018 H   0  0  0  0  0  0  0  0  0  0  0  0
   21.0433    0.9012   -4.9523 H   0  0  0  0  0  0  0  0  0  0  0  0
   21.0610    2.4649   -5.7728 H   0  0  0  0  0  0  0  0  0  0  0  0
   21.0784    1.3028   -7.9890 H   0  0  0  0  0  0  0  0  0  0  0  0
   21.0585   -0.2614   -7.1695 H   0  0  0  0  0  0  0  0  0  0  0  0
   23.2054    0.3152   -6.0182 H   0  0  0  0  0  0  0  0  0  0  0  0
   23.2255    1.8784   -6.8399 H   0  0  0  0  0  0  0  0  0  0  0  0
   23.2437    0.7146   -9.0550 H   0  0  0  0  0  0  0  0  0  0  0  0
   23.2215   -0.8490   -8.2343 H   0  0  0  0  0  0  0  0  0  0  0  0
   25.3682   -0.2764   -7.0832 H   0  0  0  0  0  0  0  0  0  0  0  0
   25.3904    1.2884   -7.9018 H   0  0  0  0  0  0  0  0  0  0  0  0
   25.4079    0.1290  -10.1192 H   0  0  0  0  0  0  0  0  0  0  0  0
   25.3837   -1.4363   -9.3016 H   0  0  0  0  0  0  0  0  0  0  0  0
   27.5303   -0.8680   -8.1480 H   0  0  0  0  0  0  0  0  0  0  0  0
   27.5544    0.6986   -8.9635 H   0  0  0  0  0  0  0  0  0  0  0  0
   27.5670   -0.4580  -11.1831 H   0  0  0  0  0  0  0  0  0  0  0  0
   27.5450   -2.0240  -10.3667 H   0  0  0  0  0  0  0  0  0  0  0  0
   29.6932   -1.4530   -9.2155 H   0  0  0  0  0  0  0  0  0  0  0  0
   29.7153    0.1118  -10.0341 H   0  0  0  0  0  0  0  0  0  0  0  0
   29.7180   -1.0472  -12.2521 H   0  0  0  0  0  0  0  0  0  0  0  0
   29.6937   -2.6132  -11.4341 H   0  0  0  0  0  0  0  0  0  0  0  0
   31.8541   -2.0401  -10.2901 H   0  0  0  0  0  0  0  0  0  0  0  0
   31.8782   -0.4884  -11.1006 H   0  0  0  0  0  0  0  0  0  0  0  0
   31.9130   -1.6316  -13.3267 H   0  0  0  0  0  0  0  0  0  0  0  0
   31.8905   -3.2157  -12.4980 H   0  0  0  0  0  0  0  0  0  0  0  0
   35.8390   -2.6601  -15.1969 H   0  0  0  0  0  0  0  0  0  0  0  0
   35.8192   -4.2529  -14.3643 H   0  0  0  0  0  0  0  0  0  0  0  0
   39.7782   -2.6551  -15.0670 H   0  0  0  0  0  0  0  0  0  0  0  0
   39.9826   -4.1337  -16.0137 H   0  0  0  0  0  0  0  0  0  0  0  0
   38.3542   -5.8289  -14.1940 H   0  0  0  0  0  0  0  0  0  0  0  0
   39.7106   -6.2638  -13.1298 H   0  0  0  0  0  0  0  0  0  0  0  0
   38.6408   -7.7943  -15.4204 H   0  0  0  0  0  0  0  0  0  0  0  0
   39.9922   -8.2515  -14.3417 H   0  0  0  0  0  0  0  0  0  0  0  0
   40.1820   -7.7909  -17.3631 H   0  0  0  0  0  0  0  0  0  0  0  0
   40.1751   -9.3689  -16.5656 H   0  0  0  0  0  0  0  0  0  0  0  0
   42.2361   -8.7142  -15.2839 H   0  0  0  0  0  0  0  0  0  0  0  0
   42.2435   -7.1440  -16.0851 H   0  0  0  0  0  0  0  0  0  0  0  0
   42.4512   -8.2651  -18.3036 H   0  0  0  0  0  0  0  0  0  0  0  0
   42.4495   -9.8418  -17.5058 H   0  0  0  0  0  0  0  0  0  0  0  0
   44.4850   -9.1855  -16.2043 H   0  0  0  0  0  0  0  0  0  0  0  0
   44.4863   -7.6088  -16.9996 H   0  0  0  0  0  0  0  0  0  0  0  0
   44.7033   -8.7322  -19.2253 H   0  0  0  0  0  0  0  0  0  0  0  0
   44.7041  -10.3087  -18.4287 H   0  0  0  0  0  0  0  0  0  0  0  0
   46.7372   -9.6500  -17.1270 H   0  0  0  0  0  0  0  0  0  0  0  0
   46.7363   -8.0732  -17.9236 H   0  0  0  0  0  0  0  0  0  0  0  0
   46.9456   -9.1972  -20.1485 H   0  0  0  0  0  0  0  0  0  0  0  0
   46.9465  -10.7740  -19.3518 H   0  0  0  0  0  0  0  0  0  0  0  0
   48.9782  -10.1154  -18.0503 H   0  0  0  0  0  0  0  0  0  0  0  0
   48.9773   -8.5384  -18.8471 H   0  0  0  0  0  0  0  0  0  0  0  0
   49.1667   -9.6624  -21.0735 H   0  0  0  0  0  0  0  0  0  0  0  0
   49.1676  -11.2407  -20.2761 H   0  0  0  0  0  0  0  0  0  0  0  0
   51.2037  -10.5720  -18.9717 H   0  0  0  0  0  0  0  0  0  0  0  0
   51.2025   -9.0072  -19.7622 H   0  0  0  0  0  0  0  0  0  0  0  0
   51.4111  -10.1136  -21.9906 H   0  0  0  0  0  0  0  0  0  0  0  0
   51.4169  -11.7100  -21.1825 H   0  0  0  0  0  0  0  0  0  0  0  0
   60.2929  -11.5253  -17.3206 H   0  0  0  0  0  0  0  0  0  0  0  0
   60.5902  -13.0120  -18.2711 H   0  0  0  0  0  0  0  0  0  0  0  0
   60.0819  -14.3847  -16.2499 H   0  0  0  0  0  0  0  0  0  0  0  0
   59.7904  -12.9273  -15.3181 H   0  0  0  0  0  0  0  0  0  0  0  0
   62.1235  -12.1434  -15.7999 H   0  0  0  0  0  0  0  0  0  0  0  0
   62.4175  -13.6111  -16.7411 H   0  0  0  0  0  0  0  0  0  0  0  0
   61.8913  -15.0042  -14.7329 H   0  0  0  0  0  0  0  0  0  0  0  0
   61.5973  -13.5369  -13.7919 H   0  0  0  0  0  0  0  0  0  0  0  0
   63.9214  -12.7580  -14.2809 H   0  0  0  0  0  0  0  0  0  0  0  0
   64.2153  -14.2248  -15.2216 H   0  0  0  0  0  0  0  0  0  0  0  0
   63.7073  -15.6175  -13.2094 H   0  0  0  0  0  0  0  0  0  0  0  0
   63.4133  -14.1501  -12.2683 H   0  0  0  0  0  0  0  0  0  0  0  0
   65.7313  -13.3613  -12.7733 H   0  0  0  0  0  0  0  0  0  0  0  0
   66.0255  -14.8295  -13.7149 H   0  0  0  0  0  0  0  0  0  0  0  0
   65.5146  -16.2205  -11.6918 H   0  0  0  0  0  0  0  0  0  0  0  0
   65.2229  -14.7644  -10.7579 H   0  0  0  0  0  0  0  0  0  0  0  0
   67.5396  -13.9723  -11.2357 H   0  0  0  0  0  0  0  0  0  0  0  0
   67.8373  -15.4581  -12.1886 H   0  0  0  0  0  0  0  0  0  0  0  0
   77.3869  -17.3114   -2.9765 H   0  0  0  0  0  0  0  0  0  0  0  0
   77.6824  -18.7945   -3.9330 H   0  0  0  0  0  0  0  0  0  0  0  0
   77.1754  -20.1741   -1.9157 H   0  0  0  0  0  0  0  0  0  0  0  0
   76.8880  -18.7198   -0.9786 H   0  0  0  0  0  0  0  0  0  0  0  0
   79.2236  -17.9407   -1.4610 H   0  0  0  0  0  0  0  0  0  0  0  0
   79.5127  -19.4068   -2.4030 H   0  0  0  0  0  0  0  0  0  0  0  0
   79.0124  -20.8026   -0.3846 H   0  0  0  0  0  0  0  0  0  0  0  0
   78.7232  -19.3360    0.5576 H   0  0  0  0  0  0  0  0  0  0  0  0
   81.3488  -20.0470   -0.8502 H   0  0  0  0  0  0  0  0  0  0  0  0
   81.0387  -20.1619    0.8970 H   0  0  0  0  0  0  0  0  0  0  0  0
   81.0584  -18.5745    0.0959 H   0  0  0  0  0  0  0  0  0  0  0  0
  1  2  2  0  0  0  0
  1 81  1  0  0  0  0
  1 82  1  0  0  0  0
  2  3  1  0  0  0  0
  2 83  1  0  0  0  0
  3  4  1  0  0  0  0
  3 84  1  0  0  0  0
  3 85  1  0  0  0  0
  4  5  1  0  0  0  0
  4 86  1  0  0  0  0
  4 87  1  0  0  0  0
  5  6  1  0  0  0  0
  5 88  1  0  0  0  0
  5 89  1  0  0  0  0
  6  7  1  0  0  0  0
  6 90  1  0  0  0  0
  6 91  1  0  0  0  0
  7  8  1  0  0  0  0
  7 92  1  0  0  0  0
  7 93  1  0  0  0  0
  8  9  1  0  0  0  0
  8 94  1  0  0  0  0
  8 95  1  0  0  0  0
  9 10  1  0  0  0  0
  9 96  1  0  0  0  0
  9 97  1  0  0  0  0
 10 11  1  0  0  0  0
 10 98  1  0  0  0  0
 10 99  1  0  0  0  0
 11 12  1  0  0  0  0
 11100  1  0  0  0  0
 11101  1  0  0  0  0
 12 13  1  0  0  0  0
 12102  1  0  0  0  0
 12103  1  0  0  0  0
 13 14  1  0  0  0  0
 13104  1  0  0  0  0
 13105  1  0  0  0  0
 14 15  1  0  0  0  0
 14106  1  0  0  0  0
 14107  1  0  0  0  0
 15 16  1  0  0  0  0
 15108  1  0  0  0  0
 15109  1  0  0  0  0
 16 17  1  0  0  0  0
 16110  1  0  0  0  0
 16111  1  0  0  0  0
 17 18  1  0  0  0  0
 17112  1  0  0  0  0
 17113  1  0  0  0  0
 18 19  1  0  0  0  0
 18114  1  0  0  0  0
 18115  1  0  0  0  0
 19 20  1  0  0  0  0
 19116  1  0  0  0  0
 19117  1  0  0  0  0
 20 21  1  0  0  0  0
 20118  1  0  0  0  0
 20119  1  0  0  0  0
 21 22  1  0  0  0  0
 21120  1  0  0  0  0
 21121  1  0  0  0  0
 22 23  1  0  0  0  0
 22122  1  0  0  0  0
 22123  1  0  0  0  0
 23 24  1  0  0  0  0
 23124  1  0  0  0  0
 23125  1  0  0  0  0
 24 25  1  0  0  0  0
 24126  1  0  0  0  0
 24127  1  0  0  0  0
 25 26  1  0  0  0  0
 25128  1  0  0  0  0
 25129  1  0  0  0  0
 26 27  1  0  0  0  0
 27 28  1  0  0  0  0
 28 29  1  0  0  0  0
 29 30  1  0  0  0  0
 29130  1  0  0  0  0
 29131  1  0  0  0  0
 30 31  1  0  0  0  0
 31 32  1  0  0  0  0
 32 33  1  0  0  0  0
 32132  1  0  0  0  0
 32133  1  0  0  0  0
 33 34  1  0  0  0  0
 34 35  1  0  0  0  0
 34134  1  0  0  0  0
 34135  1  0  0  0  0
 35 36  1  0  0  0  0
 36 37  1  0  0  0  0
 36136  1  0  0  0  0
 36137  1  0  0  0  0
 37 38  1  0  0  0  0
 37138  1  0  0  0  0
 37139  1  0  0  0  0
 38 39  1  0  0  0  0
 38140  1  0  0  0  0
 38141  1  0  0  0  0
 39 40  1  0  0  0  0
 39142  1  0  0  0  0
 39143  1  0  0  0  0
 40 41  1  0  0  0  0
 40144  1  0  0  0  0
 40145  1  0  0  0  0
 41 42  1  0  0  0  0
 41146  1  0  0  0  0
 41147  1  0  0  0  0
 42 43  1  0  0  0  0
 42148  1  0  0  0  0
 42149  1  0  0  0  0
 43 44  1  0  0  0  0
 43150  1  0  0  0  0
 43151  1  0  0  0  0
 44 45  1  0  0  0  0
 44152  1  0  0  0  0
 44153  1  0  0  0  0
 45 46  1  0  0  0  0
 45154  1  0  0  0  0
 45155  1  0  0  0  0
 46 47  1  0  0  0  0
 46156  1  0  0  0  0
 46157  1  0  0  0  0
 47 48  1  0  0  0  0
 47158  1  0  0  0  0
 47159  1  0  0  0  0
 48 49  1  0  0  0  0
 49 50  1  0  0  0  0
 50 51  1  0  0  0  0
 51 52  1  0  0  0  0
 52 53  1  0  0  0  0
 53 54  1  0  0  0  0
 54 55  1  0  0  0  0
 55 56  1  0  0  0  0
 56 57  1  0  0  0  0
 56160  1  0  0  0  0
 56161  1  0  0  0  0
 57 58  1  0  0  0  0
 57162  1  0  0  0  0
 57163  1  0  0  0  0
 58 59  1  0  0  0  0
 58164  1  0  0  0  0
 58165  1  0  0  0  0
 59 60  1  0  0  0  0
 59166  1  0  0  0  0
 59167  1  0  0  0  0
 60 61  1  0  0  0  0
 60168  1  0  0  0  0
 60169  1  0  0  0  0
 61 62  1  0  0  0  0
 61170  1  0  0  0  0
 61171  1  0  0  0  0
 62 63  1  0  0  0  0
 62172  1  0  0  0  0
 62173  1  0  0  0  0
 63 64  1  0  0  0  0
 63174  1  0  0  0  0
 63175  1  0  0  0  0
 64 65  1  0  0  0  0
 64176  1  0  0  0  0
 64177  1  0  0  0  0
 65 66  1  0  0  0  0
 66 67  1  0  0  0  0
 67 68  1  0  0  0  0
 68 69  1  0  0  0  0
 69 70  1  0  0  0  0
 70 71  1  0  0  0  0
 71 72  1  0  0  0  0
 72 73  1  0  0  0  0
 73 74  1  0  0  0  0
 74 75  1  0  0  0  0
 75 76  1  0  0  0  0
 76 77  1  0  0  0  0
 76178  1  0  0  0  0
 76179  1  0  0  0  0
 77 78  1  0  0  0  0
 77180  1  0  0  0  0
 77181  1  0  0  0  0
 78 79  1  0  0  0  0
 78182  1  0  0  0  0
 78183  1  0  0  0  0
 79 80  1  0  0  0  0
 79184  1  0  0  0  0
 79185  1  0  0  0  0
 80186  1  0  0  0  0
 80187  1  0  0  0  0
 80188  1  0  0  0  0
M  END
$$$$
