
 OpenBabel04232216443D

 48 50  0  0  0  0  0  0  0  0999 V2000
    4.1312    2.4584   -1.4026 C   0  0  0  0  0  0  0  0  0  0  0  0
    5.2861    1.7158   -0.7889 C   0  0  0  0  0  0  0  0  0  0  0  0
    4.8821    0.8367    0.1972 C   0  0  0  0  0  0  0  0  0  0  0  0
    4.8198    1.6486    1.5961 C   0  0  0  0  0  0  0  0  0  0  0  0
    4.0687    1.5020    2.9712 C   0  0  0  0  0  0  0  0  0  0  0  0
    4.7484    0.7339    4.1159 C   0  0  0  0  0  0  0  0  0  0  0  0
    5.2274   -0.6023    3.6051 C   0  0  0  0  0  0  0  0  0  0  0  0
    6.6737   -0.4982    3.1223 C   0  0  0  0  0  0  0  0  0  0  0  0
    6.9921   -0.9001    1.6849 C   0  0  0  0  0  0  0  0  0  0  0  0
    5.8867   -1.5057    0.8257 C   0  0  0  0  0  0  0  0  0  0  0  0
    5.2182   -0.6142   -0.1953 C   0  0  0  0  0  0  0  0  0  0  0  0
    5.0697   -1.0258   -1.5186 C   0  0  0  0  0  0  0  0  0  0  0  0
    4.0178   -0.5701   -2.5102 C   0  0  0  0  0  0  0  0  0  0  0  0
    6.0814   -1.9162   -2.2835 C   0  0  0  0  0  0  0  0  0  0  0  0
    6.4540   -3.0302   -1.9141 O   0  0  0  0  0  0  0  0  0  0  0  0
    6.6469   -1.2688   -3.5530 C   0  0  0  0  0  0  0  0  0  0  0  0
    6.0706   -1.5342   -4.9166 C   0  0  0  0  0  0  0  0  0  0  0  0
    7.8534   -0.6791   -3.4407 C   0  0  0  0  0  0  0  0  0  0  0  0
    7.9101    0.7835   -3.4752 C   0  0  0  0  0  0  0  0  0  0  0  0
    7.4507    1.6490   -2.5217 C   0  0  0  0  0  0  0  0  0  0  0  0
    7.6886    1.0124   -1.0613 C   0  0  0  0  0  0  0  0  0  0  0  0
    6.5456    1.5183   -1.4679 C   0  0  0  0  0  0  0  0  0  0  0  0
    3.6257    3.1098   -0.6842 H   0  0  0  0  0  0  0  0  0  0  0  0
    3.3578    1.7383   -1.7081 H   0  0  0  0  0  0  0  0  0  0  0  0
    4.4012    3.0288   -2.2922 H   0  0  0  0  0  0  0  0  0  0  0  0
    4.3613    2.6031    1.2852 H   0  0  0  0  0  0  0  0  0  0  0  0
    5.8493    1.9443    1.8432 H   0  0  0  0  0  0  0  0  0  0  0  0
    3.9491    2.5204    3.3864 H   0  0  0  0  0  0  0  0  0  0  0  0
    3.0493    1.1315    2.8298 H   0  0  0  0  0  0  0  0  0  0  0  0
    4.0290    0.5793    4.9324 H   0  0  0  0  0  0  0  0  0  0  0  0
    5.5642    1.3142    4.5723 H   0  0  0  0  0  0  0  0  0  0  0  0
    4.5073   -0.9065    2.8485 H   0  0  0  0  0  0  0  0  0  0  0  0
    5.1648   -1.3609    4.3918 H   0  0  0  0  0  0  0  0  0  0  0  0
    7.2916   -1.1018    3.7946 H   0  0  0  0  0  0  0  0  0  0  0  0
    7.0607    0.5239    3.2620 H   0  0  0  0  0  0  0  0  0  0  0  0
    7.4262   -0.0283    1.1928 H   0  0  0  0  0  0  0  0  0  0  0  0
    7.8172   -1.6253    1.7307 H   0  0  0  0  0  0  0  0  0  0  0  0
    6.3346   -2.3688    0.3211 H   0  0  0  0  0  0  0  0  0  0  0  0
    5.0999   -1.9776    1.4209 H   0  0  0  0  0  0  0  0  0  0  0  0
    3.0625   -0.3344   -2.0345 H   0  0  0  0  0  0  0  0  0  0  0  0
    3.7748   -1.3989   -3.1941 H   0  0  0  0  0  0  0  0  0  0  0  0
    4.3534    0.2655   -3.1377 H   0  0  0  0  0  0  0  0  0  0  0  0
    4.9812   -1.5104   -4.9536 H   0  0  0  0  0  0  0  0  0  0  0  0
    6.3941   -2.5211   -5.2649 H   0  0  0  0  0  0  0  0  0  0  0  0
    6.4281   -0.8054   -5.6534 H   0  0  0  0  0  0  0  0  0  0  0  0
    8.5367   -1.0542   -2.6758 H   0  0  0  0  0  0  0  0  0  0  0  0
    8.4950    1.2295   -4.2903 H   0  0  0  0  0  0  0  0  0  0  0  0
    8.7030    0.7269   -1.1467 H   0  0  0  0  0  0  0  0  0  0  0  0
  1  2  1  0  0  0  0
  1 23  1  0  0  0  0
  1 24  1  0  0  0  0
  1 25  1  0  0  0  0
  2  3  2  0  0  0  0
  2 22  1  0  0  0  0
  3  4  1  0  0  0  0
  3 11  1  0  0  0  0
  4  5  1  0  0  0  0
  4 26  1  0  0  0  0
  4 27  1  0  0  0  0
  5  6  1  0  0  0  0
  5 28  1  0  0  0  0
  5 29  1  0  0  0  0
  6  7  1  0  0  0  0
  6 30  1  0  0  0  0
  6 31  1  0  0  0  0
  7  8  1  0  0  0  0
  7 32  1  0  0  0  0
  7 33  1  0  0  0  0
  8  9  1  0  0  0  0
  8 34  1  0  0  0  0
  8 35  1  0  0  0  0
  9 10  1  0  0  0  0
  9 36  1  0  0  0  0
  9 37  1  0  0  0  0
 10 11  1  0  0  0  0
 10 38  1  0  0  0  0
 10 39  1  0  0  0  0
 11 12  2  0  0  0  0
 12 13  1  0  0  0  0
 12 14  1  0  0  0  0
 13 40  1  0  0  0  0
 13 41  1  0  0  0  0
 13 42  1  0  0  0  0
 14 15  2  0  0  0  0
 14 16  1  0  0  0  0
 16 17  1  0  0  0  0
 16 18  2  0  0  0  0
 17 43  1  0  0  0  0
 17 44  1  0  0  0  0
 17 45  1  0  0  0  0
 18 19  1  0  0  0  0
 18 46  1  0  0  0  0
 19 20  2  0  0  0  0
 19 47  1  0  0  0  0
 20 21  1  0  0  0  0
 20 22  1  0  0  0  0
 21 22  2  0  0  0  0
 21 48  1  0  0  0  0
M  END
$$$$
