
 OpenBabel04232216433D

 35 35  0  0  0  0  0  0  0  0999 V2000
    3.9208   -1.1673    2.0396 C   0  0  0  0  0  0  0  0  0  0  0  0
    3.9113   -0.2753    0.8630 C   0  0  0  0  0  0  0  0  0  0  0  0
    4.0989    1.0603    0.9263 C   0  0  0  0  0  0  0  0  0  0  0  0
    5.4554    1.5322    1.0146 C   0  0  0  0  0  0  0  0  0  0  0  0
    6.1203    1.0953    2.0959 C   0  0  0  0  0  0  0  0  0  0  0  0
    5.2817    1.4640    3.3538 C   0  0  0  0  0  0  0  0  0  0  0  0
    7.6023    0.4866    1.9770 C   0  0  0  0  0  0  0  0  0  0  0  0
    7.9648   -1.0834    2.0205 C   0  0  0  0  0  0  0  0  0  0  0  0
    9.2510   -1.6249    1.3804 C   0  0  0  0  0  0  0  0  0  0  0  0
    9.4308   -2.9213    1.7973 F   0  0  0  0  0  0  0  0  0  0  0  0
    8.1182    0.8598    0.5535 C   0  0  0  0  0  0  0  0  0  0  0  0
    8.4270    1.1427    3.0048 N   0  0  0  0  0  0  0  0  0  0  0  0
    8.3028    0.8913    4.3520 N   0  0  0  0  0  2  0  0  0  0  0  0
    7.1768    0.4196    4.9342 C   0  0  0  0  0  0  0  0  0  0  0  0
    6.6106    0.9529    5.9022 O   0  0  0  0  0  0  0  0  0  0  0  0
    6.7583   -1.0065    4.6198 C   0  0  0  0  0  0  0  0  0  0  0  0
    7.6525   -1.8275    5.2351 F   0  0  0  0  0  0  0  0  0  0  0  0
    5.8034   -1.6893    3.9236 C   0  0  0  0  0  0  0  0  0  0  0  0
    4.6000   -1.6508    3.1087 C   0  0  0  0  0  0  0  0  0  0  0  0
    2.9793   -1.7146    1.9306 H   0  0  0  0  0  0  0  0  0  0  0  0
    3.0394   -0.5508    0.2746 H   0  0  0  0  0  0  0  0  0  0  0  0
    3.3076    1.7625    0.7091 H   0  0  0  0  0  0  0  0  0  0  0  0
    5.9053    1.7782    0.0633 H   0  0  0  0  0  0  0  0  0  0  0  0
    4.2411    1.7532    3.1253 H   0  0  0  0  0  0  0  0  0  0  0  0
    5.6776    2.3431    3.8671 H   0  0  0  0  0  0  0  0  0  0  0  0
    5.0688    0.6689    4.0580 H   0  0  0  0  0  0  0  0  0  0  0  0
    7.1362   -1.6922    1.6488 H   0  0  0  0  0  0  0  0  0  0  0  0
    8.1918   -1.3900    3.0334 H   0  0  0  0  0  0  0  0  0  0  0  0
   10.1419   -1.0683    1.6856 H   0  0  0  0  0  0  0  0  0  0  0  0
    9.1896   -1.6784    0.2921 H   0  0  0  0  0  0  0  0  0  0  0  0
    7.4644    0.4107   -0.2144 H   0  0  0  0  0  0  0  0  0  0  0  0
    9.1176    0.4960    0.3144 H   0  0  0  0  0  0  0  0  0  0  0  0
    8.1619    1.9365    0.4045 H   0  0  0  0  0  0  0  0  0  0  0  0
    6.0420   -2.7537    4.0134 H   0  0  0  0  0  0  0  0  0  0  0  0
    3.9780   -2.4252    3.5730 H   0  0  0  0  0  0  0  0  0  0  0  0
  1  2  1  0  0  0  0
  1 19  2  3  0  0  0
  1 20  1  0  0  0  0
  2  3  2  3  0  0  0
  2 21  1  0  0  0  0
  3  4  1  0  0  0  0
  3 22  1  0  0  0  0
  4  5  2  3  0  0  0
  4 23  1  0  0  0  0
  5  6  1  0  0  0  0
  5  7  1  0  0  0  0
  6 24  1  0  0  0  0
  6 25  1  0  0  0  0
  6 26  1  0  0  0  0
  7  8  1  0  0  0  0
  7 11  1  0  0  0  0
  7 12  2  0  0  0  0
  8  9  1  0  0  0  0
  8 27  1  0  0  0  0
  8 28  1  0  0  0  0
  9 10  1  0  0  0  0
  9 29  1  0  0  0  0
  9 30  1  0  0  0  0
 11 31  1  0  0  0  0
 11 32  1  0  0  0  0
 11 33  1  0  0  0  0
 12 13  1  0  0  0  0
 13 14  1  0  0  0  0
 14 15  2  0  0  0  0
 14 16  1  0  0  0  0
 16 17  1  0  0  0  0
 16 18  2  3  0  0  0
 18 19  1  0  0  0  0
 18 34  1  0  0  0  0
 19 35  1  0  0  0  0
M  END
$$$$
