
 OpenBabel04232216523D

 69 69  0  0  1  0  0  0  0  0999 V2000
    5.3666   -2.4402   -0.1459 C   0  0  0  0  0  0  0  0  0  0  0  0
    4.5667   -1.1464   -0.1136 C   0  0  0  0  0  0  0  0  0  0  0  0
    5.2479   -0.1085    0.7768 C   0  0  0  0  0  0  0  0  0  0  0  0
    4.4779    1.2195    0.8027 C   0  0  0  0  0  0  0  0  0  0  0  0
    5.1477    2.2974    1.6974 C   0  0  3  0  0  0  0  0  0  0  0  0
    4.3114    3.6136    1.7059 C   0  0  3  0  0  0  0  0  0  0  0  0
    4.5575    4.4755    2.9669 C   0  0  0  0  0  0  0  0  0  0  0  0
    3.7140    5.7590    2.9487 C   0  0  0  0  0  0  0  0  0  0  0  0
    3.9389    6.6047    4.1883 C   0  0  0  0  0  0  0  0  0  0  0  0
    3.1161    7.8923    4.1025 C   0  0  0  0  0  0  0  0  0  0  0  0
    3.3182    8.7798    5.3257 C   0  0  0  0  0  0  0  0  0  0  0  0
    4.7676    9.2089    5.4779 C   0  0  0  0  0  0  0  0  0  0  0  0
    4.9246   10.0683    6.6947 C   0  0  0  0  0  0  0  0  0  0  0  0
    5.3871   11.2068    6.6658 O   0  0  0  0  0  0  0  0  0  0  0  0
    4.6101    4.4526    0.4877 C   0  0  0  0  0  0  0  0  0  0  0  0
    5.7960    4.4287   -0.1501 C   0  0  0  0  0  0  0  0  0  0  0  0
    6.1504    5.3124   -1.3234 C   0  0  0  0  0  0  0  0  0  0  0  0
    5.0379    6.2863   -1.7090 C   0  0  0  0  0  0  0  0  0  0  0  0
    5.3973    7.1564   -2.9029 C   0  0  0  0  0  0  0  0  0  0  0  0
    4.2196    8.0777   -3.1927 C   0  0  0  0  0  0  0  0  0  0  0  0
    4.4967    9.0061   -4.3681 C   0  0  0  0  0  0  0  0  0  0  0  0
    3.3129    9.9357   -4.6461 C   0  0  0  0  0  0  0  0  0  0  0  0
    2.9938   10.8315   -3.4511 C   0  0  0  0  0  0  0  0  0  0  0  0
    1.8308   11.7319   -3.7488 C   0  0  0  0  0  0  0  0  0  0  0  0
    0.7982   11.7385   -3.0861 O   0  0  0  0  0  0  0  0  0  0  0  0
    6.8352    3.5356    0.3327 C   0  0  0  0  0  0  0  0  0  0  0  0
    6.5571    2.5500    1.2006 C   0  0  0  0  0  0  0  0  0  0  0  0
    4.8653   -3.1837   -0.7727 H   0  0  0  0  0  0  0  0  0  0  0  0
    5.4735   -2.8576    0.8604 H   0  0  0  0  0  0  0  0  0  0  0  0
    6.3690   -2.2719   -0.5538 H   0  0  0  0  0  0  0  0  0  0  0  0
    3.5573   -1.3520    0.2577 H   0  0  0  0  0  0  0  0  0  0  0  0
    4.4682   -0.7584   -1.1347 H   0  0  0  0  0  0  0  0  0  0  0  0
    6.2658    0.0487    0.4028 H   0  0  0  0  0  0  0  0  0  0  0  0
    5.3347   -0.4995    1.7976 H   0  0  0  0  0  0  0  0  0  0  0  0
    3.4593    1.0315    1.1659 H   0  0  0  0  0  0  0  0  0  0  0  0
    4.3763    1.5918   -0.2257 H   0  0  0  0  0  0  0  0  0  0  0  0
    5.1976    1.9109    2.7231 H   0  0  0  0  0  0  0  0  0  0  0  0
    3.2443    3.3555    1.6866 H   0  0  0  0  0  0  0  0  0  0  0  0
    5.6196    4.7426    3.0523 H   0  0  0  0  0  0  0  0  0  0  0  0
    4.3073    3.8947    3.8632 H   0  0  0  0  0  0  0  0  0  0  0  0
    2.6517    5.5074    2.8580 H   0  0  0  0  0  0  0  0  0  0  0  0
    3.9794    6.3762    2.0822 H   0  0  0  0  0  0  0  0  0  0  0  0
    5.0075    6.8337    4.2518 H   0  0  0  0  0  0  0  0  0  0  0  0
    3.6658    6.0448    5.0894 H   0  0  0  0  0  0  0  0  0  0  0  0
    2.0527    7.6421    4.0111 H   0  0  0  0  0  0  0  0  0  0  0  0
    3.3865    8.4508    3.1976 H   0  0  0  0  0  0  0  0  0  0  0  0
    2.9839    8.2477    6.2259 H   0  0  0  0  0  0  0  0  0  0  0  0
    2.6766    9.6650    5.2349 H   0  0  0  0  0  0  0  0  0  0  0  0
    5.1032    9.7640    4.5923 H   0  0  0  0  0  0  0  0  0  0  0  0
    5.4366    8.3576    5.6204 H   0  0  0  0  0  0  0  0  0  0  0  0
    4.6385    9.6015    7.6569 H   0  0  0  0  0  0  0  0  0  0  0  0
    3.8192    5.1333    0.1898 H   0  0  0  0  0  0  0  0  0  0  0  0
    6.3869    4.6781   -2.1870 H   0  0  0  0  0  0  0  0  0  0  0  0
    7.0538    5.8865   -1.0827 H   0  0  0  0  0  0  0  0  0  0  0  0
    4.8084    6.9374   -0.8543 H   0  0  0  0  0  0  0  0  0  0  0  0
    4.1241    5.7276   -1.9508 H   0  0  0  0  0  0  0  0  0  0  0  0
    5.6162    6.5341   -3.7762 H   0  0  0  0  0  0  0  0  0  0  0  0
    6.2900    7.7509   -2.6772 H   0  0  0  0  0  0  0  0  0  0  0  0
    4.0216    8.6580   -2.2853 H   0  0  0  0  0  0  0  0  0  0  0  0
    3.3176    7.4862   -3.3960 H   0  0  0  0  0  0  0  0  0  0  0  0
    4.7036    8.4073   -5.2636 H   0  0  0  0  0  0  0  0  0  0  0  0
    5.3943    9.6021   -4.1664 H   0  0  0  0  0  0  0  0  0  0  0  0
    2.4313    9.3384   -4.9107 H   0  0  0  0  0  0  0  0  0  0  0  0
    3.5438   10.5511   -5.5232 H   0  0  0  0  0  0  0  0  0  0  0  0
    3.8604   11.4507   -3.1938 H   0  0  0  0  0  0  0  0  0  0  0  0
    2.7245   10.2435   -2.5725 H   0  0  0  0  0  0  0  0  0  0  0  0
    1.9632   12.4299   -4.5963 H   0  0  0  0  0  0  0  0  0  0  0  0
    7.8458    3.6638   -0.0430 H   0  0  0  0  0  0  0  0  0  0  0  0
    7.3404    1.8704    1.5202 H   0  0  0  0  0  0  0  0  0  0  0  0
  1  2  1  0  0  0  0
  1 28  1  0  0  0  0
  1 29  1  0  0  0  0
  1 30  1  0  0  0  0
  2  3  1  0  0  0  0
  2 31  1  0  0  0  0
  2 32  1  0  0  0  0
  3  4  1  0  0  0  0
  3 33  1  0  0  0  0
  3 34  1  0  0  0  0
  4  5  1  0  0  0  0
  4 35  1  0  0  0  0
  4 36  1  0  0  0  0
  5  6  1  0  0  0  0
  5 27  1  0  0  0  0
  5 37  1  0  0  0  0
  6  7  1  0  0  0  0
  6 15  1  0  0  0  0
  6 38  1  0  0  0  0
  7  8  1  0  0  0  0
  7 39  1  0  0  0  0
  7 40  1  0  0  0  0
  8  9  1  0  0  0  0
  8 41  1  0  0  0  0
  8 42  1  0  0  0  0
  9 10  1  0  0  0  0
  9 43  1  0  0  0  0
  9 44  1  0  0  0  0
 10 11  1  0  0  0  0
 10 45  1  0  0  0  0
 10 46  1  0  0  0  0
 11 12  1  0  0  0  0
 11 47  1  0  0  0  0
 11 48  1  0  0  0  0
 12 13  1  0  0  0  0
 12 49  1  0  0  0  0
 12 50  1  0  0  0  0
 13 14  2  0  0  0  0
 13 51  1  0  0  0  0
 15 16  2  0  0  0  0
 15 52  1  0  0  0  0
 16 17  1  0  0  0  0
 16 26  1  0  0  0  0
 17 18  1  0  0  0  0
 17 53  1  0  0  0  0
 17 54  1  0  0  0  0
 18 19  1  0  0  0  0
 18 55  1  0  0  0  0
 18 56  1  0  0  0  0
 19 20  1  0  0  0  0
 19 57  1  0  0  0  0
 19 58  1  0  0  0  0
 20 21  1  0  0  0  0
 20 59  1  0  0  0  0
 20 60  1  0  0  0  0
 21 22  1  0  0  0  0
 21 61  1  0  0  0  0
 21 62  1  0  0  0  0
 22 23  1  0  0  0  0
 22 63  1  0  0  0  0
 22 64  1  0  0  0  0
 23 24  1  0  0  0  0
 23 65  1  0  0  0  0
 23 66  1  0  0  0  0
 24 25  2  0  0  0  0
 24 67  1  0  0  0  0
 26 27  2  0  0  0  0
 26 68  1  0  0  0  0
 27 69  1  0  0  0  0
M  END
$$$$
