
 OpenBabel04232216403D

 40 39  0  0  0  0  0  0  0  0999 V2000
    1.5132   -0.4418    0.9650 C   0  0  0  0  0  0  0  0  0  0  0  0
    2.3690    0.0512    0.0575 C   0  0  0  0  0  0  0  0  0  0  0  0
    3.1397   -0.8307   -0.8729 C   0  0  0  0  0  0  0  0  0  0  0  0
    4.6411   -0.6471   -0.6811 C   0  0  0  0  0  0  0  0  0  0  0  0
    5.4108   -1.5507   -1.6360 C   0  0  0  0  0  0  0  0  0  0  0  0
    6.9077   -1.3663   -1.4445 C   0  0  0  0  0  0  0  0  0  0  0  0
    7.6745   -2.2698   -2.3965 C   0  0  0  0  0  0  0  0  0  0  0  0
    9.1710   -2.0851   -2.2025 C   0  0  0  0  0  0  0  0  0  0  0  0
    9.9395   -2.9899   -3.1527 C   0  0  0  0  0  0  0  0  0  0  0  0
   11.4368   -2.8041   -2.9568 C   0  0  0  0  0  0  0  0  0  0  0  0
   12.2166   -3.7061   -3.9043 C   0  0  0  0  0  0  0  0  0  0  0  0
   13.7197   -3.5194   -3.7074 C   0  0  0  0  0  0  0  0  0  0  0  0
   14.4952   -4.4236   -4.6566 C   0  0  0  0  0  0  0  0  0  0  0  0
   16.2840   -4.2130   -4.4347 S   0  0  0  0  0  0  0  0  0  0  0  0
    0.9647    0.2173    1.6286 H   0  0  0  0  0  0  0  0  0  0  0  0
    1.3466   -1.5094    1.0620 H   0  0  0  0  0  0  0  0  0  0  0  0
    2.5108    1.1246   -0.0117 H   0  0  0  0  0  0  0  0  0  0  0  0
    2.8692   -0.5884   -1.9067 H   0  0  0  0  0  0  0  0  0  0  0  0
    2.8800   -1.8805   -0.7044 H   0  0  0  0  0  0  0  0  0  0  0  0
    4.9210   -0.8838    0.3534 H   0  0  0  0  0  0  0  0  0  0  0  0
    4.9207    0.3987   -0.8605 H   0  0  0  0  0  0  0  0  0  0  0  0
    5.1380   -1.3179   -2.6732 H   0  0  0  0  0  0  0  0  0  0  0  0
    5.1406   -2.5995   -1.4584 H   0  0  0  0  0  0  0  0  0  0  0  0
    7.1821   -1.5988   -0.4084 H   0  0  0  0  0  0  0  0  0  0  0  0
    7.1800   -0.3192   -1.6247 H   0  0  0  0  0  0  0  0  0  0  0  0
    7.4018   -2.0364   -3.4330 H   0  0  0  0  0  0  0  0  0  0  0  0
    7.4018   -3.3170   -2.2176 H   0  0  0  0  0  0  0  0  0  0  0  0
    9.4421   -2.3173   -1.1652 H   0  0  0  0  0  0  0  0  0  0  0  0
    9.4425   -1.0381   -2.3822 H   0  0  0  0  0  0  0  0  0  0  0  0
    9.6663   -2.7571   -4.1891 H   0  0  0  0  0  0  0  0  0  0  0  0
    9.6656   -4.0365   -2.9722 H   0  0  0  0  0  0  0  0  0  0  0  0
   11.7043   -3.0347   -1.9185 H   0  0  0  0  0  0  0  0  0  0  0  0
   11.7049   -1.7557   -3.1356 H   0  0  0  0  0  0  0  0  0  0  0  0
   11.9435   -3.4750   -4.9411 H   0  0  0  0  0  0  0  0  0  0  0  0
   11.9437   -4.7527   -3.7233 H   0  0  0  0  0  0  0  0  0  0  0  0
   13.9758   -3.7504   -2.6656 H   0  0  0  0  0  0  0  0  0  0  0  0
   13.9777   -2.4673   -3.8833 H   0  0  0  0  0  0  0  0  0  0  0  0
   14.2382   -4.1969   -5.6965 H   0  0  0  0  0  0  0  0  0  0  0  0
   14.2470   -5.4727   -4.4678 H   0  0  0  0  0  0  0  0  0  0  0  0
   16.3342   -2.9094   -4.7463 H   0  0  0  0  0  0  0  0  0  0  0  0
  1  2  2  0  0  0  0
  1 15  1  0  0  0  0
  1 16  1  0  0  0  0
  2  3  1  0  0  0  0
  2 17  1  0  0  0  0
  3  4  1  0  0  0  0
  3 18  1  0  0  0  0
  3 19  1  0  0  0  0
  4  5  1  0  0  0  0
  4 20  1  0  0  0  0
  4 21  1  0  0  0  0
  5  6  1  0  0  0  0
  5 22  1  0  0  0  0
  5 23  1  0  0  0  0
  6  7  1  0  0  0  0
  6 24  1  0  0  0  0
  6 25  1  0  0  0  0
  7  8  1  0  0  0  0
  7 26  1  0  0  0  0
  7 27  1  0  0  0  0
  8  9  1  0  0  0  0
  8 28  1  0  0  0  0
  8 29  1  0  0  0  0
  9 10  1  0  0  0  0
  9 30  1  0  0  0  0
  9 31  1  0  0  0  0
 10 11  1  0  0  0  0
 10 32  1  0  0  0  0
 10 33  1  0  0  0  0
 11 12  1  0  0  0  0
 11 34  1  0  0  0  0
 11 35  1  0  0  0  0
 12 13  1  0  0  0  0
 12 36  1  0  0  0  0
 12 37  1  0  0  0  0
 13 14  1  0  0  0  0
 13 38  1  0  0  0  0
 13 39  1  0  0  0  0
 14 40  1  0  0  0  0
M  END
$$$$
