
 OpenBabel04232217003D

185184  0  0  1  0  0  0  0  0999 V2000
   42.4623  -37.0005   27.5023 O   0  0  0  0  0  0  0  0  0  0  0  0
   42.4213  -38.4212   27.4815 C   0  0  0  0  0  0  0  0  0  0  0  0
   42.3041  -38.9531   28.9149 C   0  0  3  0  0  0  0  0  0  0  0  0
   42.2360  -40.4787   28.8984 C   0  0  0  0  0  0  0  0  0  0  0  0
   43.4854  -38.4529   29.7668 C   0  0  0  0  0  0  0  0  0  0  0  0
   43.4021  -38.9134   31.2153 C   0  0  0  0  0  0  0  0  0  0  0  0
   44.8246  -38.3691   32.1956 S   0  0  0  0  0  0  0  0  0  0  0  0
   44.7216  -36.5517   32.0526 C   0  0  0  0  0  0  0  0  0  0  0  0
   46.1128  -35.8576   33.0341 S   0  0  0  0  0  0  0  0  0  0  0  0
   47.5608  -36.4958   32.0846 C   0  0  0  0  0  0  0  0  0  0  0  0
   47.5898  -35.9672   30.6563 C   0  0  0  0  0  0  0  0  0  0  0  0
   47.6168  -34.1290   30.6084 S   0  0  0  0  0  0  0  0  0  0  0  0
   49.2230  -33.7762   31.4088 C   0  0  0  0  0  0  0  0  0  0  0  0
   50.6017  -34.5050   30.4790 S   0  0  0  0  0  0  0  0  0  0  0  0
   50.4113  -33.6649   28.8747 C   0  0  0  0  0  0  0  0  0  0  0  0
   50.6411  -31.8664   28.9373 S   0  0  0  0  0  0  0  0  0  0  0  0
   52.5011  -31.6489   29.7826 S   0  0  0  0  0  0  0  0  0  0  0  0
   53.8296  -32.5004   28.4556 S   0  0  0  0  0  0  0  0  0  0  0  0
   53.6220  -31.3979   26.7595 S   0  0  0  0  0  0  0  0  0  0  0  0
   53.9425  -29.5353   27.5529 S   0  0  0  0  0  0  0  0  0  0  0  0
   55.7028  -29.5175   27.9371 C   0  0  0  0  0  0  0  0  0  0  0  0
   56.4700  -30.7490   26.7171 S   0  0  0  0  0  0  0  0  0  0  0  0
   56.2325  -29.7252   25.5429 C   0  0  0  0  0  0  0  0  0  0  0  0
   56.3421  -30.0784   23.8188 S   0  0  0  0  0  0  0  0  0  0  0  0
   56.6836  -28.2167   22.1261 C   0  0  0  0  0  0  0  0  0  0  0  0
   57.5245  -26.5362   22.1988 S   0  0  0  0  0  0  0  0  0  0  0  0
   57.4280  -25.5546   20.7594 C   0  0  0  0  0  0  0  0  0  0  0  0
   55.7180  -25.3693   20.2601 S   0  0  0  0  0  0  0  0  0  0  0  0
   54.9969  -24.8096   21.8805 C   0  0  0  0  0  0  0  0  0  0  0  0
   55.5522  -23.1818   22.3778 S   0  0  0  0  0  0  0  0  0  0  0  0
   54.5437  -22.7873   23.8276 C   0  0  0  0  0  0  0  0  0  0  0  0
   54.8226  -23.3240   25.5242 S   0  0  0  0  0  0  0  0  0  0  0  0
   56.6622  -23.3818   25.6613 C   0  0  0  0  0  0  0  0  0  0  0  0
   57.0192  -24.5968   27.4557 S   0  0  0  0  0  0  0  0  0  0  0  0
   57.0123  -26.6566   26.9311 C   0  0  0  0  0  0  0  0  0  0  0  0
   58.5043  -27.7904   25.9374 S   0  0  0  0  0  0  0  0  0  0  0  0
   58.1487  -28.1932   24.2112 C   0  0  0  0  0  0  0  0  0  0  0  0
   58.8887  -28.8939   22.6119 S   0  0  0  0  0  0  0  0  0  0  0  0
   57.4315  -30.3868   21.7653 C   0  0  0  0  0  0  0  0  0  0  0  0
   55.3072  -30.2862   21.3513 S   0  0  0  0  0  0  0  0  0  0  0  0
   55.2550  -29.2089   20.0111 C   0  0  0  0  0  0  0  0  0  0  0  0
   53.4389  -29.1883   19.9332 S   0  0  0  0  0  0  0  0  0  0  0  0
   52.9413  -28.9198   21.8093 C   0  0  0  0  0  0  0  0  0  0  0  0
   53.4131  -27.2251   22.1122 S   0  0  0  0  0  0  0  0  0  0  0  0
   52.8817  -26.6214   23.6991 C   0  0  0  0  0  0  0  0  0  0  0  0
   53.3573  -27.5275   25.0768 S   0  0  0  0  0  0  0  0  0  0  0  0
   55.0852  -27.1434   25.0687 C   0  0  0  0  0  0  0  0  0  0  0  0
   56.2871  -25.7549   24.6710 S   0  0  0  0  0  0  0  0  0  0  0  0
   58.4597  -25.3655   25.3509 C   0  0  0  0  0  0  0  0  0  0  0  0
   59.4837  -25.0580   23.9356 S   0  0  0  0  0  0  0  0  0  0  0  0
   60.6621  -26.4260   23.8299 C   0  0  0  0  0  0  0  0  0  0  0  0
   61.3438  -27.6911   25.0188 S   0  0  0  0  0  0  0  0  0  0  0  0
   60.8821  -29.5247   24.3909 C   0  0  0  0  0  0  0  0  0  0  0  0
   61.8132  -29.9746   22.7856 S   0  0  0  0  0  0  0  0  0  0  0  0
   60.8575  -31.4600   21.9173 C   0  0  0  0  0  0  0  0  0  0  0  0
   59.4039  -31.4101   21.7261 C   0  0  0  0  0  0  0  0  0  0  0  0
   58.3055  -32.6710   21.2837 C   0  0  0  0  0  0  0  0  0  0  0  0
   56.6636  -32.5938   21.2839 C   0  0  0  0  0  0  0  0  0  0  0  0
   55.7568  -33.6345   20.8285 C   0  0  0  0  0  0  0  0  0  0  0  0
   54.2653  -33.2469   20.8934 C   0  0  0  0  0  0  0  0  0  0  0  0
   53.5591  -34.4644   20.3853 C   0  0  0  0  0  0  0  0  0  0  0  0
   52.0671  -34.2736   20.3884 C   0  0  0  0  0  0  0  0  0  0  0  0
   51.4260  -35.5475   19.8710 C   0  0  0  0  0  0  0  0  0  0  0  0
   49.9231  -35.3896   19.8644 C   0  0  0  0  0  0  0  0  0  0  0  0
   49.2773  -36.6600   19.3491 C   0  0  0  0  0  0  0  0  0  0  0  0
   47.7698  -36.5017   19.3423 C   0  0  0  0  0  0  0  0  0  0  0  0
   47.1225  -37.7723   18.8268 C   0  0  0  0  0  0  0  0  0  0  0  0
   45.6142  -37.6135   18.8183 C   0  0  0  0  0  0  0  0  0  0  0  0
   44.9662  -38.8841   18.3029 C   0  0  0  0  0  0  0  0  0  0  0  0
   43.4579  -38.7256   18.2940 C   0  0  0  0  0  0  0  0  0  0  0  0
   42.8098  -39.9962   17.7786 C   0  0  0  0  0  0  0  0  0  0  0  0
   41.3013  -39.8378   17.7698 C   0  0  0  0  0  0  0  0  0  0  0  0
   40.6527  -41.1086   17.2542 C   0  0  0  0  0  0  0  0  0  0  0  0
   39.1436  -40.9511   17.2471 C   0  0  0  0  0  0  0  0  0  0  0  0
   38.4930  -42.2219   16.7316 C   0  0  0  0  0  0  0  0  0  0  0  0
   36.9821  -42.0651   16.7241 C   0  0  0  0  0  0  0  0  0  0  0  0
   36.3270  -43.3364   16.2102 C   0  0  0  0  0  0  0  0  0  0  0  0
   34.8126  -43.1858   16.1982 C   0  0  0  0  0  0  0  0  0  0  0  0
   34.1587  -44.4536   15.6857 C   0  0  0  0  0  0  0  0  0  0  0  0
   42.5159  -36.7017   26.5793 H   0  0  0  0  0  0  0  0  0  0  0  0
   43.3356  -38.7887   27.0025 H   0  0  0  0  0  0  0  0  0  0  0  0
   41.5593  -38.7319   26.8837 H   0  0  0  0  0  0  0  0  0  0  0  0
   41.3790  -38.5563   29.3546 H   0  0  0  0  0  0  0  0  0  0  0  0
   43.1617  -40.9009   28.4927 H   0  0  0  0  0  0  0  0  0  0  0  0
   41.3976  -40.8292   28.2904 H   0  0  0  0  0  0  0  0  0  0  0  0
   42.0898  -40.8861   29.9027 H   0  0  0  0  0  0  0  0  0  0  0  0
   43.4916  -37.3595   29.7386 H   0  0  0  0  0  0  0  0  0  0  0  0
   44.4266  -38.7947   29.3167 H   0  0  0  0  0  0  0  0  0  0  0  0
   43.4325  -40.0067   31.2684 H   0  0  0  0  0  0  0  0  0  0  0  0
   42.4683  -38.5951   31.6884 H   0  0  0  0  0  0  0  0  0  0  0  0
   43.7851  -36.1922   32.4924 H   0  0  0  0  0  0  0  0  0  0  0  0
   44.7562  -36.1862   31.0213 H   0  0  0  0  0  0  0  0  0  0  0  0
   47.5714  -37.5906   32.0965 H   0  0  0  0  0  0  0  0  0  0  0  0
   48.4758  -36.2028   32.6102 H   0  0  0  0  0  0  0  0  0  0  0  0
   46.7056  -36.3097   30.1086 H   0  0  0  0  0  0  0  0  0  0  0  0
   48.4373  -36.3782   30.0968 H   0  0  0  0  0  0  0  0  0  0  0  0
   49.2368  -34.1604   32.4366 H   0  0  0  0  0  0  0  0  0  0  0  0
   49.3491  -32.6939   31.5153 H   0  0  0  0  0  0  0  0  0  0  0  0
   49.4371  -33.8832   28.4260 H   0  0  0  0  0  0  0  0  0  0  0  0
   51.1404  -34.0776   28.1688 H   0  0  0  0  0  0  0  0  0  0  0  0
   55.8895  -29.8683   28.9021 H   0  0  0  0  0  0  0  0  0  0  0  0
   55.9657  -28.4381   27.9969 H   0  0  0  0  0  0  0  0  0  0  0  0
   56.4741  -28.6954   25.5788 H   0  0  0  0  0  0  0  0  0  0  0  0
   55.0707  -29.5863   25.1216 H   0  0  0  0  0  0  0  0  0  0  0  0
   55.6657  -27.9364   22.1729 H   0  0  0  0  0  0  0  0  0  0  0  0
   57.2304  -28.5576   21.1545 H   0  0  0  0  0  0  0  0  0  0  0  0
   58.1660  -25.9049   20.0228 H   0  0  0  0  0  0  0  0  0  0  0  0
   57.8123  -24.5730   21.0899 H   0  0  0  0  0  0  0  0  0  0  0  0
   55.2316  -25.5418   22.6368 H   0  0  0  0  0  0  0  0  0  0  0  0
   53.9131  -24.8401   21.8156 H   0  0  0  0  0  0  0  0  0  0  0  0
   53.4769  -22.9222   23.6213 H   0  0  0  0  0  0  0  0  0  0  0  0
   54.7352  -21.7279   23.9484 H   0  0  0  0  0  0  0  0  0  0  0  0
   57.1426  -22.4178   25.8070 H   0  0  0  0  0  0  0  0  0  0  0  0
   57.1863  -23.6781   24.7150 H   0  0  0  0  0  0  0  0  0  0  0  0
   55.9351  -26.7896   27.0230 H   0  0  0  0  0  0  0  0  0  0  0  0
   57.3918  -27.2115   27.7656 H   0  0  0  0  0  0  0  0  0  0  0  0
   57.1486  -27.9376   24.0067 H   0  0  0  0  0  0  0  0  0  0  0  0
   58.2324  -29.1364   24.6791 H   0  0  0  0  0  0  0  0  0  0  0  0
   57.5490  -31.2023   22.5305 H   0  0  0  0  0  0  0  0  0  0  0  0
   57.6721  -30.5383   20.7261 H   0  0  0  0  0  0  0  0  0  0  0  0
   55.9720  -29.7303   19.3800 H   0  0  0  0  0  0  0  0  0  0  0  0
   55.6560  -28.2218   20.1877 H   0  0  0  0  0  0  0  0  0  0  0  0
   53.2874  -29.5832   22.6390 H   0  0  0  0  0  0  0  0  0  0  0  0
   51.8732  -28.9486   21.8211 H   0  0  0  0  0  0  0  0  0  0  0  0
   51.8326  -26.5067   23.7263 H   0  0  0  0  0  0  0  0  0  0  0  0
   53.3639  -25.6823   23.9915 H   0  0  0  0  0  0  0  0  0  0  0  0
   55.3132  -27.6877   24.1891 H   0  0  0  0  0  0  0  0  0  0  0  0
   55.1875  -27.7222   25.9525 H   0  0  0  0  0  0  0  0  0  0  0  0
   58.9328  -25.7799   26.3026 H   0  0  0  0  0  0  0  0  0  0  0  0
   58.6258  -24.3629   25.7830 H   0  0  0  0  0  0  0  0  0  0  0  0
   61.3833  -25.6629   24.0868 H   0  0  0  0  0  0  0  0  0  0  0  0
   60.7872  -26.6876   22.7795 H   0  0  0  0  0  0  0  0  0  0  0  0
   59.8239  -29.6753   24.4145 H   0  0  0  0  0  0  0  0  0  0  0  0
   60.9337  -30.2995   25.1690 H   0  0  0  0  0  0  0  0  0  0  0  0
   60.8783  -32.2832   22.6164 H   0  0  0  0  0  0  0  0  0  0  0  0
   61.0937  -31.5058   20.8475 H   0  0  0  0  0  0  0  0  0  0  0  0
   59.3645  -30.5438   20.9935 H   0  0  0  0  0  0  0  0  0  0  0  0
   59.2230  -31.1853   22.7954 H   0  0  0  0  0  0  0  0  0  0  0  0
   58.4528  -33.4371   22.0393 H   0  0  0  0  0  0  0  0  0  0  0  0
   58.4950  -32.8219   20.2333 H   0  0  0  0  0  0  0  0  0  0  0  0
   56.3914  -31.8932   20.4759 H   0  0  0  0  0  0  0  0  0  0  0  0
   56.2073  -32.3675   22.2974 H   0  0  0  0  0  0  0  0  0  0  0  0
   55.9722  -34.4562   21.5055 H   0  0  0  0  0  0  0  0  0  0  0  0
   56.0514  -33.7820   19.7883 H   0  0  0  0  0  0  0  0  0  0  0  0
   53.9938  -32.3825   20.2605 H   0  0  0  0  0  0  0  0  0  0  0  0
   53.9187  -32.9858   21.9094 H   0  0  0  0  0  0  0  0  0  0  0  0
   53.8417  -35.3113   21.0197 H   0  0  0  0  0  0  0  0  0  0  0  0
   53.9179  -34.6738   19.3702 H   0  0  0  0  0  0  0  0  0  0  0  0
   51.7909  -33.4258   19.7522 H   0  0  0  0  0  0  0  0  0  0  0  0
   51.7153  -34.0574   21.4023 H   0  0  0  0  0  0  0  0  0  0  0  0
   51.7154  -36.3959   20.5051 H   0  0  0  0  0  0  0  0  0  0  0  0
   51.7891  -35.7651   18.8578 H   0  0  0  0  0  0  0  0  0  0  0  0
   49.6402  -34.5400   19.2301 H   0  0  0  0  0  0  0  0  0  0  0  0
   49.5666  -35.1713   20.8788 H   0  0  0  0  0  0  0  0  0  0  0  0
   49.5627  -37.5083   19.9834 H   0  0  0  0  0  0  0  0  0  0  0  0
   49.6363  -36.8772   18.3356 H   0  0  0  0  0  0  0  0  0  0  0  0
   47.4860  -35.6527   18.7082 H   0  0  0  0  0  0  0  0  0  0  0  0
   47.4123  -36.2838   20.3563 H   0  0  0  0  0  0  0  0  0  0  0  0
   47.4057  -38.6205   19.4621 H   0  0  0  0  0  0  0  0  0  0  0  0
   47.4815  -37.9906   17.8137 H   0  0  0  0  0  0  0  0  0  0  0  0
   45.3311  -36.7650   18.1832 H   0  0  0  0  0  0  0  0  0  0  0  0
   45.2553  -37.3950   19.8316 H   0  0  0  0  0  0  0  0  0  0  0  0
   45.2494  -39.7326   18.9380 H   0  0  0  0  0  0  0  0  0  0  0  0
   45.3253  -39.1025   17.2896 H   0  0  0  0  0  0  0  0  0  0  0  0
   43.1748  -37.8771   17.6590 H   0  0  0  0  0  0  0  0  0  0  0  0
   43.0990  -38.5071   19.3074 H   0  0  0  0  0  0  0  0  0  0  0  0
   43.0931  -40.8446   18.4137 H   0  0  0  0  0  0  0  0  0  0  0  0
   43.1689  -40.2146   16.7653 H   0  0  0  0  0  0  0  0  0  0  0  0
   41.0184  -38.9892   17.1348 H   0  0  0  0  0  0  0  0  0  0  0  0
   40.9426  -39.6192   18.7831 H   0  0  0  0  0  0  0  0  0  0  0  0
   40.9374  -41.9571   17.8886 H   0  0  0  0  0  0  0  0  0  0  0  0
   41.0111  -41.3260   16.2405 H   0  0  0  0  0  0  0  0  0  0  0  0
   38.8602  -40.1018   16.6132 H   0  0  0  0  0  0  0  0  0  0  0  0
   38.7867  -40.7328   18.2612 H   0  0  0  0  0  0  0  0  0  0  0  0
   38.7787  -43.0701   17.3659 H   0  0  0  0  0  0  0  0  0  0  0  0
   38.8522  -42.4392   15.7181 H   0  0  0  0  0  0  0  0  0  0  0  0
   36.7004  -41.2159   16.0894 H   0  0  0  0  0  0  0  0  0  0  0  0
   36.6269  -41.8448   17.7383 H   0  0  0  0  0  0  0  0  0  0  0  0
   36.6143  -44.1828   16.8465 H   0  0  0  0  0  0  0  0  0  0  0  0
   36.6897  -43.5555   15.1982 H   0  0  0  0  0  0  0  0  0  0  0  0
   34.5270  -42.3407   15.5610 H   0  0  0  0  0  0  0  0  0  0  0  0
   34.4515  -42.9683   17.2102 H   0  0  0  0  0  0  0  0  0  0  0  0
   34.4916  -44.6748   14.6667 H   0  0  0  0  0  0  0  0  0  0  0  0
   33.0713  -44.3431   15.6779 H   0  0  0  0  0  0  0  0  0  0  0  0
   34.4157  -45.3053   16.3235 H   0  0  0  0  0  0  0  0  0  0  0  0
  1  2  1  0  0  0  0
  1 80  1  0  0  0  0
  2  3  1  0  0  0  0
  2 81  1  0  0  0  0
  2 82  1  0  0  0  0
  3  4  1  0  0  0  0
  3  5  1  0  0  0  0
  3 83  1  0  0  0  0
  4 84  1  0  0  0  0
  4 85  1  0  0  0  0
  4 86  1  0  0  0  0
  5  6  1  0  0  0  0
  5 87  1  0  0  0  0
  5 88  1  0  0  0  0
  6  7  1  0  0  0  0
  6 89  1  0  0  0  0
  6 90  1  0  0  0  0
  7  8  1  0  0  0  0
  8  9  1  0  0  0  0
  8 91  1  0  0  0  0
  8 92  1  0  0  0  0
  9 10  1  0  0  0  0
 10 11  1  0  0  0  0
 10 93  1  0  0  0  0
 10 94  1  0  0  0  0
 11 12  1  0  0  0  0
 11 95  1  0  0  0  0
 11 96  1  0  0  0  0
 12 13  1  0  0  0  0
 13 14  1  0  0  0  0
 13 97  1  0  0  0  0
 13 98  1  0  0  0  0
 14 15  1  0  0  0  0
 15 16  1  0  0  0  0
 15 99  1  0  0  0  0
 15100  1  0  0  0  0
 16 17  1  0  0  0  0
 17 18  1  0  0  0  0
 18 19  1  0  0  0  0
 19 20  1  0  0  0  0
 20 21  1  0  0  0  0
 21 22  1  0  0  0  0
 21101  1  0  0  0  0
 21102  1  0  0  0  0
 22 23  1  0  0  0  0
 23 24  1  0  0  0  0
 23103  1  0  0  0  0
 23104  1  0  0  0  0
 24 25  1  0  0  0  0
 25 26  1  0  0  0  0
 25105  1  0  0  0  0
 25106  1  0  0  0  0
 26 27  1  0  0  0  0
 27 28  1  0  0  0  0
 27107  1  0  0  0  0
 27108  1  0  0  0  0
 28 29  1  0  0  0  0
 29 30  1  0  0  0  0
 29109  1  0  0  0  0
 29110  1  0  0  0  0
 30 31  1  0  0  0  0
 31 32  1  0  0  0  0
 31111  1  0  0  0  0
 31112  1  0  0  0  0
 32 33  1  0  0  0  0
 33 34  1  0  0  0  0
 33113  1  0  0  0  0
 33114  1  0  0  0  0
 34 35  1  0  0  0  0
 35 36  1  0  0  0  0
 35115  1  0  0  0  0
 35116  1  0  0  0  0
 36 37  1  0  0  0  0
 37 38  1  0  0  0  0
 37117  1  0  0  0  0
 37118  1  0  0  0  0
 38 39  1  0  0  0  0
 39 40  1  0  0  0  0
 39119  1  0  0  0  0
 39120  1  0  0  0  0
 40 41  1  0  0  0  0
 41 42  1  0  0  0  0
 41121  1  0  0  0  0
 41122  1  0  0  0  0
 42 43  1  0  0  0  0
 43 44  1  0  0  0  0
 43123  1  0  0  0  0
 43124  1  0  0  0  0
 44 45  1  0  0  0  0
 45 46  1  0  0  0  0
 45125  1  0  0  0  0
 45126  1  0  0  0  0
 46 47  1  0  0  0  0
 47 48  1  0  0  0  0
 47127  1  0  0  0  0
 47128  1  0  0  0  0
 48 49  1  0  0  0  0
 49 50  1  0  0  0  0
 49129  1  0  0  0  0
 49130  1  0  0  0  0
 50 51  1  0  0  0  0
 51 52  1  0  0  0  0
 51131  1  0  0  0  0
 51132  1  0  0  0  0
 52 53  1  0  0  0  0
 53 54  1  0  0  0  0
 53133  1  0  0  0  0
 53134  1  0  0  0  0
 54 55  1  0  0  0  0
 55 56  1  0  0  0  0
 55135  1  0  0  0  0
 55136  1  0  0  0  0
 56 57  1  0  0  0  0
 56137  1  0  0  0  0
 56138  1  0  0  0  0
 57 58  1  0  0  0  0
 57139  1  0  0  0  0
 57140  1  0  0  0  0
 58 59  1  0  0  0  0
 58141  1  0  0  0  0
 58142  1  0  0  0  0
 59 60  1  0  0  0  0
 59143  1  0  0  0  0
 59144  1  0  0  0  0
 60 61  1  0  0  0  0
 60145  1  0  0  0  0
 60146  1  0  0  0  0
 61 62  1  0  0  0  0
 61147  1  0  0  0  0
 61148  1  0  0  0  0
 62 63  1  0  0  0  0
 62149  1  0  0  0  0
 62150  1  0  0  0  0
 63 64  1  0  0  0  0
 63151  1  0  0  0  0
 63152  1  0  0  0  0
 64 65  1  0  0  0  0
 64153  1  0  0  0  0
 64154  1  0  0  0  0
 65 66  1  0  0  0  0
 65155  1  0  0  0  0
 65156  1  0  0  0  0
 66 67  1  0  0  0  0
 66157  1  0  0  0  0
 66158  1  0  0  0  0
 67 68  1  0  0  0  0
 67159  1  0  0  0  0
 67160  1  0  0  0  0
 68 69  1  0  0  0  0
 68161  1  0  0  0  0
 68162  1  0  0  0  0
 69 70  1  0  0  0  0
 69163  1  0  0  0  0
 69164  1  0  0  0  0
 70 71  1  0  0  0  0
 70165  1  0  0  0  0
 70166  1  0  0  0  0
 71 72  1  0  0  0  0
 71167  1  0  0  0  0
 71168  1  0  0  0  0
 72 73  1  0  0  0  0
 72169  1  0  0  0  0
 72170  1  0  0  0  0
 73 74  1  0  0  0  0
 73171  1  0  0  0  0
 73172  1  0  0  0  0
 74 75  1  0  0  0  0
 74173  1  0  0  0  0
 74174  1  0  0  0  0
 75 76  1  0  0  0  0
 75175  1  0  0  0  0
 75176  1  0  0  0  0
 76 77  1  0  0  0  0
 76177  1  0  0  0  0
 76178  1  0  0  0  0
 77 78  1  0  0  0  0
 77179  1  0  0  0  0
 77180  1  0  0  0  0
 78 79  1  0  0  0  0
 78181  1  0  0  0  0
 78182  1  0  0  0  0
 79183  1  0  0  0  0
 79184  1  0  0  0  0
 79185  1  0  0  0  0
M  END
$$$$
