
 OpenBabel04232216593D

132131  0  0  0  0  0  0  0  0999 V2000
    1.0804   -4.4367    1.3011 O   0  0  0  0  0  0  0  0  0  0  0  0
    2.2616   -4.3060    1.3215 C   0  0  0  0  0  0  0  0  0  0  0  0
    3.1558   -5.3908    1.4056 O   0  0  0  0  0  0  0  0  0  0  0  0
    2.3889   -6.6533    1.4741 O   0  0  0  0  0  0  0  0  0  0  0  0
    2.7978   -3.0829    1.3153 O   0  0  0  0  0  0  0  0  0  0  0  0
    4.1927   -3.1178    1.2567 O   0  0  0  0  0  0  0  0  0  0  0  0
    4.5998   -2.4069    0.0822 O   0  0  0  0  0  0  0  0  0  0  0  0
    6.0124   -2.3577    0.0199 O   0  0  0  0  0  0  0  0  0  0  0  0
    6.4213   -3.7048    0.1411 O   0  0  0  0  0  0  0  0  0  0  0  0
    7.7949   -3.6844    0.1635 O   0  0  0  0  0  0  0  0  0  0  0  0
    8.1981   -4.9972    0.2501 O   0  0  0  0  0  0  0  0  0  0  0  0
    9.5657   -4.9402    0.2479 O   0  0  0  0  0  0  0  0  0  0  0  0
    9.9651   -6.2386    0.3343 O   0  0  0  0  0  0  0  0  0  0  0  0
   11.3295   -6.1845    0.3327 O   0  0  0  0  0  0  0  0  0  0  0  0
   11.7288   -7.4854    0.4192 O   0  0  0  0  0  0  0  0  0  0  0  0
   13.0911   -7.4261    0.4173 O   0  0  0  0  0  0  0  0  0  0  0  0
   13.4892   -8.7270    0.5038 O   0  0  0  0  0  0  0  0  0  0  0  0
   14.8511   -8.6679    0.5018 O   0  0  0  0  0  0  0  0  0  0  0  0
   15.2492   -9.9687    0.5884 O   0  0  0  0  0  0  0  0  0  0  0  0
   16.6111   -9.9095    0.5864 O   0  0  0  0  0  0  0  0  0  0  0  0
   17.0092  -11.2103    0.6729 O   0  0  0  0  0  0  0  0  0  0  0  0
   18.3711  -11.1512    0.6710 O   0  0  0  0  0  0  0  0  0  0  0  0
   18.7692  -12.4520    0.7575 O   0  0  0  0  0  0  0  0  0  0  0  0
   20.1310  -12.3928    0.7556 O   0  0  0  0  0  0  0  0  0  0  0  0
   20.5292  -13.6936    0.8421 O   0  0  0  0  0  0  0  0  0  0  0  0
   21.8910  -13.6345    0.8402 O   0  0  0  0  0  0  0  0  0  0  0  0
   22.2892  -14.9352    0.9267 O   0  0  0  0  0  0  0  0  0  0  0  0
   23.6510  -14.8761    0.9247 O   0  0  0  0  0  0  0  0  0  0  0  0
   24.0492  -16.1769    1.0113 O   0  0  0  0  0  0  0  0  0  0  0  0
   25.4110  -16.1177    1.0093 O   0  0  0  0  0  0  0  0  0  0  0  0
   25.8092  -17.4185    1.0958 O   0  0  0  0  0  0  0  0  0  0  0  0
   27.1710  -17.3594    1.0939 O   0  0  0  0  0  0  0  0  0  0  0  0
   27.5692  -18.6602    1.1804 O   0  0  0  0  0  0  0  0  0  0  0  0
   28.9310  -18.6010    1.1785 O   0  0  0  0  0  0  0  0  0  0  0  0
   29.3292  -19.9018    1.2650 O   0  0  0  0  0  0  0  0  0  0  0  0
   30.6910  -19.8427    1.2631 O   0  0  0  0  0  0  0  0  0  0  0  0
   31.0892  -21.1434    1.3496 O   0  0  0  0  0  0  0  0  0  0  0  0
   32.4510  -21.0843    1.3476 O   0  0  0  0  0  0  0  0  0  0  0  0
   32.8492  -22.3851    1.4342 O   0  0  0  0  0  0  0  0  0  0  0  0
   34.2110  -22.3259    1.4322 O   0  0  0  0  0  0  0  0  0  0  0  0
   34.6092  -23.6269    1.5187 O   0  0  0  0  0  0  0  0  0  0  0  0
   35.9715  -23.5677    1.5168 O   0  0  0  0  0  0  0  0  0  0  0  0
   36.3699  -24.8687    1.6033 O   0  0  0  0  0  0  0  0  0  0  0  0
   37.7324  -24.8109    1.6015 O   0  0  0  0  0  0  0  0  0  0  0  0
   38.1358  -26.1176    1.6884 O   0  0  0  0  0  0  0  0  0  0  0  0
   39.4998  -26.0563    1.6863 O   0  0  0  0  0  0  0  0  0  0  0  0
   39.9084  -27.3663    1.7735 O   0  0  0  0  0  0  0  0  0  0  0  0
   41.2797  -27.3175    1.7722 O   0  0  0  0  0  0  0  0  0  0  0  0
   41.6936  -28.6339    1.8598 O   0  0  0  0  0  0  0  0  0  0  0  0
   43.0777  -28.5858    1.8586 O   0  0  0  0  0  0  0  0  0  0  0  0
   43.5251  -29.8992    1.9462 O   0  0  0  0  0  0  0  0  0  0  0  0
   44.9257  -29.8454    1.9447 O   0  0  0  0  0  0  0  0  0  0  0  0
   45.2714  -31.1899    2.0319 C   0  0  0  0  0  0  0  0  0  0  0  0
   46.7612  -31.1687    2.0305 C   0  0  0  0  0  0  0  0  0  0  0  0
   47.2621  -32.5810    2.1203 C   0  0  0  0  0  0  0  0  0  0  0  0
   48.7717  -32.5781    2.1202 C   0  0  0  0  0  0  0  0  0  0  0  0
   49.2805  -34.0001    2.2086 C   0  0  0  0  0  0  0  0  0  0  0  0
   50.7951  -34.0042    2.2089 C   0  0  0  0  0  0  0  0  0  0  0  0
   51.3057  -35.4281    2.2972 C   0  0  0  0  0  0  0  0  0  0  0  0
   52.8210  -35.4351    2.2983 C   0  0  0  0  0  0  0  0  0  0  0  0
   53.3321  -36.8592    2.3860 C   0  0  0  0  0  0  0  0  0  0  0  0
   54.8479  -36.8654    2.3873 C   0  0  0  0  0  0  0  0  0  0  0  0
   55.3589  -38.2897    2.4750 C   0  0  0  0  0  0  0  0  0  0  0  0
   56.8745  -38.2957    2.4763 C   0  0  0  0  0  0  0  0  0  0  0  0
   57.3855  -39.7199    2.5639 C   0  0  0  0  0  0  0  0  0  0  0  0
   58.9011  -39.7259    2.5652 C   0  0  0  0  0  0  0  0  0  0  0  0
   59.4121  -41.1500    2.6549 C   0  0  0  0  0  0  0  0  0  0  0  0
   60.9276  -41.1560    2.6562 C   0  0  0  0  0  0  0  0  0  0  0  0
   61.4385  -42.5801    2.7458 C   0  0  0  0  0  0  0  0  0  0  0  0
   62.9541  -42.5862    2.7471 C   0  0  0  0  0  0  0  0  0  0  0  0
   63.4653  -44.0101    2.8369 C   0  0  0  0  0  0  0  0  0  0  0  0
   64.9807  -44.0165    2.8378 C   0  0  0  0  0  0  0  0  0  0  0  0
   65.4918  -45.4408    2.9302 C   0  0  0  0  0  0  0  0  0  0  0  0
   67.0078  -45.4472    2.9307 C   0  0  0  0  0  0  0  0  0  0  0  0
   67.5190  -46.8719    3.0233 C   0  0  0  0  0  0  0  0  0  0  0  0
   69.0360  -46.8824    3.0260 C   0  0  0  0  0  0  0  0  0  0  0  0
   69.5503  -48.3069    3.1166 C   0  0  0  0  0  0  0  0  0  0  0  0
   71.0659  -48.3070    3.1186 C   0  0  0  0  0  0  0  0  0  0  0  0
    3.1380   -7.2903    1.5309 H   0  0  0  0  0  0  0  0  0  0  0  0
   44.8551  -31.7250    1.1686 H   0  0  0  0  0  0  0  0  0  0  0  0
   44.8551  -31.6087    2.9571 H   0  0  0  0  0  0  0  0  0  0  0  0
   47.1162  -30.5598    2.8717 H   0  0  0  0  0  0  0  0  0  0  0  0
   47.1163  -30.6713    1.1190 H   0  0  0  0  0  0  0  0  0  0  0  0
   46.8804  -33.1590    1.2693 H   0  0  0  0  0  0  0  0  0  0  0  0
   46.8804  -33.0466    3.0377 H   0  0  0  0  0  0  0  0  0  0  0  0
   49.1419  -31.9913    2.9707 H   0  0  0  0  0  0  0  0  0  0  0  0
   49.1419  -32.1013    1.2035 H   0  0  0  0  0  0  0  0  0  0  0  0
   48.9048  -34.5818    1.3580 H   0  0  0  0  0  0  0  0  0  0  0  0
   48.9048  -34.4720    3.1247 H   0  0  0  0  0  0  0  0  0  0  0  0
   51.1686  -33.4209    3.0598 H   0  0  0  0  0  0  0  0  0  0  0  0
   51.1687  -33.5304    1.2925 H   0  0  0  0  0  0  0  0  0  0  0  0
   50.9321  -36.0106    1.4454 H   0  0  0  0  0  0  0  0  0  0  0  0
   50.9311  -35.9016    3.2137 H   0  0  0  0  0  0  0  0  0  0  0  0
   53.1947  -34.8533    3.1507 H   0  0  0  0  0  0  0  0  0  0  0  0
   53.1957  -34.9616    1.3817 H   0  0  0  0  0  0  0  0  0  0  0  0
   52.9591  -37.4412    1.5336 H   0  0  0  0  0  0  0  0  0  0  0  0
   52.9578  -37.3329    3.3025 H   0  0  0  0  0  0  0  0  0  0  0  0
   55.2210  -36.2836    3.2396 H   0  0  0  0  0  0  0  0  0  0  0  0
   55.2223  -36.3919    1.4708 H   0  0  0  0  0  0  0  0  0  0  0  0
   54.9857  -38.8714    1.6226 H   0  0  0  0  0  0  0  0  0  0  0  0
   54.9844  -38.7631    3.3914 H   0  0  0  0  0  0  0  0  0  0  0  0
   57.2476  -37.7139    3.3286 H   0  0  0  0  0  0  0  0  0  0  0  0
   57.2489  -37.8222    1.5598 H   0  0  0  0  0  0  0  0  0  0  0  0
   57.0123  -40.3017    1.7116 H   0  0  0  0  0  0  0  0  0  0  0  0
   57.0111  -40.1934    3.4804 H   0  0  0  0  0  0  0  0  0  0  0  0
   59.2743  -39.1430    3.4167 H   0  0  0  0  0  0  0  0  0  0  0  0
   59.2755  -39.2537    1.6481 H   0  0  0  0  0  0  0  0  0  0  0  0
   59.0389  -41.7330    1.8034 H   0  0  0  0  0  0  0  0  0  0  0  0
   59.0377  -41.6223    3.5721 H   0  0  0  0  0  0  0  0  0  0  0  0
   61.3009  -40.5731    3.5077 H   0  0  0  0  0  0  0  0  0  0  0  0
   61.3021  -40.6839    1.7390 H   0  0  0  0  0  0  0  0  0  0  0  0
   61.0655  -43.1632    1.8943 H   0  0  0  0  0  0  0  0  0  0  0  0
   61.0642  -43.0524    3.6630 H   0  0  0  0  0  0  0  0  0  0  0  0
   63.3274  -42.0030    3.5987 H   0  0  0  0  0  0  0  0  0  0  0  0
   63.3286  -42.1139    1.8299 H   0  0  0  0  0  0  0  0  0  0  0  0
   63.0915  -44.5933    1.9855 H   0  0  0  0  0  0  0  0  0  0  0  0
   63.0907  -44.4823    3.7542 H   0  0  0  0  0  0  0  0  0  0  0  0
   65.3543  -43.4314    3.6878 H   0  0  0  0  0  0  0  0  0  0  0  0
   65.3550  -43.5456    1.9200 H   0  0  0  0  0  0  0  0  0  0  0  0
   65.1173  -46.0257    2.0810 H   0  0  0  0  0  0  0  0  0  0  0  0
   65.1172  -45.9112    3.8479 H   0  0  0  0  0  0  0  0  0  0  0  0
   67.3819  -44.8614    3.7797 H   0  0  0  0  0  0  0  0  0  0  0  0
   67.3819  -44.9764    2.0129 H   0  0  0  0  0  0  0  0  0  0  0  0
   67.1447  -47.4565    2.1731 H   0  0  0  0  0  0  0  0  0  0  0  0
   67.1425  -47.3424    3.9406 H   0  0  0  0  0  0  0  0  0  0  0  0
   69.4090  -46.2954    3.8752 H   0  0  0  0  0  0  0  0  0  0  0  0
   69.4114  -46.4068    2.1106 H   0  0  0  0  0  0  0  0  0  0  0  0
   69.1829  -48.8931    2.2667 H   0  0  0  0  0  0  0  0  0  0  0  0
   69.1805  -48.7817    4.0324 H   0  0  0  0  0  0  0  0  0  0  0  0
   71.4488  -47.8523    2.2017 H   0  0  0  0  0  0  0  0  0  0  0  0
   71.4426  -49.3311    3.1837 H   0  0  0  0  0  0  0  0  0  0  0  0
   71.4464  -47.7405    3.9720 H   0  0  0  0  0  0  0  0  0  0  0  0
  1  2  2  0  0  0  0
  2  3  1  0  0  0  0
  2  5  1  0  0  0  0
  3  4  1  0  0  0  0
  4 79  1  0  0  0  0
  5  6  1  0  0  0  0
  6  7  1  0  0  0  0
  7  8  1  0  0  0  0
  8  9  1  0  0  0  0
  9 10  1  0  0  0  0
 10 11  1  0  0  0  0
 11 12  1  0  0  0  0
 12 13  1  0  0  0  0
 13 14  1  0  0  0  0
 14 15  1  0  0  0  0
 15 16  1  0  0  0  0
 16 17  1  0  0  0  0
 17 18  1  0  0  0  0
 18 19  1  0  0  0  0
 19 20  1  0  0  0  0
 20 21  1  0  0  0  0
 21 22  1  0  0  0  0
 22 23  1  0  0  0  0
 23 24  1  0  0  0  0
 24 25  1  0  0  0  0
 25 26  1  0  0  0  0
 26 27  1  0  0  0  0
 27 28  1  0  0  0  0
 28 29  1  0  0  0  0
 29 30  1  0  0  0  0
 30 31  1  0  0  0  0
 31 32  1  0  0  0  0
 32 33  1  0  0  0  0
 33 34  1  0  0  0  0
 34 35  1  0  0  0  0
 35 36  1  0  0  0  0
 36 37  1  0  0  0  0
 37 38  1  0  0  0  0
 38 39  1  0  0  0  0
 39 40  1  0  0  0  0
 40 41  1  0  0  0  0
 41 42  1  0  0  0  0
 42 43  1  0  0  0  0
 43 44  1  0  0  0  0
 44 45  1  0  0  0  0
 45 46  1  0  0  0  0
 46 47  1  0  0  0  0
 47 48  1  0  0  0  0
 48 49  1  0  0  0  0
 49 50  1  0  0  0  0
 50 51  1  0  0  0  0
 51 52  1  0  0  0  0
 52 53  1  0  0  0  0
 53 54  1  0  0  0  0
 53 80  1  0  0  0  0
 53 81  1  0  0  0  0
 54 55  1  0  0  0  0
 54 82  1  0  0  0  0
 54 83  1  0  0  0  0
 55 56  1  0  0  0  0
 55 84  1  0  0  0  0
 55 85  1  0  0  0  0
 56 57  1  0  0  0  0
 56 86  1  0  0  0  0
 56 87  1  0  0  0  0
 57 58  1  0  0  0  0
 57 88  1  0  0  0  0
 57 89  1  0  0  0  0
 58 59  1  0  0  0  0
 58 90  1  0  0  0  0
 58 91  1  0  0  0  0
 59 60  1  0  0  0  0
 59 92  1  0  0  0  0
 59 93  1  0  0  0  0
 60 61  1  0  0  0  0
 60 94  1  0  0  0  0
 60 95  1  0  0  0  0
 61 62  1  0  0  0  0
 61 96  1  0  0  0  0
 61 97  1  0  0  0  0
 62 63  1  0  0  0  0
 62 98  1  0  0  0  0
 62 99  1  0  0  0  0
 63 64  1  0  0  0  0
 63100  1  0  0  0  0
 63101  1  0  0  0  0
 64 65  1  0  0  0  0
 64102  1  0  0  0  0
 64103  1  0  0  0  0
 65 66  1  0  0  0  0
 65104  1  0  0  0  0
 65105  1  0  0  0  0
 66 67  1  0  0  0  0
 66106  1  0  0  0  0
 66107  1  0  0  0  0
 67 68  1  0  0  0  0
 67108  1  0  0  0  0
 67109  1  0  0  0  0
 68 69  1  0  0  0  0
 68110  1  0  0  0  0
 68111  1  0  0  0  0
 69 70  1  0  0  0  0
 69112  1  0  0  0  0
 69113  1  0  0  0  0
 70 71  1  0  0  0  0
 70114  1  0  0  0  0
 70115  1  0  0  0  0
 71 72  1  0  0  0  0
 71116  1  0  0  0  0
 71117  1  0  0  0  0
 72 73  1  0  0  0  0
 72118  1  0  0  0  0
 72119  1  0  0  0  0
 73 74  1  0  0  0  0
 73120  1  0  0  0  0
 73121  1  0  0  0  0
 74 75  1  0  0  0  0
 74122  1  0  0  0  0
 74123  1  0  0  0  0
 75 76  1  0  0  0  0
 75124  1  0  0  0  0
 75125  1  0  0  0  0
 76 77  1  0  0  0  0
 76126  1  0  0  0  0
 76127  1  0  0  0  0
 77 78  1  0  0  0  0
 77128  1  0  0  0  0
 77129  1  0  0  0  0
 78130  1  0  0  0  0
 78131  1  0  0  0  0
 78132  1  0  0  0  0
M  END
$$$$
