
 OpenBabel04232216423D

 42 44  0  0  1  0  0  0  0  0999 V2000
    3.5172    1.4745    0.4193 C   0  0  0  0  0  0  0  0  0  0  0  0
    2.9628    0.1359    0.0437 C   0  0  0  0  0  0  0  0  0  0  0  0
    3.3123   -0.3666   -1.1965 C   0  0  0  0  0  0  0  0  0  0  0  0
    4.6890   -0.2781   -1.6804 C   0  0  0  0  0  0  0  0  0  0  0  0
    5.6404   -1.2028   -0.9356 C   0  0  0  0  0  0  0  0  0  0  0  0
    5.1081    0.6897   -2.5479 C   0  0  0  0  0  0  0  0  0  0  0  0
    4.1792    1.7357   -3.1936 C   0  0  0  0  0  0  0  0  0  0  0  0
    4.5468    2.3040   -4.5872 C   0  0  0  0  0  0  0  0  0  0  0  0
    3.5902    3.4077   -5.0619 C   0  0  0  0  0  0  0  0  0  0  0  0
    3.5248    4.6389   -4.1836 C   0  0  0  0  0  0  0  0  0  0  0  0
    3.5032    3.5543   -6.5073 C   0  0  3  0  0  3  0  0  0  0  0  0
    3.5143    4.8468   -7.2369 C   0  0  0  0  0  0  0  0  0  0  0  0
    2.3874    3.0548   -5.7875 C   0  0  0  0  0  0  0  0  0  0  0  0
    6.5235    0.9219   -2.8117 C   0  0  0  0  0  0  0  0  0  0  0  0
    7.1227    2.1244   -2.6280 C   0  0  0  0  0  0  0  0  0  0  0  0
    7.0843    2.7341   -1.3088 C   0  0  0  0  0  0  0  0  0  0  0  0
    8.2081    2.6882   -0.6064 C   0  0  0  0  0  0  0  0  0  0  0  0
    7.1084    2.2442    0.1071 C   0  0  0  0  0  0  0  0  0  0  0  0
    5.8910    1.9477    0.4951 C   0  0  0  0  0  0  0  0  0  0  0  0
    4.6594    1.5111    1.1302 C   0  0  0  0  0  0  0  0  0  0  0  0
    3.2060    2.2776   -0.2364 H   0  0  0  0  0  0  0  0  0  0  0  0
    3.2139   -0.5640    0.8233 H   0  0  0  0  0  0  0  0  0  0  0  0
    2.5796   -0.1059   -1.9918 H   0  0  0  0  0  0  0  0  0  0  0  0
    5.0973   -2.0005   -0.4166 H   0  0  0  0  0  0  0  0  0  0  0  0
    6.2015   -0.6611   -0.1690 H   0  0  0  0  0  0  0  0  0  0  0  0
    6.3632   -1.6911   -1.5982 H   0  0  0  0  0  0  0  0  0  0  0  0
    4.1224    2.5643   -2.4804 H   0  0  0  0  0  0  0  0  0  0  0  0
    3.1639    1.3411   -3.2922 H   0  0  0  0  0  0  0  0  0  0  0  0
    4.5799    1.4794   -5.3138 H   0  0  0  0  0  0  0  0  0  0  0  0
    5.5464    2.7509   -4.5918 H   0  0  0  0  0  0  0  0  0  0  0  0
    4.4935    5.1502   -4.1697 H   0  0  0  0  0  0  0  0  0  0  0  0
    3.2591    4.3839   -3.1540 H   0  0  0  0  0  0  0  0  0  0  0  0
    2.7680    5.3586   -4.5206 H   0  0  0  0  0  0  0  0  0  0  0  0
    4.3065    4.8219   -7.9926 H   0  0  0  0  0  0  0  0  0  0  0  0
    3.7183    5.7062   -6.5923 H   0  0  0  0  0  0  0  0  0  0  0  0
    2.5666    5.0222   -7.7553 H   0  0  0  0  0  0  0  0  0  0  0  0
    2.0530    2.0295   -5.8728 H   0  0  0  0  0  0  0  0  0  0  0  0
    7.1874    0.0748   -2.9739 H   0  0  0  0  0  0  0  0  0  0  0  0
    8.0369    2.3284   -3.1554 H   0  0  0  0  0  0  0  0  0  0  0  0
    9.1316    2.2194   -0.9085 H   0  0  0  0  0  0  0  0  0  0  0  0
    6.3624    1.6455    1.4758 H   0  0  0  0  0  0  0  0  0  0  0  0
    4.8157    0.6834    1.8337 H   0  0  0  0  0  0  0  0  0  0  0  0
  1  2  1  0  0  0  0
  1 20  2  3  0  0  0
  1 21  1  0  0  0  0
  2  3  2  3  0  0  0
  2 22  1  0  0  0  0
  3  4  1  0  0  0  0
  3 23  1  0  0  0  0
  4  5  1  0  0  0  0
  4  6  2  3  0  0  0
  5 24  1  0  0  0  0
  5 25  1  0  0  0  0
  5 26  1  0  0  0  0
  6  7  1  0  0  0  0
  6 14  1  0  0  0  0
  7  8  1  0  0  0  0
  7 27  1  0  0  0  0
  7 28  1  0  0  0  0
  8  9  1  0  0  0  0
  8 29  1  0  0  0  0
  8 30  1  0  0  0  0
  9 10  1  0  0  0  0
  9 11  1  0  0  0  0
  9 13  2  0  0  0  0
 10 31  1  0  0  0  0
 10 32  1  0  0  0  0
 10 33  1  0  0  0  0
 11 12  1  0  0  0  0
 11 13  1  0  0  0  0
 12 34  1  0  0  0  0
 12 35  1  0  0  0  0
 12 36  1  0  0  0  0
 13 37  1  0  0  0  0
 14 15  2  3  0  0  0
 14 38  1  0  0  0  0
 15 16  1  0  0  0  0
 15 39  1  0  0  0  0
 16 17  2  0  0  0  0
 16 18  1  0  0  0  0
 17 18  1  0  0  0  0
 17 40  1  0  0  0  0
 18 19  2  3  0  0  0
 19 20  1  0  0  0  0
 19 41  1  0  0  0  0
 20 42  1  0  0  0  0
M  END
$$$$
