
 OpenBabel04232216433D

 48 50  0  0  0  0  0  0  0  0999 V2000
    2.8492   -1.3458   -0.3358 C   0  0  0  0  0  0  0  0  0  0  0  0
    2.7805    0.0293    0.1944 C   0  0  0  0  0  0  0  0  0  0  0  0
    3.1635    0.1101    1.4997 C   0  0  0  0  0  0  0  0  0  0  0  0
    4.6105   -0.1112    1.6846 C   0  0  0  0  0  0  0  0  0  0  0  0
    5.1310   -1.3249    1.9754 C   0  0  0  0  0  0  0  0  0  0  0  0
    4.4815   -2.5586    2.5813 C   0  0  0  0  0  0  0  0  0  0  0  0
    3.9683   -2.3898    4.0143 C   0  0  0  0  0  0  0  0  0  0  0  0
    3.4878   -3.7126    4.6360 C   0  0  0  0  0  0  0  0  0  0  0  0
    4.6059   -4.7408    4.8488 C   0  0  0  0  0  0  0  0  0  0  0  0
    4.1085   -5.9756    5.6053 C   0  0  0  0  0  0  0  0  0  0  0  0
    5.2343   -6.9916    5.8109 C   0  0  0  0  0  0  0  0  0  0  0  0
    4.7445   -8.1921    6.5273 C   0  0  0  0  0  0  0  0  0  0  0  0
    4.2500   -9.3109    6.0470 N   0  0  0  0  0  0  0  0  0  0  0  0
    3.9561   -9.9983    7.1901 C   0  0  0  0  0  0  0  0  0  0  0  0
    4.2488   -9.3699    8.3317 N   0  0  0  0  0  0  0  0  0  0  0  0
    4.7805   -8.1541    7.8921 O   0  0  0  0  0  0  0  0  0  0  0  0
    6.4687   -1.6050    1.4149 C   0  0  0  0  0  0  0  0  0  0  0  0
    7.4677   -0.9185    2.0332 N   0  0  0  0  0  0  0  0  0  0  0  0
    8.7298   -1.2997    1.7760 C   0  0  0  0  0  0  0  0  0  0  0  0
    9.0455   -2.3671    0.9568 C   0  0  0  0  0  0  0  0  0  0  0  0
    8.0103   -3.0199    0.2840 C   0  0  0  0  0  0  0  0  0  0  0  0
    6.6759   -2.6148    0.4454 C   0  0  0  0  0  0  0  0  0  0  0  0
    5.6399   -3.4000   -0.3094 C   0  0  0  0  0  0  0  0  0  0  0  0
    4.4938   -3.0470   -0.9317 C   0  0  0  0  0  0  0  0  0  0  0  0
    3.9363   -1.7148   -1.0319 C   0  0  0  0  0  0  0  0  0  0  0  0
    2.2434   -2.0851    0.1929 H   0  0  0  0  0  0  0  0  0  0  0  0
    3.2891    0.7167   -0.4959 H   0  0  0  0  0  0  0  0  0  0  0  0
    2.5905   -0.4871    2.2015 H   0  0  0  0  0  0  0  0  0  0  0  0
    5.2460    0.6471    1.2235 H   0  0  0  0  0  0  0  0  0  0  0  0
    5.2286   -3.3597    2.6091 H   0  0  0  0  0  0  0  0  0  0  0  0
    3.6779   -2.9331    1.9403 H   0  0  0  0  0  0  0  0  0  0  0  0
    3.1274   -1.6897    4.0192 H   0  0  0  0  0  0  0  0  0  0  0  0
    4.7517   -1.9544    4.6449 H   0  0  0  0  0  0  0  0  0  0  0  0
    2.6997   -4.1493    4.0115 H   0  0  0  0  0  0  0  0  0  0  0  0
    3.0293   -3.4809    5.6070 H   0  0  0  0  0  0  0  0  0  0  0  0
    5.4292   -4.2783    5.4053 H   0  0  0  0  0  0  0  0  0  0  0  0
    5.0083   -5.0672    3.8827 H   0  0  0  0  0  0  0  0  0  0  0  0
    3.2860   -6.4426    5.0480 H   0  0  0  0  0  0  0  0  0  0  0  0
    3.6999   -5.6737    6.5779 H   0  0  0  0  0  0  0  0  0  0  0  0
    6.0559   -6.5343    6.3748 H   0  0  0  0  0  0  0  0  0  0  0  0
    5.6442   -7.2972    4.8408 H   0  0  0  0  0  0  0  0  0  0  0  0
    3.5136  -10.9846    7.1946 H   0  0  0  0  0  0  0  0  0  0  0  0
    9.5010   -0.7281    2.2829 H   0  0  0  0  0  0  0  0  0  0  0  0
   10.0758   -2.6866    0.8452 H   0  0  0  0  0  0  0  0  0  0  0  0
    8.2582   -3.8667   -0.3520 H   0  0  0  0  0  0  0  0  0  0  0  0
    5.8904   -4.4582   -0.3594 H   0  0  0  0  0  0  0  0  0  0  0  0
    3.9015   -3.8268   -1.4074 H   0  0  0  0  0  0  0  0  0  0  0  0
    4.6004   -0.9716   -1.4715 H   0  0  0  0  0  0  0  0  0  0  0  0
  1  2  1  0  0  0  0
  1 25  2  0  0  0  0
  1 26  1  0  0  0  0
  2  3  2  0  0  0  0
  2 27  1  0  0  0  0
  3  4  1  0  0  0  0
  3 28  1  0  0  0  0
  4  5  2  0  0  0  0
  4 29  1  0  0  0  0
  5  6  1  0  0  0  0
  5 17  1  0  0  0  0
  6  7  1  0  0  0  0
  6 30  1  0  0  0  0
  6 31  1  0  0  0  0
  7  8  1  0  0  0  0
  7 32  1  0  0  0  0
  7 33  1  0  0  0  0
  8  9  1  0  0  0  0
  8 34  1  0  0  0  0
  8 35  1  0  0  0  0
  9 10  1  0  0  0  0
  9 36  1  0  0  0  0
  9 37  1  0  0  0  0
 10 11  1  0  0  0  0
 10 38  1  0  0  0  0
 10 39  1  0  0  0  0
 11 12  1  0  0  0  0
 11 40  1  0  0  0  0
 11 41  1  0  0  0  0
 12 13  2  0  0  0  0
 12 16  1  0  0  0  0
 13 14  1  0  0  0  0
 14 15  2  0  0  0  0
 14 42  1  0  0  0  0
 15 16  1  0  0  0  0
 17 18  1  0  0  0  0
 17 22  2  0  0  0  0
 18 19  2  0  0  0  0
 19 20  1  0  0  0  0
 19 43  1  0  0  0  0
 20 21  2  0  0  0  0
 20 44  1  0  0  0  0
 21 22  1  0  0  0  0
 21 45  1  0  0  0  0
 22 23  1  0  0  0  0
 23 24  2  0  0  0  0
 23 46  1  0  0  0  0
 24 25  1  0  0  0  0
 24 47  1  0  0  0  0
 25 48  1  0  0  0  0
M  END
$$$$
