
 OpenBabel04232216513D

126126  0  0  1  0  0  0  0  0999 V2000
  116.7541 -120.8895  -72.4126 C   0  0  0  0  0  0  0  0  0  0  0  0
  118.4739 -121.6360  -68.9886 C   0  0  0  0  0  0  0  0  0  0  0  0
  120.2578 -122.5547  -65.2400 C   0  0  3  0  0  0  0  0  0  0  0  0
  118.0958 -121.7385  -68.6545 C   0  0  0  0  0  0  0  0  0  0  0  0
  116.2594 -121.0001  -71.3353 C   0  0  0  0  0  0  0  0  0  0  0  0
  114.3836 -119.9958  -74.2549 C   0  0  0  0  0  0  0  0  0  0  0  0
  113.0533 -119.2620  -76.7056 C   0  0  0  0  0  0  0  0  0  0  0  0
  112.7451 -117.8789  -79.0443 C   0  0  0  0  0  0  0  0  0  0  0  0
  113.7916 -118.8095  -78.5058 C   0  0  0  0  0  0  0  0  0  0  0  0
  113.8885 -118.4121  -76.1402 C   0  0  0  0  0  0  0  0  0  0  0  0
  113.0557 -119.9382  -75.0367 C   0  0  0  0  0  0  0  0  0  0  0  0
  114.9286 -118.5947  -74.3919 C   0  0  0  0  0  0  0  0  0  0  0  0
  116.2376 -119.2607  -73.4269 C   0  0  0  0  0  0  0  0  0  0  0  0
  115.0573 -119.1090  -72.7985 C   0  0  0  0  0  0  0  0  0  0  0  0
  116.8440 -119.5471  -72.7242 C   0  0  0  0  0  0  0  0  0  0  0  0
  115.9639 -119.9332  -70.5892 C   0  0  0  0  0  0  0  0  0  0  0  0
  115.8152 -121.5050  -69.5218 C   0  0  0  0  0  0  0  0  0  0  0  0
  116.6252 -121.1732  -68.1108 C   0  0  0  0  0  0  0  0  0  0  0  0
  116.5905 -122.3294  -67.0772 C   0  0  0  0  0  0  0  0  0  0  0  0
  118.1199 -121.6453  -66.1655 C   0  0  0  0  0  0  0  0  0  0  0  0
  118.6040 -122.9804  -65.0734 C   0  0  0  0  0  0  0  0  0  0  0  0
  119.9350 -122.9202  -63.9001 C   0  0  0  0  0  0  0  0  0  0  0  0
  120.7213 -124.4615  -63.9522 C   0  0  0  0  0  0  0  0  0  0  0  0
  120.3260 -122.7678  -63.0068 C   0  0  0  0  0  0  0  0  0  0  0  0
  120.4300 -122.2847  -61.4173 C   0  0  0  0  0  0  0  0  0  0  0  0
  121.3770 -122.5542  -59.5057 C   0  0  0  0  0  0  0  0  0  0  0  0
  122.1963 -123.1704  -58.0164 C   0  0  0  0  0  0  0  0  0  0  0  0
  123.1727 -123.9159  -58.2322 C   0  0  0  0  0  0  0  0  0  0  0  0
  123.5284 -124.3740  -57.1845 C   0  0  0  0  0  0  0  0  0  0  0  0
  123.7164 -123.0590  -55.6497 C   0  0  0  0  0  0  0  0  0  0  0  0
  123.9298 -124.7589  -55.0792 C   0  0  0  0  0  0  0  0  0  0  0  0
  124.8653 -123.7175  -54.5187 C   0  0  0  0  0  0  0  0  0  0  0  0
  124.8702 -125.2201  -53.4973 C   0  0  0  0  0  0  0  0  0  0  0  0
  125.8811 -124.9646  -51.8415 C   0  0  0  0  0  0  0  0  0  0  0  0
  125.2085 -125.8432  -51.8702 C   0  0  0  0  0  0  0  0  0  0  0  0
  126.2024 -124.8759  -50.2343 C   0  0  0  0  0  0  0  0  0  0  0  0
  127.2620 -125.8949  -49.0836 C   0  0  0  0  0  0  0  0  0  0  0  0
  128.1355 -125.9490  -47.3049 C   0  0  0  0  0  0  0  0  0  0  0  0
  128.8490 -125.4376  -45.8338 C   0  0  0  0  0  0  0  0  0  0  0  0
  129.2963 -127.1445  -44.9549 C   0  0  0  0  0  0  0  0  0  0  0  0
  130.0330 -128.6917  -45.3360 C   0  0  0  0  0  0  0  0  0  0  0  0
  130.0130 -127.7030  -43.4316 C   0  0  0  0  0  0  0  0  0  0  0  0
  130.4332 -129.0355  -42.8692 C   0  0  0  0  0  0  0  0  0  0  0  0
  131.0336 -127.9084  -41.2582 C   0  0  0  0  0  0  0  0  0  0  0  0
  131.9302 -127.9879  -40.2344 C   0  0  0  0  0  0  0  0  0  0  0  0
  132.4629 -128.3457  -38.9031 C   0  0  0  0  0  0  0  0  0  0  0  0
  132.8183 -130.2109  -38.5870 C   0  0  0  0  0  0  0  0  0  0  0  0
  132.3944 -129.6560  -37.6019 C   0  0  0  0  0  0  0  0  0  0  0  0
  133.3166 -129.9273  -36.0428 C   0  0  0  0  0  0  0  0  0  0  0  0
  134.5479 -128.8745  -34.5129 C   0  0  0  0  0  0  0  0  0  0  0  0
  136.2732 -128.9501  -33.6327 C   0  0  0  0  0  0  0  0  0  0  0  0
  135.7803 -129.2893  -32.0831 C   0  0  0  0  0  0  0  0  0  0  0  0
  136.0640 -130.3070  -32.8822 C   0  0  0  0  0  0  0  0  0  0  0  0
  134.9690 -129.9841  -35.5888 C   0  0  0  0  0  0  0  0  0  0  0  0
  133.9633 -129.3919  -38.3993 C   0  0  0  0  0  0  0  0  0  0  0  0
  132.4486 -128.6551  -41.9546 C   0  0  0  0  0  0  0  0  0  0  0  0
  130.8024 -127.6949  -45.2798 C   0  0  0  0  0  0  0  0  0  0  0  0
  128.8654 -126.7754  -49.0048 C   0  0  0  0  0  0  0  0  0  0  0  0
  127.1425 -125.9246  -52.4407 C   0  0  0  0  0  0  0  0  0  0  0  0
  124.9432 -124.7595  -56.7562 C   0  0  0  0  0  0  0  0  0  0  0  0
  122.6102 -123.5386  -61.1155 C   0  0  0  0  0  3  0  0  0  0  0  0
  115.5580 -120.2726  -74.6341 H   0  0  0  0  0  0  0  0  0  0  0  0
  115.5320 -120.3199  -74.6359 H   0  0  0  0  0  0  0  0  0  0  0  0
  115.5135 -120.3613  -74.6388 H   0  0  0  0  0  0  0  0  0  0  0  0
  117.4436 -120.7248  -70.9181 H   0  0  0  0  0  0  0  0  0  0  0  0
  117.5662 -120.9263  -71.0786 H   0  0  0  0  0  0  0  0  0  0  0  0
  119.1472 -122.2944  -67.1206 H   0  0  0  0  0  0  0  0  0  0  0  0
  116.9332 -121.6598  -70.7168 H   0  0  0  0  0  0  0  0  0  0  0  0
  115.2016 -120.6477  -73.4450 H   0  0  0  0  0  0  0  0  0  0  0  0
  113.1756 -119.3427  -76.3612 H   0  0  0  0  0  0  0  0  0  0  0  0
  111.8125 -118.9987  -78.7846 H   0  0  0  0  0  0  0  0  0  0  0  0
  111.5917 -117.1596  -79.0573 H   0  0  0  0  0  0  0  0  0  0  0  0
  112.9561 -120.0828  -79.3605 H   0  0  0  0  0  0  0  0  0  0  0  0
  114.1722 -117.7234  -77.1929 H   0  0  0  0  0  0  0  0  0  0  0  0
  113.6716 -120.7535  -76.4767 H   0  0  0  0  0  0  0  0  0  0  0  0
  113.7901 -118.3041  -74.7208 H   0  0  0  0  0  0  0  0  0  0  0  0
  116.0509 -120.9668  -74.1793 H   0  0  0  0  0  0  0  0  0  0  0  0
  114.5970 -119.8886  -72.4260 H   0  0  0  0  0  0  0  0  0  0  0  0
  116.6538 -121.5210  -73.3789 H   0  0  0  0  0  0  0  0  0  0  0  0
  115.6094 -121.6245  -70.7698 H   0  0  0  0  0  0  0  0  0  0  0  0
  116.7619 -122.5704  -70.3722 H   0  0  0  0  0  0  0  0  0  0  0  0
  117.1123 -120.9298  -67.4512 H   0  0  0  0  0  0  0  0  0  0  0  0
  117.9749 -122.8548  -66.7671 H   0  0  0  0  0  0  0  0  0  0  0  0
  119.0472 -121.0678  -66.8555 H   0  0  0  0  0  0  0  0  0  0  0  0
  119.3413 -123.6452  -66.3479 H   0  0  0  0  0  0  0  0  0  0  0  0
  119.7197 -123.7841  -64.1616 H   0  0  0  0  0  0  0  0  0  0  0  0
  121.2348 -126.0960  -63.9073 H   0  0  0  0  0  0  0  0  0  0  0  0
  120.5318 -121.7134  -62.2124 H   0  0  0  0  0  0  0  0  0  0  0  0
  120.8895 -123.8550  -62.3408 H   0  0  0  0  0  0  0  0  0  0  0  0
  120.5853 -122.0859  -59.4750 H   0  0  0  0  0  0  0  0  0  0  0  0
  122.7577 -124.5132  -58.8250 H   0  0  0  0  0  0  0  0  0  0  0  0
  121.9976 -123.5866  -57.7898 H   0  0  0  0  0  0  0  0  0  0  0  0
  123.8834 -125.5870  -57.7295 H   0  0  0  0  0  0  0  0  0  0  0  0
  123.4342 -121.4003  -55.1941 H   0  0  0  0  0  0  0  0  0  0  0  0
  124.8109 -126.1735  -55.5569 H   0  0  0  0  0  0  0  0  0  0  0  0
  126.1326 -123.4838  -55.2836 H   0  0  0  0  0  0  0  0  0  0  0  0
  125.8294 -126.6055  -53.5595 H   0  0  0  0  0  0  0  0  0  0  0  0
  126.5625 -124.4430  -51.9629 H   0  0  0  0  0  0  0  0  0  0  0  0
  126.2490 -127.0443  -52.2143 H   0  0  0  0  0  0  0  0  0  0  0  0
  127.2973 -124.7569  -49.3498 H   0  0  0  0  0  0  0  0  0  0  0  0
  127.9191 -127.4959  -49.0977 H   0  0  0  0  0  0  0  0  0  0  0  0
  127.5281 -126.5079  -46.8085 H   0  0  0  0  0  0  0  0  0  0  0  0
  128.2946 -124.6061  -46.2308 H   0  0  0  0  0  0  0  0  0  0  0  0
  128.5513 -126.6158  -45.3164 H   0  0  0  0  0  0  0  0  0  0  0  0
  130.2795 -128.9422  -44.5532 H   0  0  0  0  0  0  0  0  0  0  0  0
  130.0985 -126.9704  -42.4213 H   0  0  0  0  0  0  0  0  0  0  0  0
  130.7967 -129.9374  -44.3005 H   0  0  0  0  0  0  0  0  0  0  0  0
  131.6279 -127.6927  -40.2386 H   0  0  0  0  0  0  0  0  0  0  0  0
  132.4131 -129.7367  -40.4764 H   0  0  0  0  0  0  0  0  0  0  0  0
  131.8338 -128.5417  -38.4225 H   0  0  0  0  0  0  0  0  0  0  0  0
  133.8335 -130.7407  -38.3426 H   0  0  0  0  0  0  0  0  0  0  0  0
  131.7279 -130.4738  -38.9973 H   0  0  0  0  0  0  0  0  0  0  0  0
  134.5800 -131.1047  -36.3266 H   0  0  0  0  0  0  0  0  0  0  0  0
  134.2575 -129.7320  -33.7900 H   0  0  0  0  0  0  0  0  0  0  0  0
  136.8038 -130.3138  -34.3771 H   0  0  0  0  0  0  0  0  0  0  0  0
  136.7299 -129.4057  -31.8672 H   0  0  0  0  0  0  0  0  0  0  0  0
  137.0492 -131.7722  -31.8138 H   0  0  0  0  0  0  0  0  0  0  0  0
  135.3495 -130.6411  -33.2235 H   0  0  0  0  0  0  0  0  0  0  0  0
  134.8876 -129.9961  -36.0216 H   0  0  0  0  0  0  0  0  0  0  0  0
  133.4909 -129.0488  -39.5589 H   0  0  0  0  0  0  0  0  0  0  0  0
  131.9512 -128.2806  -42.8629 H   0  0  0  0  0  0  0  0  0  0  0  0
  129.9579 -127.1708  -46.8214 H   0  0  0  0  0  0  0  0  0  0  0  0
  128.1134 -126.3968  -50.3559 H   0  0  0  0  0  0  0  0  0  0  0  0
  125.8484 -125.2572  -54.7815 H   0  0  0  0  0  0  0  0  0  0  0  0
  125.9078 -125.2407  -54.8086 H   0  0  0  0  0  0  0  0  0  0  0  0
  121.1123 -123.3204  -61.5033 H   0  0  0  0  0  0  0  0  0  0  0  0
  1  2  1  0  0  0  0
  1 62  1  0  0  0  0
  1 63  1  0  0  0  0
  1 64  1  0  0  0  0
  2  3  1  0  0  0  0
  2 65  1  0  0  0  0
  2 66  1  0  0  0  0
  3  4  1  0  0  0  0
  3 61  1  0  0  0  0
  3 67  1  0  0  0  0
  4  5  2  3  0  0  0
  4 68  1  0  0  0  0
  5  6  1  0  0  0  0
  5 69  1  0  0  0  0
  6  7  2  3  0  0  0
  6 70  1  0  0  0  0
  7  8  1  0  0  0  0
  7 71  1  0  0  0  0
  8  9  2  3  0  0  0
  8 72  1  0  0  0  0
  9 10  1  0  0  0  0
  9 73  1  0  0  0  0
 10 11  2  3  0  0  0
 10 74  1  0  0  0  0
 11 12  1  0  0  0  0
 11 75  1  0  0  0  0
 12 13  2  3  0  0  0
 12 76  1  0  0  0  0
 13 14  1  0  0  0  0
 13 77  1  0  0  0  0
 14 15  2  3  0  0  0
 14 78  1  0  0  0  0
 15 16  1  0  0  0  0
 15 79  1  0  0  0  0
 16 17  2  3  0  0  0
 16 80  1  0  0  0  0
 17 18  1  0  0  0  0
 17 81  1  0  0  0  0
 18 19  2  3  0  0  0
 18 82  1  0  0  0  0
 19 20  1  0  0  0  0
 19 83  1  0  0  0  0
 20 21  2  3  0  0  0
 20 84  1  0  0  0  0
 21 22  1  0  0  0  0
 21 85  1  0  0  0  0
 22 23  2  3  0  0  0
 22 86  1  0  0  0  0
 23 24  1  0  0  0  0
 23 87  1  0  0  0  0
 24 25  2  3  0  0  0
 24 88  1  0  0  0  0
 25 26  1  0  0  0  0
 25 89  1  0  0  0  0
 26 27  2  3  0  0  0
 26 90  1  0  0  0  0
 27 28  1  0  0  0  0
 27 91  1  0  0  0  0
 28 29  2  3  0  0  0
 28 92  1  0  0  0  0
 29 30  1  0  0  0  0
 29 93  1  0  0  0  0
 30 31  2  3  0  0  0
 30 94  1  0  0  0  0
 31 32  1  0  0  0  0
 31 95  1  0  0  0  0
 32 33  2  3  0  0  0
 32 96  1  0  0  0  0
 33 34  1  0  0  0  0
 33 97  1  0  0  0  0
 34 35  2  3  0  0  0
 34 98  1  0  0  0  0
 35 36  1  0  0  0  0
 35 99  1  0  0  0  0
 36 37  2  3  0  0  0
 36100  1  0  0  0  0
 37 38  1  0  0  0  0
 37101  1  0  0  0  0
 38 39  2  3  0  0  0
 38102  1  0  0  0  0
 39 40  1  0  0  0  0
 39103  1  0  0  0  0
 40 41  2  3  0  0  0
 40104  1  0  0  0  0
 41 42  1  0  0  0  0
 41105  1  0  0  0  0
 42 43  2  3  0  0  0
 42106  1  0  0  0  0
 43 44  1  0  0  0  0
 43107  1  0  0  0  0
 44 45  2  3  0  0  0
 44108  1  0  0  0  0
 45 46  1  0  0  0  0
 45109  1  0  0  0  0
 46 47  2  3  0  0  0
 46110  1  0  0  0  0
 47 48  1  0  0  0  0
 47111  1  0  0  0  0
 48 49  2  3  0  0  0
 48112  1  0  0  0  0
 49 50  1  0  0  0  0
 49113  1  0  0  0  0
 50 51  2  3  0  0  0
 50114  1  0  0  0  0
 51 52  1  0  0  0  0
 51115  1  0  0  0  0
 52 53  2  3  0  0  0
 52116  1  0  0  0  0
 53 54  1  0  0  0  0
 53117  1  0  0  0  0
 54 55  2  3  0  0  0
 54118  1  0  0  0  0
 55 56  1  0  0  0  0
 55119  1  0  0  0  0
 56 57  2  3  0  0  0
 56120  1  0  0  0  0
 57 58  1  0  0  0  0
 57121  1  0  0  0  0
 58 59  2  3  0  0  0
 58122  1  0  0  0  0
 59 60  1  0  0  0  0
 59123  1  0  0  0  0
 60 61  1  0  0  0  0
 60124  1  0  0  0  0
 60125  1  0  0  0  0
 61126  1  0  0  0  0
M  END
$$$$
