
 OpenBabel04232216593D

224224  0  0  0  0  0  0  0  0999 V2000
    5.2636    0.2827   -0.0485 O   0  0  0  0  0  0  0  0  0  0  0  0
    4.1364    0.0172    0.0734 C   0  0  0  0  0  0  0  0  0  0  0  0
    2.7641    0.3104   -0.1645 C   0  0  0  0  0  0  0  0  0  0  0  0
    3.0464   -0.7582    0.6253 C   0  0  0  0  0  0  0  0  0  0  0  0
    3.7665   -1.8129    1.4153 C   0  0  0  0  0  0  0  0  0  0  0  0
    2.8490   -2.8250    2.1645 C   0  0  0  0  0  0  0  0  0  0  0  0
    3.6176   -3.9095    2.9673 C   0  0  0  0  0  0  0  0  0  0  0  0
    2.6645   -4.8827    3.6901 C   0  0  0  0  0  0  0  0  0  0  0  0
    3.4107   -5.9594    4.4878 C   0  0  0  0  0  0  0  0  0  0  0  0
    2.4324   -6.9033    5.1890 C   0  0  0  0  0  0  0  0  0  0  0  0
    3.1801   -7.9693    5.9812 C   0  0  0  0  0  0  0  0  0  0  0  0
    2.1993   -8.9031    6.6749 C   0  0  0  0  0  0  0  0  0  0  0  0
    2.9517   -9.9628    7.4625 C   0  0  0  0  0  0  0  0  0  0  0  0
    1.9703  -10.8928    8.1534 C   0  0  0  0  0  0  0  0  0  0  0  0
    2.7240  -11.9500    8.9391 C   0  0  0  0  0  0  0  0  0  0  0  0
    1.7422  -12.8785    9.6290 C   0  0  0  0  0  0  0  0  0  0  0  0
    2.4962  -13.9338   10.4157 C   0  0  0  0  0  0  0  0  0  0  0  0
    1.5143  -14.8618   11.1052 C   0  0  0  0  0  0  0  0  0  0  0  0
    2.2685  -15.9168   11.8918 C   0  0  0  0  0  0  0  0  0  0  0  0
    1.2866  -16.8447   12.5811 C   0  0  0  0  0  0  0  0  0  0  0  0
    2.0407  -17.8996   13.3676 C   0  0  0  0  0  0  0  0  0  0  0  0
    1.0588  -18.8275   14.0569 C   0  0  0  0  0  0  0  0  0  0  0  0
    1.8130  -19.8824   14.8435 C   0  0  0  0  0  0  0  0  0  0  0  0
    0.8311  -20.8102   15.5328 C   0  0  0  0  0  0  0  0  0  0  0  0
    1.5852  -21.8651   16.3193 C   0  0  0  0  0  0  0  0  0  0  0  0
    0.6033  -22.7929   17.0085 C   0  0  0  0  0  0  0  0  0  0  0  0
    1.3575  -23.8490   17.7935 C   0  0  0  0  0  0  0  0  0  0  0  0
    0.3756  -24.7769   18.4827 C   0  0  0  0  0  0  0  0  0  0  0  0
    1.1297  -25.8317   19.2693 C   0  0  0  0  0  0  0  0  0  0  0  0
    0.1478  -26.7596   19.9586 C   0  0  0  0  0  0  0  0  0  0  0  0
    0.9020  -27.8133   20.7467 C   0  0  0  0  0  0  0  0  0  0  0  0
   -0.0799  -28.7411   21.4360 C   0  0  0  0  0  0  0  0  0  0  0  0
    0.6743  -29.7960   22.2225 C   0  0  0  0  0  0  0  0  0  0  0  0
   -0.3077  -30.7226   22.9134 C   0  0  0  0  0  0  0  0  0  0  0  0
    0.4465  -31.7763   23.7015 C   0  0  0  0  0  0  0  0  0  0  0  0
   -0.5354  -32.7030   24.3925 C   0  0  0  0  0  0  0  0  0  0  0  0
    0.2187  -33.7566   25.1806 C   0  0  0  0  0  0  0  0  0  0  0  0
   -0.7632  -34.6833   25.8716 C   0  0  0  0  0  0  0  0  0  0  0  0
   -0.0090  -35.7370   26.6597 C   0  0  0  0  0  0  0  0  0  0  0  0
   -0.9910  -36.6637   27.3507 C   0  0  0  0  0  0  0  0  0  0  0  0
   -0.2369  -37.7187   28.1373 C   0  0  0  0  0  0  0  0  0  0  0  0
   -1.2188  -38.6467   28.8267 C   0  0  0  0  0  0  0  0  0  0  0  0
   -0.4641  -39.7027   29.6115 C   0  0  0  0  0  0  0  0  0  0  0  0
   -1.4443  -40.6330   30.3001 C   0  0  0  0  0  0  0  0  0  0  0  0
   -0.6876  -41.6876   31.0863 C   0  0  0  0  0  0  0  0  0  0  0  0
   -1.6673  -42.6156   31.7760 C   0  0  0  0  0  0  0  0  0  0  0  0
   -0.9202  -43.6736   32.5660 C   0  0  0  0  0  0  0  0  0  0  0  0
   -1.9139  -44.5794   33.2525 C   0  0  0  0  0  0  0  0  0  0  0  0
   -1.1962  -45.5516   34.0038 O   0  0  0  0  0  0  0  0  0  0  0  0
   -2.1085  -46.4522   34.6288 C   0  0  0  0  0  0  0  0  0  0  0  0
   -2.9432  -47.1375   33.6974 O   0  0  0  0  0  0  0  0  0  0  0  0
   -2.1426  -47.8795   32.7846 C   0  0  0  0  0  0  0  0  0  0  0  0
   -3.0525  -48.5535   31.7860 C   0  0  0  0  0  0  0  0  0  0  0  0
   -2.2177  -49.3681   30.8159 C   0  0  0  0  0  0  0  0  0  0  0  0
   -3.1129  -50.0613   29.8085 C   0  0  0  0  0  0  0  0  0  0  0  0
   -2.2691  -50.8752   28.8449 C   0  0  0  0  0  0  0  0  0  0  0  0
   -3.1648  -51.5709   27.8379 C   0  0  0  0  0  0  0  0  0  0  0  0
   -2.3232  -52.3865   26.8751 C   0  0  0  0  0  0  0  0  0  0  0  0
   -3.2205  -53.0798   25.8678 C   0  0  0  0  0  0  0  0  0  0  0  0
   -2.3793  -53.8940   24.9035 C   0  0  0  0  0  0  0  0  0  0  0  0
   -3.2769  -54.5888   23.8975 C   0  0  0  0  0  0  0  0  0  0  0  0
   -2.4357  -55.4045   22.9346 C   0  0  0  0  0  0  0  0  0  0  0  0
   -3.3334  -56.1009   21.9298 C   0  0  0  0  0  0  0  0  0  0  0  0
   -2.4924  -56.9182   20.9681 C   0  0  0  0  0  0  0  0  0  0  0  0
   -3.3899  -57.6130   19.9622 C   0  0  0  0  0  0  0  0  0  0  0  0
   -2.5489  -58.4303   19.0004 C   0  0  0  0  0  0  0  0  0  0  0  0
   -3.4466  -59.1266   17.9957 C   0  0  0  0  0  0  0  0  0  0  0  0
   -2.6054  -59.9424   17.0328 C   0  0  0  0  0  0  0  0  0  0  0  0
   -3.5032  -60.6403   16.0292 C   0  0  0  0  0  0  0  0  0  0  0  0
   -2.6619  -61.4546   15.0649 C   0  0  0  0  0  0  0  0  0  0  0  0
   -3.5596  -62.1511   14.0599 C   0  0  0  0  0  0  0  0  0  0  0  0
   -2.7185  -62.9657   13.0951 C   0  0  0  0  0  0  0  0  0  0  0  0
   -3.6164  -63.6642   12.0908 C   0  0  0  0  0  0  0  0  0  0  0  0
   -2.7765  -64.4783   11.1233 C   0  0  0  0  0  0  0  0  0  0  0  0
   -3.6745  -65.1781   10.1173 C   0  0  0  0  0  0  0  0  0  0  0  0
   -2.8357  -65.9939    9.1474 C   0  0  0  0  0  0  0  0  0  0  0  0
   -3.7271  -66.7007    8.1364 C   0  0  0  0  0  0  0  0  0  0  0  0
   -2.8880  -67.5136    7.1703 C   0  0  0  0  0  0  0  0  0  0  0  0
    2.9325    1.1661   -0.8003 H   0  0  0  0  0  0  0  0  0  0  0  0
    4.4047   -1.3314    2.1662 H   0  0  0  0  0  0  0  0  0  0  0  0
    4.4090   -2.3953    0.7401 H   0  0  0  0  0  0  0  0  0  0  0  0
    2.1949   -3.3329    1.4447 H   0  0  0  0  0  0  0  0  0  0  0  0
    2.1988   -2.2815    2.8608 H   0  0  0  0  0  0  0  0  0  0  0  0
    4.2676   -3.4354    3.7130 H   0  0  0  0  0  0  0  0  0  0  0  0
    4.2661   -4.4862    2.2962 H   0  0  0  0  0  0  0  0  0  0  0  0
    2.0133   -5.3748    2.9575 H   0  0  0  0  0  0  0  0  0  0  0  0
    2.0149   -4.3238    4.3746 H   0  0  0  0  0  0  0  0  0  0  0  0
    4.0584   -5.4904    5.2383 H   0  0  0  0  0  0  0  0  0  0  0  0
    4.0568   -6.5423    3.8202 H   0  0  0  0  0  0  0  0  0  0  0  0
    1.7829   -7.3880    4.4495 H   0  0  0  0  0  0  0  0  0  0  0  0
    1.7827   -6.3353    5.8663 H   0  0  0  0  0  0  0  0  0  0  0  0
    3.8275   -7.4951    6.7289 H   0  0  0  0  0  0  0  0  0  0  0  0
    3.8278   -8.5483    5.3116 H   0  0  0  0  0  0  0  0  0  0  0  0
    1.5508   -9.3846    5.9326 H   0  0  0  0  0  0  0  0  0  0  0  0
    1.5506   -8.3313    7.3499 H   0  0  0  0  0  0  0  0  0  0  0  0
    3.5995   -9.4856    8.2081 H   0  0  0  0  0  0  0  0  0  0  0  0
    3.5998  -10.5389    6.7907 H   0  0  0  0  0  0  0  0  0  0  0  0
    1.3222  -11.3725    7.4096 H   0  0  0  0  0  0  0  0  0  0  0  0
    1.3219  -10.3192    8.8272 H   0  0  0  0  0  0  0  0  0  0  0  0
    3.3719  -11.4717    9.6840 H   0  0  0  0  0  0  0  0  0  0  0  0
    3.3722  -12.5251    8.2665 H   0  0  0  0  0  0  0  0  0  0  0  0
    1.0951  -13.3587    8.8846 H   0  0  0  0  0  0  0  0  0  0  0  0
    1.0930  -12.3041   10.3012 H   0  0  0  0  0  0  0  0  0  0  0  0
    3.1432  -13.4541   11.1605 H   0  0  0  0  0  0  0  0  0  0  0  0
    3.1454  -14.5087    9.7438 H   0  0  0  0  0  0  0  0  0  0  0  0
    0.8673  -15.3418   10.3606 H   0  0  0  0  0  0  0  0  0  0  0  0
    0.8651  -14.2872   11.7773 H   0  0  0  0  0  0  0  0  0  0  0  0
    2.9155  -15.4369   12.6364 H   0  0  0  0  0  0  0  0  0  0  0  0
    2.9176  -16.4916   11.2198 H   0  0  0  0  0  0  0  0  0  0  0  0
    0.6395  -17.3247   11.8365 H   0  0  0  0  0  0  0  0  0  0  0  0
    0.6374  -16.2700   13.2531 H   0  0  0  0  0  0  0  0  0  0  0  0
    2.6877  -17.4197   14.1123 H   0  0  0  0  0  0  0  0  0  0  0  0
    2.6899  -18.4744   12.6956 H   0  0  0  0  0  0  0  0  0  0  0  0
    0.4118  -19.3074   13.3123 H   0  0  0  0  0  0  0  0  0  0  0  0
    0.4096  -18.2527   14.7290 H   0  0  0  0  0  0  0  0  0  0  0  0
    2.4600  -19.4024   15.5881 H   0  0  0  0  0  0  0  0  0  0  0  0
    2.4622  -20.4571   14.1714 H   0  0  0  0  0  0  0  0  0  0  0  0
    0.1841  -21.2901   14.7881 H   0  0  0  0  0  0  0  0  0  0  0  0
    0.1819  -20.2354   16.2048 H   0  0  0  0  0  0  0  0  0  0  0  0
    2.2323  -21.3852   17.0639 H   0  0  0  0  0  0  0  0  0  0  0  0
    2.2344  -22.4398   15.6472 H   0  0  0  0  0  0  0  0  0  0  0  0
   -0.0446  -23.2718   16.2641 H   0  0  0  0  0  0  0  0  0  0  0  0
   -0.0449  -22.2183   17.6816 H   0  0  0  0  0  0  0  0  0  0  0  0
    2.0054  -23.3701   18.5379 H   0  0  0  0  0  0  0  0  0  0  0  0
    2.0057  -24.4236   17.1204 H   0  0  0  0  0  0  0  0  0  0  0  0
   -0.2715  -25.2568   17.7381 H   0  0  0  0  0  0  0  0  0  0  0  0
   -0.2736  -24.2021   19.1548 H   0  0  0  0  0  0  0  0  0  0  0  0
    1.7767  -25.3518   20.0139 H   0  0  0  0  0  0  0  0  0  0  0  0
    1.7789  -26.4065   18.5973 H   0  0  0  0  0  0  0  0  0  0  0  0
   -0.4982  -27.2405   19.2138 H   0  0  0  0  0  0  0  0  0  0  0  0
   -0.5023  -26.1846   20.6295 H   0  0  0  0  0  0  0  0  0  0  0  0
    1.5481  -27.3323   21.4914 H   0  0  0  0  0  0  0  0  0  0  0  0
    1.5521  -28.3882   20.0757 H   0  0  0  0  0  0  0  0  0  0  0  0
   -0.7269  -29.2211   20.6914 H   0  0  0  0  0  0  0  0  0  0  0  0
   -0.7291  -28.1663   22.1079 H   0  0  0  0  0  0  0  0  0  0  0  0
    1.3223  -29.3160   22.9662 H   0  0  0  0  0  0  0  0  0  0  0  0
    1.3224  -30.3717   21.5503 H   0  0  0  0  0  0  0  0  0  0  0  0
   -0.9548  -31.2036   22.1696 H   0  0  0  0  0  0  0  0  0  0  0  0
   -0.9567  -30.1467   23.5846 H   0  0  0  0  0  0  0  0  0  0  0  0
    1.0936  -31.2952   24.4453 H   0  0  0  0  0  0  0  0  0  0  0  0
    1.0956  -32.3522   23.0304 H   0  0  0  0  0  0  0  0  0  0  0  0
   -1.1826  -33.1840   23.6487 H   0  0  0  0  0  0  0  0  0  0  0  0
   -1.1845  -32.1270   25.0636 H   0  0  0  0  0  0  0  0  0  0  0  0
    0.8659  -33.2756   25.9244 H   0  0  0  0  0  0  0  0  0  0  0  0
    0.8678  -34.3326   24.5094 H   0  0  0  0  0  0  0  0  0  0  0  0
   -1.4103  -35.1644   25.1278 H   0  0  0  0  0  0  0  0  0  0  0  0
   -1.4122  -34.1074   26.5427 H   0  0  0  0  0  0  0  0  0  0  0  0
    0.6381  -35.2560   27.4035 H   0  0  0  0  0  0  0  0  0  0  0  0
    0.6400  -36.3129   25.9885 H   0  0  0  0  0  0  0  0  0  0  0  0
   -1.6390  -37.1437   26.6070 H   0  0  0  0  0  0  0  0  0  0  0  0
   -1.6391  -36.0880   28.0229 H   0  0  0  0  0  0  0  0  0  0  0  0
    0.4102  -37.2387   28.8818 H   0  0  0  0  0  0  0  0  0  0  0  0
    0.4123  -38.2934   27.4652 H   0  0  0  0  0  0  0  0  0  0  0  0
   -1.8667  -39.1256   28.0822 H   0  0  0  0  0  0  0  0  0  0  0  0
   -1.8670  -38.0721   29.4997 H   0  0  0  0  0  0  0  0  0  0  0  0
    0.1828  -39.2234   30.3566 H   0  0  0  0  0  0  0  0  0  0  0  0
    0.1852  -40.2760   28.9384 H   0  0  0  0  0  0  0  0  0  0  0  0
   -2.0907  -41.1130   29.5548 H   0  0  0  0  0  0  0  0  0  0  0  0
   -2.0950  -40.0595   30.9719 H   0  0  0  0  0  0  0  0  0  0  0  0
   -0.0413  -41.2069   31.8308 H   0  0  0  0  0  0  0  0  0  0  0  0
   -0.0391  -42.2619   30.4136 H   0  0  0  0  0  0  0  0  0  0  0  0
   -2.3166  -43.0927   31.0308 H   0  0  0  0  0  0  0  0  0  0  0  0
   -2.3171  -42.0396   32.4470 H   0  0  0  0  0  0  0  0  0  0  0  0
   -0.2656  -43.2129   33.3143 H   0  0  0  0  0  0  0  0  0  0  0  0
   -0.2684  -44.2616   31.9072 H   0  0  0  0  0  0  0  0  0  0  0  0
   -2.5463  -45.0628   32.4963 H   0  0  0  0  0  0  0  0  0  0  0  0
   -2.5550  -44.0089   33.9312 H   0  0  0  0  0  0  0  0  0  0  0  0
   -2.7391  -45.8901   35.3235 H   0  0  0  0  0  0  0  0  0  0  0  0
   -1.5412  -47.1900   35.2034 H   0  0  0  0  0  0  0  0  0  0  0  0
   -1.5621  -48.6201   33.3426 H   0  0  0  0  0  0  0  0  0  0  0  0
   -1.4471  -47.2176   32.2520 H   0  0  0  0  0  0  0  0  0  0  0  0
   -3.6458  -47.8012   31.2507 H   0  0  0  0  0  0  0  0  0  0  0  0
   -3.7698  -49.1910   32.3151 H   0  0  0  0  0  0  0  0  0  0  0  0
   -1.6287  -50.1129   31.3658 H   0  0  0  0  0  0  0  0  0  0  0  0
   -1.5053  -48.7158   30.2947 H   0  0  0  0  0  0  0  0  0  0  0  0
   -3.6993  -49.3174   29.2555 H   0  0  0  0  0  0  0  0  0  0  0  0
   -3.8231  -50.7158   30.3283 H   0  0  0  0  0  0  0  0  0  0  0  0
   -1.6804  -51.6181   29.3974 H   0  0  0  0  0  0  0  0  0  0  0  0
   -1.5587  -50.2212   28.3242 H   0  0  0  0  0  0  0  0  0  0  0  0
   -3.7520  -50.8279   27.2842 H   0  0  0  0  0  0  0  0  0  0  0  0
   -3.8757  -52.2242   28.3587 H   0  0  0  0  0  0  0  0  0  0  0  0
   -1.7370  -53.1307   27.4283 H   0  0  0  0  0  0  0  0  0  0  0  0
   -1.6112  -51.7339   26.3549 H   0  0  0  0  0  0  0  0  0  0  0  0
   -3.8077  -52.3358   25.3155 H   0  0  0  0  0  0  0  0  0  0  0  0
   -3.9315  -53.7336   26.3879 H   0  0  0  0  0  0  0  0  0  0  0  0
   -1.7911  -54.6372   25.4559 H   0  0  0  0  0  0  0  0  0  0  0  0
   -1.6693  -53.2401   24.3823 H   0  0  0  0  0  0  0  0  0  0  0  0
   -3.8641  -53.8456   23.3442 H   0  0  0  0  0  0  0  0  0  0  0  0
   -3.9878  -55.2417   24.4188 H   0  0  0  0  0  0  0  0  0  0  0  0
   -1.8475  -56.1469   23.4881 H   0  0  0  0  0  0  0  0  0  0  0  0
   -1.7257  -54.7514   22.4123 H   0  0  0  0  0  0  0  0  0  0  0  0
   -3.9206  -55.3585   21.3754 H   0  0  0  0  0  0  0  0  0  0  0  0
   -4.0443  -56.7530   22.4521 H   0  0  0  0  0  0  0  0  0  0  0  0
   -1.9062  -57.6615   21.5225 H   0  0  0  0  0  0  0  0  0  0  0  0
   -1.7805  -56.2664   20.4467 H   0  0  0  0  0  0  0  0  0  0  0  0
   -3.9761  -56.8697   19.4078 H   0  0  0  0  0  0  0  0  0  0  0  0
   -4.1018  -58.2648   20.4835 H   0  0  0  0  0  0  0  0  0  0  0  0
   -1.9617  -59.1727   19.5549 H   0  0  0  0  0  0  0  0  0  0  0  0
   -1.8380  -57.7782   18.4781 H   0  0  0  0  0  0  0  0  0  0  0  0
   -4.0349  -58.3844   17.4422 H   0  0  0  0  0  0  0  0  0  0  0  0
   -4.1565  -59.7797   18.5181 H   0  0  0  0  0  0  0  0  0  0  0  0
   -2.0160  -60.6837   17.5864 H   0  0  0  0  0  0  0  0  0  0  0  0
   -1.8964  -59.2889   16.5095 H   0  0  0  0  0  0  0  0  0  0  0  0
   -4.0936  -59.8990   15.4766 H   0  0  0  0  0  0  0  0  0  0  0  0
   -4.2113  -61.2947   16.5525 H   0  0  0  0  0  0  0  0  0  0  0  0
   -2.0726  -62.1966   15.6176 H   0  0  0  0  0  0  0  0  0  0  0  0
   -1.9529  -60.8003   14.5428 H   0  0  0  0  0  0  0  0  0  0  0  0
   -4.1489  -61.4088   13.5077 H   0  0  0  0  0  0  0  0  0  0  0  0
   -4.2686  -62.8051   14.5825 H   0  0  0  0  0  0  0  0  0  0  0  0
   -2.1281  -63.7066   13.6481 H   0  0  0  0  0  0  0  0  0  0  0  0
   -2.0105  -62.3109   12.5724 H   0  0  0  0  0  0  0  0  0  0  0  0
   -4.2079  -62.9224   11.5402 H   0  0  0  0  0  0  0  0  0  0  0  0
   -4.3234  -64.3190   12.6150 H   0  0  0  0  0  0  0  0  0  0  0  0
   -2.1847  -65.2185   11.6759 H   0  0  0  0  0  0  0  0  0  0  0  0
   -2.0692  -63.8220   10.6013 H   0  0  0  0  0  0  0  0  0  0  0  0
   -4.2657  -64.4353    9.5679 H   0  0  0  0  0  0  0  0  0  0  0  0
   -4.3812  -65.8320   10.6428 H   0  0  0  0  0  0  0  0  0  0  0  0
   -2.2423  -66.7311    9.7023 H   0  0  0  0  0  0  0  0  0  0  0  0
   -2.1288  -65.3359    8.6270 H   0  0  0  0  0  0  0  0  0  0  0  0
   -4.3187  -65.9636    7.5810 H   0  0  0  0  0  0  0  0  0  0  0  0
   -4.4322  -67.3594    8.6568 H   0  0  0  0  0  0  0  0  0  0  0  0
   -2.1919  -66.8680    6.6253 H   0  0  0  0  0  0  0  0  0  0  0  0
   -3.5295  -68.0205    6.4450 H   0  0  0  0  0  0  0  0  0  0  0  0
   -2.3060  -68.2702    7.7061 H   0  0  0  0  0  0  0  0  0  0  0  0
  1  2  2  0  0  0  0
  2  3  1  0  0  0  0
  2  4  1  0  0  0  0
  3  4  2  0  0  0  0
  3 79  1  0  0  0  0
  4  5  1  0  0  0  0
  5  6  1  0  0  0  0
  5 80  1  0  0  0  0
  5 81  1  0  0  0  0
  6  7  1  0  0  0  0
  6 82  1  0  0  0  0
  6 83  1  0  0  0  0
  7  8  1  0  0  0  0
  7 84  1  0  0  0  0
  7 85  1  0  0  0  0
  8  9  1  0  0  0  0
  8 86  1  0  0  0  0
  8 87  1  0  0  0  0
  9 10  1  0  0  0  0
  9 88  1  0  0  0  0
  9 89  1  0  0  0  0
 10 11  1  0  0  0  0
 10 90  1  0  0  0  0
 10 91  1  0  0  0  0
 11 12  1  0  0  0  0
 11 92  1  0  0  0  0
 11 93  1  0  0  0  0
 12 13  1  0  0  0  0
 12 94  1  0  0  0  0
 12 95  1  0  0  0  0
 13 14  1  0  0  0  0
 13 96  1  0  0  0  0
 13 97  1  0  0  0  0
 14 15  1  0  0  0  0
 14 98  1  0  0  0  0
 14 99  1  0  0  0  0
 15 16  1  0  0  0  0
 15100  1  0  0  0  0
 15101  1  0  0  0  0
 16 17  1  0  0  0  0
 16102  1  0  0  0  0
 16103  1  0  0  0  0
 17 18  1  0  0  0  0
 17104  1  0  0  0  0
 17105  1  0  0  0  0
 18 19  1  0  0  0  0
 18106  1  0  0  0  0
 18107  1  0  0  0  0
 19 20  1  0  0  0  0
 19108  1  0  0  0  0
 19109  1  0  0  0  0
 20 21  1  0  0  0  0
 20110  1  0  0  0  0
 20111  1  0  0  0  0
 21 22  1  0  0  0  0
 21112  1  0  0  0  0
 21113  1  0  0  0  0
 22 23  1  0  0  0  0
 22114  1  0  0  0  0
 22115  1  0  0  0  0
 23 24  1  0  0  0  0
 23116  1  0  0  0  0
 23117  1  0  0  0  0
 24 25  1  0  0  0  0
 24118  1  0  0  0  0
 24119  1  0  0  0  0
 25 26  1  0  0  0  0
 25120  1  0  0  0  0
 25121  1  0  0  0  0
 26 27  1  0  0  0  0
 26122  1  0  0  0  0
 26123  1  0  0  0  0
 27 28  1  0  0  0  0
 27124  1  0  0  0  0
 27125  1  0  0  0  0
 28 29  1  0  0  0  0
 28126  1  0  0  0  0
 28127  1  0  0  0  0
 29 30  1  0  0  0  0
 29128  1  0  0  0  0
 29129  1  0  0  0  0
 30 31  1  0  0  0  0
 30130  1  0  0  0  0
 30131  1  0  0  0  0
 31 32  1  0  0  0  0
 31132  1  0  0  0  0
 31133  1  0  0  0  0
 32 33  1  0  0  0  0
 32134  1  0  0  0  0
 32135  1  0  0  0  0
 33 34  1  0  0  0  0
 33136  1  0  0  0  0
 33137  1  0  0  0  0
 34 35  1  0  0  0  0
 34138  1  0  0  0  0
 34139  1  0  0  0  0
 35 36  1  0  0  0  0
 35140  1  0  0  0  0
 35141  1  0  0  0  0
 36 37  1  0  0  0  0
 36142  1  0  0  0  0
 36143  1  0  0  0  0
 37 38  1  0  0  0  0
 37144  1  0  0  0  0
 37145  1  0  0  0  0
 38 39  1  0  0  0  0
 38146  1  0  0  0  0
 38147  1  0  0  0  0
 39 40  1  0  0  0  0
 39148  1  0  0  0  0
 39149  1  0  0  0  0
 40 41  1  0  0  0  0
 40150  1  0  0  0  0
 40151  1  0  0  0  0
 41 42  1  0  0  0  0
 41152  1  0  0  0  0
 41153  1  0  0  0  0
 42 43  1  0  0  0  0
 42154  1  0  0  0  0
 42155  1  0  0  0  0
 43 44  1  0  0  0  0
 43156  1  0  0  0  0
 43157  1  0  0  0  0
 44 45  1  0  0  0  0
 44158  1  0  0  0  0
 44159  1  0  0  0  0
 45 46  1  0  0  0  0
 45160  1  0  0  0  0
 45161  1  0  0  0  0
 46 47  1  0  0  0  0
 46162  1  0  0  0  0
 46163  1  0  0  0  0
 47 48  1  0  0  0  0
 47164  1  0  0  0  0
 47165  1  0  0  0  0
 48 49  1  0  0  0  0
 48166  1  0  0  0  0
 48167  1  0  0  0  0
 49 50  1  0  0  0  0
 50 51  1  0  0  0  0
 50168  1  0  0  0  0
 50169  1  0  0  0  0
 51 52  1  0  0  0  0
 52 53  1  0  0  0  0
 52170  1  0  0  0  0
 52171  1  0  0  0  0
 53 54  1  0  0  0  0
 53172  1  0  0  0  0
 53173  1  0  0  0  0
 54 55  1  0  0  0  0
 54174  1  0  0  0  0
 54175  1  0  0  0  0
 55 56  1  0  0  0  0
 55176  1  0  0  0  0
 55177  1  0  0  0  0
 56 57  1  0  0  0  0
 56178  1  0  0  0  0
 56179  1  0  0  0  0
 57 58  1  0  0  0  0
 57180  1  0  0  0  0
 57181  1  0  0  0  0
 58 59  1  0  0  0  0
 58182  1  0  0  0  0
 58183  1  0  0  0  0
 59 60  1  0  0  0  0
 59184  1  0  0  0  0
 59185  1  0  0  0  0
 60 61  1  0  0  0  0
 60186  1  0  0  0  0
 60187  1  0  0  0  0
 61 62  1  0  0  0  0
 61188  1  0  0  0  0
 61189  1  0  0  0  0
 62 63  1  0  0  0  0
 62190  1  0  0  0  0
 62191  1  0  0  0  0
 63 64  1  0  0  0  0
 63192  1  0  0  0  0
 63193  1  0  0  0  0
 64 65  1  0  0  0  0
 64194  1  0  0  0  0
 64195  1  0  0  0  0
 65 66  1  0  0  0  0
 65196  1  0  0  0  0
 65197  1  0  0  0  0
 66 67  1  0  0  0  0
 66198  1  0  0  0  0
 66199  1  0  0  0  0
 67 68  1  0  0  0  0
 67200  1  0  0  0  0
 67201  1  0  0  0  0
 68 69  1  0  0  0  0
 68202  1  0  0  0  0
 68203  1  0  0  0  0
 69 70  1  0  0  0  0
 69204  1  0  0  0  0
 69205  1  0  0  0  0
 70 71  1  0  0  0  0
 70206  1  0  0  0  0
 70207  1  0  0  0  0
 71 72  1  0  0  0  0
 71208  1  0  0  0  0
 71209  1  0  0  0  0
 72 73  1  0  0  0  0
 72210  1  0  0  0  0
 72211  1  0  0  0  0
 73 74  1  0  0  0  0
 73212  1  0  0  0  0
 73213  1  0  0  0  0
 74 75  1  0  0  0  0
 74214  1  0  0  0  0
 74215  1  0  0  0  0
 75 76  1  0  0  0  0
 75216  1  0  0  0  0
 75217  1  0  0  0  0
 76 77  1  0  0  0  0
 76218  1  0  0  0  0
 76219  1  0  0  0  0
 77 78  1  0  0  0  0
 77220  1  0  0  0  0
 77221  1  0  0  0  0
 78222  1  0  0  0  0
 78223  1  0  0  0  0
 78224  1  0  0  0  0
M  END
$$$$
