
 OpenBabel04232216593D

218217  0  0  0  0  0  0  0  0999 V2000
    4.8814   -4.1049   -8.9279 O   0  0  0  0  0  0  0  0  0  0  0  0
    4.3326   -4.5629   -9.9503 C   0  0  0  0  0  0  0  0  0  0  0  0
    2.8339   -4.6151  -10.0386 C   0  0  0  0  0  0  0  0  0  0  0  0
    5.1444   -5.0721  -11.1164 C   0  0  0  0  0  0  0  0  0  0  0  0
    6.6500   -4.9544  -10.8926 C   0  0  0  0  0  0  0  0  0  0  0  0
    7.4366   -5.4747  -12.0852 C   0  0  0  0  0  0  0  0  0  0  0  0
    8.9297   -5.3338  -11.8085 C   0  0  0  0  0  0  0  0  0  0  0  0
    9.7326   -5.8465  -12.9886 C   0  0  0  0  0  0  0  0  0  0  0  0
   11.2186   -5.7058  -12.7075 C   0  0  0  0  0  0  0  0  0  0  0  0
   12.0167   -6.2201  -13.8920 C   0  0  0  0  0  0  0  0  0  0  0  0
   13.5037   -6.0854  -13.6191 C   0  0  0  0  0  0  0  0  0  0  0  0
   14.2982   -6.6030  -14.8058 C   0  0  0  0  0  0  0  0  0  0  0  0
   15.7877   -6.4705  -14.5329 C   0  0  0  0  0  0  0  0  0  0  0  0
   16.5867   -6.9859  -15.7199 C   0  0  0  0  0  0  0  0  0  0  0  0
   18.0818   -6.8593  -15.4555 C   0  0  0  0  0  0  0  0  0  0  0  0
   18.8843   -7.3774  -16.6484 C   0  0  0  0  0  0  0  0  0  0  0  0
   20.3852   -7.2558  -16.3907 C   0  0  0  0  0  0  0  0  0  0  0  0
   21.2207   -7.7704  -17.5716 C   0  0  0  0  0  0  0  0  0  0  0  0
   22.9704   -7.5514  -17.1226 S   0  0  0  0  0  0  0  0  0  0  0  0
   23.8570   -8.2127  -18.5730 C   0  0  0  0  0  0  0  0  0  0  0  0
   25.6662   -8.0372  -18.2629 S   0  0  0  0  0  0  0  0  0  0  0  0
   25.9460   -9.0440  -16.7160 C   0  0  0  0  0  0  0  0  0  0  0  0
   27.7271   -8.8421  -16.3580 S   0  0  0  0  0  0  0  0  0  0  0  0
   28.0166   -9.8155  -14.8459 C   0  0  0  0  0  0  0  0  0  0  0  0
   29.8164   -9.6868  -14.4144 S   0  0  0  0  0  0  0  0  0  0  0  0
   30.0956   -7.8510  -14.1533 C   0  0  0  0  0  0  0  0  0  0  0  0
   31.8802   -7.6871  -13.7659 S   0  0  0  0  0  0  0  0  0  0  0  0
   32.1574   -5.8972  -13.5192 C   0  0  0  0  0  0  0  0  0  0  0  0
   33.9462   -5.6537  -13.1047 S   0  0  0  0  0  0  0  0  0  0  0  0
   34.8404   -6.3304  -14.5947 C   0  0  0  0  0  0  0  0  0  0  0  0
   36.6367   -6.1678  -14.2102 S   0  0  0  0  0  0  0  0  0  0  0  0
   37.4455   -6.8277  -15.7089 C   0  0  0  0  0  0  0  0  0  0  0  0
   38.9643   -6.7351  -15.4925 C   0  0  0  0  0  0  0  0  0  0  0  0
   39.7535   -7.2623  -16.6902 C   0  0  0  0  0  0  0  0  0  0  0  0
   41.2579   -7.1537  -16.4426 C   0  0  0  0  0  0  0  0  0  0  0  0
   42.0385   -7.6824  -17.6390 C   0  0  0  0  0  0  0  0  0  0  0  0
   43.5358   -7.5725  -17.3932 C   0  0  0  0  0  0  0  0  0  0  0  0
   44.3047   -8.1009  -18.5936 C   0  0  0  0  0  0  0  0  0  0  0  0
   45.7983   -7.9927  -18.3467 C   0  0  0  0  0  0  0  0  0  0  0  0
   46.5639   -8.5191  -19.5478 C   0  0  0  0  0  0  0  0  0  0  0  0
   48.0571   -8.4101  -19.2993 C   0  0  0  0  0  0  0  0  0  0  0  0
   48.8202   -8.9364  -20.5001 C   0  0  0  0  0  0  0  0  0  0  0  0
   50.3126   -8.8272  -20.2509 C   0  0  0  0  0  0  0  0  0  0  0  0
   51.0753   -9.3535  -21.4517 C   0  0  0  0  0  0  0  0  0  0  0  0
   52.5674   -9.2442  -21.2023 C   0  0  0  0  0  0  0  0  0  0  0  0
   53.3300   -9.7705  -22.4031 C   0  0  0  0  0  0  0  0  0  0  0  0
   54.8220   -9.6611  -22.1536 C   0  0  0  0  0  0  0  0  0  0  0  0
   55.5844  -10.1874  -23.3544 C   0  0  0  0  0  0  0  0  0  0  0  0
   57.0764  -10.0762  -23.1057 C   0  0  0  0  0  0  0  0  0  0  0  0
   57.8389  -10.6043  -24.3057 C   0  0  0  0  0  0  0  0  0  0  0  0
   59.3309  -10.4950  -24.0561 C   0  0  0  0  0  0  0  0  0  0  0  0
   60.0933  -11.0231  -25.2561 C   0  0  0  0  0  0  0  0  0  0  0  0
   61.5853  -10.9156  -25.0057 C   0  0  0  0  0  0  0  0  0  0  0  0
   62.3477  -11.4419  -26.2065 C   0  0  0  0  0  0  0  0  0  0  0  0
   63.8397  -11.3325  -25.9570 C   0  0  0  0  0  0  0  0  0  0  0  0
   64.6021  -11.8588  -27.1578 C   0  0  0  0  0  0  0  0  0  0  0  0
   66.0941  -11.7476  -26.9090 C   0  0  0  0  0  0  0  0  0  0  0  0
   66.8565  -12.2738  -28.1098 C   0  0  0  0  0  0  0  0  0  0  0  0
   68.3485  -12.1626  -27.8611 C   0  0  0  0  0  0  0  0  0  0  0  0
   69.1109  -12.6889  -29.0619 C   0  0  0  0  0  0  0  0  0  0  0  0
   70.6029  -12.5777  -28.8131 C   0  0  0  0  0  0  0  0  0  0  0  0
   71.3653  -13.1040  -30.0139 C   0  0  0  0  0  0  0  0  0  0  0  0
   72.8573  -12.9927  -29.7652 C   0  0  0  0  0  0  0  0  0  0  0  0
   73.6197  -13.5190  -30.9660 C   0  0  0  0  0  0  0  0  0  0  0  0
   75.1117  -13.4078  -30.7173 C   0  0  0  0  0  0  0  0  0  0  0  0
   75.8743  -13.9341  -31.9181 C   0  0  0  0  0  0  0  0  0  0  0  0
   77.3663  -13.8211  -31.6702 C   0  0  0  0  0  0  0  0  0  0  0  0
   78.1290  -14.3473  -32.8710 C   0  0  0  0  0  0  0  0  0  0  0  0
   79.6212  -14.2344  -32.6233 C   0  0  0  0  0  0  0  0  0  0  0  0
   80.3842  -14.7607  -33.8242 C   0  0  0  0  0  0  0  0  0  0  0  0
   81.8768  -14.6479  -33.5769 C   0  0  0  0  0  0  0  0  0  0  0  0
   82.6410  -15.1742  -34.7778 C   0  0  0  0  0  0  0  0  0  0  0  0
   84.1347  -15.0635  -34.5302 C   0  0  0  0  0  0  0  0  0  0  0  0
   84.9020  -15.5896  -35.7307 C   0  0  0  0  0  0  0  0  0  0  0  0
   86.3984  -15.4796  -35.4847 C   0  0  0  0  0  0  0  0  0  0  0  0
   87.1687  -16.0043  -36.6868 C   0  0  0  0  0  0  0  0  0  0  0  0
   88.6695  -15.9006  -36.4504 C   0  0  0  0  0  0  0  0  0  0  0  0
   89.4355  -16.4242  -37.6501 C   0  0  0  0  0  0  0  0  0  0  0  0
    2.3960   -4.2128   -9.1210 H   0  0  0  0  0  0  0  0  0  0  0  0
    2.4997   -5.6500  -10.1542 H   0  0  0  0  0  0  0  0  0  0  0  0
    2.4856   -4.0095  -10.8799 H   0  0  0  0  0  0  0  0  0  0  0  0
    4.8612   -4.4926  -12.0037 H   0  0  0  0  0  0  0  0  0  0  0  0
    4.8810   -6.1246  -11.2787 H   0  0  0  0  0  0  0  0  0  0  0  0
    6.9447   -5.5176   -9.9967 H   0  0  0  0  0  0  0  0  0  0  0  0
    6.9247   -3.9059  -10.7139 H   0  0  0  0  0  0  0  0  0  0  0  0
    7.1698   -4.9117  -12.9883 H   0  0  0  0  0  0  0  0  0  0  0  0
    7.1902   -6.5275  -12.2711 H   0  0  0  0  0  0  0  0  0  0  0  0
    9.1949   -5.8959  -10.9052 H   0  0  0  0  0  0  0  0  0  0  0  0
    9.1758   -4.2826  -11.6186 H   0  0  0  0  0  0  0  0  0  0  0  0
    9.4687   -5.2833  -13.8917 H   0  0  0  0  0  0  0  0  0  0  0  0
    9.4872   -6.8987  -13.1769 H   0  0  0  0  0  0  0  0  0  0  0  0
   11.4841   -6.2694  -11.8046 H   0  0  0  0  0  0  0  0  0  0  0  0
   11.4662   -4.6541  -12.5176 H   0  0  0  0  0  0  0  0  0  0  0  0
   11.7507   -5.6550  -14.7939 H   0  0  0  0  0  0  0  0  0  0  0  0
   11.7664   -7.2712  -14.0817 H   0  0  0  0  0  0  0  0  0  0  0  0
   13.7696   -6.6489  -12.7163 H   0  0  0  0  0  0  0  0  0  0  0  0
   13.7542   -5.0342  -13.4309 H   0  0  0  0  0  0  0  0  0  0  0  0
   14.0314   -6.0382  -15.7080 H   0  0  0  0  0  0  0  0  0  0  0  0
   14.0446   -7.6537  -14.9949 H   0  0  0  0  0  0  0  0  0  0  0  0
   16.0502   -7.0356  -13.6300 H   0  0  0  0  0  0  0  0  0  0  0  0
   16.0367   -5.4193  -14.3412 H   0  0  0  0  0  0  0  0  0  0  0  0
   16.3176   -6.4181  -16.6187 H   0  0  0  0  0  0  0  0  0  0  0  0
   16.3290   -8.0350  -15.9088 H   0  0  0  0  0  0  0  0  0  0  0  0
   18.3429   -7.4244  -14.5522 H   0  0  0  0  0  0  0  0  0  0  0  0
   18.3316   -5.8088  -15.2614 H   0  0  0  0  0  0  0  0  0  0  0  0
   18.6131   -6.8069  -17.5445 H   0  0  0  0  0  0  0  0  0  0  0  0
   18.6224   -8.4255  -16.8354 H   0  0  0  0  0  0  0  0  0  0  0  0
   20.6297   -7.8186  -15.4793 H   0  0  0  0  0  0  0  0  0  0  0  0
   20.6206   -6.2015  -16.1904 H   0  0  0  0  0  0  0  0  0  0  0  0
   20.9924   -7.1946  -18.4731 H   0  0  0  0  0  0  0  0  0  0  0  0
   21.0042   -8.8274  -17.7533 H   0  0  0  0  0  0  0  0  0  0  0  0
   23.6127   -7.6363  -19.4714 H   0  0  0  0  0  0  0  0  0  0  0  0
   23.6221   -9.2684  -18.7598 H   0  0  0  0  0  0  0  0  0  0  0  0
   25.7083  -10.0922  -16.9158 H   0  0  0  0  0  0  0  0  0  0  0  0
   25.3466   -8.6566  -15.8866 H   0  0  0  0  0  0  0  0  0  0  0  0
   27.8011  -10.8753  -15.0138 H   0  0  0  0  0  0  0  0  0  0  0  0
   27.4257   -9.4623  -13.9920 H   0  0  0  0  0  0  0  0  0  0  0  0
   29.4928   -7.5091  -13.3083 H   0  0  0  0  0  0  0  0  0  0  0  0
   29.8568   -7.2921  -15.0626 H   0  0  0  0  0  0  0  0  0  0  0  0
   31.5759   -5.5214  -12.6718 H   0  0  0  0  0  0  0  0  0  0  0  0
   31.9188   -5.3029  -14.4094 H   0  0  0  0  0  0  0  0  0  0  0  0
   34.5888   -5.7367  -15.4797 H   0  0  0  0  0  0  0  0  0  0  0  0
   34.5980   -7.3854  -14.7570 H   0  0  0  0  0  0  0  0  0  0  0  0
   37.1558   -6.2369  -16.5835 H   0  0  0  0  0  0  0  0  0  0  0  0
   37.1532   -7.8707  -15.8662 H   0  0  0  0  0  0  0  0  0  0  0  0
   39.2556   -7.3095  -14.6028 H   0  0  0  0  0  0  0  0  0  0  0  0
   39.2581   -5.6921  -15.3129 H   0  0  0  0  0  0  0  0  0  0  0  0
   39.4907   -6.6923  -17.5892 H   0  0  0  0  0  0  0  0  0  0  0  0
   39.4902   -8.3099  -16.8775 H   0  0  0  0  0  0  0  0  0  0  0  0
   41.5332   -7.7221  -15.5453 H   0  0  0  0  0  0  0  0  0  0  0  0
   41.5340   -6.1079  -16.2581 H   0  0  0  0  0  0  0  0  0  0  0  0
   41.7705   -7.1153  -18.5388 H   0  0  0  0  0  0  0  0  0  0  0  0
   41.7718   -8.7301  -17.8244 H   0  0  0  0  0  0  0  0  0  0  0  0
   43.8116   -8.1422  -16.4972 H   0  0  0  0  0  0  0  0  0  0  0  0
   43.8100   -6.5264  -17.2095 H   0  0  0  0  0  0  0  0  0  0  0  0
   44.0343   -7.5312  -19.4913 H   0  0  0  0  0  0  0  0  0  0  0  0
   44.0340   -9.1474  -18.7803 H   0  0  0  0  0  0  0  0  0  0  0  0
   46.0729   -8.5642  -17.4513 H   0  0  0  0  0  0  0  0  0  0  0  0
   46.0730   -6.9468  -18.1602 H   0  0  0  0  0  0  0  0  0  0  0  0
   46.2923   -7.9478  -20.4441 H   0  0  0  0  0  0  0  0  0  0  0  0
   46.2923   -9.5653  -19.7352 H   0  0  0  0  0  0  0  0  0  0  0  0
   48.3298   -8.9816  -18.4035 H   0  0  0  0  0  0  0  0  0  0  0  0
   48.3298   -7.3641  -19.1124 H   0  0  0  0  0  0  0  0  0  0  0  0
   48.5482   -8.3650  -21.3962 H   0  0  0  0  0  0  0  0  0  0  0  0
   48.5482   -9.9826  -20.6873 H   0  0  0  0  0  0  0  0  0  0  0  0
   50.5851   -9.3987  -19.3551 H   0  0  0  0  0  0  0  0  0  0  0  0
   50.5851   -7.7812  -20.0640 H   0  0  0  0  0  0  0  0  0  0  0  0
   50.8031   -8.7821  -22.3477 H   0  0  0  0  0  0  0  0  0  0  0  0
   50.8031  -10.3996  -21.6388 H   0  0  0  0  0  0  0  0  0  0  0  0
   52.8398   -9.8157  -20.3064 H   0  0  0  0  0  0  0  0  0  0  0  0
   52.8398   -8.1981  -21.0153 H   0  0  0  0  0  0  0  0  0  0  0  0
   53.0576   -9.1990  -23.2990 H   0  0  0  0  0  0  0  0  0  0  0  0
   53.0576  -10.8166  -22.5901 H   0  0  0  0  0  0  0  0  0  0  0  0
   55.0944  -10.2326  -21.2577 H   0  0  0  0  0  0  0  0  0  0  0  0
   55.0943   -8.6150  -21.9666 H   0  0  0  0  0  0  0  0  0  0  0  0
   55.3111   -9.6169  -24.2506 H   0  0  0  0  0  0  0  0  0  0  0  0
   55.3131  -11.2339  -23.5405 H   0  0  0  0  0  0  0  0  0  0  0  0
   57.3496  -10.6456  -22.2087 H   0  0  0  0  0  0  0  0  0  0  0  0
   57.3479   -9.0295  -22.9210 H   0  0  0  0  0  0  0  0  0  0  0  0
   57.5667  -10.0340  -25.2024 H   0  0  0  0  0  0  0  0  0  0  0  0
   57.5663  -11.6506  -24.4912 H   0  0  0  0  0  0  0  0  0  0  0  0
   59.6030  -11.0653  -23.1594 H   0  0  0  0  0  0  0  0  0  0  0  0
   59.6034   -9.4487  -23.8706 H   0  0  0  0  0  0  0  0  0  0  0  0
   59.8222  -10.4519  -26.1525 H   0  0  0  0  0  0  0  0  0  0  0  0
   59.8197  -12.0689  -25.4426 H   0  0  0  0  0  0  0  0  0  0  0  0
   61.8565  -11.4880  -24.1101 H   0  0  0  0  0  0  0  0  0  0  0  0
   61.8587   -9.8699  -24.8179 H   0  0  0  0  0  0  0  0  0  0  0  0
   62.0754  -10.8704  -27.1024 H   0  0  0  0  0  0  0  0  0  0  0  0
   62.0753  -12.4879  -26.3935 H   0  0  0  0  0  0  0  0  0  0  0  0
   64.1121  -11.9039  -25.0611 H   0  0  0  0  0  0  0  0  0  0  0  0
   64.1120  -10.2864  -25.7700 H   0  0  0  0  0  0  0  0  0  0  0  0
   64.3287  -11.2882  -28.0540 H   0  0  0  0  0  0  0  0  0  0  0  0
   64.3308  -12.9053  -27.3439 H   0  0  0  0  0  0  0  0  0  0  0  0
   66.3675  -12.3181  -26.0128 H   0  0  0  0  0  0  0  0  0  0  0  0
   66.3654  -10.7010  -26.7229 H   0  0  0  0  0  0  0  0  0  0  0  0
   66.5831  -11.7033  -29.0060 H   0  0  0  0  0  0  0  0  0  0  0  0
   66.5853  -13.3203  -28.2959 H   0  0  0  0  0  0  0  0  0  0  0  0
   68.6219  -12.7331  -26.9649 H   0  0  0  0  0  0  0  0  0  0  0  0
   68.6198  -11.1161  -27.6750 H   0  0  0  0  0  0  0  0  0  0  0  0
   68.8375  -12.1184  -29.9581 H   0  0  0  0  0  0  0  0  0  0  0  0
   68.8397  -13.7354  -29.2480 H   0  0  0  0  0  0  0  0  0  0  0  0
   70.8763  -13.1482  -27.9169 H   0  0  0  0  0  0  0  0  0  0  0  0
   70.8742  -11.5312  -28.6270 H   0  0  0  0  0  0  0  0  0  0  0  0
   71.0919  -12.5335  -30.9101 H   0  0  0  0  0  0  0  0  0  0  0  0
   71.0941  -14.1505  -30.2000 H   0  0  0  0  0  0  0  0  0  0  0  0
   73.1307  -13.5633  -28.8690 H   0  0  0  0  0  0  0  0  0  0  0  0
   73.1285  -11.9462  -29.5791 H   0  0  0  0  0  0  0  0  0  0  0  0
   73.3463  -12.9485  -31.8622 H   0  0  0  0  0  0  0  0  0  0  0  0
   73.3484  -14.5655  -31.1521 H   0  0  0  0  0  0  0  0  0  0  0  0
   75.3852  -13.9783  -29.8211 H   0  0  0  0  0  0  0  0  0  0  0  0
   75.3829  -12.3613  -30.5312 H   0  0  0  0  0  0  0  0  0  0  0  0
   75.5998  -13.3645  -32.8145 H   0  0  0  0  0  0  0  0  0  0  0  0
   75.6040  -14.9810  -32.1033 H   0  0  0  0  0  0  0  0  0  0  0  0
   77.6407  -14.3906  -30.7737 H   0  0  0  0  0  0  0  0  0  0  0  0
   77.6364  -12.7741  -31.4849 H   0  0  0  0  0  0  0  0  0  0  0  0
   77.8543  -13.7777  -33.7674 H   0  0  0  0  0  0  0  0  0  0  0  0
   77.8587  -15.3943  -33.0562 H   0  0  0  0  0  0  0  0  0  0  0  0
   79.8955  -14.8039  -31.7267 H   0  0  0  0  0  0  0  0  0  0  0  0
   79.8912  -13.1874  -32.4380 H   0  0  0  0  0  0  0  0  0  0  0  0
   80.1093  -14.1911  -34.7205 H   0  0  0  0  0  0  0  0  0  0  0  0
   80.1136  -15.8076  -34.0093 H   0  0  0  0  0  0  0  0  0  0  0  0
   82.1507  -15.2173  -32.6802 H   0  0  0  0  0  0  0  0  0  0  0  0
   82.1465  -13.6009  -33.3914 H   0  0  0  0  0  0  0  0  0  0  0  0
   82.3667  -14.6036  -35.6737 H   0  0  0  0  0  0  0  0  0  0  0  0
   82.3689  -16.2206  -34.9636 H   0  0  0  0  0  0  0  0  0  0  0  0
   84.4066  -15.6337  -33.6333 H   0  0  0  0  0  0  0  0  0  0  0  0
   84.4044  -14.0167  -34.3433 H   0  0  0  0  0  0  0  0  0  0  0  0
   84.6268  -15.0191  -36.6263 H   0  0  0  0  0  0  0  0  0  0  0  0
   84.6290  -16.6358  -35.9164 H   0  0  0  0  0  0  0  0  0  0  0  0
   86.6690  -16.0508  -34.5882 H   0  0  0  0  0  0  0  0  0  0  0  0
   86.6665  -14.4329  -35.2960 H   0  0  0  0  0  0  0  0  0  0  0  0
   86.8913  -15.4315  -37.5803 H   0  0  0  0  0  0  0  0  0  0  0  0
   86.8918  -17.0491  -36.8741 H   0  0  0  0  0  0  0  0  0  0  0  0
   88.9470  -16.4745  -35.5585 H   0  0  0  0  0  0  0  0  0  0  0  0
   88.9466  -14.8563  -36.2650 H   0  0  0  0  0  0  0  0  0  0  0  0
   89.1907  -17.4745  -37.8384 H   0  0  0  0  0  0  0  0  0  0  0  0
   90.5121  -16.3476  -37.4753 H   0  0  0  0  0  0  0  0  0  0  0  0
   89.1902  -15.8485  -38.5483 H   0  0  0  0  0  0  0  0  0  0  0  0
  1  2  2  0  0  0  0
  2  3  1  0  0  0  0
  2  4  1  0  0  0  0
  3 79  1  0  0  0  0
  3 80  1  0  0  0  0
  3 81  1  0  0  0  0
  4  5  1  0  0  0  0
  4 82  1  0  0  0  0
  4 83  1  0  0  0  0
  5  6  1  0  0  0  0
  5 84  1  0  0  0  0
  5 85  1  0  0  0  0
  6  7  1  0  0  0  0
  6 86  1  0  0  0  0
  6 87  1  0  0  0  0
  7  8  1  0  0  0  0
  7 88  1  0  0  0  0
  7 89  1  0  0  0  0
  8  9  1  0  0  0  0
  8 90  1  0  0  0  0
  8 91  1  0  0  0  0
  9 10  1  0  0  0  0
  9 92  1  0  0  0  0
  9 93  1  0  0  0  0
 10 11  1  0  0  0  0
 10 94  1  0  0  0  0
 10 95  1  0  0  0  0
 11 12  1  0  0  0  0
 11 96  1  0  0  0  0
 11 97  1  0  0  0  0
 12 13  1  0  0  0  0
 12 98  1  0  0  0  0
 12 99  1  0  0  0  0
 13 14  1  0  0  0  0
 13100  1  0  0  0  0
 13101  1  0  0  0  0
 14 15  1  0  0  0  0
 14102  1  0  0  0  0
 14103  1  0  0  0  0
 15 16  1  0  0  0  0
 15104  1  0  0  0  0
 15105  1  0  0  0  0
 16 17  1  0  0  0  0
 16106  1  0  0  0  0
 16107  1  0  0  0  0
 17 18  1  0  0  0  0
 17108  1  0  0  0  0
 17109  1  0  0  0  0
 18 19  1  0  0  0  0
 18110  1  0  0  0  0
 18111  1  0  0  0  0
 19 20  1  0  0  0  0
 20 21  1  0  0  0  0
 20112  1  0  0  0  0
 20113  1  0  0  0  0
 21 22  1  0  0  0  0
 22 23  1  0  0  0  0
 22114  1  0  0  0  0
 22115  1  0  0  0  0
 23 24  1  0  0  0  0
 24 25  1  0  0  0  0
 24116  1  0  0  0  0
 24117  1  0  0  0  0
 25 26  1  0  0  0  0
 26 27  1  0  0  0  0
 26118  1  0  0  0  0
 26119  1  0  0  0  0
 27 28  1  0  0  0  0
 28 29  1  0  0  0  0
 28120  1  0  0  0  0
 28121  1  0  0  0  0
 29 30  1  0  0  0  0
 30 31  1  0  0  0  0
 30122  1  0  0  0  0
 30123  1  0  0  0  0
 31 32  1  0  0  0  0
 32 33  1  0  0  0  0
 32124  1  0  0  0  0
 32125  1  0  0  0  0
 33 34  1  0  0  0  0
 33126  1  0  0  0  0
 33127  1  0  0  0  0
 34 35  1  0  0  0  0
 34128  1  0  0  0  0
 34129  1  0  0  0  0
 35 36  1  0  0  0  0
 35130  1  0  0  0  0
 35131  1  0  0  0  0
 36 37  1  0  0  0  0
 36132  1  0  0  0  0
 36133  1  0  0  0  0
 37 38  1  0  0  0  0
 37134  1  0  0  0  0
 37135  1  0  0  0  0
 38 39  1  0  0  0  0
 38136  1  0  0  0  0
 38137  1  0  0  0  0
 39 40  1  0  0  0  0
 39138  1  0  0  0  0
 39139  1  0  0  0  0
 40 41  1  0  0  0  0
 40140  1  0  0  0  0
 40141  1  0  0  0  0
 41 42  1  0  0  0  0
 41142  1  0  0  0  0
 41143  1  0  0  0  0
 42 43  1  0  0  0  0
 42144  1  0  0  0  0
 42145  1  0  0  0  0
 43 44  1  0  0  0  0
 43146  1  0  0  0  0
 43147  1  0  0  0  0
 44 45  1  0  0  0  0
 44148  1  0  0  0  0
 44149  1  0  0  0  0
 45 46  1  0  0  0  0
 45150  1  0  0  0  0
 45151  1  0  0  0  0
 46 47  1  0  0  0  0
 46152  1  0  0  0  0
 46153  1  0  0  0  0
 47 48  1  0  0  0  0
 47154  1  0  0  0  0
 47155  1  0  0  0  0
 48 49  1  0  0  0  0
 48156  1  0  0  0  0
 48157  1  0  0  0  0
 49 50  1  0  0  0  0
 49158  1  0  0  0  0
 49159  1  0  0  0  0
 50 51  1  0  0  0  0
 50160  1  0  0  0  0
 50161  1  0  0  0  0
 51 52  1  0  0  0  0
 51162  1  0  0  0  0
 51163  1  0  0  0  0
 52 53  1  0  0  0  0
 52164  1  0  0  0  0
 52165  1  0  0  0  0
 53 54  1  0  0  0  0
 53166  1  0  0  0  0
 53167  1  0  0  0  0
 54 55  1  0  0  0  0
 54168  1  0  0  0  0
 54169  1  0  0  0  0
 55 56  1  0  0  0  0
 55170  1  0  0  0  0
 55171  1  0  0  0  0
 56 57  1  0  0  0  0
 56172  1  0  0  0  0
 56173  1  0  0  0  0
 57 58  1  0  0  0  0
 57174  1  0  0  0  0
 57175  1  0  0  0  0
 58 59  1  0  0  0  0
 58176  1  0  0  0  0
 58177  1  0  0  0  0
 59 60  1  0  0  0  0
 59178  1  0  0  0  0
 59179  1  0  0  0  0
 60 61  1  0  0  0  0
 60180  1  0  0  0  0
 60181  1  0  0  0  0
 61 62  1  0  0  0  0
 61182  1  0  0  0  0
 61183  1  0  0  0  0
 62 63  1  0  0  0  0
 62184  1  0  0  0  0
 62185  1  0  0  0  0
 63 64  1  0  0  0  0
 63186  1  0  0  0  0
 63187  1  0  0  0  0
 64 65  1  0  0  0  0
 64188  1  0  0  0  0
 64189  1  0  0  0  0
 65 66  1  0  0  0  0
 65190  1  0  0  0  0
 65191  1  0  0  0  0
 66 67  1  0  0  0  0
 66192  1  0  0  0  0
 66193  1  0  0  0  0
 67 68  1  0  0  0  0
 67194  1  0  0  0  0
 67195  1  0  0  0  0
 68 69  1  0  0  0  0
 68196  1  0  0  0  0
 68197  1  0  0  0  0
 69 70  1  0  0  0  0
 69198  1  0  0  0  0
 69199  1  0  0  0  0
 70 71  1  0  0  0  0
 70200  1  0  0  0  0
 70201  1  0  0  0  0
 71 72  1  0  0  0  0
 71202  1  0  0  0  0
 71203  1  0  0  0  0
 72 73  1  0  0  0  0
 72204  1  0  0  0  0
 72205  1  0  0  0  0
 73 74  1  0  0  0  0
 73206  1  0  0  0  0
 73207  1  0  0  0  0
 74 75  1  0  0  0  0
 74208  1  0  0  0  0
 74209  1  0  0  0  0
 75 76  1  0  0  0  0
 75210  1  0  0  0  0
 75211  1  0  0  0  0
 76 77  1  0  0  0  0
 76212  1  0  0  0  0
 76213  1  0  0  0  0
 77 78  1  0  0  0  0
 77214  1  0  0  0  0
 77215  1  0  0  0  0
 78216  1  0  0  0  0
 78217  1  0  0  0  0
 78218  1  0  0  0  0
M  END
$$$$
