
 OpenBabel04232216543D

 58 59  0  0  1  0  0  0  0  0999 V2000
    3.1998   -2.8308    0.1302 C   0  0  0  0  0  0  0  0  0  0  0  0
    3.0418   -1.6435   -0.8032 C   0  0  0  0  0  0  0  0  0  0  0  0
    3.8839   -0.4256   -0.4527 C   0  0  0  0  0  0  0  0  0  0  0  0
    5.3108   -0.5659    0.0492 C   0  0  0  0  0  0  0  0  0  0  0  0
    6.6145   -0.6988   -0.7195 N   0  0  0  0  0  0  0  0  0  0  0  0
    7.6652   -0.1621    0.2285 C   0  0  3  0  0  0  0  0  0  0  0  0
    8.1911   -1.1996    1.2570 C   0  0  0  0  0  0  0  0  0  0  0  0
    8.7214   -2.5507    0.8176 C   0  0  0  0  0  0  0  0  0  0  0  0
    8.6275    0.8536   -0.3139 C   0  0  0  0  0  0  0  0  0  0  0  0
    8.6270    2.2292    0.2517 C   0  0  0  0  0  0  0  0  0  0  0  0
    9.4409    3.0963   -0.0553 O   0  0  0  0  0  0  0  0  0  0  0  0
    9.7191    0.4618   -0.9631 C   0  0  0  0  0  0  0  0  0  0  0  0
    9.4782   -0.3034   -2.2254 C   0  0  0  0  0  0  0  0  0  0  0  0
    9.4468   -1.6614   -2.2793 C   0  0  0  0  0  0  0  0  0  0  0  0
   10.6694   -2.4653   -2.4991 N   0  0  0  0  0  0  0  0  0  0  0  0
   11.8993   -1.7710   -2.0688 C   0  0  0  0  0  0  0  0  0  0  0  0
   13.4386   -1.8679   -1.8350 C   0  0  0  0  0  0  0  0  0  0  0  0
   13.5705   -0.7027   -0.7829 C   0  0  0  0  0  0  0  0  0  0  0  0
   14.3351    0.1302    0.2182 C   0  0  0  0  0  0  0  0  0  0  0  0
   13.3028    1.0965    1.0264 C   0  0  0  0  0  0  0  0  0  0  0  0
   11.6993    1.0395    0.9648 C   0  0  0  0  0  0  0  0  0  0  0  0
   11.0878    0.6085   -0.4041 C   0  0  0  0  0  0  0  0  0  0  0  0
    8.0471   -2.2126   -2.2887 C   0  0  0  0  0  0  0  0  0  0  0  0
    6.9268   -1.7451   -1.6512 C   0  0  0  0  0  0  0  0  0  0  0  0
    2.5242   -3.6347   -0.1799 H   0  0  0  0  0  0  0  0  0  0  0  0
    2.9462   -2.5699    1.1637 H   0  0  0  0  0  0  0  0  0  0  0  0
    4.2186   -3.2242    0.1100 H   0  0  0  0  0  0  0  0  0  0  0  0
    1.9867   -1.3313   -0.7605 H   0  0  0  0  0  0  0  0  0  0  0  0
    3.2429   -1.9425   -1.8334 H   0  0  0  0  0  0  0  0  0  0  0  0
    3.3579   -0.0091    0.4304 H   0  0  0  0  0  0  0  0  0  0  0  0
    3.7804    0.3568   -1.2126 H   0  0  0  0  0  0  0  0  0  0  0  0
    5.3416   -1.2420    0.9109 H   0  0  0  0  0  0  0  0  0  0  0  0
    5.3842    0.4491    0.4594 H   0  0  0  0  0  0  0  0  0  0  0  0
    7.1350    0.4870    0.9336 H   0  0  0  0  0  0  0  0  0  0  0  0
    7.3692   -1.4118    1.9512 H   0  0  0  0  0  0  0  0  0  0  0  0
    8.9653   -0.7164    1.8647 H   0  0  0  0  0  0  0  0  0  0  0  0
    7.9704   -3.1455    0.2925 H   0  0  0  0  0  0  0  0  0  0  0  0
    8.9962   -3.1306    1.7041 H   0  0  0  0  0  0  0  0  0  0  0  0
    9.6249   -2.4615    0.2195 H   0  0  0  0  0  0  0  0  0  0  0  0
    7.7897    2.4657    0.9244 H   0  0  0  0  0  0  0  0  0  0  0  0
    8.5713    0.1580   -2.6570 H   0  0  0  0  0  0  0  0  0  0  0  0
   10.7034   -2.7676   -3.4745 H   0  0  0  0  0  0  0  0  0  0  0  0
   11.6239   -1.9218   -1.0312 H   0  0  0  0  0  0  0  0  0  0  0  0
   11.8032   -0.7745   -2.5013 H   0  0  0  0  0  0  0  0  0  0  0  0
   14.0024   -1.6279   -2.7449 H   0  0  0  0  0  0  0  0  0  0  0  0
   13.7768   -2.8220   -1.4306 H   0  0  0  0  0  0  0  0  0  0  0  0
   12.9137   -1.1112   -0.0182 H   0  0  0  0  0  0  0  0  0  0  0  0
   13.2486    0.1272   -1.4128 H   0  0  0  0  0  0  0  0  0  0  0  0
   15.0771    0.7766   -0.2682 H   0  0  0  0  0  0  0  0  0  0  0  0
   14.8712   -0.4931    0.9378 H   0  0  0  0  0  0  0  0  0  0  0  0
   13.5621    1.0070    2.0911 H   0  0  0  0  0  0  0  0  0  0  0  0
   13.5699    2.1285    0.7629 H   0  0  0  0  0  0  0  0  0  0  0  0
   11.3564    0.3516    1.7573 H   0  0  0  0  0  0  0  0  0  0  0  0
   11.3154    2.0219    1.2461 H   0  0  0  0  0  0  0  0  0  0  0  0
   11.2303   -0.4302   -0.2362 H   0  0  0  0  0  0  0  0  0  0  0  0
   11.6756    1.0774   -1.1898 H   0  0  0  0  0  0  0  0  0  0  0  0
    7.9693   -3.1150   -2.9008 H   0  0  0  0  0  0  0  0  0  0  0  0
    6.0161   -2.3155   -1.8459 H   0  0  0  0  0  0  0  0  0  0  0  0
  1  2  1  0  0  0  0
  1 25  1  0  0  0  0
  1 26  1  0  0  0  0
  1 27  1  0  0  0  0
  2  3  1  0  0  0  0
  2 28  1  0  0  0  0
  2 29  1  0  0  0  0
  3  4  1  0  0  0  0
  3 30  1  0  0  0  0
  3 31  1  0  0  0  0
  4  5  1  0  0  0  0
  4 32  1  0  0  0  0
  4 33  1  0  0  0  0
  5  6  1  0  0  0  0
  5 24  1  0  0  0  0
  6  7  1  0  0  0  0
  6  9  1  0  0  0  0
  6 34  1  0  0  0  0
  7  8  1  0  0  0  0
  7 35  1  0  0  0  0
  7 36  1  0  0  0  0
  8 37  1  0  0  0  0
  8 38  1  0  0  0  0
  8 39  1  0  0  0  0
  9 10  1  0  0  0  0
  9 12  2  0  0  0  0
 10 11  2  0  0  0  0
 10 40  1  0  0  0  0
 12 13  1  0  0  0  0
 12 22  1  0  0  0  0
 13 14  2  0  0  0  0
 13 41  1  0  0  0  0
 14 15  1  0  0  0  0
 14 23  1  0  0  0  0
 15 16  1  0  0  0  0
 15 42  1  0  0  0  0
 16 17  1  0  0  0  0
 16 43  1  0  0  0  0
 16 44  1  0  0  0  0
 17 18  1  0  0  0  0
 17 45  1  0  0  0  0
 17 46  1  0  0  0  0
 18 19  1  0  0  0  0
 18 47  1  0  0  0  0
 18 48  1  0  0  0  0
 19 20  1  0  0  0  0
 19 49  1  0  0  0  0
 19 50  1  0  0  0  0
 20 21  1  0  0  0  0
 20 51  1  0  0  0  0
 20 52  1  0  0  0  0
 21 22  1  0  0  0  0
 21 53  1  0  0  0  0
 21 54  1  0  0  0  0
 22 55  1  0  0  0  0
 22 56  1  0  0  0  0
 23 24  2  0  0  0  0
 23 57  1  0  0  0  0
 24 58  1  0  0  0  0
M  END
$$$$
