
 OpenBabel04232216563D

110109  0  0  0  0  0  0  0  0999 V2000
   15.8965   -5.7218   17.6391 C   0  0  0  0  0  0  0  0  0  0  0  0
   15.5643   -4.4473   17.0174 N   0  0  0  0  0  0  0  0  0  0  0  0
   14.0977   -4.3443   16.9039 C   0  0  0  0  0  0  0  0  0  0  0  0
   13.6787   -3.0144   16.2464 C   0  0  0  0  0  0  0  0  0  0  0  0
   14.2408   -2.7925   14.9166 N   0  0  0  0  0  0  0  0  0  0  0  0
   13.8474   -3.9248   14.0554 N   0  0  0  0  0  0  0  0  0  0  0  0
   14.4723   -3.8784   12.7724 N   0  0  0  0  0  0  0  0  0  0  0  0
   15.8797   -3.9392   12.8502 N   0  0  0  0  0  0  0  0  0  0  0  0
   16.2674   -5.1709   13.4535 N   0  0  0  0  0  0  0  0  0  0  0  0
   15.8145   -6.2764   12.6445 N   0  0  0  0  0  0  0  0  0  0  0  0
   16.3254   -6.1595   11.3187 N   0  0  0  0  0  0  0  0  0  0  0  0
   17.7702   -6.2174   11.4015 N   0  0  0  0  0  0  0  0  0  0  0  0
   18.1840   -7.4538   12.0395 N   0  0  0  0  0  0  0  0  0  0  0  0
   17.6999   -8.5496   11.2790 N   0  0  0  0  0  0  0  0  0  0  0  0
   18.2426   -8.4948    9.9446 N   0  0  0  0  0  0  0  0  0  0  0  0
   19.6549   -8.4605   10.0354 N   0  0  0  0  0  0  0  0  0  0  0  0
   20.1156   -9.6854   10.6369 N   0  0  0  0  0  0  0  0  0  0  0  0
   19.5994  -10.8072    9.9130 N   0  0  0  0  0  0  0  0  0  0  0  0
   20.1336  -10.8002    8.5578 N   0  0  0  0  0  0  0  0  0  0  0  0
   21.5741  -10.8090    8.5801 N   0  0  0  0  0  0  0  0  0  0  0  0
   22.0469  -11.9840    9.2135 N   0  0  0  0  0  0  0  0  0  0  0  0
   21.5549  -13.1257    8.5151 N   0  0  0  0  0  0  0  0  0  0  0  0
   22.0316  -13.1160    7.1482 N   0  0  0  0  0  0  0  0  0  0  0  0
   23.4959  -13.0946    7.1292 N   0  0  0  0  0  0  0  0  0  0  0  0
   23.9549  -14.3012    7.8254 C   0  0  0  0  0  0  0  0  0  0  0  0
   25.4614  -14.2918    7.8422 C   0  0  0  0  0  0  0  0  0  0  0  0
   25.9689  -15.5402    8.5407 C   0  0  0  0  0  0  0  0  0  0  0  0
   27.4842  -15.5457    8.5456 C   0  0  0  0  0  0  0  0  0  0  0  0
   27.9946  -16.7952    9.2360 C   0  0  0  0  0  0  0  0  0  0  0  0
   29.5107  -16.8008    9.2377 C   0  0  0  0  0  0  0  0  0  0  0  0
   30.0216  -18.0494    9.9299 C   0  0  0  0  0  0  0  0  0  0  0  0
   31.5377  -18.0539    9.9333 C   0  0  0  0  0  0  0  0  0  0  0  0
   32.0484  -19.3025   10.6254 C   0  0  0  0  0  0  0  0  0  0  0  0
   33.5645  -19.3069   10.6288 C   0  0  0  0  0  0  0  0  0  0  0  0
   34.0751  -20.5555   11.3209 C   0  0  0  0  0  0  0  0  0  0  0  0
   35.5911  -20.5599   11.3243 C   0  0  0  0  0  0  0  0  0  0  0  0
   36.1017  -21.8085   12.0165 C   0  0  0  0  0  0  0  0  0  0  0  0
   37.6179  -21.8119   12.0216 C   0  0  0  0  0  0  0  0  0  0  0  0
   38.1289  -23.0605   12.7138 C   0  0  0  0  0  0  0  0  0  0  0  0
   39.6457  -23.0641   12.7190 C   0  0  0  0  0  0  0  0  0  0  0  0
   40.1584  -24.3116   13.4128 C   0  0  0  0  0  0  0  0  0  0  0  0
   41.6775  -24.3202   13.4186 C   0  0  0  0  0  0  0  0  0  0  0  0
   42.1855  -25.5661   14.1115 C   0  0  0  0  0  0  0  0  0  0  0  0
   16.9805   -5.7958   17.7607 H   0  0  0  0  0  0  0  0  0  0  0  0
   15.5520   -6.5604   17.0273 H   0  0  0  0  0  0  0  0  0  0  0  0
   15.4430   -5.7919   18.6323 H   0  0  0  0  0  0  0  0  0  0  0  0
   16.0095   -4.4535   16.0921 H   0  0  0  0  0  0  0  0  0  0  0  0
   13.6164   -4.4167   17.8834 H   0  0  0  0  0  0  0  0  0  0  0  0
   13.7293   -5.1791   16.2878 H   0  0  0  0  0  0  0  0  0  0  0  0
   14.0314   -2.1855   16.8646 H   0  0  0  0  0  0  0  0  0  0  0  0
   12.5972   -2.9563   16.1632 H   0  0  0  0  0  0  0  0  0  0  0  0
   15.2554   -2.8729   15.0717 H   0  0  0  0  0  0  0  0  0  0  0  0
   12.8190   -3.9588   13.9724 H   0  0  0  0  0  0  0  0  0  0  0  0
   14.2194   -3.0306   12.2743 H   0  0  0  0  0  0  0  0  0  0  0  0
   16.2488   -3.1784   13.4050 H   0  0  0  0  0  0  0  0  0  0  0  0
   15.8403   -5.2196   14.3883 H   0  0  0  0  0  0  0  0  0  0  0  0
   14.8016   -6.2124   12.5695 H   0  0  0  0  0  0  0  0  0  0  0  0
   16.0107   -5.2596   10.9379 H   0  0  0  0  0  0  0  0  0  0  0  0
   18.0523   -5.4198   11.9961 H   0  0  0  0  0  0  0  0  0  0  0  0
   17.7722   -7.4791   12.9907 H   0  0  0  0  0  0  0  0  0  0  0  0
   16.6916   -8.5162   11.2024 H   0  0  0  0  0  0  0  0  0  0  0  0
   17.9541   -7.6092    9.5434 H   0  0  0  0  0  0  0  0  0  0  0  0
   19.9218   -7.6719   10.6202 H   0  0  0  0  0  0  0  0  0  0  0  0
   19.7501   -9.7065   11.5996 H   0  0  0  0  0  0  0  0  0  0  0  0
   18.5722  -10.7963    9.8961 H   0  0  0  0  0  0  0  0  0  0  0  0
   19.8331   -9.9515    8.0780 H   0  0  0  0  0  0  0  0  0  0  0  0
   21.9297  -10.0069    9.1036 H   0  0  0  0  0  0  0  0  0  0  0  0
   21.7046  -12.0027   10.1763 H   0  0  0  0  0  0  0  0  0  0  0  0
   20.5253  -13.1109    8.5497 H   0  0  0  0  0  0  0  0  0  0  0  0
   21.6937  -12.2344    6.7377 H   0  0  0  0  0  0  0  0  0  0  0  0
   23.7653  -12.2791    7.7022 H   0  0  0  0  0  0  0  0  0  0  0  0
   23.5752  -15.1885    7.3120 H   0  0  0  0  0  0  0  0  0  0  0  0
   23.6019  -14.3386    8.8665 H   0  0  0  0  0  0  0  0  0  0  0  0
   25.8317  -13.3997    8.3669 H   0  0  0  0  0  0  0  0  0  0  0  0
   25.8380  -14.2575    6.8143 H   0  0  0  0  0  0  0  0  0  0  0  0
   25.5940  -16.4322    8.0238 H   0  0  0  0  0  0  0  0  0  0  0  0
   25.5929  -15.5735    9.5714 H   0  0  0  0  0  0  0  0  0  0  0  0
   27.8574  -14.6548    9.0649 H   0  0  0  0  0  0  0  0  0  0  0  0
   27.8585  -15.5106    7.5154 H   0  0  0  0  0  0  0  0  0  0  0  0
   27.6201  -17.6864    8.7176 H   0  0  0  0  0  0  0  0  0  0  0  0
   27.6214  -16.8298   10.2668 H   0  0  0  0  0  0  0  0  0  0  0  0
   29.8857  -15.9092    9.7550 H   0  0  0  0  0  0  0  0  0  0  0  0
   29.8843  -16.7679    8.2070 H   0  0  0  0  0  0  0  0  0  0  0  0
   29.6481  -18.9412    9.4119 H   0  0  0  0  0  0  0  0  0  0  0  0
   29.6472  -18.0833   10.9603 H   0  0  0  0  0  0  0  0  0  0  0  0
   31.9113  -17.1623   10.4513 H   0  0  0  0  0  0  0  0  0  0  0  0
   31.9123  -18.0202    8.9029 H   0  0  0  0  0  0  0  0  0  0  0  0
   31.6749  -20.1942   10.1074 H   0  0  0  0  0  0  0  0  0  0  0  0
   31.6739  -19.3363   11.6558 H   0  0  0  0  0  0  0  0  0  0  0  0
   33.9380  -18.4152   11.1469 H   0  0  0  0  0  0  0  0  0  0  0  0
   33.9390  -19.2732    9.5985 H   0  0  0  0  0  0  0  0  0  0  0  0
   33.7015  -21.4472   10.8029 H   0  0  0  0  0  0  0  0  0  0  0  0
   33.7006  -20.5892   12.3513 H   0  0  0  0  0  0  0  0  0  0  0  0
   35.9646  -19.6682   11.8424 H   0  0  0  0  0  0  0  0  0  0  0  0
   35.9657  -20.5261   10.2940 H   0  0  0  0  0  0  0  0  0  0  0  0
   35.7293  -22.7001   11.4976 H   0  0  0  0  0  0  0  0  0  0  0  0
   35.7261  -21.8430   13.0464 H   0  0  0  0  0  0  0  0  0  0  0  0
   37.9901  -20.9202   12.5405 H   0  0  0  0  0  0  0  0  0  0  0  0
   37.9934  -21.7774   10.9917 H   0  0  0  0  0  0  0  0  0  0  0  0
   37.7562  -23.9521   12.1949 H   0  0  0  0  0  0  0  0  0  0  0  0
   37.7529  -23.0949   13.7436 H   0  0  0  0  0  0  0  0  0  0  0  0
   40.0172  -22.1712   13.2365 H   0  0  0  0  0  0  0  0  0  0  0  0
   40.0203  -23.0306   11.6886 H   0  0  0  0  0  0  0  0  0  0  0  0
   39.7824  -25.2033   12.8960 H   0  0  0  0  0  0  0  0  0  0  0  0
   39.7814  -24.3435   14.4426 H   0  0  0  0  0  0  0  0  0  0  0  0
   42.0528  -23.4302   13.9369 H   0  0  0  0  0  0  0  0  0  0  0  0
   42.0538  -24.2905   12.3894 H   0  0  0  0  0  0  0  0  0  0  0  0
   41.8297  -25.6002   15.1462 H   0  0  0  0  0  0  0  0  0  0  0  0
   43.2778  -25.5750   14.1171 H   0  0  0  0  0  0  0  0  0  0  0  0
   41.8306  -26.4631   13.5940 H   0  0  0  0  0  0  0  0  0  0  0  0
  1  2  1  0  0  0  0
  1 44  1  0  0  0  0
  1 45  1  0  0  0  0
  1 46  1  0  0  0  0
  2  3  1  0  0  0  0
  2 47  1  0  0  0  0
  3  4  1  0  0  0  0
  3 48  1  0  0  0  0
  3 49  1  0  0  0  0
  4  5  1  0  0  0  0
  4 50  1  0  0  0  0
  4 51  1  0  0  0  0
  5  6  1  0  0  0  0
  5 52  1  0  0  0  0
  6  7  1  0  0  0  0
  6 53  1  0  0  0  0
  7  8  1  0  0  0  0
  7 54  1  0  0  0  0
  8  9  1  0  0  0  0
  8 55  1  0  0  0  0
  9 10  1  0  0  0  0
  9 56  1  0  0  0  0
 10 11  1  0  0  0  0
 10 57  1  0  0  0  0
 11 12  1  0  0  0  0
 11 58  1  0  0  0  0
 12 13  1  0  0  0  0
 12 59  1  0  0  0  0
 13 14  1  0  0  0  0
 13 60  1  0  0  0  0
 14 15  1  0  0  0  0
 14 61  1  0  0  0  0
 15 16  1  0  0  0  0
 15 62  1  0  0  0  0
 16 17  1  0  0  0  0
 16 63  1  0  0  0  0
 17 18  1  0  0  0  0
 17 64  1  0  0  0  0
 18 19  1  0  0  0  0
 18 65  1  0  0  0  0
 19 20  1  0  0  0  0
 19 66  1  0  0  0  0
 20 21  1  0  0  0  0
 20 67  1  0  0  0  0
 21 22  1  0  0  0  0
 21 68  1  0  0  0  0
 22 23  1  0  0  0  0
 22 69  1  0  0  0  0
 23 24  1  0  0  0  0
 23 70  1  0  0  0  0
 24 25  1  0  0  0  0
 24 71  1  0  0  0  0
 25 26  1  0  0  0  0
 25 72  1  0  0  0  0
 25 73  1  0  0  0  0
 26 27  1  0  0  0  0
 26 74  1  0  0  0  0
 26 75  1  0  0  0  0
 27 28  1  0  0  0  0
 27 76  1  0  0  0  0
 27 77  1  0  0  0  0
 28 29  1  0  0  0  0
 28 78  1  0  0  0  0
 28 79  1  0  0  0  0
 29 30  1  0  0  0  0
 29 80  1  0  0  0  0
 29 81  1  0  0  0  0
 30 31  1  0  0  0  0
 30 82  1  0  0  0  0
 30 83  1  0  0  0  0
 31 32  1  0  0  0  0
 31 84  1  0  0  0  0
 31 85  1  0  0  0  0
 32 33  1  0  0  0  0
 32 86  1  0  0  0  0
 32 87  1  0  0  0  0
 33 34  1  0  0  0  0
 33 88  1  0  0  0  0
 33 89  1  0  0  0  0
 34 35  1  0  0  0  0
 34 90  1  0  0  0  0
 34 91  1  0  0  0  0
 35 36  1  0  0  0  0
 35 92  1  0  0  0  0
 35 93  1  0  0  0  0
 36 37  1  0  0  0  0
 36 94  1  0  0  0  0
 36 95  1  0  0  0  0
 37 38  1  0  0  0  0
 37 96  1  0  0  0  0
 37 97  1  0  0  0  0
 38 39  1  0  0  0  0
 38 98  1  0  0  0  0
 38 99  1  0  0  0  0
 39 40  1  0  0  0  0
 39100  1  0  0  0  0
 39101  1  0  0  0  0
 40 41  1  0  0  0  0
 40102  1  0  0  0  0
 40103  1  0  0  0  0
 41 42  1  0  0  0  0
 41104  1  0  0  0  0
 41105  1  0  0  0  0
 42 43  1  0  0  0  0
 42106  1  0  0  0  0
 42107  1  0  0  0  0
 43108  1  0  0  0  0
 43109  1  0  0  0  0
 43110  1  0  0  0  0
M  END
$$$$
