
 OpenBabel04232216433D

 26 26  0  0  0  0  0  0  0  0999 V2000
    6.2881    0.6397    0.4146 C   0  0  0  0  0  0  0  0  0  0  0  0
    5.3101    0.1818   -0.5498 C   0  0  0  0  0  0  0  0  0  0  0  0
    4.6993    0.8261   -1.5514 C   0  0  0  0  0  0  0  0  0  0  0  0
    5.1698    1.9742   -2.2734 C   0  0  0  0  0  0  0  0  0  0  0  0
    4.9603    3.2775   -2.0455 C   0  0  0  0  0  0  0  0  0  0  0  0
    5.5673    4.3275   -2.8955 C   0  0  0  0  0  0  0  0  0  0  0  0
    6.8835    4.4461   -3.1780 C   0  0  0  0  0  0  0  0  0  0  0  0
    7.8494    3.5564   -2.5798 C   0  0  0  0  0  0  0  0  0  0  0  0
    8.5332    3.9228   -1.4824 C   0  0  0  0  0  0  0  0  0  0  0  0
    8.8797    2.9678   -0.4272 C   0  0  0  0  0  0  0  0  0  0  0  0
    8.4524    1.6870   -0.5422 C   0  0  0  0  0  0  0  0  0  0  0  0
    9.3715    0.7116   -0.9192 N   0  0  0  0  0  0  0  0  0  0  0  0
    7.4822    1.2480    0.4516 C   0  0  0  0  0  0  0  0  0  0  0  0
    5.9020    0.3928    1.4069 H   0  0  0  0  0  0  0  0  0  0  0  0
    4.8720   -0.7808   -0.2686 H   0  0  0  0  0  0  0  0  0  0  0  0
    3.8114    0.3713   -1.9853 H   0  0  0  0  0  0  0  0  0  0  0  0
    5.7760    1.6696   -3.1273 H   0  0  0  0  0  0  0  0  0  0  0  0
    4.3301    3.6055   -1.2283 H   0  0  0  0  0  0  0  0  0  0  0  0
    4.8668    5.0597   -3.2464 H   0  0  0  0  0  0  0  0  0  0  0  0
    7.2499    5.2800   -3.7732 H   0  0  0  0  0  0  0  0  0  0  0  0
    7.6918    2.5026   -2.7884 H   0  0  0  0  0  0  0  0  0  0  0  0
    8.7252    4.9701   -1.2720 H   0  0  0  0  0  0  0  0  0  0  0  0
    9.9046    3.1692   -0.1161 H   0  0  0  0  0  0  0  0  0  0  0  0
    9.3432    0.6857   -1.9420 H   0  0  0  0  0  0  0  0  0  0  0  0
   10.3172    1.0465   -0.7356 H   0  0  0  0  0  0  0  0  0  0  0  0
    7.8350    1.4589    1.4638 H   0  0  0  0  0  0  0  0  0  0  0  0
  1  2  1  0  0  0  0
  1 13  2  3  0  0  0
  1 14  1  0  0  0  0
  2  3  2  3  0  0  0
  2 15  1  0  0  0  0
  3  4  1  0  0  0  0
  3 16  1  0  0  0  0
  4  5  2  3  0  0  0
  4 17  1  0  0  0  0
  5  6  1  0  0  0  0
  5 18  1  0  0  0  0
  6  7  2  3  0  0  0
  6 19  1  0  0  0  0
  7  8  1  0  0  0  0
  7 20  1  0  0  0  0
  8  9  2  3  0  0  0
  8 21  1  0  0  0  0
  9 10  1  0  0  0  0
  9 22  1  0  0  0  0
 10 11  2  3  0  0  0
 10 23  1  0  0  0  0
 11 12  1  0  0  0  0
 11 13  1  0  0  0  0
 12 24  1  0  0  0  0
 12 25  1  0  0  0  0
 13 26  1  0  0  0  0
M  END
$$$$
