
 OpenBabel04232216463D

 57 57  0  0  0  0  0  0  0  0999 V2000
    9.3690   -0.5950   -4.4172 C   0  0  0  0  0  0  0  0  0  0  0  0
   10.6391   -1.5836   -3.9080 C   0  0  0  0  0  0  0  0  0  0  0  0
    9.4706   -1.8222   -2.4408 C   0  0  0  0  0  0  0  0  0  0  0  0
    7.9897   -1.4569   -1.8505 C   0  0  0  0  0  0  0  0  0  0  0  0
    6.8860   -0.4823   -0.6950 C   0  0  0  0  0  0  0  0  0  0  0  0
    5.3739   -0.0720    0.1981 C   0  0  0  0  0  0  0  0  0  0  0  0
    6.9241   -2.4973   -2.0576 C   0  0  0  0  0  0  0  0  0  0  0  0
    7.1126   -3.7987   -1.8145 C   0  0  0  0  0  0  0  0  0  0  0  0
    7.2144   -4.4184   -3.1263 C   0  0  0  0  0  0  0  0  0  0  0  0
    8.4726   -4.7406   -3.3790 C   0  0  0  0  0  0  0  0  0  0  0  0
    9.0651   -4.7218   -4.6506 C   0  0  0  0  0  0  0  0  0  0  0  0
   10.3803   -4.6035   -4.4942 C   0  0  0  0  0  0  0  0  0  0  0  0
   11.2398   -5.1573   -5.4106 C   0  0  0  0  0  0  0  0  0  0  0  0
   12.4388   -5.3878   -4.8698 C   0  0  0  0  0  0  0  0  0  0  0  0
   13.1757   -6.0260   -5.8113 C   0  0  0  0  0  0  0  0  0  0  0  0
   14.4150   -6.3177   -5.5319 C   0  0  0  0  0  0  0  0  0  0  0  0
   14.8657   -6.9898   -6.6515 C   0  0  0  0  0  0  0  0  0  0  0  0
   16.1082   -7.3229   -6.5856 C   0  0  0  0  0  0  0  0  0  0  0  0
   16.5472   -8.2846   -7.5214 C   0  0  0  0  0  0  0  0  0  0  0  0
   17.7737   -8.5511   -7.1265 C   0  0  0  0  0  0  0  0  0  0  0  0
   18.7163   -7.6897   -7.7657 C   0  0  0  0  0  0  0  0  0  0  0  0
   18.7514   -6.3160   -7.5846 C   0  0  0  0  0  0  0  0  0  0  0  0
   17.3524   -5.1859   -7.6932 C   0  0  0  0  0  0  0  0  0  0  0  0
   16.6452   -4.1597   -6.7747 C   0  0  0  0  0  0  0  0  0  0  0  0
   14.9360   -3.4176   -6.3567 C   0  0  0  0  0  0  0  0  0  0  0  0
   13.7213   -2.9203   -5.2870 C   0  0  0  0  0  0  0  0  0  0  0  0
   11.9860   -1.9651   -4.7509 C   0  0  0  0  0  0  0  0  0  0  0  0
    8.7781   -0.2411   -3.5378 H   0  0  0  0  0  0  0  0  0  0  0  0
    9.5745    0.4347   -4.6916 H   0  0  0  0  0  0  0  0  0  0  0  0
    8.5076   -1.1148   -4.9059 H   0  0  0  0  0  0  0  0  0  0  0  0
    9.0609   -2.6183   -3.0909 H   0  0  0  0  0  0  0  0  0  0  0  0
    7.5588    0.1019   -0.0902 H   0  0  0  0  0  0  0  0  0  0  0  0
    6.5692   -1.4378   -0.2357 H   0  0  0  0  0  0  0  0  0  0  0  0
    5.1628    1.0126    0.2547 H   0  0  0  0  0  0  0  0  0  0  0  0
    5.4892   -0.3472    1.2787 H   0  0  0  0  0  0  0  0  0  0  0  0
    4.4095   -0.5405   -0.0838 H   0  0  0  0  0  0  0  0  0  0  0  0
    5.9667   -2.1937   -2.4809 H   0  0  0  0  0  0  0  0  0  0  0  0
    7.9430   -4.0604   -1.1354 H   0  0  0  0  0  0  0  0  0  0  0  0
    6.6017   -4.0934   -3.9669 H   0  0  0  0  0  0  0  0  0  0  0  0
    9.1903   -4.7018   -2.5447 H   0  0  0  0  0  0  0  0  0  0  0  0
    8.5849   -4.9583   -5.5806 H   0  0  0  0  0  0  0  0  0  0  0  0
   10.8329   -4.2844   -3.5513 H   0  0  0  0  0  0  0  0  0  0  0  0
   10.8705   -5.5394   -6.3583 H   0  0  0  0  0  0  0  0  0  0  0  0
   12.7971   -5.0344   -3.9303 H   0  0  0  0  0  0  0  0  0  0  0  0
   12.7412   -6.2570   -6.7719 H   0  0  0  0  0  0  0  0  0  0  0  0
   14.9844   -6.0543   -4.6421 H   0  0  0  0  0  0  0  0  0  0  0  0
   14.2534   -7.3139   -7.4817 H   0  0  0  0  0  0  0  0  0  0  0  0
   16.7660   -6.7850   -5.8863 H   0  0  0  0  0  0  0  0  0  0  0  0
   16.3056   -8.0765   -8.5683 H   0  0  0  0  0  0  0  0  0  0  0  0
   17.9094   -8.5844   -6.0203 H   0  0  0  0  0  0  0  0  0  0  0  0
   19.3630   -8.3241   -8.3900 H   0  0  0  0  0  0  0  0  0  0  0  0
   19.7505   -6.0199   -7.9742 H   0  0  0  0  0  0  0  0  0  0  0  0
   18.0926   -4.7433   -8.4562 H   0  0  0  0  0  0  0  0  0  0  0  0
   17.4505   -3.5395   -6.3592 H   0  0  0  0  0  0  0  0  0  0  0  0
   15.4996   -3.8507   -5.4768 H   0  0  0  0  0  0  0  0  0  0  0  0
   14.1421   -3.1501   -4.3250 H   0  0  0  0  0  0  0  0  0  0  0  0
   12.3548   -2.6346   -3.8686 H   0  0  0  0  0  0  0  0  0  0  0  0
  1  2  1  0  0  0  0
  1 28  1  0  0  0  0
  1 29  1  0  0  0  0
  1 30  1  0  0  0  0
  2  3  1  0  0  0  0
  2 27  2  3  0  0  0
  3  4  2  3  0  0  0
  3 31  1  0  0  0  0
  4  5  1  0  0  0  0
  4  7  1  0  0  0  0
  5  6  1  0  0  0  0
  5 32  1  0  0  0  0
  5 33  1  0  0  0  0
  6 34  1  0  0  0  0
  6 35  1  0  0  0  0
  6 36  1  0  0  0  0
  7  8  2  3  0  0  0
  7 37  1  0  0  0  0
  8  9  1  0  0  0  0
  8 38  1  0  0  0  0
  9 10  2  3  0  0  0
  9 39  1  0  0  0  0
 10 11  1  0  0  0  0
 10 40  1  0  0  0  0
 11 12  2  3  0  0  0
 11 41  1  0  0  0  0
 12 13  1  0  0  0  0
 12 42  1  0  0  0  0
 13 14  2  3  0  0  0
 13 43  1  0  0  0  0
 14 15  1  0  0  0  0
 14 44  1  0  0  0  0
 15 16  2  3  0  0  0
 15 45  1  0  0  0  0
 16 17  1  0  0  0  0
 16 46  1  0  0  0  0
 17 18  2  3  0  0  0
 17 47  1  0  0  0  0
 18 19  1  0  0  0  0
 18 48  1  0  0  0  0
 19 20  2  3  0  0  0
 19 49  1  0  0  0  0
 20 21  1  0  0  0  0
 20 50  1  0  0  0  0
 21 22  2  3  0  0  0
 21 51  1  0  0  0  0
 22 23  1  0  0  0  0
 22 52  1  0  0  0  0
 23 24  2  3  0  0  0
 23 53  1  0  0  0  0
 24 25  1  0  0  0  0
 24 54  1  0  0  0  0
 25 26  2  3  0  0  0
 25 55  1  0  0  0  0
 26 27  1  0  0  0  0
 26 56  1  0  0  0  0
 27 57  1  0  0  0  0
M  END
$$$$
