
 OpenBabel04232216443D

 42 44  0  0  0  0  0  0  0  0999 V2000
    1.6890   -1.9241   -1.0910 C   0  0  0  0  0  0  0  0  0  0  0  0
    3.2232   -1.9166   -1.3053 C   0  0  0  0  0  0  0  0  0  0  0  0
    4.0164   -0.7876   -0.3616 C   0  0  0  0  0  0  0  0  0  0  0  0
    3.7679   -0.5179    0.9543 C   0  0  0  0  0  0  0  0  0  0  0  0
    4.3274    0.7701    1.4086 C   0  0  0  0  0  0  0  0  0  0  0  0
    4.9635    1.4376    0.4301 C   0  0  0  0  0  0  0  0  0  0  0  0
    4.7260    0.7117   -0.8012 C   0  0  0  0  0  0  0  0  0  0  0  0
    4.7876    1.4312   -1.9901 C   0  0  0  0  0  0  0  0  0  0  0  0
    4.7703    2.0850   -3.3005 N   0  0  0  0  0  0  0  0  0  0  0  0
    3.9917    1.8216   -4.3954 C   0  0  0  0  0  0  0  0  0  0  0  0
    2.6192    0.9978   -4.5246 C   0  0  0  0  0  0  0  0  0  0  0  0
    2.1285    0.3825   -6.0075 S   0  0  0  0  0  0  0  0  0  0  0  0
    1.8254    0.8744   -3.4381 N   0  0  0  0  0  0  0  0  0  0  0  0
    2.5794    0.6762   -2.4236 C   0  0  0  0  0  0  0  0  0  0  0  0
    1.9800    1.3063   -1.1154 C   0  0  0  0  0  0  0  0  0  0  0  0
    4.1800    0.2934   -2.5568 C   0  0  0  0  0  0  0  0  0  0  0  0
    5.2325   -0.3422   -3.1627 C   0  0  0  0  0  0  0  0  0  0  0  0
    5.0578   -0.9247   -4.3989 C   0  0  0  0  0  0  0  0  0  0  0  0
    5.8280   -1.0726   -5.4688 C   0  0  0  0  0  0  0  0  0  0  0  0
    5.1263   -1.8491   -6.4822 C   0  0  0  0  0  0  0  0  0  0  0  0
    4.6725   -3.0393   -5.9832 C   0  0  0  0  0  0  0  0  0  0  0  0
    3.6101   -3.4303   -4.9623 C   0  0  0  0  0  0  0  0  0  0  0  0
    3.5293   -3.4743   -3.5710 C   0  0  0  0  0  0  0  0  0  0  0  0
    3.8645   -2.6224   -2.3185 C   0  0  0  0  0  0  0  0  0  0  0  0
    1.3357   -1.1100   -0.4476 H   0  0  0  0  0  0  0  0  0  0  0  0
    1.3415   -2.8296   -0.5822 H   0  0  0  0  0  0  0  0  0  0  0  0
    1.1246   -1.8173   -2.0271 H   0  0  0  0  0  0  0  0  0  0  0  0
    3.0517   -1.0360    1.5857 H   0  0  0  0  0  0  0  0  0  0  0  0
    4.1169    1.2233    2.3675 H   0  0  0  0  0  0  0  0  0  0  0  0
    5.3485    2.4474    0.4680 H   0  0  0  0  0  0  0  0  0  0  0  0
    4.3668    2.1305   -5.3852 H   0  0  0  0  0  0  0  0  0  0  0  0
    0.8966    1.4249   -1.1777 H   0  0  0  0  0  0  0  0  0  0  0  0
    2.4140    2.3015   -0.9534 H   0  0  0  0  0  0  0  0  0  0  0  0
    2.1286    0.7428   -0.2082 H   0  0  0  0  0  0  0  0  0  0  0  0
    6.2750   -0.2070   -2.8401 H   0  0  0  0  0  0  0  0  0  0  0  0
    4.0314   -1.2464   -4.4700 H   0  0  0  0  0  0  0  0  0  0  0  0
    6.8358   -0.6861   -5.5981 H   0  0  0  0  0  0  0  0  0  0  0  0
    4.3926   -1.1126   -6.8371 H   0  0  0  0  0  0  0  0  0  0  0  0
    5.2153   -3.8763   -6.4146 H   0  0  0  0  0  0  0  0  0  0  0  0
    3.2268   -4.3460   -5.4414 H   0  0  0  0  0  0  0  0  0  0  0  0
    3.9713   -4.4532   -3.3160 H   0  0  0  0  0  0  0  0  0  0  0  0
    4.9466   -2.6441   -2.2017 H   0  0  0  0  0  0  0  0  0  0  0  0
  1  2  1  0  0  0  0
  1 25  1  0  0  0  0
  1 26  1  0  0  0  0
  1 27  1  0  0  0  0
  2  3  1  0  0  0  0
  2 24  2  3  0  0  0
  3  4  2  0  0  0  0
  3  7  1  0  0  0  0
  4  5  1  0  0  0  0
  4 28  1  0  0  0  0
  5  6  2  0  0  0  0
  5 29  1  0  0  0  0
  6  7  1  0  0  0  0
  6 30  1  0  0  0  0
  7  8  2  3  0  0  0
  8  9  1  0  0  0  0
  8 16  1  0  0  0  0
  9 10  2  0  0  0  0
 10 11  1  0  0  0  0
 10 31  1  0  0  0  0
 11 12  2  0  0  0  0
 11 13  1  0  0  0  0
 13 14  2  0  0  0  0
 14 15  1  0  0  0  0
 14 16  1  0  0  0  0
 15 32  1  0  0  0  0
 15 33  1  0  0  0  0
 15 34  1  0  0  0  0
 16 17  2  3  0  0  0
 17 18  1  0  0  0  0
 17 35  1  0  0  0  0
 18 19  2  3  0  0  0
 18 36  1  0  0  0  0
 19 20  1  0  0  0  0
 19 37  1  0  0  0  0
 20 21  2  3  0  0  0
 20 38  1  0  0  0  0
 21 22  1  0  0  0  0
 21 39  1  0  0  0  0
 22 23  2  3  0  0  0
 22 40  1  0  0  0  0
 23 24  1  0  0  0  0
 23 41  1  0  0  0  0
 24 42  1  0  0  0  0
M  END
$$$$
