
 OpenBabel04232216423D

 47 49  0  0  0  0  0  0  0  0999 V2000
    6.4093    1.6107    3.6634 C   0  0  0  0  0  0  0  0  0  0  0  0
    6.4917    0.6404    2.5775 C   0  0  0  0  0  0  0  0  0  0  0  0
    7.4037   -0.3455    2.4966 C   0  0  0  0  0  0  0  0  0  0  0  0
    8.1916   -0.4746    1.2498 C   0  0  0  0  0  0  0  0  0  0  0  0
    7.4122   -0.6967   -0.0252 C   0  0  0  0  0  0  0  0  0  0  0  0
    9.3373    0.2722    1.2497 C   0  0  0  0  0  0  0  0  0  0  0  0
   10.6303   -0.5286    1.7337 C   0  0  0  0  0  0  0  0  0  0  0  0
   11.9267   -0.2404    2.5952 C   0  0  0  0  0  0  0  0  0  0  0  0
   13.0092    0.5666    1.9178 C   0  0  0  0  0  0  0  0  0  0  0  0
   14.0527   -0.1145    1.3843 N   0  0  0  0  0  0  0  0  0  0  0  0
   14.8322    0.4698    0.4346 N   0  0  0  0  0  0  0  0  0  0  0  0
   14.5023    1.6929   -0.0154 C   0  0  0  0  0  0  0  0  0  0  0  0
   13.5115    2.4523    0.5771 C   0  0  0  0  0  0  0  0  0  0  0  0
   12.8124    1.9108    1.6580 C   0  0  0  0  0  0  0  0  0  0  0  0
   11.7046    2.6202    2.2933 C   0  0  0  0  0  0  0  0  0  0  0  0
   11.2769    2.4793    3.5753 C   0  0  0  0  0  0  0  0  0  0  0  0
    9.3290    1.5845    0.5150 C   0  0  0  0  0  0  0  0  0  0  0  0
    8.5204    2.6277    0.8555 C   0  0  0  0  0  0  0  0  0  0  0  0
    8.9667    4.0331    1.0142 C   0  0  0  0  0  0  0  0  0  0  0  0
    8.5466    4.7026    2.1069 C   0  0  0  0  0  0  0  0  0  0  0  0
    9.4590    5.1893    3.1573 C   0  0  0  0  0  0  0  0  0  0  0  0
    9.8856    4.3867    4.1766 C   0  0  0  0  0  0  0  0  0  0  0  0
    9.9377    2.9388    4.0323 C   0  0  0  0  0  0  0  0  0  0  0  0
    8.8930    2.0572    4.0492 C   0  0  0  0  0  0  0  0  0  0  0  0
    7.4482    2.2715    4.2386 C   0  0  0  0  0  0  0  0  0  0  0  0
    5.3966    1.9888    3.8262 H   0  0  0  0  0  0  0  0  0  0  0  0
    5.9884    0.9780    1.6696 H   0  0  0  0  0  0  0  0  0  0  0  0
    7.9184   -0.6787    3.3907 H   0  0  0  0  0  0  0  0  0  0  0  0
    6.3340   -0.7662    0.1326 H   0  0  0  0  0  0  0  0  0  0  0  0
    7.7384   -1.6486   -0.4629 H   0  0  0  0  0  0  0  0  0  0  0  0
    7.5948    0.0794   -0.7752 H   0  0  0  0  0  0  0  0  0  0  0  0
   11.0081   -1.0064    0.8236 H   0  0  0  0  0  0  0  0  0  0  0  0
   10.2013   -1.3349    2.3502 H   0  0  0  0  0  0  0  0  0  0  0  0
   11.7124    0.1063    3.6088 H   0  0  0  0  0  0  0  0  0  0  0  0
   12.3963   -1.2164    2.7991 H   0  0  0  0  0  0  0  0  0  0  0  0
   15.0535    2.0342   -0.8837 H   0  0  0  0  0  0  0  0  0  0  0  0
   13.2485    3.4171    0.1553 H   0  0  0  0  0  0  0  0  0  0  0  0
   11.1245    3.1545    1.5810 H   0  0  0  0  0  0  0  0  0  0  0  0
   11.8730    2.0072    4.3364 H   0  0  0  0  0  0  0  0  0  0  0  0
   10.1018    1.7127   -0.2386 H   0  0  0  0  0  0  0  0  0  0  0  0
    7.6524    2.4618    1.4759 H   0  0  0  0  0  0  0  0  0  0  0  0
    9.9300    4.2769    0.5672 H   0  0  0  0  0  0  0  0  0  0  0  0
    7.6069    4.4463    2.5697 H   0  0  0  0  0  0  0  0  0  0  0  0
    9.8006    6.2194    3.1583 H   0  0  0  0  0  0  0  0  0  0  0  0
   10.4811    4.7705    4.9856 H   0  0  0  0  0  0  0  0  0  0  0  0
    9.1466    1.0311    3.8223 H   0  0  0  0  0  0  0  0  0  0  0  0
    7.1937    3.1235    4.8645 H   0  0  0  0  0  0  0  0  0  0  0  0
  1  2  1  0  0  0  0
  1 25  2  0  0  0  0
  1 26  1  0  0  0  0
  2  3  2  0  0  0  0
  2 27  1  0  0  0  0
  3  4  1  0  0  0  0
  3 28  1  0  0  0  0
  4  5  1  0  0  0  0
  4  6  2  0  0  0  0
  5 29  1  0  0  0  0
  5 30  1  0  0  0  0
  5 31  1  0  0  0  0
  6  7  1  0  0  0  0
  6 17  1  0  0  0  0
  7  8  1  0  0  0  0
  7 32  1  0  0  0  0
  7 33  1  0  0  0  0
  8  9  1  0  0  0  0
  8 34  1  0  0  0  0
  8 35  1  0  0  0  0
  9 10  1  0  0  0  0
  9 14  2  0  0  0  0
 10 11  2  0  0  0  0
 11 12  1  0  0  0  0
 12 13  2  0  0  0  0
 12 36  1  0  0  0  0
 13 14  1  0  0  0  0
 13 37  1  0  0  0  0
 14 15  1  0  0  0  0
 15 16  2  3  0  0  0
 15 38  1  0  0  0  0
 16 23  1  0  0  0  0
 16 39  1  0  0  0  0
 17 18  2  0  0  0  0
 17 40  1  0  0  0  0
 18 19  1  0  0  0  0
 18 41  1  0  0  0  0
 19 20  2  0  0  0  0
 19 42  1  0  0  0  0
 20 21  1  0  0  0  0
 20 43  1  0  0  0  0
 21 22  2  0  0  0  0
 21 44  1  0  0  0  0
 22 23  1  0  0  0  0
 22 45  1  0  0  0  0
 23 24  2  0  0  0  0
 24 25  1  0  0  0  0
 24 46  1  0  0  0  0
 25 47  1  0  0  0  0
M  END
$$$$
