
 OpenBabel04232216463D

 51 52  0  0  1  0  0  0  0  0999 V2000
    2.7919   -1.9648    1.4060 C   0  0  0  0  0  0  0  0  0  0  0  0
    3.9757   -2.9076    1.0514 C   0  0  0  0  0  0  0  0  0  0  0  0
    4.0499   -2.7371   -0.4109 C   0  0  0  0  0  0  0  0  0  0  0  0
    5.1014   -1.9450   -0.6518 C   0  0  0  0  0  0  0  0  0  0  0  0
    5.7889   -1.3598    0.6423 C   0  0  3  0  0  0  0  0  0  0  0  0
    5.5555    0.1631    0.0255 C   0  0  0  0  0  0  0  0  0  0  0  0
    5.9470    1.4909    0.7027 C   0  0  0  0  0  0  0  0  0  0  0  0
    7.4190    1.7665    1.0074 C   0  0  0  0  0  0  0  0  0  0  0  0
    8.3643    1.6783   -0.1847 C   0  0  0  0  0  0  0  0  0  0  0  0
    5.9058   -2.0045   -1.8556 C   0  0  0  0  0  0  0  0  0  0  0  0
    5.9519   -3.1831   -2.4437 C   0  0  0  0  0  0  0  0  0  0  0  0
    7.1984   -3.9043   -2.3590 C   0  0  0  0  0  0  0  0  0  0  0  0
    7.1336   -5.2182   -2.2804 C   0  0  0  0  0  0  0  0  0  0  0  0
    8.2715   -6.0156   -2.0072 C   0  0  0  0  0  0  0  0  0  0  0  0
    8.1781   -7.3449   -2.1643 C   0  0  0  0  0  0  0  0  0  0  0  0
    8.9647   -8.1266   -1.2376 C   0  0  0  0  0  0  0  0  0  0  0  0
    8.3266   -8.1967   -0.0428 C   0  0  0  0  0  0  0  0  0  0  0  0
    8.7054   -7.2112    0.9878 C   0  0  0  0  0  0  0  0  0  0  0  0
   10.1652   -7.5701    1.4166 C   0  0  0  0  0  0  0  0  0  0  0  0
    7.8536   -6.2979    1.6034 C   0  0  0  0  0  0  0  0  0  0  0  0
    6.5412   -5.2996    1.5073 C   0  0  0  0  0  0  0  0  0  0  0  0
    5.0172   -6.0695    2.0231 Cl  0  0  0  0  0  0  0  0  0  0  0  0
    6.4656   -3.9220    1.3127 C   0  0  0  0  0  0  0  0  0  0  0  0
    5.3095   -2.7632    1.4225 C   0  0  0  0  0  0  0  0  0  0  0  0
    1.8278   -2.4814    1.2995 H   0  0  0  0  0  0  0  0  0  0  0  0
    2.7167   -1.0896    0.7357 H   0  0  0  0  0  0  0  0  0  0  0  0
    2.8548   -1.5577    2.4178 H   0  0  0  0  0  0  0  0  0  0  0  0
    3.4776   -3.3440   -1.0751 H   0  0  0  0  0  0  0  0  0  0  0  0
    5.2726   -0.9028    1.5149 H   0  0  0  0  0  0  0  0  0  0  0  0
    4.4949    0.2956   -0.2455 H   0  0  0  0  0  0  0  0  0  0  0  0
    6.1154    0.2384   -0.9129 H   0  0  0  0  0  0  0  0  0  0  0  0
    5.3374    1.6630    1.5943 H   0  0  0  0  0  0  0  0  0  0  0  0
    5.6408    2.2793   -0.0080 H   0  0  0  0  0  0  0  0  0  0  0  0
    7.7618    1.1030    1.8054 H   0  0  0  0  0  0  0  0  0  0  0  0
    7.4891    2.7935    1.3934 H   0  0  0  0  0  0  0  0  0  0  0  0
    8.3790    0.6749   -0.6193 H   0  0  0  0  0  0  0  0  0  0  0  0
    9.3851    1.9171    0.1327 H   0  0  0  0  0  0  0  0  0  0  0  0
    8.0890    2.3934   -0.9689 H   0  0  0  0  0  0  0  0  0  0  0  0
    6.8574   -1.4337   -1.7893 H   0  0  0  0  0  0  0  0  0  0  0  0
    5.0604   -3.8302   -2.4671 H   0  0  0  0  0  0  0  0  0  0  0  0
    8.1142   -3.3544   -2.1530 H   0  0  0  0  0  0  0  0  0  0  0  0
    6.1710   -5.7327   -2.2851 H   0  0  0  0  0  0  0  0  0  0  0  0
    9.0768   -5.5524   -1.4308 H   0  0  0  0  0  0  0  0  0  0  0  0
    7.3224   -7.8096   -2.6412 H   0  0  0  0  0  0  0  0  0  0  0  0
   10.0123   -7.8140   -1.2919 H   0  0  0  0  0  0  0  0  0  0  0  0
    7.2779   -8.4985   -0.0352 H   0  0  0  0  0  0  0  0  0  0  0  0
   10.8545   -6.7332    1.3165 H   0  0  0  0  0  0  0  0  0  0  0  0
   10.6009   -8.3619    0.7784 H   0  0  0  0  0  0  0  0  0  0  0  0
   10.2174   -8.0117    2.4139 H   0  0  0  0  0  0  0  0  0  0  0  0
    7.0903   -7.0980    1.7257 H   0  0  0  0  0  0  0  0  0  0  0  0
    7.4090   -3.4372    1.0591 H   0  0  0  0  0  0  0  0  0  0  0  0
  1  2  1  0  0  0  0
  1 25  1  0  0  0  0
  1 26  1  0  0  0  0
  1 27  1  0  0  0  0
  2  3  1  0  0  0  0
  2 24  2  0  0  0  0
  3  4  2  0  0  0  0
  3 28  1  0  0  0  0
  4  5  1  0  0  0  0
  4 10  1  0  0  0  0
  5  6  1  0  0  0  0
  5 24  1  0  0  0  0
  5 29  1  0  0  0  0
  6  7  1  0  0  0  0
  6 30  1  0  0  0  0
  6 31  1  0  0  0  0
  7  8  1  0  0  0  0
  7 32  1  0  0  0  0
  7 33  1  0  0  0  0
  8  9  1  0  0  0  0
  8 34  1  0  0  0  0
  8 35  1  0  0  0  0
  9 36  1  0  0  0  0
  9 37  1  0  0  0  0
  9 38  1  0  0  0  0
 10 11  2  3  0  0  0
 10 39  1  0  0  0  0
 11 12  1  0  0  0  0
 11 40  1  0  0  0  0
 12 13  2  3  0  0  0
 12 41  1  0  0  0  0
 13 14  1  0  0  0  0
 13 42  1  0  0  0  0
 14 15  2  3  0  0  0
 14 43  1  0  0  0  0
 15 16  1  0  0  0  0
 15 44  1  0  0  0  0
 16 17  2  3  0  0  0
 16 45  1  0  0  0  0
 17 18  1  0  0  0  0
 17 46  1  0  0  0  0
 18 19  1  0  0  0  0
 18 20  2  3  0  0  0
 19 47  1  0  0  0  0
 19 48  1  0  0  0  0
 19 49  1  0  0  0  0
 20 21  1  0  0  0  0
 20 50  1  0  0  0  0
 21 22  1  0  0  0  0
 21 23  2  3  0  0  0
 23 24  1  0  0  0  0
 23 51  1  0  0  0  0
M  END
$$$$
