
 OpenBabel04232216443D

 50 52  0  0  1  0  0  0  0  0999 V2000
    2.2438    2.0213    0.1568 C   0  0  0  0  0  0  0  0  0  0  0  0
    3.5720    2.7310    0.5256 C   0  0  3  0  0  0  0  0  0  0  0  0
    3.9263    2.3714    1.9551 C   0  0  0  0  0  0  0  0  0  0  0  0
    4.4830    1.0296    2.1551 C   0  0  0  0  0  0  0  0  0  0  0  0
    5.7636    0.6530    2.3663 C   0  0  0  0  0  0  0  0  0  0  0  0
    6.8944    1.5747    2.3841 C   0  0  0  0  0  0  0  0  0  0  0  0
    7.5863    1.6159    1.1685 N   0  0  0  0  0  0  0  0  0  0  0  0
    9.0479    1.5741    1.0431 C   0  0  0  0  0  0  0  0  0  0  0  0
    9.4015    1.3860   -0.4424 C   0  0  0  0  0  0  0  0  0  0  0  0
   10.9033    1.3957   -0.7345 C   0  0  0  0  0  0  0  0  0  0  0  0
   11.1712    1.2408   -2.2290 C   0  0  0  0  0  0  0  0  0  0  0  0
    6.8918    2.5241    3.3628 C   0  0  0  0  0  0  0  0  0  0  0  0
    6.2259    2.2932    4.7052 C   0  0  0  0  0  0  0  0  0  0  0  0
    6.9844    3.8995    2.8278 C   0  0  0  0  0  0  0  0  0  0  0  0
    5.8230    4.5075    2.4577 C   0  0  0  0  0  0  0  0  0  0  0  0
    4.5363    4.4195    3.2718 C   0  0  0  0  0  0  0  0  0  0  0  0
    3.5797    3.2459    2.9480 C   0  0  0  0  0  0  0  0  0  0  0  0
    2.1942    3.7897    2.9077 C   0  0  0  0  0  0  0  0  0  0  0  0
    1.6637    4.5225    1.9008 C   0  0  0  0  0  0  0  0  0  0  0  0
    2.4622    4.9864    0.7720 C   0  0  0  0  0  0  0  0  0  0  0  0
    5.7597    5.1380    1.1274 C   0  0  0  0  0  0  0  0  0  0  0  0
    4.7870    5.0004    0.1865 C   0  0  0  0  0  0  0  0  0  0  0  0
    3.5226    4.2656    0.3449 C   0  0  0  0  0  0  0  0  0  0  0  0
    1.6322    1.7770    1.0429 H   0  0  0  0  0  0  0  0  0  0  0  0
    2.4525    1.0701   -0.3377 H   0  0  0  0  0  0  0  0  0  0  0  0
    1.6216    2.6194   -0.5136 H   0  0  0  0  0  0  0  0  0  0  0  0
    4.3497    2.3592   -0.1593 H   0  0  0  0  0  0  0  0  0  0  0  0
    3.7539    0.2326    2.0068 H   0  0  0  0  0  0  0  0  0  0  0  0
    6.0178   -0.3999    2.3879 H   0  0  0  0  0  0  0  0  0  0  0  0
    7.1501    0.9826    0.5010 H   0  0  0  0  0  0  0  0  0  0  0  0
    9.4535    0.7364    1.6225 H   0  0  0  0  0  0  0  0  0  0  0  0
    9.4958    2.4992    1.4222 H   0  0  0  0  0  0  0  0  0  0  0  0
    8.9139    2.1745   -1.0286 H   0  0  0  0  0  0  0  0  0  0  0  0
    8.9794    0.4347   -0.7929 H   0  0  0  0  0  0  0  0  0  0  0  0
   11.3994    0.5794   -0.1968 H   0  0  0  0  0  0  0  0  0  0  0  0
   11.3482    2.3354   -0.3886 H   0  0  0  0  0  0  0  0  0  0  0  0
   10.7661    0.2961   -2.6073 H   0  0  0  0  0  0  0  0  0  0  0  0
   12.2470    1.2512   -2.4325 H   0  0  0  0  0  0  0  0  0  0  0  0
   10.7137    2.0579   -2.7971 H   0  0  0  0  0  0  0  0  0  0  0  0
    5.1499    2.1099    4.6304 H   0  0  0  0  0  0  0  0  0  0  0  0
    6.3650    3.1433    5.3806 H   0  0  0  0  0  0  0  0  0  0  0  0
    6.6440    1.4093    5.1953 H   0  0  0  0  0  0  0  0  0  0  0  0
    7.8779    4.0542    2.2263 H   0  0  0  0  0  0  0  0  0  0  0  0
    4.0404    5.3973    3.1668 H   0  0  0  0  0  0  0  0  0  0  0  0
    4.7668    4.3896    4.3440 H   0  0  0  0  0  0  0  0  0  0  0  0
    1.5863    3.5516    3.7763 H   0  0  0  0  0  0  0  0  0  0  0  0
    0.6456    4.8852    1.9657 H   0  0  0  0  0  0  0  0  0  0  0  0
    2.3611    6.0415    0.5401 H   0  0  0  0  0  0  0  0  0  0  0  0
    6.6611    5.6717    0.8373 H   0  0  0  0  0  0  0  0  0  0  0  0
    4.9325    5.4792   -0.7763 H   0  0  0  0  0  0  0  0  0  0  0  0
  1  2  1  0  0  0  0
  1 24  1  0  0  0  0
  1 25  1  0  0  0  0
  1 26  1  0  0  0  0
  2  3  1  0  0  0  0
  2 23  1  0  0  0  0
  2 27  1  0  0  0  0
  3  4  1  0  0  0  0
  3 17  2  0  0  0  0
  4  5  2  0  0  0  0
  4 28  1  0  0  0  0
  5  6  1  0  0  0  0
  5 29  1  0  0  0  0
  6  7  1  0  0  0  0
  6 12  2  0  0  0  0
  7  8  1  0  0  0  0
  7 30  1  0  0  0  0
  8  9  1  0  0  0  0
  8 31  1  0  0  0  0
  8 32  1  0  0  0  0
  9 10  1  0  0  0  0
  9 33  1  0  0  0  0
  9 34  1  0  0  0  0
 10 11  1  0  0  0  0
 10 35  1  0  0  0  0
 10 36  1  0  0  0  0
 11 37  1  0  0  0  0
 11 38  1  0  0  0  0
 11 39  1  0  0  0  0
 12 13  1  0  0  0  0
 12 14  1  0  0  0  0
 13 40  1  0  0  0  0
 13 41  1  0  0  0  0
 13 42  1  0  0  0  0
 14 15  2  0  0  0  0
 14 43  1  0  0  0  0
 15 16  1  0  0  0  0
 15 21  1  0  0  0  0
 16 17  1  0  0  0  0
 16 44  1  0  0  0  0
 16 45  1  0  0  0  0
 17 18  1  0  0  0  0
 18 19  2  0  0  0  0
 18 46  1  0  0  0  0
 19 20  1  0  0  0  0
 19 47  1  0  0  0  0
 20 23  2  0  0  0  0
 20 48  1  0  0  0  0
 21 22  2  0  0  0  0
 21 49  1  0  0  0  0
 22 23  1  0  0  0  0
 22 50  1  0  0  0  0
M  END
$$$$
