
 OpenBabel04232217003D

191190  0  0  0  0  0  0  0  0999 V2000
   11.0595   18.4853  -23.8513 O   0  0  0  0  0  0  0  0  0  0  0  0
   11.7745   19.4286  -23.0691 C   0  0  0  0  0  0  0  0  0  0  0  0
   12.1550   18.7840  -21.7463 C   0  0  0  0  0  0  0  0  0  0  0  0
   12.9267   19.7591  -20.8643 C   0  0  0  0  0  0  0  0  0  0  0  0
   13.3082   19.1107  -19.5368 C   0  0  0  0  0  0  0  0  0  0  0  0
   14.0797   20.0880  -18.6570 C   0  0  0  0  0  0  0  0  0  0  0  0
   14.4658   19.4410  -17.3274 C   0  0  0  0  0  0  0  0  0  0  0  0
   15.2331   20.4237  -16.4572 C   0  0  0  0  0  0  0  0  0  0  0  0
   15.6165   19.8010  -15.1494 C   0  0  0  0  0  0  0  0  0  0  0  0
   15.1916   20.3350  -14.0443 N   0  0  0  0  0  0  0  0  0  0  0  0
   15.6259   19.6710  -12.8388 C   0  0  0  0  0  0  0  0  0  0  0  0
   15.0132   20.4461  -11.6740 C   0  0  0  0  0  0  0  0  0  0  0  0
   15.3854   19.8452  -10.4387 O   0  0  0  0  0  0  0  0  0  0  0  0
   14.8252   20.5662   -9.3381 C   0  0  0  0  0  0  0  0  0  0  0  0
   15.2469   19.9100   -8.0338 C   0  0  0  0  0  0  0  0  0  0  0  0
   16.7684   19.9152   -7.9045 C   0  0  0  0  0  0  0  0  0  0  0  0
   17.2077   19.2644   -6.6038 C   0  0  0  0  0  0  0  0  0  0  0  0
   18.7253   19.2765   -6.4829 C   0  0  0  0  0  0  0  0  0  0  0  0
   19.1502   18.6235   -5.1823 C   0  0  0  0  0  0  0  0  0  0  0  0
   20.5706   18.6437   -5.1119 O   0  0  0  0  0  0  0  0  0  0  0  0
   20.9295   18.0185   -3.8548 N   0  0  0  0  0  0  0  0  0  0  0  0
   22.3859   18.0683   -3.8035 C   0  0  0  0  0  0  0  0  0  0  0  0
   22.8070   17.4102   -2.5017 C   0  0  0  0  0  0  0  0  0  0  0  0
   24.2257   17.4189   -2.3976 O   0  0  0  0  0  0  0  0  0  0  0  0
   24.6328   16.8065   -1.1740 C   0  0  0  0  0  0  0  0  0  0  0  0
   26.1478   16.8334   -1.0726 C   0  0  0  0  0  0  0  0  0  0  0  0
   26.6382   18.2706   -1.1050 C   0  0  0  0  0  0  0  0  0  0  0  0
   28.0617   18.2951   -0.9965 O   0  0  0  0  0  0  0  0  0  0  0  0
   28.5219   19.6425   -1.0293 C   0  0  0  0  0  0  0  0  0  0  0  0
   30.0325   19.6694   -0.9223 C   0  0  0  0  0  0  0  0  0  0  0  0
   30.4491   21.0304   -0.9525 O   0  0  0  0  0  0  0  0  0  0  0  0
   31.8967   20.9945   -0.8484 O   0  0  0  0  0  0  0  0  0  0  0  0
   32.2939   22.3551   -0.8797 C   0  0  0  0  0  0  0  0  0  0  0  0
   33.8087   22.3912   -0.7805 C   0  0  0  0  0  0  0  0  0  0  0  0
   34.2720   23.7405   -0.8272 O   0  0  0  0  0  0  0  0  0  0  0  0
   35.7232   23.7188   -0.7031 N   0  0  0  0  0  0  0  0  0  0  0  0
   36.1302   25.1213   -0.7311 C   0  0  0  0  0  0  0  0  0  0  0  0
   37.6529   25.1521   -0.6351 C   0  0  0  0  0  0  0  0  0  0  0  0
   38.1166   26.5018   -0.6757 O   0  0  0  0  0  0  0  0  0  0  0  0
   39.5692   26.4692   -0.5625 N   0  0  0  0  0  0  0  0  0  0  0  0
   39.9678   27.8643   -0.5877 C   0  0  0  0  0  0  0  0  0  0  0  0
   41.4738   27.8745   -0.4916 C   0  0  0  0  0  0  0  0  0  0  0  0
   41.9177   29.2242   -0.5265 O   0  0  0  0  0  0  0  0  0  0  0  0
   43.3629   29.1766   -0.4224 N   0  0  0  0  0  0  0  0  0  0  0  0
   43.8016   30.5670   -0.4459 C   0  0  0  0  0  0  0  0  0  0  0  0
   45.3134   30.5826   -0.3502 C   0  0  0  0  0  0  0  0  0  0  0  0
   45.7615   31.9348   -0.3836 O   0  0  0  0  0  0  0  0  0  0  0  0
   47.2095   31.8859   -0.2860 N   0  0  0  0  0  0  0  0  0  0  0  0
   47.6552   33.2761   -0.3103 C   0  0  0  0  0  0  0  0  0  0  0  0
   49.1691   33.2942   -0.2171 C   0  0  0  0  0  0  0  0  0  0  0  0
   49.6147   34.6474   -0.2542 O   0  0  0  0  0  0  0  0  0  0  0  0
   51.0617   34.6087   -0.1483 N   0  0  0  0  0  0  0  0  0  0  0  0
   51.5011   35.9999   -0.1746 C   0  0  0  0  0  0  0  0  0  0  0  0
   53.0216   36.0075   -0.0829 C   0  0  0  0  0  0  0  0  0  0  0  0
   53.4887   37.3541   -0.1202 O   0  0  0  0  0  0  0  0  0  0  0  0
   54.9381   37.3011   -0.0127 N   0  0  0  0  0  0  0  0  0  0  0  0
   55.3794   38.6983   -0.0430 C   0  0  0  0  0  0  0  0  0  0  0  0
   56.8922   38.7186    0.0647 C   0  0  0  0  0  0  0  0  0  0  0  0
   57.4394   37.9971   -1.0351 O   0  0  0  0  0  0  0  0  0  0  0  0
   58.8834   38.0416   -0.8788 N   0  0  0  0  0  0  0  0  0  0  0  0
   59.4227   37.3150   -2.0243 C   0  0  0  0  0  0  0  0  0  0  0  0
   60.9523   37.3127   -1.9442 C   0  0  0  0  0  0  0  0  0  0  0  0
   61.5557   36.5585   -3.1184 C   0  0  0  0  0  0  0  0  0  0  0  0
   61.1770   37.1895   -4.3411 O   0  0  0  0  0  0  0  0  0  0  0  0
   61.7054   36.4807   -5.4442 C   0  0  0  0  0  0  0  0  0  0  0  0
   61.2685   37.1556   -6.7365 C   0  0  0  0  0  0  0  0  0  0  0  0
   61.8578   36.4140   -7.9190 C   0  0  0  0  0  0  0  0  0  0  0  0
   61.3821   35.0663   -7.9235 O   0  0  0  0  0  0  0  0  0  0  0  0
   61.9544   34.3553   -9.0065 C   0  0  0  0  0  0  0  0  0  0  0  0
   61.4614   32.9137   -8.9835 C   0  0  0  0  0  0  0  0  0  0  0  0
   62.0426   32.1525  -10.1623 C   0  0  0  0  0  0  0  0  0  0  0  0
   63.4679   32.1699  -10.0812 O   0  0  0  0  0  0  0  0  0  0  0  0
   63.9687   31.4374  -11.2257 N   0  0  0  0  0  0  0  0  0  0  0  0
   65.4259   31.4744  -11.0904 C   0  0  0  0  0  0  0  0  0  0  0  0
   66.0184   30.7219  -12.2772 C   0  0  0  0  0  0  0  0  0  0  0  0
   67.4387   30.7429  -12.2127 O   0  0  0  0  0  0  0  0  0  0  0  0
   67.9544   29.9942  -13.3517 N   0  0  0  0  0  0  0  0  0  0  0  0
   69.4091   30.0296  -13.1908 C   0  0  0  0  0  0  0  0  0  0  0  0
   69.8211   29.3524  -11.8725 C   0  0  0  0  0  0  0  0  0  0  0  0
   69.3739   28.0002  -11.8279 O   0  0  0  0  0  0  0  0  0  0  0  0
   10.8305   18.9257  -24.6883 H   0  0  0  0  0  0  0  0  0  0  0  0
   11.1375   20.3037  -22.9051 H   0  0  0  0  0  0  0  0  0  0  0  0
   12.6680   19.7369  -23.6214 H   0  0  0  0  0  0  0  0  0  0  0  0
   12.7542   17.8844  -21.9348 H   0  0  0  0  0  0  0  0  0  0  0  0
   11.2495   18.4392  -21.2315 H   0  0  0  0  0  0  0  0  0  0  0  0
   12.3158   20.6505  -20.6775 H   0  0  0  0  0  0  0  0  0  0  0  0
   13.8323   20.0913  -21.3863 H   0  0  0  0  0  0  0  0  0  0  0  0
   13.9194   18.2195  -19.7240 H   0  0  0  0  0  0  0  0  0  0  0  0
   12.4022   18.7789  -19.0149 H   0  0  0  0  0  0  0  0  0  0  0  0
   13.4673   20.9791  -18.4705 H   0  0  0  0  0  0  0  0  0  0  0  0
   14.9840   20.4218  -19.1814 H   0  0  0  0  0  0  0  0  0  0  0  0
   15.0757   18.5476  -17.5118 H   0  0  0  0  0  0  0  0  0  0  0  0
   13.5630   19.1021  -16.8033 H   0  0  0  0  0  0  0  0  0  0  0  0
   14.6206   21.3140  -16.2624 H   0  0  0  0  0  0  0  0  0  0  0  0
   16.1507   20.7454  -16.9600 H   0  0  0  0  0  0  0  0  0  0  0  0
   16.2632   18.9105  -15.1676 H   0  0  0  0  0  0  0  0  0  0  0  0
   16.7152   19.6683  -12.7438 H   0  0  0  0  0  0  0  0  0  0  0  0
   15.2841   18.6306  -12.8049 H   0  0  0  0  0  0  0  0  0  0  0  0
   13.9204   20.4444  -11.7561 H   0  0  0  0  0  0  0  0  0  0  0  0
   15.3616   21.4857  -11.6930 H   0  0  0  0  0  0  0  0  0  0  0  0
   13.7328   20.5587   -9.4193 H   0  0  0  0  0  0  0  0  0  0  0  0
   15.1792   21.6038   -9.3635 H   0  0  0  0  0  0  0  0  0  0  0  0
   14.8792   18.8769   -8.0031 H   0  0  0  0  0  0  0  0  0  0  0  0
   14.7942   20.4455   -7.1906 H   0  0  0  0  0  0  0  0  0  0  0  0
   17.1375   20.9472   -7.9443 H   0  0  0  0  0  0  0  0  0  0  0  0
   17.2200   19.3801   -8.7483 H   0  0  0  0  0  0  0  0  0  0  0  0
   16.8416   18.2311   -6.5659 H   0  0  0  0  0  0  0  0  0  0  0  0
   16.7641   19.7975   -5.7544 H   0  0  0  0  0  0  0  0  0  0  0  0
   19.1100   20.3029   -6.5239 H   0  0  0  0  0  0  0  0  0  0  0  0
   19.1843   18.7471   -7.3275 H   0  0  0  0  0  0  0  0  0  0  0  0
   18.8019   17.5832   -5.1606 H   0  0  0  0  0  0  0  0  0  0  0  0
   18.7214   19.1623   -4.3282 H   0  0  0  0  0  0  0  0  0  0  0  0
   20.6457   17.0527   -4.0176 H   0  0  0  0  0  0  0  0  0  0  0  0
   22.7502   19.1017   -3.8381 H   0  0  0  0  0  0  0  0  0  0  0  0
   22.8314   17.5412   -4.6551 H   0  0  0  0  0  0  0  0  0  0  0  0
   22.4562   16.3728   -2.4696 H   0  0  0  0  0  0  0  0  0  0  0  0
   22.3817   17.9561   -1.6498 H   0  0  0  0  0  0  0  0  0  0  0  0
   24.2754   15.7714   -1.1492 H   0  0  0  0  0  0  0  0  0  0  0  0
   24.1948   17.3569   -0.3323 H   0  0  0  0  0  0  0  0  0  0  0  0
   26.6002   16.2724   -1.8994 H   0  0  0  0  0  0  0  0  0  0  0  0
   26.4745   16.3430   -0.1476 H   0  0  0  0  0  0  0  0  0  0  0  0
   26.2062   18.8293   -0.2670 H   0  0  0  0  0  0  0  0  0  0  0  0
   26.3405   18.7570   -2.0416 H   0  0  0  0  0  0  0  0  0  0  0  0
   28.0846   20.2084   -0.1973 H   0  0  0  0  0  0  0  0  0  0  0  0
   28.2097   20.1302   -1.9614 H   0  0  0  0  0  0  0  0  0  0  0  0
   30.4861   19.1193   -1.7548 H   0  0  0  0  0  0  0  0  0  0  0  0
   30.3595   19.1986    0.0119 H   0  0  0  0  0  0  0  0  0  0  0  0
   31.8397   22.9013   -0.0450 H   0  0  0  0  0  0  0  0  0  0  0  0
   31.9623   22.8250   -1.8127 H   0  0  0  0  0  0  0  0  0  0  0  0
   34.2416   21.8334   -1.6209 H   0  0  0  0  0  0  0  0  0  0  0  0
   34.1322   21.8996    0.1460 H   0  0  0  0  0  0  0  0  0  0  0  0
   36.0243   23.3194   -1.5942 H   0  0  0  0  0  0  0  0  0  0  0  0
   35.6849   25.6858    0.0956 H   0  0  0  0  0  0  0  0  0  0  0  0
   35.8106   25.6038   -1.6636 H   0  0  0  0  0  0  0  0  0  0  0  0
   38.0874   24.6076   -1.4836 H   0  0  0  0  0  0  0  0  0  0  0  0
   37.9784   24.6711    0.2964 H   0  0  0  0  0  0  0  0  0  0  0  0
   39.8498   26.0554   -1.4514 H   0  0  0  0  0  0  0  0  0  0  0  0
   39.5230   28.4246    0.2393 H   0  0  0  0  0  0  0  0  0  0  0  0
   39.6439   28.3462   -1.5213 H   0  0  0  0  0  0  0  0  0  0  0  0
   41.9094   27.3297   -1.3404 H   0  0  0  0  0  0  0  0  0  0  0  0
   41.8015   27.3952    0.4406 H   0  0  0  0  0  0  0  0  0  0  0  0
   43.6107   28.7396   -1.3088 H   0  0  0  0  0  0  0  0  0  0  0  0
   43.3697   31.1291    0.3901 H   0  0  0  0  0  0  0  0  0  0  0  0
   43.4792   31.0651   -1.3687 H   0  0  0  0  0  0  0  0  0  0  0  0
   45.7472   30.0387   -1.2000 H   0  0  0  0  0  0  0  0  0  0  0  0
   45.6436   30.1054    0.5819 H   0  0  0  0  0  0  0  0  0  0  0  0
   47.4450   31.4447   -1.1737 H   0  0  0  0  0  0  0  0  0  0  0  0
   47.2263   33.8401    0.5263 H   0  0  0  0  0  0  0  0  0  0  0  0
   47.3316   33.7764   -1.2315 H   0  0  0  0  0  0  0  0  0  0  0  0
   49.6030   32.7525   -1.0682 H   0  0  0  0  0  0  0  0  0  0  0  0
   49.5010   32.8169    0.7142 H   0  0  0  0  0  0  0  0  0  0  0  0
   51.3101   34.1799   -1.0392 H   0  0  0  0  0  0  0  0  0  0  0  0
   51.0737   36.5677    0.6601 H   0  0  0  0  0  0  0  0  0  0  0  0
   51.1855   36.4972   -1.0999 H   0  0  0  0  0  0  0  0  0  0  0  0
   53.4505   35.4630   -0.9347 H   0  0  0  0  0  0  0  0  0  0  0  0
   53.3502   35.5254    0.8472 H   0  0  0  0  0  0  0  0  0  0  0  0
   55.2003   36.8694   -0.9023 H   0  0  0  0  0  0  0  0  0  0  0  0
   54.9497   39.2560    0.7965 H   0  0  0  0  0  0  0  0  0  0  0  0
   55.0592   39.1745   -0.9778 H   0  0  0  0  0  0  0  0  0  0  0  0
   57.2035   38.2303    0.9982 H   0  0  0  0  0  0  0  0  0  0  0  0
   57.2642   39.7493    0.0561 H   0  0  0  0  0  0  0  0  0  0  0  0
   59.0114   37.4727   -0.0384 H   0  0  0  0  0  0  0  0  0  0  0  0
   59.0987   37.7864   -2.9581 H   0  0  0  0  0  0  0  0  0  0  0  0
   59.0538   36.2815   -2.0248 H   0  0  0  0  0  0  0  0  0  0  0  0
   61.2858   36.8494   -1.0077 H   0  0  0  0  0  0  0  0  0  0  0  0
   61.3243   38.3456   -1.9505 H   0  0  0  0  0  0  0  0  0  0  0  0
   61.2098   35.5169   -3.1110 H   0  0  0  0  0  0  0  0  0  0  0  0
   62.6491   36.5662   -3.0412 H   0  0  0  0  0  0  0  0  0  0  0  0
   61.3530   35.4420   -5.4224 H   0  0  0  0  0  0  0  0  0  0  0  0
   62.7990   36.4818   -5.3783 H   0  0  0  0  0  0  0  0  0  0  0  0
   61.5899   38.2035   -6.7447 H   0  0  0  0  0  0  0  0  0  0  0  0
   60.1728   37.1645   -6.7970 H   0  0  0  0  0  0  0  0  0  0  0  0
   62.9531   36.4226   -7.8569 H   0  0  0  0  0  0  0  0  0  0  0  0
   61.5529   36.8996   -8.8542 H   0  0  0  0  0  0  0  0  0  0  0  0
   63.0478   34.3814   -8.9305 H   0  0  0  0  0  0  0  0  0  0  0  0
   61.6515   34.8351   -9.9425 H   0  0  0  0  0  0  0  0  0  0  0  0
   60.3654   32.8898   -9.0193 H   0  0  0  0  0  0  0  0  0  0  0  0
   61.7525   32.4397   -8.0383 H   0  0  0  0  0  0  0  0  0  0  0  0
   61.7330   32.6357  -11.0985 H   0  0  0  0  0  0  0  0  0  0  0  0
   61.6809   31.1187  -10.1572 H   0  0  0  0  0  0  0  0  0  0  0  0
   63.7294   32.0486  -12.0062 H   0  0  0  0  0  0  0  0  0  0  0  0
   65.7530   31.0179  -10.1494 H   0  0  0  0  0  0  0  0  0  0  0  0
   65.7937   32.5103  -11.0880 H   0  0  0  0  0  0  0  0  0  0  0  0
   65.7115   31.2064  -13.2125 H   0  0  0  0  0  0  0  0  0  0  0  0
   65.6659   29.6830  -12.2773 H   0  0  0  0  0  0  0  0  0  0  0  0
   67.6965   30.6163  -14.1278 H   0  0  0  0  0  0  0  0  0  0  0  0
   69.7734   31.0663  -13.2235 H   0  0  0  0  0  0  0  0  0  0  0  0
   69.8640   29.5021  -14.0386 H   0  0  0  0  0  0  0  0  0  0  0  0
   69.3787   29.8855  -11.0214 H   0  0  0  0  0  0  0  0  0  0  0  0
   70.9001   29.3828  -11.7613 H   0  0  0  0  0  0  0  0  0  0  0  0
   68.4218   28.0688  -12.0101 H   0  0  0  0  0  0  0  0  0  0  0  0
  1  2  1  0  0  0  0
  1 81  1  0  0  0  0
  2  3  1  0  0  0  0
  2 82  1  0  0  0  0
  2 83  1  0  0  0  0
  3  4  1  0  0  0  0
  3 84  1  0  0  0  0
  3 85  1  0  0  0  0
  4  5  1  0  0  0  0
  4 86  1  0  0  0  0
  4 87  1  0  0  0  0
  5  6  1  0  0  0  0
  5 88  1  0  0  0  0
  5 89  1  0  0  0  0
  6  7  1  0  0  0  0
  6 90  1  0  0  0  0
  6 91  1  0  0  0  0
  7  8  1  0  0  0  0
  7 92  1  0  0  0  0
  7 93  1  0  0  0  0
  8  9  1  0  0  0  0
  8 94  1  0  0  0  0
  8 95  1  0  0  0  0
  9 10  2  3  0  0  0
  9 96  1  0  0  0  0
 10 11  1  0  0  0  0
 11 12  1  0  0  0  0
 11 97  1  0  0  0  0
 11 98  1  0  0  0  0
 12 13  1  0  0  0  0
 12 99  1  0  0  0  0
 12100  1  0  0  0  0
 13 14  1  0  0  0  0
 14 15  1  0  0  0  0
 14101  1  0  0  0  0
 14102  1  0  0  0  0
 15 16  1  0  0  0  0
 15103  1  0  0  0  0
 15104  1  0  0  0  0
 16 17  1  0  0  0  0
 16105  1  0  0  0  0
 16106  1  0  0  0  0
 17 18  1  0  0  0  0
 17107  1  0  0  0  0
 17108  1  0  0  0  0
 18 19  1  0  0  0  0
 18109  1  0  0  0  0
 18110  1  0  0  0  0
 19 20  1  0  0  0  0
 19111  1  0  0  0  0
 19112  1  0  0  0  0
 20 21  1  0  0  0  0
 21 22  1  0  0  0  0
 21113  1  0  0  0  0
 22 23  1  0  0  0  0
 22114  1  0  0  0  0
 22115  1  0  0  0  0
 23 24  1  0  0  0  0
 23116  1  0  0  0  0
 23117  1  0  0  0  0
 24 25  1  0  0  0  0
 25 26  1  0  0  0  0
 25118  1  0  0  0  0
 25119  1  0  0  0  0
 26 27  1  0  0  0  0
 26120  1  0  0  0  0
 26121  1  0  0  0  0
 27 28  1  0  0  0  0
 27122  1  0  0  0  0
 27123  1  0  0  0  0
 28 29  1  0  0  0  0
 29 30  1  0  0  0  0
 29124  1  0  0  0  0
 29125  1  0  0  0  0
 30 31  1  0  0  0  0
 30126  1  0  0  0  0
 30127  1  0  0  0  0
 31 32  1  0  0  0  0
 32 33  1  0  0  0  0
 33 34  1  0  0  0  0
 33128  1  0  0  0  0
 33129  1  0  0  0  0
 34 35  1  0  0  0  0
 34130  1  0  0  0  0
 34131  1  0  0  0  0
 35 36  1  0  0  0  0
 36 37  1  0  0  0  0
 36132  1  0  0  0  0
 37 38  1  0  0  0  0
 37133  1  0  0  0  0
 37134  1  0  0  0  0
 38 39  1  0  0  0  0
 38135  1  0  0  0  0
 38136  1  0  0  0  0
 39 40  1  0  0  0  0
 40 41  1  0  0  0  0
 40137  1  0  0  0  0
 41 42  1  0  0  0  0
 41138  1  0  0  0  0
 41139  1  0  0  0  0
 42 43  1  0  0  0  0
 42140  1  0  0  0  0
 42141  1  0  0  0  0
 43 44  1  0  0  0  0
 44 45  1  0  0  0  0
 44142  1  0  0  0  0
 45 46  1  0  0  0  0
 45143  1  0  0  0  0
 45144  1  0  0  0  0
 46 47  1  0  0  0  0
 46145  1  0  0  0  0
 46146  1  0  0  0  0
 47 48  1  0  0  0  0
 48 49  1  0  0  0  0
 48147  1  0  0  0  0
 49 50  1  0  0  0  0
 49148  1  0  0  0  0
 49149  1  0  0  0  0
 50 51  1  0  0  0  0
 50150  1  0  0  0  0
 50151  1  0  0  0  0
 51 52  1  0  0  0  0
 52 53  1  0  0  0  0
 52152  1  0  0  0  0
 53 54  1  0  0  0  0
 53153  1  0  0  0  0
 53154  1  0  0  0  0
 54 55  1  0  0  0  0
 54155  1  0  0  0  0
 54156  1  0  0  0  0
 55 56  1  0  0  0  0
 56 57  1  0  0  0  0
 56157  1  0  0  0  0
 57 58  1  0  0  0  0
 57158  1  0  0  0  0
 57159  1  0  0  0  0
 58 59  1  0  0  0  0
 58160  1  0  0  0  0
 58161  1  0  0  0  0
 59 60  1  0  0  0  0
 60 61  1  0  0  0  0
 60162  1  0  0  0  0
 61 62  1  0  0  0  0
 61163  1  0  0  0  0
 61164  1  0  0  0  0
 62 63  1  0  0  0  0
 62165  1  0  0  0  0
 62166  1  0  0  0  0
 63 64  1  0  0  0  0
 63167  1  0  0  0  0
 63168  1  0  0  0  0
 64 65  1  0  0  0  0
 65 66  1  0  0  0  0
 65169  1  0  0  0  0
 65170  1  0  0  0  0
 66 67  1  0  0  0  0
 66171  1  0  0  0  0
 66172  1  0  0  0  0
 67 68  1  0  0  0  0
 67173  1  0  0  0  0
 67174  1  0  0  0  0
 68 69  1  0  0  0  0
 69 70  1  0  0  0  0
 69175  1  0  0  0  0
 69176  1  0  0  0  0
 70 71  1  0  0  0  0
 70177  1  0  0  0  0
 70178  1  0  0  0  0
 71 72  1  0  0  0  0
 71179  1  0  0  0  0
 71180  1  0  0  0  0
 72 73  1  0  0  0  0
 73 74  1  0  0  0  0
 73181  1  0  0  0  0
 74 75  1  0  0  0  0
 74182  1  0  0  0  0
 74183  1  0  0  0  0
 75 76  1  0  0  0  0
 75184  1  0  0  0  0
 75185  1  0  0  0  0
 76 77  1  0  0  0  0
 77 78  1  0  0  0  0
 77186  1  0  0  0  0
 78 79  1  0  0  0  0
 78187  1  0  0  0  0
 78188  1  0  0  0  0
 79 80  1  0  0  0  0
 79189  1  0  0  0  0
 79190  1  0  0  0  0
 80191  1  0  0  0  0
M  END
$$$$
