
 OpenBabel04232216473D

 46 49  0  0  0  0  0  0  0  0999 V2000
    8.5355   -9.5368    0.6049 C   0  0  0  0  0  0  0  0  0  0  0  0
    9.6719   -8.5395    1.0420 C   0  0  0  0  0  0  0  0  0  0  0  0
   10.6710   -9.3518    1.4899 C   0  0  0  0  0  0  0  0  0  0  0  0
   11.8751   -9.7463    0.7592 C   0  0  0  0  0  0  0  0  0  0  0  0
   12.3681   -9.2792   -0.4051 C   0  0  0  0  0  0  0  0  0  0  0  0
   13.8047   -9.6154   -0.7170 C   0  0  0  0  0  0  0  0  0  0  0  0
   11.8007   -8.1052   -1.0779 C   0  0  0  0  0  0  0  0  0  0  0  0
   12.5379   -6.9150   -0.5821 C   0  0  0  0  0  0  0  0  0  0  0  0
   13.9780   -6.4959   -0.8102 C   0  0  0  0  0  0  0  0  0  0  0  0
   13.8201   -5.0187   -0.5675 C   0  0  0  0  0  0  0  0  0  0  0  0
   13.8192   -4.5918    0.7132 C   0  0  0  0  0  0  0  0  0  0  0  0
   12.7250   -3.7548    1.0930 C   0  0  0  0  0  0  0  0  0  0  0  0
   12.8089   -2.4350    0.8237 C   0  0  0  0  0  0  0  0  0  0  0  0
   11.4666   -1.8445    0.8741 C   0  0  0  0  0  0  0  0  0  0  0  0
   10.7983   -2.6034    1.8082 C   0  0  0  0  0  0  0  0  0  0  0  0
   11.3447   -4.0349    1.6361 C   0  0  0  0  0  0  0  0  0  0  0  0
   10.4329   -5.0974    1.6035 C   0  0  0  0  0  0  0  0  0  0  0  0
   10.0055   -5.9066    0.3074 C   0  0  0  0  0  0  0  0  0  0  0  0
    9.9238   -4.9231   -0.8817 C   0  0  0  0  0  0  0  0  0  0  0  0
    9.5606   -3.6445   -0.7052 C   0  0  0  0  0  0  0  0  0  0  0  0
   10.2261   -2.4739   -1.2550 C   0  0  0  0  0  0  0  0  0  0  0  0
   10.9395   -1.5887   -0.5062 C   0  0  0  0  0  0  0  0  0  0  0  0
   10.4510   -7.8931   -1.2120 C   0  0  0  0  0  0  0  0  0  0  0  0
    9.8734   -7.3149    0.1060 C   0  0  0  0  0  0  0  0  0  0  0  0
    8.9862  -10.4670    0.1905 H   0  0  0  0  0  0  0  0  0  0  0  0
    7.9038   -9.1737   -0.2091 H   0  0  0  0  0  0  0  0  0  0  0  0
    7.9162   -9.8745    1.4420 H   0  0  0  0  0  0  0  0  0  0  0  0
   10.3704  -10.2220    2.0912 H   0  0  0  0  0  0  0  0  0  0  0  0
   12.4228  -10.5628    1.2356 H   0  0  0  0  0  0  0  0  0  0  0  0
   13.9845  -10.6868   -0.8091 H   0  0  0  0  0  0  0  0  0  0  0  0
   14.4191   -9.2444    0.1182 H   0  0  0  0  0  0  0  0  0  0  0  0
   14.1659   -9.1198   -1.6218 H   0  0  0  0  0  0  0  0  0  0  0  0
   12.3631   -6.8599    0.5032 H   0  0  0  0  0  0  0  0  0  0  0  0
   11.9840   -6.1386   -1.0973 H   0  0  0  0  0  0  0  0  0  0  0  0
   14.3325   -6.6988   -1.7849 H   0  0  0  0  0  0  0  0  0  0  0  0
   14.6202   -6.9560   -0.0513 H   0  0  0  0  0  0  0  0  0  0  0  0
   13.1224   -4.5147   -1.2662 H   0  0  0  0  0  0  0  0  0  0  0  0
   14.4180   -5.0593    1.4658 H   0  0  0  0  0  0  0  0  0  0  0  0
   13.6611   -1.9259    0.3912 H   0  0  0  0  0  0  0  0  0  0  0  0
   11.0011   -2.3390    2.8583 H   0  0  0  0  0  0  0  0  0  0  0  0
    9.5029   -4.8989    2.1503 H   0  0  0  0  0  0  0  0  0  0  0  0
   10.4563   -5.2021   -1.7861 H   0  0  0  0  0  0  0  0  0  0  0  0
    9.0016   -3.3803    0.1985 H   0  0  0  0  0  0  0  0  0  0  0  0
   10.1492   -2.3010   -2.3349 H   0  0  0  0  0  0  0  0  0  0  0  0
   11.3994   -0.7071   -1.0067 H   0  0  0  0  0  0  0  0  0  0  0  0
    9.8068   -8.6866   -1.5824 H   0  0  0  0  0  0  0  0  0  0  0  0
  1  2  1  0  0  0  0
  1 25  1  0  0  0  0
  1 26  1  0  0  0  0
  1 27  1  0  0  0  0
  2  3  2  0  0  0  0
  2 24  1  0  0  0  0
  3  4  1  0  0  0  0
  3 28  1  0  0  0  0
  4  5  2  0  0  0  0
  4 29  1  0  0  0  0
  5  6  1  0  0  0  0
  5  7  1  0  0  0  0
  6 30  1  0  0  0  0
  6 31  1  0  0  0  0
  6 32  1  0  0  0  0
  7  8  1  0  0  0  0
  7 23  2  0  0  0  0
  8  9  1  0  0  0  0
  8 33  1  0  0  0  0
  8 34  1  0  0  0  0
  9 10  1  0  0  0  0
  9 35  1  0  0  0  0
  9 36  1  0  0  0  0
 10 11  2  3  0  0  0
 10 37  1  0  0  0  0
 11 12  1  0  0  0  0
 11 38  1  0  0  0  0
 12 13  2  0  0  0  0
 12 16  1  0  0  0  0
 13 14  1  0  0  0  0
 13 39  1  0  0  0  0
 14 15  2  0  0  0  0
 14 22  1  0  0  0  0
 15 16  1  0  0  0  0
 15 40  1  0  0  0  0
 16 17  2  0  0  0  0
 17 18  1  0  0  0  0
 17 41  1  0  0  0  0
 18 19  1  0  0  0  0
 18 24  2  3  0  0  0
 19 20  2  0  0  0  0
 19 42  1  0  0  0  0
 20 21  1  0  0  0  0
 20 43  1  0  0  0  0
 21 22  2  0  0  0  0
 21 44  1  0  0  0  0
 22 45  1  0  0  0  0
 23 24  1  0  0  0  0
 23 46  1  0  0  0  0
M  END
$$$$
