
 OpenBabel04232216513D

 32 32  0  0  0  0  0  0  0  0999 V2000
    1.4136    1.2333    1.6312 C   0  0  0  0  0  0  0  0  0  0  0  0
    1.7994    0.4988    0.3544 C   0  0  0  0  0  0  0  0  0  0  0  0
    2.8113    1.2565   -0.5275 C   0  0  0  0  0  0  0  0  0  0  0  0
    4.1109    1.7276    0.1686 C   0  0  0  0  0  0  0  0  0  0  0  0
    5.3031    0.7597    0.2456 C   0  0  0  0  0  0  0  0  0  0  0  0
    5.0380   -0.5637    0.9597 C   0  0  0  0  0  0  0  0  0  0  0  0
    5.3327   -1.8323    0.1451 C   0  0  0  0  0  0  0  0  0  0  0  0
    4.8413   -1.9054   -1.3046 C   0  0  0  0  0  0  0  0  0  0  0  0
    3.3208   -1.9371   -1.4704 C   0  0  0  0  0  0  0  0  0  0  0  0
    2.7364   -0.7684   -2.2762 C   0  0  0  0  0  0  0  0  0  0  0  0
    3.1261    0.6109   -1.8515 C   0  0  0  0  0  3  0  0  0  0  0  0
    0.5767    0.7219    2.1183 H   0  0  0  0  0  0  0  0  0  0  0  0
    1.1067    2.2626    1.4201 H   0  0  0  0  0  0  0  0  0  0  0  0
    2.2403    1.2514    2.3479 H   0  0  0  0  0  0  0  0  0  0  0  0
    0.8832    0.3296   -0.2251 H   0  0  0  0  0  0  0  0  0  0  0  0
    2.1536   -0.4911    0.6395 H   0  0  0  0  0  0  0  0  0  0  0  0
    2.2845    2.1854   -0.7972 H   0  0  0  0  0  0  0  0  0  0  0  0
    3.8923    2.1060    1.1729 H   0  0  0  0  0  0  0  0  0  0  0  0
    4.4723    2.6074   -0.3840 H   0  0  0  0  0  0  0  0  0  0  0  0
    6.0937    1.2845    0.8010 H   0  0  0  0  0  0  0  0  0  0  0  0
    5.7273    0.6118   -0.7514 H   0  0  0  0  0  0  0  0  0  0  0  0
    4.0330   -0.6075    1.3762 H   0  0  0  0  0  0  0  0  0  0  0  0
    5.6906   -0.6013    1.8438 H   0  0  0  0  0  0  0  0  0  0  0  0
    4.9267   -2.6892    0.7023 H   0  0  0  0  0  0  0  0  0  0  0  0
    6.4194   -1.9759    0.1340 H   0  0  0  0  0  0  0  0  0  0  0  0
    5.2337   -2.8446   -1.7157 H   0  0  0  0  0  0  0  0  0  0  0  0
    5.3005   -1.1232   -1.9159 H   0  0  0  0  0  0  0  0  0  0  0  0
    2.8215   -2.0409   -0.5058 H   0  0  0  0  0  0  0  0  0  0  0  0
    3.0597   -2.8550   -2.0195 H   0  0  0  0  0  0  0  0  0  0  0  0
    1.6444   -0.8478   -2.2967 H   0  0  0  0  0  0  0  0  0  0  0  0
    3.0561   -0.8872   -3.3189 H   0  0  0  0  0  0  0  0  0  0  0  0
    3.5744    1.2477   -2.6100 H   0  0  0  0  0  0  0  0  0  0  0  0
  1  2  1  0  0  0  0
  1 12  1  0  0  0  0
  1 13  1  0  0  0  0
  1 14  1  0  0  0  0
  2  3  1  0  0  0  0
  2 15  1  0  0  0  0
  2 16  1  0  0  0  0
  3  4  1  0  0  0  0
  3 11  1  0  0  0  0
  3 17  1  0  0  0  0
  4  5  1  0  0  0  0
  4 18  1  0  0  0  0
  4 19  1  0  0  0  0
  5  6  1  0  0  0  0
  5 20  1  0  0  0  0
  5 21  1  0  0  0  0
  6  7  1  0  0  0  0
  6 22  1  0  0  0  0
  6 23  1  0  0  0  0
  7  8  1  0  0  0  0
  7 24  1  0  0  0  0
  7 25  1  0  0  0  0
  8  9  1  0  0  0  0
  8 26  1  0  0  0  0
  8 27  1  0  0  0  0
  9 10  1  0  0  0  0
  9 28  1  0  0  0  0
  9 29  1  0  0  0  0
 10 11  1  0  0  0  0
 10 30  1  0  0  0  0
 10 31  1  0  0  0  0
 11 32  1  0  0  0  0
M  END
$$$$
