
 OpenBabel04232216433D

 47 47  0  0  0  0  0  0  0  0999 V2000
    9.4813   -3.4913    3.0165 C   0  0  0  0  0  0  0  0  0  0  0  0
    8.0165   -2.7783    2.2243 C   0  0  0  0  0  0  0  0  0  0  0  0
    7.0636   -1.8681    1.7667 C   0  0  0  0  0  0  0  0  0  0  0  0
    6.6498   -0.4329    1.6598 C   0  0  0  0  0  0  0  0  0  0  0  0
    6.2867    0.3291    2.7284 C   0  0  0  0  0  0  0  0  0  0  0  0
    7.5486    0.7082    3.3299 C   0  0  0  0  0  0  0  0  0  0  0  0
    8.1156   -0.1403    4.1846 C   0  0  0  0  0  0  0  0  0  0  0  0
    9.4686   -0.3608    3.7906 C   0  0  0  0  0  0  0  0  0  0  0  0
   10.3654   -0.5515    4.6953 C   0  0  0  0  0  0  0  0  0  0  0  0
   11.7289   -0.6749    4.3394 C   0  0  0  0  0  0  0  0  0  0  0  0
   12.4007   -0.9188    5.4453 C   0  0  0  0  0  0  0  0  0  0  0  0
   13.7544   -1.1709    5.6734 C   0  0  0  0  0  0  0  0  0  0  0  0
   13.9704   -1.5486    6.9394 C   0  0  0  0  0  0  0  0  0  0  0  0
   15.3143   -1.7177    7.2221 C   0  0  0  0  0  0  0  0  0  0  0  0
   16.0431   -1.8274    8.3379 C   0  0  0  0  0  0  0  0  0  0  0  0
   17.4531   -1.6534    7.9728 C   0  0  0  0  0  0  0  0  0  0  0  0
   18.0276   -2.8465    7.9789 C   0  0  0  0  0  0  0  0  0  0  0  0
   17.9358   -3.7135    6.7792 C   0  0  0  0  0  0  0  0  0  0  0  0
   16.8201   -4.4629    6.4068 C   0  0  0  0  0  0  0  0  0  0  0  0
   15.2148   -4.2140    5.5942 C   0  0  0  0  0  0  0  0  0  0  0  0
   13.8325   -4.2785    5.4131 C   0  0  0  0  0  0  0  0  0  0  0  0
   12.4413   -3.8865    4.3309 C   0  0  0  0  0  0  0  0  0  0  0  0
   10.9722   -3.6169    4.1106 C   0  0  0  0  0  0  0  0  0  0  0  0
    9.0869   -2.8584    3.8409 H   0  0  0  0  0  0  0  0  0  0  0  0
    9.0317   -4.4761    3.2561 H   0  0  0  0  0  0  0  0  0  0  0  0
    7.5152   -3.7401    1.9673 H   0  0  0  0  0  0  0  0  0  0  0  0
    6.1898   -2.3393    1.2690 H   0  0  0  0  0  0  0  0  0  0  0  0
    6.0813   -0.1328    0.7517 H   0  0  0  0  0  0  0  0  0  0  0  0
    5.6750   -0.1572    3.4968 H   0  0  0  0  0  0  0  0  0  0  0  0
    8.2016    1.2303    2.6107 H   0  0  0  0  0  0  0  0  0  0  0  0
    7.5682   -0.8792    4.7801 H   0  0  0  0  0  0  0  0  0  0  0  0
    9.7234   -0.4232    2.7305 H   0  0  0  0  0  0  0  0  0  0  0  0
   10.0478   -0.6401    5.7331 H   0  0  0  0  0  0  0  0  0  0  0  0
   12.1350   -0.6107    3.3214 H   0  0  0  0  0  0  0  0  0  0  0  0
   11.8259   -1.0906    6.3416 H   0  0  0  0  0  0  0  0  0  0  0  0
   14.5060   -1.0922    4.8876 H   0  0  0  0  0  0  0  0  0  0  0  0
   13.2055   -1.6586    7.7018 H   0  0  0  0  0  0  0  0  0  0  0  0
   15.8669   -1.8527    6.2998 H   0  0  0  0  0  0  0  0  0  0  0  0
   15.6912   -2.2511    9.2720 H   0  0  0  0  0  0  0  0  0  0  0  0
   17.4974   -1.1120    6.9993 H   0  0  0  0  0  0  0  0  0  0  0  0
   18.2331   -3.2432    8.9838 H   0  0  0  0  0  0  0  0  0  0  0  0
   18.8510   -4.2893    7.0335 H   0  0  0  0  0  0  0  0  0  0  0  0
   16.8570   -5.3995    6.9796 H   0  0  0  0  0  0  0  0  0  0  0  0
   15.1289   -4.7356    6.5963 H   0  0  0  0  0  0  0  0  0  0  0  0
   13.3539   -4.5918    6.3513 H   0  0  0  0  0  0  0  0  0  0  0  0
   12.2199   -3.5529    5.3792 H   0  0  0  0  0  0  0  0  0  0  0  0
   10.4504   -3.4763    5.0722 H   0  0  0  0  0  0  0  0  0  0  0  0
  1  2  1  0  0  0  0
  1 23  1  0  0  0  0
  1 24  1  0  0  0  0
  1 25  1  0  0  0  0
  2  3  2  3  0  0  0
  2 26  1  0  0  0  0
  3  4  1  0  0  0  0
  3 27  1  0  0  0  0
  4  5  2  3  0  0  0
  4 28  1  0  0  0  0
  5  6  1  0  0  0  0
  5 29  1  0  0  0  0
  6  7  2  3  0  0  0
  6 30  1  0  0  0  0
  7  8  1  0  0  0  0
  7 31  1  0  0  0  0
  8  9  2  3  0  0  0
  8 32  1  0  0  0  0
  9 10  1  0  0  0  0
  9 33  1  0  0  0  0
 10 11  2  3  0  0  0
 10 34  1  0  0  0  0
 11 12  1  0  0  0  0
 11 35  1  0  0  0  0
 12 13  2  3  0  0  0
 12 36  1  0  0  0  0
 13 14  1  0  0  0  0
 13 37  1  0  0  0  0
 14 15  2  3  0  0  0
 14 38  1  0  0  0  0
 15 16  1  0  0  0  0
 15 39  1  0  0  0  0
 16 17  2  3  0  0  0
 16 40  1  0  0  0  0
 17 18  1  0  0  0  0
 17 41  1  0  0  0  0
 18 19  2  3  0  0  0
 18 42  1  0  0  0  0
 19 20  1  0  0  0  0
 19 43  1  0  0  0  0
 20 21  2  3  0  0  0
 20 44  1  0  0  0  0
 21 22  1  0  0  0  0
 21 45  1  0  0  0  0
 22 23  2  3  0  0  0
 22 46  1  0  0  0  0
 23 47  1  0  0  0  0
M  END
$$$$
