
 OpenBabel04232216553D

 26 26  0  0  0  0  0  0  0  0999 V2000
    3.0850    1.5208   -0.3521 C   0  0  0  0  0  0  0  0  0  0  0  0
    4.0571    0.7053   -1.0725 N   0  0  0  0  0  0  0  0  0  0  0  0
    3.5865   -0.4295   -1.7822 C   0  0  0  0  0  0  0  0  0  0  0  0
    4.1677   -1.6526   -1.5735 C   0  0  0  0  0  0  0  0  0  0  0  0
    4.7145   -2.0057   -0.1930 C   0  0  0  0  0  0  0  0  0  0  0  0
    5.0067   -2.1394   -2.7811 C   0  0  0  0  0  0  0  0  0  0  0  0
    6.4128   -1.5088   -2.5661 C   0  0  0  0  0  0  0  0  0  0  0  0
    7.1026   -0.2953   -3.2167 C   0  0  0  0  0  0  0  0  0  0  0  0
    7.2992    0.8662   -2.1499 C   0  0  0  0  0  0  0  0  0  0  0  0
    6.1702    1.0656   -1.2024 N   0  0  0  0  0  0  0  0  0  0  0  0
    5.0765    1.4247   -1.7177 N   0  0  0  0  0  0  0  0  0  0  0  0
    2.1378    1.5639   -0.9066 H   0  0  0  0  0  0  0  0  0  0  0  0
    3.4090    2.5041   -0.2076 H   0  0  0  0  0  0  0  0  0  0  0  0
    2.9024    1.0649    0.6339 H   0  0  0  0  0  0  0  0  0  0  0  0
    3.3516   -0.1175   -2.7841 H   0  0  0  0  0  0  0  0  0  0  0  0
    3.9125   -2.1897    0.5263 H   0  0  0  0  0  0  0  0  0  0  0  0
    5.3550   -1.2159    0.2241 H   0  0  0  0  0  0  0  0  0  0  0  0
    5.3344   -2.9066   -0.2510 H   0  0  0  0  0  0  0  0  0  0  0  0
    4.5529   -1.8732   -3.7447 H   0  0  0  0  0  0  0  0  0  0  0  0
    5.0656   -3.2340   -2.7396 H   0  0  0  0  0  0  0  0  0  0  0  0
    7.0842   -2.1511   -1.9973 H   0  0  0  0  0  0  0  0  0  0  0  0
    6.0978   -0.9087   -1.7608 H   0  0  0  0  0  0  0  0  0  0  0  0
    6.5865    0.0812   -4.1026 H   0  0  0  0  0  0  0  0  0  0  0  0
    8.1064   -0.5994   -3.5500 H   0  0  0  0  0  0  0  0  0  0  0  0
    8.1468    0.5817   -1.5251 H   0  0  0  0  0  0  0  0  0  0  0  0
    7.5524    1.8184   -2.6414 H   0  0  0  0  0  0  0  0  0  0  0  0
  1  2  1  0  0  0  0
  1 12  1  0  0  0  0
  1 13  1  0  0  0  0
  1 14  1  0  0  0  0
  2  3  1  0  0  0  0
  2 11  1  0  0  0  0
  3  4  2  3  0  0  0
  3 15  1  0  0  0  0
  4  5  1  0  0  0  0
  4  6  1  0  0  0  0
  5 16  1  0  0  0  0
  5 17  1  0  0  0  0
  5 18  1  0  0  0  0
  6  7  1  0  0  0  0
  6 19  1  0  0  0  0
  6 20  1  0  0  0  0
  7  8  1  0  0  0  0
  7 21  1  0  0  0  0
  7 22  1  0  0  0  0
  8  9  1  0  0  0  0
  8 23  1  0  0  0  0
  8 24  1  0  0  0  0
  9 10  1  0  0  0  0
  9 25  1  0  0  0  0
  9 26  1  0  0  0  0
 10 11  2  3  0  0  0
M  END
$$$$
