
 OpenBabel04232216433D

 60 62  0  0  1  0  0  0  0  0999 V2000
    6.0995   -2.1084   -0.8614 C   0  0  0  0  0  0  0  0  0  0  0  0
    7.6065   -2.2828   -0.4512 C   0  0  3  0  0  0  0  0  0  0  0  0
    7.7565   -3.8613   -0.5310 C   0  0  0  0  0  0  0  0  0  0  0  0
    8.9129   -4.7682   -0.0908 C   0  0  0  0  0  0  0  0  0  0  0  0
    9.4210   -4.6481    1.3295 C   0  0  0  0  0  0  0  0  0  0  0  0
   10.5188   -3.8728    1.5190 C   0  0  0  0  0  0  0  0  0  0  0  0
   11.6172   -3.8123    0.4748 C   0  0  0  0  0  0  0  0  0  0  0  0
   10.2692   -2.5793    2.2086 C   0  0  0  0  0  0  0  0  0  0  0  0
   10.1893   -1.4236    1.4862 C   0  0  0  0  0  0  0  0  0  0  0  0
   11.1109   -0.9173    0.5609 C   0  0  0  0  0  0  0  0  0  0  0  0
   10.1429   -0.0740    0.1626 C   0  0  0  0  0  0  0  0  0  0  0  0
   10.5497    1.3635   -0.3696 C   0  0  0  0  0  0  0  0  0  0  0  0
   12.0368    1.5362   -0.8507 C   0  0  0  0  0  0  0  0  0  0  0  0
   12.3891    1.1237   -2.2914 C   0  0  0  0  0  0  0  0  0  0  0  0
   11.7235    2.0296   -3.3264 C   0  0  0  0  0  0  0  0  0  0  0  0
   12.0378    1.6362   -4.7630 C   0  0  0  0  0  0  0  0  0  0  0  0
    9.2432   -0.7186    0.9023 N   0  0  0  0  0  0  0  0  0  0  0  0
    7.9277   -1.3501    0.7662 C   0  0  0  0  0  0  0  0  0  0  0  0
    7.1506   -1.3336    1.8923 C   0  0  0  0  0  0  0  0  0  0  0  0
    6.2623   -2.4119    2.3060 C   0  0  0  0  0  0  0  0  0  0  0  0
    6.8027   -3.5462    2.7752 C   0  0  0  0  0  0  0  0  0  0  0  0
    6.1086   -4.8080    2.7472 C   0  0  0  0  0  0  0  0  0  0  0  0
    6.6644   -5.9959    2.4703 C   0  0  0  0  0  0  0  0  0  0  0  0
    8.0466   -6.4247    2.4879 C   0  0  0  0  0  0  0  0  0  0  0  0
    9.2410   -5.9017    2.1276 C   0  0  0  0  0  0  0  0  0  0  0  0
   10.5138   -6.7007    2.4520 C   0  0  0  0  0  0  0  0  0  0  0  0
   10.2549   -7.9160    3.1657 O   0  0  0  0  0  0  0  0  0  0  0  0
    5.8277   -1.0651   -1.0301 H   0  0  0  0  0  0  0  0  0  0  0  0
    5.4154   -2.5165   -0.1070 H   0  0  0  0  0  0  0  0  0  0  0  0
    5.8677   -2.6735   -1.7735 H   0  0  0  0  0  0  0  0  0  0  0  0
    8.1786   -1.8774   -1.2962 H   0  0  0  0  0  0  0  0  0  0  0  0
    7.7151   -4.0629   -1.6182 H   0  0  0  0  0  0  0  0  0  0  0  0
    6.8426   -4.3308   -0.1500 H   0  0  0  0  0  0  0  0  0  0  0  0
    8.5716   -5.8025   -0.2514 H   0  0  0  0  0  0  0  0  0  0  0  0
    9.7224   -4.6758   -0.8223 H   0  0  0  0  0  0  0  0  0  0  0  0
   12.5354   -3.3813    0.8893 H   0  0  0  0  0  0  0  0  0  0  0  0
   11.8662   -4.8140    0.1205 H   0  0  0  0  0  0  0  0  0  0  0  0
   11.3186   -3.2250   -0.4061 H   0  0  0  0  0  0  0  0  0  0  0  0
   11.0057   -2.5098    3.0093 H   0  0  0  0  0  0  0  0  0  0  0  0
   12.1758   -0.9871    0.4485 H   0  0  0  0  0  0  0  0  0  0  0  0
   10.4938    1.9844    0.5424 H   0  0  0  0  0  0  0  0  0  0  0  0
    9.8076    1.8364   -1.0188 H   0  0  0  0  0  0  0  0  0  0  0  0
   12.7243    1.0026   -0.1814 H   0  0  0  0  0  0  0  0  0  0  0  0
   12.3308    2.5900   -0.7348 H   0  0  0  0  0  0  0  0  0  0  0  0
   12.1389    0.0719   -2.4619 H   0  0  0  0  0  0  0  0  0  0  0  0
   13.4808    1.2031   -2.4196 H   0  0  0  0  0  0  0  0  0  0  0  0
   12.0523    3.0640   -3.1698 H   0  0  0  0  0  0  0  0  0  0  0  0
   10.6406    2.0033   -3.1874 H   0  0  0  0  0  0  0  0  0  0  0  0
   13.1020    1.7539   -4.9919 H   0  0  0  0  0  0  0  0  0  0  0  0
   11.4762    2.2794   -5.4496 H   0  0  0  0  0  0  0  0  0  0  0  0
   11.7520    0.5994   -4.9642 H   0  0  0  0  0  0  0  0  0  0  0  0
    7.3588   -0.6222    2.6798 H   0  0  0  0  0  0  0  0  0  0  0  0
    5.1950   -2.3308    2.0880 H   0  0  0  0  0  0  0  0  0  0  0  0
    7.8638   -3.5780    2.9878 H   0  0  0  0  0  0  0  0  0  0  0  0
    5.0284   -4.7640    2.8584 H   0  0  0  0  0  0  0  0  0  0  0  0
    5.9754   -6.8327    2.3418 H   0  0  0  0  0  0  0  0  0  0  0  0
    8.0731   -7.4362    2.8998 H   0  0  0  0  0  0  0  0  0  0  0  0
   11.2144   -6.1172    3.0590 H   0  0  0  0  0  0  0  0  0  0  0  0
   11.0147   -6.9994    1.5264 H   0  0  0  0  0  0  0  0  0  0  0  0
   10.3930   -7.7314    4.1108 H   0  0  0  0  0  0  0  0  0  0  0  0
  1  2  1  0  0  0  0
  1 28  1  0  0  0  0
  1 29  1  0  0  0  0
  1 30  1  0  0  0  0
  2  3  1  0  0  0  0
  2 18  1  0  0  0  0
  2 31  1  0  0  0  0
  3  4  1  0  0  0  0
  3 32  1  0  0  0  0
  3 33  1  0  0  0  0
  4  5  1  0  0  0  0
  4 34  1  0  0  0  0
  4 35  1  0  0  0  0
  5  6  2  0  0  0  0
  5 25  1  0  0  0  0
  6  7  1  0  0  0  0
  6  8  1  0  0  0  0
  7 36  1  0  0  0  0
  7 37  1  0  0  0  0
  7 38  1  0  0  0  0
  8  9  2  0  0  0  0
  8 39  1  0  0  0  0
  9 10  1  0  0  0  0
  9 17  1  0  0  0  0
 10 11  2  0  0  0  0
 10 40  1  0  0  0  0
 11 12  1  0  0  0  0
 11 17  1  0  0  0  0
 12 13  1  0  0  0  0
 12 41  1  0  0  0  0
 12 42  1  0  0  0  0
 13 14  1  0  0  0  0
 13 43  1  0  0  0  0
 13 44  1  0  0  0  0
 14 15  1  0  0  0  0
 14 45  1  0  0  0  0
 14 46  1  0  0  0  0
 15 16  1  0  0  0  0
 15 47  1  0  0  0  0
 15 48  1  0  0  0  0
 16 49  1  0  0  0  0
 16 50  1  0  0  0  0
 16 51  1  0  0  0  0
 17 18  1  0  0  0  0
 18 19  2  0  0  0  0
 19 20  1  0  0  0  0
 19 52  1  0  0  0  0
 20 21  2  0  0  0  0
 20 53  1  0  0  0  0
 21 22  1  0  0  0  0
 21 54  1  0  0  0  0
 22 23  2  0  0  0  0
 22 55  1  0  0  0  0
 23 24  1  0  0  0  0
 23 56  1  0  0  0  0
 24 25  2  0  0  0  0
 24 57  1  0  0  0  0
 25 26  1  0  0  0  0
 26 27  1  0  0  0  0
 26 58  1  0  0  0  0
 26 59  1  0  0  0  0
 27 60  1  0  0  0  0
M  END
$$$$
