
 OpenBabel04232216423D

 60 61  0  0  0  0  0  0  0  0999 V2000
    1.6798   -0.3748    0.7037 C   0  0  0  0  0  0  0  0  0  0  0  0
    1.8412    0.6219   -0.1920 C   0  0  0  0  0  0  0  0  0  0  0  0
    2.8679    1.5835    0.1953 C   0  0  0  0  0  0  0  0  0  0  0  0
    4.1945    1.2670    0.2408 C   0  0  0  0  0  0  0  0  0  0  0  0
    5.2083    2.1401    1.0098 C   0  0  0  0  0  0  0  0  0  0  0  0
    4.6892    3.4158    1.7152 C   0  0  0  0  0  0  0  0  0  0  0  0
    5.6494    4.6178    1.6739 C   0  0  0  0  0  0  0  0  0  0  0  0
    5.0528    5.7936    0.8689 C   0  0  0  0  0  0  0  0  0  0  0  0
    5.8960    6.1426   -0.3588 C   0  0  0  0  0  0  0  0  0  0  0  0
    5.0487    6.7362   -1.4945 C   0  0  0  0  0  0  0  0  0  0  0  0
    5.7654    6.6443   -2.8498 C   0  0  0  0  0  0  0  0  0  0  0  0
    5.6557    5.2272   -3.4162 C   0  0  0  0  0  0  0  0  0  0  0  0
    6.4928    4.9841   -4.6738 C   0  0  0  0  0  0  0  0  0  0  0  0
    6.1539    3.6815   -5.4326 C   0  0  0  0  0  0  0  0  0  0  0  0
    5.4823    2.6212   -4.5628 C   0  0  0  0  0  0  0  0  0  0  0  0
    5.5943    1.1929   -5.0857 C   0  0  0  0  0  0  0  0  0  0  0  0
    4.9157    0.2185   -4.1164 C   0  0  0  0  0  0  0  0  0  0  0  0
    5.5589    0.1128   -2.7064 C   0  0  0  0  0  0  0  0  0  0  0  0
    4.4803   -0.3176   -1.7107 C   0  0  0  0  0  0  0  0  0  0  0  0
    4.7457    0.0341   -0.2749 N   0  0  0  0  0  0  0  0  0  0  0  0
    4.6948   -1.0580    0.6102 C   0  0  0  0  0  0  0  0  0  0  0  0
    3.6564   -1.8648    0.9068 C   0  0  0  0  0  0  0  0  0  0  0  0
    2.2350   -1.7390    0.3794 C   0  0  0  0  0  0  0  0  0  0  0  0
    1.7498   -0.1388    1.7624 H   0  0  0  0  0  0  0  0  0  0  0  0
    1.7980    0.4189   -1.2552 H   0  0  0  0  0  0  0  0  0  0  0  0
    2.4533    2.4901    0.6145 H   0  0  0  0  0  0  0  0  0  0  0  0
    6.0383    2.3810    0.3363 H   0  0  0  0  0  0  0  0  0  0  0  0
    5.6402    1.5094    1.8035 H   0  0  0  0  0  0  0  0  0  0  0  0
    4.4896    3.1685    2.7667 H   0  0  0  0  0  0  0  0  0  0  0  0
    3.7307    3.7370    1.3155 H   0  0  0  0  0  0  0  0  0  0  0  0
    6.6380    4.3286    1.3012 H   0  0  0  0  0  0  0  0  0  0  0  0
    5.8071    4.9637    2.7033 H   0  0  0  0  0  0  0  0  0  0  0  0
    4.9833    6.6767    1.5163 H   0  0  0  0  0  0  0  0  0  0  0  0
    4.0242    5.5762    0.5611 H   0  0  0  0  0  0  0  0  0  0  0  0
    6.4245    5.2511   -0.7056 H   0  0  0  0  0  0  0  0  0  0  0  0
    6.6661    6.8689   -0.0714 H   0  0  0  0  0  0  0  0  0  0  0  0
    4.8301    7.7825   -1.2687 H   0  0  0  0  0  0  0  0  0  0  0  0
    4.0850    6.2184   -1.5687 H   0  0  0  0  0  0  0  0  0  0  0  0
    6.8134    6.9450   -2.7495 H   0  0  0  0  0  0  0  0  0  0  0  0
    5.2890    7.3334   -3.5561 H   0  0  0  0  0  0  0  0  0  0  0  0
    4.6007    5.0143   -3.6166 H   0  0  0  0  0  0  0  0  0  0  0  0
    5.9853    4.5148   -2.6459 H   0  0  0  0  0  0  0  0  0  0  0  0
    7.5499    4.9442   -4.3790 H   0  0  0  0  0  0  0  0  0  0  0  0
    6.3984    5.8298   -5.3642 H   0  0  0  0  0  0  0  0  0  0  0  0
    7.0756    3.2862   -5.8758 H   0  0  0  0  0  0  0  0  0  0  0  0
    5.4880    3.9216   -6.2709 H   0  0  0  0  0  0  0  0  0  0  0  0
    4.4195    2.8754   -4.4502 H   0  0  0  0  0  0  0  0  0  0  0  0
    5.9316    2.6516   -3.5716 H   0  0  0  0  0  0  0  0  0  0  0  0
    6.6416    0.9111   -5.2338 H   0  0  0  0  0  0  0  0  0  0  0  0
    5.0943    1.1263   -6.0604 H   0  0  0  0  0  0  0  0  0  0  0  0
    4.8836   -0.7806   -4.5681 H   0  0  0  0  0  0  0  0  0  0  0  0
    3.8688    0.5393   -4.0314 H   0  0  0  0  0  0  0  0  0  0  0  0
    6.0172    1.0474   -2.3798 H   0  0  0  0  0  0  0  0  0  0  0  0
    6.3661   -0.6304   -2.7365 H   0  0  0  0  0  0  0  0  0  0  0  0
    4.3295   -1.3985   -1.8287 H   0  0  0  0  0  0  0  0  0  0  0  0
    3.5576    0.1556   -2.0304 H   0  0  0  0  0  0  0  0  0  0  0  0
    5.6525   -1.1894    1.1098 H   0  0  0  0  0  0  0  0  0  0  0  0
    3.8136   -2.6386    1.6540 H   0  0  0  0  0  0  0  0  0  0  0  0
    1.6067   -2.4964    0.8668 H   0  0  0  0  0  0  0  0  0  0  0  0
    2.2124   -1.9639   -0.6951 H   0  0  0  0  0  0  0  0  0  0  0  0
  1  2  2  0  0  0  0
  1 23  1  0  0  0  0
  1 24  1  0  0  0  0
  2  3  1  0  0  0  0
  2 25  1  0  0  0  0
  3  4  2  0  0  0  0
  3 26  1  0  0  0  0
  4  5  1  0  0  0  0
  4 20  1  0  0  0  0
  5  6  1  0  0  0  0
  5 27  1  0  0  0  0
  5 28  1  0  0  0  0
  6  7  1  0  0  0  0
  6 29  1  0  0  0  0
  6 30  1  0  0  0  0
  7  8  1  0  0  0  0
  7 31  1  0  0  0  0
  7 32  1  0  0  0  0
  8  9  1  0  0  0  0
  8 33  1  0  0  0  0
  8 34  1  0  0  0  0
  9 10  1  0  0  0  0
  9 35  1  0  0  0  0
  9 36  1  0  0  0  0
 10 11  1  0  0  0  0
 10 37  1  0  0  0  0
 10 38  1  0  0  0  0
 11 12  1  0  0  0  0
 11 39  1  0  0  0  0
 11 40  1  0  0  0  0
 12 13  1  0  0  0  0
 12 41  1  0  0  0  0
 12 42  1  0  0  0  0
 13 14  1  0  0  0  0
 13 43  1  0  0  0  0
 13 44  1  0  0  0  0
 14 15  1  0  0  0  0
 14 45  1  0  0  0  0
 14 46  1  0  0  0  0
 15 16  1  0  0  0  0
 15 47  1  0  0  0  0
 15 48  1  0  0  0  0
 16 17  1  0  0  0  0
 16 49  1  0  0  0  0
 16 50  1  0  0  0  0
 17 18  1  0  0  0  0
 17 51  1  0  0  0  0
 17 52  1  0  0  0  0
 18 19  1  0  0  0  0
 18 53  1  0  0  0  0
 18 54  1  0  0  0  0
 19 20  1  0  0  0  0
 19 55  1  0  0  0  0
 19 56  1  0  0  0  0
 20 21  1  0  0  0  0
 21 22  2  0  0  0  0
 21 57  1  0  0  0  0
 22 23  1  0  0  0  0
 22 58  1  0  0  0  0
 23 59  1  0  0  0  0
 23 60  1  0  0  0  0
M  END
$$$$
