
 OpenBabel04232216433D

 25 25  0  0  0  0  0  0  0  0999 V2000
    4.2082    0.4162   -1.7495 C   0  0  0  0  0  0  0  0  0  0  0  0
    3.6764   -0.3313   -0.6232 C   0  0  0  0  0  0  0  0  0  0  0  0
    3.4948   -1.6275   -0.3196 C   0  0  0  0  0  0  0  0  0  0  0  0
    3.8478   -2.7662   -0.9626 O   0  0  0  0  0  0  0  0  0  0  0  0
    5.1293   -3.0250   -1.3398 C   0  0  0  0  0  0  0  0  0  0  0  0
    6.3331   -2.6204   -0.8896 C   0  0  0  0  0  0  0  0  0  0  0  0
    6.6385   -1.7419    0.3204 C   0  0  0  0  0  0  0  0  0  0  0  0
    7.9916   -1.0133    0.2948 C   0  0  0  0  0  0  0  0  0  0  0  0
    7.4336   -2.9469   -1.6586 N   0  0  0  0  0  0  0  0  0  0  0  0
    7.6210   -2.3726   -2.7660 N   0  0  0  0  0  0  0  0  0  0  0  0
    6.7595   -1.3896   -3.2435 C   0  0  0  0  0  0  0  0  0  0  0  0
    6.5641   -0.2312   -2.5827 C   0  0  0  0  0  0  0  0  0  0  0  0
    5.3005    0.4841   -2.5227 C   0  0  0  0  0  0  0  0  0  0  0  0
    3.5271    1.2576   -1.9281 H   0  0  0  0  0  0  0  0  0  0  0  0
    3.1935    0.3415    0.0947 H   0  0  0  0  0  0  0  0  0  0  0  0
    2.8831   -1.9120    0.5321 H   0  0  0  0  0  0  0  0  0  0  0  0
    5.0685   -3.6812   -2.2092 H   0  0  0  0  0  0  0  0  0  0  0  0
    6.6098   -2.3669    1.2179 H   0  0  0  0  0  0  0  0  0  0  0  0
    5.8867   -0.9650    0.4555 H   0  0  0  0  0  0  0  0  0  0  0  0
    8.8264   -1.7160    0.2042 H   0  0  0  0  0  0  0  0  0  0  0  0
    8.1333   -0.4424    1.2162 H   0  0  0  0  0  0  0  0  0  0  0  0
    8.0697   -0.2959   -0.5264 H   0  0  0  0  0  0  0  0  0  0  0  0
    6.9979   -1.2673   -4.3028 H   0  0  0  0  0  0  0  0  0  0  0  0
    7.3603    0.4982   -2.7882 H   0  0  0  0  0  0  0  0  0  0  0  0
    5.3320    1.3551   -3.1830 H   0  0  0  0  0  0  0  0  0  0  0  0
  1  2  1  0  0  0  0
  1 13  2  3  0  0  0
  1 14  1  0  0  0  0
  2  3  2  3  0  0  0
  2 15  1  0  0  0  0
  3  4  1  0  0  0  0
  3 16  1  0  0  0  0
  4  5  1  0  0  0  0
  5  6  2  3  0  0  0
  5 17  1  0  0  0  0
  6  7  1  0  0  0  0
  6  9  1  0  0  0  0
  7  8  1  0  0  0  0
  7 18  1  0  0  0  0
  7 19  1  0  0  0  0
  8 20  1  0  0  0  0
  8 21  1  0  0  0  0
  8 22  1  0  0  0  0
  9 10  2  3  0  0  0
 10 11  1  0  0  0  0
 11 12  2  3  0  0  0
 11 23  1  0  0  0  0
 12 13  1  0  0  0  0
 12 24  1  0  0  0  0
 13 25  1  0  0  0  0
M  END
$$$$
