
 OpenBabel04232216423D

 21 23  0  0  0  0  0  0  0  0999 V2000
   -2.1321    4.6196    5.4417 C   0  0  0  0  0  0  0  0  0  0  0  0
   -1.1401    5.2294    6.1497 C   0  0  0  0  0  0  0  0  0  0  0  0
    0.1737    4.5067    6.3040 C   0  0  0  0  0  0  0  0  0  0  0  0
    0.2116    3.4111    6.8763 O   0  0  0  0  0  0  0  0  0  0  0  0
    1.2684    5.1028    5.6588 N   0  0  0  0  0  0  0  0  0  0  0  0
    1.8749    6.1480    6.4961 C   0  0  0  0  0  0  0  0  0  0  0  0
    2.2981    4.1143    5.1785 N   0  0  0  0  0  0  0  0  0  0  0  0
    3.5476    4.2077    5.7638 N   0  0  0  0  0  0  0  0  0  0  0  0
    4.2304    3.2353    5.3784 N   0  0  0  0  0  0  0  0  0  0  0  0
    5.0337    3.6265    4.3209 N   0  0  0  0  0  0  0  0  0  0  0  0
    4.4609    3.8582    3.2309 N   0  0  0  0  0  0  0  0  0  0  0  0
    3.1651    3.3653    3.0033 N   0  0  0  0  0  0  0  0  0  0  0  0
    2.1887    3.5654    3.8491 C   0  0  0  0  0  0  0  0  0  0  0  0
    0.9807    2.8369    3.2989 C   0  0  0  0  0  0  0  0  0  0  0  0
   -0.2904    2.4414    3.2868 N   0  0  0  0  0  0  0  0  0  0  0  0
   -0.0569    3.4311    4.0131 N   0  0  0  0  0  0  0  0  0  0  0  0
   -2.2698    3.6310    5.0015 H   0  0  0  0  0  0  0  0  0  0  0  0
   -1.2898    6.1414    6.7067 H   0  0  0  0  0  0  0  0  0  0  0  0
    1.0958    6.8066    6.8882 H   0  0  0  0  0  0  0  0  0  0  0  0
    2.5872    6.7313    5.9136 H   0  0  0  0  0  0  0  0  0  0  0  0
    2.3618    5.6877    7.3656 H   0  0  0  0  0  0  0  0  0  0  0  0
  1  2  2  0  0  0  0
  1 16  1  0  0  0  0
  1 17  1  0  0  0  0
  2  3  1  0  0  0  0
  2 18  1  0  0  0  0
  3  4  2  0  0  0  0
  3  5  1  0  0  0  0
  5  6  1  0  0  0  0
  5  7  1  0  0  0  0
  6 19  1  0  0  0  0
  6 20  1  0  0  0  0
  6 21  1  0  0  0  0
  7  8  1  0  0  0  0
  7 13  1  0  0  0  0
  8  9  2  0  0  0  0
  9 10  1  0  0  0  0
 10 11  2  0  0  0  0
 11 12  1  0  0  0  0
 12 13  2  0  0  0  0
 13 14  1  0  0  0  0
 14 15  2  0  0  0  0
 14 16  1  0  0  0  0
 15 16  1  0  0  0  0
M  END
$$$$
