
 OpenBabel04232216433D

 62 64  0  0  0  0  0  0  0  0999 V2000
    5.7400   -0.4752    1.1651 C   0  0  0  0  0  0  0  0  0  0  0  0
    4.4005   -0.8816    1.7189 C   0  0  0  0  0  0  0  0  0  0  0  0
    3.8433   -0.4202    2.8347 C   0  0  0  0  0  0  0  0  0  0  0  0
    4.4956    0.4835    3.7389 C   0  0  0  0  0  0  0  0  0  0  0  0
    4.6743    1.7994    3.5323 C   0  0  0  0  0  0  0  0  0  0  0  0
    4.3419    2.4847    2.2998 C   0  0  0  0  0  0  0  0  0  0  0  0
    5.1218    2.8846    1.2510 C   0  0  0  0  0  0  0  0  0  0  0  0
    4.3183    3.4494    0.0610 C   0  0  0  0  0  0  0  0  0  0  0  0
    3.0920    2.6096   -0.4933 C   0  0  0  0  0  0  0  0  0  0  0  0
    3.2665    2.0698   -1.9292 C   0  0  0  0  0  0  0  0  0  0  0  0
    4.2163    0.8995   -1.8845 C   0  0  0  0  0  0  0  0  0  0  0  0
    5.3135    0.8932   -2.9404 C   0  0  0  0  0  0  0  0  0  0  0  0
    6.4691    0.1671   -2.2926 C   0  0  0  0  0  0  0  0  0  0  0  0
    7.8420    0.4408   -2.7630 C   0  0  0  0  0  0  0  0  0  0  0  0
    8.2113    0.6992   -4.0243 C   0  0  0  0  0  0  0  0  0  0  0  0
    9.5326    0.3981   -4.5290 C   0  0  0  0  0  0  0  0  0  0  0  0
   10.0505   -0.8416   -4.4374 C   0  0  0  0  0  0  0  0  0  0  0  0
    9.4523   -1.9236   -3.6731 C   0  0  0  0  0  0  0  0  0  0  0  0
    9.2538   -1.8777   -2.3330 C   0  0  0  0  0  0  0  0  0  0  0  0
    9.5441   -0.8102   -1.4735 N   0  0  0  0  0  0  0  0  0  0  0  0
    8.8817    0.2865   -1.6897 C   0  0  0  0  0  0  0  0  0  0  0  0
    8.9999    1.5068   -0.9900 N   0  0  0  0  0  0  0  0  0  0  0  0
    8.0266    1.7515   -0.1511 C   0  0  0  0  0  0  0  0  0  0  0  0
    7.6989    2.9503    0.4615 N   0  0  0  0  0  0  0  0  0  0  0  0
    6.7140    2.9943    1.3481 C   0  0  0  0  0  0  0  0  0  0  0  0
    7.0711    3.3623    2.7825 C   0  0  0  0  0  0  0  0  0  0  0  0
    8.0767    2.8248    3.4740 C   0  0  0  0  0  0  0  0  0  0  0  0
    9.1406    2.0349    2.9358 C   0  0  0  0  0  0  0  0  0  0  0  0
    9.1400    0.7587    2.5452 C   0  0  0  0  0  0  0  0  0  0  0  0
    8.1401   -0.3110    2.6697 C   0  0  0  0  0  0  0  0  0  0  0  0
    6.9890   -0.5061    2.0274 C   0  0  0  0  0  0  0  0  0  0  0  0
    5.5486    0.5114    0.7262 H   0  0  0  0  0  0  0  0  0  0  0  0
    5.9315   -1.1067    0.3122 H   0  0  0  0  0  0  0  0  0  0  0  0
    3.7780   -1.4467    1.0235 H   0  0  0  0  0  0  0  0  0  0  0  0
    2.8156   -0.6787    3.0615 H   0  0  0  0  0  0  0  0  0  0  0  0
    4.8607    0.0208    4.6558 H   0  0  0  0  0  0  0  0  0  0  0  0
    5.0412    2.3898    4.3700 H   0  0  0  0  0  0  0  0  0  0  0  0
    3.2598    2.6135    2.2221 H   0  0  0  0  0  0  0  0  0  0  0  0
    4.9678    3.7872   -0.7488 H   0  0  0  0  0  0  0  0  0  0  0  0
    3.8469    4.3628    0.4602 H   0  0  0  0  0  0  0  0  0  0  0  0
    2.8482    1.7631    0.1650 H   0  0  0  0  0  0  0  0  0  0  0  0
    2.1969    3.2437   -0.5003 H   0  0  0  0  0  0  0  0  0  0  0  0
    3.6149    2.8673   -2.5913 H   0  0  0  0  0  0  0  0  0  0  0  0
    2.3088    1.7104   -2.3251 H   0  0  0  0  0  0  0  0  0  0  0  0
    3.7003   -0.0667   -1.8479 H   0  0  0  0  0  0  0  0  0  0  0  0
    4.6894    0.9849   -0.9140 H   0  0  0  0  0  0  0  0  0  0  0  0
    5.6149    1.9143   -3.1970 H   0  0  0  0  0  0  0  0  0  0  0  0
    5.0016    0.3760   -3.8514 H   0  0  0  0  0  0  0  0  0  0  0  0
    6.2867   -0.9119   -2.2118 H   0  0  0  0  0  0  0  0  0  0  0  0
    6.4454    0.4917   -1.2723 H   0  0  0  0  0  0  0  0  0  0  0  0
    7.4652    0.9260   -4.7712 H   0  0  0  0  0  0  0  0  0  0  0  0
   10.0512    1.1780   -5.0740 H   0  0  0  0  0  0  0  0  0  0  0  0
   10.9766   -1.0840   -4.9500 H   0  0  0  0  0  0  0  0  0  0  0  0
    9.1292   -2.7903   -4.2519 H   0  0  0  0  0  0  0  0  0  0  0  0
    8.7871   -2.7516   -1.8724 H   0  0  0  0  0  0  0  0  0  0  0  0
    7.4321    0.9007    0.1201 H   0  0  0  0  0  0  0  0  0  0  0  0
    6.3621    4.0139    3.2895 H   0  0  0  0  0  0  0  0  0  0  0  0
    8.1635    3.0570    4.5487 H   0  0  0  0  0  0  0  0  0  0  0  0
   10.0573    2.6197    2.7845 H   0  0  0  0  0  0  0  0  0  0  0  0
   10.0672    0.4326    2.0543 H   0  0  0  0  0  0  0  0  0  0  0  0
    8.5824   -1.2059    3.0914 H   0  0  0  0  0  0  0  0  0  0  0  0
    6.8407    0.6071    2.0340 H   0  0  0  0  0  0  0  0  0  0  0  0
  1  2  1  0  0  0  0
  1 31  1  0  0  0  0
  1 32  1  0  0  0  0
  1 33  1  0  0  0  0
  2  3  2  3  0  0  0
  2 34  1  0  0  0  0
  3  4  1  0  0  0  0
  3 35  1  0  0  0  0
  4  5  2  3  0  0  0
  4 36  1  0  0  0  0
  5  6  1  0  0  0  0
  5 37  1  0  0  0  0
  6  7  2  3  0  0  0
  6 38  1  0  0  0  0
  7  8  1  0  0  0  0
  7 25  1  0  0  0  0
  8  9  1  0  0  0  0
  8 39  1  0  0  0  0
  8 40  1  0  0  0  0
  9 10  1  0  0  0  0
  9 41  1  0  0  0  0
  9 42  1  0  0  0  0
 10 11  1  0  0  0  0
 10 43  1  0  0  0  0
 10 44  1  0  0  0  0
 11 12  1  0  0  0  0
 11 45  1  0  0  0  0
 11 46  1  0  0  0  0
 12 13  1  0  0  0  0
 12 47  1  0  0  0  0
 12 48  1  0  0  0  0
 13 14  1  0  0  0  0
 13 49  1  0  0  0  0
 13 50  1  0  0  0  0
 14 15  2  0  0  0  0
 14 21  1  0  0  0  0
 15 16  1  0  0  0  0
 15 51  1  0  0  0  0
 16 17  2  0  0  0  0
 16 52  1  0  0  0  0
 17 18  1  0  0  0  0
 17 53  1  0  0  0  0
 18 19  2  0  0  0  0
 18 54  1  0  0  0  0
 19 20  1  0  0  0  0
 19 55  1  0  0  0  0
 20 21  2  0  0  0  0
 21 22  1  0  0  0  0
 22 23  2  3  0  0  0
 23 24  1  0  0  0  0
 23 56  1  0  0  0  0
 24 25  2  3  0  0  0
 25 26  1  0  0  0  0
 26 27  2  3  0  0  0
 26 57  1  0  0  0  0
 27 28  1  0  0  0  0
 27 58  1  0  0  0  0
 28 29  2  3  0  0  0
 28 59  1  0  0  0  0
 29 30  1  0  0  0  0
 29 60  1  0  0  0  0
 30 31  2  3  0  0  0
 30 61  1  0  0  0  0
 31 62  1  0  0  0  0
M  END
$$$$
