
 OpenBabel04232216433D

 65 67  0  0  1  0  0  0  0  0999 V2000
    2.8925   -0.7546   -6.2906 C   0  0  0  0  0  0  0  0  0  0  0  0
    3.0303   -1.3573   -4.7976 C   0  0  3  0  0  0  0  0  0  0  0  0
    2.1034   -1.9765   -3.4857 C   0  0  0  0  0  0  0  0  0  0  0  0
    1.9947   -3.6699   -2.8672 C   0  0  0  0  0  0  0  0  0  0  0  0
    0.9849   -5.1743   -3.0430 C   0  0  0  0  0  0  0  0  0  0  0  0
    1.4015   -6.6685   -3.8457 C   0  0  0  0  0  0  0  0  0  0  0  0
    2.6834   -6.4613   -4.1653 C   0  0  0  0  0  0  0  0  0  0  0  0
    3.7503   -6.9577   -3.2891 C   0  0  0  0  0  0  0  0  0  0  0  0
    4.6212   -7.6689   -3.9771 C   0  0  0  0  0  0  0  0  0  0  0  0
    4.0625   -9.0085   -4.3039 C   0  0  0  0  0  0  0  0  0  0  0  0
    5.0650  -10.0163   -4.3735 N   0  0  0  0  0  0  0  0  0  0  0  0
    4.3434  -11.2772   -4.1776 C   0  0  0  0  0  0  0  0  0  0  0  0
    4.0920  -11.8795   -5.5232 C   0  0  0  0  0  0  0  0  0  0  0  0
    3.1346  -13.0140   -5.2902 C   0  0  0  0  0  0  0  0  0  0  0  0
    1.7129  -12.5573   -5.6794 C   0  0  0  0  0  0  0  0  0  0  0  0
    0.9048  -11.4380   -4.7770 C   0  0  0  0  0  0  0  0  0  0  0  0
    0.9093   -9.7029   -4.9335 C   0  0  0  0  0  0  0  0  0  0  0  0
    0.8317   -8.3587   -3.6954 C   0  0  0  0  0  0  0  0  0  0  0  0
    3.4956   -2.6262   -5.2023 C   0  0  0  0  0  0  0  0  0  0  0  0
    4.3604   -3.5734   -5.0777 C   0  0  0  0  0  0  0  0  0  0  0  0
    5.2449   -2.9340   -4.0175 C   0  0  0  0  0  0  0  0  0  0  0  0
    3.0114   -3.6750   -5.8499 N   0  0  0  0  0  0  0  0  0  0  0  0
    1.5547   -3.2960   -6.1108 C   0  0  0  0  0  0  0  0  0  0  0  0
    1.0764   -3.7424   -7.3241 C   0  0  0  0  0  0  0  0  0  0  0  0
    0.0963   -2.9997   -8.0165 C   0  0  0  0  0  0  0  0  0  0  0  0
   -0.4517   -1.8432   -7.4677 C   0  0  0  0  0  0  0  0  0  0  0  0
   -0.1223   -1.5873   -6.1651 C   0  0  0  0  0  0  0  0  0  0  0  0
    0.7867   -2.3348   -5.4987 N   0  0  0  0  0  0  0  0  0  0  0  0
    1.9456   -0.3188   -6.5983 H   0  0  0  0  0  0  0  0  0  0  0  0
    3.1687   -1.4738   -7.0998 H   0  0  0  0  0  0  0  0  0  0  0  0
    3.6594    0.0126   -6.4781 H   0  0  0  0  0  0  0  0  0  0  0  0
    3.7414   -0.6508   -4.3456 H   0  0  0  0  0  0  0  0  0  0  0  0
    1.1580   -1.4406   -3.3469 H   0  0  0  0  0  0  0  0  0  0  0  0
    2.7185   -1.5548   -2.6637 H   0  0  0  0  0  0  0  0  0  0  0  0
    1.7003   -3.4023   -1.8352 H   0  0  0  0  0  0  0  0  0  0  0  0
    3.0226   -4.0186   -2.7247 H   0  0  0  0  0  0  0  0  0  0  0  0
   -0.0509   -4.8881   -3.2315 H   0  0  0  0  0  0  0  0  0  0  0  0
    1.0191   -5.5245   -1.9898 H   0  0  0  0  0  0  0  0  0  0  0  0
    2.9838   -5.4401   -4.4315 H   0  0  0  0  0  0  0  0  0  0  0  0
    3.3460   -7.3523   -2.3492 H   0  0  0  0  0  0  0  0  0  0  0  0
    5.0824   -7.3046   -4.8260 H   0  0  0  0  0  0  0  0  0  0  0  0
    3.4990   -8.9244   -5.2398 H   0  0  0  0  0  0  0  0  0  0  0  0
    3.3298   -9.2434   -3.4930 H   0  0  0  0  0  0  0  0  0  0  0  0
    5.6832   -9.8860   -3.6216 H   0  0  0  0  0  0  0  0  0  0  0  0
    3.3907  -11.1569   -3.6302 H   0  0  0  0  0  0  0  0  0  0  0  0
    4.9502  -11.9347   -3.5452 H   0  0  0  0  0  0  0  0  0  0  0  0
    5.0407  -12.2086   -5.9653 H   0  0  0  0  0  0  0  0  0  0  0  0
    3.6541  -11.1618   -6.2323 H   0  0  0  0  0  0  0  0  0  0  0  0
    3.1549  -13.3765   -4.2518 H   0  0  0  0  0  0  0  0  0  0  0  0
    3.4799  -13.8739   -5.8873 H   0  0  0  0  0  0  0  0  0  0  0  0
    1.1446  -13.5077   -5.6340 H   0  0  0  0  0  0  0  0  0  0  0  0
    1.7108  -12.3030   -6.7480 H   0  0  0  0  0  0  0  0  0  0  0  0
   -0.1110  -11.6977   -5.1337 H   0  0  0  0  0  0  0  0  0  0  0  0
    0.9275  -11.7671   -3.7343 H   0  0  0  0  0  0  0  0  0  0  0  0
    1.5771   -9.4386   -5.7522 H   0  0  0  0  0  0  0  0  0  0  0  0
   -0.1047   -9.5925   -5.3509 H   0  0  0  0  0  0  0  0  0  0  0  0
    1.2775   -8.7770   -2.7810 H   0  0  0  0  0  0  0  0  0  0  0  0
   -0.2469   -8.2717   -3.5016 H   0  0  0  0  0  0  0  0  0  0  0  0
    6.2682   -3.2871   -4.1327 H   0  0  0  0  0  0  0  0  0  0  0  0
    4.9367   -3.1625   -2.9894 H   0  0  0  0  0  0  0  0  0  0  0  0
    5.3618   -1.8362   -4.0603 H   0  0  0  0  0  0  0  0  0  0  0  0
    1.5770   -4.5631   -7.8147 H   0  0  0  0  0  0  0  0  0  0  0  0
   -0.1329   -3.2761   -9.0387 H   0  0  0  0  0  0  0  0  0  0  0  0
   -1.0421   -1.1382   -8.0491 H   0  0  0  0  0  0  0  0  0  0  0  0
   -0.4536   -0.6734   -5.6654 H   0  0  0  0  0  0  0  0  0  0  0  0
  1  2  1  0  0  0  0
  1 29  1  0  0  0  0
  1 30  1  0  0  0  0
  1 31  1  0  0  0  0
  2  3  1  0  0  0  0
  2 19  1  0  0  0  0
  2 32  1  0  0  0  0
  3  4  1  0  0  0  0
  3 33  1  0  0  0  0
  3 34  1  0  0  0  0
  4  5  1  0  0  0  0
  4 35  1  0  0  0  0
  4 36  1  0  0  0  0
  5  6  1  0  0  0  0
  5 37  1  0  0  0  0
  5 38  1  0  0  0  0
  6  7  2  3  0  0  0
  6 18  1  0  0  0  0
  7  8  1  0  0  0  0
  7 39  1  0  0  0  0
  8  9  2  3  0  0  0
  8 40  1  0  0  0  0
  9 10  1  0  0  0  0
  9 41  1  0  0  0  0
 10 11  1  0  0  0  0
 10 42  1  0  0  0  0
 10 43  1  0  0  0  0
 11 12  1  0  0  0  0
 11 44  1  0  0  0  0
 12 13  1  0  0  0  0
 12 45  1  0  0  0  0
 12 46  1  0  0  0  0
 13 14  1  0  0  0  0
 13 47  1  0  0  0  0
 13 48  1  0  0  0  0
 14 15  1  0  0  0  0
 14 49  1  0  0  0  0
 14 50  1  0  0  0  0
 15 16  1  0  0  0  0
 15 51  1  0  0  0  0
 15 52  1  0  0  0  0
 16 17  1  0  0  0  0
 16 53  1  0  0  0  0
 16 54  1  0  0  0  0
 17 18  1  0  0  0  0
 17 55  1  0  0  0  0
 17 56  1  0  0  0  0
 18 57  1  0  0  0  0
 18 58  1  0  0  0  0
 19 20  2  0  0  0  0
 19 22  1  0  0  0  0
 20 21  1  0  0  0  0
 20 22  1  0  0  0  0
 21 59  1  0  0  0  0
 21 60  1  0  0  0  0
 21 61  1  0  0  0  0
 22 23  1  0  0  0  0
 23 24  1  0  0  0  0
 23 28  2  0  0  0  0
 24 25  2  0  0  0  0
 24 62  1  0  0  0  0
 25 26  1  0  0  0  0
 25 63  1  0  0  0  0
 26 27  2  0  0  0  0
 26 64  1  0  0  0  0
 27 28  1  0  0  0  0
 27 65  1  0  0  0  0
M  END
$$$$
