
 OpenBabel04232216463D

 56 57  0  0  0  0  0  0  0  0999 V2000
    1.9194   -1.9059    0.1550 C   0  0  0  0  0  0  0  0  0  0  0  0
    3.3512   -2.0210   -0.3386 C   0  0  0  0  0  0  0  0  0  0  0  0
    3.8863   -0.7988   -1.0816 C   0  0  0  0  0  0  0  0  0  0  0  0
    4.9242   -0.0331   -0.6484 C   0  0  0  0  0  0  0  0  0  0  0  0
    5.5815   -0.3848    0.6688 C   0  0  0  0  0  0  0  0  0  0  0  0
    5.5244    0.7113    1.7234 C   0  0  0  0  0  0  0  0  0  0  0  0
    5.4504    1.0878   -1.4968 C   0  0  0  0  0  0  0  0  0  0  0  0
    6.6426    1.7608   -1.4841 C   0  0  0  0  0  0  0  0  0  0  0  0
    7.7888    1.6379   -0.5045 C   0  0  0  0  0  0  0  0  0  0  0  0
    7.0750    2.7268   -2.5797 C   0  0  0  0  0  0  0  0  0  0  0  0
    6.6093    3.9894   -2.4220 C   0  0  0  0  0  0  0  0  0  0  0  0
    6.9196    5.2286   -3.1156 C   0  0  0  0  0  0  0  0  0  0  0  0
    7.9417    5.5183   -3.9244 C   0  0  0  0  0  0  0  0  0  0  0  0
    8.9846    4.6500   -4.3672 C   0  0  0  0  0  0  0  0  0  0  0  0
    9.0559    3.3213   -4.2451 C   0  0  0  0  0  0  0  0  0  0  0  0
    8.1350    2.3639   -3.6111 C   0  0  0  0  0  0  0  0  0  0  0  0
    8.4795    1.0830   -3.9203 C   0  0  0  0  0  0  0  0  0  0  0  0
    7.9146   -0.1352   -3.4159 C   0  0  0  0  0  0  0  0  0  0  0  0
    8.6395   -1.2069   -3.0521 C   0  0  0  0  0  0  0  0  0  0  0  0
    8.0040   -2.1573   -2.1697 C   0  0  0  0  0  0  0  0  0  0  0  0
    8.4480   -3.3401   -1.7153 C   0  0  0  0  0  0  0  0  0  0  0  0
    7.6321   -3.9369   -0.6905 C   0  0  0  0  0  0  0  0  0  0  0  0
    7.6440   -5.1390   -0.0979 C   0  0  0  0  0  0  0  0  0  0  0  0
    6.5055   -5.3267    0.7890 C   0  0  0  0  0  0  0  0  0  0  0  0
    5.3308   -5.6773    0.2434 C   0  0  0  0  0  0  0  0  0  0  0  0
    4.0643   -5.2006    0.8386 C   0  0  0  0  0  0  0  0  0  0  0  0
    3.4479   -4.0584    0.6744 N   0  0  0  0  0  0  0  0  0  0  0  0
    4.0847   -3.0907   -0.1378 N   0  0  0  0  0  0  0  0  0  0  0  0
    1.4536   -0.9764   -0.1829 H   0  0  0  0  0  0  0  0  0  0  0  0
    1.9075   -1.9216    1.2493 H   0  0  0  0  0  0  0  0  0  0  0  0
    1.3241   -2.7437   -0.2228 H   0  0  0  0  0  0  0  0  0  0  0  0
    3.3476   -0.5774   -1.9988 H   0  0  0  0  0  0  0  0  0  0  0  0
    6.5993   -0.7308    0.4772 H   0  0  0  0  0  0  0  0  0  0  0  0
    5.1128   -1.2503    1.1440 H   0  0  0  0  0  0  0  0  0  0  0  0
    5.8301    1.6908    1.3503 H   0  0  0  0  0  0  0  0  0  0  0  0
    6.1876    0.4439    2.5524 H   0  0  0  0  0  0  0  0  0  0  0  0
    4.5097    0.8112    2.1214 H   0  0  0  0  0  0  0  0  0  0  0  0
    4.7787    1.3446   -2.3233 H   0  0  0  0  0  0  0  0  0  0  0  0
    7.7065    0.8177    0.1934 H   0  0  0  0  0  0  0  0  0  0  0  0
    7.8752    2.5587    0.0813 H   0  0  0  0  0  0  0  0  0  0  0  0
    8.7402    1.4764   -1.0180 H   0  0  0  0  0  0  0  0  0  0  0  0
    5.9070    4.1738   -1.6065 H   0  0  0  0  0  0  0  0  0  0  0  0
    6.2634    6.0572   -2.8555 H   0  0  0  0  0  0  0  0  0  0  0  0
    8.0341    6.5419   -4.2878 H   0  0  0  0  0  0  0  0  0  0  0  0
    9.8033    5.1474   -4.8890 H   0  0  0  0  0  0  0  0  0  0  0  0
    9.9583    2.8868   -4.6807 H   0  0  0  0  0  0  0  0  0  0  0  0
    9.3243    0.8898   -4.5814 H   0  0  0  0  0  0  0  0  0  0  0  0
    6.8539   -0.1186   -3.2060 H   0  0  0  0  0  0  0  0  0  0  0  0
    9.7039   -1.2875   -3.2215 H   0  0  0  0  0  0  0  0  0  0  0  0
    7.0717   -1.7784   -1.7471 H   0  0  0  0  0  0  0  0  0  0  0  0
    9.3511   -3.8198   -2.0717 H   0  0  0  0  0  0  0  0  0  0  0  0
    6.8385   -3.2681   -0.3421 H   0  0  0  0  0  0  0  0  0  0  0  0
    8.3381   -5.9355   -0.3225 H   0  0  0  0  0  0  0  0  0  0  0  0
    6.5494   -4.7840    1.7320 H   0  0  0  0  0  0  0  0  0  0  0  0
    5.2548   -6.1377   -0.7336 H   0  0  0  0  0  0  0  0  0  0  0  0
    3.5514   -5.9472    1.4597 H   0  0  0  0  0  0  0  0  0  0  0  0
  1  2  1  0  0  0  0
  1 29  1  0  0  0  0
  1 30  1  0  0  0  0
  1 31  1  0  0  0  0
  2  3  1  0  0  0  0
  2 28  2  3  0  0  0
  3  4  2  3  0  0  0
  3 32  1  0  0  0  0
  4  5  1  0  0  0  0
  4  7  1  0  0  0  0
  5  6  1  0  0  0  0
  5 33  1  0  0  0  0
  5 34  1  0  0  0  0
  6 35  1  0  0  0  0
  6 36  1  0  0  0  0
  6 37  1  0  0  0  0
  7  8  2  3  0  0  0
  7 38  1  0  0  0  0
  8  9  1  0  0  0  0
  8 10  1  0  0  0  0
  9 39  1  0  0  0  0
  9 40  1  0  0  0  0
  9 41  1  0  0  0  0
 10 11  2  0  0  0  0
 10 16  1  0  0  0  0
 11 12  1  0  0  0  0
 11 42  1  0  0  0  0
 12 13  2  0  0  0  0
 12 43  1  0  0  0  0
 13 14  1  0  0  0  0
 13 44  1  0  0  0  0
 14 15  2  0  0  0  0
 14 45  1  0  0  0  0
 15 16  1  0  0  0  0
 15 46  1  0  0  0  0
 16 17  2  3  0  0  0
 17 18  1  0  0  0  0
 17 47  1  0  0  0  0
 18 19  2  3  0  0  0
 18 48  1  0  0  0  0
 19 20  1  0  0  0  0
 19 49  1  0  0  0  0
 20 21  2  3  0  0  0
 20 50  1  0  0  0  0
 21 22  1  0  0  0  0
 21 51  1  0  0  0  0
 22 23  2  3  0  0  0
 22 52  1  0  0  0  0
 23 24  1  0  0  0  0
 23 53  1  0  0  0  0
 24 25  2  3  0  0  0
 24 54  1  0  0  0  0
 25 26  1  0  0  0  0
 25 55  1  0  0  0  0
 26 27  2  3  0  0  0
 26 56  1  0  0  0  0
 27 28  1  0  0  0  0
M  END
$$$$
