
 OpenBabel04232216443D

 41 42  0  0  0  0  0  0  0  0999 V2000
    4.0087    1.3186    2.8330 C   0  0  0  0  0  0  0  0  0  0  0  0
    4.8566    0.0552    2.7600 C   0  0  0  0  0  0  0  0  0  0  0  0
    4.1578   -0.8101    1.8607 C   0  0  0  0  0  0  0  0  0  0  0  0
    2.6808   -1.2084    1.9249 C   0  0  0  0  0  0  0  0  0  0  0  0
    4.7663   -0.9782    0.6892 C   0  0  0  0  0  0  0  0  0  0  0  0
    5.5263    0.0941   -0.0743 C   0  0  0  0  0  0  0  0  0  0  0  0
    6.1568    0.9836   -0.7078 N   0  0  0  0  0  0  0  0  0  0  0  0
    5.2367   -2.4411    0.5934 C   0  0  0  0  0  0  0  0  0  0  0  0
    4.4015   -3.5027    1.2939 C   0  0  0  0  0  0  0  0  0  0  0  0
    6.5200   -2.7616    0.2920 C   0  0  0  0  0  0  0  0  0  0  0  0
    7.5474   -1.8249   -0.3617 C   0  0  0  0  0  0  0  0  0  0  0  0
    7.2449   -3.7866    1.1482 C   0  0  0  0  0  0  0  0  0  0  0  0
    6.7262   -4.8969    2.1079 C   0  0  0  0  0  0  0  0  0  0  0  0
    8.4592   -3.3522    1.2989 N   0  0  0  0  0  0  0  0  0  0  0  0
    8.7729   -3.1544    2.5667 C   0  0  0  0  0  0  0  0  0  0  0  0
    9.7145   -3.8854    3.2011 C   0  0  0  0  0  0  0  0  0  0  0  0
    9.8476   -3.4090    4.5462 C   0  0  0  0  0  0  0  0  0  0  0  0
    8.9795   -2.3966    4.7548 C   0  0  0  0  0  0  0  0  0  0  0  0
    8.1514   -2.1321    3.5179 C   0  0  0  0  0  0  0  0  0  0  0  0
    7.2037   -1.1355    3.6568 C   0  0  0  0  0  0  0  0  0  0  0  0
    6.0990   -0.1477    3.3068 C   0  0  0  0  0  0  0  0  0  0  0  0
    3.0239    1.0981    3.2782 H   0  0  0  0  0  0  0  0  0  0  0  0
    3.7971    1.6824    1.8136 H   0  0  0  0  0  0  0  0  0  0  0  0
    4.4604    2.1232    3.3949 H   0  0  0  0  0  0  0  0  0  0  0  0
    2.0039   -0.3503    1.8911 H   0  0  0  0  0  0  0  0  0  0  0  0
    2.4497   -1.8267    2.7978 H   0  0  0  0  0  0  0  0  0  0  0  0
    2.3727   -1.7796    1.0328 H   0  0  0  0  0  0  0  0  0  0  0  0
    3.3250   -3.4282    1.1959 H   0  0  0  0  0  0  0  0  0  0  0  0
    4.6294   -3.5214    2.3701 H   0  0  0  0  0  0  0  0  0  0  0  0
    4.5774   -4.4703    0.8210 H   0  0  0  0  0  0  0  0  0  0  0  0
    7.1445   -1.3252   -1.2359 H   0  0  0  0  0  0  0  0  0  0  0  0
    8.4183   -2.3701   -0.7549 H   0  0  0  0  0  0  0  0  0  0  0  0
    7.9290   -1.0851    0.3704 H   0  0  0  0  0  0  0  0  0  0  0  0
    5.7910   -5.3949    1.8776 H   0  0  0  0  0  0  0  0  0  0  0  0
    6.6559   -4.5148    3.1351 H   0  0  0  0  0  0  0  0  0  0  0  0
    7.4601   -5.7139    2.1276 H   0  0  0  0  0  0  0  0  0  0  0  0
   10.2689   -4.7065    2.7600 H   0  0  0  0  0  0  0  0  0  0  0  0
   10.5817   -3.8144    5.2267 H   0  0  0  0  0  0  0  0  0  0  0  0
    8.9330   -1.8392    5.6551 H   0  0  0  0  0  0  0  0  0  0  0  0
    7.3256   -0.7792    4.6870 H   0  0  0  0  0  0  0  0  0  0  0  0
    6.4119    0.7804    3.8061 H   0  0  0  0  0  0  0  0  0  0  0  0
  1  2  1  0  0  0  0
  1 22  1  0  0  0  0
  1 23  1  0  0  0  0
  1 24  1  0  0  0  0
  2  3  1  0  0  0  0
  2 21  2  0  0  0  0
  3  4  1  0  0  0  0
  3  5  2  0  0  0  0
  4 25  1  0  0  0  0
  4 26  1  0  0  0  0
  4 27  1  0  0  0  0
  5  6  1  0  0  0  0
  5  8  1  0  0  0  0
  6  7  3  0  0  0  0
  8  9  1  0  0  0  0
  8 10  2  0  0  0  0
  9 28  1  0  0  0  0
  9 29  1  0  0  0  0
  9 30  1  0  0  0  0
 10 11  1  0  0  0  0
 10 12  1  0  0  0  0
 11 31  1  0  0  0  0
 11 32  1  0  0  0  0
 11 33  1  0  0  0  0
 12 13  1  0  0  0  0
 12 14  2  0  0  0  0
 13 34  1  0  0  0  0
 13 35  1  0  0  0  0
 13 36  1  0  0  0  0
 14 15  1  0  0  0  0
 15 16  2  0  0  0  0
 15 19  1  0  0  0  0
 16 17  1  0  0  0  0
 16 37  1  0  0  0  0
 17 18  2  0  0  0  0
 17 38  1  0  0  0  0
 18 19  1  0  0  0  0
 18 39  1  0  0  0  0
 19 20  2  0  0  0  0
 20 21  1  0  0  0  0
 20 40  1  0  0  0  0
 21 41  1  0  0  0  0
M  END
$$$$
