
 OpenBabel04232216523D

 34 34  0  0  1  0  0  0  0  0999 V2000
    1.1810    0.4351   -2.3946 C   0  0  0  0  0  0  0  0  0  0  0  0
    2.6684    0.3145   -2.1030 C   0  0  0  0  0  0  0  0  0  0  0  0
    2.9499   -0.7357   -1.0268 C   0  0  0  0  0  0  0  0  0  0  0  0
    4.4054   -0.8692   -0.7355 C   0  0  3  0  0  3  0  0  0  0  0  0
    5.2529    0.2509   -0.2188 C   0  0  0  0  0  0  0  0  0  0  0  0
    6.6696   -0.3434   -0.0962 C   0  0  3  0  0  0  0  0  0  0  0  0
    7.6227    0.1536   -1.1991 C   0  0  0  0  0  0  0  0  0  0  0  0
    7.2001   -0.1698   -2.6280 C   0  0  0  0  0  0  0  0  0  0  0  0
    6.4520   -1.8361   -0.1013 C   0  0  3  0  0  3  0  0  0  0  0  0
    7.5463   -2.8500   -0.1370 C   0  0  0  0  0  0  0  0  0  0  0  0
    8.5485   -2.7110    0.9966 C   0  0  0  0  0  0  0  0  0  0  0  0
    5.0600   -2.1873   -0.5146 C   0  0  0  0  0  0  0  0  0  0  0  0
    1.0082    1.1868   -3.1711 H   0  0  0  0  0  0  0  0  0  0  0  0
    0.6304    0.7408   -1.4983 H   0  0  0  0  0  0  0  0  0  0  0  0
    0.7687   -0.5165   -2.7437 H   0  0  0  0  0  0  0  0  0  0  0  0
    3.0421    1.2953   -1.7872 H   0  0  0  0  0  0  0  0  0  0  0  0
    3.1956    0.0517   -3.0283 H   0  0  0  0  0  0  0  0  0  0  0  0
    2.5579   -1.7041   -1.3609 H   0  0  0  0  0  0  0  0  0  0  0  0
    2.4206   -0.4804   -0.1017 H   0  0  0  0  0  0  0  0  0  0  0  0
    4.8851    0.5561    0.7681 H   0  0  0  0  0  0  0  0  0  0  0  0
    5.2256    1.1268   -0.8729 H   0  0  0  0  0  0  0  0  0  0  0  0
    7.0903   -0.0417    0.8709 H   0  0  0  0  0  0  0  0  0  0  0  0
    8.6214   -0.2673   -1.0301 H   0  0  0  0  0  0  0  0  0  0  0  0
    7.7331    1.2414   -1.1091 H   0  0  0  0  0  0  0  0  0  0  0  0
    7.0419   -1.2419   -2.7761 H   0  0  0  0  0  0  0  0  0  0  0  0
    7.9817    0.1466   -3.3275 H   0  0  0  0  0  0  0  0  0  0  0  0
    6.2802    0.3551   -2.9026 H   0  0  0  0  0  0  0  0  0  0  0  0
    8.0704   -2.7869   -1.0967 H   0  0  0  0  0  0  0  0  0  0  0  0
    7.1077   -3.8553   -0.0874 H   0  0  0  0  0  0  0  0  0  0  0  0
    9.0963   -1.7640    0.9380 H   0  0  0  0  0  0  0  0  0  0  0  0
    9.2834   -3.5216    0.9464 H   0  0  0  0  0  0  0  0  0  0  0  0
    8.0552   -2.7624    1.9721 H   0  0  0  0  0  0  0  0  0  0  0  0
    4.5572   -2.7490    0.2777 H   0  0  0  0  0  0  0  0  0  0  0  0
    5.0611   -2.7725   -1.4386 H   0  0  0  0  0  0  0  0  0  0  0  0
  1  2  1  0  0  0  0
  1 13  1  0  0  0  0
  1 14  1  0  0  0  0
  1 15  1  0  0  0  0
  2  3  1  0  0  0  0
  2 16  1  0  0  0  0
  2 17  1  0  0  0  0
  3  4  1  0  0  0  0
  3 18  1  0  0  0  0
  3 19  1  0  0  0  0
  4  5  1  0  0  0  0
  4 12  1  0  0  0  0
  5  6  1  0  0  0  0
  5 20  1  0  0  0  0
  5 21  1  0  0  0  0
  6  7  1  0  0  0  0
  6  9  1  0  0  0  0
  6 22  1  0  0  0  0
  7  8  1  0  0  0  0
  7 23  1  0  0  0  0
  7 24  1  0  0  0  0
  8 25  1  0  0  0  0
  8 26  1  0  0  0  0
  8 27  1  0  0  0  0
  9 10  1  0  0  0  0
  9 12  1  0  0  0  0
 10 11  1  0  0  0  0
 10 28  1  0  0  0  0
 10 29  1  0  0  0  0
 11 30  1  0  0  0  0
 11 31  1  0  0  0  0
 11 32  1  0  0  0  0
 12 33  1  0  0  0  0
 12 34  1  0  0  0  0
M  END
$$$$
