
 OpenBabel04232216523D

 56 57  0  0  1  0  0  0  0  0999 V2000
    7.1395   -2.4781    2.0594 C   0  0  0  0  0  0  0  0  0  0  0  0
    5.8486   -1.7053    2.2962 C   0  0  0  0  0  0  0  0  0  0  0  0
    6.0317   -0.1614    2.4672 C   0  0  0  0  0  0  0  0  0  0  0  0
    6.5594    0.6084    3.8008 C   0  0  0  0  0  0  0  0  0  0  0  0
    7.5396    2.0561    3.8854 C   0  0  3  0  0  0  0  0  0  0  0  0
    7.7305    2.5522    2.4080 C   0  0  3  0  0  0  0  0  0  0  0  0
    7.1551    2.3090    0.9797 C   0  0  0  0  0  0  0  0  0  0  0  0
    6.0640    3.1674    0.6094 O   0  0  0  0  0  0  0  0  0  0  0  0
    7.8221    4.0708    2.5167 C   0  0  0  0  0  0  0  0  0  0  0  0
    9.1888    4.3228    2.0041 C   0  0  0  0  0  0  0  0  0  0  0  0
    9.9356    5.3099    2.7997 C   0  0  0  0  0  0  0  0  0  0  0  0
   11.3690    4.9128    2.5376 C   0  0  0  0  0  0  0  0  0  0  0  0
   11.7411    3.8069    2.1223 O   0  0  0  0  0  0  0  0  0  0  0  0
   12.2634    5.7876    3.0898 N   0  0  0  0  0  0  0  0  0  0  0  0
   12.9501    4.9714    4.4341 S   0  0  0  0  0  0  0  0  0  0  0  0
   11.6059    5.4228    5.4511 C   0  0  0  0  0  0  0  0  0  0  0  0
   10.9061    4.5498    6.2250 C   0  0  0  0  0  0  0  0  0  0  0  0
   11.8577    4.5908    7.6236 C   0  0  0  0  0  0  0  0  0  0  0  0
   12.4673    5.9261    8.4208 C   0  0  0  0  0  0  0  0  0  0  0  0
   13.2584    7.1512    7.8279 C   0  0  0  0  0  0  0  0  0  0  0  0
   13.1804    7.3487    6.3438 C   0  0  0  0  0  0  0  0  0  0  0  0
   11.8183    6.8090    5.8976 C   0  0  0  0  0  0  0  0  0  0  0  0
   10.8578    7.5781    5.9757 O   0  0  0  0  0  0  0  0  0  0  0  0
   10.0029    3.1291    5.7708 C   0  0  0  0  0  0  0  0  0  0  0  0
    8.9630    2.3618    5.0527 C   0  0  0  0  0  0  0  0  0  0  0  0
    6.9189   -3.5355    1.8299 H   0  0  0  0  0  0  0  0  0  0  0  0
    7.7854   -2.4447    2.9285 H   0  0  0  0  0  0  0  0  0  0  0  0
    7.6857   -2.0915    1.1860 H   0  0  0  0  0  0  0  0  0  0  0  0
    5.2564   -2.1559    3.0964 H   0  0  0  0  0  0  0  0  0  0  0  0
    5.2558   -1.8663    1.3757 H   0  0  0  0  0  0  0  0  0  0  0  0
    5.0223    0.2318    2.2451 H   0  0  0  0  0  0  0  0  0  0  0  0
    6.6559    0.0509    1.6236 H   0  0  0  0  0  0  0  0  0  0  0  0
    6.7658   -0.0913    4.6120 H   0  0  0  0  0  0  0  0  0  0  0  0
    5.5913    1.0620    4.0870 H   0  0  0  0  0  0  0  0  0  0  0  0
    6.8146    2.7110    4.3869 H   0  0  0  0  0  0  0  0  0  0  0  0
    8.6631    1.9913    2.2382 H   0  0  0  0  0  0  0  0  0  0  0  0
    6.9541    1.3503    0.5882 H   0  0  0  0  0  0  0  0  0  0  0  0
    7.9461    2.6441    0.2806 H   0  0  0  0  0  0  0  0  0  0  0  0
    5.2637    2.7572    0.9628 H   0  0  0  0  0  0  0  0  0  0  0  0
    7.6272    4.4376    3.5307 H   0  0  0  0  0  0  0  0  0  0  0  0
    7.1004    4.6263    1.9097 H   0  0  0  0  0  0  0  0  0  0  0  0
    9.2091    4.5543    0.9314 H   0  0  0  0  0  0  0  0  0  0  0  0
    9.7367    3.3867    2.1096 H   0  0  0  0  0  0  0  0  0  0  0  0
    9.6945    5.1913    3.8588 H   0  0  0  0  0  0  0  0  0  0  0  0
    9.6938    6.3441    2.5421 H   0  0  0  0  0  0  0  0  0  0  0  0
   11.8307    6.6868    3.3047 H   0  0  0  0  0  0  0  0  0  0  0  0
   12.7838    4.0466    7.3616 H   0  0  0  0  0  0  0  0  0  0  0  0
   11.3728    3.9929    8.4001 H   0  0  0  0  0  0  0  0  0  0  0  0
   13.1660    5.5292    9.1774 H   0  0  0  0  0  0  0  0  0  0  0  0
   11.6507    6.3614    9.0105 H   0  0  0  0  0  0  0  0  0  0  0  0
   14.3188    7.1429    8.1386 H   0  0  0  0  0  0  0  0  0  0  0  0
   12.8799    8.0736    8.3068 H   0  0  0  0  0  0  0  0  0  0  0  0
   14.0276    6.8546    5.8545 H   0  0  0  0  0  0  0  0  0  0  0  0
   13.2982    8.4100    6.0612 H   0  0  0  0  0  0  0  0  0  0  0  0
   10.4759    2.4414    6.4972 H   0  0  0  0  0  0  0  0  0  0  0  0
    8.9818    1.3449    5.4815 H   0  0  0  0  0  0  0  0  0  0  0  0
  1  2  1  0  0  0  0
  1 26  1  0  0  0  0
  1 27  1  0  0  0  0
  1 28  1  0  0  0  0
  2  3  1  0  0  0  0
  2 29  1  0  0  0  0
  2 30  1  0  0  0  0
  3  4  1  0  0  0  0
  3 31  1  0  0  0  0
  3 32  1  0  0  0  0
  4  5  1  0  0  0  0
  4 33  1  0  0  0  0
  4 34  1  0  0  0  0
  5  6  1  0  0  0  0
  5 25  1  0  0  0  0
  5 35  1  0  0  0  0
  6  7  1  0  0  0  0
  6  9  1  0  0  0  0
  6 36  1  0  0  0  0
  7  8  1  0  0  0  0
  7 37  1  0  0  0  0
  7 38  1  0  0  0  0
  8 39  1  0  0  0  0
  9 10  1  0  0  0  0
  9 40  1  0  0  0  0
  9 41  1  0  0  0  0
 10 11  1  0  0  0  0
 10 42  1  0  0  0  0
 10 43  1  0  0  0  0
 11 12  1  0  0  0  0
 11 44  1  0  0  0  0
 11 45  1  0  0  0  0
 12 13  2  0  0  0  0
 12 14  1  0  0  0  0
 14 15  1  0  0  0  0
 14 46  1  0  0  0  0
 15 16  1  0  0  0  0
 16 17  2  0  0  0  0
 16 22  1  0  0  0  0
 17 18  1  0  0  0  0
 17 24  1  0  0  0  0
 18 19  1  0  0  0  0
 18 47  1  0  0  0  0
 18 48  1  0  0  0  0
 19 20  1  0  0  0  0
 19 49  1  0  0  0  0
 19 50  1  0  0  0  0
 20 21  1  0  0  0  0
 20 51  1  0  0  0  0
 20 52  1  0  0  0  0
 21 22  1  0  0  0  0
 21 53  1  0  0  0  0
 21 54  1  0  0  0  0
 22 23  2  0  0  0  0
 24 25  2  3  0  0  0
 24 55  1  0  0  0  0
 25 56  1  0  0  0  0
M  END
$$$$
