
 OpenBabel04232216483D

 46 48  0  0  0  0  0  0  0  0999 V2000
    0.6884    0.9774   -1.1622 C   0  0  0  0  0  0  0  0  0  0  0  0
   -0.7447    1.4576   -0.8416 C   0  0  0  0  0  0  0  0  0  0  0  0
   -1.6168    0.8916    0.1016 C   0  0  0  0  0  0  0  0  0  0  0  0
   -3.0277    1.3951    0.3944 C   0  0  0  0  0  0  0  0  0  0  0  0
   -3.6484    2.5293   -0.2222 C   0  0  0  0  0  0  0  0  0  0  0  0
   -5.3138    3.1529   -0.2082 C   0  0  0  0  0  0  0  0  0  0  0  0
   -6.7671    3.6708    0.8716 C   0  0  0  0  0  0  0  0  0  0  0  0
   -8.3932    4.0779    0.3862 N   0  0  0  0  0  0  0  0  0  0  0  0
   -9.4498    5.2367    1.1749 C   0  0  0  0  0  0  0  0  0  0  0  0
  -11.0022    6.1529    0.6783 C   0  0  0  0  0  0  0  0  0  0  0  0
  -12.5122    5.7570    0.0890 C   0  0  0  0  0  0  0  0  0  0  0  0
  -13.2793    5.0995    1.0138 N   0  0  0  0  0  0  0  0  0  0  0  0
  -12.8930    3.9150    1.0152 C   0  0  0  0  0  0  0  0  0  0  0  0
  -11.7965    3.2211    0.1771 C   0  0  0  0  0  0  0  0  0  0  0  0
  -10.7791    3.6112   -0.6653 C   0  0  0  0  0  0  0  0  0  0  0  0
  -10.1003    4.8062   -1.6068 C   0  0  0  0  0  0  0  0  0  0  0  0
  -10.9215    5.6064   -2.4845 N   0  0  0  0  0  0  0  0  0  0  0  0
  -10.8774    6.8968   -2.4156 C   0  0  0  0  0  0  0  0  0  0  0  0
  -11.8084    7.7076   -3.0276 N   0  0  0  0  0  0  0  0  0  0  0  0
  -12.9998    7.2966   -3.1422 N   0  0  0  0  0  0  0  0  0  0  0  0
  -13.2419    5.8984   -3.1470 N   0  0  0  0  0  0  0  0  0  0  0  0
  -13.3621    5.3373   -2.0108 N   0  0  0  0  0  0  0  0  0  0  0  0
  -13.1735    6.2501   -0.9206 N   0  0  0  0  0  0  0  0  0  0  0  0
   -9.2680    2.6741   -0.1285 S   0  0  0  0  0  0  0  0  0  0  0  0
   -2.7259    3.0264   -1.2162 C   0  0  0  0  0  0  0  0  0  0  0  0
   -1.3469    2.5295   -1.5071 C   0  0  0  0  0  0  0  0  0  0  0  0
    1.0287    0.1229   -0.5534 H   0  0  0  0  0  0  0  0  0  0  0  0
    1.4426    1.7660   -1.0005 H   0  0  0  0  0  0  0  0  0  0  0  0
    0.8137    0.6582   -2.2109 H   0  0  0  0  0  0  0  0  0  0  0  0
   -1.2509    0.0064    0.6384 H   0  0  0  0  0  0  0  0  0  0  0  0
   -3.5606    0.7753    1.1087 H   0  0  0  0  0  0  0  0  0  0  0  0
   -5.7731    2.5256   -0.9814 H   0  0  0  0  0  0  0  0  0  0  0  0
   -5.0951    4.1350   -0.6490 H   0  0  0  0  0  0  0  0  0  0  0  0
   -6.4314    4.5403    1.4408 H   0  0  0  0  0  0  0  0  0  0  0  0
   -6.9163    2.8220    1.5505 H   0  0  0  0  0  0  0  0  0  0  0  0
   -8.7927    6.0989    1.3243 H   0  0  0  0  0  0  0  0  0  0  0  0
   -9.7239    4.8029    2.1442 H   0  0  0  0  0  0  0  0  0  0  0  0
  -10.7368    7.0728    0.1517 H   0  0  0  0  0  0  0  0  0  0  0  0
  -11.3299    6.5215    1.6631 H   0  0  0  0  0  0  0  0  0  0  0  0
  -13.3421    3.2434    1.7780 H   0  0  0  0  0  0  0  0  0  0  0  0
  -11.7507    2.2244    0.6173 H   0  0  0  0  0  0  0  0  0  0  0  0
   -9.3929    4.2903   -2.2661 H   0  0  0  0  0  0  0  0  0  0  0  0
   -9.4470    5.4931   -1.0606 H   0  0  0  0  0  0  0  0  0  0  0  0
  -10.1465    7.4514   -1.7865 H   0  0  0  0  0  0  0  0  0  0  0  0
   -3.0425    3.8329   -1.8751 H   0  0  0  0  0  0  0  0  0  0  0  0
   -0.7737    3.0097   -2.3057 H   0  0  0  0  0  0  0  0  0  0  0  0
  1  2  1  0  0  0  0
  1 27  1  0  0  0  0
  1 28  1  0  0  0  0
  1 29  1  0  0  0  0
  2  3  1  0  0  0  0
  2 26  2  0  0  0  0
  3  4  2  0  0  0  0
  3 30  1  0  0  0  0
  4  5  1  0  0  0  0
  4 31  1  0  0  0  0
  5  6  1  0  0  0  0
  5 25  2  0  0  0  0
  6  7  1  0  0  0  0
  6 32  1  0  0  0  0
  6 33  1  0  0  0  0
  7  8  1  0  0  0  0
  7 34  1  0  0  0  0
  7 35  1  0  0  0  0
  8  9  1  0  0  0  0
  8 24  1  0  0  0  0
  9 10  1  0  0  0  0
  9 36  1  0  0  0  0
  9 37  1  0  0  0  0
 10 11  1  0  0  0  0
 10 38  1  0  0  0  0
 10 39  1  0  0  0  0
 11 12  1  0  0  0  0
 11 23  2  3  0  0  0
 12 13  2  3  0  0  0
 13 14  1  0  0  0  0
 13 40  1  0  0  0  0
 14 15  2  3  0  0  0
 14 41  1  0  0  0  0
 15 16  1  0  0  0  0
 15 24  1  0  0  0  0
 16 17  1  0  0  0  0
 16 42  1  0  0  0  0
 16 43  1  0  0  0  0
 17 18  2  3  0  0  0
 18 19  1  0  0  0  0
 18 44  1  0  0  0  0
 19 20  2  3  0  0  0
 20 21  1  0  0  0  0
 21 22  2  3  0  0  0
 22 23  1  0  0  0  0
 25 26  1  0  0  0  0
 25 45  1  0  0  0  0
 26 46  1  0  0  0  0
M  END
$$$$
