
 OpenBabel04232216413D

212211  0  0  0  0  0  0  0  0999 V2000
    2.7568   -6.1122   -5.0187 C   0  0  0  0  0  0  0  0  0  0  0  0
    3.3632   -5.6954   -3.9002 C   0  0  0  0  0  0  0  0  0  0  0  0
    3.7734   -4.2714   -3.6831 C   0  0  0  0  0  0  0  0  0  0  0  0
    5.2169   -4.1975   -3.4622 N   0  0  0  0  0  0  0  0  0  0  0  0
    5.5715   -2.8271   -3.2679 N   0  0  0  0  0  0  0  0  0  0  0  0
    6.9607   -2.7260   -3.0458 N   0  0  0  0  0  0  0  0  0  0  0  0
    7.3303   -1.3692   -2.8458 N   0  0  0  0  0  0  0  0  0  0  0  0
    8.7425   -1.2600   -2.6318 N   0  0  0  0  0  0  0  0  0  0  0  0
    9.4646   -1.7510   -3.7481 N   0  0  0  0  0  0  0  0  0  0  0  0
   10.8418   -1.6437   -3.5142 N   0  0  0  0  0  0  0  0  0  0  0  0
   11.5545   -2.1412   -4.6252 N   0  0  0  0  0  0  0  0  0  0  0  0
   12.9427   -2.0282   -4.4014 N   0  0  0  0  0  0  0  0  0  0  0  0
   13.6415   -2.5301   -5.5156 N   0  0  0  0  0  0  0  0  0  0  0  0
   15.0479   -2.4231   -5.2997 N   0  0  0  0  0  0  0  0  0  0  0  0
   15.7702   -2.9235   -6.4098 N   0  0  0  0  0  0  0  0  0  0  0  0
   17.1570   -2.8103   -6.1734 N   0  0  0  0  0  0  0  0  0  0  0  0
   17.8641   -3.3114   -7.2870 N   0  0  0  0  0  0  0  0  0  0  0  0
   19.2612   -3.2052   -7.0645 N   0  0  0  0  0  0  0  0  0  0  0  0
   19.9778   -3.7077   -8.1780 N   0  0  0  0  0  0  0  0  0  0  0  0
   21.3723   -3.6020   -7.9514 N   0  0  0  0  0  0  0  0  0  0  0  0
   22.0842   -4.1018   -9.0635 N   0  0  0  0  0  0  0  0  0  0  0  0
   23.4822   -3.9993   -8.8393 N   0  0  0  0  0  0  0  0  0  0  0  0
   24.1820   -4.4959   -9.9517 N   0  0  0  0  0  0  0  0  0  0  0  0
   25.5855   -4.3929   -9.7312 N   0  0  0  0  0  0  0  0  0  0  0  0
   26.2858   -4.8895  -10.8412 N   0  0  0  0  0  0  0  0  0  0  0  0
   27.6869   -4.7848  -10.6178 N   0  0  0  0  0  0  0  0  0  0  0  0
   28.4073   -5.2837  -11.7299 N   0  0  0  0  0  0  0  0  0  0  0  0
   29.8042   -5.1788  -11.5020 N   0  0  0  0  0  0  0  0  0  0  0  0
   30.5182   -5.6740  -12.6099 N   0  0  0  0  0  0  0  0  0  0  0  0
   31.8964   -5.5658  -12.3740 N   0  0  0  0  0  0  0  0  0  0  0  0
   32.5731   -6.0660  -13.4946 N   0  0  0  0  0  0  0  0  0  0  0  0
   34.0158   -5.9564  -13.2532 C   0  0  0  0  0  0  0  0  0  0  0  0
   34.7969   -6.4895  -14.4526 C   0  0  0  0  0  0  0  0  0  0  0  0
   36.2971   -6.3792  -14.2102 C   0  0  0  0  0  0  0  0  0  0  0  0
   37.0658   -6.9111  -15.4070 C   0  0  0  0  0  0  0  0  0  0  0  0
   38.5585   -6.7995  -15.1619 C   0  0  0  0  0  0  0  0  0  0  0  0
   39.3228   -7.3294  -16.3591 C   0  0  0  0  0  0  0  0  0  0  0  0
   40.8140   -7.2156  -16.1141 C   0  0  0  0  0  0  0  0  0  0  0  0
   41.5775   -7.7472  -17.3101 C   0  0  0  0  0  0  0  0  0  0  0  0
   43.0685   -7.6353  -17.0642 C   0  0  0  0  0  0  0  0  0  0  0  0
   43.8320   -8.1687  -18.2594 C   0  0  0  0  0  0  0  0  0  0  0  0
   45.3229   -8.0585  -18.0126 C   0  0  0  0  0  0  0  0  0  0  0  0
   46.0864   -8.5920  -19.2078 C   0  0  0  0  0  0  0  0  0  0  0  0
   47.5773   -8.4818  -18.9610 C   0  0  0  0  0  0  0  0  0  0  0  0
   48.3408   -9.0152  -20.1563 C   0  0  0  0  0  0  0  0  0  0  0  0
   49.8317   -8.9051  -19.9095 C   0  0  0  0  0  0  0  0  0  0  0  0
   50.5952   -9.4385  -21.1047 C   0  0  0  0  0  0  0  0  0  0  0  0
   52.0861   -9.3265  -20.8587 C   0  0  0  0  0  0  0  0  0  0  0  0
   52.8496   -9.8618  -22.0531 C   0  0  0  0  0  0  0  0  0  0  0  0
   54.3405   -9.7517  -21.8064 C   0  0  0  0  0  0  0  0  0  0  0  0
   55.1040  -10.2869  -23.0007 C   0  0  0  0  0  0  0  0  0  0  0  0
   56.5949  -10.1786  -22.7532 C   0  0  0  0  0  0  0  0  0  0  0  0
   57.3584  -10.7120  -23.9484 C   0  0  0  0  0  0  0  0  0  0  0  0
   58.8494  -10.6019  -23.7016 C   0  0  0  0  0  0  0  0  0  0  0  0
   59.6128  -11.1371  -24.8960 C   0  0  0  0  0  0  0  0  0  0  0  0
   61.1038  -11.0288  -24.6484 C   0  0  0  0  0  0  0  0  0  0  0  0
   61.8672  -11.5623  -25.8436 C   0  0  0  0  0  0  0  0  0  0  0  0
   63.3582  -11.4540  -25.5960 C   0  0  0  0  0  0  0  0  0  0  0  0
   64.1216  -11.9855  -26.7920 C   0  0  0  0  0  0  0  0  0  0  0  0
   65.6126  -11.8772  -26.5444 C   0  0  0  0  0  0  0  0  0  0  0  0
   66.3761  -12.4088  -27.7404 C   0  0  0  0  0  0  0  0  0  0  0  0
   67.8670  -12.3005  -27.4928 C   0  0  0  0  0  0  0  0  0  0  0  0
   68.6305  -12.8321  -28.6888 C   0  0  0  0  0  0  0  0  0  0  0  0
   70.1214  -12.7238  -28.4412 C   0  0  0  0  0  0  0  0  0  0  0  0
   70.8849  -13.2553  -29.6373 C   0  0  0  0  0  0  0  0  0  0  0  0
   72.3758  -13.1470  -29.3897 C   0  0  0  0  0  0  0  0  0  0  0  0
   73.1393  -13.6786  -30.5857 C   0  0  0  0  0  0  0  0  0  0  0  0
   74.6302  -13.5703  -30.3381 C   0  0  0  0  0  0  0  0  0  0  0  0
   75.3937  -14.1037  -31.5333 C   0  0  0  0  0  0  0  0  0  0  0  0
   76.8847  -13.9954  -31.2857 C   0  0  0  0  0  0  0  0  0  0  0  0
   77.6481  -14.5288  -32.4809 C   0  0  0  0  0  0  0  0  0  0  0  0
   79.1391  -14.4206  -32.2333 C   0  0  0  0  0  0  0  0  0  0  0  0
   79.9025  -14.9540  -33.4285 C   0  0  0  0  0  0  0  0  0  0  0  0
   81.3935  -14.8457  -33.1809 C   0  0  0  0  0  0  0  0  0  0  0  0
   82.1569  -15.3772  -34.3769 C   0  0  0  0  0  0  0  0  0  0  0  0
   83.6480  -15.2690  -34.1294 C   0  0  0  0  0  0  0  0  0  0  0  0
   84.4115  -15.8007  -35.3259 C   0  0  0  0  0  0  0  0  0  0  0  0
   85.9030  -15.6911  -35.0801 C   0  0  0  0  0  0  0  0  0  0  0  0
   86.6705  -16.2209  -36.2773 C   0  0  0  0  0  0  0  0  0  0  0  0
   88.1577  -16.1097  -36.0279 C   0  0  0  0  0  0  0  0  0  0  0  0
    2.4722   -7.1478   -5.1514 H   0  0  0  0  0  0  0  0  0  0  0  0
    2.5634   -5.4142   -5.8272 H   0  0  0  0  0  0  0  0  0  0  0  0
    3.5427   -6.4236   -3.1105 H   0  0  0  0  0  0  0  0  0  0  0  0
    3.2324   -3.8764   -2.8152 H   0  0  0  0  0  0  0  0  0  0  0  0
    3.4920   -3.6819   -4.5654 H   0  0  0  0  0  0  0  0  0  0  0  0
    5.6544   -4.5908   -4.2993 H   0  0  0  0  0  0  0  0  0  0  0  0
    5.0856   -2.4602   -2.4445 H   0  0  0  0  0  0  0  0  0  0  0  0
    7.4749   -3.0770   -3.8546 H   0  0  0  0  0  0  0  0  0  0  0  0
    6.7951   -1.0141   -2.0450 H   0  0  0  0  0  0  0  0  0  0  0  0
    9.0076   -1.8019   -1.8066 H   0  0  0  0  0  0  0  0  0  0  0  0
    9.2287   -1.2112   -4.5791 H   0  0  0  0  0  0  0  0  0  0  0  0
   11.1040   -2.1854   -2.6927 H   0  0  0  0  0  0  0  0  0  0  0  0
   11.3163   -1.5990   -5.4527 H   0  0  0  0  0  0  0  0  0  0  0  0
   13.1986   -2.5721   -3.5818 H   0  0  0  0  0  0  0  0  0  0  0  0
   13.3733   -1.9874   -6.3383 H   0  0  0  0  0  0  0  0  0  0  0  0
   15.3156   -2.9574   -4.4705 H   0  0  0  0  0  0  0  0  0  0  0  0
   15.5660   -2.3900   -7.2506 H   0  0  0  0  0  0  0  0  0  0  0  0
   17.3796   -3.3466   -5.3416 H   0  0  0  0  0  0  0  0  0  0  0  0
   17.5597   -2.7750   -8.1016 H   0  0  0  0  0  0  0  0  0  0  0  0
   19.5070   -3.7394   -6.2231 H   0  0  0  0  0  0  0  0  0  0  0  0
   19.7390   -3.1763   -9.0154 H   0  0  0  0  0  0  0  0  0  0  0  0
   21.6252   -4.1501   -7.1333 H   0  0  0  0  0  0  0  0  0  0  0  0
   21.8221   -3.5542   -9.8794 H   0  0  0  0  0  0  0  0  0  0  0  0
   23.7155   -4.5435   -8.0119 H   0  0  0  0  0  0  0  0  0  0  0  0
   23.9355   -3.9498  -10.7752 H   0  0  0  0  0  0  0  0  0  0  0  0
   25.8102   -4.9335   -8.8999 H   0  0  0  0  0  0  0  0  0  0  0  0
   26.0417   -4.3312  -11.6563 H   0  0  0  0  0  0  0  0  0  0  0  0
   27.9243   -5.3358   -9.7988 H   0  0  0  0  0  0  0  0  0  0  0  0
   28.1588   -4.7298  -12.5460 H   0  0  0  0  0  0  0  0  0  0  0  0
   30.0457   -5.7285  -10.6820 H   0  0  0  0  0  0  0  0  0  0  0  0
   30.2935   -5.1341  -13.4400 H   0  0  0  0  0  0  0  0  0  0  0  0
   32.1142   -6.1205  -11.5501 H   0  0  0  0  0  0  0  0  0  0  0  0
   32.3328   -5.5141  -14.3160 H   0  0  0  0  0  0  0  0  0  0  0  0
   34.3082   -6.5359  -12.3677 H   0  0  0  0  0  0  0  0  0  0  0  0
   34.3068   -4.9109  -13.0866 H   0  0  0  0  0  0  0  0  0  0  0  0
   34.5383   -5.9205  -15.3536 H   0  0  0  0  0  0  0  0  0  0  0  0
   34.5400   -7.5405  -14.6315 H   0  0  0  0  0  0  0  0  0  0  0  0
   36.5738   -6.9502  -13.3160 H   0  0  0  0  0  0  0  0  0  0  0  0
   36.5710   -5.3317  -14.0371 H   0  0  0  0  0  0  0  0  0  0  0  0
   36.7966   -6.3410  -16.3039 H   0  0  0  0  0  0  0  0  0  0  0  0
   36.7993   -7.9599  -15.5827 H   0  0  0  0  0  0  0  0  0  0  0  0
   38.8310   -7.3714  -14.2672 H   0  0  0  0  0  0  0  0  0  0  0  0
   38.8280   -5.7515  -14.9862 H   0  0  0  0  0  0  0  0  0  0  0  0
   39.0504   -6.7586  -17.2546 H   0  0  0  0  0  0  0  0  0  0  0  0
   39.0556   -8.3781  -16.5345 H   0  0  0  0  0  0  0  0  0  0  0  0
   41.0865   -7.7853  -15.2179 H   0  0  0  0  0  0  0  0  0  0  0  0
   41.0818   -6.1668  -15.9402 H   0  0  0  0  0  0  0  0  0  0  0  0
   41.3062   -7.1767  -18.2061 H   0  0  0  0  0  0  0  0  0  0  0  0
   41.3088   -8.7956  -17.4848 H   0  0  0  0  0  0  0  0  0  0  0  0
   43.3397   -8.2047  -16.1674 H   0  0  0  0  0  0  0  0  0  0  0  0
   43.3375   -6.5867  -16.8909 H   0  0  0  0  0  0  0  0  0  0  0  0
   43.5619   -7.5983  -19.1559 H   0  0  0  0  0  0  0  0  0  0  0  0
   43.5619   -9.2168  -18.4336 H   0  0  0  0  0  0  0  0  0  0  0  0
   45.5930   -8.6289  -17.1161 H   0  0  0  0  0  0  0  0  0  0  0  0
   45.5930   -7.0104  -17.8384 H   0  0  0  0  0  0  0  0  0  0  0  0
   45.8163   -8.0216  -20.1043 H   0  0  0  0  0  0  0  0  0  0  0  0
   45.8163   -9.6401  -19.3820 H   0  0  0  0  0  0  0  0  0  0  0  0
   47.8474   -9.0522  -18.0646 H   0  0  0  0  0  0  0  0  0  0  0  0
   47.8474   -7.4337  -18.7869 H   0  0  0  0  0  0  0  0  0  0  0  0
   48.0707   -8.4449  -21.0528 H   0  0  0  0  0  0  0  0  0  0  0  0
   48.0707  -10.0634  -20.3304 H   0  0  0  0  0  0  0  0  0  0  0  0
   50.1018   -9.4754  -19.0130 H   0  0  0  0  0  0  0  0  0  0  0  0
   50.1018   -7.8569  -19.7353 H   0  0  0  0  0  0  0  0  0  0  0  0
   50.3241   -8.8691  -22.0015 H   0  0  0  0  0  0  0  0  0  0  0  0
   50.3262  -10.4871  -21.2780 H   0  0  0  0  0  0  0  0  0  0  0  0
   52.3571   -9.8948  -19.9612 H   0  0  0  0  0  0  0  0  0  0  0  0
   52.3553   -8.2778  -20.6869 H   0  0  0  0  0  0  0  0  0  0  0  0
   52.5797   -9.2926  -22.9505 H   0  0  0  0  0  0  0  0  0  0  0  0
   52.5793  -10.9101  -22.2259 H   0  0  0  0  0  0  0  0  0  0  0  0
   54.6104  -10.3208  -20.9090 H   0  0  0  0  0  0  0  0  0  0  0  0
   54.6108   -8.7033  -21.6336 H   0  0  0  0  0  0  0  0  0  0  0  0
   54.8352   -9.7168  -23.8978 H   0  0  0  0  0  0  0  0  0  0  0  0
   54.8326  -11.3348  -23.1744 H   0  0  0  0  0  0  0  0  0  0  0  0
   56.8639  -10.7499  -21.8569 H   0  0  0  0  0  0  0  0  0  0  0  0
   56.8661   -9.1309  -22.5781 H   0  0  0  0  0  0  0  0  0  0  0  0
   57.0884  -10.1417  -24.8449 H   0  0  0  0  0  0  0  0  0  0  0  0
   57.0883  -11.7602  -24.1225 H   0  0  0  0  0  0  0  0  0  0  0  0
   59.1192  -11.1710  -22.8043 H   0  0  0  0  0  0  0  0  0  0  0  0
   59.1197   -9.5536  -23.5288 H   0  0  0  0  0  0  0  0  0  0  0  0
   59.3440  -10.5670  -25.7930 H   0  0  0  0  0  0  0  0  0  0  0  0
   59.3415  -12.1851  -25.0696 H   0  0  0  0  0  0  0  0  0  0  0  0
   61.3727  -11.6001  -23.7521 H   0  0  0  0  0  0  0  0  0  0  0  0
   61.3749   -9.9811  -24.4733 H   0  0  0  0  0  0  0  0  0  0  0  0
   61.5982  -10.9910  -26.7398 H   0  0  0  0  0  0  0  0  0  0  0  0
   61.5961  -12.6100  -26.0186 H   0  0  0  0  0  0  0  0  0  0  0  0
   63.6274  -12.0264  -24.7006 H   0  0  0  0  0  0  0  0  0  0  0  0
   63.6291  -10.4064  -25.4195 H   0  0  0  0  0  0  0  0  0  0  0  0
   63.8524  -11.4131  -27.6874 H   0  0  0  0  0  0  0  0  0  0  0  0
   63.8507  -13.0331  -26.9685 H   0  0  0  0  0  0  0  0  0  0  0  0
   65.8818  -12.4497  -25.6490 H   0  0  0  0  0  0  0  0  0  0  0  0
   65.8835  -10.8297  -26.3679 H   0  0  0  0  0  0  0  0  0  0  0  0
   66.1069  -11.8363  -28.6358 H   0  0  0  0  0  0  0  0  0  0  0  0
   66.1051  -13.4564  -27.9169 H   0  0  0  0  0  0  0  0  0  0  0  0
   68.1362  -12.8730  -26.5974 H   0  0  0  0  0  0  0  0  0  0  0  0
   68.1379  -11.2529  -27.3163 H   0  0  0  0  0  0  0  0  0  0  0  0
   68.3613  -12.2596  -29.5842 H   0  0  0  0  0  0  0  0  0  0  0  0
   68.3595  -13.8796  -28.8653 H   0  0  0  0  0  0  0  0  0  0  0  0
   70.3906  -13.2962  -27.5458 H   0  0  0  0  0  0  0  0  0  0  0  0
   70.3923  -11.6762  -28.2647 H   0  0  0  0  0  0  0  0  0  0  0  0
   70.6157  -12.6829  -30.5327 H   0  0  0  0  0  0  0  0  0  0  0  0
   70.6140  -14.3029  -29.8138 H   0  0  0  0  0  0  0  0  0  0  0  0
   72.6450  -13.7195  -28.4943 H   0  0  0  0  0  0  0  0  0  0  0  0
   72.6468  -12.0995  -29.2132 H   0  0  0  0  0  0  0  0  0  0  0  0
   72.8701  -13.1062  -31.4811 H   0  0  0  0  0  0  0  0  0  0  0  0
   72.8684  -14.7262  -30.7622 H   0  0  0  0  0  0  0  0  0  0  0  0
   74.8992  -14.1416  -29.4419 H   0  0  0  0  0  0  0  0  0  0  0  0
   74.9014  -12.5226  -30.1630 H   0  0  0  0  0  0  0  0  0  0  0  0
   75.1247  -13.5325  -32.4295 H   0  0  0  0  0  0  0  0  0  0  0  0
   75.1226  -15.1515  -31.7084 H   0  0  0  0  0  0  0  0  0  0  0  0
   77.1536  -14.5667  -30.3895 H   0  0  0  0  0  0  0  0  0  0  0  0
   77.1558  -12.9477  -31.1106 H   0  0  0  0  0  0  0  0  0  0  0  0
   77.3791  -13.9576  -33.3771 H   0  0  0  0  0  0  0  0  0  0  0  0
   77.3770  -15.5766  -32.6560 H   0  0  0  0  0  0  0  0  0  0  0  0
   79.4081  -14.9918  -31.3371 H   0  0  0  0  0  0  0  0  0  0  0  0
   79.4102  -13.3728  -32.0582 H   0  0  0  0  0  0  0  0  0  0  0  0
   79.6335  -14.3827  -34.3247 H   0  0  0  0  0  0  0  0  0  0  0  0
   79.6314  -16.0017  -33.6036 H   0  0  0  0  0  0  0  0  0  0  0  0
   81.6627  -15.4181  -32.2855 H   0  0  0  0  0  0  0  0  0  0  0  0
   81.6644  -13.7981  -33.0044 H   0  0  0  0  0  0  0  0  0  0  0  0
   81.8877  -14.8048  -35.2723 H   0  0  0  0  0  0  0  0  0  0  0  0
   81.8860  -16.4248  -34.5534 H   0  0  0  0  0  0  0  0  0  0  0  0
   83.9171  -15.8414  -33.2340 H   0  0  0  0  0  0  0  0  0  0  0  0
   83.9188  -14.2214  -33.9529 H   0  0  0  0  0  0  0  0  0  0  0  0
   84.1410  -15.2290  -36.2212 H   0  0  0  0  0  0  0  0  0  0  0  0
   84.1414  -16.8486  -35.5011 H   0  0  0  0  0  0  0  0  0  0  0  0
   86.1726  -16.2631  -34.1843 H   0  0  0  0  0  0  0  0  0  0  0  0
   86.1717  -14.6430  -34.9019 H   0  0  0  0  0  0  0  0  0  0  0  0
   86.4034  -15.6481  -37.1722 H   0  0  0  0  0  0  0  0  0  0  0  0
   86.4043  -17.2689  -36.4543 H   0  0  0  0  0  0  0  0  0  0  0  0
   88.4386  -15.0647  -35.8635 H   0  0  0  0  0  0  0  0  0  0  0  0
   88.7125  -16.4904  -36.8882 H   0  0  0  0  0  0  0  0  0  0  0  0
   88.4394  -16.6897  -35.1436 H   0  0  0  0  0  0  0  0  0  0  0  0
  1  2  2  0  0  0  0
  1 81  1  0  0  0  0
  1 82  1  0  0  0  0
  2  3  1  0  0  0  0
  2 83  1  0  0  0  0
  3  4  1  0  0  0  0
  3 84  1  0  0  0  0
  3 85  1  0  0  0  0
  4  5  1  0  0  0  0
  4 86  1  0  0  0  0
  5  6  1  0  0  0  0
  5 87  1  0  0  0  0
  6  7  1  0  0  0  0
  6 88  1  0  0  0  0
  7  8  1  0  0  0  0
  7 89  1  0  0  0  0
  8  9  1  0  0  0  0
  8 90  1  0  0  0  0
  9 10  1  0  0  0  0
  9 91  1  0  0  0  0
 10 11  1  0  0  0  0
 10 92  1  0  0  0  0
 11 12  1  0  0  0  0
 11 93  1  0  0  0  0
 12 13  1  0  0  0  0
 12 94  1  0  0  0  0
 13 14  1  0  0  0  0
 13 95  1  0  0  0  0
 14 15  1  0  0  0  0
 14 96  1  0  0  0  0
 15 16  1  0  0  0  0
 15 97  1  0  0  0  0
 16 17  1  0  0  0  0
 16 98  1  0  0  0  0
 17 18  1  0  0  0  0
 17 99  1  0  0  0  0
 18 19  1  0  0  0  0
 18100  1  0  0  0  0
 19 20  1  0  0  0  0
 19101  1  0  0  0  0
 20 21  1  0  0  0  0
 20102  1  0  0  0  0
 21 22  1  0  0  0  0
 21103  1  0  0  0  0
 22 23  1  0  0  0  0
 22104  1  0  0  0  0
 23 24  1  0  0  0  0
 23105  1  0  0  0  0
 24 25  1  0  0  0  0
 24106  1  0  0  0  0
 25 26  1  0  0  0  0
 25107  1  0  0  0  0
 26 27  1  0  0  0  0
 26108  1  0  0  0  0
 27 28  1  0  0  0  0
 27109  1  0  0  0  0
 28 29  1  0  0  0  0
 28110  1  0  0  0  0
 29 30  1  0  0  0  0
 29111  1  0  0  0  0
 30 31  1  0  0  0  0
 30112  1  0  0  0  0
 31 32  1  0  0  0  0
 31113  1  0  0  0  0
 32 33  1  0  0  0  0
 32114  1  0  0  0  0
 32115  1  0  0  0  0
 33 34  1  0  0  0  0
 33116  1  0  0  0  0
 33117  1  0  0  0  0
 34 35  1  0  0  0  0
 34118  1  0  0  0  0
 34119  1  0  0  0  0
 35 36  1  0  0  0  0
 35120  1  0  0  0  0
 35121  1  0  0  0  0
 36 37  1  0  0  0  0
 36122  1  0  0  0  0
 36123  1  0  0  0  0
 37 38  1  0  0  0  0
 37124  1  0  0  0  0
 37125  1  0  0  0  0
 38 39  1  0  0  0  0
 38126  1  0  0  0  0
 38127  1  0  0  0  0
 39 40  1  0  0  0  0
 39128  1  0  0  0  0
 39129  1  0  0  0  0
 40 41  1  0  0  0  0
 40130  1  0  0  0  0
 40131  1  0  0  0  0
 41 42  1  0  0  0  0
 41132  1  0  0  0  0
 41133  1  0  0  0  0
 42 43  1  0  0  0  0
 42134  1  0  0  0  0
 42135  1  0  0  0  0
 43 44  1  0  0  0  0
 43136  1  0  0  0  0
 43137  1  0  0  0  0
 44 45  1  0  0  0  0
 44138  1  0  0  0  0
 44139  1  0  0  0  0
 45 46  1  0  0  0  0
 45140  1  0  0  0  0
 45141  1  0  0  0  0
 46 47  1  0  0  0  0
 46142  1  0  0  0  0
 46143  1  0  0  0  0
 47 48  1  0  0  0  0
 47144  1  0  0  0  0
 47145  1  0  0  0  0
 48 49  1  0  0  0  0
 48146  1  0  0  0  0
 48147  1  0  0  0  0
 49 50  1  0  0  0  0
 49148  1  0  0  0  0
 49149  1  0  0  0  0
 50 51  1  0  0  0  0
 50150  1  0  0  0  0
 50151  1  0  0  0  0
 51 52  1  0  0  0  0
 51152  1  0  0  0  0
 51153  1  0  0  0  0
 52 53  1  0  0  0  0
 52154  1  0  0  0  0
 52155  1  0  0  0  0
 53 54  1  0  0  0  0
 53156  1  0  0  0  0
 53157  1  0  0  0  0
 54 55  1  0  0  0  0
 54158  1  0  0  0  0
 54159  1  0  0  0  0
 55 56  1  0  0  0  0
 55160  1  0  0  0  0
 55161  1  0  0  0  0
 56 57  1  0  0  0  0
 56162  1  0  0  0  0
 56163  1  0  0  0  0
 57 58  1  0  0  0  0
 57164  1  0  0  0  0
 57165  1  0  0  0  0
 58 59  1  0  0  0  0
 58166  1  0  0  0  0
 58167  1  0  0  0  0
 59 60  1  0  0  0  0
 59168  1  0  0  0  0
 59169  1  0  0  0  0
 60 61  1  0  0  0  0
 60170  1  0  0  0  0
 60171  1  0  0  0  0
 61 62  1  0  0  0  0
 61172  1  0  0  0  0
 61173  1  0  0  0  0
 62 63  1  0  0  0  0
 62174  1  0  0  0  0
 62175  1  0  0  0  0
 63 64  1  0  0  0  0
 63176  1  0  0  0  0
 63177  1  0  0  0  0
 64 65  1  0  0  0  0
 64178  1  0  0  0  0
 64179  1  0  0  0  0
 65 66  1  0  0  0  0
 65180  1  0  0  0  0
 65181  1  0  0  0  0
 66 67  1  0  0  0  0
 66182  1  0  0  0  0
 66183  1  0  0  0  0
 67 68  1  0  0  0  0
 67184  1  0  0  0  0
 67185  1  0  0  0  0
 68 69  1  0  0  0  0
 68186  1  0  0  0  0
 68187  1  0  0  0  0
 69 70  1  0  0  0  0
 69188  1  0  0  0  0
 69189  1  0  0  0  0
 70 71  1  0  0  0  0
 70190  1  0  0  0  0
 70191  1  0  0  0  0
 71 72  1  0  0  0  0
 71192  1  0  0  0  0
 71193  1  0  0  0  0
 72 73  1  0  0  0  0
 72194  1  0  0  0  0
 72195  1  0  0  0  0
 73 74  1  0  0  0  0
 73196  1  0  0  0  0
 73197  1  0  0  0  0
 74 75  1  0  0  0  0
 74198  1  0  0  0  0
 74199  1  0  0  0  0
 75 76  1  0  0  0  0
 75200  1  0  0  0  0
 75201  1  0  0  0  0
 76 77  1  0  0  0  0
 76202  1  0  0  0  0
 76203  1  0  0  0  0
 77 78  1  0  0  0  0
 77204  1  0  0  0  0
 77205  1  0  0  0  0
 78 79  1  0  0  0  0
 78206  1  0  0  0  0
 78207  1  0  0  0  0
 79 80  1  0  0  0  0
 79208  1  0  0  0  0
 79209  1  0  0  0  0
 80210  1  0  0  0  0
 80211  1  0  0  0  0
 80212  1  0  0  0  0
M  END
$$$$
