
 OpenBabel04232216543D

 66 66  0  0  0  0  0  0  0  0999 V2000
    2.6069   -2.9583   -0.0773 C   0  0  0  0  0  0  0  0  0  0  0  0
    2.8976   -3.4281   -1.5077 C   0  0  0  0  0  0  0  0  0  0  0  0
    4.2284   -2.9843   -2.2189 C   0  0  0  0  0  0  0  0  0  0  0  0
    5.5062   -3.8152   -1.8600 C   0  0  0  0  0  0  0  0  0  0  0  0
    6.7591   -3.6439   -2.7488 N   0  0  0  0  0  0  0  0  0  0  0  0
    7.4408   -2.3941   -2.6659 C   0  0  0  0  0  0  0  0  0  0  0  0
    7.7789   -1.7999   -1.3045 C   0  0  0  0  0  0  0  0  0  0  0  0
    7.6158   -1.5036   -3.6657 C   0  0  0  0  0  0  0  0  0  0  0  0
    9.0065   -1.5044   -4.1013 C   0  0  0  0  0  0  0  0  0  0  0  0
    9.3905   -2.4873   -4.9255 C   0  0  0  0  0  0  0  0  0  0  0  0
    8.5511   -3.1087   -6.0564 C   0  0  0  0  0  0  0  0  0  0  0  0
    7.0264   -3.3468   -6.2501 C   0  0  0  0  0  0  0  0  0  0  0  0
    6.0540   -2.8099   -5.7467 O   0  0  0  0  0  0  0  0  0  0  0  0
   10.6978   -3.1242   -4.5407 C   0  0  0  0  0  0  0  0  0  0  0  0
   10.7227   -4.1001   -3.5911 C   0  0  0  0  0  0  0  0  0  0  0  0
   10.5961   -5.4206   -4.1363 C   0  0  0  0  0  0  0  0  0  0  0  0
    9.3904   -5.8444   -4.6388 C   0  0  0  0  0  0  0  0  0  0  0  0
    9.5103   -6.4235   -5.9522 N   0  0  0  0  0  0  0  0  0  0  0  0
   10.6192   -7.1700   -6.5738 C   0  0  0  0  0  0  0  0  0  0  0  0
   10.5540   -8.6673   -6.3310 C   0  0  0  0  0  0  0  0  0  0  0  0
   11.5594   -9.3263   -7.2771 C   0  0  0  0  0  0  0  0  0  0  0  0
   11.6098  -10.8477   -7.2197 C   0  0  0  0  0  0  0  0  0  0  0  0
   12.6410  -11.3042   -8.2538 C   0  0  0  0  0  0  0  0  0  0  0  0
   12.8114  -12.8135   -8.3184 C   0  0  0  0  0  0  0  0  0  0  0  0
   13.8504  -13.1668   -9.3749 C   0  0  0  0  0  0  0  0  0  0  0  0
   14.0432  -14.6424   -9.4291 C   0  0  0  0  0  0  0  0  0  0  0  0
   13.9129  -15.3130  -10.4547 O   0  0  0  0  0  0  0  0  0  0  0  0
    8.1208   -5.6193   -4.0864 N   0  0  0  0  0  0  0  0  0  0  0  0
    7.2601   -4.8798   -3.4368 C   0  0  0  0  0  0  0  0  0  0  0  0
    1.6112   -3.3180    0.2304 H   0  0  0  0  0  0  0  0  0  0  0  0
    2.5710   -1.8670    0.0052 H   0  0  0  0  0  0  0  0  0  0  0  0
    3.3208   -3.3526    0.6494 H   0  0  0  0  0  0  0  0  0  0  0  0
    2.0558   -3.0528   -2.1089 H   0  0  0  0  0  0  0  0  0  0  0  0
    2.8117   -4.5204   -1.5286 H   0  0  0  0  0  0  0  0  0  0  0  0
    4.3822   -1.9132   -2.0409 H   0  0  0  0  0  0  0  0  0  0  0  0
    4.0388   -3.0940   -3.2944 H   0  0  0  0  0  0  0  0  0  0  0  0
    5.2151   -4.8682   -1.8640 H   0  0  0  0  0  0  0  0  0  0  0  0
    5.7819   -3.5842   -0.8266 H   0  0  0  0  0  0  0  0  0  0  0  0
    6.8626   -1.5292   -0.7667 H   0  0  0  0  0  0  0  0  0  0  0  0
    8.3476   -0.8776   -1.3891 H   0  0  0  0  0  0  0  0  0  0  0  0
    8.3794   -2.4855   -0.6950 H   0  0  0  0  0  0  0  0  0  0  0  0
    6.9704   -1.4590   -4.5258 H   0  0  0  0  0  0  0  0  0  0  0  0
    9.7129   -1.0644   -3.3857 H   0  0  0  0  0  0  0  0  0  0  0  0
    8.8777   -4.1233   -6.1397 H   0  0  0  0  0  0  0  0  0  0  0  0
    8.8886   -2.6713   -6.9995 H   0  0  0  0  0  0  0  0  0  0  0  0
    6.8154   -4.1175   -7.0287 H   0  0  0  0  0  0  0  0  0  0  0  0
   11.4004   -2.3202   -4.2757 H   0  0  0  0  0  0  0  0  0  0  0  0
   10.0920   -4.0182   -2.6992 H   0  0  0  0  0  0  0  0  0  0  0  0
   11.5247   -5.7597   -4.5712 H   0  0  0  0  0  0  0  0  0  0  0  0
    9.5893   -5.5821   -6.5286 H   0  0  0  0  0  0  0  0  0  0  0  0
   11.6128   -6.7679   -6.3423 H   0  0  0  0  0  0  0  0  0  0  0  0
   10.5215   -7.0112   -7.6617 H   0  0  0  0  0  0  0  0  0  0  0  0
    9.5454   -9.0356   -6.5345 H   0  0  0  0  0  0  0  0  0  0  0  0
   10.7955   -8.8871   -5.2870 H   0  0  0  0  0  0  0  0  0  0  0  0
   12.5615   -8.9313   -7.0656 H   0  0  0  0  0  0  0  0  0  0  0  0
   11.3216   -9.0335   -8.3090 H   0  0  0  0  0  0  0  0  0  0  0  0
   10.6250  -11.2729   -7.4494 H   0  0  0  0  0  0  0  0  0  0  0  0
   11.8938  -11.1845   -6.2163 H   0  0  0  0  0  0  0  0  0  0  0  0
   13.6101  -10.8434   -8.0215 H   0  0  0  0  0  0  0  0  0  0  0  0
   12.3452  -10.9344   -9.2445 H   0  0  0  0  0  0  0  0  0  0  0  0
   11.8538  -13.2906   -8.5601 H   0  0  0  0  0  0  0  0  0  0  0  0
   13.1218  -13.1977   -7.3400 H   0  0  0  0  0  0  0  0  0  0  0  0
   14.8186  -12.7121   -9.1401 H   0  0  0  0  0  0  0  0  0  0  0  0
   13.5390  -12.8089  -10.3638 H   0  0  0  0  0  0  0  0  0  0  0  0
   14.3573  -15.1351   -8.4867 H   0  0  0  0  0  0  0  0  0  0  0  0
    6.3913   -5.5423   -3.3290 H   0  0  0  0  0  0  0  0  0  0  0  0
  1  2  1  0  0  0  0
  1 30  1  0  0  0  0
  1 31  1  0  0  0  0
  1 32  1  0  0  0  0
  2  3  1  0  0  0  0
  2 33  1  0  0  0  0
  2 34  1  0  0  0  0
  3  4  1  0  0  0  0
  3 35  1  0  0  0  0
  3 36  1  0  0  0  0
  4  5  1  0  0  0  0
  4 37  1  0  0  0  0
  4 38  1  0  0  0  0
  5  6  1  0  0  0  0
  5 29  1  0  0  0  0
  6  7  1  0  0  0  0
  6  8  2  3  0  0  0
  7 39  1  0  0  0  0
  7 40  1  0  0  0  0
  7 41  1  0  0  0  0
  8  9  1  0  0  0  0
  8 42  1  0  0  0  0
  9 10  2  3  0  0  0
  9 43  1  0  0  0  0
 10 11  1  0  0  0  0
 10 14  1  0  0  0  0
 11 12  1  0  0  0  0
 11 44  1  0  0  0  0
 11 45  1  0  0  0  0
 12 13  2  0  0  0  0
 12 46  1  0  0  0  0
 14 15  2  3  0  0  0
 14 47  1  0  0  0  0
 15 16  1  0  0  0  0
 15 48  1  0  0  0  0
 16 17  2  3  0  0  0
 16 49  1  0  0  0  0
 17 18  1  0  0  0  0
 17 28  1  0  0  0  0
 18 19  1  0  0  0  0
 18 50  1  0  0  0  0
 19 20  1  0  0  0  0
 19 51  1  0  0  0  0
 19 52  1  0  0  0  0
 20 21  1  0  0  0  0
 20 53  1  0  0  0  0
 20 54  1  0  0  0  0
 21 22  1  0  0  0  0
 21 55  1  0  0  0  0
 21 56  1  0  0  0  0
 22 23  1  0  0  0  0
 22 57  1  0  0  0  0
 22 58  1  0  0  0  0
 23 24  1  0  0  0  0
 23 59  1  0  0  0  0
 23 60  1  0  0  0  0
 24 25  1  0  0  0  0
 24 61  1  0  0  0  0
 24 62  1  0  0  0  0
 25 26  1  0  0  0  0
 25 63  1  0  0  0  0
 25 64  1  0  0  0  0
 26 27  2  0  0  0  0
 26 65  1  0  0  0  0
 28 29  2  3  0  0  0
 29 66  1  0  0  0  0
M  END
$$$$
