
 OpenBabel04232216583D

139138  0  0  0  0  0  0  0  0999 V2000
   44.0760   13.2163   33.1052 N   0  0  0  0  0  0  0  0  0  0  0  0
   43.3696   12.1560   32.4433 N   0  0  0  0  0  0  0  0  0  0  0  0
   41.9545   12.5159   32.3097 C   0  0  0  0  0  0  0  0  0  0  0  0
   41.6895   13.7229   31.3964 C   0  0  0  0  0  0  0  0  0  0  0  0
   42.2105   13.5205   29.9723 C   0  0  0  0  0  0  0  0  0  0  0  0
   41.8992   14.7123   29.1658 N   0  0  0  0  0  0  0  0  0  0  0  0
   42.5560   14.5672   27.9031 N   0  0  0  0  0  0  0  0  0  0  0  0
   42.4562   15.7445   27.1330 N   0  0  0  0  0  0  0  0  0  0  0  0
   42.8349   15.4716   25.7661 N   0  0  0  0  0  0  0  0  0  0  0  0
   42.1280   14.4063   25.0918 N   0  0  0  0  0  0  0  0  0  0  0  0
   40.7543   14.6211   24.8214 N   0  0  0  0  0  0  0  0  0  0  0  0
   40.4706   15.7847   24.0635 N   0  0  0  0  0  0  0  0  0  0  0  0
   40.9354   15.6630   22.7197 N   0  0  0  0  0  0  0  0  0  0  0  0
   40.3015   14.5391   22.0729 N   0  0  0  0  0  0  0  0  0  0  0  0
   38.8832   14.7892   21.8163 N   0  0  0  0  0  0  0  0  0  0  0  0
   38.7198   16.1282   21.3402 N   0  0  0  0  0  0  0  0  0  0  0  0
   39.3585   16.1709   20.0664 N   0  0  0  0  0  0  0  0  0  0  0  0
   38.8734   15.0408   19.2730 N   0  0  0  0  0  0  0  0  0  0  0  0
   37.4286   15.0711   19.1791 N   0  0  0  0  0  0  0  0  0  0  0  0
   36.9684   16.2352   18.4921 N   0  0  0  0  0  0  0  0  0  0  0  0
   37.5501   16.2940   17.1889 N   0  0  0  0  0  0  0  0  0  0  0  0
   37.0645   15.2053   16.3897 N   0  0  0  0  0  0  0  0  0  0  0  0
   35.6292   15.2107   16.3336 N   0  0  0  0  0  0  0  0  0  0  0  0
   35.1589   16.3416   15.5788 N   0  0  0  0  0  0  0  0  0  0  0  0
   35.7583   16.3729   14.2631 N   0  0  0  0  0  0  0  0  0  0  0  0
   35.2752   15.1871   13.2197 S   0  0  0  0  0  0  0  0  0  0  0  0
   33.6161   15.1917   13.1756 N   0  0  0  0  0  0  0  0  0  0  0  0
   32.9676   16.5964   12.5654 S   0  0  0  0  0  0  0  0  0  0  0  0
   33.6682   16.8360   11.0902 N   0  0  0  0  0  0  0  0  0  0  0  0
   33.1609   18.2128   10.3253 S   0  0  0  0  0  0  0  0  0  0  0  0
   33.6384   19.5292   11.2321 N   0  0  0  0  0  0  0  0  0  0  0  0
   35.2844   19.6462   11.3214 S   0  0  0  0  0  0  0  0  0  0  0  0
   35.6319   21.0117   12.1807 N   0  0  0  0  0  0  0  0  0  0  0  0
   35.0773   21.0538   13.7309 S   0  0  0  0  0  0  0  0  0  0  0  0
   35.6248   19.7256   14.5297 N   0  0  0  0  0  0  0  0  0  0  0  0
   37.2625   19.6319   14.7368 S   0  0  0  0  0  0  0  0  0  0  0  0
   37.7830   20.9100   15.6305 N   0  0  0  0  0  0  0  0  0  0  0  0
   37.3011   20.9148   17.2191 S   0  0  0  0  0  0  0  0  0  0  0  0
   37.8233   19.5673   18.0463 N   0  0  0  0  0  0  0  0  0  0  0  0
   39.4651   19.4432   18.2251 S   0  0  0  0  0  0  0  0  0  0  0  0
   40.0913   20.7113   19.0572 N   0  0  0  0  0  0  0  0  0  0  0  0
   39.8456   20.7213   20.6800 S   0  0  0  0  0  0  0  0  0  0  0  0
   40.5241   22.1437   21.1983 N   0  0  0  0  0  0  0  0  0  0  0  0
   42.1568   22.0667   21.4671 S   0  0  0  0  0  0  0  0  0  0  0  0
   42.9174   21.9502   20.0065 N   0  0  0  0  0  0  0  0  0  0  0  0
   42.7145   23.2565   19.0084 S   0  0  0  0  0  0  0  0  0  0  0  0
   43.4553   24.5701   19.6510 N   0  0  0  0  0  0  0  0  0  0  0  0
   45.0941   24.5479   19.5345 S   0  0  0  0  0  0  0  0  0  0  0  0
   45.5612   25.8450   20.4452 N   0  0  0  0  0  0  0  0  0  0  0  0
   45.5215   27.2757   19.6063 S   0  0  0  0  0  0  0  0  0  0  0  0
   43.9235   27.6576   19.3730 N   0  0  0  0  0  0  0  0  0  0  0  0
   43.0950   28.0236   20.7566 S   0  0  0  0  0  0  0  0  0  0  0  0
   43.8527   29.2695   21.5126 N   0  0  0  0  0  0  0  0  0  0  0  0
   43.1030   29.5909   22.9464 S   0  0  0  0  0  0  0  0  0  0  0  0
   43.6909   31.0397   23.4842 N   0  0  0  0  0  0  0  0  0  0  0  0
   45.2669   30.9764   23.9960 S   0  0  0  0  0  0  0  0  0  0  0  0
   46.2057   30.6457   22.6708 N   0  0  0  0  0  0  0  0  0  0  0  0
   46.3480   31.8950   21.5858 S   0  0  0  0  0  0  0  0  0  0  0  0
   46.9194   33.2471   22.3324 N   0  0  0  0  0  0  0  0  0  0  0  0
   48.5430   33.2022   22.6201 S   0  0  0  0  0  0  0  0  0  0  0  0
   48.8677   34.6124   23.4302 N   0  0  0  0  0  0  0  0  0  0  0  0
   49.0753   35.9103   22.4186 S   0  0  0  0  0  0  0  0  0  0  0  0
   47.5890   36.2443   21.7765 N   0  0  0  0  0  0  0  0  0  0  0  0
   46.6029   37.0121   22.8620 S   0  0  0  0  0  0  0  0  0  0  0  0
   45.1138   37.0178   22.1403 N   0  0  0  0  0  0  0  0  0  0  0  0
   44.9603   38.2228   21.0115 S   0  0  0  0  0  0  0  0  0  0  0  0
   45.9771   37.8397   19.7527 N   0  0  0  0  0  0  0  0  0  0  0  0
   45.5420   36.4591   18.9436 S   0  0  0  0  0  0  0  0  0  0  0  0
   44.0577   36.7459   18.2808 N   0  0  0  0  0  0  0  0  0  0  0  0
   43.4906   35.4448   17.4317 S   0  0  0  0  0  0  0  0  0  0  0  0
   43.4106   34.1263   18.4332 N   0  0  0  0  0  0  0  0  0  0  0  0
   42.2587   34.1975   19.6222 S   0  0  0  0  0  0  0  0  0  0  0  0
   40.7823   34.4719   18.9101 N   0  0  0  0  0  0  0  0  0  0  0  0
   40.2573   33.1332   18.0751 S   0  0  0  0  0  0  0  0  0  0  0  0
   38.6944   33.3939   17.5921 N   0  0  0  0  0  0  0  0  0  0  0  0
   38.5497   34.7388   16.6326 S   0  0  0  0  0  0  0  0  0  0  0  0
   36.9903   34.8160   16.0867 N   0  0  0  0  0  0  0  0  0  0  0  0
   35.9045   35.0225   17.3199 S   0  0  0  0  0  0  0  0  0  0  0  0
   34.4129   35.2383   16.6387 N   0  0  0  0  0  0  0  0  0  0  0  0
   33.9223   33.9062   15.7989 S   0  0  0  0  0  0  0  0  0  0  0  0
   32.4087   34.2655   15.2676 N   0  0  0  0  0  0  0  0  0  0  0  0
   45.0872   13.0828   33.0546 H   0  0  0  0  0  0  0  0  0  0  0  0
   43.8222   13.3115   34.0895 H   0  0  0  0  0  0  0  0  0  0  0  0
   43.4412   11.2673   32.9484 H   0  0  0  0  0  0  0  0  0  0  0  0
   41.5072   12.6950   33.2951 H   0  0  0  0  0  0  0  0  0  0  0  0
   41.4282   11.6503   31.8868 H   0  0  0  0  0  0  0  0  0  0  0  0
   42.1359   14.6256   31.8315 H   0  0  0  0  0  0  0  0  0  0  0  0
   40.6063   13.8994   31.3617 H   0  0  0  0  0  0  0  0  0  0  0  0
   41.7233   12.6430   29.5273 H   0  0  0  0  0  0  0  0  0  0  0  0
   43.2916   13.3340   29.9879 H   0  0  0  0  0  0  0  0  0  0  0  0
   42.2879   15.5321   29.6289 H   0  0  0  0  0  0  0  0  0  0  0  0
   42.0431   13.9068   27.3037 H   0  0  0  0  0  0  0  0  0  0  0  0
   42.9843   16.5434   27.4855 H   0  0  0  0  0  0  0  0  0  0  0  0
   43.8485   15.3094   25.6946 H   0  0  0  0  0  0  0  0  0  0  0  0
   42.2515   13.4855   25.5183 H   0  0  0  0  0  0  0  0  0  0  0  0
   40.1841   14.6386   25.6530 H   0  0  0  0  0  0  0  0  0  0  0  0
   40.8914   16.5993   24.5190 H   0  0  0  0  0  0  0  0  0  0  0  0
   41.9529   15.5067   22.7767 H   0  0  0  0  0  0  0  0  0  0  0  0
   40.4070   13.7470   22.7248 H   0  0  0  0  0  0  0  0  0  0  0  0
   38.4057   14.7763   22.7066 H   0  0  0  0  0  0  0  0  0  0  0  0
   39.2533   16.6824   22.0221 H   0  0  0  0  0  0  0  0  0  0  0  0
   40.3339   15.9507   20.2257 H   0  0  0  0  0  0  0  0  0  0  0  0
   39.1292   14.2087   19.8344 H   0  0  0  0  0  0  0  0  0  0  0  0
   37.0846   15.1593   20.1348 H   0  0  0  0  0  0  0  0  0  0  0  0
   37.2607   17.0511   19.0350 H   0  0  0  0  0  0  0  0  0  0  0  0
   38.5612   16.1401   17.3512 H   0  0  0  0  0  0  0  0  0  0  0  0
   37.3540   14.3569   16.8892 H   0  0  0  0  0  0  0  0  0  0  0  0
   35.3000   15.2546   17.3133 H   0  0  0  0  0  0  0  0  0  0  0  0
   35.5466   17.1715   16.0560 H   0  0  0  0  0  0  0  0  0  0  0  0
   36.7607   16.3299   14.4558 H   0  0  0  0  0  0  0  0  0  0  0  0
   33.3042   15.0638   14.1401 H   0  0  0  0  0  0  0  0  0  0  0  0
   33.5285   15.9989   10.5232 H   0  0  0  0  0  0  0  0  0  0  0  0
   33.2525   19.4173   12.1687 H   0  0  0  0  0  0  0  0  0  0  0  0
   35.3228   21.8377   11.6715 H   0  0  0  0  0  0  0  0  0  0  0  0
   35.3150   18.8709   14.0666 H   0  0  0  0  0  0  0  0  0  0  0  0
   37.5572   21.7916   15.1657 H   0  0  0  0  0  0  0  0  0  0  0  0
   37.4281   18.7082   17.6436 H   0  0  0  0  0  0  0  0  0  0  0  0
   39.9483   21.6261   18.6316 H   0  0  0  0  0  0  0  0  0  0  0  0
   40.0989   22.4360   22.0765 H   0  0  0  0  0  0  0  0  0  0  0  0
   42.5697   21.1041   19.5505 H   0  0  0  0  0  0  0  0  0  0  0  0
   43.1542   24.8322   20.5883 H   0  0  0  0  0  0  0  0  0  0  0  0
   46.5077   25.6888   20.7865 H   0  0  0  0  0  0  0  0  0  0  0  0
   43.4785   26.8376   18.9472 H   0  0  0  0  0  0  0  0  0  0  0  0
   43.9301   30.1016   20.9328 H   0  0  0  0  0  0  0  0  0  0  0  0
   43.1170   31.3139   24.2843 H   0  0  0  0  0  0  0  0  0  0  0  0
   45.7719   29.8394   22.1936 H   0  0  0  0  0  0  0  0  0  0  0  0
   46.3932   33.4662   23.1749 H   0  0  0  0  0  0  0  0  0  0  0  0
   49.7125   34.4865   23.9850 H   0  0  0  0  0  0  0  0  0  0  0  0
   47.1669   35.3553   21.4909 H   0  0  0  0  0  0  0  0  0  0  0  0
   44.3992   37.1350   22.8600 H   0  0  0  0  0  0  0  0  0  0  0  0
   46.9062   37.6898   20.1498 H   0  0  0  0  0  0  0  0  0  0  0  0
   44.1334   37.5597   17.6802 H   0  0  0  0  0  0  0  0  0  0  0  0
   44.3351   33.9308   18.8346 H   0  0  0  0  0  0  0  0  0  0  0  0
   40.8970   35.2675   18.2850 H   0  0  0  0  0  0  0  0  0  0  0  0
   38.0583   33.4257   18.3897 H   0  0  0  0  0  0  0  0  0  0  0  0
   36.7597   34.0048   15.5050 H   0  0  0  0  0  0  0  0  0  0  0  0
   34.3850   36.0817   16.0705 H   0  0  0  0  0  0  0  0  0  0  0  0
   31.9494   33.4292   14.8983 H   0  0  0  0  0  0  0  0  0  0  0  0
   32.4110   34.9286   14.4927 H   0  0  0  0  0  0  0  0  0  0  0  0
  1  2  1  0  0  0  0
  1 82  1  0  0  0  0
  1 83  1  0  0  0  0
  2  3  1  0  0  0  0
  2 84  1  0  0  0  0
  3  4  1  0  0  0  0
  3 85  1  0  0  0  0
  3 86  1  0  0  0  0
  4  5  1  0  0  0  0
  4 87  1  0  0  0  0
  4 88  1  0  0  0  0
  5  6  1  0  0  0  0
  5 89  1  0  0  0  0
  5 90  1  0  0  0  0
  6  7  1  0  0  0  0
  6 91  1  0  0  0  0
  7  8  1  0  0  0  0
  7 92  1  0  0  0  0
  8  9  1  0  0  0  0
  8 93  1  0  0  0  0
  9 10  1  0  0  0  0
  9 94  1  0  0  0  0
 10 11  1  0  0  0  0
 10 95  1  0  0  0  0
 11 12  1  0  0  0  0
 11 96  1  0  0  0  0
 12 13  1  0  0  0  0
 12 97  1  0  0  0  0
 13 14  1  0  0  0  0
 13 98  1  0  0  0  0
 14 15  1  0  0  0  0
 14 99  1  0  0  0  0
 15 16  1  0  0  0  0
 15100  1  0  0  0  0
 16 17  1  0  0  0  0
 16101  1  0  0  0  0
 17 18  1  0  0  0  0
 17102  1  0  0  0  0
 18 19  1  0  0  0  0
 18103  1  0  0  0  0
 19 20  1  0  0  0  0
 19104  1  0  0  0  0
 20 21  1  0  0  0  0
 20105  1  0  0  0  0
 21 22  1  0  0  0  0
 21106  1  0  0  0  0
 22 23  1  0  0  0  0
 22107  1  0  0  0  0
 23 24  1  0  0  0  0
 23108  1  0  0  0  0
 24 25  1  0  0  0  0
 24109  1  0  0  0  0
 25 26  1  0  0  0  0
 25110  1  0  0  0  0
 26 27  1  0  0  0  0
 27 28  1  0  0  0  0
 27111  1  0  0  0  0
 28 29  1  0  0  0  0
 29 30  1  0  0  0  0
 29112  1  0  0  0  0
 30 31  1  0  0  0  0
 31 32  1  0  0  0  0
 31113  1  0  0  0  0
 32 33  1  0  0  0  0
 33 34  1  0  0  0  0
 33114  1  0  0  0  0
 34 35  1  0  0  0  0
 35 36  1  0  0  0  0
 35115  1  0  0  0  0
 36 37  1  0  0  0  0
 37 38  1  0  0  0  0
 37116  1  0  0  0  0
 38 39  1  0  0  0  0
 39 40  1  0  0  0  0
 39117  1  0  0  0  0
 40 41  1  0  0  0  0
 41 42  1  0  0  0  0
 41118  1  0  0  0  0
 42 43  1  0  0  0  0
 43 44  1  0  0  0  0
 43119  1  0  0  0  0
 44 45  1  0  0  0  0
 45 46  1  0  0  0  0
 45120  1  0  0  0  0
 46 47  1  0  0  0  0
 47 48  1  0  0  0  0
 47121  1  0  0  0  0
 48 49  1  0  0  0  0
 49 50  1  0  0  0  0
 49122  1  0  0  0  0
 50 51  1  0  0  0  0
 51 52  1  0  0  0  0
 51123  1  0  0  0  0
 52 53  1  0  0  0  0
 53 54  1  0  0  0  0
 53124  1  0  0  0  0
 54 55  1  0  0  0  0
 55 56  1  0  0  0  0
 55125  1  0  0  0  0
 56 57  1  0  0  0  0
 57 58  1  0  0  0  0
 57126  1  0  0  0  0
 58 59  1  0  0  0  0
 59 60  1  0  0  0  0
 59127  1  0  0  0  0
 60 61  1  0  0  0  0
 61 62  1  0  0  0  0
 61128  1  0  0  0  0
 62 63  1  0  0  0  0
 63 64  1  0  0  0  0
 63129  1  0  0  0  0
 64 65  1  0  0  0  0
 65 66  1  0  0  0  0
 65130  1  0  0  0  0
 66 67  1  0  0  0  0
 67 68  1  0  0  0  0
 67131  1  0  0  0  0
 68 69  1  0  0  0  0
 69 70  1  0  0  0  0
 69132  1  0  0  0  0
 70 71  1  0  0  0  0
 71 72  1  0  0  0  0
 71133  1  0  0  0  0
 72 73  1  0  0  0  0
 73 74  1  0  0  0  0
 73134  1  0  0  0  0
 74 75  1  0  0  0  0
 75 76  1  0  0  0  0
 75135  1  0  0  0  0
 76 77  1  0  0  0  0
 77 78  1  0  0  0  0
 77136  1  0  0  0  0
 78 79  1  0  0  0  0
 79 80  1  0  0  0  0
 79137  1  0  0  0  0
 80 81  1  0  0  0  0
 81138  1  0  0  0  0
 81139  1  0  0  0  0
M  END
$$$$
