
 OpenBabel04232217003D

175174  0  0  1  0  0  0  0  0999 V2000
    1.0821    0.0262   -0.0598 O   0  0  0  0  0  0  0  0  0  0  0  0
    2.4979    0.0535   -0.0474 C   0  0  3  0  0  0  0  0  0  0  0  0
    2.9995    0.4560    1.3346 C   0  0  0  0  0  0  0  0  0  0  0  0
    2.9863   -1.3374   -0.4389 C   0  0  0  0  0  0  0  0  0  0  0  0
    4.4098   -1.3569   -0.4488 O   0  0  0  0  0  0  0  0  0  0  0  0
    4.8796   -2.6428   -0.8082 C   0  0  0  0  0  0  0  0  0  0  0  0
    6.3971   -2.6245   -0.8006 C   0  0  0  0  0  0  0  0  0  0  0  0
    6.9311   -3.9937   -1.1872 C   0  0  0  0  0  0  0  0  0  0  0  0
    8.4504   -4.0026   -1.1873 C   0  0  0  0  0  0  0  0  0  0  0  0
    8.9632   -5.3808   -1.5763 C   0  0  0  0  0  0  0  0  0  0  0  0
   10.4801   -5.3963   -1.5762 C   0  0  0  0  0  0  0  0  0  0  0  0
   10.9973   -6.7642   -1.9644 C   0  0  0  0  0  0  0  0  0  0  0  0
   12.4117   -6.7016   -1.9405 O   0  0  0  0  0  0  0  0  0  0  0  0
   12.8387   -8.0303   -2.3199 O   0  0  0  0  0  0  0  0  0  0  0  0
   14.2528   -7.9667   -2.2977 C   0  0  0  0  0  0  0  0  0  0  0  0
   14.7700   -9.3329   -2.6876 C   0  0  0  0  0  0  0  0  0  0  0  0
   16.2858   -9.3439   -2.6844 C   0  0  0  0  0  0  0  0  0  0  0  0
   16.7970  -10.7188   -3.0747 C   0  0  0  0  0  0  0  0  0  0  0  0
   18.3147  -10.7264   -3.0726 C   0  0  0  0  0  0  0  0  0  0  0  0
   18.8259  -12.1011   -3.4608 C   0  0  0  0  0  0  0  0  0  0  0  0
   20.3429  -12.1065   -3.4602 C   0  0  0  0  0  0  0  0  0  0  0  0
   20.8524  -13.4816   -3.8464 C   0  0  0  0  0  0  0  0  0  0  0  0
   22.3683  -13.4880   -3.8440 C   0  0  0  0  0  0  0  0  0  0  0  0
   22.8746  -14.8637   -4.2282 C   0  0  0  0  0  0  0  0  0  0  0  0
   24.3887  -14.8658   -4.2267 C   0  0  0  0  0  0  0  0  0  0  0  0
   24.8937  -16.2389   -4.6102 C   0  0  0  0  0  0  0  0  0  0  0  0
   26.4050  -16.2329   -4.6085 C   0  0  0  0  0  0  0  0  0  0  0  0
   26.9001  -17.6053   -4.9919 C   0  0  0  0  0  0  0  0  0  0  0  0
   28.4028  -17.5969   -4.9895 C   0  0  0  0  0  0  0  0  0  0  0  0
   28.8823  -18.9720   -5.3736 C   0  0  0  0  0  0  0  0  0  0  0  0
   30.3749  -18.9519   -5.3680 C   0  0  0  0  0  0  0  0  0  0  0  0
   30.8512  -20.3143   -5.7506 C   0  0  0  0  0  0  0  0  0  0  0  0
   32.2439  -20.1825   -5.7136 O   0  0  0  0  0  0  0  0  0  0  0  0
   32.6798  -21.4703   -6.0754 O   0  0  0  0  0  0  0  0  0  0  0  0
   34.0857  -21.4656   -6.0739 O   0  0  0  0  0  0  0  0  0  0  0  0
   34.5229  -22.7515   -6.4351 O   0  0  0  0  0  0  0  0  0  0  0  0
   35.9258  -22.7400   -6.4341 O   0  0  0  0  0  0  0  0  0  0  0  0
   36.3662  -24.0250   -6.7929 O   0  0  0  0  0  0  0  0  0  0  0  0
   37.7676  -24.0137   -6.7896 O   0  0  0  0  0  0  0  0  0  0  0  0
   38.2059  -25.2997   -7.1513 O   0  0  0  0  0  0  0  0  0  0  0  0
   39.6100  -25.2927   -7.1470 O   0  0  0  0  0  0  0  0  0  0  0  0
   40.0472  -26.5838   -7.5076 O   0  0  0  0  0  0  0  0  0  0  0  0
   41.4362  -26.4556   -7.4698 C   0  0  0  0  0  0  0  0  0  0  0  0
   41.9125  -27.8137   -7.8492 C   0  0  0  0  0  0  0  0  0  0  0  0
   43.4073  -27.7907   -7.8406 C   0  0  0  0  0  0  0  0  0  0  0  0
   43.8879  -29.1608   -8.2234 C   0  0  0  0  0  0  0  0  0  0  0  0
   45.3925  -29.1435   -8.2164 C   0  0  0  0  0  0  0  0  0  0  0  0
   45.8858  -30.5113   -8.5964 C   0  0  0  0  0  0  0  0  0  0  0  0
   47.3878  -30.5179   -8.5981 C   0  0  0  0  0  0  0  0  0  0  0  0
   47.7511  -31.8282   -8.9602 O   0  0  0  0  0  0  0  0  0  0  0  0
   49.1823  -31.8173   -8.9552 O   0  0  0  0  0  0  0  0  0  0  0  0
   49.6480  -33.1219   -9.3155 O   0  0  0  0  0  0  0  0  0  0  0  0
   51.0513  -33.0170   -9.2823 C   0  0  0  0  0  0  0  0  0  0  0  0
   51.5584  -34.3814   -9.6569 C   0  0  0  0  0  0  0  0  0  0  0  0
   53.0629  -34.3803   -9.6543 C   0  0  0  0  0  0  0  0  0  0  0  0
   53.5464  -35.7573  -10.0304 C   0  0  0  0  0  0  0  0  0  0  0  0
   55.0502  -35.7516  -10.0264 C   0  0  0  0  0  0  0  0  0  0  0  0
   55.5221  -37.1263  -10.3996 C   0  0  0  0  0  0  0  0  0  0  0  0
   57.0196  -37.1080  -10.3924 C   0  0  0  0  0  0  0  0  0  0  0  0
   57.4975  -38.4709  -10.7637 C   0  0  0  0  0  0  0  0  0  0  0  0
   58.8747  -38.3630  -10.7504 O   0  0  0  0  0  0  0  0  0  0  0  0
   59.3149  -39.6781  -11.1438 O   0  0  0  0  0  0  0  0  0  0  0  0
   60.7353  -39.7084  -11.1237 O   0  0  0  0  0  0  0  0  0  0  0  0
   61.1603  -39.3145   -9.8005 O   0  0  0  0  0  0  0  0  0  0  0  0
   62.5480  -39.2817   -9.7907 O   0  0  0  0  0  0  0  0  0  0  0  0
   62.9695  -38.9355   -8.4900 O   0  0  0  0  0  0  0  0  0  0  0  0
   64.3792  -38.9289   -8.4879 O   0  0  0  0  0  0  0  0  0  0  0  0
   64.7952  -38.5850   -7.1964 O   0  0  0  0  0  0  0  0  0  0  0  0
   66.1983  -38.5767   -7.1920 O   0  0  0  0  0  0  0  0  0  0  0  0
   66.6215  -38.2300   -5.8897 O   0  0  0  0  0  0  0  0  0  0  0  0
   68.0115  -38.2530   -6.0031 C   0  0  0  0  0  0  0  0  0  0  0  0
   68.4660  -37.8883   -4.6335 C   0  0  0  0  0  0  0  0  0  0  0  0
   69.9605  -37.8803   -4.6313 C   0  0  0  0  0  0  0  0  0  0  0  0
   70.4309  -37.5174   -3.2532 C   0  0  0  0  0  0  0  0  0  0  0  0
   71.8365  -37.5434   -3.3288 O   0  0  0  0  0  0  0  0  0  0  0  0
   72.2914  -37.2003   -2.0029 O   0  0  0  0  0  0  0  0  0  0  0  0
   73.7364  -37.1714   -1.9844 O   0  0  0  0  0  0  0  0  0  0  0  0
   74.2270  -36.1996   -2.9428 O   0  0  0  0  0  0  0  0  0  0  0  0
   73.7463  -34.8664   -2.6094 O   0  0  0  0  0  0  0  0  0  0  0  0
    0.7926    0.9426    0.1653 H   0  0  0  0  0  0  0  0  0  0  0  0
    2.8471    0.7845   -0.7871 H   0  0  0  0  0  0  0  0  0  0  0  0
    2.6451   -0.2500    2.0931 H   0  0  0  0  0  0  0  0  0  0  0  0
    2.6171    1.4364    1.6107 H   0  0  0  0  0  0  0  0  0  0  0  0
    4.0976    0.4881    1.3718 H   0  0  0  0  0  0  0  0  0  0  0  0
    2.6025   -1.5952   -1.4339 H   0  0  0  0  0  0  0  0  0  0  0  0
    2.6002   -2.0824    0.2666 H   0  0  0  0  0  0  0  0  0  0  0  0
    4.5115   -2.9037   -1.8068 H   0  0  0  0  0  0  0  0  0  0  0  0
    4.5124   -3.3875   -0.0884 H   0  0  0  0  0  0  0  0  0  0  0  0
    6.7606   -2.3340    0.1923 H   0  0  0  0  0  0  0  0  0  0  0  0
    6.7614   -1.8573   -1.4944 H   0  0  0  0  0  0  0  0  0  0  0  0
    6.5605   -4.2686   -2.1828 H   0  0  0  0  0  0  0  0  0  0  0  0
    6.5575   -4.7497   -0.4851 H   0  0  0  0  0  0  0  0  0  0  0  0
    8.8255   -3.7330   -0.1927 H   0  0  0  0  0  0  0  0  0  0  0  0
    8.8279   -3.2525   -1.8926 H   0  0  0  0  0  0  0  0  0  0  0  0
    8.5887   -5.6512   -2.5714 H   0  0  0  0  0  0  0  0  0  0  0  0
    8.5838   -6.1326   -0.8730 H   0  0  0  0  0  0  0  0  0  0  0  0
   10.8683   -5.1238   -0.5867 H   0  0  0  0  0  0  0  0  0  0  0  0
   10.8733   -4.6440   -2.2716 H   0  0  0  0  0  0  0  0  0  0  0  0
   10.6614   -7.0357   -2.9717 H   0  0  0  0  0  0  0  0  0  0  0  0
   10.6542   -7.5258   -1.2548 H   0  0  0  0  0  0  0  0  0  0  0  0
   14.5904   -7.6963   -1.2906 H   0  0  0  0  0  0  0  0  0  0  0  0
   14.5954   -7.2047   -3.0071 H   0  0  0  0  0  0  0  0  0  0  0  0
   14.3842   -9.6044   -3.6784 H   0  0  0  0  0  0  0  0  0  0  0  0
   14.3772  -10.0876   -1.9945 H   0  0  0  0  0  0  0  0  0  0  0  0
   16.6594   -9.0764   -1.6883 H   0  0  0  0  0  0  0  0  0  0  0  0
   16.6664   -8.5916   -3.3862 H   0  0  0  0  0  0  0  0  0  0  0  0
   16.4239  -10.9879   -4.0706 H   0  0  0  0  0  0  0  0  0  0  0  0
   16.4191  -11.4718   -2.3722 H   0  0  0  0  0  0  0  0  0  0  0  0
   18.6888  -10.4566   -2.0773 H   0  0  0  0  0  0  0  0  0  0  0  0
   18.6935   -9.9750   -3.7764 H   0  0  0  0  0  0  0  0  0  0  0  0
   18.4520  -12.3725   -4.4558 H   0  0  0  0  0  0  0  0  0  0  0  0
   18.4495  -12.8531   -2.7564 H   0  0  0  0  0  0  0  0  0  0  0  0
   20.7180  -11.8346   -2.4658 H   0  0  0  0  0  0  0  0  0  0  0  0
   20.7205  -11.3562   -4.1658 H   0  0  0  0  0  0  0  0  0  0  0  0
   20.4794  -13.7535   -4.8416 H   0  0  0  0  0  0  0  0  0  0  0  0
   20.4748  -14.2327   -3.1417 H   0  0  0  0  0  0  0  0  0  0  0  0
   22.7435  -13.2162   -2.8496 H   0  0  0  0  0  0  0  0  0  0  0  0
   22.7481  -12.7393   -4.5501 H   0  0  0  0  0  0  0  0  0  0  0  0
   22.5012  -15.1382   -5.2226 H   0  0  0  0  0  0  0  0  0  0  0  0
   22.4988  -15.6141   -3.5217 H   0  0  0  0  0  0  0  0  0  0  0  0
   24.7654  -14.5940   -3.2329 H   0  0  0  0  0  0  0  0  0  0  0  0
   24.7677  -14.1179   -4.9340 H   0  0  0  0  0  0  0  0  0  0  0  0
   24.5223  -16.5160   -5.6047 H   0  0  0  0  0  0  0  0  0  0  0  0
   24.5222  -16.9912   -3.9033 H   0  0  0  0  0  0  0  0  0  0  0  0
   26.7844  -15.9617   -3.6155 H   0  0  0  0  0  0  0  0  0  0  0  0
   26.7844  -15.4863   -5.3172 H   0  0  0  0  0  0  0  0  0  0  0  0
   26.5286  -17.8819   -5.9866 H   0  0  0  0  0  0  0  0  0  0  0  0
   26.5285  -18.3573   -4.2846 H   0  0  0  0  0  0  0  0  0  0  0  0
   28.7893  -17.3294   -3.9973 H   0  0  0  0  0  0  0  0  0  0  0  0
   28.7892  -16.8539   -5.6995 H   0  0  0  0  0  0  0  0  0  0  0  0
   28.5101  -19.2470   -6.3686 H   0  0  0  0  0  0  0  0  0  0  0  0
   28.5101  -19.7229   -4.6653 H   0  0  0  0  0  0  0  0  0  0  0  0
   30.7752  -18.6846   -4.3821 H   0  0  0  0  0  0  0  0  0  0  0  0
   30.7752  -18.2105   -6.0706 H   0  0  0  0  0  0  0  0  0  0  0  0
   30.5258  -20.5949   -6.7584 H   0  0  0  0  0  0  0  0  0  0  0  0
   30.5258  -21.0786   -5.0363 H   0  0  0  0  0  0  0  0  0  0  0  0
   41.7606  -26.1724   -6.4611 H   0  0  0  0  0  0  0  0  0  0  0  0
   41.7630  -25.6902   -8.1841 H   0  0  0  0  0  0  0  0  0  0  0  0
   41.5160  -28.0852   -8.8366 H   0  0  0  0  0  0  0  0  0  0  0  0
   41.5136  -28.5580   -7.1472 H   0  0  0  0  0  0  0  0  0  0  0  0
   43.7745  -27.5141   -6.8444 H   0  0  0  0  0  0  0  0  0  0  0  0
   43.7769  -27.0374   -8.5476 H   0  0  0  0  0  0  0  0  0  0  0  0
   43.5082  -29.4307   -9.2170 H   0  0  0  0  0  0  0  0  0  0  0  0
   43.5057  -29.9070   -7.5151 H   0  0  0  0  0  0  0  0  0  0  0  0
   45.7611  -28.8661   -7.2211 H   0  0  0  0  0  0  0  0  0  0  0  0
   45.7634  -28.3919   -8.9242 H   0  0  0  0  0  0  0  0  0  0  0  0
   45.5087  -30.8003   -9.5860 H   0  0  0  0  0  0  0  0  0  0  0  0
   45.5085  -31.2693   -7.8976 H   0  0  0  0  0  0  0  0  0  0  0  0
   47.7846  -30.2786   -7.6047 H   0  0  0  0  0  0  0  0  0  0  0  0
   47.7846  -29.8025   -9.3277 H   0  0  0  0  0  0  0  0  0  0  0  0
   51.3826  -32.7346   -8.2763 H   0  0  0  0  0  0  0  0  0  0  0  0
   51.3876  -32.2594   -9.9996 H   0  0  0  0  0  0  0  0  0  0  0  0
   51.1707  -34.6651  -10.6441 H   0  0  0  0  0  0  0  0  0  0  0  0
   51.1680  -35.1297   -8.9549 H   0  0  0  0  0  0  0  0  0  0  0  0
   53.4419  -34.1058   -8.6622 H   0  0  0  0  0  0  0  0  0  0  0  0
   53.4446  -33.6392  -10.3672 H   0  0  0  0  0  0  0  0  0  0  0  0
   53.1740  -36.0375  -11.0238 H   0  0  0  0  0  0  0  0  0  0  0  0
   53.1712  -36.5040   -9.3192 H   0  0  0  0  0  0  0  0  0  0  0  0
   55.4326  -35.4770   -9.0352 H   0  0  0  0  0  0  0  0  0  0  0  0
   55.4353  -35.0129  -10.7406 H   0  0  0  0  0  0  0  0  0  0  0  0
   55.1543  -37.4097  -11.3938 H   0  0  0  0  0  0  0  0  0  0  0  0
   55.1516  -37.8740   -9.6873 H   0  0  0  0  0  0  0  0  0  0  0  0
   57.4162  -36.8303   -9.4075 H   0  0  0  0  0  0  0  0  0  0  0  0
   57.4185  -36.3696  -11.0994 H   0  0  0  0  0  0  0  0  0  0  0  0
   57.1631  -38.7586  -11.7691 H   0  0  0  0  0  0  0  0  0  0  0  0
   57.1659  -39.2297  -10.0414 H   0  0  0  0  0  0  0  0  0  0  0  0
   68.3393  -37.5249   -6.7553 H   0  0  0  0  0  0  0  0  0  0  0  0
   68.3480  -39.2549   -6.2975 H   0  0  0  0  0  0  0  0  0  0  0  0
   68.0637  -38.6049   -3.9053 H   0  0  0  0  0  0  0  0  0  0  0  0
   68.0552  -36.9092   -4.3539 H   0  0  0  0  0  0  0  0  0  0  0  0
   70.3452  -37.1664   -5.3712 H   0  0  0  0  0  0  0  0  0  0  0  0
   70.3536  -38.8621   -4.9252 H   0  0  0  0  0  0  0  0  0  0  0  0
   70.0831  -38.2484   -2.5187 H   0  0  0  0  0  0  0  0  0  0  0  0
   70.0777  -36.5190   -2.9734 H   0  0  0  0  0  0  0  0  0  0  0  0
   74.1665  -34.4279   -3.3508 H   0  0  0  0  0  0  0  0  0  0  0  0
  1  2  1  0  0  0  0
  1 80  1  0  0  0  0
  2  3  1  0  0  0  0
  2  4  1  0  0  0  0
  2 81  1  0  0  0  0
  3 82  1  0  0  0  0
  3 83  1  0  0  0  0
  3 84  1  0  0  0  0
  4  5  1  0  0  0  0
  4 85  1  0  0  0  0
  4 86  1  0  0  0  0
  5  6  1  0  0  0  0
  6  7  1  0  0  0  0
  6 87  1  0  0  0  0
  6 88  1  0  0  0  0
  7  8  1  0  0  0  0
  7 89  1  0  0  0  0
  7 90  1  0  0  0  0
  8  9  1  0  0  0  0
  8 91  1  0  0  0  0
  8 92  1  0  0  0  0
  9 10  1  0  0  0  0
  9 93  1  0  0  0  0
  9 94  1  0  0  0  0
 10 11  1  0  0  0  0
 10 95  1  0  0  0  0
 10 96  1  0  0  0  0
 11 12  1  0  0  0  0
 11 97  1  0  0  0  0
 11 98  1  0  0  0  0
 12 13  1  0  0  0  0
 12 99  1  0  0  0  0
 12100  1  0  0  0  0
 13 14  1  0  0  0  0
 14 15  1  0  0  0  0
 15 16  1  0  0  0  0
 15101  1  0  0  0  0
 15102  1  0  0  0  0
 16 17  1  0  0  0  0
 16103  1  0  0  0  0
 16104  1  0  0  0  0
 17 18  1  0  0  0  0
 17105  1  0  0  0  0
 17106  1  0  0  0  0
 18 19  1  0  0  0  0
 18107  1  0  0  0  0
 18108  1  0  0  0  0
 19 20  1  0  0  0  0
 19109  1  0  0  0  0
 19110  1  0  0  0  0
 20 21  1  0  0  0  0
 20111  1  0  0  0  0
 20112  1  0  0  0  0
 21 22  1  0  0  0  0
 21113  1  0  0  0  0
 21114  1  0  0  0  0
 22 23  1  0  0  0  0
 22115  1  0  0  0  0
 22116  1  0  0  0  0
 23 24  1  0  0  0  0
 23117  1  0  0  0  0
 23118  1  0  0  0  0
 24 25  1  0  0  0  0
 24119  1  0  0  0  0
 24120  1  0  0  0  0
 25 26  1  0  0  0  0
 25121  1  0  0  0  0
 25122  1  0  0  0  0
 26 27  1  0  0  0  0
 26123  1  0  0  0  0
 26124  1  0  0  0  0
 27 28  1  0  0  0  0
 27125  1  0  0  0  0
 27126  1  0  0  0  0
 28 29  1  0  0  0  0
 28127  1  0  0  0  0
 28128  1  0  0  0  0
 29 30  1  0  0  0  0
 29129  1  0  0  0  0
 29130  1  0  0  0  0
 30 31  1  0  0  0  0
 30131  1  0  0  0  0
 30132  1  0  0  0  0
 31 32  1  0  0  0  0
 31133  1  0  0  0  0
 31134  1  0  0  0  0
 32 33  1  0  0  0  0
 32135  1  0  0  0  0
 32136  1  0  0  0  0
 33 34  1  0  0  0  0
 34 35  1  0  0  0  0
 35 36  1  0  0  0  0
 36 37  1  0  0  0  0
 37 38  1  0  0  0  0
 38 39  1  0  0  0  0
 39 40  1  0  0  0  0
 40 41  1  0  0  0  0
 41 42  1  0  0  0  0
 42 43  1  0  0  0  0
 43 44  1  0  0  0  0
 43137  1  0  0  0  0
 43138  1  0  0  0  0
 44 45  1  0  0  0  0
 44139  1  0  0  0  0
 44140  1  0  0  0  0
 45 46  1  0  0  0  0
 45141  1  0  0  0  0
 45142  1  0  0  0  0
 46 47  1  0  0  0  0
 46143  1  0  0  0  0
 46144  1  0  0  0  0
 47 48  1  0  0  0  0
 47145  1  0  0  0  0
 47146  1  0  0  0  0
 48 49  1  0  0  0  0
 48147  1  0  0  0  0
 48148  1  0  0  0  0
 49 50  1  0  0  0  0
 49149  1  0  0  0  0
 49150  1  0  0  0  0
 50 51  1  0  0  0  0
 51 52  1  0  0  0  0
 52 53  1  0  0  0  0
 53 54  1  0  0  0  0
 53151  1  0  0  0  0
 53152  1  0  0  0  0
 54 55  1  0  0  0  0
 54153  1  0  0  0  0
 54154  1  0  0  0  0
 55 56  1  0  0  0  0
 55155  1  0  0  0  0
 55156  1  0  0  0  0
 56 57  1  0  0  0  0
 56157  1  0  0  0  0
 56158  1  0  0  0  0
 57 58  1  0  0  0  0
 57159  1  0  0  0  0
 57160  1  0  0  0  0
 58 59  1  0  0  0  0
 58161  1  0  0  0  0
 58162  1  0  0  0  0
 59 60  1  0  0  0  0
 59163  1  0  0  0  0
 59164  1  0  0  0  0
 60 61  1  0  0  0  0
 60165  1  0  0  0  0
 60166  1  0  0  0  0
 61 62  1  0  0  0  0
 62 63  1  0  0  0  0
 63 64  1  0  0  0  0
 64 65  1  0  0  0  0
 65 66  1  0  0  0  0
 66 67  1  0  0  0  0
 67 68  1  0  0  0  0
 68 69  1  0  0  0  0
 69 70  1  0  0  0  0
 70 71  1  0  0  0  0
 71 72  1  0  0  0  0
 71167  1  0  0  0  0
 71168  1  0  0  0  0
 72 73  1  0  0  0  0
 72169  1  0  0  0  0
 72170  1  0  0  0  0
 73 74  1  0  0  0  0
 73171  1  0  0  0  0
 73172  1  0  0  0  0
 74 75  1  0  0  0  0
 74173  1  0  0  0  0
 74174  1  0  0  0  0
 75 76  1  0  0  0  0
 76 77  1  0  0  0  0
 77 78  1  0  0  0  0
 78 79  1  0  0  0  0
 79175  1  0  0  0  0
M  END
$$$$
