
 OpenBabel04232216403D

 48 47  0  0  0  0  0  0  0  0999 V2000
    1.4540   -1.0121    0.2852 C   0  0  0  0  0  0  0  0  0  0  0  0
    2.3127   -0.0595   -0.0919 C   0  0  0  0  0  0  0  0  0  0  0  0
    3.0904   -0.1203   -1.3711 C   0  0  0  0  0  0  0  0  0  0  0  0
    4.5292   -0.1024   -1.0902 N   0  0  0  0  0  0  0  0  0  0  0  0
    5.2434   -0.1659   -2.3534 N   0  0  0  0  0  0  0  0  0  0  0  0
    6.6794   -0.1523   -2.0696 C   0  0  0  0  0  0  0  0  0  0  0  0
    7.4467   -0.2156   -3.3883 C   0  0  0  0  0  0  0  0  0  0  0  0
    8.9493   -0.2047   -3.1323 C   0  0  0  0  0  0  0  0  0  0  0  0
    9.7274   -0.2655   -4.4431 C   0  0  0  0  0  0  0  0  0  0  0  0
   11.2249   -0.2514   -4.1621 C   0  0  0  0  0  0  0  0  0  0  0  0
   11.9621   -0.3100   -5.4201 N   0  0  0  0  0  0  0  0  0  0  0  0
   13.3952   -0.2967   -5.1541 C   0  0  0  0  0  0  0  0  0  0  0  0
   14.1521   -0.3579   -6.4729 C   0  0  0  0  0  0  0  0  0  0  0  0
   15.6539   -0.3448   -6.2110 C   0  0  0  0  0  0  0  0  0  0  0  0
   16.4290   -0.4057   -7.5201 C   0  0  0  0  0  0  0  0  0  0  0  0
   17.9316   -0.3928   -7.2629 C   0  0  0  0  0  0  0  0  0  0  0  0
   18.7014   -0.4535   -8.5694 C   0  0  0  0  0  0  0  0  0  0  0  0
    0.9021   -0.9314    1.2216 H   0  0  0  0  0  0  0  0  0  0  0  0
    1.2807   -1.8936   -0.3275 H   0  0  0  0  0  0  0  0  0  0  0  0
    2.4509    0.8124    0.5438 H   0  0  0  0  0  0  0  0  0  0  0  0
    2.8208    0.7445   -1.9888 H   0  0  0  0  0  0  0  0  0  0  0  0
    2.8286   -1.0314   -1.9238 H   0  0  0  0  0  0  0  0  0  0  0  0
    4.7373   -0.9341   -0.5280 H   0  0  0  0  0  0  0  0  0  0  0  0
    5.0265    0.6492   -2.9367 H   0  0  0  0  0  0  0  0  0  0  0  0
    6.9543   -1.0144   -1.4492 H   0  0  0  0  0  0  0  0  0  0  0  0
    6.9546    0.7606   -1.5266 H   0  0  0  0  0  0  0  0  0  0  0  0
    7.1776    0.6382   -4.0232 H   0  0  0  0  0  0  0  0  0  0  0  0
    7.1746   -1.1261   -3.9373 H   0  0  0  0  0  0  0  0  0  0  0  0
    9.2229   -1.0589   -2.5007 H   0  0  0  0  0  0  0  0  0  0  0  0
    9.2236    0.7042   -2.5826 H   0  0  0  0  0  0  0  0  0  0  0  0
    9.4542    0.5890   -5.0749 H   0  0  0  0  0  0  0  0  0  0  0  0
    9.4570   -1.1762   -4.9923 H   0  0  0  0  0  0  0  0  0  0  0  0
   11.4841   -1.1133   -3.5354 H   0  0  0  0  0  0  0  0  0  0  0  0
   11.4859    0.6600   -3.6103 H   0  0  0  0  0  0  0  0  0  0  0  0
   11.7113    0.4868   -6.0046 H   0  0  0  0  0  0  0  0  0  0  0  0
   13.6702   -1.1597   -4.5357 H   0  0  0  0  0  0  0  0  0  0  0  0
   13.6739    0.6143   -4.6107 H   0  0  0  0  0  0  0  0  0  0  0  0
   13.8789    0.4965   -7.1052 H   0  0  0  0  0  0  0  0  0  0  0  0
   13.8783   -1.2683   -7.0214 H   0  0  0  0  0  0  0  0  0  0  0  0
   15.9257   -1.1984   -5.5778 H   0  0  0  0  0  0  0  0  0  0  0  0
   15.9243    0.5650   -5.6609 H   0  0  0  0  0  0  0  0  0  0  0  0
   16.1529    0.4483   -8.1508 H   0  0  0  0  0  0  0  0  0  0  0  0
   16.1538   -1.3151   -8.0683 H   0  0  0  0  0  0  0  0  0  0  0  0
   18.2105   -1.2468   -6.6345 H   0  0  0  0  0  0  0  0  0  0  0  0
   18.2094    0.5167   -6.7172 H   0  0  0  0  0  0  0  0  0  0  0  0
   18.4591   -1.3675   -9.1211 H   0  0  0  0  0  0  0  0  0  0  0  0
   19.7779   -0.4439   -8.3770 H   0  0  0  0  0  0  0  0  0  0  0  0
   18.4582    0.4048   -9.2040 H   0  0  0  0  0  0  0  0  0  0  0  0
  1  2  2  0  0  0  0
  1 18  1  0  0  0  0
  1 19  1  0  0  0  0
  2  3  1  0  0  0  0
  2 20  1  0  0  0  0
  3  4  1  0  0  0  0
  3 21  1  0  0  0  0
  3 22  1  0  0  0  0
  4  5  1  0  0  0  0
  4 23  1  0  0  0  0
  5  6  1  0  0  0  0
  5 24  1  0  0  0  0
  6  7  1  0  0  0  0
  6 25  1  0  0  0  0
  6 26  1  0  0  0  0
  7  8  1  0  0  0  0
  7 27  1  0  0  0  0
  7 28  1  0  0  0  0
  8  9  1  0  0  0  0
  8 29  1  0  0  0  0
  8 30  1  0  0  0  0
  9 10  1  0  0  0  0
  9 31  1  0  0  0  0
  9 32  1  0  0  0  0
 10 11  1  0  0  0  0
 10 33  1  0  0  0  0
 10 34  1  0  0  0  0
 11 12  1  0  0  0  0
 11 35  1  0  0  0  0
 12 13  1  0  0  0  0
 12 36  1  0  0  0  0
 12 37  1  0  0  0  0
 13 14  1  0  0  0  0
 13 38  1  0  0  0  0
 13 39  1  0  0  0  0
 14 15  1  0  0  0  0
 14 40  1  0  0  0  0
 14 41  1  0  0  0  0
 15 16  1  0  0  0  0
 15 42  1  0  0  0  0
 15 43  1  0  0  0  0
 16 17  1  0  0  0  0
 16 44  1  0  0  0  0
 16 45  1  0  0  0  0
 17 46  1  0  0  0  0
 17 47  1  0  0  0  0
 17 48  1  0  0  0  0
M  END
$$$$
