
 OpenBabel04232216503D

 57 58  0  0  1  0  0  0  0  0999 V2000
    6.7540    1.2427   -0.8377 C   0  0  0  0  0  0  0  0  0  0  0  0
    7.5626    1.3167   -2.2950 C   0  0  0  0  0  0  0  0  0  0  0  0
    6.5428    1.4760   -3.1846 C   0  0  0  0  0  0  0  0  0  0  0  0
    7.0284    1.8881   -4.4967 C   0  0  0  0  0  0  0  0  0  0  0  0
    7.2817    3.2995   -4.5328 C   0  0  0  0  0  0  0  0  0  0  0  0
    8.6271    3.9158   -4.7348 C   0  0  0  0  0  0  0  0  0  0  0  0
    9.1620    5.0022   -4.0775 C   0  0  0  0  0  0  0  0  0  0  0  0
   10.7121    5.8826   -3.7740 C   0  0  0  0  0  0  0  0  0  0  0  0
   12.4336    5.7744   -3.8398 N   0  0  3  0  0  0  0  0  0  0  0  0
   12.7456    4.5089   -3.1331 C   0  0  0  0  0  0  0  0  0  0  0  0
   11.8446    3.5211   -3.7841 C   0  0  0  0  0  0  0  0  0  0  0  0
   11.6257    2.1129   -3.3072 C   0  0  0  0  0  0  0  0  0  0  0  0
   10.5450    1.6232   -4.3472 C   0  0  3  0  0  0  0  0  0  0  0  0
   12.0812    1.6270   -5.5289 C   0  0  0  0  0  0  0  0  0  0  0  0
   12.8233    2.9968   -7.1509 S   0  0  0  0  0  0  0  0  0  0  0  0
   14.7778    3.5777   -7.1299 C   0  0  0  0  0  0  0  0  0  0  0  0
   15.5870    4.5102   -7.8397 C   0  0  0  0  0  0  0  0  0  0  0  0
   15.5483    5.6346   -8.9706 C   0  0  0  0  0  0  0  0  0  0  0  0
   17.0695    4.6399   -7.5278 C   0  0  0  0  0  0  0  0  0  0  0  0
   17.5473    5.7223   -6.8792 C   0  0  0  0  0  0  0  0  0  0  0  0
   16.8355    6.5362   -5.7848 C   0  0  0  0  0  0  0  0  0  0  0  0
   15.1626    6.8031   -5.4832 C   0  0  0  0  0  0  0  0  0  0  0  0
   13.4863    6.1230   -5.0950 C   0  0  0  0  0  0  0  0  0  0  0  0
    9.3373    1.3547   -2.8042 C   0  0  0  0  0  0  0  0  0  0  0  0
    5.7764    1.8078   -0.8863 H   0  0  0  0  0  0  0  0  0  0  0  0
    7.1760    1.6893    0.0725 H   0  0  0  0  0  0  0  0  0  0  0  0
    6.3617    0.2323   -0.6129 H   0  0  0  0  0  0  0  0  0  0  0  0
    5.4736    1.4721   -2.9394 H   0  0  0  0  0  0  0  0  0  0  0  0
    7.6385    1.1333   -4.8785 H   0  0  0  0  0  0  0  0  0  0  0  0
    6.5006    3.8995   -4.0510 H   0  0  0  0  0  0  0  0  0  0  0  0
    9.1784    3.2686   -5.3999 H   0  0  0  0  0  0  0  0  0  0  0  0
    8.4403    5.4192   -3.3572 H   0  0  0  0  0  0  0  0  0  0  0  0
   10.6742    5.4867   -2.7307 H   0  0  0  0  0  0  0  0  0  0  0  0
   10.4542    6.9149   -3.5153 H   0  0  0  0  0  0  0  0  0  0  0  0
   13.7902    4.1958   -3.2216 H   0  0  0  0  0  0  0  0  0  0  0  0
   12.4963    4.5861   -2.0739 H   0  0  0  0  0  0  0  0  0  0  0  0
   12.2045    3.6107   -4.8085 H   0  0  0  0  0  0  0  0  0  0  0  0
   10.8639    3.8346   -3.9984 H   0  0  0  0  0  0  0  0  0  0  0  0
   11.6486    1.3683   -2.5007 H   0  0  0  0  0  0  0  0  0  0  0  0
   12.6813    1.8933   -3.3302 H   0  0  0  0  0  0  0  0  0  0  0  0
   10.4453    0.5467   -4.5172 H   0  0  0  0  0  0  0  0  0  0  0  0
   12.2156    0.6019   -5.9137 H   0  0  0  0  0  0  0  0  0  0  0  0
   12.9957    1.8583   -4.9864 H   0  0  0  0  0  0  0  0  0  0  0  0
   15.3300    3.0106   -6.3878 H   0  0  0  0  0  0  0  0  0  0  0  0
   14.5733    5.9756   -9.2922 H   0  0  0  0  0  0  0  0  0  0  0  0
   16.1623    5.3622   -9.8560 H   0  0  0  0  0  0  0  0  0  0  0  0
   16.0644    6.5772   -8.6602 H   0  0  0  0  0  0  0  0  0  0  0  0
   17.7701    4.1421   -8.2176 H   0  0  0  0  0  0  0  0  0  0  0  0
   18.5654    6.0738   -7.1817 H   0  0  0  0  0  0  0  0  0  0  0  0
   17.4103    6.2918   -4.8809 H   0  0  0  0  0  0  0  0  0  0  0  0
   17.2199    7.5623   -6.0255 H   0  0  0  0  0  0  0  0  0  0  0  0
   14.9431    7.0724   -6.5292 H   0  0  0  0  0  0  0  0  0  0  0  0
   15.2051    7.7590   -4.9445 H   0  0  0  0  0  0  0  0  0  0  0  0
   12.9485    6.9881   -5.4951 H   0  0  0  0  0  0  0  0  0  0  0  0
   13.3844    5.3195   -5.8111 H   0  0  0  0  0  0  0  0  0  0  0  0
    9.6284    2.1379   -2.0843 H   0  0  0  0  0  0  0  0  0  0  0  0
    9.6374    0.3767   -2.4131 H   0  0  0  0  0  0  0  0  0  0  0  0
  1  2  1  0  0  0  0
  1 25  1  0  0  0  0
  1 26  1  0  0  0  0
  1 27  1  0  0  0  0
  2  3  2  3  0  0  0
  2 24  1  0  0  0  0
  3  4  1  0  0  0  0
  3 28  1  0  0  0  0
  4  5  2  3  0  0  0
  4 29  1  0  0  0  0
  5  6  1  0  0  0  0
  5 30  1  0  0  0  0
  6  7  2  3  0  0  0
  6 31  1  0  0  0  0
  7  8  1  0  0  0  0
  7 32  1  0  0  0  0
  8  9  1  0  0  0  0
  8 33  1  0  0  0  0
  8 34  1  0  0  0  0
  9 10  1  0  0  0  0
  9 23  1  0  0  0  0
 10 11  1  0  0  0  0
 10 35  1  0  0  0  0
 10 36  1  0  0  0  0
 11 12  1  0  0  0  0
 11 37  1  0  0  0  0
 11 38  1  0  0  0  0
 12 13  1  0  0  0  0
 12 39  1  0  0  0  0
 12 40  1  0  0  0  0
 13 14  1  0  0  0  0
 13 24  1  0  0  0  0
 13 41  1  0  0  0  0
 14 15  1  0  0  0  0
 14 42  1  0  0  0  0
 14 43  1  0  0  0  0
 15 16  1  0  0  0  0
 16 17  2  3  0  0  0
 16 44  1  0  0  0  0
 17 18  1  0  0  0  0
 17 19  1  0  0  0  0
 18 45  1  0  0  0  0
 18 46  1  0  0  0  0
 18 47  1  0  0  0  0
 19 20  2  3  0  0  0
 19 48  1  0  0  0  0
 20 21  1  0  0  0  0
 20 49  1  0  0  0  0
 21 22  1  0  0  0  0
 21 50  1  0  0  0  0
 21 51  1  0  0  0  0
 22 23  1  0  0  0  0
 22 52  1  0  0  0  0
 22 53  1  0  0  0  0
 23 54  1  0  0  0  0
 23 55  1  0  0  0  0
 24 56  1  0  0  0  0
 24 57  1  0  0  0  0
M  END
$$$$
