
 OpenBabel04232217023D

162161  0  0  0  0  0  0  0  0999 V2000
   25.1661  -20.6492    0.2703 O   0  0  0  0  0  0  0  0  0  0  0  0
   24.4486  -19.7450   -0.5587 O   0  0  0  0  0  0  0  0  0  0  0  0
   24.8909  -19.9715   -1.9174 O   0  0  0  0  0  0  0  0  0  0  0  0
   24.6545  -21.3505   -2.3005 N   0  0  0  0  0  0  0  0  0  0  0  0
   23.2069  -21.4997   -2.1860 C   0  0  0  0  0  0  0  0  0  0  0  0
   22.8462  -22.8699   -2.5413 N   0  0  0  0  0  0  0  0  0  0  0  0
   23.5041  -23.7606   -1.6355 N   0  0  0  0  0  0  0  0  0  0  0  0
   23.0380  -23.5296   -0.3027 N   0  0  0  0  0  0  0  0  0  0  0  0
   23.6939  -24.3810    0.6070 N   0  0  0  0  0  0  0  0  0  0  0  0
   25.1111  -24.2069    0.5648 N   0  0  0  0  0  0  0  0  0  0  0  0
   25.4458  -22.8886    0.9030 N   0  0  0  0  0  0  0  0  0  0  0  0
   24.9932  -22.5639    2.2363 N   0  0  0  0  0  0  0  0  0  0  0  0
   25.5986  -23.4305    3.1701 N   0  0  0  0  0  0  0  0  0  0  0  0
   27.0231  -23.2787    3.1018 N   0  0  0  0  0  0  0  0  0  0  0  0
   27.3719  -21.9231    3.4125 N   0  0  0  0  0  0  0  0  0  0  0  0
   26.8939  -21.6003    4.7233 N   0  0  0  0  0  0  0  0  0  0  0  0
   27.4853  -22.5039    5.6672 N   0  0  0  0  0  0  0  0  0  0  0  0
   28.9120  -22.3712    5.5911 N   0  0  0  0  0  0  0  0  0  0  0  0
   29.2610  -21.0171    5.8800 N   0  0  0  0  0  0  0  0  0  0  0  0
   28.7977  -20.6839    7.1819 N   0  0  0  0  0  0  0  0  0  0  0  0
   29.3739  -21.5515    8.1366 N   0  0  0  0  0  0  0  0  0  0  0  0
   30.7851  -21.4398    8.1215 N   0  0  0  0  0  0  0  0  0  0  0  0
   31.1845  -20.1134    8.4264 N   0  0  0  0  0  0  0  0  0  0  0  0
   30.7371  -19.7458    9.7198 N   0  0  0  0  0  0  0  0  0  0  0  0
   31.2919  -20.6105   10.7012 N   0  0  0  0  0  0  0  0  0  0  0  0
   32.7196  -20.5352   10.6623 N   0  0  0  0  0  0  0  0  0  0  0  0
   33.1296  -19.1785   10.9287 N   0  0  0  0  0  0  0  0  0  0  0  0
   32.6454  -18.7698   12.2381 N   0  0  0  0  0  0  0  0  0  0  0  0
   33.1792  -19.6584   13.2546 N   0  0  0  0  0  0  0  0  0  0  0  0
   34.6170  -19.6106   13.2246 N   0  0  0  0  0  0  0  0  0  0  0  0
   35.0561  -18.2558   13.4692 N   0  0  0  0  0  0  0  0  0  0  0  0
   34.5689  -17.8211   14.7548 N   0  0  0  0  0  0  0  0  0  0  0  0
   35.0670  -18.7150   15.7660 N   0  0  0  0  0  0  0  0  0  0  0  0
   36.5079  -18.6821   15.7290 N   0  0  0  0  0  0  0  0  0  0  0  0
   36.9404  -17.3302   15.9561 N   0  0  0  0  0  0  0  0  0  0  0  0
   36.4611  -16.8922   17.2249 N   0  0  0  0  0  0  0  0  0  0  0  0
   36.9584  -17.7323   18.2568 N   0  0  0  0  0  0  0  0  0  0  0  0
   38.3673  -17.7153   18.2587 N   0  0  0  0  0  0  0  0  0  0  0  0
   38.8283  -16.4012   18.4693 N   0  0  0  0  0  0  0  0  0  0  0  0
   38.3518  -15.9313   19.7179 N   0  0  0  0  0  0  0  0  0  0  0  0
   38.8303  -16.7722   20.7636 N   0  0  0  0  0  0  0  0  0  0  0  0
   40.2582  -16.7843   20.7823 N   0  0  0  0  0  0  0  0  0  0  0  0
   40.7767  -15.4702   20.9959 N   0  0  0  0  0  0  0  0  0  0  0  0
   40.3025  -14.9435   22.2404 N   0  0  0  0  0  0  0  0  0  0  0  0
   40.7341  -15.8023   23.3122 N   0  0  0  0  0  0  0  0  0  0  0  0
   42.1762  -15.8600   23.3272 N   0  0  0  0  0  0  0  0  0  0  0  0
   42.7067  -14.5411   23.5055 N   0  0  0  0  0  0  0  0  0  0  0  0
   42.2024  -14.0030   24.7362 N   0  0  0  0  0  0  0  0  0  0  0  0
   42.6119  -14.8865   25.7897 N   0  0  0  0  0  0  0  0  0  0  0  0
   44.0562  -14.9522   25.7946 N   0  0  0  0  0  0  0  0  0  0  0  0
   44.5995  -13.6266   25.9792 N   0  0  0  0  0  0  0  0  0  0  0  0
   44.1063  -13.0763   27.2113 N   0  0  0  0  0  0  0  0  0  0  0  0
   44.5132  -13.9360   28.2944 N   0  0  0  0  0  0  0  0  0  0  0  0
   45.9495  -14.0194   28.3236 N   0  0  0  0  0  0  0  0  0  0  0  0
   46.5111  -12.7159   28.4740 N   0  0  0  0  0  0  0  0  0  0  0  0
   46.0591  -12.1451   29.7109 N   0  0  0  0  0  0  0  0  0  0  0  0
   46.4655  -12.9613   30.8313 N   0  0  0  0  0  0  0  0  0  0  0  0
   47.8903  -13.0839   30.8702 N   0  0  0  0  0  0  0  0  0  0  0  0
   48.4733  -11.7935   31.0340 N   0  0  0  0  0  0  0  0  0  0  0  0
   48.0098  -11.1985   32.2421 N   0  0  0  0  0  0  0  0  0  0  0  0
   48.3579  -12.0336   33.3396 N   0  0  0  0  0  0  0  0  0  0  0  0
   49.7738  -12.1723   33.3946 N   0  0  0  0  0  0  0  0  0  0  0  0
   50.3651  -10.8914   33.5072 N   0  0  0  0  0  0  0  0  0  0  0  0
   49.9140  -10.2803   34.7041 N   0  0  0  0  0  0  0  0  0  0  0  0
   50.2450  -11.0992   35.8143 N   0  0  0  0  0  0  0  0  0  0  0  0
   51.6596  -11.2572   35.8820 N   0  0  0  0  0  0  0  0  0  0  0  0
   52.2891   -9.9773   35.9946 N   0  0  0  0  0  0  0  0  0  0  0  0
   51.8343   -9.3249   37.1943 N   0  0  0  0  0  0  0  0  0  0  0  0
   52.1520  -10.1429   38.3422 N   0  0  0  0  0  0  0  0  0  0  0  0
   53.5921  -10.3355   38.4074 N   0  0  0  0  0  0  0  0  0  0  0  0
   54.2329   -9.0420   38.5062 N   0  0  0  0  0  0  0  0  0  0  0  0
   53.7422   -8.3707   39.6879 N   0  0  0  0  0  0  0  0  0  0  0  0
   54.0513   -9.1924   40.8496 N   0  0  0  0  0  0  0  0  0  0  0  0
   55.5002   -9.3926   40.9349 N   0  0  0  0  0  0  0  0  0  0  0  0
   56.1609   -8.1024   41.0205 N   0  0  0  0  0  0  0  0  0  0  0  0
   55.6819   -7.4233   42.2009 N   0  0  0  0  0  0  0  0  0  0  0  0
   55.9747   -8.2347   43.3608 N   0  0  0  0  0  0  0  0  0  0  0  0
   57.4018   -8.4505   43.4303 N   0  0  0  0  0  0  0  0  0  0  0  0
   58.0738   -7.1778   43.5300 N   0  0  0  0  0  0  0  0  0  0  0  0
   57.6179   -6.4865   44.6874 N   0  0  0  0  0  0  0  0  0  0  0  0
   57.8855   -7.2666   45.8264 N   0  0  0  0  0  0  0  0  0  0  0  0
   24.7267  -20.4630    1.1119 H   0  0  0  0  0  0  0  0  0  0  0  0
   25.1067  -21.8533   -1.5256 H   0  0  0  0  0  0  0  0  0  0  0  0
   22.7131  -20.8021   -2.8735 H   0  0  0  0  0  0  0  0  0  0  0  0
   22.8235  -21.2564   -1.1771 H   0  0  0  0  0  0  0  0  0  0  0  0
   23.2011  -23.0474   -3.4798 H   0  0  0  0  0  0  0  0  0  0  0  0
   24.5235  -23.6065   -1.6721 H   0  0  0  0  0  0  0  0  0  0  0  0
   22.0141  -23.6061   -0.2749 H   0  0  0  0  0  0  0  0  0  0  0  0
   23.4874  -25.3490    0.3881 H   0  0  0  0  0  0  0  0  0  0  0  0
   25.4647  -24.3770   -0.3721 H   0  0  0  0  0  0  0  0  0  0  0  0
   25.0216  -22.2118    0.2548 H   0  0  0  0  0  0  0  0  0  0  0  0
   23.9790  -22.6529    2.2536 H   0  0  0  0  0  0  0  0  0  0  0  0
   25.3665  -24.3843    2.9089 H   0  0  0  0  0  0  0  0  0  0  0  0
   27.3420  -23.4747    2.1525 H   0  0  0  0  0  0  0  0  0  0  0  0
   26.9300  -21.2929    2.7422 H   0  0  0  0  0  0  0  0  0  0  0  0
   25.8782  -21.6979    4.7532 H   0  0  0  0  0  0  0  0  0  0  0  0
   27.2192  -23.4665    5.4375 H   0  0  0  0  0  0  0  0  0  0  0  0
   29.2522  -22.6166    4.6558 H   0  0  0  0  0  0  0  0  0  0  0  0
   28.8601  -20.3609    5.2025 H   0  0  0  0  0  0  0  0  0  0  0  0
   27.7866  -20.7641    7.2833 H   0  0  0  0  0  0  0  0  0  0  0  0
   29.1526  -22.5315    7.9781 H   0  0  0  0  0  0  0  0  0  0  0  0
   31.1745  -21.6614    7.2110 H   0  0  0  0  0  0  0  0  0  0  0  0
   30.7835  -19.4527    7.7686 H   0  0  0  0  0  0  0  0  0  0  0  0
   29.7272  -19.8291    9.7672 H   0  0  0  0  0  0  0  0  0  0  0  0
   31.0148  -21.5659   10.4840 H   0  0  0  0  0  0  0  0  0  0  0  0
   33.0172  -20.8011    9.7134 H   0  0  0  0  0  0  0  0  0  0  0  0
   32.6992  -18.5911   10.1931 H   0  0  0  0  0  0  0  0  0  0  0  0
   31.6154  -18.8652   12.2060 H   0  0  0  0  0  0  0  0  0  0  0  0
   32.8701  -20.6023   13.0069 H   0  0  0  0  0  0  0  0  0  0  0  0
   34.9100  -19.8813   12.2838 H   0  0  0  0  0  0  0  0  0  0  0  0
   34.6411  -17.6641   12.7475 H   0  0  0  0  0  0  0  0  0  0  0  0
   33.5517  -17.8876   14.7467 H   0  0  0  0  0  0  0  0  0  0  0  0
   34.7345  -19.6609   15.5495 H   0  0  0  0  0  0  0  0  0  0  0  0
   36.8170  -18.9956   14.8000 H   0  0  0  0  0  0  0  0  0  0  0  0
   36.5593  -16.7162   15.2275 H   0  0  0  0  0  0  0  0  0  0  0  0
   35.4437  -16.9158   17.2675 H   0  0  0  0  0  0  0  0  0  0  0  0
   36.6613  -18.6933   18.1202 H   0  0  0  0  0  0  0  0  0  0  0  0
   38.7397  -18.0320   17.3724 H   0  0  0  0  0  0  0  0  0  0  0  0
   38.4891  -15.7807   17.7357 H   0  0  0  0  0  0  0  0  0  0  0  0
   37.3260  -15.9433   19.7222 H   0  0  0  0  0  0  0  0  0  0  0  0
   38.5084  -17.7270   20.5898 H   0  0  0  0  0  0  0  0  0  0  0  0
   40.5888  -17.1099   19.8765 H   0  0  0  0  0  0  0  0  0  0  0  0
   40.4170  -14.8841   20.2468 H   0  0  0  0  0  0  0  0  0  0  0  0
   39.2758  -14.9543   22.1732 H   0  0  0  0  0  0  0  0  0  0  0  0
   40.3347  -16.7355   23.0971 H   0  0  0  0  0  0  0  0  0  0  0  0
   42.4665  -16.2152   22.4062 H   0  0  0  0  0  0  0  0  0  0  0  0
   42.3584  -13.9748   22.7295 H   0  0  0  0  0  0  0  0  0  0  0  0
   41.1795  -14.0035   24.6578 H   0  0  0  0  0  0  0  0  0  0  0  0
   42.2237  -15.8186   25.5870 H   0  0  0  0  0  0  0  0  0  0  0  0
   44.3801  -15.3009   24.8877 H   0  0  0  0  0  0  0  0  0  0  0  0
   44.2944  -13.0160   25.2238 H   0  0  0  0  0  0  0  0  0  0  0  0
   43.0841  -13.0233   27.1728 H   0  0  0  0  0  0  0  0  0  0  0  0
   44.1361  -14.8770   28.1508 H   0  0  0  0  0  0  0  0  0  0  0  0
   46.3112  -14.3876   27.4478 H   0  0  0  0  0  0  0  0  0  0  0  0
   46.2424  -12.0978   27.7016 H   0  0  0  0  0  0  0  0  0  0  0  0
   45.0326  -12.0591   29.7054 H   0  0  0  0  0  0  0  0  0  0  0  0
   46.0867  -13.9033   30.7271 H   0  0  0  0  0  0  0  0  0  0  0  0
   48.2002  -13.5074   29.9868 H   0  0  0  0  0  0  0  0  0  0  0  0
   48.1786  -11.2078   30.2509 H   0  0  0  0  0  0  0  0  0  0  0  0
   46.9920  -11.1239   32.1993 H   0  0  0  0  0  0  0  0  0  0  0  0
   47.9152  -12.9500   33.1901 H   0  0  0  0  0  0  0  0  0  0  0  0
   50.0897  -12.5739   32.5138 H   0  0  0  0  0  0  0  0  0  0  0  0
   50.0837  -10.3353   32.6927 H   0  0  0  0  0  0  0  0  0  0  0  0
   48.9001  -10.2022   34.6855 H   0  0  0  0  0  0  0  0  0  0  0  0
   49.7988  -12.0138   35.6898 H   0  0  0  0  0  0  0  0  0  0  0  0
   51.9767  -11.6772   35.0094 H   0  0  0  0  0  0  0  0  0  0  0  0
   52.0130   -9.4315   35.1650 H   0  0  0  0  0  0  0  0  0  0  0  0
   50.8127   -9.2251   37.1292 H   0  0  0  0  0  0  0  0  0  0  0  0
   51.6779  -11.0521   38.1977 H   0  0  0  0  0  0  0  0  0  0  0  0
   53.8587  -10.7992   37.5196 H   0  0  0  0  0  0  0  0  0  0  0  0
   53.9543   -8.4832   37.6952 H   0  0  0  0  0  0  0  0  0  0  0  0
   52.7193   -8.2729   39.5813 H   0  0  0  0  0  0  0  0  0  0  0  0
   53.5732  -10.1021   40.7261 H   0  0  0  0  0  0  0  0  0  0  0  0
   55.8109   -9.8648   40.0780 H   0  0  0  0  0  0  0  0  0  0  0  0
   55.9171   -7.5507   40.1853 H   0  0  0  0  0  0  0  0  0  0  0  0
   54.6664   -7.2825   42.1061 H   0  0  0  0  0  0  0  0  0  0  0  0
   55.4939   -9.1443   43.2833 H   0  0  0  0  0  0  0  0  0  0  0  0
   57.7353   -8.9417   42.5895 H   0  0  0  0  0  0  0  0  0  0  0  0
   57.8726   -6.6009   42.7079 H   0  0  0  0  0  0  0  0  0  0  0  0
   56.6095   -6.3222   44.6463 H   0  0  0  0  0  0  0  0  0  0  0  0
   58.8851   -7.4446   45.9133 H   0  0  0  0  0  0  0  0  0  0  0  0
   57.4176   -8.1745   45.7934 H   0  0  0  0  0  0  0  0  0  0  0  0
  1  2  1  0  0  0  0
  1 82  1  0  0  0  0
  2  3  1  0  0  0  0
  3  4  1  0  0  0  0
  4  5  1  0  0  0  0
  4 83  1  0  0  0  0
  5  6  1  0  0  0  0
  5 84  1  0  0  0  0
  5 85  1  0  0  0  0
  6  7  1  0  0  0  0
  6 86  1  0  0  0  0
  7  8  1  0  0  0  0
  7 87  1  0  0  0  0
  8  9  1  0  0  0  0
  8 88  1  0  0  0  0
  9 10  1  0  0  0  0
  9 89  1  0  0  0  0
 10 11  1  0  0  0  0
 10 90  1  0  0  0  0
 11 12  1  0  0  0  0
 11 91  1  0  0  0  0
 12 13  1  0  0  0  0
 12 92  1  0  0  0  0
 13 14  1  0  0  0  0
 13 93  1  0  0  0  0
 14 15  1  0  0  0  0
 14 94  1  0  0  0  0
 15 16  1  0  0  0  0
 15 95  1  0  0  0  0
 16 17  1  0  0  0  0
 16 96  1  0  0  0  0
 17 18  1  0  0  0  0
 17 97  1  0  0  0  0
 18 19  1  0  0  0  0
 18 98  1  0  0  0  0
 19 20  1  0  0  0  0
 19 99  1  0  0  0  0
 20 21  1  0  0  0  0
 20100  1  0  0  0  0
 21 22  1  0  0  0  0
 21101  1  0  0  0  0
 22 23  1  0  0  0  0
 22102  1  0  0  0  0
 23 24  1  0  0  0  0
 23103  1  0  0  0  0
 24 25  1  0  0  0  0
 24104  1  0  0  0  0
 25 26  1  0  0  0  0
 25105  1  0  0  0  0
 26 27  1  0  0  0  0
 26106  1  0  0  0  0
 27 28  1  0  0  0  0
 27107  1  0  0  0  0
 28 29  1  0  0  0  0
 28108  1  0  0  0  0
 29 30  1  0  0  0  0
 29109  1  0  0  0  0
 30 31  1  0  0  0  0
 30110  1  0  0  0  0
 31 32  1  0  0  0  0
 31111  1  0  0  0  0
 32 33  1  0  0  0  0
 32112  1  0  0  0  0
 33 34  1  0  0  0  0
 33113  1  0  0  0  0
 34 35  1  0  0  0  0
 34114  1  0  0  0  0
 35 36  1  0  0  0  0
 35115  1  0  0  0  0
 36 37  1  0  0  0  0
 36116  1  0  0  0  0
 37 38  1  0  0  0  0
 37117  1  0  0  0  0
 38 39  1  0  0  0  0
 38118  1  0  0  0  0
 39 40  1  0  0  0  0
 39119  1  0  0  0  0
 40 41  1  0  0  0  0
 40120  1  0  0  0  0
 41 42  1  0  0  0  0
 41121  1  0  0  0  0
 42 43  1  0  0  0  0
 42122  1  0  0  0  0
 43 44  1  0  0  0  0
 43123  1  0  0  0  0
 44 45  1  0  0  0  0
 44124  1  0  0  0  0
 45 46  1  0  0  0  0
 45125  1  0  0  0  0
 46 47  1  0  0  0  0
 46126  1  0  0  0  0
 47 48  1  0  0  0  0
 47127  1  0  0  0  0
 48 49  1  0  0  0  0
 48128  1  0  0  0  0
 49 50  1  0  0  0  0
 49129  1  0  0  0  0
 50 51  1  0  0  0  0
 50130  1  0  0  0  0
 51 52  1  0  0  0  0
 51131  1  0  0  0  0
 52 53  1  0  0  0  0
 52132  1  0  0  0  0
 53 54  1  0  0  0  0
 53133  1  0  0  0  0
 54 55  1  0  0  0  0
 54134  1  0  0  0  0
 55 56  1  0  0  0  0
 55135  1  0  0  0  0
 56 57  1  0  0  0  0
 56136  1  0  0  0  0
 57 58  1  0  0  0  0
 57137  1  0  0  0  0
 58 59  1  0  0  0  0
 58138  1  0  0  0  0
 59 60  1  0  0  0  0
 59139  1  0  0  0  0
 60 61  1  0  0  0  0
 60140  1  0  0  0  0
 61 62  1  0  0  0  0
 61141  1  0  0  0  0
 62 63  1  0  0  0  0
 62142  1  0  0  0  0
 63 64  1  0  0  0  0
 63143  1  0  0  0  0
 64 65  1  0  0  0  0
 64144  1  0  0  0  0
 65 66  1  0  0  0  0
 65145  1  0  0  0  0
 66 67  1  0  0  0  0
 66146  1  0  0  0  0
 67 68  1  0  0  0  0
 67147  1  0  0  0  0
 68 69  1  0  0  0  0
 68148  1  0  0  0  0
 69 70  1  0  0  0  0
 69149  1  0  0  0  0
 70 71  1  0  0  0  0
 70150  1  0  0  0  0
 71 72  1  0  0  0  0
 71151  1  0  0  0  0
 72 73  1  0  0  0  0
 72152  1  0  0  0  0
 73 74  1  0  0  0  0
 73153  1  0  0  0  0
 74 75  1  0  0  0  0
 74154  1  0  0  0  0
 75 76  1  0  0  0  0
 75155  1  0  0  0  0
 76 77  1  0  0  0  0
 76156  1  0  0  0  0
 77 78  1  0  0  0  0
 77157  1  0  0  0  0
 78 79  1  0  0  0  0
 78158  1  0  0  0  0
 79 80  1  0  0  0  0
 79159  1  0  0  0  0
 80 81  1  0  0  0  0
 80160  1  0  0  0  0
 81161  1  0  0  0  0
 81162  1  0  0  0  0
M  END
$$$$
