
 OpenBabel04232216483D

 66 68  0  0  0  0  0  0  0  0999 V2000
   10.0360   -7.8791    7.3651 C   0  0  0  0  0  0  0  0  0  0  0  0
    8.8666   -6.9583    7.0870 C   0  0  0  0  0  0  0  0  0  0  0  0
    8.2216   -6.3982    8.1240 C   0  0  0  0  0  0  0  0  0  0  0  0
    6.9780   -5.6565    8.2279 C   0  0  0  0  0  0  0  0  0  0  0  0
    6.8067   -4.3625    8.5835 C   0  0  0  0  0  0  0  0  0  0  0  0
    7.8138   -3.3557    8.5912 N   0  0  0  0  0  0  0  0  0  0  0  0
    8.7335   -3.2381    9.7501 C   0  0  0  0  0  0  0  0  0  0  0  0
    8.2227   -2.1886   10.7461 C   0  0  0  0  0  0  0  0  0  0  0  0
    9.1650   -2.0042   11.9395 C   0  0  0  0  0  0  0  0  0  0  0  0
    8.6294   -0.9610   12.9127 C   0  0  0  0  0  0  0  0  0  0  0  0
    5.4322   -3.9055    9.0970 C   0  0  0  0  0  0  0  0  0  0  0  0
    4.1590   -4.5444    8.5330 C   0  0  0  0  0  0  0  0  0  0  0  0
    2.9064   -3.8190    9.0617 C   0  0  0  0  0  0  0  0  0  0  0  0
    2.0016   -3.2230    7.9733 C   0  0  0  0  0  0  0  0  0  0  0  0
    2.2773   -1.7426    7.6769 C   0  0  0  0  0  0  0  0  0  0  0  0
    3.4771   -1.4984    6.7563 C   0  0  0  0  0  0  0  0  0  0  0  0
    3.8535   -0.0069    6.6993 C   0  0  0  0  0  0  0  0  0  0  0  0
    5.2958    0.3992    6.8672 C   0  0  0  0  0  0  0  0  0  0  0  0
    5.7339    1.6698    6.7671 C   0  0  0  0  0  0  0  0  0  0  0  0
    7.1113    1.6616    6.2743 C   0  0  0  0  0  0  0  0  0  0  0  0
    7.4870    0.3912    5.9836 C   0  0  0  0  0  0  0  0  0  0  0  0
    6.4876   -0.4172    6.6824 C   0  0  0  0  0  0  0  0  0  0  0  0
    6.8625   -1.3809    7.5420 C   0  0  0  0  0  0  0  0  0  0  0  0
    7.8965   -2.4115    7.5367 C   0  0  0  0  0  0  0  0  0  0  0  0
    8.6897   -2.6160    6.4622 C   0  0  0  0  0  0  0  0  0  0  0  0
    9.3536   -3.8807    6.2268 C   0  0  0  0  0  0  0  0  0  0  0  0
    9.1576   -4.4992    5.0542 C   0  0  0  0  0  0  0  0  0  0  0  0
    9.0615   -5.9211    4.8143 C   0  0  0  0  0  0  0  0  0  0  0  0
    8.6543   -6.8904    5.6540 C   0  0  0  0  0  0  0  0  0  0  0  0
   10.9564   -7.2948    7.4669 H   0  0  0  0  0  0  0  0  0  0  0  0
   10.1840   -8.6014    6.5554 H   0  0  0  0  0  0  0  0  0  0  0  0
    9.8773   -8.4655    8.2750 H   0  0  0  0  0  0  0  0  0  0  0  0
    8.6229   -6.6063    9.1185 H   0  0  0  0  0  0  0  0  0  0  0  0
    6.1261   -6.3308    8.2467 H   0  0  0  0  0  0  0  0  0  0  0  0
    9.7343   -2.9552    9.3953 H   0  0  0  0  0  0  0  0  0  0  0  0
    8.8463   -4.2048   10.2544 H   0  0  0  0  0  0  0  0  0  0  0  0
    7.2310   -2.4774   11.1103 H   0  0  0  0  0  0  0  0  0  0  0  0
    8.1087   -1.2225   10.2426 H   0  0  0  0  0  0  0  0  0  0  0  0
   10.1562   -1.6954   11.5843 H   0  0  0  0  0  0  0  0  0  0  0  0
    9.2972   -2.9589   12.4614 H   0  0  0  0  0  0  0  0  0  0  0  0
    8.5062    0.0039   12.4185 H   0  0  0  0  0  0  0  0  0  0  0  0
    9.3354   -0.8350   13.7448 H   0  0  0  0  0  0  0  0  0  0  0  0
    7.6686   -1.2743   13.3295 H   0  0  0  0  0  0  0  0  0  0  0  0
    5.2999   -2.8435    8.9369 H   0  0  0  0  0  0  0  0  0  0  0  0
    5.4395   -4.0113   10.1908 H   0  0  0  0  0  0  0  0  0  0  0  0
    4.1096   -5.5886    8.8599 H   0  0  0  0  0  0  0  0  0  0  0  0
    4.1884   -4.5447    7.4387 H   0  0  0  0  0  0  0  0  0  0  0  0
    3.1676   -3.0439    9.7938 H   0  0  0  0  0  0  0  0  0  0  0  0
    2.3147   -4.5566    9.6185 H   0  0  0  0  0  0  0  0  0  0  0  0
    0.9706   -3.2824    8.3474 H   0  0  0  0  0  0  0  0  0  0  0  0
    2.0284   -3.8215    7.0557 H   0  0  0  0  0  0  0  0  0  0  0  0
    2.4080   -1.2017    8.6216 H   0  0  0  0  0  0  0  0  0  0  0  0
    1.3853   -1.3169    7.1980 H   0  0  0  0  0  0  0  0  0  0  0  0
    3.1971   -1.8321    5.7463 H   0  0  0  0  0  0  0  0  0  0  0  0
    4.3166   -2.1228    7.0516 H   0  0  0  0  0  0  0  0  0  0  0  0
    3.2335    0.5791    7.3881 H   0  0  0  0  0  0  0  0  0  0  0  0
    3.5648    0.3359    5.6906 H   0  0  0  0  0  0  0  0  0  0  0  0
    5.1112    2.5512    6.7478 H   0  0  0  0  0  0  0  0  0  0  0  0
    7.8136    2.3449    6.7435 H   0  0  0  0  0  0  0  0  0  0  0  0
    7.5610    0.1125    4.9281 H   0  0  0  0  0  0  0  0  0  0  0  0
    6.2733   -1.3829    8.4541 H   0  0  0  0  0  0  0  0  0  0  0  0
    8.6428   -1.9441    5.6014 H   0  0  0  0  0  0  0  0  0  0  0  0
    9.6753   -4.4300    7.1022 H   0  0  0  0  0  0  0  0  0  0  0  0
    8.7865   -3.9221    4.2068 H   0  0  0  0  0  0  0  0  0  0  0  0
    9.1281   -6.1822    3.7580 H   0  0  0  0  0  0  0  0  0  0  0  0
    8.4235   -7.8581    5.2059 H   0  0  0  0  0  0  0  0  0  0  0  0
  1  2  1  0  0  0  0
  1 30  1  0  0  0  0
  1 31  1  0  0  0  0
  1 32  1  0  0  0  0
  2  3  2  3  0  0  0
  2 29  1  0  0  0  0
  3  4  1  0  0  0  0
  3 33  1  0  0  0  0
  4  5  2  3  0  0  0
  4 34  1  0  0  0  0
  5  6  1  0  0  0  0
  5 11  1  0  0  0  0
  6  7  1  0  0  0  0
  6 24  1  0  0  0  0
  7  8  1  0  0  0  0
  7 35  1  0  0  0  0
  7 36  1  0  0  0  0
  8  9  1  0  0  0  0
  8 37  1  0  0  0  0
  8 38  1  0  0  0  0
  9 10  1  0  0  0  0
  9 39  1  0  0  0  0
  9 40  1  0  0  0  0
 10 41  1  0  0  0  0
 10 42  1  0  0  0  0
 10 43  1  0  0  0  0
 11 12  1  0  0  0  0
 11 44  1  0  0  0  0
 11 45  1  0  0  0  0
 12 13  1  0  0  0  0
 12 46  1  0  0  0  0
 12 47  1  0  0  0  0
 13 14  1  0  0  0  0
 13 48  1  0  0  0  0
 13 49  1  0  0  0  0
 14 15  1  0  0  0  0
 14 50  1  0  0  0  0
 14 51  1  0  0  0  0
 15 16  1  0  0  0  0
 15 52  1  0  0  0  0
 15 53  1  0  0  0  0
 16 17  1  0  0  0  0
 16 54  1  0  0  0  0
 16 55  1  0  0  0  0
 17 18  1  0  0  0  0
 17 56  1  0  0  0  0
 17 57  1  0  0  0  0
 18 19  2  0  0  0  0
 18 22  1  0  0  0  0
 19 20  1  0  0  0  0
 19 58  1  0  0  0  0
 20 21  2  0  0  0  0
 20 59  1  0  0  0  0
 21 22  1  0  0  0  0
 21 60  1  0  0  0  0
 22 23  2  3  0  0  0
 23 24  1  0  0  0  0
 23 61  1  0  0  0  0
 24 25  2  3  0  0  0
 25 26  1  0  0  0  0
 25 62  1  0  0  0  0
 26 27  2  3  0  0  0
 26 63  1  0  0  0  0
 27 28  1  0  0  0  0
 27 64  1  0  0  0  0
 28 29  2  3  0  0  0
 28 65  1  0  0  0  0
 29 66  1  0  0  0  0
M  END
$$$$
