
 OpenBabel04232216473D

 44 45  0  0  0  0  0  0  0  0999 V2000
   15.6960   10.2095   12.1698 C   0  0  0  0  0  0  0  0  0  0  0  0
   14.4966   10.7005   11.4105 C   0  0  0  0  0  0  0  0  0  0  0  0
   14.2085   12.0325   11.4431 C   0  0  0  0  0  0  0  0  0  0  0  0
   13.8584   12.5487   12.8100 C   0  0  0  0  0  0  0  0  0  0  0  0
   12.5494   12.6948   13.1124 C   0  0  0  0  0  0  0  0  0  0  0  0
   11.6858   13.4137   12.0899 C   0  0  0  0  0  0  0  0  0  0  0  0
   12.0097   11.6202   13.9954 C   0  0  0  0  0  0  0  0  0  0  0  0
   12.7775   11.0971   15.2235 C   0  0  0  0  0  0  0  0  0  0  0  0
   13.2852   11.9794   16.3540 C   0  0  0  0  0  0  0  0  0  0  0  0
   12.2052   12.7777   17.0458 C   0  0  0  0  0  0  0  0  0  0  0  0
   11.1783   10.7307   13.3920 C   0  0  0  0  0  0  0  0  0  0  0  0
   11.4633    9.3087   13.5224 C   0  0  0  0  0  0  0  0  0  0  0  0
   10.7663    8.3119   12.9688 C   0  0  0  0  0  0  0  0  0  0  0  0
   11.5604    7.1492   12.5225 C   0  0  0  0  0  0  0  0  0  0  0  0
   12.0917    7.3169   11.2888 C   0  0  0  0  0  0  0  0  0  0  0  0
   11.2364    7.7364   10.1288 C   0  0  0  0  0  0  0  0  0  0  0  0
   11.5087    9.1641    9.6559 C   0  0  0  0  0  0  0  0  0  0  0  0
   10.8613    9.5538    8.6753 O   0  0  0  0  0  0  0  0  0  0  0  0
   12.3587   10.0366   10.3074 N   0  0  0  0  0  0  0  0  0  0  0  0
   13.4261    7.1767   11.0064 N   0  0  0  0  0  0  0  0  0  0  0  0
   14.0619    8.2654   10.6890 C   0  0  0  0  0  0  0  0  0  0  0  0
   13.5224    9.6991   10.7836 C   0  0  0  0  0  0  0  0  0  0  0  0
   15.3870    9.5818   13.0162 H   0  0  0  0  0  0  0  0  0  0  0  0
   16.2663   11.0485   12.6016 H   0  0  0  0  0  0  0  0  0  0  0  0
   16.3882    9.6645   11.5329 H   0  0  0  0  0  0  0  0  0  0  0  0
   15.0609   12.6905   11.2171 H   0  0  0  0  0  0  0  0  0  0  0  0
   14.5297   12.1590   13.5738 H   0  0  0  0  0  0  0  0  0  0  0  0
   11.9714   14.4754   12.0665 H   0  0  0  0  0  0  0  0  0  0  0  0
   10.6179   13.3712   12.3098 H   0  0  0  0  0  0  0  0  0  0  0  0
   11.8355   13.0278   11.0736 H   0  0  0  0  0  0  0  0  0  0  0  0
   13.6439   10.5237   14.8678 H   0  0  0  0  0  0  0  0  0  0  0  0
   12.1220   10.3692   15.7265 H   0  0  0  0  0  0  0  0  0  0  0  0
   14.0933   12.6293   16.0107 H   0  0  0  0  0  0  0  0  0  0  0  0
   13.7290   11.3030   17.1007 H   0  0  0  0  0  0  0  0  0  0  0  0
   11.7874   13.5376   16.3822 H   0  0  0  0  0  0  0  0  0  0  0  0
   12.6258   13.2798   17.9235 H   0  0  0  0  0  0  0  0  0  0  0  0
   11.3911   12.1305   17.3924 H   0  0  0  0  0  0  0  0  0  0  0  0
   10.6632   10.9819   12.4633 H   0  0  0  0  0  0  0  0  0  0  0  0
   12.4810    9.0581   13.8260 H   0  0  0  0  0  0  0  0  0  0  0  0
    9.7648    8.4440   12.5732 H   0  0  0  0  0  0  0  0  0  0  0  0
   10.8849    6.2926   12.6321 H   0  0  0  0  0  0  0  0  0  0  0  0
   10.1692    7.6515   10.3752 H   0  0  0  0  0  0  0  0  0  0  0  0
   11.4035    7.0511    9.2872 H   0  0  0  0  0  0  0  0  0  0  0  0
   15.0873    8.2030   10.3088 H   0  0  0  0  0  0  0  0  0  0  0  0
  1  2  1  0  0  0  0
  1 23  1  0  0  0  0
  1 24  1  0  0  0  0
  1 25  1  0  0  0  0
  2  3  2  3  0  0  0
  2 22  1  0  0  0  0
  3  4  1  0  0  0  0
  3 26  1  0  0  0  0
  4  5  2  3  0  0  0
  4 27  1  0  0  0  0
  5  6  1  0  0  0  0
  5  7  1  0  0  0  0
  6 28  1  0  0  0  0
  6 29  1  0  0  0  0
  6 30  1  0  0  0  0
  7  8  1  0  0  0  0
  7 11  2  3  0  0  0
  8  9  1  0  0  0  0
  8 31  1  0  0  0  0
  8 32  1  0  0  0  0
  9 10  1  0  0  0  0
  9 33  1  0  0  0  0
  9 34  1  0  0  0  0
 10 35  1  0  0  0  0
 10 36  1  0  0  0  0
 10 37  1  0  0  0  0
 11 12  1  0  0  0  0
 11 38  1  0  0  0  0
 12 13  2  3  0  0  0
 12 39  1  0  0  0  0
 13 14  1  0  0  0  0
 13 40  1  0  0  0  0
 14 15  2  3  0  0  0
 14 41  1  0  0  0  0
 15 16  1  0  0  0  0
 15 20  1  0  0  0  0
 16 17  1  0  0  0  0
 16 42  1  0  0  0  0
 16 43  1  0  0  0  0
 17 18  2  0  0  0  0
 17 19  1  0  0  0  0
 19 22  2  0  0  0  0
 20 21  2  0  0  0  0
 21 22  1  0  0  0  0
 21 44  1  0  0  0  0
M  END
$$$$
