
 OpenBabel04232216463D

 40 42  0  0  0  0  0  0  0  0999 V2000
    1.0854   -0.5321    0.0671 C   0  0  0  0  0  0  0  0  0  0  0  0
    2.5887   -0.5818   -0.0265 C   0  0  0  0  0  0  0  0  0  0  0  0
    3.3149    0.6930   -0.0190 C   0  0  0  0  0  0  0  0  0  0  0  0
    4.6658    0.7503   -0.0957 C   0  0  0  0  0  0  0  0  0  0  0  0
    5.3667    2.0889    0.0442 C   0  0  0  0  0  0  0  0  0  0  0  0
    6.1479    2.6749   -1.1370 C   0  0  0  0  0  0  0  0  0  0  0  0
    6.8731    1.8619   -1.9589 N   0  0  0  0  0  0  0  0  0  0  0  0
    6.5176    1.8437   -3.2070 C   0  0  0  0  0  0  0  0  0  0  0  0
    7.2768    0.9673   -4.1749 C   0  0  0  0  0  0  0  0  0  0  0  0
    5.4182    2.4817   -3.7361 N   0  0  0  0  0  0  0  0  0  0  0  0
    5.3736    3.7403   -3.8103 N   0  0  0  0  0  0  0  0  0  0  0  0
    6.4679    4.4948   -3.4371 C   0  0  0  0  0  0  0  0  0  0  0  0
    7.0178    5.3995   -4.5100 C   0  0  0  0  0  0  0  0  0  0  0  0
    6.9653    4.5541   -2.2380 N   0  0  0  0  0  0  0  0  0  0  0  0
    6.1762    3.9731   -1.2337 N   0  0  0  0  0  0  0  0  0  0  0  0
    5.3998   -0.4547   -0.1575 N   0  0  0  0  0  0  0  0  0  0  0  0
    6.8295   -0.5376    0.1609 C   0  0  0  0  0  0  0  0  0  0  0  0
    4.7137   -1.6799   -0.1763 N   0  0  0  0  0  0  0  0  0  0  0  0
    5.3939   -2.7794   -0.6567 N   0  0  0  0  0  0  0  0  0  0  0  0
    5.4058   -3.6265    0.2662 N   0  0  0  0  0  0  0  0  0  0  0  0
    4.8290   -4.8229   -0.1776 N   0  0  0  0  0  0  0  0  0  0  0  0
    3.5764   -4.9013   -0.0104 N   0  0  0  0  0  0  0  0  0  0  0  0
    2.9995   -3.7996    0.6508 N   0  0  0  0  0  0  0  0  0  0  0  0
    2.5904   -2.9528   -0.1790 N   0  0  0  0  0  0  0  0  0  0  0  0
    3.2850   -1.7474   -0.1120 C   0  0  0  0  0  0  0  0  0  0  0  0
    0.7078    0.4967    0.0754 H   0  0  0  0  0  0  0  0  0  0  0  0
    0.7422   -1.0094    0.9908 H   0  0  0  0  0  0  0  0  0  0  0  0
    0.6247   -1.0383   -0.7850 H   0  0  0  0  0  0  0  0  0  0  0  0
    2.7238    1.5974    0.1044 H   0  0  0  0  0  0  0  0  0  0  0  0
    6.0459    2.0673    0.9044 H   0  0  0  0  0  0  0  0  0  0  0  0
    4.6193    2.8517    0.3108 H   0  0  0  0  0  0  0  0  0  0  0  0
    8.2192    0.6277   -3.7331 H   0  0  0  0  0  0  0  0  0  0  0  0
    7.4921    1.5259   -5.0892 H   0  0  0  0  0  0  0  0  0  0  0  0
    6.6663    0.0950   -4.4235 H   0  0  0  0  0  0  0  0  0  0  0  0
    6.4790    5.2655   -5.4521 H   0  0  0  0  0  0  0  0  0  0  0  0
    8.0828    5.2157   -4.6661 H   0  0  0  0  0  0  0  0  0  0  0  0
    6.8853    6.4384   -4.1866 H   0  0  0  0  0  0  0  0  0  0  0  0
    7.1584    0.2733    0.8139 H   0  0  0  0  0  0  0  0  0  0  0  0
    7.4204   -0.5212   -0.7591 H   0  0  0  0  0  0  0  0  0  0  0  0
    7.0685   -1.4597    0.7023 H   0  0  0  0  0  0  0  0  0  0  0  0
  1  2  1  0  0  0  0
  1 26  1  0  0  0  0
  1 27  1  0  0  0  0
  1 28  1  0  0  0  0
  2  3  1  0  0  0  0
  2 25  2  0  0  0  0
  3  4  2  0  0  0  0
  3 29  1  0  0  0  0
  4  5  1  0  0  0  0
  4 16  1  0  0  0  0
  5  6  1  0  0  0  0
  5 30  1  0  0  0  0
  5 31  1  0  0  0  0
  6  7  1  0  0  0  0
  6 15  2  0  0  0  0
  7  8  2  0  0  0  0
  8  9  1  0  0  0  0
  8 10  1  0  0  0  0
  9 32  1  0  0  0  0
  9 33  1  0  0  0  0
  9 34  1  0  0  0  0
 10 11  2  0  0  0  0
 11 12  1  0  0  0  0
 12 13  1  0  0  0  0
 12 14  2  0  0  0  0
 13 35  1  0  0  0  0
 13 36  1  0  0  0  0
 13 37  1  0  0  0  0
 14 15  1  0  0  0  0
 16 17  1  0  0  0  0
 16 18  1  0  0  0  0
 17 38  1  0  0  0  0
 17 39  1  0  0  0  0
 17 40  1  0  0  0  0
 18 19  1  0  0  0  0
 18 25  1  0  0  0  0
 19 20  2  0  0  0  0
 20 21  1  0  0  0  0
 21 22  2  0  0  0  0
 22 23  1  0  0  0  0
 23 24  2  0  0  0  0
 24 25  1  0  0  0  0
M  END
$$$$
