
 OpenBabel04232216463D

 60 61  0  0  0  0  0  0  0  0999 V2000
    2.0073   -0.4132   -0.9294 C   0  0  0  0  0  0  0  0  0  0  0  0
    3.0146   -0.3905    0.1320 C   0  0  0  0  0  0  0  0  0  0  0  0
    4.4477   -0.3102    0.0912 C   0  0  0  0  0  0  0  0  0  0  0  0
    4.4067   -0.3500    1.4381 C   0  0  0  0  0  0  0  0  0  0  0  0
    5.3848   -0.3302    2.5935 C   0  0  0  0  0  0  0  0  0  0  0  0
    6.8609   -0.2479    2.2386 C   0  0  0  0  0  0  0  0  0  0  0  0
    7.6946   -0.2427    3.5231 C   0  0  0  0  0  0  0  0  0  0  0  0
    9.2015   -0.1639    3.2772 C   0  0  0  0  0  0  0  0  0  0  0  0
    9.9540   -0.1692    4.6144 C   0  0  0  0  0  0  0  0  0  0  0  0
   11.4663   -0.0975    4.4186 C   0  0  0  0  0  0  0  0  0  0  0  0
   12.2196   -0.1168    5.7563 C   0  0  0  0  0  0  0  0  0  0  0  0
   13.7221   -0.0007    5.5128 C   0  0  0  0  0  0  0  0  0  0  0  0
   14.5840    0.0047    6.7775 C   0  0  0  0  0  0  0  0  0  0  0  0
   14.0733   -0.1440    7.8878 O   0  0  0  0  0  0  0  0  0  0  0  0
   16.0868    0.2200    6.6194 C   0  0  0  0  0  0  0  0  0  0  0  0
   17.0582    0.0017    7.7092 C   0  0  0  0  0  0  0  0  0  0  0  0
   16.7081   -0.7660    8.9731 C   0  0  0  0  0  0  0  0  0  0  0  0
   16.3243   -2.2437    8.8162 C   0  0  0  0  0  0  0  0  0  0  0  0
   17.3973   -3.1248    8.1737 C   0  0  0  0  0  0  0  0  0  0  0  0
   16.9144   -4.5679    8.0883 C   0  0  0  0  0  0  0  0  0  0  0  0
   18.2923    0.5425    7.6109 C   0  0  0  0  0  0  0  0  0  0  0  0
   18.7600    1.3353    6.4289 C   0  0  0  0  0  0  0  0  0  0  0  0
   17.9683    1.0269    5.1574 C   0  0  0  0  0  0  0  0  0  0  0  0
   16.5412    0.6598    5.4244 C   0  0  0  0  0  0  0  0  0  0  0  0
    2.9894   -0.4260    1.4132 N   0  0  0  0  0  0  0  0  0  0  0  0
    2.4882   -0.3966   -1.9108 H   0  0  0  0  0  0  0  0  0  0  0  0
    1.3549    0.4584   -0.8306 H   0  0  0  0  0  0  0  0  0  0  0  0
    1.4011   -1.3175   -0.8381 H   0  0  0  0  0  0  0  0  0  0  0  0
    5.2384   -0.2445   -0.6448 H   0  0  0  0  0  0  0  0  0  0  0  0
    5.1718   -1.2084    3.2190 H   0  0  0  0  0  0  0  0  0  0  0  0
    5.0880    0.4913    3.2604 H   0  0  0  0  0  0  0  0  0  0  0  0
    7.0608    0.6611    1.6575 H   0  0  0  0  0  0  0  0  0  0  0  0
    7.1472   -1.0996    1.6088 H   0  0  0  0  0  0  0  0  0  0  0  0
    7.4741   -1.1522    4.0954 H   0  0  0  0  0  0  0  0  0  0  0  0
    7.3891    0.6085    4.1439 H   0  0  0  0  0  0  0  0  0  0  0  0
    9.4406    0.7492    2.7181 H   0  0  0  0  0  0  0  0  0  0  0  0
    9.5244   -1.0145    2.6650 H   0  0  0  0  0  0  0  0  0  0  0  0
    9.7022   -1.0784    5.1717 H   0  0  0  0  0  0  0  0  0  0  0  0
    9.6246    0.6831    5.2211 H   0  0  0  0  0  0  0  0  0  0  0  0
   11.7154    0.8228    3.8702 H   0  0  0  0  0  0  0  0  0  0  0  0
   11.7986   -0.9439    3.7988 H   0  0  0  0  0  0  0  0  0  0  0  0
   11.9940   -1.0400    6.3039 H   0  0  0  0  0  0  0  0  0  0  0  0
   11.8836    0.7178    6.3845 H   0  0  0  0  0  0  0  0  0  0  0  0
   13.8816    0.9463    4.9846 H   0  0  0  0  0  0  0  0  0  0  0  0
   14.0550   -0.8325    4.8801 H   0  0  0  0  0  0  0  0  0  0  0  0
   15.9077   -0.2396    9.5049 H   0  0  0  0  0  0  0  0  0  0  0  0
   17.5610   -0.7327    9.6680 H   0  0  0  0  0  0  0  0  0  0  0  0
   15.3935   -2.3366    8.2494 H   0  0  0  0  0  0  0  0  0  0  0  0
   16.1126   -2.6363    9.8202 H   0  0  0  0  0  0  0  0  0  0  0  0
   18.3210   -3.0877    8.7626 H   0  0  0  0  0  0  0  0  0  0  0  0
   17.6353   -2.7697    7.1653 H   0  0  0  0  0  0  0  0  0  0  0  0
   16.6831   -4.9642    9.0828 H   0  0  0  0  0  0  0  0  0  0  0  0
   17.6804   -5.2065    7.6381 H   0  0  0  0  0  0  0  0  0  0  0  0
   16.0094   -4.6394    7.4756 H   0  0  0  0  0  0  0  0  0  0  0  0
   19.0099    0.4340    8.4213 H   0  0  0  0  0  0  0  0  0  0  0  0
   19.8210    1.1409    6.2423 H   0  0  0  0  0  0  0  0  0  0  0  0
   18.6708    2.4019    6.6728 H   0  0  0  0  0  0  0  0  0  0  0  0
   18.4410    0.2080    4.6048 H   0  0  0  0  0  0  0  0  0  0  0  0
   17.9978    1.9077    4.5034 H   0  0  0  0  0  0  0  0  0  0  0  0
   15.8955    0.8119    4.5671 H   0  0  0  0  0  0  0  0  0  0  0  0
  1  2  1  0  0  0  0
  1 26  1  0  0  0  0
  1 27  1  0  0  0  0
  1 28  1  0  0  0  0
  2  3  1  0  0  0  0
  2 25  2  0  0  0  0
  3  4  2  0  0  0  0
  3 29  1  0  0  0  0
  4  5  1  0  0  0  0
  4 25  1  0  0  0  0
  5  6  1  0  0  0  0
  5 30  1  0  0  0  0
  5 31  1  0  0  0  0
  6  7  1  0  0  0  0
  6 32  1  0  0  0  0
  6 33  1  0  0  0  0
  7  8  1  0  0  0  0
  7 34  1  0  0  0  0
  7 35  1  0  0  0  0
  8  9  1  0  0  0  0
  8 36  1  0  0  0  0
  8 37  1  0  0  0  0
  9 10  1  0  0  0  0
  9 38  1  0  0  0  0
  9 39  1  0  0  0  0
 10 11  1  0  0  0  0
 10 40  1  0  0  0  0
 10 41  1  0  0  0  0
 11 12  1  0  0  0  0
 11 42  1  0  0  0  0
 11 43  1  0  0  0  0
 12 13  1  0  0  0  0
 12 44  1  0  0  0  0
 12 45  1  0  0  0  0
 13 14  2  0  0  0  0
 13 15  1  0  0  0  0
 15 16  1  0  0  0  0
 15 24  2  0  0  0  0
 16 17  1  0  0  0  0
 16 21  2  0  0  0  0
 17 18  1  0  0  0  0
 17 46  1  0  0  0  0
 17 47  1  0  0  0  0
 18 19  1  0  0  0  0
 18 48  1  0  0  0  0
 18 49  1  0  0  0  0
 19 20  1  0  0  0  0
 19 50  1  0  0  0  0
 19 51  1  0  0  0  0
 20 52  1  0  0  0  0
 20 53  1  0  0  0  0
 20 54  1  0  0  0  0
 21 22  1  0  0  0  0
 21 55  1  0  0  0  0
 22 23  1  0  0  0  0
 22 56  1  0  0  0  0
 22 57  1  0  0  0  0
 23 24  1  0  0  0  0
 23 58  1  0  0  0  0
 23 59  1  0  0  0  0
 24 60  1  0  0  0  0
M  END
$$$$
