
 OpenBabel04232216433D

 64 65  0  0  0  0  0  0  0  0999 V2000
   14.9491    5.3055   -6.0946 C   0  0  0  0  0  0  0  0  0  0  0  0
   12.9413    4.4123   -5.3763 C   0  0  0  0  0  0  0  0  0  0  0  0
   11.2532    3.7152   -5.0439 C   0  0  0  0  0  0  0  0  0  0  0  0
    9.4651    3.2711   -4.1349 C   0  0  0  0  0  0  0  0  0  0  0  0
    7.9578    3.4284   -3.6091 C   0  0  0  0  0  0  0  0  0  0  0  0
    7.6282    3.3070   -1.8586 C   0  0  0  0  0  0  0  0  0  0  0  0
    8.4189    4.2919   -1.5063 C   0  0  0  0  0  0  0  0  0  0  0  0
    9.7338    3.7195   -1.3045 C   0  0  0  0  0  0  0  0  0  0  0  0
   10.6571    4.4717   -1.8800 C   0  0  0  0  0  0  0  0  0  0  0  0
   12.0376    4.2307   -2.0120 C   0  0  0  0  0  0  0  0  0  0  0  0
   12.7352    5.2624   -2.4693 C   0  0  0  0  0  0  0  0  0  0  0  0
   14.1453    5.3466   -2.6983 C   0  0  0  0  0  0  0  0  0  0  0  0
   15.3967    4.2220   -2.8896 C   0  0  0  0  0  0  0  0  0  0  0  0
   16.2528    4.4704   -4.6173 C   0  0  0  0  0  0  0  0  0  0  0  0
   16.7956    5.6858   -6.1232 C   0  0  0  0  0  0  0  0  0  0  0  0
   18.7229    6.6207   -6.7242 C   0  0  0  0  0  0  0  0  0  0  0  0
   20.5162    7.2170   -7.1954 C   0  0  0  0  0  0  0  0  0  0  0  0
   22.2950    8.2188   -7.7107 C   0  0  0  0  0  0  0  0  0  0  0  0
   24.0765    8.6567   -7.7145 C   0  0  0  0  0  0  0  0  0  0  0  0
   14.5098    6.5470   -3.1697 C   0  0  0  0  0  0  0  0  0  0  0  0
   15.9003    6.6742   -3.1621 C   0  0  0  0  0  0  0  0  0  0  0  0
   16.5024    7.3753   -4.0775 C   0  0  0  0  0  0  0  0  0  0  0  0
   17.8752    7.0254   -4.0537 C   0  0  0  0  0  0  0  0  0  0  0  0
   18.6595    7.9386   -4.5341 C   0  0  0  0  0  0  0  0  0  0  0  0
   20.0475    7.8113   -4.5287 C   0  0  0  0  0  0  0  0  0  0  0  0
   20.6096    8.9081   -4.9956 C   0  0  0  0  0  0  0  0  0  0  0  0
   22.0007    8.9090   -5.0546 C   0  0  0  0  0  0  0  0  0  0  0  0
   22.6642    9.9526   -5.5173 C   0  0  0  0  0  0  0  0  0  0  0  0
   24.0957    9.7548   -5.3879 C   0  0  0  0  0  0  0  0  0  0  0  0
   25.0124   10.6461   -5.7731 C   0  0  0  0  0  0  0  0  0  0  0  0
   26.1875   10.1552   -6.4400 C   0  0  0  0  0  0  0  0  0  0  0  0
   25.5312    9.9247   -7.6102 C   0  0  0  0  0  0  0  0  0  0  0  0
   14.3014    5.8705   -5.2797 H   0  0  0  0  0  0  0  0  0  0  0  0
   12.6313    4.7593   -4.3890 H   0  0  0  0  0  0  0  0  0  0  0  0
   11.1440    3.1805   -3.9672 H   0  0  0  0  0  0  0  0  0  0  0  0
    9.2954    2.1885   -3.5250 H   0  0  0  0  0  0  0  0  0  0  0  0
    6.7972    2.9183   -3.1709 H   0  0  0  0  0  0  0  0  0  0  0  0
    7.5312    2.4624   -1.0939 H   0  0  0  0  0  0  0  0  0  0  0  0
    8.3557    5.0381   -2.3284 H   0  0  0  0  0  0  0  0  0  0  0  0
    9.8893    2.6424   -1.1317 H   0  0  0  0  0  0  0  0  0  0  0  0
   10.2744    5.2666   -2.5331 H   0  0  0  0  0  0  0  0  0  0  0  0
   12.4369    3.2424   -1.8709 H   0  0  0  0  0  0  0  0  0  0  0  0
   12.1417    6.0819   -2.9602 H   0  0  0  0  0  0  0  0  0  0  0  0
   15.7906    4.2944   -1.8358 H   0  0  0  0  0  0  0  0  0  0  0  0
   15.1935    3.1314   -2.9194 H   0  0  0  0  0  0  0  0  0  0  0  0
   15.6101    3.6154   -5.1105 H   0  0  0  0  0  0  0  0  0  0  0  0
   15.2192    4.7622   -4.4414 H   0  0  0  0  0  0  0  0  0  0  0  0
   18.5450    7.8065   -6.8736 H   0  0  0  0  0  0  0  0  0  0  0  0
   20.6046    8.4500   -7.3176 H   0  0  0  0  0  0  0  0  0  0  0  0
   22.4606    9.4286   -8.1191 H   0  0  0  0  0  0  0  0  0  0  0  0
   24.8125    9.2608   -8.6098 H   0  0  0  0  0  0  0  0  0  0  0  0
   13.8997    7.1575   -3.8609 H   0  0  0  0  0  0  0  0  0  0  0  0
   16.5541    5.8983   -2.7477 H   0  0  0  0  0  0  0  0  0  0  0  0
   15.8957    7.8198   -4.8660 H   0  0  0  0  0  0  0  0  0  0  0  0
   18.2897    6.0569   -3.7633 H   0  0  0  0  0  0  0  0  0  0  0  0
   18.1518    8.6508   -5.1815 H   0  0  0  0  0  0  0  0  0  0  0  0
   20.6240    6.8948   -4.3795 H   0  0  0  0  0  0  0  0  0  0  0  0
   19.9942    9.6644   -5.4875 H   0  0  0  0  0  0  0  0  0  0  0  0
   22.5384    7.9695   -4.9421 H   0  0  0  0  0  0  0  0  0  0  0  0
   22.0394   10.6094   -6.1545 H   0  0  0  0  0  0  0  0  0  0  0  0
   24.4566    8.7048   -5.3755 H   0  0  0  0  0  0  0  0  0  0  0  0
   24.5504   11.4775   -6.3350 H   0  0  0  0  0  0  0  0  0  0  0  0
   27.0861    9.5637   -6.1770 H   0  0  0  0  0  0  0  0  0  0  0  0
   25.9120   11.1498   -7.9424 H   0  0  0  0  0  0  0  0  0  0  0  0
  1  2  1  0  0  0  0
  1 15  2  3  0  0  0
  1 33  1  0  0  0  0
  2  3  2  3  0  0  0
  2 34  1  0  0  0  0
  3  4  1  0  0  0  0
  3 35  1  0  0  0  0
  4  5  2  3  0  0  0
  4 36  1  0  0  0  0
  5  6  1  0  0  0  0
  5 37  1  0  0  0  0
  6  7  2  3  0  0  0
  6 38  1  0  0  0  0
  7  8  1  0  0  0  0
  7 39  1  0  0  0  0
  8  9  2  3  0  0  0
  8 40  1  0  0  0  0
  9 10  1  0  0  0  0
  9 41  1  0  0  0  0
 10 11  2  3  0  0  0
 10 42  1  0  0  0  0
 11 12  1  0  0  0  0
 11 43  1  0  0  0  0
 12 13  1  0  0  0  0
 12 20  2  3  0  0  0
 13 14  1  0  0  0  0
 13 44  1  0  0  0  0
 13 45  1  0  0  0  0
 14 15  1  0  0  0  0
 14 46  1  0  0  0  0
 14 47  1  0  0  0  0
 15 16  1  0  0  0  0
 16 17  2  3  0  0  0
 16 48  1  0  0  0  0
 17 18  1  0  0  0  0
 17 49  1  0  0  0  0
 18 19  2  3  0  0  0
 18 50  1  0  0  0  0
 19 32  1  0  0  0  0
 19 51  1  0  0  0  0
 20 21  1  0  0  0  0
 20 52  1  0  0  0  0
 21 22  2  3  0  0  0
 21 53  1  0  0  0  0
 22 23  1  0  0  0  0
 22 54  1  0  0  0  0
 23 24  2  3  0  0  0
 23 55  1  0  0  0  0
 24 25  1  0  0  0  0
 24 56  1  0  0  0  0
 25 26  2  3  0  0  0
 25 57  1  0  0  0  0
 26 27  1  0  0  0  0
 26 58  1  0  0  0  0
 27 28  2  3  0  0  0
 27 59  1  0  0  0  0
 28 29  1  0  0  0  0
 28 60  1  0  0  0  0
 29 30  2  3  0  0  0
 29 61  1  0  0  0  0
 30 31  1  0  0  0  0
 30 62  1  0  0  0  0
 31 32  2  3  0  0  0
 31 63  1  0  0  0  0
 32 64  1  0  0  0  0
M  END
$$$$
