
 OpenBabel04232216403D

225224  0  0  0  0  0  0  0  0999 V2000
    1.5523    0.6495    0.6571 C   0  0  0  0  0  0  0  0  0  0  0  0
    2.4211   -0.0148   -0.1194 C   0  0  0  0  0  0  0  0  0  0  0  0
    3.2147   -1.1986    0.3561 C   0  0  0  0  0  0  0  0  0  0  0  0
    4.6588   -0.9746    0.2577 N   0  0  0  0  0  0  0  0  0  0  0  0
    5.3704   -2.1509    0.7436 C   0  0  0  0  0  0  0  0  0  0  0  0
    6.8644   -1.8941    0.6355 C   0  0  0  0  0  0  0  0  0  0  0  0
    7.6324   -3.1066    1.1354 C   0  0  0  0  0  0  0  0  0  0  0  0
    9.1260   -2.8585    1.0290 C   0  0  0  0  0  0  0  0  0  0  0  0
    9.8895   -4.0710    1.5291 C   0  0  0  0  0  0  0  0  0  0  0  0
   11.3822   -3.8209    1.4238 C   0  0  0  0  0  0  0  0  0  0  0  0
   12.1452   -5.0337    1.9219 C   0  0  0  0  0  0  0  0  0  0  0  0
   13.6374   -4.7836    1.8145 C   0  0  0  0  0  0  0  0  0  0  0  0
   14.4001   -5.9956    2.3143 C   0  0  0  0  0  0  0  0  0  0  0  0
   15.8921   -5.7446    2.2087 C   0  0  0  0  0  0  0  0  0  0  0  0
   16.6546   -6.9565    2.7085 C   0  0  0  0  0  0  0  0  0  0  0  0
   18.1466   -6.7047    2.6047 C   0  0  0  0  0  0  0  0  0  0  0  0
   18.9091   -7.9174    3.1027 C   0  0  0  0  0  0  0  0  0  0  0  0
   20.4010   -7.6664    2.9972 C   0  0  0  0  0  0  0  0  0  0  0  0
   21.1635   -8.8783    3.4969 C   0  0  0  0  0  0  0  0  0  0  0  0
   22.6554   -8.6265    3.3932 C   0  0  0  0  0  0  0  0  0  0  0  0
   23.4179   -9.8392    3.8911 C   0  0  0  0  0  0  0  0  0  0  0  0
   24.9098   -9.5882    3.7855 C   0  0  0  0  0  0  0  0  0  0  0  0
   25.6723  -10.8017    4.2816 C   0  0  0  0  0  0  0  0  0  0  0  0
   27.1642  -10.5499    4.1778 C   0  0  0  0  0  0  0  0  0  0  0  0
   27.9267  -11.7633    4.6739 C   0  0  0  0  0  0  0  0  0  0  0  0
   29.4186  -11.5108    4.5720 C   0  0  0  0  0  0  0  0  0  0  0  0
   30.1811  -12.7242    5.0681 C   0  0  0  0  0  0  0  0  0  0  0  0
   31.6730  -12.4717    4.9662 C   0  0  0  0  0  0  0  0  0  0  0  0
   32.4355  -13.6851    5.4623 C   0  0  0  0  0  0  0  0  0  0  0  0
   33.9274  -13.4325    5.3604 C   0  0  0  0  0  0  0  0  0  0  0  0
   34.6899  -14.6460    5.8565 C   0  0  0  0  0  0  0  0  0  0  0  0
   36.1818  -14.3935    5.7546 C   0  0  0  0  0  0  0  0  0  0  0  0
   36.9443  -15.6077    6.2488 C   0  0  0  0  0  0  0  0  0  0  0  0
   38.4362  -15.3551    6.1469 C   0  0  0  0  0  0  0  0  0  0  0  0
   39.1987  -16.5694    6.6411 C   0  0  0  0  0  0  0  0  0  0  0  0
   40.6906  -16.3168    6.5393 C   0  0  0  0  0  0  0  0  0  0  0  0
   41.4531  -17.5318    7.0316 C   0  0  0  0  0  0  0  0  0  0  0  0
   42.9450  -17.2784    6.9316 C   0  0  0  0  0  0  0  0  0  0  0  0
   43.7075  -18.4942    7.4221 C   0  0  0  0  0  0  0  0  0  0  0  0
   45.1994  -18.2416    7.3202 C   0  0  0  0  0  0  0  0  0  0  0  0
   45.9619  -19.4581    7.8088 C   0  0  0  0  0  0  0  0  0  0  0  0
   47.4538  -19.2063    7.7050 C   0  0  0  0  0  0  0  0  0  0  0  0
   48.2163  -20.4228    8.1936 C   0  0  0  0  0  0  0  0  0  0  0  0
   49.7082  -20.1710    8.0898 C   0  0  0  0  0  0  0  0  0  0  0  0
   50.4707  -21.3875    8.5785 C   0  0  0  0  0  0  0  0  0  0  0  0
   51.9626  -21.1357    8.4746 C   0  0  0  0  0  0  0  0  0  0  0  0
   52.7251  -22.3522    8.9633 C   0  0  0  0  0  0  0  0  0  0  0  0
   54.2170  -22.1011    8.8577 C   0  0  0  0  0  0  0  0  0  0  0  0
   54.9795  -23.3168    9.3481 C   0  0  0  0  0  0  0  0  0  0  0  0
   56.4715  -23.0650    9.2443 C   0  0  0  0  0  0  0  0  0  0  0  0
   57.2339  -24.2808    9.7348 C   0  0  0  0  0  0  0  0  0  0  0  0
   58.7259  -24.0282    9.6329 C   0  0  0  0  0  0  0  0  0  0  0  0
   59.4884  -25.2447   10.1216 C   0  0  0  0  0  0  0  0  0  0  0  0
   60.9803  -24.9913   10.0215 C   0  0  0  0  0  0  0  0  0  0  0  0
   61.7428  -26.2071   10.5120 C   0  0  0  0  0  0  0  0  0  0  0  0
   63.2348  -25.9545   10.4101 C   0  0  0  0  0  0  0  0  0  0  0  0
   63.9973  -27.1711   10.8988 C   0  0  0  0  0  0  0  0  0  0  0  0
   65.4894  -26.9186   10.7969 C   0  0  0  0  0  0  0  0  0  0  0  0
   66.2522  -28.1359   11.2836 C   0  0  0  0  0  0  0  0  0  0  0  0
   67.7446  -27.8836   11.1819 C   0  0  0  0  0  0  0  0  0  0  0  0
   68.5080  -29.1010   11.6686 C   0  0  0  0  0  0  0  0  0  0  0  0
   70.0011  -28.8497   11.5672 C   0  0  0  0  0  0  0  0  0  0  0  0
   70.7657  -30.0675   12.0542 C   0  0  0  0  0  0  0  0  0  0  0  0
   72.2599  -29.8182   11.9534 C   0  0  0  0  0  0  0  0  0  0  0  0
   73.0271  -31.0366   12.4393 C   0  0  0  0  0  0  0  0  0  0  0  0
   74.5209  -30.7787   12.3359 C   0  0  0  0  0  0  0  0  0  0  0  0
   75.2271  -31.9551   12.8209 N   0  0  0  0  0  0  0  0  0  0  0  0
   76.6254  -31.7120   12.7202 N   0  0  0  0  0  0  0  0  0  0  0  0
   77.3638  -32.8481   13.1578 N   0  0  0  0  0  0  0  0  0  0  0  0
   77.0603  -33.9906   12.3741 N   0  0  0  0  0  0  0  0  0  0  0  0
   77.7723  -35.1067   12.8445 N   0  0  0  0  0  0  0  0  0  0  0  0
   77.4577  -36.2392   12.0600 N   0  0  0  0  0  0  0  0  0  0  0  0
   78.1917  -37.3658   12.5192 N   0  0  0  0  0  0  0  0  0  0  0  0
   77.8822  -38.5160   11.7424 N   0  0  0  0  0  0  0  0  0  0  0  0
   78.6172  -39.6436   12.1981 N   0  0  0  0  0  0  0  0  0  0  0  0
   78.3033  -40.7795   11.4157 N   0  0  0  0  0  0  0  0  0  0  0  0
   79.0350  -41.8975   11.8754 N   0  0  0  0  0  0  0  0  0  0  0  0
   78.7197  -43.0247   11.1010 N   0  0  0  0  0  0  0  0  0  0  0  0
   79.4540  -44.1513   11.5566 N   0  0  0  0  0  0  0  0  0  0  0  0
   79.1331  -45.2960   10.7761 N   0  0  0  0  0  0  0  0  0  0  0  0
    1.0103    1.5014    0.2676 H   0  0  0  0  0  0  0  0  0  0  0  0
    1.3841    0.3640    1.6903 H   0  0  0  0  0  0  0  0  0  0  0  0
    2.5498    0.3054   -1.1515 H   0  0  0  0  0  0  0  0  0  0  0  0
    2.9369   -2.0682   -0.2542 H   0  0  0  0  0  0  0  0  0  0  0  0
    2.9469   -1.4280    1.3946 H   0  0  0  0  0  0  0  0  0  0  0  0
    4.9199   -0.1764    0.8390 H   0  0  0  0  0  0  0  0  0  0  0  0
    5.1051   -3.0321    0.1477 H   0  0  0  0  0  0  0  0  0  0  0  0
    5.1085   -2.3539    1.7896 H   0  0  0  0  0  0  0  0  0  0  0  0
    7.1431   -1.0125    1.2270 H   0  0  0  0  0  0  0  0  0  0  0  0
    7.1379   -1.6860   -0.4068 H   0  0  0  0  0  0  0  0  0  0  0  0
    7.3592   -3.9909    0.5465 H   0  0  0  0  0  0  0  0  0  0  0  0
    7.3636   -3.3155    2.1783 H   0  0  0  0  0  0  0  0  0  0  0  0
    9.4014   -1.9754    1.6185 H   0  0  0  0  0  0  0  0  0  0  0  0
    9.3970   -2.6513   -0.0135 H   0  0  0  0  0  0  0  0  0  0  0  0
    9.6166   -4.9545    0.9390 H   0  0  0  0  0  0  0  0  0  0  0  0
    9.6188   -4.2801    2.5715 H   0  0  0  0  0  0  0  0  0  0  0  0
   11.6561   -2.9386    2.0154 H   0  0  0  0  0  0  0  0  0  0  0  0
   11.6536   -3.6109    0.3819 H   0  0  0  0  0  0  0  0  0  0  0  0
   11.8710   -5.9166    1.3314 H   0  0  0  0  0  0  0  0  0  0  0  0
   11.8755   -5.2430    2.9644 H   0  0  0  0  0  0  0  0  0  0  0  0
   13.9119   -3.9001    2.4039 H   0  0  0  0  0  0  0  0  0  0  0  0
   13.9077   -4.5758    0.7718 H   0  0  0  0  0  0  0  0  0  0  0  0
   14.1268   -6.8789    1.7240 H   0  0  0  0  0  0  0  0  0  0  0  0
   14.1290   -6.2043    3.3566 H   0  0  0  0  0  0  0  0  0  0  0  0
   16.1654   -4.8613    2.7990 H   0  0  0  0  0  0  0  0  0  0  0  0
   16.1634   -5.5359    1.1665 H   0  0  0  0  0  0  0  0  0  0  0  0
   16.3824   -7.8395    2.1173 H   0  0  0  0  0  0  0  0  0  0  0  0
   16.3824   -7.1661    3.7504 H   0  0  0  0  0  0  0  0  0  0  0  0
   18.4190   -5.8226    3.1971 H   0  0  0  0  0  0  0  0  0  0  0  0
   18.4186   -6.4938    1.5632 H   0  0  0  0  0  0  0  0  0  0  0  0
   18.6357   -8.7999    2.5113 H   0  0  0  0  0  0  0  0  0  0  0  0
   18.6380   -8.1275    4.1447 H   0  0  0  0  0  0  0  0  0  0  0  0
   20.6742   -6.7831    3.5875 H   0  0  0  0  0  0  0  0  0  0  0  0
   20.6722   -7.4577    1.9549 H   0  0  0  0  0  0  0  0  0  0  0  0
   20.8912   -9.7613    2.9057 H   0  0  0  0  0  0  0  0  0  0  0  0
   20.8913   -9.0880    4.5387 H   0  0  0  0  0  0  0  0  0  0  0  0
   22.9278   -7.7444    3.9855 H   0  0  0  0  0  0  0  0  0  0  0  0
   22.9274   -8.4156    2.3516 H   0  0  0  0  0  0  0  0  0  0  0  0
   23.1444  -10.7217    3.2996 H   0  0  0  0  0  0  0  0  0  0  0  0
   23.1469  -10.0494    4.9331 H   0  0  0  0  0  0  0  0  0  0  0  0
   25.1834   -8.7065    4.3781 H   0  0  0  0  0  0  0  0  0  0  0  0
   25.1806   -9.3767    2.7437 H   0  0  0  0  0  0  0  0  0  0  0  0
   25.3996  -11.6830    3.6880 H   0  0  0  0  0  0  0  0  0  0  0  0
   25.4005  -11.0141    5.3229 H   0  0  0  0  0  0  0  0  0  0  0  0
   27.4368   -9.6686    4.7714 H   0  0  0  0  0  0  0  0  0  0  0  0
   27.4361  -10.3374    3.1365 H   0  0  0  0  0  0  0  0  0  0  0  0
   27.6551  -12.6443    4.0794 H   0  0  0  0  0  0  0  0  0  0  0  0
   27.6538  -11.9766    5.7148 H   0  0  0  0  0  0  0  0  0  0  0  0
   29.6902  -10.6298    5.1665 H   0  0  0  0  0  0  0  0  0  0  0  0
   29.6915  -11.2975    3.5311 H   0  0  0  0  0  0  0  0  0  0  0  0
   29.9095  -13.6052    4.4736 H   0  0  0  0  0  0  0  0  0  0  0  0
   29.9082  -12.9375    6.1090 H   0  0  0  0  0  0  0  0  0  0  0  0
   31.9446  -11.5906    5.5607 H   0  0  0  0  0  0  0  0  0  0  0  0
   31.9459  -12.2584    3.9253 H   0  0  0  0  0  0  0  0  0  0  0  0
   32.1639  -14.5661    4.8678 H   0  0  0  0  0  0  0  0  0  0  0  0
   32.1626  -13.8984    6.5032 H   0  0  0  0  0  0  0  0  0  0  0  0
   34.1990  -12.5515    5.9549 H   0  0  0  0  0  0  0  0  0  0  0  0
   34.2003  -13.2193    4.3195 H   0  0  0  0  0  0  0  0  0  0  0  0
   34.4183  -15.5270    5.2619 H   0  0  0  0  0  0  0  0  0  0  0  0
   34.4170  -14.8593    6.8974 H   0  0  0  0  0  0  0  0  0  0  0  0
   36.4536  -13.5133    6.3502 H   0  0  0  0  0  0  0  0  0  0  0  0
   36.4545  -14.1788    4.7140 H   0  0  0  0  0  0  0  0  0  0  0  0
   36.6725  -16.4878    5.6531 H   0  0  0  0  0  0  0  0  0  0  0  0
   36.6716  -15.8224    7.2895 H   0  0  0  0  0  0  0  0  0  0  0  0
   38.7080  -14.4750    6.7426 H   0  0  0  0  0  0  0  0  0  0  0  0
   38.7089  -15.1404    5.1063 H   0  0  0  0  0  0  0  0  0  0  0  0
   38.9269  -17.4495    6.0454 H   0  0  0  0  0  0  0  0  0  0  0  0
   38.9260  -16.7841    7.6818 H   0  0  0  0  0  0  0  0  0  0  0  0
   40.9626  -15.4374    7.1361 H   0  0  0  0  0  0  0  0  0  0  0  0
   40.9631  -16.1007    5.4989 H   0  0  0  0  0  0  0  0  0  0  0  0
   41.1821  -18.4107    6.4338 H   0  0  0  0  0  0  0  0  0  0  0  0
   41.1796  -17.7488    8.0716 H   0  0  0  0  0  0  0  0  0  0  0  0
   43.2162  -16.4003    7.5305 H   0  0  0  0  0  0  0  0  0  0  0  0
   43.2183  -17.0601    5.8919 H   0  0  0  0  0  0  0  0  0  0  0  0
   43.4353  -19.3726    6.8240 H   0  0  0  0  0  0  0  0  0  0  0  0
   43.4353  -18.7118    8.4622 H   0  0  0  0  0  0  0  0  0  0  0  0
   45.4719  -17.3640    7.9193 H   0  0  0  0  0  0  0  0  0  0  0  0
   45.4714  -18.0227    6.2802 H   0  0  0  0  0  0  0  0  0  0  0  0
   45.6884  -20.3360    7.2105 H   0  0  0  0  0  0  0  0  0  0  0  0
   45.6909  -19.6762    8.8492 H   0  0  0  0  0  0  0  0  0  0  0  0
   47.7274  -18.3284    8.3032 H   0  0  0  0  0  0  0  0  0  0  0  0
   47.7248  -18.9882    6.6646 H   0  0  0  0  0  0  0  0  0  0  0  0
   47.9428  -21.3007    7.5954 H   0  0  0  0  0  0  0  0  0  0  0  0
   47.9454  -20.6409    9.2340 H   0  0  0  0  0  0  0  0  0  0  0  0
   49.9818  -19.2931    8.6881 H   0  0  0  0  0  0  0  0  0  0  0  0
   49.9792  -19.9529    7.0494 H   0  0  0  0  0  0  0  0  0  0  0  0
   50.1972  -22.2654    7.9802 H   0  0  0  0  0  0  0  0  0  0  0  0
   50.1998  -21.6056    9.6188 H   0  0  0  0  0  0  0  0  0  0  0  0
   52.2362  -20.2578    9.0729 H   0  0  0  0  0  0  0  0  0  0  0  0
   52.2335  -20.9176    7.4343 H   0  0  0  0  0  0  0  0  0  0  0  0
   52.4506  -23.2304    8.3660 H   0  0  0  0  0  0  0  0  0  0  0  0
   52.4552  -22.5694   10.0041 H   0  0  0  0  0  0  0  0  0  0  0  0
   54.4914  -21.2220    9.4538 H   0  0  0  0  0  0  0  0  0  0  0  0
   54.4871  -21.8852    7.8166 H   0  0  0  0  0  0  0  0  0  0  0  0
   54.7062  -24.1956    8.7511 H   0  0  0  0  0  0  0  0  0  0  0  0
   54.7084  -23.5335   10.3887 H   0  0  0  0  0  0  0  0  0  0  0  0
   56.7447  -22.1863    9.8414 H   0  0  0  0  0  0  0  0  0  0  0  0
   56.7426  -22.8483    8.2037 H   0  0  0  0  0  0  0  0  0  0  0  0
   56.9616  -25.1592    9.1368 H   0  0  0  0  0  0  0  0  0  0  0  0
   56.9618  -24.4983   10.7750 H   0  0  0  0  0  0  0  0  0  0  0  0
   58.9982  -23.1506   10.2321 H   0  0  0  0  0  0  0  0  0  0  0  0
   58.9980  -23.8092    8.5930 H   0  0  0  0  0  0  0  0  0  0  0  0
   59.2170  -26.1220    9.5215 H   0  0  0  0  0  0  0  0  0  0  0  0
   59.2153  -25.4645   11.1610 H   0  0  0  0  0  0  0  0  0  0  0  0
   61.2515  -24.1132   10.6205 H   0  0  0  0  0  0  0  0  0  0  0  0
   61.2535  -24.7729    8.9818 H   0  0  0  0  0  0  0  0  0  0  0  0
   61.4706  -27.0855    9.9140 H   0  0  0  0  0  0  0  0  0  0  0  0
   61.4705  -26.4247   11.5521 H   0  0  0  0  0  0  0  0  0  0  0  0
   63.5071  -25.0769   11.0093 H   0  0  0  0  0  0  0  0  0  0  0  0
   63.5067  -25.7356    9.3702 H   0  0  0  0  0  0  0  0  0  0  0  0
   63.7248  -28.0486   10.2996 H   0  0  0  0  0  0  0  0  0  0  0  0
   63.7253  -27.3900   11.9387 H   0  0  0  0  0  0  0  0  0  0  0  0
   65.7619  -26.0418   11.3971 H   0  0  0  0  0  0  0  0  0  0  0  0
   65.7610  -26.6981    9.7572 H   0  0  0  0  0  0  0  0  0  0  0  0
   65.9792  -29.0125   10.6833 H   0  0  0  0  0  0  0  0  0  0  0  0
   65.9801  -28.3562   12.3233 H   0  0  0  0  0  0  0  0  0  0  0  0
   68.0168  -27.0067   11.7821 H   0  0  0  0  0  0  0  0  0  0  0  0
   68.0159  -27.6630   10.1421 H   0  0  0  0  0  0  0  0  0  0  0  0
   68.2346  -29.9775   11.0683 H   0  0  0  0  0  0  0  0  0  0  0  0
   68.2355  -29.3212   12.7082 H   0  0  0  0  0  0  0  0  0  0  0  0
   70.2730  -27.9725   12.1673 H   0  0  0  0  0  0  0  0  0  0  0  0
   70.2721  -28.6288   10.5274 H   0  0  0  0  0  0  0  0  0  0  0  0
   70.4915  -30.9435   11.4536 H   0  0  0  0  0  0  0  0  0  0  0  0
   70.4924  -30.2873   13.0935 H   0  0  0  0  0  0  0  0  0  0  0  0
   72.5315  -28.9406   12.5532 H   0  0  0  0  0  0  0  0  0  0  0  0
   72.5306  -29.5970   10.9137 H   0  0  0  0  0  0  0  0  0  0  0  0
   72.7507  -31.9120   11.8397 H   0  0  0  0  0  0  0  0  0  0  0  0
   72.7534  -31.2549   13.4800 H   0  0  0  0  0  0  0  0  0  0  0  0
   74.7841  -29.9079   12.9492 H   0  0  0  0  0  0  0  0  0  0  0  0
   74.7936  -30.5602   11.2963 H   0  0  0  0  0  0  0  0  0  0  0  0
   75.0118  -32.7644   12.2337 H   0  0  0  0  0  0  0  0  0  0  0  0
   76.8797  -30.9200   13.3198 H   0  0  0  0  0  0  0  0  0  0  0  0
   77.1175  -33.0620   14.1220 H   0  0  0  0  0  0  0  0  0  0  0  0
   77.2955  -33.8062   11.4018 H   0  0  0  0  0  0  0  0  0  0  0  0
   77.5298  -35.2878   13.8166 H   0  0  0  0  0  0  0  0  0  0  0  0
   77.7080  -36.0574   11.0893 H   0  0  0  0  0  0  0  0  0  0  0  0
   77.9361  -37.5289   13.4898 H   0  0  0  0  0  0  0  0  0  0  0  0
   78.1386  -38.3241   10.7763 H   0  0  0  0  0  0  0  0  0  0  0  0
   78.3615  -39.8305   13.1649 H   0  0  0  0  0  0  0  0  0  0  0  0
   78.5475  -40.5849   10.4462 H   0  0  0  0  0  0  0  0  0  0  0  0
   78.7886  -42.0720   12.8481 H   0  0  0  0  0  0  0  0  0  0  0  0
   78.9660  -42.8375   10.1299 H   0  0  0  0  0  0  0  0  0  0  0  0
   79.2438  -44.3096   12.5439 H   0  0  0  0  0  0  0  0  0  0  0  0
   79.3783  -45.0972    9.8063 H   0  0  0  0  0  0  0  0  0  0  0  0
   78.1215  -45.4311   10.7723 H   0  0  0  0  0  0  0  0  0  0  0  0
  1  2  2  0  0  0  0
  1 81  1  0  0  0  0
  1 82  1  0  0  0  0
  2  3  1  0  0  0  0
  2 83  1  0  0  0  0
  3  4  1  0  0  0  0
  3 84  1  0  0  0  0
  3 85  1  0  0  0  0
  4  5  1  0  0  0  0
  4 86  1  0  0  0  0
  5  6  1  0  0  0  0
  5 87  1  0  0  0  0
  5 88  1  0  0  0  0
  6  7  1  0  0  0  0
  6 89  1  0  0  0  0
  6 90  1  0  0  0  0
  7  8  1  0  0  0  0
  7 91  1  0  0  0  0
  7 92  1  0  0  0  0
  8  9  1  0  0  0  0
  8 93  1  0  0  0  0
  8 94  1  0  0  0  0
  9 10  1  0  0  0  0
  9 95  1  0  0  0  0
  9 96  1  0  0  0  0
 10 11  1  0  0  0  0
 10 97  1  0  0  0  0
 10 98  1  0  0  0  0
 11 12  1  0  0  0  0
 11 99  1  0  0  0  0
 11100  1  0  0  0  0
 12 13  1  0  0  0  0
 12101  1  0  0  0  0
 12102  1  0  0  0  0
 13 14  1  0  0  0  0
 13103  1  0  0  0  0
 13104  1  0  0  0  0
 14 15  1  0  0  0  0
 14105  1  0  0  0  0
 14106  1  0  0  0  0
 15 16  1  0  0  0  0
 15107  1  0  0  0  0
 15108  1  0  0  0  0
 16 17  1  0  0  0  0
 16109  1  0  0  0  0
 16110  1  0  0  0  0
 17 18  1  0  0  0  0
 17111  1  0  0  0  0
 17112  1  0  0  0  0
 18 19  1  0  0  0  0
 18113  1  0  0  0  0
 18114  1  0  0  0  0
 19 20  1  0  0  0  0
 19115  1  0  0  0  0
 19116  1  0  0  0  0
 20 21  1  0  0  0  0
 20117  1  0  0  0  0
 20118  1  0  0  0  0
 21 22  1  0  0  0  0
 21119  1  0  0  0  0
 21120  1  0  0  0  0
 22 23  1  0  0  0  0
 22121  1  0  0  0  0
 22122  1  0  0  0  0
 23 24  1  0  0  0  0
 23123  1  0  0  0  0
 23124  1  0  0  0  0
 24 25  1  0  0  0  0
 24125  1  0  0  0  0
 24126  1  0  0  0  0
 25 26  1  0  0  0  0
 25127  1  0  0  0  0
 25128  1  0  0  0  0
 26 27  1  0  0  0  0
 26129  1  0  0  0  0
 26130  1  0  0  0  0
 27 28  1  0  0  0  0
 27131  1  0  0  0  0
 27132  1  0  0  0  0
 28 29  1  0  0  0  0
 28133  1  0  0  0  0
 28134  1  0  0  0  0
 29 30  1  0  0  0  0
 29135  1  0  0  0  0
 29136  1  0  0  0  0
 30 31  1  0  0  0  0
 30137  1  0  0  0  0
 30138  1  0  0  0  0
 31 32  1  0  0  0  0
 31139  1  0  0  0  0
 31140  1  0  0  0  0
 32 33  1  0  0  0  0
 32141  1  0  0  0  0
 32142  1  0  0  0  0
 33 34  1  0  0  0  0
 33143  1  0  0  0  0
 33144  1  0  0  0  0
 34 35  1  0  0  0  0
 34145  1  0  0  0  0
 34146  1  0  0  0  0
 35 36  1  0  0  0  0
 35147  1  0  0  0  0
 35148  1  0  0  0  0
 36 37  1  0  0  0  0
 36149  1  0  0  0  0
 36150  1  0  0  0  0
 37 38  1  0  0  0  0
 37151  1  0  0  0  0
 37152  1  0  0  0  0
 38 39  1  0  0  0  0
 38153  1  0  0  0  0
 38154  1  0  0  0  0
 39 40  1  0  0  0  0
 39155  1  0  0  0  0
 39156  1  0  0  0  0
 40 41  1  0  0  0  0
 40157  1  0  0  0  0
 40158  1  0  0  0  0
 41 42  1  0  0  0  0
 41159  1  0  0  0  0
 41160  1  0  0  0  0
 42 43  1  0  0  0  0
 42161  1  0  0  0  0
 42162  1  0  0  0  0
 43 44  1  0  0  0  0
 43163  1  0  0  0  0
 43164  1  0  0  0  0
 44 45  1  0  0  0  0
 44165  1  0  0  0  0
 44166  1  0  0  0  0
 45 46  1  0  0  0  0
 45167  1  0  0  0  0
 45168  1  0  0  0  0
 46 47  1  0  0  0  0
 46169  1  0  0  0  0
 46170  1  0  0  0  0
 47 48  1  0  0  0  0
 47171  1  0  0  0  0
 47172  1  0  0  0  0
 48 49  1  0  0  0  0
 48173  1  0  0  0  0
 48174  1  0  0  0  0
 49 50  1  0  0  0  0
 49175  1  0  0  0  0
 49176  1  0  0  0  0
 50 51  1  0  0  0  0
 50177  1  0  0  0  0
 50178  1  0  0  0  0
 51 52  1  0  0  0  0
 51179  1  0  0  0  0
 51180  1  0  0  0  0
 52 53  1  0  0  0  0
 52181  1  0  0  0  0
 52182  1  0  0  0  0
 53 54  1  0  0  0  0
 53183  1  0  0  0  0
 53184  1  0  0  0  0
 54 55  1  0  0  0  0
 54185  1  0  0  0  0
 54186  1  0  0  0  0
 55 56  1  0  0  0  0
 55187  1  0  0  0  0
 55188  1  0  0  0  0
 56 57  1  0  0  0  0
 56189  1  0  0  0  0
 56190  1  0  0  0  0
 57 58  1  0  0  0  0
 57191  1  0  0  0  0
 57192  1  0  0  0  0
 58 59  1  0  0  0  0
 58193  1  0  0  0  0
 58194  1  0  0  0  0
 59 60  1  0  0  0  0
 59195  1  0  0  0  0
 59196  1  0  0  0  0
 60 61  1  0  0  0  0
 60197  1  0  0  0  0
 60198  1  0  0  0  0
 61 62  1  0  0  0  0
 61199  1  0  0  0  0
 61200  1  0  0  0  0
 62 63  1  0  0  0  0
 62201  1  0  0  0  0
 62202  1  0  0  0  0
 63 64  1  0  0  0  0
 63203  1  0  0  0  0
 63204  1  0  0  0  0
 64 65  1  0  0  0  0
 64205  1  0  0  0  0
 64206  1  0  0  0  0
 65 66  1  0  0  0  0
 65207  1  0  0  0  0
 65208  1  0  0  0  0
 66 67  1  0  0  0  0
 66209  1  0  0  0  0
 66210  1  0  0  0  0
 67 68  1  0  0  0  0
 67211  1  0  0  0  0
 68 69  1  0  0  0  0
 68212  1  0  0  0  0
 69 70  1  0  0  0  0
 69213  1  0  0  0  0
 70 71  1  0  0  0  0
 70214  1  0  0  0  0
 71 72  1  0  0  0  0
 71215  1  0  0  0  0
 72 73  1  0  0  0  0
 72216  1  0  0  0  0
 73 74  1  0  0  0  0
 73217  1  0  0  0  0
 74 75  1  0  0  0  0
 74218  1  0  0  0  0
 75 76  1  0  0  0  0
 75219  1  0  0  0  0
 76 77  1  0  0  0  0
 76220  1  0  0  0  0
 77 78  1  0  0  0  0
 77221  1  0  0  0  0
 78 79  1  0  0  0  0
 78222  1  0  0  0  0
 79 80  1  0  0  0  0
 79223  1  0  0  0  0
 80224  1  0  0  0  0
 80225  1  0  0  0  0
M  END
$$$$
