
 OpenBabel04232216593D

216215  0  0  0  0  0  0  0  0999 V2000
    2.1551   -5.0373   -0.3887 O   0  0  0  0  0  0  0  0  0  0  0  0
    2.9646   -4.7113   -1.2361 C   0  0  0  0  0  0  0  0  0  0  0  0
    3.3277   -3.2764   -1.5358 C   0  0  0  0  0  0  0  0  0  0  0  0
    4.8237   -3.0646   -1.3515 C   0  0  0  0  0  0  0  0  0  0  0  0
    5.2058   -1.6133   -1.6451 C   0  0  0  0  0  0  0  0  0  0  0  0
    6.6934   -1.3866   -1.4426 C   0  0  0  0  0  0  0  0  0  0  0  0
    7.4213   -2.2197   -2.3397 O   0  0  0  0  0  0  0  0  0  0  0  0
    8.8165   -2.0595   -2.1435 C   0  0  0  0  0  0  0  0  0  0  0  0
    9.5519   -2.9863   -3.0912 C   0  0  0  0  0  0  0  0  0  0  0  0
   11.0487   -2.8039   -2.9123 C   0  0  0  0  0  0  0  0  0  0  0  0
   11.8155   -3.7171   -3.8499 C   0  0  0  0  0  0  0  0  0  0  0  0
   13.3082   -3.5210   -3.6577 C   0  0  0  0  0  0  0  0  0  0  0  0
   14.0749   -4.4357   -4.5952 C   0  0  0  0  0  0  0  0  0  0  0  0
   15.5675   -4.2427   -4.4030 C   0  0  0  0  0  0  0  0  0  0  0  0
   16.3308   -5.1586   -5.3412 C   0  0  0  0  0  0  0  0  0  0  0  0
   17.8230   -4.9645   -5.1503 C   0  0  0  0  0  0  0  0  0  0  0  0
   18.5856   -5.8790   -6.0898 C   0  0  0  0  0  0  0  0  0  0  0  0
   20.0776   -5.6861   -5.8975 C   0  0  0  0  0  0  0  0  0  0  0  0
   20.8402   -6.6021   -6.8355 C   0  0  0  0  0  0  0  0  0  0  0  0
   22.3322   -6.4105   -6.6419 C   0  0  0  0  0  0  0  0  0  0  0  0
   23.0947   -7.3278   -7.5786 C   0  0  0  0  0  0  0  0  0  0  0  0
   24.5867   -7.1352   -7.3861 C   0  0  0  0  0  0  0  0  0  0  0  0
   25.3492   -8.0511   -8.3242 C   0  0  0  0  0  0  0  0  0  0  0  0
   26.8413   -7.8596   -8.1305 C   0  0  0  0  0  0  0  0  0  0  0  0
   27.6040   -8.7756   -9.0686 C   0  0  0  0  0  0  0  0  0  0  0  0
   29.0964   -8.5857   -8.8737 C   0  0  0  0  0  0  0  0  0  0  0  0
   29.8598   -9.5018   -9.8119 C   0  0  0  0  0  0  0  0  0  0  0  0
   31.3523   -9.3117   -9.6166 C   0  0  0  0  0  0  0  0  0  0  0  0
   32.1180  -10.2273  -10.5542 C   0  0  0  0  0  0  0  0  0  0  0  0
   33.6129  -10.0361  -10.3578 C   0  0  0  0  0  0  0  0  0  0  0  0
   34.3798  -10.9508  -11.2948 C   0  0  0  0  0  0  0  0  0  0  0  0
   35.8779  -10.7721  -11.1112 C   0  0  0  0  0  0  0  0  0  0  0  0
   36.6192  -11.6943  -12.0586 C   0  0  0  0  0  0  0  0  0  0  0  0
   38.0171  -11.5161  -11.8760 O   0  0  0  0  0  0  0  0  0  0  0  0
   38.7411  -12.3691  -12.7519 C   0  0  0  0  0  0  0  0  0  0  0  0
   40.2163  -12.1457  -12.5220 C   0  0  0  0  0  0  0  0  0  0  0  0
   40.9416  -12.9987  -13.3960 O   0  0  0  0  0  0  0  0  0  0  0  0
   42.3397  -12.8256  -13.2215 C   0  0  0  0  0  0  0  0  0  0  0  0
   43.0605  -13.7564  -14.1703 C   0  0  0  0  0  0  0  0  0  0  0  0
   44.4623  -13.5782  -13.9959 O   0  0  0  0  0  0  0  0  0  0  0  0
   45.2022  -14.4331  -14.8633 C   0  0  0  0  0  0  0  0  0  0  0  0
   44.9251  -14.1419  -16.2242 O   0  0  0  0  0  0  0  0  0  0  0  0
   45.6295  -15.0180  -17.0871 C   0  0  0  0  0  0  0  0  0  0  0  0
   45.2330  -14.6722  -18.5003 C   0  0  0  0  0  0  0  0  0  0  0  0
   45.9367  -15.5380  -19.3855 O   0  0  0  0  0  0  0  0  0  0  0  0
   45.6144  -15.2311  -20.7352 C   0  0  0  0  0  0  0  0  0  0  0  0
   46.0190  -13.9157  -21.1072 O   0  0  0  0  0  0  0  0  0  0  0  0
   47.4107  -13.6869  -20.8781 C   0  0  0  0  0  0  0  0  0  0  0  0
   48.2495  -14.5983  -21.7512 C   0  0  0  0  0  0  0  0  0  0  0  0
   47.8932  -14.3482  -23.1098 O   0  0  0  0  0  0  0  0  0  0  0  0
   48.5700  -15.2413  -23.9771 C   0  0  0  0  0  0  0  0  0  0  0  0
   48.1768  -14.9268  -25.4080 C   0  0  0  0  0  0  0  0  0  0  0  0
   48.5124  -13.4821  -25.7640 C   0  0  0  0  0  0  0  0  0  0  0  0
   48.1311  -13.1971  -27.2035 C   0  0  0  0  0  0  0  0  0  0  0  0
   48.4705  -11.8490  -27.4984 O   0  0  0  0  0  0  0  0  0  0  0  0
   48.1224  -11.5392  -28.8447 C   0  0  0  0  0  0  0  0  0  0  0  0
   48.4962  -10.0986  -29.1304 C   0  0  0  0  0  0  0  0  0  0  0  0
   48.1679   -9.7959  -30.4814 O   0  0  0  0  0  0  0  0  0  0  0  0
   48.4836   -8.4420  -30.7856 C   0  0  0  0  0  0  0  0  0  0  0  0
   48.0917   -8.1579  -32.2236 C   0  0  0  0  0  0  0  0  0  0  0  0
   46.5896   -8.3620  -32.4369 C   0  0  0  0  0  0  0  0  0  0  0  0
   46.1940   -8.0561  -33.8679 C   0  0  0  0  0  0  0  0  0  0  0  0
   46.8944   -8.9408  -34.7370 O   0  0  0  0  0  0  0  0  0  0  0  0
   46.5635   -8.6611  -36.0886 C   0  0  0  0  0  0  0  0  0  0  0  0
   47.3380   -9.6007  -36.9894 C   0  0  0  0  0  0  0  0  0  0  0  0
   46.9761   -9.3195  -38.4355 C   0  0  0  0  0  0  0  0  0  0  0  0
   47.7337  -10.2482  -39.3663 C   0  0  0  0  0  0  0  0  0  0  0  0
   47.3593   -9.9546  -40.8085 C   0  0  0  0  0  0  0  0  0  0  0  0
   48.1190  -10.8829  -41.7375 C   0  0  0  0  0  0  0  0  0  0  0  0
   47.7463  -10.5914  -43.1791 C   0  0  0  0  0  0  0  0  0  0  0  0
   48.5072  -11.5202  -44.1064 C   0  0  0  0  0  0  0  0  0  0  0  0
   48.1346  -11.2292  -45.5478 C   0  0  0  0  0  0  0  0  0  0  0  0
   48.8956  -12.1582  -46.4749 C   0  0  0  0  0  0  0  0  0  0  0  0
   48.5233  -11.8673  -47.9168 C   0  0  0  0  0  0  0  0  0  0  0  0
   49.2859  -12.7952  -48.8447 C   0  0  0  0  0  0  0  0  0  0  0  0
   48.9149  -12.5060  -50.2884 C   0  0  0  0  0  0  0  0  0  0  0  0
   49.6786  -13.4357  -51.2190 C   0  0  0  0  0  0  0  0  0  0  0  0
   49.3060  -13.1478  -52.6638 C   0  0  0  0  0  0  0  0  0  0  0  0
   50.0643  -14.0750  -53.6070 C   0  0  0  0  0  0  0  0  0  0  0  0
   49.6915  -13.7863  -55.0467 C   0  0  0  0  0  0  0  0  0  0  0  0
    3.4655   -5.4645   -1.8690 H   0  0  0  0  0  0  0  0  0  0  0  0
    2.7610   -2.6182   -0.8700 H   0  0  0  0  0  0  0  0  0  0  0  0
    3.0353   -3.0616   -2.5667 H   0  0  0  0  0  0  0  0  0  0  0  0
    5.3781   -3.7438   -2.0116 H   0  0  0  0  0  0  0  0  0  0  0  0
    5.1139   -3.3231   -0.3263 H   0  0  0  0  0  0  0  0  0  0  0  0
    4.6476   -0.9369   -0.9876 H   0  0  0  0  0  0  0  0  0  0  0  0
    4.9373   -1.3709   -2.6804 H   0  0  0  0  0  0  0  0  0  0  0  0
    6.9721   -1.6209   -0.4084 H   0  0  0  0  0  0  0  0  0  0  0  0
    6.9395   -0.3384   -1.6472 H   0  0  0  0  0  0  0  0  0  0  0  0
    9.0782   -2.2992   -1.1065 H   0  0  0  0  0  0  0  0  0  0  0  0
    9.0924   -1.0169   -2.3484 H   0  0  0  0  0  0  0  0  0  0  0  0
    9.2564   -2.7750   -4.1268 H   0  0  0  0  0  0  0  0  0  0  0  0
    9.2628   -4.0275   -2.8999 H   0  0  0  0  0  0  0  0  0  0  0  0
   11.3282   -3.0196   -1.8733 H   0  0  0  0  0  0  0  0  0  0  0  0
   11.3210   -1.7591   -3.1080 H   0  0  0  0  0  0  0  0  0  0  0  0
   11.5414   -3.4992   -4.8892 H   0  0  0  0  0  0  0  0  0  0  0  0
   11.5476   -4.7625   -3.6545 H   0  0  0  0  0  0  0  0  0  0  0  0
   13.5850   -3.7367   -2.6180 H   0  0  0  0  0  0  0  0  0  0  0  0
   13.5784   -2.4758   -3.8540 H   0  0  0  0  0  0  0  0  0  0  0  0
   13.8015   -4.2188   -5.6353 H   0  0  0  0  0  0  0  0  0  0  0  0
   13.8057   -5.4812   -4.4001 H   0  0  0  0  0  0  0  0  0  0  0  0
   15.8423   -4.4599   -3.3634 H   0  0  0  0  0  0  0  0  0  0  0  0
   15.8381   -3.1978   -4.5987 H   0  0  0  0  0  0  0  0  0  0  0  0
   16.0557   -4.9425   -6.3809 H   0  0  0  0  0  0  0  0  0  0  0  0
   16.0616   -6.2038   -5.1448 H   0  0  0  0  0  0  0  0  0  0  0  0
   18.0985   -5.1821   -4.1110 H   0  0  0  0  0  0  0  0  0  0  0  0
   18.0924   -3.9192   -5.3456 H   0  0  0  0  0  0  0  0  0  0  0  0
   18.3112   -5.6607   -7.1292 H   0  0  0  0  0  0  0  0  0  0  0  0
   18.3155   -6.9244   -5.8955 H   0  0  0  0  0  0  0  0  0  0  0  0
   20.3519   -5.9032   -4.8577 H   0  0  0  0  0  0  0  0  0  0  0  0
   20.3481   -4.6411   -6.0931 H   0  0  0  0  0  0  0  0  0  0  0  0
   20.5668   -6.3843   -7.8753 H   0  0  0  0  0  0  0  0  0  0  0  0
   20.5688   -7.6470   -6.6406 H   0  0  0  0  0  0  0  0  0  0  0  0
   22.6054   -6.6271   -5.6018 H   0  0  0  0  0  0  0  0  0  0  0  0
   22.6037   -5.3658   -6.8380 H   0  0  0  0  0  0  0  0  0  0  0  0
   22.8207   -7.1120   -8.6187 H   0  0  0  0  0  0  0  0  0  0  0  0
   22.8239   -8.3724   -7.3816 H   0  0  0  0  0  0  0  0  0  0  0  0
   24.8608   -7.3524   -6.3463 H   0  0  0  0  0  0  0  0  0  0  0  0
   24.8574   -6.0902   -7.5816 H   0  0  0  0  0  0  0  0  0  0  0  0
   25.0760   -7.8330   -9.3640 H   0  0  0  0  0  0  0  0  0  0  0  0
   25.0778   -9.0960   -8.1295 H   0  0  0  0  0  0  0  0  0  0  0  0
   27.1144   -8.0777   -7.0906 H   0  0  0  0  0  0  0  0  0  0  0  0
   27.1128   -6.8147   -8.3251 H   0  0  0  0  0  0  0  0  0  0  0  0
   27.3316   -8.5564  -10.1084 H   0  0  0  0  0  0  0  0  0  0  0  0
   27.3313   -9.8203   -8.8748 H   0  0  0  0  0  0  0  0  0  0  0  0
   29.3681   -8.8047   -7.8336 H   0  0  0  0  0  0  0  0  0  0  0  0
   29.3686   -7.5408   -9.0671 H   0  0  0  0  0  0  0  0  0  0  0  0
   29.5871   -9.2825  -10.8515 H   0  0  0  0  0  0  0  0  0  0  0  0
   29.5866  -10.5464   -9.6180 H   0  0  0  0  0  0  0  0  0  0  0  0
   31.6234   -9.5306   -8.5766 H   0  0  0  0  0  0  0  0  0  0  0  0
   31.6239   -8.2669   -9.8100 H   0  0  0  0  0  0  0  0  0  0  0  0
   31.8458  -10.0084  -11.5941 H   0  0  0  0  0  0  0  0  0  0  0  0
   31.8453  -11.2720  -10.3607 H   0  0  0  0  0  0  0  0  0  0  0  0
   33.8826  -10.2553   -9.3176 H   0  0  0  0  0  0  0  0  0  0  0  0
   33.8831   -8.9910  -10.5515 H   0  0  0  0  0  0  0  0  0  0  0  0
   34.1035  -10.7320  -12.3338 H   0  0  0  0  0  0  0  0  0  0  0  0
   34.1032  -11.9948  -11.1015 H   0  0  0  0  0  0  0  0  0  0  0  0
   36.1680  -10.9870  -10.0751 H   0  0  0  0  0  0  0  0  0  0  0  0
   36.1681   -9.7306  -11.2981 H   0  0  0  0  0  0  0  0  0  0  0  0
   36.3531  -11.4577  -13.0954 H   0  0  0  0  0  0  0  0  0  0  0  0
   36.3532  -12.7371  -11.8501 H   0  0  0  0  0  0  0  0  0  0  0  0
   38.4831  -12.1469  -13.7945 H   0  0  0  0  0  0  0  0  0  0  0  0
   38.4828  -13.4172  -12.5581 H   0  0  0  0  0  0  0  0  0  0  0  0
   40.4737  -12.3694  -11.4790 H   0  0  0  0  0  0  0  0  0  0  0  0
   40.4739  -11.0981  -12.7159 H   0  0  0  0  0  0  0  0  0  0  0  0
   42.6232  -13.0534  -12.1878 H   0  0  0  0  0  0  0  0  0  0  0  0
   42.6213  -11.7866  -13.4302 H   0  0  0  0  0  0  0  0  0  0  0  0
   42.7665  -13.5240  -15.2008 H   0  0  0  0  0  0  0  0  0  0  0  0
   42.7821  -14.7982  -13.9703 H   0  0  0  0  0  0  0  0  0  0  0  0
   44.9595  -15.4779  -14.6361 H   0  0  0  0  0  0  0  0  0  0  0  0
   46.2659  -14.2643  -14.6691 H   0  0  0  0  0  0  0  0  0  0  0  0
   45.3793  -16.0618  -16.8699 H   0  0  0  0  0  0  0  0  0  0  0  0
   46.7092  -14.8869  -16.9514 H   0  0  0  0  0  0  0  0  0  0  0  0
   45.4757  -13.6252  -18.6998 H   0  0  0  0  0  0  0  0  0  0  0  0
   44.1531  -14.7983  -18.6428 H   0  0  0  0  0  0  0  0  0  0  0  0
   44.5369  -15.3354  -20.8973 H   0  0  0  0  0  0  0  0  0  0  0  0
   46.0841  -15.9742  -21.3852 H   0  0  0  0  0  0  0  0  0  0  0  0
   47.6663  -13.8192  -19.8216 H   0  0  0  0  0  0  0  0  0  0  0  0
   47.6053  -12.6390  -21.1298 H   0  0  0  0  0  0  0  0  0  0  0  0
   48.0758  -15.6529  -21.5178 H   0  0  0  0  0  0  0  0  0  0  0  0
   49.3131  -14.3930  -21.6069 H   0  0  0  0  0  0  0  0  0  0  0  0
   48.2956  -16.2746  -23.7376 H   0  0  0  0  0  0  0  0  0  0  0  0
   49.6493  -15.1137  -23.8472 H   0  0  0  0  0  0  0  0  0  0  0  0
   47.0983  -15.0855  -25.5395 H   0  0  0  0  0  0  0  0  0  0  0  0
   48.6981  -15.6135  -26.0822 H   0  0  0  0  0  0  0  0  0  0  0  0
   49.5831  -13.2909  -25.6165 H   0  0  0  0  0  0  0  0  0  0  0  0
   47.9887  -12.7795  -25.1051 H   0  0  0  0  0  0  0  0  0  0  0  0
   47.0541  -13.3427  -27.3423 H   0  0  0  0  0  0  0  0  0  0  0  0
   48.6777  -13.8661  -27.8759 H   0  0  0  0  0  0  0  0  0  0  0  0
   47.0465  -11.6863  -28.9997 H   0  0  0  0  0  0  0  0  0  0  0  0
   48.6542  -12.2073  -29.5328 H   0  0  0  0  0  0  0  0  0  0  0  0
   49.5693   -9.9506  -28.9681 H   0  0  0  0  0  0  0  0  0  0  0  0
   47.9532   -9.4310  -28.4511 H   0  0  0  0  0  0  0  0  0  0  0  0
   49.5593   -8.2828  -30.6579 H   0  0  0  0  0  0  0  0  0  0  0  0
   47.9380   -7.7735  -30.1090 H   0  0  0  0  0  0  0  0  0  0  0  0
   48.6526   -8.8279  -32.8869 H   0  0  0  0  0  0  0  0  0  0  0  0
   48.3695   -7.1291  -32.4793 H   0  0  0  0  0  0  0  0  0  0  0  0
   46.0235   -7.7138  -31.7588 H   0  0  0  0  0  0  0  0  0  0  0  0
   46.3220   -9.4003  -32.2060 H   0  0  0  0  0  0  0  0  0  0  0  0
   46.4455   -7.0180  -34.1144 H   0  0  0  0  0  0  0  0  0  0  0  0
   45.1159   -8.2044  -33.9931 H   0  0  0  0  0  0  0  0  0  0  0  0
   46.8213   -7.6215  -36.3221 H   0  0  0  0  0  0  0  0  0  0  0  0
   45.4868   -8.8053  -36.2320 H   0  0  0  0  0  0  0  0  0  0  0  0
   47.1125  -10.6419  -36.7277 H   0  0  0  0  0  0  0  0  0  0  0  0
   48.4159   -9.4736  -36.8273 H   0  0  0  0  0  0  0  0  0  0  0  0
   47.2094   -8.2766  -38.6833 H   0  0  0  0  0  0  0  0  0  0  0  0
   45.8958   -9.4503  -38.5819 H   0  0  0  0  0  0  0  0  0  0  0  0
   47.4987  -11.2920  -39.1245 H   0  0  0  0  0  0  0  0  0  0  0  0
   48.8137  -10.1161  -39.2267 H   0  0  0  0  0  0  0  0  0  0  0  0
   47.5920   -8.9106  -41.0513 H   0  0  0  0  0  0  0  0  0  0  0  0
   46.2793  -10.0871  -40.9497 H   0  0  0  0  0  0  0  0  0  0  0  0
   47.8860  -11.9268  -41.4954 H   0  0  0  0  0  0  0  0  0  0  0  0
   49.1989  -10.7502  -41.5969 H   0  0  0  0  0  0  0  0  0  0  0  0
   47.9795   -9.5473  -43.4222 H   0  0  0  0  0  0  0  0  0  0  0  0
   46.6665  -10.7242  -43.3205 H   0  0  0  0  0  0  0  0  0  0  0  0
   48.2741  -12.5643  -43.8634 H   0  0  0  0  0  0  0  0  0  0  0  0
   49.5869  -11.3876  -43.9651 H   0  0  0  0  0  0  0  0  0  0  0  0
   48.3677  -10.1852  -45.7905 H   0  0  0  0  0  0  0  0  0  0  0  0
   47.0548  -11.3621  -45.6890 H   0  0  0  0  0  0  0  0  0  0  0  0
   48.6625  -13.2022  -46.2317 H   0  0  0  0  0  0  0  0  0  0  0  0
   49.9753  -12.0252  -46.3331 H   0  0  0  0  0  0  0  0  0  0  0  0
   48.7551  -10.8227  -48.1588 H   0  0  0  0  0  0  0  0  0  0  0  0
   47.4437  -12.0013  -48.0578 H   0  0  0  0  0  0  0  0  0  0  0  0
   49.0539  -13.8392  -48.6009 H   0  0  0  0  0  0  0  0  0  0  0  0
   50.3652  -12.6607  -48.7018 H   0  0  0  0  0  0  0  0  0  0  0  0
   49.1461  -11.4610  -50.5297 H   0  0  0  0  0  0  0  0  0  0  0  0
   47.8350  -12.6394  -50.4286 H   0  0  0  0  0  0  0  0  0  0  0  0
   49.4465  -14.4784  -50.9722 H   0  0  0  0  0  0  0  0  0  0  0  0
   50.7570  -13.2984  -51.0751 H   0  0  0  0  0  0  0  0  0  0  0  0
   49.5366  -12.1030  -52.9039 H   0  0  0  0  0  0  0  0  0  0  0  0
   48.2262  -13.2800  -52.8007 H   0  0  0  0  0  0  0  0  0  0  0  0
   49.8322  -15.1189  -53.3678 H   0  0  0  0  0  0  0  0  0  0  0  0
   51.1435  -13.9412  -53.4712 H   0  0  0  0  0  0  0  0  0  0  0  0
   48.6184  -13.9358  -55.2078 H   0  0  0  0  0  0  0  0  0  0  0  0
   50.2368  -14.4527  -55.7204 H   0  0  0  0  0  0  0  0  0  0  0  0
   49.9367  -12.7520  -55.3119 H   0  0  0  0  0  0  0  0  0  0  0  0
  1  2  2  0  0  0  0
  2  3  1  0  0  0  0
  2 81  1  0  0  0  0
  3  4  1  0  0  0  0
  3 82  1  0  0  0  0
  3 83  1  0  0  0  0
  4  5  1  0  0  0  0
  4 84  1  0  0  0  0
  4 85  1  0  0  0  0
  5  6  1  0  0  0  0
  5 86  1  0  0  0  0
  5 87  1  0  0  0  0
  6  7  1  0  0  0  0
  6 88  1  0  0  0  0
  6 89  1  0  0  0  0
  7  8  1  0  0  0  0
  8  9  1  0  0  0  0
  8 90  1  0  0  0  0
  8 91  1  0  0  0  0
  9 10  1  0  0  0  0
  9 92  1  0  0  0  0
  9 93  1  0  0  0  0
 10 11  1  0  0  0  0
 10 94  1  0  0  0  0
 10 95  1  0  0  0  0
 11 12  1  0  0  0  0
 11 96  1  0  0  0  0
 11 97  1  0  0  0  0
 12 13  1  0  0  0  0
 12 98  1  0  0  0  0
 12 99  1  0  0  0  0
 13 14  1  0  0  0  0
 13100  1  0  0  0  0
 13101  1  0  0  0  0
 14 15  1  0  0  0  0
 14102  1  0  0  0  0
 14103  1  0  0  0  0
 15 16  1  0  0  0  0
 15104  1  0  0  0  0
 15105  1  0  0  0  0
 16 17  1  0  0  0  0
 16106  1  0  0  0  0
 16107  1  0  0  0  0
 17 18  1  0  0  0  0
 17108  1  0  0  0  0
 17109  1  0  0  0  0
 18 19  1  0  0  0  0
 18110  1  0  0  0  0
 18111  1  0  0  0  0
 19 20  1  0  0  0  0
 19112  1  0  0  0  0
 19113  1  0  0  0  0
 20 21  1  0  0  0  0
 20114  1  0  0  0  0
 20115  1  0  0  0  0
 21 22  1  0  0  0  0
 21116  1  0  0  0  0
 21117  1  0  0  0  0
 22 23  1  0  0  0  0
 22118  1  0  0  0  0
 22119  1  0  0  0  0
 23 24  1  0  0  0  0
 23120  1  0  0  0  0
 23121  1  0  0  0  0
 24 25  1  0  0  0  0
 24122  1  0  0  0  0
 24123  1  0  0  0  0
 25 26  1  0  0  0  0
 25124  1  0  0  0  0
 25125  1  0  0  0  0
 26 27  1  0  0  0  0
 26126  1  0  0  0  0
 26127  1  0  0  0  0
 27 28  1  0  0  0  0
 27128  1  0  0  0  0
 27129  1  0  0  0  0
 28 29  1  0  0  0  0
 28130  1  0  0  0  0
 28131  1  0  0  0  0
 29 30  1  0  0  0  0
 29132  1  0  0  0  0
 29133  1  0  0  0  0
 30 31  1  0  0  0  0
 30134  1  0  0  0  0
 30135  1  0  0  0  0
 31 32  1  0  0  0  0
 31136  1  0  0  0  0
 31137  1  0  0  0  0
 32 33  1  0  0  0  0
 32138  1  0  0  0  0
 32139  1  0  0  0  0
 33 34  1  0  0  0  0
 33140  1  0  0  0  0
 33141  1  0  0  0  0
 34 35  1  0  0  0  0
 35 36  1  0  0  0  0
 35142  1  0  0  0  0
 35143  1  0  0  0  0
 36 37  1  0  0  0  0
 36144  1  0  0  0  0
 36145  1  0  0  0  0
 37 38  1  0  0  0  0
 38 39  1  0  0  0  0
 38146  1  0  0  0  0
 38147  1  0  0  0  0
 39 40  1  0  0  0  0
 39148  1  0  0  0  0
 39149  1  0  0  0  0
 40 41  1  0  0  0  0
 41 42  1  0  0  0  0
 41150  1  0  0  0  0
 41151  1  0  0  0  0
 42 43  1  0  0  0  0
 43 44  1  0  0  0  0
 43152  1  0  0  0  0
 43153  1  0  0  0  0
 44 45  1  0  0  0  0
 44154  1  0  0  0  0
 44155  1  0  0  0  0
 45 46  1  0  0  0  0
 46 47  1  0  0  0  0
 46156  1  0  0  0  0
 46157  1  0  0  0  0
 47 48  1  0  0  0  0
 48 49  1  0  0  0  0
 48158  1  0  0  0  0
 48159  1  0  0  0  0
 49 50  1  0  0  0  0
 49160  1  0  0  0  0
 49161  1  0  0  0  0
 50 51  1  0  0  0  0
 51 52  1  0  0  0  0
 51162  1  0  0  0  0
 51163  1  0  0  0  0
 52 53  1  0  0  0  0
 52164  1  0  0  0  0
 52165  1  0  0  0  0
 53 54  1  0  0  0  0
 53166  1  0  0  0  0
 53167  1  0  0  0  0
 54 55  1  0  0  0  0
 54168  1  0  0  0  0
 54169  1  0  0  0  0
 55 56  1  0  0  0  0
 56 57  1  0  0  0  0
 56170  1  0  0  0  0
 56171  1  0  0  0  0
 57 58  1  0  0  0  0
 57172  1  0  0  0  0
 57173  1  0  0  0  0
 58 59  1  0  0  0  0
 59 60  1  0  0  0  0
 59174  1  0  0  0  0
 59175  1  0  0  0  0
 60 61  1  0  0  0  0
 60176  1  0  0  0  0
 60177  1  0  0  0  0
 61 62  1  0  0  0  0
 61178  1  0  0  0  0
 61179  1  0  0  0  0
 62 63  1  0  0  0  0
 62180  1  0  0  0  0
 62181  1  0  0  0  0
 63 64  1  0  0  0  0
 64 65  1  0  0  0  0
 64182  1  0  0  0  0
 64183  1  0  0  0  0
 65 66  1  0  0  0  0
 65184  1  0  0  0  0
 65185  1  0  0  0  0
 66 67  1  0  0  0  0
 66186  1  0  0  0  0
 66187  1  0  0  0  0
 67 68  1  0  0  0  0
 67188  1  0  0  0  0
 67189  1  0  0  0  0
 68 69  1  0  0  0  0
 68190  1  0  0  0  0
 68191  1  0  0  0  0
 69 70  1  0  0  0  0
 69192  1  0  0  0  0
 69193  1  0  0  0  0
 70 71  1  0  0  0  0
 70194  1  0  0  0  0
 70195  1  0  0  0  0
 71 72  1  0  0  0  0
 71196  1  0  0  0  0
 71197  1  0  0  0  0
 72 73  1  0  0  0  0
 72198  1  0  0  0  0
 72199  1  0  0  0  0
 73 74  1  0  0  0  0
 73200  1  0  0  0  0
 73201  1  0  0  0  0
 74 75  1  0  0  0  0
 74202  1  0  0  0  0
 74203  1  0  0  0  0
 75 76  1  0  0  0  0
 75204  1  0  0  0  0
 75205  1  0  0  0  0
 76 77  1  0  0  0  0
 76206  1  0  0  0  0
 76207  1  0  0  0  0
 77 78  1  0  0  0  0
 77208  1  0  0  0  0
 77209  1  0  0  0  0
 78 79  1  0  0  0  0
 78210  1  0  0  0  0
 78211  1  0  0  0  0
 79 80  1  0  0  0  0
 79212  1  0  0  0  0
 79213  1  0  0  0  0
 80214  1  0  0  0  0
 80215  1  0  0  0  0
 80216  1  0  0  0  0
M  END
$$$$
