
 OpenBabel04232216493D

 77 78  0  0  1  0  0  0  0  0999 V2000
    6.9863    3.3192    1.4721 C   0  0  0  0  0  0  0  0  0  0  0  0
    7.4996    3.0868    3.1451 C   0  0  3  0  0  0  0  0  0  0  0  0
    5.7250    2.5389    3.3872 C   0  0  0  0  0  0  0  0  0  0  0  0
    5.1505    0.9638    3.1062 C   0  0  0  0  0  0  0  0  0  0  0  0
    5.6037    0.1923    4.2877 C   0  0  0  0  0  0  0  0  0  0  0  0
    7.0128   -0.0641    3.8944 C   0  0  0  0  0  0  0  0  0  0  0  0
    7.6683    0.6856    4.9594 C   0  0  0  0  0  0  0  0  0  0  0  0
    9.0704    0.6908    4.5740 C   0  0  0  0  0  0  0  0  0  0  0  0
    9.5558    1.4248    5.7309 C   0  0  0  0  0  0  0  0  0  0  0  0
   10.9887    1.3743    5.4666 C   0  0  0  0  0  0  0  0  0  0  0  0
   11.4518    1.4886    6.8358 C   0  0  0  0  0  0  0  0  0  0  0  0
   12.9306    1.2961    6.7213 C   0  0  0  0  0  0  0  0  0  0  0  0
   13.2402    1.8693    8.0173 C   0  0  0  0  0  0  0  0  0  0  0  0
   12.7625    1.2684    8.9728 O   0  0  0  0  0  0  0  0  0  0  0  0
   13.6432    3.2198    7.7897 N   0  0  0  0  0  0  0  0  0  0  0  0
   12.6765    4.2476    8.0914 C   0  0  0  0  0  0  0  0  0  0  0  0
   12.0311    4.4497    6.6717 C   0  0  0  0  0  0  0  0  0  0  0  0
   13.5596    5.4934    6.3820 C   0  0  0  0  0  0  0  0  0  0  0  0
   15.1781    5.7690    7.3037 C   0  0  0  0  0  0  0  0  0  0  0  0
   16.1196    6.2326    8.7324 C   0  0  0  0  0  0  0  0  0  0  0  0
   16.1808    7.5810    9.5900 C   0  0  0  0  0  0  0  0  0  0  0  0
   16.3298    7.5183   11.1676 C   0  0  0  0  0  0  0  0  0  0  0  0
   15.0754    8.0472   11.8834 C   0  0  0  0  0  0  0  0  0  0  0  0
   14.1441    6.9117   12.2897 C   0  0  0  0  0  0  0  0  0  0  0  0
   13.4450    6.3166   11.0436 C   0  0  0  0  0  0  0  0  0  0  0  0
   13.8604    4.9205   10.6899 C   0  0  0  0  0  0  0  0  0  0  0  0
   12.9109    4.0521    9.7750 C   0  0  0  0  0  0  0  0  0  0  0  0
   12.8323    2.9462   10.3663 O   0  0  0  0  0  0  0  0  0  0  0  0
   10.3393    4.4212    5.6266 C   0  0  0  0  0  0  0  0  0  0  0  0
    9.0270    4.0046    4.0572 C   0  0  0  0  0  0  0  0  0  0  0  0
    6.3974    2.3945    1.1766 H   0  0  0  0  0  0  0  0  0  0  0  0
    7.6922    3.3125    0.6505 H   0  0  0  0  0  0  0  0  0  0  0  0
    6.1773    4.0802    1.3247 H   0  0  0  0  0  0  0  0  0  0  0  0
    8.1076    2.0872    2.9660 H   0  0  0  0  0  0  0  0  0  0  0  0
    5.0615    2.9710    2.5879 H   0  0  0  0  0  0  0  0  0  0  0  0
    5.2508    2.9560    4.2712 H   0  0  0  0  0  0  0  0  0  0  0  0
    4.0632    0.7994    3.0592 H   0  0  0  0  0  0  0  0  0  0  0  0
    5.5132    0.5203    2.1577 H   0  0  0  0  0  0  0  0  0  0  0  0
    5.1369   -0.7286    4.6296 H   0  0  0  0  0  0  0  0  0  0  0  0
    5.4581    0.8878    5.1358 H   0  0  0  0  0  0  0  0  0  0  0  0
    7.3197    0.3479    2.9182 H   0  0  0  0  0  0  0  0  0  0  0  0
    7.2995   -1.1111    3.8372 H   0  0  0  0  0  0  0  0  0  0  0  0
    7.4761    0.2142    5.9278 H   0  0  0  0  0  0  0  0  0  0  0  0
    7.3178    1.7263    5.0703 H   0  0  0  0  0  0  0  0  0  0  0  0
    9.3420    1.2030    3.6452 H   0  0  0  0  0  0  0  0  0  0  0  0
    9.4593   -0.3267    4.5028 H   0  0  0  0  0  0  0  0  0  0  0  0
    9.2372    0.9237    6.6585 H   0  0  0  0  0  0  0  0  0  0  0  0
    9.1473    2.4301    5.8456 H   0  0  0  0  0  0  0  0  0  0  0  0
   11.3170    2.1593    4.7783 H   0  0  0  0  0  0  0  0  0  0  0  0
   11.3223    0.4102    5.0674 H   0  0  0  0  0  0  0  0  0  0  0  0
   11.0020    0.7331    7.4985 H   0  0  0  0  0  0  0  0  0  0  0  0
   11.0739    2.4272    7.2687 H   0  0  0  0  0  0  0  0  0  0  0  0
   13.3346    1.8583    5.8737 H   0  0  0  0  0  0  0  0  0  0  0  0
   13.1909    0.2459    6.6483 H   0  0  0  0  0  0  0  0  0  0  0  0
   14.0861    3.2826    6.8817 H   0  0  0  0  0  0  0  0  0  0  0  0
   13.2376    6.4985    6.0670 H   0  0  0  0  0  0  0  0  0  0  0  0
   13.9756    4.9820    5.4908 H   0  0  0  0  0  0  0  0  0  0  0  0
   15.6407    6.4884    6.6095 H   0  0  0  0  0  0  0  0  0  0  0  0
   15.6990    4.8169    7.1010 H   0  0  0  0  0  0  0  0  0  0  0  0
   17.1314    6.3169    8.2615 H   0  0  0  0  0  0  0  0  0  0  0  0
   16.3578    5.3748    9.3793 H   0  0  0  0  0  0  0  0  0  0  0  0
   15.3562    8.2316    9.3135 H   0  0  0  0  0  0  0  0  0  0  0  0
   17.0986    8.1335    9.3084 H   0  0  0  0  0  0  0  0  0  0  0  0
   17.1491    8.1864   11.4979 H   0  0  0  0  0  0  0  0  0  0  0  0
   16.6265    6.5315   11.5480 H   0  0  0  0  0  0  0  0  0  0  0  0
   14.5313    8.7420   11.2346 H   0  0  0  0  0  0  0  0  0  0  0  0
   15.3436    8.6378   12.7721 H   0  0  0  0  0  0  0  0  0  0  0  0
   13.3729    7.3352   12.9473 H   0  0  0  0  0  0  0  0  0  0  0  0
   14.6876    6.1821   12.9111 H   0  0  0  0  0  0  0  0  0  0  0  0
   13.6120    6.9360   10.1664 H   0  0  0  0  0  0  0  0  0  0  0  0
   12.3761    6.2872   11.2497 H   0  0  0  0  0  0  0  0  0  0  0  0
   13.8401    4.4014   11.6730 H   0  0  0  0  0  0  0  0  0  0  0  0
   14.9175    4.7980   10.4536 H   0  0  0  0  0  0  0  0  0  0  0  0
   10.5262    5.4234    5.2762 H   0  0  0  0  0  0  0  0  0  0  0  0
    9.5967    4.4357    6.4718 H   0  0  0  0  0  0  0  0  0  0  0  0
    9.7744    3.8204    3.2792 H   0  0  0  0  0  0  0  0  0  0  0  0
    8.6597    5.0332    3.8632 H   0  0  0  0  0  0  0  0  0  0  0  0
  1  2  1  0  0  0  0
  1 31  1  0  0  0  0
  1 32  1  0  0  0  0
  1 33  1  0  0  0  0
  2  3  1  0  0  0  0
  2 30  1  0  0  0  0
  2 34  1  0  0  0  0
  3  4  1  0  0  0  0
  3 35  1  0  0  0  0
  3 36  1  0  0  0  0
  4  5  1  0  0  0  0
  4 37  1  0  0  0  0
  4 38  1  0  0  0  0
  5  6  1  0  0  0  0
  5 39  1  0  0  0  0
  5 40  1  0  0  0  0
  6  7  1  0  0  0  0
  6 41  1  0  0  0  0
  6 42  1  0  0  0  0
  7  8  1  0  0  0  0
  7 43  1  0  0  0  0
  7 44  1  0  0  0  0
  8  9  1  0  0  0  0
  8 45  1  0  0  0  0
  8 46  1  0  0  0  0
  9 10  1  0  0  0  0
  9 47  1  0  0  0  0
  9 48  1  0  0  0  0
 10 11  1  0  0  0  0
 10 49  1  0  0  0  0
 10 50  1  0  0  0  0
 11 12  1  0  0  0  0
 11 51  1  0  0  0  0
 11 52  1  0  0  0  0
 12 13  1  0  0  0  0
 12 53  1  0  0  0  0
 12 54  1  0  0  0  0
 13 14  2  0  0  0  0
 13 15  1  0  0  0  0
 15 16  1  0  0  0  0
 15 55  1  0  0  0  0
 16 17  2  3  0  0  0
 16 27  1  0  0  0  0
 17 18  1  0  0  0  0
 17 29  1  0  0  0  0
 18 19  1  0  0  0  0
 18 56  1  0  0  0  0
 18 57  1  0  0  0  0
 19 20  1  0  0  0  0
 19 58  1  0  0  0  0
 19 59  1  0  0  0  0
 20 21  1  0  0  0  0
 20 60  1  0  0  0  0
 20 61  1  0  0  0  0
 21 22  1  0  0  0  0
 21 62  1  0  0  0  0
 21 63  1  0  0  0  0
 22 23  1  0  0  0  0
 22 64  1  0  0  0  0
 22 65  1  0  0  0  0
 23 24  1  0  0  0  0
 23 66  1  0  0  0  0
 23 67  1  0  0  0  0
 24 25  1  0  0  0  0
 24 68  1  0  0  0  0
 24 69  1  0  0  0  0
 25 26  1  0  0  0  0
 25 70  1  0  0  0  0
 25 71  1  0  0  0  0
 26 27  1  0  0  0  0
 26 72  1  0  0  0  0
 26 73  1  0  0  0  0
 27 28  2  0  0  0  0
 29 30  1  0  0  0  0
 29 74  1  0  0  0  0
 29 75  1  0  0  0  0
 30 76  1  0  0  0  0
 30 77  1  0  0  0  0
M  END
$$$$
