
 OpenBabel04232216433D

 54 55  0  0  0  0  0  0  0  0999 V2000
    2.9637   -2.6735    0.6734 C   0  0  0  0  0  0  0  0  0  0  0  0
    3.7237   -1.6360   -0.0879 C   0  0  0  0  0  0  0  0  0  0  0  0
    3.2114   -0.5119   -0.1621 O   0  0  0  0  0  0  0  0  0  0  0  0
    5.0662   -1.9225   -0.7498 C   0  0  0  0  0  0  0  0  0  0  0  0
    5.7530   -0.7394   -0.7905 C   0  0  0  0  0  0  0  0  0  0  0  0
    5.9452    0.2489    0.3321 C   0  0  0  0  0  0  0  0  0  0  0  0
    6.1159   -0.2514   -2.1054 C   0  0  0  0  0  0  0  0  0  0  0  0
    7.3659    0.0536   -2.4530 C   0  0  0  0  0  0  0  0  0  0  0  0
    7.7133   -0.1860   -3.8307 C   0  0  0  0  0  0  0  0  0  0  0  0
    8.9915   -0.4509   -4.1192 C   0  0  0  0  0  0  0  0  0  0  0  0
    9.3277   -1.4735   -5.0483 C   0  0  0  0  0  0  0  0  0  0  0  0
    9.2578   -1.4192   -6.4158 C   0  0  0  0  0  0  0  0  0  0  0  0
    8.4558   -0.5155   -7.2747 C   0  0  0  0  0  0  0  0  0  0  0  0
    9.9492   -2.5295   -6.8532 N   0  0  0  0  0  0  0  0  0  0  0  0
   10.3474   -2.7680   -8.2245 C   0  0  0  0  0  0  0  0  0  0  0  0
   10.0288   -3.4430   -5.8062 C   0  0  0  0  0  0  0  0  0  0  0  0
    9.3455   -2.8677   -4.7483 C   0  0  0  0  0  0  0  0  0  0  0  0
    8.7441   -3.4192   -3.5362 C   0  0  0  0  0  0  0  0  0  0  0  0
    7.3801   -3.5416   -3.3827 C   0  0  0  0  0  0  0  0  0  0  0  0
    6.6031   -3.4055   -2.0617 C   0  0  0  0  0  0  0  0  0  0  0  0
    7.5279   -3.8111   -0.9176 C   0  0  0  0  0  0  0  0  0  0  0  0
    5.3031   -2.8946   -1.8901 C   0  0  0  0  0  0  0  0  0  0  0  0
    4.1687   -3.0727   -2.9136 C   0  0  0  0  0  0  0  0  0  0  0  0
    2.6928   -2.5373   -2.8162 C   0  0  0  0  0  0  0  0  0  0  0  0
    2.2944   -1.0918   -3.1237 C   0  0  0  0  0  0  0  0  0  0  0  0
    1.9158   -2.3330    0.7040 H   0  0  0  0  0  0  0  0  0  0  0  0
    3.3273   -2.7210    1.6993 H   0  0  0  0  0  0  0  0  0  0  0  0
    2.9754   -3.6437    0.1817 H   0  0  0  0  0  0  0  0  0  0  0  0
    5.0160    0.6564    0.7340 H   0  0  0  0  0  0  0  0  0  0  0  0
    6.5416    1.1062    0.0090 H   0  0  0  0  0  0  0  0  0  0  0  0
    6.4971   -0.2265    1.1468 H   0  0  0  0  0  0  0  0  0  0  0  0
    5.3675   -0.4151   -2.8863 H   0  0  0  0  0  0  0  0  0  0  0  0
    8.1487    0.0985   -1.7087 H   0  0  0  0  0  0  0  0  0  0  0  0
    6.9490   -0.5779   -4.5020 H   0  0  0  0  0  0  0  0  0  0  0  0
    9.7709   -0.2309   -3.3906 H   0  0  0  0  0  0  0  0  0  0  0  0
    7.8662    0.1819   -6.6694 H   0  0  0  0  0  0  0  0  0  0  0  0
    7.7263   -1.1220   -7.8256 H   0  0  0  0  0  0  0  0  0  0  0  0
    9.0603    0.0572   -7.9749 H   0  0  0  0  0  0  0  0  0  0  0  0
    9.7207   -2.1750   -8.8962 H   0  0  0  0  0  0  0  0  0  0  0  0
   10.2192   -3.8247   -8.4573 H   0  0  0  0  0  0  0  0  0  0  0  0
   11.3924   -2.4647   -8.3459 H   0  0  0  0  0  0  0  0  0  0  0  0
   10.4698   -4.4192   -5.9678 H   0  0  0  0  0  0  0  0  0  0  0  0
    9.4056   -3.3553   -2.6755 H   0  0  0  0  0  0  0  0  0  0  0  0
    6.7828   -3.4716   -4.2832 H   0  0  0  0  0  0  0  0  0  0  0  0
    8.2557   -3.0400   -0.6535 H   0  0  0  0  0  0  0  0  0  0  0  0
    8.0953   -4.7150   -1.2008 H   0  0  0  0  0  0  0  0  0  0  0  0
    6.9638   -4.1124   -0.0332 H   0  0  0  0  0  0  0  0  0  0  0  0
    3.9908   -4.1601   -2.8511 H   0  0  0  0  0  0  0  0  0  0  0  0
    4.5372   -2.8965   -3.9267 H   0  0  0  0  0  0  0  0  0  0  0  0
    2.2462   -2.8166   -1.8591 H   0  0  0  0  0  0  0  0  0  0  0  0
    2.1243   -3.1296   -3.5478 H   0  0  0  0  0  0  0  0  0  0  0  0
    2.7170   -0.3447   -2.4532 H   0  0  0  0  0  0  0  0  0  0  0  0
    1.2002   -1.0080   -3.0155 H   0  0  0  0  0  0  0  0  0  0  0  0
    2.5212   -0.8027   -4.1529 H   0  0  0  0  0  0  0  0  0  0  0  0
  1  2  1  0  0  0  0
  1 26  1  0  0  0  0
  1 27  1  0  0  0  0
  1 28  1  0  0  0  0
  2  3  2  0  0  0  0
  2  4  1  0  0  0  0
  4  5  2  3  0  0  0
  4 22  1  0  0  0  0
  5  6  1  0  0  0  0
  5  7  1  0  0  0  0
  6 29  1  0  0  0  0
  6 30  1  0  0  0  0
  6 31  1  0  0  0  0
  7  8  2  3  0  0  0
  7 32  1  0  0  0  0
  8  9  1  0  0  0  0
  8 33  1  0  0  0  0
  9 10  2  3  0  0  0
  9 34  1  0  0  0  0
 10 11  1  0  0  0  0
 10 35  1  0  0  0  0
 11 12  2  0  0  0  0
 11 17  1  0  0  0  0
 12 13  1  0  0  0  0
 12 14  1  0  0  0  0
 13 36  1  0  0  0  0
 13 37  1  0  0  0  0
 13 38  1  0  0  0  0
 14 15  1  0  0  0  0
 14 16  1  0  0  0  0
 15 39  1  0  0  0  0
 15 40  1  0  0  0  0
 15 41  1  0  0  0  0
 16 17  2  0  0  0  0
 16 42  1  0  0  0  0
 17 18  1  0  0  0  0
 18 19  2  3  0  0  0
 18 43  1  0  0  0  0
 19 20  1  0  0  0  0
 19 44  1  0  0  0  0
 20 21  1  0  0  0  0
 20 22  2  3  0  0  0
 21 45  1  0  0  0  0
 21 46  1  0  0  0  0
 21 47  1  0  0  0  0
 22 23  1  0  0  0  0
 23 24  1  0  0  0  0
 23 48  1  0  0  0  0
 23 49  1  0  0  0  0
 24 25  1  0  0  0  0
 24 50  1  0  0  0  0
 24 51  1  0  0  0  0
 25 52  1  0  0  0  0
 25 53  1  0  0  0  0
 25 54  1  0  0  0  0
M  END
$$$$
