
 OpenBabel04232216513D

 32 32  0  0  1  0  0  0  0  0999 V2000
    1.4046    0.7255   -1.6431 C   0  0  0  0  0  0  0  0  0  0  0  0
    2.2652    0.1606   -0.5192 C   0  0  0  0  0  0  0  0  0  0  0  0
    3.0477    1.2177    0.2903 C   0  0  3  0  0  0  0  0  0  0  0  0
    2.1807    2.2429    1.0732 C   0  0  0  0  0  0  0  0  0  0  0  0
    1.8482    1.9864    2.5500 C   0  0  0  0  0  0  0  0  0  0  0  0
    0.9363    0.7893    2.8068 C   0  0  0  0  0  0  0  0  0  0  0  0
    1.4741   -0.2033    3.8462 C   0  0  0  0  0  0  0  0  0  0  0  0
    2.9022   -0.7164    3.6198 C   0  0  0  0  0  0  0  0  0  0  0  0
    3.0777   -1.3269    2.3116 N   0  0  0  0  0  0  0  0  0  0  0  0
    4.2149   -0.8334    1.5504 C   0  0  0  0  0  0  0  0  0  0  0  0
    4.2291    0.6457    1.1175 C   0  0  0  0  0  0  0  0  0  0  0  0
    0.9021   -0.0960   -2.1662 H   0  0  0  0  0  0  0  0  0  0  0  0
    2.0145    1.2634   -2.3739 H   0  0  0  0  0  0  0  0  0  0  0  0
    0.6286    1.3982   -1.2706 H   0  0  0  0  0  0  0  0  0  0  0  0
    2.9785   -0.5325   -0.9814 H   0  0  0  0  0  0  0  0  0  0  0  0
    1.6147   -0.4337    0.1191 H   0  0  0  0  0  0  0  0  0  0  0  0
    3.5323    1.8383   -0.4808 H   0  0  0  0  0  0  0  0  0  0  0  0
    1.2503    2.4495    0.5343 H   0  0  0  0  0  0  0  0  0  0  0  0
    2.7325    3.1943    1.0551 H   0  0  0  0  0  0  0  0  0  0  0  0
    1.3265    2.8814    2.9172 H   0  0  0  0  0  0  0  0  0  0  0  0
    2.7598    1.9480    3.1510 H   0  0  0  0  0  0  0  0  0  0  0  0
    0.6944    0.2659    1.8803 H   0  0  0  0  0  0  0  0  0  0  0  0
   -0.0259    1.1632    3.1760 H   0  0  0  0  0  0  0  0  0  0  0  0
    0.7862   -1.0583    3.8844 H   0  0  0  0  0  0  0  0  0  0  0  0
    1.4317    0.2651    4.8375 H   0  0  0  0  0  0  0  0  0  0  0  0
    3.1049   -1.4866    4.3730 H   0  0  0  0  0  0  0  0  0  0  0  0
    3.6269    0.0803    3.8157 H   0  0  0  0  0  0  0  0  0  0  0  0
    2.2228   -1.3034    1.7672 H   0  0  0  0  0  0  0  0  0  0  0  0
    4.3104   -1.4578    0.6544 H   0  0  0  0  0  0  0  0  0  0  0  0
    5.1315   -1.0282    2.1224 H   0  0  0  0  0  0  0  0  0  0  0  0
    5.1260    0.7547    0.4889 H   0  0  0  0  0  0  0  0  0  0  0  0
    4.4416    1.2860    1.9799 H   0  0  0  0  0  0  0  0  0  0  0  0
  1  2  1  0  0  0  0
  1 12  1  0  0  0  0
  1 13  1  0  0  0  0
  1 14  1  0  0  0  0
  2  3  1  0  0  0  0
  2 15  1  0  0  0  0
  2 16  1  0  0  0  0
  3  4  1  0  0  0  0
  3 11  1  0  0  0  0
  3 17  1  0  0  0  0
  4  5  1  0  0  0  0
  4 18  1  0  0  0  0
  4 19  1  0  0  0  0
  5  6  1  0  0  0  0
  5 20  1  0  0  0  0
  5 21  1  0  0  0  0
  6  7  1  0  0  0  0
  6 22  1  0  0  0  0
  6 23  1  0  0  0  0
  7  8  1  0  0  0  0
  7 24  1  0  0  0  0
  7 25  1  0  0  0  0
  8  9  1  0  0  0  0
  8 26  1  0  0  0  0
  8 27  1  0  0  0  0
  9 10  1  0  0  0  0
  9 28  1  0  0  0  0
 10 11  1  0  0  0  0
 10 29  1  0  0  0  0
 10 30  1  0  0  0  0
 11 31  1  0  0  0  0
 11 32  1  0  0  0  0
M  END
$$$$
