
 OpenBabel04232216433D

 26 26  0  0  0  0  0  0  0  0999 V2000
    5.3493    0.2386    3.3446 C   0  0  0  0  0  0  0  0  0  0  0  0
    5.1279    0.3334    1.8952 C   0  0  0  0  0  0  0  0  0  0  0  0
    4.2268    1.2209    1.3975 C   0  0  0  0  0  0  0  0  0  0  0  0
    4.6887    1.9084    0.1959 C   0  0  0  0  0  0  0  0  0  0  0  0
    5.2799    3.0921    0.4792 C   0  0  0  0  0  0  0  0  0  0  0  0
    6.6920    3.2760    0.1999 C   0  0  0  0  0  0  0  0  0  0  0  0
    7.4277    4.1032    0.9619 C   0  0  0  0  0  0  0  0  0  0  0  0
    8.8334    3.8274    1.1887 C   0  0  0  0  0  0  0  0  0  0  0  0
    9.4211    4.1704    2.3557 C   0  0  0  0  0  0  0  0  0  0  0  0
   10.0661    3.0344    3.0374 C   0  0  0  0  0  0  0  0  0  0  0  0
    9.3862    2.6139    4.1156 C   0  0  0  0  0  0  0  0  0  0  0  0
    8.4763    1.4019    4.0369 C   0  0  0  0  0  0  0  0  0  0  0  0
    7.3632    1.3935    3.3621 N   0  0  0  0  0  0  0  0  0  0  0  0
    6.4130    0.5732    4.0040 N   0  0  0  0  0  0  0  0  0  0  0  0
    4.5259   -0.2208    3.9142 H   0  0  0  0  0  0  0  0  0  0  0  0
    5.9067   -0.0907    1.2834 H   0  0  0  0  0  0  0  0  0  0  0  0
    3.5161    1.7460    2.0316 H   0  0  0  0  0  0  0  0  0  0  0  0
    5.1118    1.2541   -0.5870 H   0  0  0  0  0  0  0  0  0  0  0  0
    4.9230    3.6411    1.3420 H   0  0  0  0  0  0  0  0  0  0  0  0
    7.1931    2.4878   -0.3769 H   0  0  0  0  0  0  0  0  0  0  0  0
    6.9367    4.7764    1.6675 H   0  0  0  0  0  0  0  0  0  0  0  0
    9.2120    2.9501    0.6478 H   0  0  0  0  0  0  0  0  0  0  0  0
    8.9978    4.9424    2.9801 H   0  0  0  0  0  0  0  0  0  0  0  0
   10.5536    2.3299    2.3746 H   0  0  0  0  0  0  0  0  0  0  0  0
    8.8819    3.3392    4.7464 H   0  0  0  0  0  0  0  0  0  0  0  0
    8.6700    0.6540    4.8165 H   0  0  0  0  0  0  0  0  0  0  0  0
  1  2  1  0  0  0  0
  1 14  2  0  0  0  0
  1 15  1  0  0  0  0
  2  3  2  0  0  0  0
  2 16  1  0  0  0  0
  3  4  1  0  0  0  0
  3 17  1  0  0  0  0
  4  5  2  0  0  0  0
  4 18  1  0  0  0  0
  5  6  1  0  0  0  0
  5 19  1  0  0  0  0
  6  7  2  0  0  0  0
  6 20  1  0  0  0  0
  7  8  1  0  0  0  0
  7 21  1  0  0  0  0
  8  9  2  0  0  0  0
  8 22  1  0  0  0  0
  9 10  1  0  0  0  0
  9 23  1  0  0  0  0
 10 11  2  0  0  0  0
 10 24  1  0  0  0  0
 11 12  1  0  0  0  0
 11 25  1  0  0  0  0
 12 13  2  0  0  0  0
 12 26  1  0  0  0  0
 13 14  1  0  0  0  0
M  END
$$$$
