
 OpenBabel04232216533D

179178  0  0  0  0  0  0  0  0999 V2000
   37.6243  -42.9536  -21.4230 C   0  0  0  0  0  0  0  0  0  0  0  0
   37.0032  -41.6714  -20.8502 C   0  0  0  0  0  0  0  0  0  0  0  0
   37.5601  -40.4881  -21.6100 C   0  0  0  0  0  0  0  0  0  0  0  0
   36.9385  -39.2357  -21.0393 C   0  0  0  0  0  0  0  0  0  0  0  0
   37.5201  -37.9997  -21.7862 C   0  0  0  0  0  0  0  0  0  0  0  0
   36.9089  -36.7162  -21.2377 C   0  0  0  0  0  0  0  0  0  0  0  0
   37.4568  -35.4919  -21.9660 C   0  0  0  0  0  0  0  0  0  0  0  0
   36.8371  -34.2232  -21.3994 C   0  0  0  0  0  0  0  0  0  0  0  0
   37.3567  -32.9750  -22.0984 C   0  0  0  0  0  0  0  0  0  0  0  0
   36.6907  -31.7636  -21.4660 C   0  0  0  0  0  0  0  0  0  0  0  0
   37.1531  -30.4704  -22.1066 C   0  0  0  0  0  0  0  0  0  0  0  0
   36.4070  -29.2983  -21.4628 C   0  0  0  0  0  0  0  0  0  0  0  0
   36.7259  -28.0091  -22.2076 C   0  0  0  0  0  0  0  0  0  0  0  0
   35.9359  -26.7955  -21.7126 C   0  0  0  0  0  0  0  0  0  0  0  0
   36.1467  -25.5203  -22.5708 C   0  0  0  0  0  0  0  0  0  0  0  0
   35.1671  -24.3631  -22.1305 C   0  0  0  0  0  0  0  0  0  0  0  0
   35.0914  -22.8254  -23.1450 S   0  0  0  0  0  0  0  0  0  0  0  0
   34.8583  -21.2953  -22.0730 C   0  0  0  0  0  0  0  0  0  0  0  0
   35.3041  -21.1096  -20.2569 S   0  0  0  0  0  0  0  0  0  0  0  0
   35.4679  -19.2041  -20.0176 C   0  0  0  0  0  0  0  0  0  0  0  0
   35.8631  -18.3817  -18.3539 S   0  0  0  0  0  0  0  0  0  0  0  0
   37.6873  -17.9553  -18.0996 C   0  0  0  0  0  0  0  0  0  0  0  0
   38.5945  -16.5808  -19.0097 S   0  0  0  0  0  0  0  0  0  0  0  0
   40.4645  -16.9083  -18.7600 C   0  0  0  0  0  0  0  0  0  0  0  0
   41.7006  -17.4082  -20.1305 S   0  0  0  0  0  0  0  0  0  0  0  0
   40.9287  -18.1948  -21.5970 C   0  0  0  0  0  0  0  0  0  0  0  0
   41.0000  -20.1963  -22.2357 S   0  0  0  0  0  0  0  0  0  0  0  0
   40.3122  -21.7328  -21.1833 C   0  0  0  0  0  0  0  0  0  0  0  0
   38.3947  -22.0718  -20.2862 S   0  0  0  0  0  0  0  0  0  0  0  0
   38.0699  -23.8603  -19.9345 C   0  0  0  0  0  0  0  0  0  0  0  0
   37.2032  -24.4631  -18.4351 S   0  0  0  0  0  0  0  0  0  0  0  0
   37.3087  -23.0829  -17.2902 C   0  0  0  0  0  0  0  0  0  0  0  0
   38.3622  -23.2704  -15.3276 S   0  0  0  0  0  0  0  0  0  0  0  0
   40.1099  -22.7241  -15.0502 C   0  0  0  0  0  0  0  0  0  0  0  0
   40.9834  -22.4457  -13.5216 S   0  0  0  0  0  0  0  0  0  0  0  0
   41.1337  -24.0643  -12.8515 C   0  0  0  0  0  0  0  0  0  0  0  0
   41.9709  -25.5063  -13.5768 S   0  0  0  0  0  0  0  0  0  0  0  0
   43.5894  -25.0715  -14.2903 C   0  0  0  0  0  0  0  0  0  0  0  0
   44.4718  -26.4199  -15.2922 S   0  0  0  0  0  0  0  0  0  0  0  0
   43.7470  -26.7540  -17.0578 C   0  0  0  0  0  0  0  0  0  0  0  0
   44.4420  -25.5668  -18.3539 S   0  0  0  0  0  0  0  0  0  0  0  0
   43.2082  -24.9512  -19.6397 C   0  0  0  0  0  0  0  0  0  0  0  0
   41.3822  -24.4867  -19.7648 S   0  0  0  0  0  0  0  0  0  0  0  0
   41.0867  -22.8145  -18.8653 C   0  0  0  0  0  0  0  0  0  0  0  0
   39.5927  -22.1978  -17.7962 S   0  0  0  0  0  0  0  0  0  0  0  0
   38.8408  -20.6511  -16.5286 C   0  0  0  0  0  0  0  0  0  0  0  0
   36.8036  -20.5717  -15.8384 S   0  0  0  0  0  0  0  0  0  0  0  0
   35.8042  -22.2392  -15.0917 C   0  0  0  0  0  0  0  0  0  0  0  0
   36.0096  -22.7613  -13.3511 S   0  0  0  0  0  0  0  0  0  0  0  0
   36.4688  -24.6260  -13.3549 C   0  0  0  0  0  0  0  0  0  0  0  0
   36.7239  -25.8156  -14.7600 S   0  0  0  0  0  0  0  0  0  0  0  0
   38.5169  -26.2518  -14.5446 C   0  0  0  0  0  0  0  0  0  0  0  0
   39.2016  -27.6274  -15.5417 S   0  0  0  0  0  0  0  0  0  0  0  0
   39.4623  -26.8573  -17.1576 C   0  0  0  0  0  0  0  0  0  0  0  0
   40.0657  -25.1504  -17.1214 S   0  0  0  0  0  0  0  0  0  0  0  0
   41.8349  -24.7869  -16.7921 C   0  0  0  0  0  0  0  0  0  0  0  0
   43.1340  -22.9904  -16.8985 S   0  0  0  0  0  0  0  0  0  0  0  0
   42.3807  -21.2235  -16.8968 C   0  0  0  0  0  0  0  0  0  0  0  0
   42.2929  -20.0264  -18.4384 S   0  0  0  0  0  0  0  0  0  0  0  0
   40.3571  -20.1259  -19.1049 C   0  0  0  0  0  0  0  0  0  0  0  0
   38.8884  -19.2757  -20.4151 S   0  0  0  0  0  0  0  0  0  0  0  0
   38.1630  -19.9434  -22.1389 C   0  0  0  0  0  0  0  0  0  0  0  0
   38.4514  -21.3162  -23.4686 S   0  0  0  0  0  0  0  0  0  0  0  0
   38.4960  -23.0294  -22.9395 C   0  0  0  0  0  0  0  0  0  0  0  0
   39.6043  -24.3090  -23.5355 S   0  0  0  0  0  0  0  0  0  0  0  0
   41.3619  -23.7468  -23.5479 C   0  0  0  0  0  0  0  0  0  0  0  0
   42.5535  -24.8950  -22.8686 S   0  0  0  0  0  0  0  0  0  0  0  0
   44.0690  -23.8597  -22.7145 C   0  0  0  0  0  0  0  0  0  0  0  0
   44.0828  -22.2182  -23.4749 S   0  0  0  0  0  0  0  0  0  0  0  0
   44.0111  -20.9997  -22.1243 C   0  0  0  0  0  0  0  0  0  0  0  0
   43.8653  -19.2224  -22.9122 S   0  0  0  0  0  0  0  0  0  0  0  0
   42.8639  -19.3227  -24.5773 C   0  0  0  0  0  0  0  0  0  0  0  0
   41.2470  -18.3987  -24.8108 S   0  0  0  0  0  0  0  0  0  0  0  0
   40.0217  -19.4820  -25.6976 C   0  0  0  0  0  0  0  0  0  0  0  0
   40.6050  -20.8246  -26.8041 S   0  0  0  0  0  0  0  0  0  0  0  0
   39.9690  -22.4330  -26.0719 C   0  0  0  0  0  0  0  0  0  0  0  0
   40.6226  -23.9009  -27.0812 S   0  0  0  0  0  0  0  0  0  0  0  0
   40.4672  -25.5382  -26.1415 C   0  0  0  0  0  0  0  0  0  0  0  0
   38.8104  -26.2856  -26.1913 S   0  0  0  0  0  0  0  0  0  0  0  0
   38.8718  -27.3098  -24.6865 C   0  0  0  0  0  0  0  0  0  0  0  0
   39.4682  -28.9769  -24.9628 S   0  0  0  0  0  0  0  0  0  0  0  0
   37.2236  -43.8094  -20.8884 H   0  0  0  0  0  0  0  0  0  0  0  0
   38.7099  -42.9378  -21.2855 H   0  0  0  0  0  0  0  0  0  0  0  0
   37.3796  -43.0581  -22.4848 H   0  0  0  0  0  0  0  0  0  0  0  0
   37.2361  -41.6070  -19.7897 H   0  0  0  0  0  0  0  0  0  0  0  0
   35.9111  -41.7147  -20.9493 H   0  0  0  0  0  0  0  0  0  0  0  0
   37.3265  -40.5455  -22.6737 H   0  0  0  0  0  0  0  0  0  0  0  0
   38.6373  -40.4288  -21.4936 H   0  0  0  0  0  0  0  0  0  0  0  0
   37.1557  -39.1057  -19.9746 H   0  0  0  0  0  0  0  0  0  0  0  0
   35.8544  -39.2600  -21.1827 H   0  0  0  0  0  0  0  0  0  0  0  0
   37.3084  -38.1265  -22.8699 H   0  0  0  0  0  0  0  0  0  0  0  0
   38.6161  -37.9762  -21.6377 H   0  0  0  0  0  0  0  0  0  0  0  0
   37.1198  -36.6095  -20.1519 H   0  0  0  0  0  0  0  0  0  0  0  0
   35.8147  -36.7304  -21.3348 H   0  0  0  0  0  0  0  0  0  0  0  0
   37.2323  -35.5608  -23.0372 H   0  0  0  0  0  0  0  0  0  0  0  0
   38.5477  -35.4484  -21.8595 H   0  0  0  0  0  0  0  0  0  0  0  0
   37.0550  -34.1500  -20.3275 H   0  0  0  0  0  0  0  0  0  0  0  0
   35.7454  -34.2665  -21.5009 H   0  0  0  0  0  0  0  0  0  0  0  0
   37.1247  -33.0165  -23.1704 H   0  0  0  0  0  0  0  0  0  0  0  0
   38.4464  -32.9061  -21.9993 H   0  0  0  0  0  0  0  0  0  0  0  0
   36.9059  -31.7381  -20.3903 H   0  0  0  0  0  0  0  0  0  0  0  0
   35.6029  -31.8518  -21.5754 H   0  0  0  0  0  0  0  0  0  0  0  0
   36.9534  -30.5046  -23.1844 H   0  0  0  0  0  0  0  0  0  0  0  0
   38.2381  -30.3534  -21.9828 H   0  0  0  0  0  0  0  0  0  0  0  0
   36.6849  -29.2209  -20.4055 H   0  0  0  0  0  0  0  0  0  0  0  0
   35.3271  -29.4854  -21.5066 H   0  0  0  0  0  0  0  0  0  0  0  0
   36.4667  -28.1924  -23.2539 H   0  0  0  0  0  0  0  0  0  0  0  0
   37.8039  -27.8241  -22.1256 H   0  0  0  0  0  0  0  0  0  0  0  0
   36.2716  -26.5754  -20.6870 H   0  0  0  0  0  0  0  0  0  0  0  0
   34.8651  -27.0542  -21.6719 H   0  0  0  0  0  0  0  0  0  0  0  0
   36.0490  -25.7591  -23.6389 H   0  0  0  0  0  0  0  0  0  0  0  0
   37.1977  -25.2604  -22.4236 H   0  0  0  0  0  0  0  0  0  0  0  0
   35.3750  -24.0788  -21.1093 H   0  0  0  0  0  0  0  0  0  0  0  0
   34.1636  -24.7884  -22.1737 H   0  0  0  0  0  0  0  0  0  0  0  0
   33.8074  -20.9953  -22.1926 H   0  0  0  0  0  0  0  0  0  0  0  0
   35.4235  -20.5402  -22.6438 H   0  0  0  0  0  0  0  0  0  0  0  0
   34.4159  -18.9354  -20.1197 H   0  0  0  0  0  0  0  0  0  0  0  0
   36.0009  -18.7041  -20.8203 H   0  0  0  0  0  0  0  0  0  0  0  0
   38.1225  -18.9162  -18.2735 H   0  0  0  0  0  0  0  0  0  0  0  0
   37.8419  -17.7878  -17.0223 H   0  0  0  0  0  0  0  0  0  0  0  0
   40.6934  -17.4685  -17.8391 H   0  0  0  0  0  0  0  0  0  0  0  0
   40.8730  -15.9194  -18.5142 H   0  0  0  0  0  0  0  0  0  0  0  0
   41.6434  -17.8131  -22.3137 H   0  0  0  0  0  0  0  0  0  0  0  0
   40.0158  -17.7009  -21.9338 H   0  0  0  0  0  0  0  0  0  0  0  0
   41.1934  -21.9251  -20.6308 H   0  0  0  0  0  0  0  0  0  0  0  0
   40.3790  -22.5573  -21.8339 H   0  0  0  0  0  0  0  0  0  0  0  0
   38.8328  -24.5734  -20.2310 H   0  0  0  0  0  0  0  0  0  0  0  0
   37.2843  -24.0385  -20.6526 H   0  0  0  0  0  0  0  0  0  0  0  0
   36.2403  -22.9988  -17.1531 H   0  0  0  0  0  0  0  0  0  0  0  0
   37.3536  -22.0999  -17.7746 H   0  0  0  0  0  0  0  0  0  0  0  0
   40.2614  -21.7143  -15.3137 H   0  0  0  0  0  0  0  0  0  0  0  0
   40.7972  -23.2995  -15.6082 H   0  0  0  0  0  0  0  0  0  0  0  0
   40.0833  -24.3435  -12.7437 H   0  0  0  0  0  0  0  0  0  0  0  0
   41.5324  -23.9149  -11.8535 H   0  0  0  0  0  0  0  0  0  0  0  0
   44.2638  -24.7906  -13.4662 H   0  0  0  0  0  0  0  0  0  0  0  0
   43.5659  -24.0695  -14.8405 H   0  0  0  0  0  0  0  0  0  0  0  0
   42.6805  -27.0130  -17.0553 H   0  0  0  0  0  0  0  0  0  0  0  0
   44.1937  -27.7108  -17.3420 H   0  0  0  0  0  0  0  0  0  0  0  0
   43.3391  -25.7014  -20.4219 H   0  0  0  0  0  0  0  0  0  0  0  0
   43.6817  -24.0236  -19.9498 H   0  0  0  0  0  0  0  0  0  0  0  0
   41.9809  -22.2219  -19.0617 H   0  0  0  0  0  0  0  0  0  0  0  0
   41.3117  -23.2569  -17.9758 H   0  0  0  0  0  0  0  0  0  0  0  0
   39.0657  -19.7255  -17.0169 H   0  0  0  0  0  0  0  0  0  0  0  0
   39.2930  -20.4435  -15.5700 H   0  0  0  0  0  0  0  0  0  0  0  0
   35.7718  -23.1862  -15.6145 H   0  0  0  0  0  0  0  0  0  0  0  0
   34.7696  -21.9098  -15.2315 H   0  0  0  0  0  0  0  0  0  0  0  0
   35.6400  -25.0878  -12.8180 H   0  0  0  0  0  0  0  0  0  0  0  0
   37.3468  -24.6923  -12.7078 H   0  0  0  0  0  0  0  0  0  0  0  0
   38.7002  -26.5040  -13.5027 H   0  0  0  0  0  0  0  0  0  0  0  0
   39.2002  -25.4191  -14.7108 H   0  0  0  0  0  0  0  0  0  0  0  0
   38.4352  -26.8276  -17.5752 H   0  0  0  0  0  0  0  0  0  0  0  0
   39.9709  -27.5012  -17.8909 H   0  0  0  0  0  0  0  0  0  0  0  0
   42.2218  -25.3366  -17.6052 H   0  0  0  0  0  0  0  0  0  0  0  0
   42.0387  -25.2804  -15.8950 H   0  0  0  0  0  0  0  0  0  0  0  0
   43.0313  -20.7114  -16.1907 H   0  0  0  0  0  0  0  0  0  0  0  0
   41.4097  -21.1718  -16.4965 H   0  0  0  0  0  0  0  0  0  0  0  0
   40.9694  -20.0258  -19.9539 H   0  0  0  0  0  0  0  0  0  0  0  0
   40.1918  -19.2788  -18.4711 H   0  0  0  0  0  0  0  0  0  0  0  0
   38.3188  -19.0411  -22.7460 H   0  0  0  0  0  0  0  0  0  0  0  0
   37.1038  -19.9125  -21.9797 H   0  0  0  0  0  0  0  0  0  0  0  0
   37.4950  -23.3868  -23.0621 H   0  0  0  0  0  0  0  0  0  0  0  0
   38.6957  -23.3204  -21.9565 H   0  0  0  0  0  0  0  0  0  0  0  0
   41.5075  -22.7476  -23.1908 H   0  0  0  0  0  0  0  0  0  0  0  0
   41.6895  -23.7418  -24.5767 H   0  0  0  0  0  0  0  0  0  0  0  0
   44.7916  -24.4301  -23.3035 H   0  0  0  0  0  0  0  0  0  0  0  0
   44.4912  -23.8879  -21.7093 H   0  0  0  0  0  0  0  0  0  0  0  0
   44.8924  -21.0096  -21.4651 H   0  0  0  0  0  0  0  0  0  0  0  0
   43.1916  -21.1916  -21.4180 H   0  0  0  0  0  0  0  0  0  0  0  0
   42.8673  -20.3028  -25.0323 H   0  0  0  0  0  0  0  0  0  0  0  0
   43.4845  -18.6429  -25.1557 H   0  0  0  0  0  0  0  0  0  0  0  0
   39.5329  -18.7792  -26.3888 H   0  0  0  0  0  0  0  0  0  0  0  0
   39.1553  -19.6999  -25.0773 H   0  0  0  0  0  0  0  0  0  0  0  0
   38.8779  -22.4861  -26.0120 H   0  0  0  0  0  0  0  0  0  0  0  0
   40.4193  -22.3658  -25.0970 H   0  0  0  0  0  0  0  0  0  0  0  0
   40.9442  -25.6259  -25.1666 H   0  0  0  0  0  0  0  0  0  0  0  0
   41.0839  -26.2348  -26.7091 H   0  0  0  0  0  0  0  0  0  0  0  0
   37.8355  -27.3687  -24.3783 H   0  0  0  0  0  0  0  0  0  0  0  0
   39.4230  -26.8944  -23.8393 H   0  0  0  0  0  0  0  0  0  0  0  0
   38.5051  -29.2880  -25.8360 H   0  0  0  0  0  0  0  0  0  0  0  0
  1  2  1  0  0  0  0
  1 82  1  0  0  0  0
  1 83  1  0  0  0  0
  1 84  1  0  0  0  0
  2  3  1  0  0  0  0
  2 85  1  0  0  0  0
  2 86  1  0  0  0  0
  3  4  1  0  0  0  0
  3 87  1  0  0  0  0
  3 88  1  0  0  0  0
  4  5  1  0  0  0  0
  4 89  1  0  0  0  0
  4 90  1  0  0  0  0
  5  6  1  0  0  0  0
  5 91  1  0  0  0  0
  5 92  1  0  0  0  0
  6  7  1  0  0  0  0
  6 93  1  0  0  0  0
  6 94  1  0  0  0  0
  7  8  1  0  0  0  0
  7 95  1  0  0  0  0
  7 96  1  0  0  0  0
  8  9  1  0  0  0  0
  8 97  1  0  0  0  0
  8 98  1  0  0  0  0
  9 10  1  0  0  0  0
  9 99  1  0  0  0  0
  9100  1  0  0  0  0
 10 11  1  0  0  0  0
 10101  1  0  0  0  0
 10102  1  0  0  0  0
 11 12  1  0  0  0  0
 11103  1  0  0  0  0
 11104  1  0  0  0  0
 12 13  1  0  0  0  0
 12105  1  0  0  0  0
 12106  1  0  0  0  0
 13 14  1  0  0  0  0
 13107  1  0  0  0  0
 13108  1  0  0  0  0
 14 15  1  0  0  0  0
 14109  1  0  0  0  0
 14110  1  0  0  0  0
 15 16  1  0  0  0  0
 15111  1  0  0  0  0
 15112  1  0  0  0  0
 16 17  1  0  0  0  0
 16113  1  0  0  0  0
 16114  1  0  0  0  0
 17 18  1  0  0  0  0
 18 19  1  0  0  0  0
 18115  1  0  0  0  0
 18116  1  0  0  0  0
 19 20  1  0  0  0  0
 20 21  1  0  0  0  0
 20117  1  0  0  0  0
 20118  1  0  0  0  0
 21 22  1  0  0  0  0
 22 23  1  0  0  0  0
 22119  1  0  0  0  0
 22120  1  0  0  0  0
 23 24  1  0  0  0  0
 24 25  1  0  0  0  0
 24121  1  0  0  0  0
 24122  1  0  0  0  0
 25 26  1  0  0  0  0
 26 27  1  0  0  0  0
 26123  1  0  0  0  0
 26124  1  0  0  0  0
 27 28  1  0  0  0  0
 28 29  1  0  0  0  0
 28125  1  0  0  0  0
 28126  1  0  0  0  0
 29 30  1  0  0  0  0
 30 31  1  0  0  0  0
 30127  1  0  0  0  0
 30128  1  0  0  0  0
 31 32  1  0  0  0  0
 32 33  1  0  0  0  0
 32129  1  0  0  0  0
 32130  1  0  0  0  0
 33 34  1  0  0  0  0
 34 35  1  0  0  0  0
 34131  1  0  0  0  0
 34132  1  0  0  0  0
 35 36  1  0  0  0  0
 36 37  1  0  0  0  0
 36133  1  0  0  0  0
 36134  1  0  0  0  0
 37 38  1  0  0  0  0
 38 39  1  0  0  0  0
 38135  1  0  0  0  0
 38136  1  0  0  0  0
 39 40  1  0  0  0  0
 40 41  1  0  0  0  0
 40137  1  0  0  0  0
 40138  1  0  0  0  0
 41 42  1  0  0  0  0
 42 43  1  0  0  0  0
 42139  1  0  0  0  0
 42140  1  0  0  0  0
 43 44  1  0  0  0  0
 44 45  1  0  0  0  0
 44141  1  0  0  0  0
 44142  1  0  0  0  0
 45 46  1  0  0  0  0
 46 47  1  0  0  0  0
 46143  1  0  0  0  0
 46144  1  0  0  0  0
 47 48  1  0  0  0  0
 48 49  1  0  0  0  0
 48145  1  0  0  0  0
 48146  1  0  0  0  0
 49 50  1  0  0  0  0
 50 51  1  0  0  0  0
 50147  1  0  0  0  0
 50148  1  0  0  0  0
 51 52  1  0  0  0  0
 52 53  1  0  0  0  0
 52149  1  0  0  0  0
 52150  1  0  0  0  0
 53 54  1  0  0  0  0
 54 55  1  0  0  0  0
 54151  1  0  0  0  0
 54152  1  0  0  0  0
 55 56  1  0  0  0  0
 56 57  1  0  0  0  0
 56153  1  0  0  0  0
 56154  1  0  0  0  0
 57 58  1  0  0  0  0
 58 59  1  0  0  0  0
 58155  1  0  0  0  0
 58156  1  0  0  0  0
 59 60  1  0  0  0  0
 60 61  1  0  0  0  0
 60157  1  0  0  0  0
 60158  1  0  0  0  0
 61 62  1  0  0  0  0
 62 63  1  0  0  0  0
 62159  1  0  0  0  0
 62160  1  0  0  0  0
 63 64  1  0  0  0  0
 64 65  1  0  0  0  0
 64161  1  0  0  0  0
 64162  1  0  0  0  0
 65 66  1  0  0  0  0
 66 67  1  0  0  0  0
 66163  1  0  0  0  0
 66164  1  0  0  0  0
 67 68  1  0  0  0  0
 68 69  1  0  0  0  0
 68165  1  0  0  0  0
 68166  1  0  0  0  0
 69 70  1  0  0  0  0
 70 71  1  0  0  0  0
 70167  1  0  0  0  0
 70168  1  0  0  0  0
 71 72  1  0  0  0  0
 72 73  1  0  0  0  0
 72169  1  0  0  0  0
 72170  1  0  0  0  0
 73 74  1  0  0  0  0
 74 75  1  0  0  0  0
 74171  1  0  0  0  0
 74172  1  0  0  0  0
 75 76  1  0  0  0  0
 76 77  1  0  0  0  0
 76173  1  0  0  0  0
 76174  1  0  0  0  0
 77 78  1  0  0  0  0
 78 79  1  0  0  0  0
 78175  1  0  0  0  0
 78176  1  0  0  0  0
 79 80  1  0  0  0  0
 80 81  1  0  0  0  0
 80177  1  0  0  0  0
 80178  1  0  0  0  0
 81179  1  0  0  0  0
M  END
$$$$
