
 OpenBabel04232216493D

 55 56  0  0  1  0  0  0  0  0999 V2000
    5.1149    4.5998    1.8182 C   0  0  0  0  0  0  0  0  0  0  0  0
    6.4782    4.9695    1.2173 C   0  0  0  0  0  0  0  0  0  0  0  0
    6.7392    4.2411    0.0773 C   0  0  0  0  0  0  0  0  0  0  0  0
    6.6415    2.6825   -0.1113 C   0  0  0  0  0  0  0  0  0  0  0  0
    6.3495    2.0060   -1.2701 C   0  0  0  0  0  0  0  0  0  0  0  0
    6.9447    0.6324   -1.7366 C   0  0  0  0  0  0  0  0  0  0  0  0
    7.3568    0.5350   -3.2690 C   0  0  3  0  0  0  0  0  0  0  0  0
    6.4715   -0.2393   -4.2578 C   0  0  0  0  0  0  0  0  0  0  0  0
    6.2425    0.8374   -5.0466 C   0  0  0  0  0  0  0  0  0  0  0  0
    7.0476    1.6835   -4.2106 C   0  0  0  0  0  0  0  0  0  0  0  0
    7.4074    2.9669   -4.2474 C   0  0  0  0  0  0  0  0  0  0  0  0
    8.2618    3.5014   -3.2222 C   0  0  0  0  0  0  0  0  0  0  0  0
    8.3773    4.8049   -2.9605 C   0  0  0  0  0  0  0  0  0  0  0  0
    9.1868    5.2638   -1.8629 C   0  0  0  0  0  0  0  0  0  0  0  0
    9.3650    6.5677   -1.6153 C   0  0  0  0  0  0  0  0  0  0  0  0
   10.2894    7.0234   -0.6257 C   0  0  0  0  0  0  0  0  0  0  0  0
   10.6206    8.3133   -0.5271 C   0  0  0  0  0  0  0  0  0  0  0  0
   11.6357    8.7773    0.3870 C   0  0  0  0  0  0  0  0  0  0  0  0
   12.0456   10.0551    0.4770 C   0  0  0  0  0  0  0  0  0  0  0  0
   12.8704   10.4738    1.6063 C   0  0  0  0  0  0  0  0  0  0  0  0
   12.3362   11.4164    2.4244 C   0  0  0  0  0  0  0  0  0  0  0  0
   11.5466   10.7668    3.5176 C   0  0  0  0  0  0  0  0  0  0  0  0
   10.2903   10.3696    3.1702 C   0  0  0  0  0  0  0  0  0  0  0  0
    9.6923    8.9838    3.2853 C   0  0  0  0  0  0  0  0  0  0  0  0
    8.7467    8.4685    2.4141 C   0  0  0  0  0  0  0  0  0  0  0  0
    8.0006    7.1097    2.1848 C   0  0  0  0  0  0  0  0  0  0  0  0
    7.3928    5.8818    2.1458 C   0  0  0  0  0  0  0  0  0  0  0  0
    4.3455    4.5508    1.0313 H   0  0  0  0  0  0  0  0  0  0  0  0
    4.7592    5.3201    2.5571 H   0  0  0  0  0  0  0  0  0  0  0  0
    5.1498    3.6059    2.2836 H   0  0  0  0  0  0  0  0  0  0  0  0
    6.0278    4.5161   -0.7263 H   0  0  0  0  0  0  0  0  0  0  0  0
    7.0152    2.1078    0.7347 H   0  0  0  0  0  0  0  0  0  0  0  0
    5.8104    2.5155   -2.0659 H   0  0  0  0  0  0  0  0  0  0  0  0
    6.3251   -0.2343   -1.4766 H   0  0  0  0  0  0  0  0  0  0  0  0
    7.8900    0.5070   -1.1859 H   0  0  0  0  0  0  0  0  0  0  0  0
    8.4069    0.1955   -3.3166 H   0  0  0  0  0  0  0  0  0  0  0  0
    6.2135   -1.2877   -4.3858 H   0  0  0  0  0  0  0  0  0  0  0  0
    5.7218    1.0031   -5.9880 H   0  0  0  0  0  0  0  0  0  0  0  0
    7.0049    3.6221   -5.0114 H   0  0  0  0  0  0  0  0  0  0  0  0
    8.7815    2.7883   -2.5848 H   0  0  0  0  0  0  0  0  0  0  0  0
    7.8473    5.5421   -3.5552 H   0  0  0  0  0  0  0  0  0  0  0  0
    9.6737    4.5135   -1.2390 H   0  0  0  0  0  0  0  0  0  0  0  0
    8.8597    7.3107   -2.2291 H   0  0  0  0  0  0  0  0  0  0  0  0
   10.7507    6.2802    0.0304 H   0  0  0  0  0  0  0  0  0  0  0  0
   10.1204    9.0575   -1.1408 H   0  0  0  0  0  0  0  0  0  0  0  0
   12.0037    8.0343    1.0982 H   0  0  0  0  0  0  0  0  0  0  0  0
   11.6047   10.8185   -0.1632 H   0  0  0  0  0  0  0  0  0  0  0  0
   13.3025    9.5993    2.1031 H   0  0  0  0  0  0  0  0  0  0  0  0
   11.8941   12.3063    1.9695 H   0  0  0  0  0  0  0  0  0  0  0  0
   12.2141   10.2557    4.2113 H   0  0  0  0  0  0  0  0  0  0  0  0
    9.7671   11.0446    2.4976 H   0  0  0  0  0  0  0  0  0  0  0  0
   10.1750    8.3865    4.0583 H   0  0  0  0  0  0  0  0  0  0  0  0
    8.4052    9.2116    1.6767 H   0  0  0  0  0  0  0  0  0  0  0  0
    8.3547    6.9570    3.2407 H   0  0  0  0  0  0  0  0  0  0  0  0
    7.3566    5.3600    3.1201 H   0  0  0  0  0  0  0  0  0  0  0  0
  1  2  1  0  0  0  0
  1 28  1  0  0  0  0
  1 29  1  0  0  0  0
  1 30  1  0  0  0  0
  2  3  2  3  0  0  0
  2 27  1  0  0  0  0
  3  4  1  0  0  0  0
  3 31  1  0  0  0  0
  4  5  2  3  0  0  0
  4 32  1  0  0  0  0
  5  6  1  0  0  0  0
  5 33  1  0  0  0  0
  6  7  1  0  0  0  0
  6 34  1  0  0  0  0
  6 35  1  0  0  0  0
  7  8  1  0  0  0  0
  7 10  1  0  0  0  0
  7 36  1  0  0  0  0
  8  9  2  0  0  0  0
  8 37  1  0  0  0  0
  9 10  1  0  0  0  0
  9 38  1  0  0  0  0
 10 11  2  3  0  0  0
 11 12  1  0  0  0  0
 11 39  1  0  0  0  0
 12 13  2  3  0  0  0
 12 40  1  0  0  0  0
 13 14  1  0  0  0  0
 13 41  1  0  0  0  0
 14 15  2  3  0  0  0
 14 42  1  0  0  0  0
 15 16  1  0  0  0  0
 15 43  1  0  0  0  0
 16 17  2  3  0  0  0
 16 44  1  0  0  0  0
 17 18  1  0  0  0  0
 17 45  1  0  0  0  0
 18 19  2  3  0  0  0
 18 46  1  0  0  0  0
 19 20  1  0  0  0  0
 19 47  1  0  0  0  0
 20 21  2  3  0  0  0
 20 48  1  0  0  0  0
 21 22  1  0  0  0  0
 21 49  1  0  0  0  0
 22 23  2  3  0  0  0
 22 50  1  0  0  0  0
 23 24  1  0  0  0  0
 23 51  1  0  0  0  0
 24 25  2  3  0  0  0
 24 52  1  0  0  0  0
 25 26  1  0  0  0  0
 25 53  1  0  0  0  0
 26 27  2  3  0  0  0
 26 54  1  0  0  0  0
 27 55  1  0  0  0  0
M  END
$$$$
