
 OpenBabel04232216503D

 82 82  0  0  1  0  0  0  0  0999 V2000
    6.6189   -3.2536   -1.6318 C   0  0  0  0  0  0  0  0  0  0  0  0
    6.8435   -1.9196   -2.2983 C   0  0  0  0  0  0  0  0  0  0  0  0
    6.8269   -2.1094   -3.6264 C   0  0  0  0  0  0  0  0  0  0  0  0
    6.3685   -1.1934   -4.6302 C   0  0  0  0  0  0  0  0  0  0  0  0
    7.3093   -0.3831   -5.1424 C   0  0  0  0  0  0  0  0  0  0  0  0
    7.3584    0.8872   -4.3729 C   0  0  0  0  0  0  0  0  0  0  0  0
    7.5448    2.1877   -5.0881 C   0  0  0  0  0  0  0  0  0  0  0  0
    6.9136    3.2504   -4.1864 C   0  0  0  0  0  0  0  0  0  0  0  0
    7.8210    4.4033   -4.1251 C   0  0  0  0  0  3  0  0  0  0  0  0
    8.7909    4.4209   -2.9842 C   0  0  0  0  0  0  0  0  0  0  0  0
    9.4267    3.0267   -2.5565 C   0  0  0  0  0  0  0  0  0  0  0  0
    8.7226    2.0342   -1.4262 C   0  0  0  0  0  0  0  0  0  0  0  0
    8.2639    0.3493   -1.3453 C   0  0  0  0  0  0  0  0  0  0  0  0
    6.7279   -0.5983   -1.3930 C   0  0  3  0  0  0  0  0  0  0  0  0
    6.0568   -0.9267    0.1447 C   0  0  0  0  0  0  0  0  0  0  0  0
    5.2076   -2.2548    0.7700 C   0  0  0  0  0  0  0  0  0  0  0  0
    3.6581   -2.4598    1.1826 C   0  0  0  0  0  0  0  0  0  0  0  0
    2.9213   -3.8837    1.0819 C   0  0  0  0  0  0  0  0  0  0  0  0
    1.7440   -4.1760    0.1099 C   0  0  0  0  0  0  0  0  0  0  0  0
    2.0620   -4.3224   -1.3834 C   0  0  0  0  0  0  0  0  0  0  0  0
    3.0231   -5.4508   -1.7721 C   0  0  0  0  0  0  0  0  0  0  0  0
    2.4715   -6.8681   -1.7097 C   0  0  0  0  0  0  0  0  0  0  0  0
    3.5177   -7.8949   -2.2359 C   0  0  0  0  0  0  0  0  0  0  0  0
    3.0407   -9.3477   -2.1702 C   0  0  0  0  0  0  0  0  0  0  0  0
    4.1579  -10.3135   -2.6553 C   0  0  0  0  0  0  0  0  0  0  0  0
    3.7119  -11.7795   -2.5862 C   0  0  0  0  0  0  0  0  0  0  0  0
    4.8216  -12.7407   -3.0393 C   0  0  0  0  0  0  0  0  0  0  0  0
    4.3699  -14.2029   -2.9643 C   0  0  0  0  0  0  0  0  0  0  0  0
    5.4662  -15.1560   -3.4163 C   0  0  0  0  0  0  0  0  0  0  0  0
    6.8177   -4.1175   -2.2685 H   0  0  0  0  0  0  0  0  0  0  0  0
    5.5376   -3.3099   -1.4626 H   0  0  0  0  0  0  0  0  0  0  0  0
    7.2135   -3.3819   -0.7269 H   0  0  0  0  0  0  0  0  0  0  0  0
    6.9629   -3.1110   -4.0571 H   0  0  0  0  0  0  0  0  0  0  0  0
    5.4117   -0.7706   -4.3103 H   0  0  0  0  0  0  0  0  0  0  0  0
    8.2730   -0.7616   -5.4343 H   0  0  0  0  0  0  0  0  0  0  0  0
    8.2129    0.7699   -3.7086 H   0  0  0  0  0  0  0  0  0  0  0  0
    6.4666    0.9712   -3.7396 H   0  0  0  0  0  0  0  0  0  0  0  0
    7.0806    2.1936   -6.0787 H   0  0  0  0  0  0  0  0  0  0  0  0
    8.6229    2.3401   -5.2323 H   0  0  0  0  0  0  0  0  0  0  0  0
    6.7772    2.9108   -3.1486 H   0  0  0  0  0  0  0  0  0  0  0  0
    5.9078    3.5113   -4.5326 H   0  0  0  0  0  0  0  0  0  0  0  0
    7.9620    5.0109   -5.0175 H   0  0  0  0  0  0  0  0  0  0  0  0
    8.3268    4.9209   -2.1273 H   0  0  0  0  0  0  0  0  0  0  0  0
    9.5931    5.1045   -3.3140 H   0  0  0  0  0  0  0  0  0  0  0  0
    9.8174    2.4928   -3.4285 H   0  0  0  0  0  0  0  0  0  0  0  0
   10.3520    3.4013   -2.0714 H   0  0  0  0  0  0  0  0  0  0  0  0
    9.6781    1.8915   -0.8756 H   0  0  0  0  0  0  0  0  0  0  0  0
    8.1375    2.6430   -0.7335 H   0  0  0  0  0  0  0  0  0  0  0  0
    8.5994    0.1359   -0.3183 H   0  0  0  0  0  0  0  0  0  0  0  0
    8.9895   -0.1739   -1.9839 H   0  0  0  0  0  0  0  0  0  0  0  0
    6.0073    0.0728   -1.8734 H   0  0  0  0  0  0  0  0  0  0  0  0
    5.5320   -0.0169    0.4658 H   0  0  0  0  0  0  0  0  0  0  0  0
    6.9707   -0.9606    0.7580 H   0  0  0  0  0  0  0  0  0  0  0  0
    5.6328   -2.1941    1.7887 H   0  0  0  0  0  0  0  0  0  0  0  0
    5.6023   -3.2239    0.4782 H   0  0  0  0  0  0  0  0  0  0  0  0
    2.9974   -1.6268    0.9378 H   0  0  0  0  0  0  0  0  0  0  0  0
    3.7292   -2.4059    2.2885 H   0  0  0  0  0  0  0  0  0  0  0  0
    2.4123   -4.0036    2.0569 H   0  0  0  0  0  0  0  0  0  0  0  0
    3.6365   -4.7131    1.0600 H   0  0  0  0  0  0  0  0  0  0  0  0
    0.9756   -3.3991    0.2271 H   0  0  0  0  0  0  0  0  0  0  0  0
    1.2451   -5.1068    0.4291 H   0  0  0  0  0  0  0  0  0  0  0  0
    2.4609   -3.3685   -1.7315 H   0  0  0  0  0  0  0  0  0  0  0  0
    1.1200   -4.4722   -1.9256 H   0  0  0  0  0  0  0  0  0  0  0  0
    3.9433   -5.3884   -1.1665 H   0  0  0  0  0  0  0  0  0  0  0  0
    3.3343   -5.2624   -2.8212 H   0  0  0  0  0  0  0  0  0  0  0  0
    1.5734   -6.9513   -2.3602 H   0  0  0  0  0  0  0  0  0  0  0  0
    2.1786   -7.1339   -0.6862 H   0  0  0  0  0  0  0  0  0  0  0  0
    4.4098   -7.7680   -1.6252 H   0  0  0  0  0  0  0  0  0  0  0  0
    3.7981   -7.6314   -3.2638 H   0  0  0  0  0  0  0  0  0  0  0  0
    2.1673   -9.4733   -2.8175 H   0  0  0  0  0  0  0  0  0  0  0  0
    2.7622   -9.6047   -1.1607 H   0  0  0  0  0  0  0  0  0  0  0  0
    5.0497  -10.1773   -2.0312 H   0  0  0  0  0  0  0  0  0  0  0  0
    4.4463  -10.0681   -3.6851 H   0  0  0  0  0  0  0  0  0  0  0  0
    2.8283  -11.9248   -3.2185 H   0  0  0  0  0  0  0  0  0  0  0  0
    3.4209  -12.0259   -1.5589 H   0  0  0  0  0  0  0  0  0  0  0  0
    5.7086  -12.6028   -2.4092 H   0  0  0  0  0  0  0  0  0  0  0  0
    5.1170  -12.5045   -4.0687 H   0  0  0  0  0  0  0  0  0  0  0  0
    3.4858  -14.3534   -3.5931 H   0  0  0  0  0  0  0  0  0  0  0  0
    4.0833  -14.4526   -1.9362 H   0  0  0  0  0  0  0  0  0  0  0  0
    5.7550  -14.9635   -4.4544 H   0  0  0  0  0  0  0  0  0  0  0  0
    5.1160  -16.1913   -3.3520 H   0  0  0  0  0  0  0  0  0  0  0  0
    6.3571  -15.0638   -2.7873 H   0  0  0  0  0  0  0  0  0  0  0  0
  1  2  1  0  0  0  0
  1 30  1  0  0  0  0
  1 31  1  0  0  0  0
  1 32  1  0  0  0  0
  2  3  2  3  0  0  0
  2 14  1  0  0  0  0
  3  4  1  0  0  0  0
  3 33  1  0  0  0  0
  4  5  2  3  0  0  0
  4 34  1  0  0  0  0
  5  6  1  0  0  0  0
  5 35  1  0  0  0  0
  6  7  1  0  0  0  0
  6 36  1  0  0  0  0
  6 37  1  0  0  0  0
  7  8  1  0  0  0  0
  7 38  1  0  0  0  0
  7 39  1  0  0  0  0
  8  9  1  0  0  0  0
  8 40  1  0  0  0  0
  8 41  1  0  0  0  0
  9 10  1  0  0  0  0
  9 42  1  0  0  0  0
 10 11  1  0  0  0  0
 10 43  1  0  0  0  0
 10 44  1  0  0  0  0
 11 12  1  0  0  0  0
 11 45  1  0  0  0  0
 11 46  1  0  0  0  0
 12 13  1  0  0  0  0
 12 47  1  0  0  0  0
 12 48  1  0  0  0  0
 13 14  1  0  0  0  0
 13 49  1  0  0  0  0
 13 50  1  0  0  0  0
 14 15  1  0  0  0  0
 14 51  1  0  0  0  0
 15 16  1  0  0  0  0
 15 52  1  0  0  0  0
 15 53  1  0  0  0  0
 16 17  1  0  0  0  0
 16 54  1  0  0  0  0
 16 55  1  0  0  0  0
 17 18  1  0  0  0  0
 17 56  1  0  0  0  0
 17 57  1  0  0  0  0
 18 19  1  0  0  0  0
 18 58  1  0  0  0  0
 18 59  1  0  0  0  0
 19 20  1  0  0  0  0
 19 60  1  0  0  0  0
 19 61  1  0  0  0  0
 20 21  1  0  0  0  0
 20 62  1  0  0  0  0
 20 63  1  0  0  0  0
 21 22  1  0  0  0  0
 21 64  1  0  0  0  0
 21 65  1  0  0  0  0
 22 23  1  0  0  0  0
 22 66  1  0  0  0  0
 22 67  1  0  0  0  0
 23 24  1  0  0  0  0
 23 68  1  0  0  0  0
 23 69  1  0  0  0  0
 24 25  1  0  0  0  0
 24 70  1  0  0  0  0
 24 71  1  0  0  0  0
 25 26  1  0  0  0  0
 25 72  1  0  0  0  0
 25 73  1  0  0  0  0
 26 27  1  0  0  0  0
 26 74  1  0  0  0  0
 26 75  1  0  0  0  0
 27 28  1  0  0  0  0
 27 76  1  0  0  0  0
 27 77  1  0  0  0  0
 28 29  1  0  0  0  0
 28 78  1  0  0  0  0
 28 79  1  0  0  0  0
 29 80  1  0  0  0  0
 29 81  1  0  0  0  0
 29 82  1  0  0  0  0
M  END
$$$$
