
 OpenBabel04232216523D

 62 63  0  0  1  0  0  0  0  0999 V2000
    3.4894   -0.5125   -0.1684 C   0  0  0  0  0  0  0  0  0  0  0  0
    4.4657   -1.3204   -1.0383 C   0  0  0  0  0  0  0  0  0  0  0  0
    5.9034   -1.6664   -0.4829 C   0  0  0  0  0  0  0  0  0  0  0  0
    6.0717   -2.8992    0.4950 C   0  0  0  0  0  0  0  0  0  0  0  0
    7.3653   -3.2233    1.5349 C   0  0  3  0  0  0  0  0  0  0  0  0
    7.8534   -2.0091    2.3662 C   0  0  3  0  0  0  0  0  0  0  0  0
    7.2816   -0.2758    2.1158 S   0  0  0  0  0  0  0  0  0  0  0  0
    8.4463    0.5432    2.9606 N   0  0  0  0  0  0  0  0  0  0  0  0
    7.5306   -2.3045    3.8284 C   0  0  0  0  0  0  0  0  0  0  0  0
    8.7292   -2.2089    4.6493 N   0  0  0  0  0  0  0  0  0  0  0  0
    8.5687   -3.0155    5.7397 C   0  0  0  0  0  0  0  0  0  0  0  0
    7.6504   -2.9229    6.5566 O   0  0  0  0  0  0  0  0  0  0  0  0
    9.4147   -4.2068    5.7262 C   0  0  0  0  0  0  0  0  0  0  0  0
   10.6996   -4.0108    5.3378 C   0  0  0  0  0  0  0  0  0  0  0  0
   11.0422   -4.0044    3.8593 C   0  0  0  0  0  0  0  0  0  0  0  0
   10.6928   -5.1186    3.1607 C   0  0  0  0  0  0  0  0  0  0  0  0
   11.6955   -6.4743    3.5020 C   0  0  0  0  0  0  0  0  0  0  0  0
   11.2097   -7.1625    4.7992 C   0  0  0  0  0  0  0  0  0  0  0  0
   11.2114   -8.4521    5.7395 C   0  0  0  0  0  0  0  0  0  0  0  0
    9.7839   -8.2997    6.3338 C   0  0  0  0  0  0  0  0  0  0  0  0
    8.6346   -8.7225    7.1986 C   0  0  0  0  0  0  0  0  0  0  0  0
    7.4109   -7.7087    6.8871 C   0  0  0  0  0  0  0  0  0  0  0  0
    7.5521   -6.2400    6.2126 C   0  0  0  0  0  0  0  0  0  0  0  0
    8.9001   -5.4795    6.3563 C   0  0  0  0  0  0  0  0  0  0  0  0
    9.6200   -5.1080    2.0308 C   0  0  0  0  0  0  0  0  0  0  0  0
    8.5084   -4.4762    1.4496 C   0  0  0  0  0  0  0  0  0  0  0  0
    2.5603   -0.3210   -0.7342 H   0  0  0  0  0  0  0  0  0  0  0  0
    3.8805    0.4782    0.0925 H   0  0  0  0  0  0  0  0  0  0  0  0
    3.1978   -1.0334    0.7457 H   0  0  0  0  0  0  0  0  0  0  0  0
    4.6147   -0.6911   -1.9303 H   0  0  0  0  0  0  0  0  0  0  0  0
    3.9569   -2.2226   -1.3907 H   0  0  0  0  0  0  0  0  0  0  0  0
    6.2710   -0.7315   -0.0784 H   0  0  0  0  0  0  0  0  0  0  0  0
    6.5222   -1.8685   -1.3634 H   0  0  0  0  0  0  0  0  0  0  0  0
    5.8846   -3.8064   -0.0928 H   0  0  0  0  0  0  0  0  0  0  0  0
    5.2042   -2.8069    1.1703 H   0  0  0  0  0  0  0  0  0  0  0  0
    6.7134   -3.8152    2.2003 H   0  0  0  0  0  0  0  0  0  0  0  0
    8.9276   -1.9446    2.1705 H   0  0  0  0  0  0  0  0  0  0  0  0
    8.0653    0.9580    3.8138 H   0  0  0  0  0  0  0  0  0  0  0  0
    8.8366    1.3091    2.4144 H   0  0  0  0  0  0  0  0  0  0  0  0
    7.1543   -3.3271    3.9540 H   0  0  0  0  0  0  0  0  0  0  0  0
    6.7588   -1.6736    4.2773 H   0  0  0  0  0  0  0  0  0  0  0  0
    9.5677   -2.3331    4.1089 H   0  0  0  0  0  0  0  0  0  0  0  0
   11.4982   -4.5300    5.8760 H   0  0  0  0  0  0  0  0  0  0  0  0
   12.1376   -3.8706    3.9306 H   0  0  0  0  0  0  0  0  0  0  0  0
   12.7249   -6.1213    3.6684 H   0  0  0  0  0  0  0  0  0  0  0  0
   11.7034   -7.1739    2.6656 H   0  0  0  0  0  0  0  0  0  0  0  0
   10.1920   -7.1911    4.4251 H   0  0  0  0  0  0  0  0  0  0  0  0
   11.3964   -6.4117    5.5649 H   0  0  0  0  0  0  0  0  0  0  0  0
   11.9487   -8.3521    6.5568 H   0  0  0  0  0  0  0  0  0  0  0  0
   11.3733   -9.3977    5.2283 H   0  0  0  0  0  0  0  0  0  0  0  0
    9.1966   -8.2431    5.4159 H   0  0  0  0  0  0  0  0  0  0  0  0
    9.9947   -7.4003    6.9069 H   0  0  0  0  0  0  0  0  0  0  0  0
    8.8654   -8.6741    8.2693 H   0  0  0  0  0  0  0  0  0  0  0  0
    8.3165   -9.7487    6.9794 H   0  0  0  0  0  0  0  0  0  0  0  0
    6.7427   -8.2667    6.2101 H   0  0  0  0  0  0  0  0  0  0  0  0
    6.8320   -7.5935    7.8106 H   0  0  0  0  0  0  0  0  0  0  0  0
    7.3450   -6.3767    5.1370 H   0  0  0  0  0  0  0  0  0  0  0  0
    6.7331   -5.6149    6.5820 H   0  0  0  0  0  0  0  0  0  0  0  0
    9.2880   -5.5595    7.3671 H   0  0  0  0  0  0  0  0  0  0  0  0
    9.4327   -6.1146    5.6892 H   0  0  0  0  0  0  0  0  0  0  0  0
    9.8666   -6.0253    1.4724 H   0  0  0  0  0  0  0  0  0  0  0  0
    8.1541   -5.0669    0.5935 H   0  0  0  0  0  0  0  0  0  0  0  0
  1  2  1  0  0  0  0
  1 27  1  0  0  0  0
  1 28  1  0  0  0  0
  1 29  1  0  0  0  0
  2  3  1  0  0  0  0
  2 30  1  0  0  0  0
  2 31  1  0  0  0  0
  3  4  1  0  0  0  0
  3 32  1  0  0  0  0
  3 33  1  0  0  0  0
  4  5  1  0  0  0  0
  4 34  1  0  0  0  0
  4 35  1  0  0  0  0
  5  6  1  0  0  0  0
  5 26  1  0  0  0  0
  5 36  1  0  0  0  0
  6  7  1  0  0  0  0
  6  9  1  0  0  0  0
  6 37  1  0  0  0  0
  7  8  1  0  0  0  0
  8 38  1  0  0  0  0
  8 39  1  0  0  0  0
  9 10  1  0  0  0  0
  9 40  1  0  0  0  0
  9 41  1  0  0  0  0
 10 11  1  0  0  0  0
 10 42  1  0  0  0  0
 11 12  2  0  0  0  0
 11 13  1  0  0  0  0
 13 14  2  3  0  0  0
 13 24  1  0  0  0  0
 14 15  1  0  0  0  0
 14 43  1  0  0  0  0
 15 16  2  3  0  0  0
 15 44  1  0  0  0  0
 16 17  1  0  0  0  0
 16 25  1  0  0  0  0
 17 18  1  0  0  0  0
 17 45  1  0  0  0  0
 17 46  1  0  0  0  0
 18 19  1  0  0  0  0
 18 47  1  0  0  0  0
 18 48  1  0  0  0  0
 19 20  1  0  0  0  0
 19 49  1  0  0  0  0
 19 50  1  0  0  0  0
 20 21  1  0  0  0  0
 20 51  1  0  0  0  0
 20 52  1  0  0  0  0
 21 22  1  0  0  0  0
 21 53  1  0  0  0  0
 21 54  1  0  0  0  0
 22 23  1  0  0  0  0
 22 55  1  0  0  0  0
 22 56  1  0  0  0  0
 23 24  1  0  0  0  0
 23 57  1  0  0  0  0
 23 58  1  0  0  0  0
 24 59  1  0  0  0  0
 24 60  1  0  0  0  0
 25 26  2  3  0  0  0
 25 61  1  0  0  0  0
 26 62  1  0  0  0  0
M  END
$$$$
