
 OpenBabel04232216493D

 64 65  0  0  1  0  0  0  0  0999 V2000
    1.0726    0.4509   -0.9549 C   0  0  0  0  0  0  0  0  0  0  0  0
    2.5690    0.2499   -0.7156 C   0  0  3  0  0  0  0  0  0  0  0  0
    3.1287   -0.8779   -1.5173 C   0  0  0  0  0  3  0  0  0  0  0  0
    4.5750   -1.2418   -1.3706 C   0  0  0  0  0  0  0  0  0  0  0  0
    5.4931   -0.2441   -2.0733 C   0  0  0  0  0  0  0  0  0  0  0  0
    5.7995    1.0738   -1.3355 C   0  0  0  0  0  0  0  0  0  0  0  0
    4.7012    1.7356   -0.4728 C   0  0  3  0  0  0  0  0  0  0  0  0
    4.8759    1.3654    1.0170 C   0  0  0  0  0  0  0  0  0  0  0  0
    3.8545    2.0362    1.9373 C   0  0  0  0  0  0  0  0  0  0  0  0
    4.0195    1.5556    3.3779 C   0  0  0  0  0  0  0  0  0  0  0  0
    2.9304    2.1620    4.2542 C   0  0  0  0  0  0  0  0  0  0  0  0
    3.0477    1.7070    5.7053 C   0  0  0  0  0  0  0  0  0  0  0  0
    1.9105    2.2675    6.5425 C   0  0  0  0  0  0  0  0  0  0  0  0
    0.9893    2.9093    6.0311 O   0  0  0  0  0  0  0  0  0  0  0  0
    1.9567    2.0388    8.0214 C   0  0  0  0  0  0  0  0  0  0  0  0
    1.2835    2.8606    8.8447 C   0  0  0  0  0  0  0  0  0  0  0  0
    0.3461    3.8134    8.5030 N   0  0  0  0  0  0  0  0  0  0  0  0
   -0.9137    3.9489    9.2313 C   0  0  0  0  0  0  0  0  0  0  0  0
   -1.8460    2.7260    9.1096 C   0  0  0  0  0  0  0  0  0  0  0  0
   -1.3037    1.4064    9.6924 C   0  0  0  0  0  0  0  0  0  0  0  0
   -0.7642    0.4458    8.6156 C   0  0  0  0  0  0  0  0  0  0  0  0
    0.3470   -0.4882    9.1337 C   0  0  0  0  0  0  0  0  0  0  0  0
    1.6614   -0.4586    8.3256 C   0  0  0  0  0  0  0  0  0  0  0  0
    2.5657    0.7724    8.5532 C   0  0  0  0  0  0  0  0  0  0  0  0
    3.3202    1.5105   -1.0247 C   0  0  0  0  0  3  0  0  0  0  0  0
    0.5068   -0.4305   -0.6333 H   0  0  0  0  0  0  0  0  0  0  0  0
    0.8464    0.6290   -2.0121 H   0  0  0  0  0  0  0  0  0  0  0  0
    0.6981    1.3083   -0.3829 H   0  0  0  0  0  0  0  0  0  0  0  0
    2.6760   -0.0109    0.3420 H   0  0  0  0  0  0  0  0  0  0  0  0
    2.5770   -1.2669   -2.3666 H   0  0  0  0  0  0  0  0  0  0  0  0
    4.7116   -2.2269   -1.8327 H   0  0  0  0  0  0  0  0  0  0  0  0
    4.8446   -1.3648   -0.3173 H   0  0  0  0  0  0  0  0  0  0  0  0
    5.0786   -0.0015   -3.0615 H   0  0  0  0  0  0  0  0  0  0  0  0
    6.4539   -0.7356   -2.2696 H   0  0  0  0  0  0  0  0  0  0  0  0
    6.1098    1.7992   -2.1009 H   0  0  0  0  0  0  0  0  0  0  0  0
    6.6958    0.9234   -0.7187 H   0  0  0  0  0  0  0  0  0  0  0  0
    4.8751    2.8206   -0.5260 H   0  0  0  0  0  0  0  0  0  0  0  0
    5.8800    1.6688    1.3416 H   0  0  0  0  0  0  0  0  0  0  0  0
    4.8317    0.2799    1.1523 H   0  0  0  0  0  0  0  0  0  0  0  0
    2.8313    1.8172    1.6140 H   0  0  0  0  0  0  0  0  0  0  0  0
    3.9731    3.1252    1.8900 H   0  0  0  0  0  0  0  0  0  0  0  0
    5.0100    1.8350    3.7541 H   0  0  0  0  0  0  0  0  0  0  0  0
    3.9524    0.4611    3.4149 H   0  0  0  0  0  0  0  0  0  0  0  0
    1.9476    1.8747    3.8583 H   0  0  0  0  0  0  0  0  0  0  0  0
    2.9826    3.2565    4.2048 H   0  0  0  0  0  0  0  0  0  0  0  0
    4.0015    2.0444    6.1225 H   0  0  0  0  0  0  0  0  0  0  0  0
    3.0013    0.6147    5.7438 H   0  0  0  0  0  0  0  0  0  0  0  0
    1.3073    2.6847    9.9182 H   0  0  0  0  0  0  0  0  0  0  0  0
    0.2084    3.8372    7.4810 H   0  0  0  0  0  0  0  0  0  0  0  0
   -1.4395    4.8200    8.8218 H   0  0  0  0  0  0  0  0  0  0  0  0
   -0.7116    4.1706   10.2852 H   0  0  0  0  0  0  0  0  0  0  0  0
   -2.1551    2.5863    8.0668 H   0  0  0  0  0  0  0  0  0  0  0  0
   -2.7580    2.9774    9.6674 H   0  0  0  0  0  0  0  0  0  0  0  0
   -2.1226    0.8894   10.2083 H   0  0  0  0  0  0  0  0  0  0  0  0
   -0.5612    1.6141   10.4692 H   0  0  0  0  0  0  0  0  0  0  0  0
   -0.4444    0.9836    7.7204 H   0  0  0  0  0  0  0  0  0  0  0  0
   -1.6048   -0.1730    8.2739 H   0  0  0  0  0  0  0  0  0  0  0  0
   -0.0398   -1.5139    9.0797 H   0  0  0  0  0  0  0  0  0  0  0  0
    0.5663   -0.3056   10.1912 H   0  0  0  0  0  0  0  0  0  0  0  0
    1.4401   -0.5830    7.2581 H   0  0  0  0  0  0  0  0  0  0  0  0
    2.2436   -1.3421    8.6193 H   0  0  0  0  0  0  0  0  0  0  0  0
    3.5414    0.5983    8.0894 H   0  0  0  0  0  0  0  0  0  0  0  0
    2.7730    0.8637    9.6277 H   0  0  0  0  0  0  0  0  0  0  0  0
    3.0301    2.0880   -1.8988 H   0  0  0  0  0  0  0  0  0  0  0  0
  1  2  1  0  0  0  0
  1 26  1  0  0  0  0
  1 27  1  0  0  0  0
  1 28  1  0  0  0  0
  2  3  1  0  0  0  0
  2 25  1  0  0  0  0
  2 29  1  0  0  0  0
  3  4  1  0  0  0  0
  3 30  1  0  0  0  0
  4  5  1  0  0  0  0
  4 31  1  0  0  0  0
  4 32  1  0  0  0  0
  5  6  1  0  0  0  0
  5 33  1  0  0  0  0
  5 34  1  0  0  0  0
  6  7  1  0  0  0  0
  6 35  1  0  0  0  0
  6 36  1  0  0  0  0
  7  8  1  0  0  0  0
  7 25  1  0  0  0  0
  7 37  1  0  0  0  0
  8  9  1  0  0  0  0
  8 38  1  0  0  0  0
  8 39  1  0  0  0  0
  9 10  1  0  0  0  0
  9 40  1  0  0  0  0
  9 41  1  0  0  0  0
 10 11  1  0  0  0  0
 10 42  1  0  0  0  0
 10 43  1  0  0  0  0
 11 12  1  0  0  0  0
 11 44  1  0  0  0  0
 11 45  1  0  0  0  0
 12 13  1  0  0  0  0
 12 46  1  0  0  0  0
 12 47  1  0  0  0  0
 13 14  2  0  0  0  0
 13 15  1  0  0  0  0
 15 16  2  3  0  0  0
 15 24  1  0  0  0  0
 16 17  1  0  0  0  0
 16 48  1  0  0  0  0
 17 18  1  0  0  0  0
 17 49  1  0  0  0  0
 18 19  1  0  0  0  0
 18 50  1  0  0  0  0
 18 51  1  0  0  0  0
 19 20  1  0  0  0  0
 19 52  1  0  0  0  0
 19 53  1  0  0  0  0
 20 21  1  0  0  0  0
 20 54  1  0  0  0  0
 20 55  1  0  0  0  0
 21 22  1  0  0  0  0
 21 56  1  0  0  0  0
 21 57  1  0  0  0  0
 22 23  1  0  0  0  0
 22 58  1  0  0  0  0
 22 59  1  0  0  0  0
 23 24  1  0  0  0  0
 23 60  1  0  0  0  0
 23 61  1  0  0  0  0
 24 62  1  0  0  0  0
 24 63  1  0  0  0  0
 25 64  1  0  0  0  0
M  END
$$$$
