
 OpenBabel04232217023D

 88 87  0  0  0  0  0  0  0  0999 V2000
   13.6928    8.0703    2.3665 O   0  0  0  0  0  0  0  0  0  0  0  0
   13.5685    7.6453    0.9830 O   0  0  0  0  0  0  0  0  0  0  0  0
   11.9679    7.6259    0.5483 S   0  0  0  0  0  0  0  0  0  0  0  0
   11.3777    6.2895    1.6452 C   0  0  0  0  0  0  0  0  0  0  0  0
    9.8669    6.0714    1.4110 C   0  0  0  0  0  0  0  0  0  0  0  0
    9.4791    5.6395    0.0476 N   0  0  0  0  0  0  0  0  0  0  0  0
   10.1198    4.2185   -0.5308 S   0  0  0  0  0  0  0  0  0  0  0  0
    9.3812    4.0943   -2.4320 S   0  0  0  0  0  0  0  0  0  0  0  0
   10.0934    5.7016   -3.5100 S   0  0  0  0  0  0  0  0  0  0  0  0
   12.1632    5.6617   -3.5491 S   0  0  0  0  0  0  0  0  0  0  0  0
   12.8184    7.3529   -4.6084 S   0  0  0  0  0  0  0  0  0  0  0  0
   14.9241    7.3503   -4.6085 S   0  0  0  0  0  0  0  0  0  0  0  0
   15.6115    9.0271   -5.6851 S   0  0  0  0  0  0  0  0  0  0  0  0
   17.7216    9.0157   -5.6776 S   0  0  0  0  0  0  0  0  0  0  0  0
   18.4134   10.6933   -6.7536 S   0  0  0  0  0  0  0  0  0  0  0  0
   20.5231   10.6822   -6.7465 S   0  0  0  0  0  0  0  0  0  0  0  0
   21.2140   12.3601   -7.8226 S   0  0  0  0  0  0  0  0  0  0  0  0
   23.3235   12.3490   -7.8155 S   0  0  0  0  0  0  0  0  0  0  0  0
   24.0142   14.0268   -8.8916 S   0  0  0  0  0  0  0  0  0  0  0  0
   26.1236   14.0156   -8.8844 S   0  0  0  0  0  0  0  0  0  0  0  0
   26.8142   15.6934   -9.9605 S   0  0  0  0  0  0  0  0  0  0  0  0
   28.9236   15.6822   -9.9533 S   0  0  0  0  0  0  0  0  0  0  0  0
   29.6142   17.3600  -11.0293 S   0  0  0  0  0  0  0  0  0  0  0  0
   31.7236   17.3488  -11.0222 S   0  0  0  0  0  0  0  0  0  0  0  0
   32.4142   19.0266  -12.0982 S   0  0  0  0  0  0  0  0  0  0  0  0
   34.5236   19.0154  -12.0911 S   0  0  0  0  0  0  0  0  0  0  0  0
   35.2142   20.6931  -13.1671 S   0  0  0  0  0  0  0  0  0  0  0  0
   37.3236   20.6820  -13.1600 S   0  0  0  0  0  0  0  0  0  0  0  0
   38.0142   22.3597  -14.2360 S   0  0  0  0  0  0  0  0  0  0  0  0
   40.1236   22.3486  -14.2288 S   0  0  0  0  0  0  0  0  0  0  0  0
   40.8142   24.0263  -15.3049 S   0  0  0  0  0  0  0  0  0  0  0  0
   42.9236   24.0152  -15.2977 S   0  0  0  0  0  0  0  0  0  0  0  0
   43.6142   25.6929  -16.3737 S   0  0  0  0  0  0  0  0  0  0  0  0
   45.7236   25.6817  -16.3666 S   0  0  0  0  0  0  0  0  0  0  0  0
   46.4142   27.3595  -17.4426 S   0  0  0  0  0  0  0  0  0  0  0  0
   48.5236   27.3483  -17.4355 S   0  0  0  0  0  0  0  0  0  0  0  0
   49.2142   29.0261  -18.5115 S   0  0  0  0  0  0  0  0  0  0  0  0
   51.3235   29.0149  -18.5044 S   0  0  0  0  0  0  0  0  0  0  0  0
   52.0142   30.6926  -19.5804 S   0  0  0  0  0  0  0  0  0  0  0  0
   54.1235   30.6815  -19.5732 S   0  0  0  0  0  0  0  0  0  0  0  0
   54.8142   32.3592  -20.6493 S   0  0  0  0  0  0  0  0  0  0  0  0
   56.9235   32.3481  -20.6421 S   0  0  0  0  0  0  0  0  0  0  0  0
   57.6142   34.0258  -21.7181 S   0  0  0  0  0  0  0  0  0  0  0  0
   59.7235   34.0147  -21.7110 S   0  0  0  0  0  0  0  0  0  0  0  0
   60.4141   35.6924  -22.7870 S   0  0  0  0  0  0  0  0  0  0  0  0
   62.5235   35.6813  -22.7799 S   0  0  0  0  0  0  0  0  0  0  0  0
   63.2141   37.3590  -23.8559 S   0  0  0  0  0  0  0  0  0  0  0  0
   65.3235   37.3478  -23.8488 S   0  0  0  0  0  0  0  0  0  0  0  0
   66.0141   39.0256  -24.9248 S   0  0  0  0  0  0  0  0  0  0  0  0
   68.1235   39.0144  -24.9176 S   0  0  0  0  0  0  0  0  0  0  0  0
   68.8141   40.6922  -25.9937 S   0  0  0  0  0  0  0  0  0  0  0  0
   70.9235   40.6810  -25.9865 S   0  0  0  0  0  0  0  0  0  0  0  0
   71.6141   42.3587  -27.0625 S   0  0  0  0  0  0  0  0  0  0  0  0
   73.7235   42.3476  -27.0554 S   0  0  0  0  0  0  0  0  0  0  0  0
   74.4141   44.0253  -28.1314 S   0  0  0  0  0  0  0  0  0  0  0  0
   76.5235   44.0142  -28.1243 S   0  0  0  0  0  0  0  0  0  0  0  0
   77.2141   45.6919  -29.2003 S   0  0  0  0  0  0  0  0  0  0  0  0
   79.3235   45.6808  -29.1931 S   0  0  0  0  0  0  0  0  0  0  0  0
   80.0141   47.3585  -30.2692 S   0  0  0  0  0  0  0  0  0  0  0  0
   82.1235   47.3473  -30.2620 S   0  0  0  0  0  0  0  0  0  0  0  0
   82.8141   49.0251  -31.3381 S   0  0  0  0  0  0  0  0  0  0  0  0
   84.9235   49.0139  -31.3309 S   0  0  0  0  0  0  0  0  0  0  0  0
   85.6141   50.6917  -32.4069 S   0  0  0  0  0  0  0  0  0  0  0  0
   87.7234   50.6805  -32.3998 S   0  0  0  0  0  0  0  0  0  0  0  0
   88.4141   52.3583  -33.4758 S   0  0  0  0  0  0  0  0  0  0  0  0
   90.5234   52.3471  -33.4687 S   0  0  0  0  0  0  0  0  0  0  0  0
   91.2141   54.0248  -34.5447 S   0  0  0  0  0  0  0  0  0  0  0  0
   93.3234   54.0137  -34.5375 S   0  0  0  0  0  0  0  0  0  0  0  0
   94.0140   55.6914  -35.6136 S   0  0  0  0  0  0  0  0  0  0  0  0
   96.1233   55.6802  -35.6064 S   0  0  0  0  0  0  0  0  0  0  0  0
   96.8138   57.3579  -36.6824 S   0  0  0  0  0  0  0  0  0  0  0  0
   98.9228   57.3465  -36.6751 S   0  0  0  0  0  0  0  0  0  0  0  0
   99.6126   59.0238  -37.7508 S   0  0  0  0  0  0  0  0  0  0  0  0
  101.7202   59.0117  -37.7430 S   0  0  0  0  0  0  0  0  0  0  0  0
  102.4077   60.6874  -38.8179 S   0  0  0  0  0  0  0  0  0  0  0  0
  104.5108   60.6717  -38.8073 S   0  0  0  0  0  0  0  0  0  0  0  0
  105.1903   62.3429  -39.8795 S   0  0  0  0  0  0  0  0  0  0  0  0
  107.2784   62.2998  -39.8800 S   0  0  0  0  0  0  0  0  0  0  0  0
  107.9505   63.9905  -40.8838 S   0  0  0  0  0  0  0  0  0  0  0  0
  110.0255   63.9148  -40.9006 S   0  0  0  0  0  0  0  0  0  0  0  0
  110.6121   64.0788  -38.9347 S   0  0  0  0  0  0  0  0  0  0  0  0
   14.6899    8.0640    2.3510 H   0  0  0  0  0  0  0  0  0  0  0  0
   11.5634    6.5641    2.7014 H   0  0  0  0  0  0  0  0  0  0  0  0
   11.9407    5.3626    1.4732 H   0  0  0  0  0  0  0  0  0  0  0  0
    9.3345    6.9959    1.6786 H   0  0  0  0  0  0  0  0  0  0  0  0
    9.5041    5.3073    2.1125 H   0  0  0  0  0  0  0  0  0  0  0  0
    9.7445    6.4409   -0.5946 H   0  0  0  0  0  0  0  0  0  0  0  0
  111.9543   64.0326  -39.0336 H   0  0  0  0  0  0  0  0  0  0  0  0
  1  2  1  0  0  0  0
  1 82  1  0  0  0  0
  2  3  1  0  0  0  0
  3  4  1  0  0  0  0
  4  5  1  0  0  0  0
  4 83  1  0  0  0  0
  4 84  1  0  0  0  0
  5  6  1  0  0  0  0
  5 85  1  0  0  0  0
  5 86  1  0  0  0  0
  6  7  1  0  0  0  0
  6 87  1  0  0  0  0
  7  8  1  0  0  0  0
  8  9  1  0  0  0  0
  9 10  1  0  0  0  0
 10 11  1  0  0  0  0
 11 12  1  0  0  0  0
 12 13  1  0  0  0  0
 13 14  1  0  0  0  0
 14 15  1  0  0  0  0
 15 16  1  0  0  0  0
 16 17  1  0  0  0  0
 17 18  1  0  0  0  0
 18 19  1  0  0  0  0
 19 20  1  0  0  0  0
 20 21  1  0  0  0  0
 21 22  1  0  0  0  0
 22 23  1  0  0  0  0
 23 24  1  0  0  0  0
 24 25  1  0  0  0  0
 25 26  1  0  0  0  0
 26 27  1  0  0  0  0
 27 28  1  0  0  0  0
 28 29  1  0  0  0  0
 29 30  1  0  0  0  0
 30 31  1  0  0  0  0
 31 32  1  0  0  0  0
 32 33  1  0  0  0  0
 33 34  1  0  0  0  0
 34 35  1  0  0  0  0
 35 36  1  0  0  0  0
 36 37  1  0  0  0  0
 37 38  1  0  0  0  0
 38 39  1  0  0  0  0
 39 40  1  0  0  0  0
 40 41  1  0  0  0  0
 41 42  1  0  0  0  0
 42 43  1  0  0  0  0
 43 44  1  0  0  0  0
 44 45  1  0  0  0  0
 45 46  1  0  0  0  0
 46 47  1  0  0  0  0
 47 48  1  0  0  0  0
 48 49  1  0  0  0  0
 49 50  1  0  0  0  0
 50 51  1  0  0  0  0
 51 52  1  0  0  0  0
 52 53  1  0  0  0  0
 53 54  1  0  0  0  0
 54 55  1  0  0  0  0
 55 56  1  0  0  0  0
 56 57  1  0  0  0  0
 57 58  1  0  0  0  0
 58 59  1  0  0  0  0
 59 60  1  0  0  0  0
 60 61  1  0  0  0  0
 61 62  1  0  0  0  0
 62 63  1  0  0  0  0
 63 64  1  0  0  0  0
 64 65  1  0  0  0  0
 65 66  1  0  0  0  0
 66 67  1  0  0  0  0
 67 68  1  0  0  0  0
 68 69  1  0  0  0  0
 69 70  1  0  0  0  0
 70 71  1  0  0  0  0
 71 72  1  0  0  0  0
 72 73  1  0  0  0  0
 73 74  1  0  0  0  0
 74 75  1  0  0  0  0
 75 76  1  0  0  0  0
 76 77  1  0  0  0  0
 77 78  1  0  0  0  0
 78 79  1  0  0  0  0
 79 80  1  0  0  0  0
 80 81  1  0  0  0  0
 81 88  1  0  0  0  0
M  END
$$$$
