
 OpenBabel04232216503D

 47 49  0  0  0  0  0  0  0  0999 V2000
    4.1792    0.9069   -1.4919 C   0  0  0  0  0  0  0  0  0  0  0  0
    5.4994    0.1504   -1.5311 C   0  0  0  0  0  0  0  0  0  0  0  0
    5.5187   -0.7866   -0.5274 N   0  0  0  0  0  0  0  0  0  0  0  0
    5.6051   -2.0167   -0.8870 C   0  0  0  0  0  0  0  0  0  0  0  0
    5.7296   -2.5097   -2.2547 C   0  0  0  0  0  0  0  0  0  0  0  0
    4.6267   -2.9733   -3.1068 C   0  0  0  0  0  0  0  0  0  0  0  0
    4.2600   -4.4580   -2.9167 C   0  0  0  0  0  0  0  0  0  0  0  0
    2.8205   -4.0503   -3.2950 C   0  0  0  0  0  0  0  0  0  0  0  0
    3.1623   -2.6503   -2.7259 C   0  0  0  0  0  0  0  0  0  0  0  0
    6.8984   -2.2099   -2.8415 C   0  0  0  0  0  0  0  0  0  0  0  0
    7.7820   -3.3589   -2.8001 C   0  0  0  0  0  0  0  0  0  0  0  0
    8.8752   -3.3760   -2.0045 C   0  0  0  0  0  0  0  0  0  0  0  0
    9.2121   -2.3641   -0.9227 C   0  0  0  0  0  0  0  0  0  0  0  0
   10.0622   -4.0527   -2.5434 C   0  0  0  0  0  0  0  0  0  0  0  0
   10.7632   -3.1475   -3.2620 C   0  0  0  0  0  0  0  0  0  0  0  0
   12.1095   -2.7077   -2.7510 C   0  0  0  0  0  0  0  0  0  0  0  0
   10.2234   -2.5247   -4.4658 C   0  0  0  0  0  0  0  0  0  0  0  0
   10.6251   -3.3340   -5.6954 C   0  0  0  0  0  0  0  0  0  0  0  0
    9.3635   -1.4653   -4.5750 C   0  0  0  0  0  0  0  0  0  0  0  0
    8.5705   -0.5673   -3.6515 C   0  0  0  0  0  0  0  0  0  0  0  0
    7.4432   -0.8097   -2.8904 C   0  0  0  0  0  0  0  0  0  0  0  0
    6.5463    0.3328   -2.3916 C   0  0  0  0  0  0  0  0  0  0  0  0
    3.4330    0.3569   -2.0903 H   0  0  0  0  0  0  0  0  0  0  0  0
    4.2108    1.9340   -1.8496 H   0  0  0  0  0  0  0  0  0  0  0  0
    3.7671    0.9066   -0.4708 H   0  0  0  0  0  0  0  0  0  0  0  0
    5.6919   -2.7840   -0.1000 H   0  0  0  0  0  0  0  0  0  0  0  0
    4.8015   -2.7138   -4.1642 H   0  0  0  0  0  0  0  0  0  0  0  0
    4.3618   -4.8204   -1.8861 H   0  0  0  0  0  0  0  0  0  0  0  0
    4.7749   -5.1453   -3.5919 H   0  0  0  0  0  0  0  0  0  0  0  0
    2.0208   -4.5945   -2.7910 H   0  0  0  0  0  0  0  0  0  0  0  0
    2.6403   -4.0556   -4.3770 H   0  0  0  0  0  0  0  0  0  0  0  0
    2.9514   -2.5452   -1.6559 H   0  0  0  0  0  0  0  0  0  0  0  0
    2.7056   -1.8105   -3.2600 H   0  0  0  0  0  0  0  0  0  0  0  0
    7.6706   -4.0239   -3.6558 H   0  0  0  0  0  0  0  0  0  0  0  0
    8.3345   -1.9415   -0.4373 H   0  0  0  0  0  0  0  0  0  0  0  0
    9.7801   -1.5227   -1.3392 H   0  0  0  0  0  0  0  0  0  0  0  0
    9.8389   -2.8167   -0.1514 H   0  0  0  0  0  0  0  0  0  0  0  0
    9.6460   -4.8837   -3.1328 H   0  0  0  0  0  0  0  0  0  0  0  0
   11.9838   -2.0756   -1.8689 H   0  0  0  0  0  0  0  0  0  0  0  0
   12.6573   -2.1405   -3.5069 H   0  0  0  0  0  0  0  0  0  0  0  0
   12.7221   -3.5709   -2.4711 H   0  0  0  0  0  0  0  0  0  0  0  0
    9.7329   -3.7662   -6.1648 H   0  0  0  0  0  0  0  0  0  0  0  0
   11.2609   -4.1925   -5.4325 H   0  0  0  0  0  0  0  0  0  0  0  0
   11.1750   -2.7413   -6.4300 H   0  0  0  0  0  0  0  0  0  0  0  0
    9.1878   -1.1408   -5.6071 H   0  0  0  0  0  0  0  0  0  0  0  0
    8.8693    0.4746   -3.7819 H   0  0  0  0  0  0  0  0  0  0  0  0
    6.6255    1.2678   -2.9392 H   0  0  0  0  0  0  0  0  0  0  0  0
  1  2  1  0  0  0  0
  1 23  1  0  0  0  0
  1 24  1  0  0  0  0
  1 25  1  0  0  0  0
  2  3  1  0  0  0  0
  2 22  2  0  0  0  0
  3  4  2  0  0  0  0
  4  5  1  0  0  0  0
  4 26  1  0  0  0  0
  5  6  1  0  0  0  0
  5 10  2  0  0  0  0
  6  7  1  0  0  0  0
  6  9  1  0  0  0  0
  6 27  1  0  0  0  0
  7  8  1  0  0  0  0
  7 28  1  0  0  0  0
  7 29  1  0  0  0  0
  8  9  1  0  0  0  0
  8 30  1  0  0  0  0
  8 31  1  0  0  0  0
  9 32  1  0  0  0  0
  9 33  1  0  0  0  0
 10 11  1  0  0  0  0
 10 21  1  0  0  0  0
 11 12  2  0  0  0  0
 11 34  1  0  0  0  0
 12 13  1  0  0  0  0
 12 14  1  0  0  0  0
 13 35  1  0  0  0  0
 13 36  1  0  0  0  0
 13 37  1  0  0  0  0
 14 15  2  0  0  0  0
 14 38  1  0  0  0  0
 15 16  1  0  0  0  0
 15 17  1  0  0  0  0
 16 39  1  0  0  0  0
 16 40  1  0  0  0  0
 16 41  1  0  0  0  0
 17 18  1  0  0  0  0
 17 19  2  0  0  0  0
 18 42  1  0  0  0  0
 18 43  1  0  0  0  0
 18 44  1  0  0  0  0
 19 20  1  0  0  0  0
 19 45  1  0  0  0  0
 20 21  2  0  0  0  0
 20 46  1  0  0  0  0
 21 22  1  0  0  0  0
 22 47  1  0  0  0  0
M  END
$$$$
