
 OpenBabel04232217003D

223223  0  0  0  0  0  0  0  0999 V2000
    1.0947    0.0878    0.0244 O   0  0  0  0  0  0  0  0  0  0  0  0
    2.3728   -0.0234    0.0336 C   0  0  0  0  0  0  0  0  0  0  0  0
    3.2230    0.8630    1.1033 C   0  0  0  0  0  0  0  0  0  0  0  0
    4.5881    0.6858    1.1355 C   0  0  0  0  0  0  0  0  0  0  0  0
    5.6883    1.1722    1.9628 C   0  0  0  0  0  0  0  0  0  0  0  0
    7.1324    0.9196    1.8487 C   0  0  0  0  0  0  0  0  0  0  0  0
    7.6370    1.4244    0.5159 C   0  0  0  0  0  0  0  0  0  0  0  0
    9.1392    1.2396    0.4751 C   0  0  0  0  0  0  0  0  0  0  0  0
    9.6921    1.6642   -0.8651 C   0  0  0  0  0  0  0  0  0  0  0  0
    3.1479   -0.8563   -0.8253 C   0  0  0  0  0  0  0  0  0  0  0  0
    2.3880   -1.6701   -1.8600 C   0  0  0  0  0  0  0  0  0  0  0  0
    3.3737   -2.3834   -2.7594 C   0  0  0  0  0  0  0  0  0  0  0  0
    2.6211   -3.1972   -3.7963 C   0  0  0  0  0  0  0  0  0  0  0  0
    3.6018   -3.9128   -4.7055 C   0  0  0  0  0  0  0  0  0  0  0  0
    2.8470   -4.7248   -5.7414 C   0  0  0  0  0  0  0  0  0  0  0  0
    3.8282   -5.4410   -6.6502 C   0  0  0  0  0  0  0  0  0  0  0  0
    3.0741   -6.2531   -7.6861 C   0  0  0  0  0  0  0  0  0  0  0  0
    4.0558   -6.9694   -8.5943 C   0  0  0  0  0  0  0  0  0  0  0  0
    3.3018   -7.7815   -9.6303 C   0  0  0  0  0  0  0  0  0  0  0  0
    4.2835   -8.4976  -10.5384 C   0  0  0  0  0  0  0  0  0  0  0  0
    3.5295   -9.3098  -11.5744 C   0  0  0  0  0  0  0  0  0  0  0  0
    4.5113  -10.0261  -12.4824 C   0  0  0  0  0  0  0  0  0  0  0  0
    3.7575  -10.8400  -13.5173 C   0  0  0  0  0  0  0  0  0  0  0  0
    4.7392  -11.5562  -14.4255 C   0  0  0  0  0  0  0  0  0  0  0  0
    3.9866  -12.3707  -15.4613 C   0  0  0  0  0  0  0  0  0  0  0  0
    4.9708  -13.0861  -16.3681 C   0  0  0  0  0  0  0  0  0  0  0  0
    4.2230  -13.9020  -17.4055 C   0  0  0  0  0  0  0  0  0  0  0  0
    5.2097  -14.6185  -18.3112 C   0  0  0  0  0  0  0  0  0  0  0  0
    4.4568  -15.4321  -19.3458 C   0  0  0  0  0  0  0  0  0  0  0  0
    5.4225  -16.1586  -20.2636 C   0  0  0  0  0  0  0  0  0  0  0  0
    4.6398  -16.9590  -21.2811 C   0  0  0  0  0  0  0  0  0  0  0  0
    5.5599  -17.6301  -22.1284 O   0  0  0  0  0  0  0  0  0  0  0  0
    4.8523  -18.3916  -23.0950 C   0  0  0  0  0  0  0  0  0  0  0  0
    5.8593  -19.0941  -23.9786 C   0  0  0  0  0  0  0  0  0  0  0  0
    5.1247  -19.9151  -25.0212 C   0  0  0  0  0  0  0  0  0  0  0  0
    6.1004  -20.6387  -25.9253 C   0  0  0  0  0  0  0  0  0  0  0  0
    5.3413  -21.4501  -26.9611 C   0  0  0  0  0  0  0  0  0  0  0  0
    6.3233  -22.1701  -27.8648 C   0  0  0  0  0  0  0  0  0  0  0  0
    5.5722  -22.9852  -28.9004 C   0  0  0  0  0  0  0  0  0  0  0  0
    6.5515  -23.7032  -29.8113 C   0  0  0  0  0  0  0  0  0  0  0  0
    5.7947  -24.5196  -30.8428 C   0  0  0  0  0  0  0  0  0  0  0  0
    6.7752  -25.2386  -31.7503 C   0  0  0  0  0  0  0  0  0  0  0  0
    6.0192  -26.0559  -32.7833 C   0  0  0  0  0  0  0  0  0  0  0  0
    7.0014  -26.7746  -33.6890 C   0  0  0  0  0  0  0  0  0  0  0  0
    6.2463  -27.5907  -34.7207 C   0  0  0  0  0  0  0  0  0  0  0  0
    7.2287  -28.3070  -35.6274 C   0  0  0  0  0  0  0  0  0  0  0  0
    6.4742  -29.1199  -36.6560 C   0  0  0  0  0  0  0  0  0  0  0  0
    7.4608  -29.8403  -37.5629 C   0  0  0  0  0  0  0  0  0  0  0  0
    6.7058  -30.6617  -38.6004 C   0  0  0  0  0  0  0  0  0  0  0  0
    7.6849  -31.3734  -39.5072 C   0  0  0  0  0  0  0  0  0  0  0  0
    6.9310  -32.1890  -40.5401 C   0  0  0  0  0  0  0  0  0  0  0  0
    7.9129  -32.9080  -41.4453 C   0  0  0  0  0  0  0  0  0  0  0  0
    7.1583  -33.7241  -42.4772 C   0  0  0  0  0  0  0  0  0  0  0  0
    8.1398  -34.4418  -43.3836 C   0  0  0  0  0  0  0  0  0  0  0  0
    7.3851  -35.2568  -44.4163 C   0  0  0  0  0  0  0  0  0  0  0  0
    8.3669  -35.9739  -45.3229 C   0  0  0  0  0  0  0  0  0  0  0  0
    7.6127  -36.7904  -46.3547 C   0  0  0  0  0  0  0  0  0  0  0  0
    8.5947  -37.5062  -47.2621 C   0  0  0  0  0  0  0  0  0  0  0  0
    7.8410  -38.3244  -48.2930 C   0  0  0  0  0  0  0  0  0  0  0  0
    8.8239  -39.0414  -49.1988 C   0  0  0  0  0  0  0  0  0  0  0  0
    8.0712  -39.8602  -50.2299 C   0  0  0  0  0  0  0  0  0  0  0  0
    9.0538  -40.5787  -51.1348 C   0  0  0  0  0  0  0  0  0  0  0  0
    8.2996  -41.3987  -52.1642 C   0  0  0  0  0  0  0  0  0  0  0  0
    9.2807  -42.1168  -53.0713 C   0  0  0  0  0  0  0  0  0  0  0  0
    8.5263  -42.9385  -54.0997 C   0  0  0  0  0  0  0  0  0  0  0  0
    9.5078  -43.6549  -55.0085 C   0  0  0  0  0  0  0  0  0  0  0  0
    8.7541  -44.4781  -56.0366 C   0  0  0  0  0  0  0  0  0  0  0  0
    9.7346  -45.1937  -56.9475 C   0  0  0  0  0  0  0  0  0  0  0  0
    8.9801  -46.0189  -57.9737 C   0  0  0  0  0  0  0  0  0  0  0  0
    9.9605  -46.7379  -58.8830 C   0  0  0  0  0  0  0  0  0  0  0  0
    9.2088  -47.5639  -59.9119 C   0  0  0  0  0  0  0  0  0  0  0  0
   10.1926  -48.2817  -60.8209 C   0  0  0  0  0  0  0  0  0  0  0  0
    9.4442  -49.1099  -61.8527 C   0  0  0  0  0  0  0  0  0  0  0  0
   10.4245  -49.8340  -62.7638 C   0  0  0  0  0  0  0  0  0  0  0  0
    9.6727  -50.6653  -63.7948 C   0  0  0  0  0  0  0  0  0  0  0  0
   10.6431  -51.3960  -64.7145 C   0  0  0  0  0  0  0  0  0  0  0  0
    9.8923  -52.2241  -65.7412 C   0  0  0  0  0  0  0  0  0  0  0  0
    0.8260    0.7097    0.7170 H   0  0  0  0  0  0  0  0  0  0  0  0
    2.6620    1.5183    1.7806 H   0  0  0  0  0  0  0  0  0  0  0  0
    5.3785    1.0022    3.0085 H   0  0  0  0  0  0  0  0  0  0  0  0
    5.5420    2.2710    1.9574 H   0  0  0  0  0  0  0  0  0  0  0  0
    7.3563   -0.1344    2.0110 H   0  0  0  0  0  0  0  0  0  0  0  0
    7.6256    1.4867    2.6529 H   0  0  0  0  0  0  0  0  0  0  0  0
    7.3828    2.4871    0.3861 H   0  0  0  0  0  0  0  0  0  0  0  0
    7.1479    0.8750   -0.2950 H   0  0  0  0  0  0  0  0  0  0  0  0
    9.3788    0.1868    0.6611 H   0  0  0  0  0  0  0  0  0  0  0  0
    9.6063    1.8278    1.2744 H   0  0  0  0  0  0  0  0  0  0  0  0
    9.2392    1.0779   -1.6705 H   0  0  0  0  0  0  0  0  0  0  0  0
   10.7725    1.5075   -0.8829 H   0  0  0  0  0  0  0  0  0  0  0  0
    9.4877    2.7233   -1.0513 H   0  0  0  0  0  0  0  0  0  0  0  0
    1.7025   -1.0290   -2.4265 H   0  0  0  0  0  0  0  0  0  0  0  0
    1.7734   -2.4142   -1.3369 H   0  0  0  0  0  0  0  0  0  0  0  0
    4.0261   -3.0372   -2.1665 H   0  0  0  0  0  0  0  0  0  0  0  0
    4.0239   -1.6528   -3.2577 H   0  0  0  0  0  0  0  0  0  0  0  0
    1.9740   -2.5393   -4.3899 H   0  0  0  0  0  0  0  0  0  0  0  0
    1.9710   -3.9276   -3.2989 H   0  0  0  0  0  0  0  0  0  0  0  0
    4.2484   -4.5714   -4.1127 H   0  0  0  0  0  0  0  0  0  0  0  0
    4.2511   -3.1824   -5.2037 H   0  0  0  0  0  0  0  0  0  0  0  0
    2.2004   -4.0664   -6.3345 H   0  0  0  0  0  0  0  0  0  0  0  0
    2.1972   -5.4550   -5.2435 H   0  0  0  0  0  0  0  0  0  0  0  0
    4.4748   -6.0995   -6.0571 H   0  0  0  0  0  0  0  0  0  0  0  0
    4.4780   -4.7108   -7.1482 H   0  0  0  0  0  0  0  0  0  0  0  0
    2.4278   -5.5947   -8.2795 H   0  0  0  0  0  0  0  0  0  0  0  0
    2.4242   -6.9833   -7.1883 H   0  0  0  0  0  0  0  0  0  0  0  0
    4.7021   -7.6279   -8.0010 H   0  0  0  0  0  0  0  0  0  0  0  0
    4.7058   -6.2393   -9.0922 H   0  0  0  0  0  0  0  0  0  0  0  0
    2.6554   -7.1230  -10.2236 H   0  0  0  0  0  0  0  0  0  0  0  0
    2.6519   -8.5116   -9.1324 H   0  0  0  0  0  0  0  0  0  0  0  0
    4.9299   -9.1560   -9.9451 H   0  0  0  0  0  0  0  0  0  0  0  0
    4.9334   -7.7675  -11.0364 H   0  0  0  0  0  0  0  0  0  0  0  0
    2.8831   -8.6516  -12.1677 H   0  0  0  0  0  0  0  0  0  0  0  0
    2.8797  -10.0400  -11.0763 H   0  0  0  0  0  0  0  0  0  0  0  0
    5.1586  -10.6834  -11.8887 H   0  0  0  0  0  0  0  0  0  0  0  0
    5.1604   -9.2958  -12.9811 H   0  0  0  0  0  0  0  0  0  0  0  0
    3.1102  -10.1825  -14.1108 H   0  0  0  0  0  0  0  0  0  0  0  0
    3.1085  -11.5702  -13.0183 H   0  0  0  0  0  0  0  0  0  0  0  0
    5.3865  -12.2132  -13.8316 H   0  0  0  0  0  0  0  0  0  0  0  0
    5.3883  -10.8257  -14.9240 H   0  0  0  0  0  0  0  0  0  0  0  0
    3.3393  -11.7137  -16.0552 H   0  0  0  0  0  0  0  0  0  0  0  0
    3.3376  -13.1012  -14.9627 H   0  0  0  0  0  0  0  0  0  0  0  0
    5.6176  -13.7424  -15.7730 H   0  0  0  0  0  0  0  0  0  0  0  0
    5.6194  -12.3548  -16.8657 H   0  0  0  0  0  0  0  0  0  0  0  0
    3.5759  -13.2459  -18.0012 H   0  0  0  0  0  0  0  0  0  0  0  0
    3.5723  -14.6322  -16.9084 H   0  0  0  0  0  0  0  0  0  0  0  0
    5.8546  -15.2760  -17.7156 H   0  0  0  0  0  0  0  0  0  0  0  0
    5.8586  -13.8882  -18.8096 H   0  0  0  0  0  0  0  0  0  0  0  0
    3.8085  -14.7723  -19.9360 H   0  0  0  0  0  0  0  0  0  0  0  0
    3.8051  -16.1576  -18.8433 H   0  0  0  0  0  0  0  0  0  0  0  0
    6.0786  -16.8249  -19.6897 H   0  0  0  0  0  0  0  0  0  0  0  0
    6.0826  -15.4476  -20.7758 H   0  0  0  0  0  0  0  0  0  0  0  0
    4.0073  -16.2931  -21.8802 H   0  0  0  0  0  0  0  0  0  0  0  0
    4.0032  -17.6942  -20.7747 H   0  0  0  0  0  0  0  0  0  0  0  0
    4.2205  -17.7276  -23.6961 H   0  0  0  0  0  0  0  0  0  0  0  0
    4.2162  -19.1278  -22.5893 H   0  0  0  0  0  0  0  0  0  0  0  0
    6.5094  -19.7338  -23.3699 H   0  0  0  0  0  0  0  0  0  0  0  0
    6.5156  -18.3575  -24.4570 H   0  0  0  0  0  0  0  0  0  0  0  0
    4.4786  -19.2580  -25.6206 H   0  0  0  0  0  0  0  0  0  0  0  0
    4.4690  -20.6435  -24.5266 H   0  0  0  0  0  0  0  0  0  0  0  0
    6.7464  -21.2974  -25.3294 H   0  0  0  0  0  0  0  0  0  0  0  0
    6.7546  -19.9115  -26.4261 H   0  0  0  0  0  0  0  0  0  0  0  0
    4.6952  -20.7901  -27.5542 H   0  0  0  0  0  0  0  0  0  0  0  0
    4.6912  -22.1791  -26.4609 H   0  0  0  0  0  0  0  0  0  0  0  0
    6.9669  -22.8278  -27.2682 H   0  0  0  0  0  0  0  0  0  0  0  0
    6.9771  -21.4409  -28.3584 H   0  0  0  0  0  0  0  0  0  0  0  0
    4.9227  -22.3286  -29.4918 H   0  0  0  0  0  0  0  0  0  0  0  0
    4.9233  -23.7158  -28.4008 H   0  0  0  0  0  0  0  0  0  0  0  0
    7.1973  -24.3605  -29.2167 H   0  0  0  0  0  0  0  0  0  0  0  0
    7.2015  -22.9751  -30.3133 H   0  0  0  0  0  0  0  0  0  0  0  0
    5.1458  -23.8646  -31.4373 H   0  0  0  0  0  0  0  0  0  0  0  0
    5.1464  -25.2492  -30.3418 H   0  0  0  0  0  0  0  0  0  0  0  0
    7.4228  -25.8944  -31.1562 H   0  0  0  0  0  0  0  0  0  0  0  0
    7.4234  -24.5097  -32.2523 H   0  0  0  0  0  0  0  0  0  0  0  0
    5.3708  -25.3986  -33.3775 H   0  0  0  0  0  0  0  0  0  0  0  0
    5.3721  -26.7851  -32.2807 H   0  0  0  0  0  0  0  0  0  0  0  0
    7.6498  -27.4304  -33.0944 H   0  0  0  0  0  0  0  0  0  0  0  0
    7.6485  -26.0440  -34.1895 H   0  0  0  0  0  0  0  0  0  0  0  0
    5.5989  -26.9349  -35.3157 H   0  0  0  0  0  0  0  0  0  0  0  0
    5.5983  -28.3197  -34.2195 H   0  0  0  0  0  0  0  0  0  0  0  0
    7.8754  -28.9628  -35.0335 H   0  0  0  0  0  0  0  0  0  0  0  0
    7.8786  -27.5740  -36.1256 H   0  0  0  0  0  0  0  0  0  0  0  0
    5.8290  -28.4666  -37.2542 H   0  0  0  0  0  0  0  0  0  0  0  0
    5.8244  -29.8541  -36.1589 H   0  0  0  0  0  0  0  0  0  0  0  0
    8.1023  -30.4991  -36.9715 H   0  0  0  0  0  0  0  0  0  0  0  0
    8.1068  -29.1126  -38.0656 H   0  0  0  0  0  0  0  0  0  0  0  0
    6.0568  -29.9982  -39.1963 H   0  0  0  0  0  0  0  0  0  0  0  0
    6.0523  -31.3844  -38.1022 H   0  0  0  0  0  0  0  0  0  0  0  0
    8.3318  -32.0297  -38.9121 H   0  0  0  0  0  0  0  0  0  0  0  0
    8.3342  -30.6444  -40.0075 H   0  0  0  0  0  0  0  0  0  0  0  0
    6.2847  -31.5327  -41.1359 H   0  0  0  0  0  0  0  0  0  0  0  0
    6.2811  -32.9176  -40.0399 H   0  0  0  0  0  0  0  0  0  0  0  0
    8.5599  -33.5639  -40.8498 H   0  0  0  0  0  0  0  0  0  0  0  0
    8.5623  -32.1795  -41.9464 H   0  0  0  0  0  0  0  0  0  0  0  0
    6.5105  -33.0684  -43.0721 H   0  0  0  0  0  0  0  0  0  0  0  0
    6.5098  -34.4533  -41.9761 H   0  0  0  0  0  0  0  0  0  0  0  0
    8.7870  -35.0982  -42.7890 H   0  0  0  0  0  0  0  0  0  0  0  0
    8.7889  -33.7127  -43.8841 H   0  0  0  0  0  0  0  0  0  0  0  0
    6.7377  -34.6003  -45.0109 H   0  0  0  0  0  0  0  0  0  0  0  0
    6.7360  -35.9861  -43.9161 H   0  0  0  0  0  0  0  0  0  0  0  0
    9.0151  -36.6294  -44.7282 H   0  0  0  0  0  0  0  0  0  0  0  0
    9.0150  -35.2443  -45.8238 H   0  0  0  0  0  0  0  0  0  0  0  0
    6.9636  -36.1352  -46.9487 H   0  0  0  0  0  0  0  0  0  0  0  0
    6.9655  -37.5207  -45.8535 H   0  0  0  0  0  0  0  0  0  0  0  0
    9.2447  -38.1603  -46.6678 H   0  0  0  0  0  0  0  0  0  0  0  0
    9.2410  -36.7757  -47.7641 H   0  0  0  0  0  0  0  0  0  0  0  0
    7.1919  -37.6703  -48.8881 H   0  0  0  0  0  0  0  0  0  0  0  0
    7.1938  -39.0543  -47.7910 H   0  0  0  0  0  0  0  0  0  0  0  0
    9.4729  -39.6952  -48.6031 H   0  0  0  0  0  0  0  0  0  0  0  0
    9.4711  -38.3115  -49.7006 H   0  0  0  0  0  0  0  0  0  0  0  0
    7.4231  -39.2061  -50.8261 H   0  0  0  0  0  0  0  0  0  0  0  0
    7.4231  -40.5891  -49.7279 H   0  0  0  0  0  0  0  0  0  0  0  0
    9.7029  -41.2319  -50.5385 H   0  0  0  0  0  0  0  0  0  0  0  0
    9.7012  -39.8498  -51.6378 H   0  0  0  0  0  0  0  0  0  0  0  0
    7.6495  -40.7453  -52.7591 H   0  0  0  0  0  0  0  0  0  0  0  0
    7.6533  -42.1279  -51.6603 H   0  0  0  0  0  0  0  0  0  0  0  0
    9.9317  -42.7690  -52.4761 H   0  0  0  0  0  0  0  0  0  0  0  0
    9.9260  -41.3871  -53.5758 H   0  0  0  0  0  0  0  0  0  0  0  0
    7.8739  -42.2865  -54.6935 H   0  0  0  0  0  0  0  0  0  0  0  0
    7.8823  -43.6691  -53.5948 H   0  0  0  0  0  0  0  0  0  0  0  0
   10.1606  -44.3057  -54.4139 H   0  0  0  0  0  0  0  0  0  0  0  0
   10.1510  -42.9237  -55.5134 H   0  0  0  0  0  0  0  0  0  0  0  0
    8.0998  -43.8269  -56.6293 H   0  0  0  0  0  0  0  0  0  0  0  0
    8.1118  -45.2095  -55.5307 H   0  0  0  0  0  0  0  0  0  0  0  0
   10.3893  -45.8440  -56.3545 H   0  0  0  0  0  0  0  0  0  0  0  0
   10.3771  -44.4623  -57.4534 H   0  0  0  0  0  0  0  0  0  0  0  0
    8.3271  -45.3684  -58.5684 H   0  0  0  0  0  0  0  0  0  0  0  0
    8.3369  -46.7483  -57.4660 H   0  0  0  0  0  0  0  0  0  0  0  0
   10.6146  -47.3867  -58.2872 H   0  0  0  0  0  0  0  0  0  0  0  0
   10.6030  -46.0074  -59.3897 H   0  0  0  0  0  0  0  0  0  0  0  0
    8.5563  -46.9131  -60.5071 H   0  0  0  0  0  0  0  0  0  0  0  0
    8.5652  -48.2939  -59.4055 H   0  0  0  0  0  0  0  0  0  0  0  0
   10.8459  -48.9293  -60.2231 H   0  0  0  0  0  0  0  0  0  0  0  0
   10.8356  -47.5493  -61.3247 H   0  0  0  0  0  0  0  0  0  0  0  0
    8.7921  -48.4589  -62.4470 H   0  0  0  0  0  0  0  0  0  0  0  0
    8.7995  -49.8378  -61.3442 H   0  0  0  0  0  0  0  0  0  0  0  0
   11.0770  -50.4815  -62.1653 H   0  0  0  0  0  0  0  0  0  0  0  0
   11.0678  -49.1034  -63.2695 H   0  0  0  0  0  0  0  0  0  0  0  0
    9.0188  -50.0130  -64.3865 H   0  0  0  0  0  0  0  0  0  0  0  0
    9.0280  -51.3902  -63.2827 H   0  0  0  0  0  0  0  0  0  0  0  0
   11.2955  -52.0499  -64.1242 H   0  0  0  0  0  0  0  0  0  0  0  0
   11.2863  -50.6723  -65.2284 H   0  0  0  0  0  0  0  0  0  0  0  0
    9.2613  -52.9725  -65.2512 H   0  0  0  0  0  0  0  0  0  0  0  0
   10.5964  -52.7445  -66.3963 H   0  0  0  0  0  0  0  0  0  0  0  0
    9.2520  -51.5881  -66.3609 H   0  0  0  0  0  0  0  0  0  0  0  0
  1  2  1  0  0  0  0
  1 78  1  0  0  0  0
  2  3  1  0  0  0  0
  2 10  2  0  0  0  0
  3  4  2  0  0  0  0
  3 79  1  0  0  0  0
  4  5  1  0  0  0  0
  4 10  1  0  0  0  0
  5  6  1  0  0  0  0
  5 80  1  0  0  0  0
  5 81  1  0  0  0  0
  6  7  1  0  0  0  0
  6 82  1  0  0  0  0
  6 83  1  0  0  0  0
  7  8  1  0  0  0  0
  7 84  1  0  0  0  0
  7 85  1  0  0  0  0
  8  9  1  0  0  0  0
  8 86  1  0  0  0  0
  8 87  1  0  0  0  0
  9 88  1  0  0  0  0
  9 89  1  0  0  0  0
  9 90  1  0  0  0  0
 10 11  1  0  0  0  0
 11 12  1  0  0  0  0
 11 91  1  0  0  0  0
 11 92  1  0  0  0  0
 12 13  1  0  0  0  0
 12 93  1  0  0  0  0
 12 94  1  0  0  0  0
 13 14  1  0  0  0  0
 13 95  1  0  0  0  0
 13 96  1  0  0  0  0
 14 15  1  0  0  0  0
 14 97  1  0  0  0  0
 14 98  1  0  0  0  0
 15 16  1  0  0  0  0
 15 99  1  0  0  0  0
 15100  1  0  0  0  0
 16 17  1  0  0  0  0
 16101  1  0  0  0  0
 16102  1  0  0  0  0
 17 18  1  0  0  0  0
 17103  1  0  0  0  0
 17104  1  0  0  0  0
 18 19  1  0  0  0  0
 18105  1  0  0  0  0
 18106  1  0  0  0  0
 19 20  1  0  0  0  0
 19107  1  0  0  0  0
 19108  1  0  0  0  0
 20 21  1  0  0  0  0
 20109  1  0  0  0  0
 20110  1  0  0  0  0
 21 22  1  0  0  0  0
 21111  1  0  0  0  0
 21112  1  0  0  0  0
 22 23  1  0  0  0  0
 22113  1  0  0  0  0
 22114  1  0  0  0  0
 23 24  1  0  0  0  0
 23115  1  0  0  0  0
 23116  1  0  0  0  0
 24 25  1  0  0  0  0
 24117  1  0  0  0  0
 24118  1  0  0  0  0
 25 26  1  0  0  0  0
 25119  1  0  0  0  0
 25120  1  0  0  0  0
 26 27  1  0  0  0  0
 26121  1  0  0  0  0
 26122  1  0  0  0  0
 27 28  1  0  0  0  0
 27123  1  0  0  0  0
 27124  1  0  0  0  0
 28 29  1  0  0  0  0
 28125  1  0  0  0  0
 28126  1  0  0  0  0
 29 30  1  0  0  0  0
 29127  1  0  0  0  0
 29128  1  0  0  0  0
 30 31  1  0  0  0  0
 30129  1  0  0  0  0
 30130  1  0  0  0  0
 31 32  1  0  0  0  0
 31131  1  0  0  0  0
 31132  1  0  0  0  0
 32 33  1  0  0  0  0
 33 34  1  0  0  0  0
 33133  1  0  0  0  0
 33134  1  0  0  0  0
 34 35  1  0  0  0  0
 34135  1  0  0  0  0
 34136  1  0  0  0  0
 35 36  1  0  0  0  0
 35137  1  0  0  0  0
 35138  1  0  0  0  0
 36 37  1  0  0  0  0
 36139  1  0  0  0  0
 36140  1  0  0  0  0
 37 38  1  0  0  0  0
 37141  1  0  0  0  0
 37142  1  0  0  0  0
 38 39  1  0  0  0  0
 38143  1  0  0  0  0
 38144  1  0  0  0  0
 39 40  1  0  0  0  0
 39145  1  0  0  0  0
 39146  1  0  0  0  0
 40 41  1  0  0  0  0
 40147  1  0  0  0  0
 40148  1  0  0  0  0
 41 42  1  0  0  0  0
 41149  1  0  0  0  0
 41150  1  0  0  0  0
 42 43  1  0  0  0  0
 42151  1  0  0  0  0
 42152  1  0  0  0  0
 43 44  1  0  0  0  0
 43153  1  0  0  0  0
 43154  1  0  0  0  0
 44 45  1  0  0  0  0
 44155  1  0  0  0  0
 44156  1  0  0  0  0
 45 46  1  0  0  0  0
 45157  1  0  0  0  0
 45158  1  0  0  0  0
 46 47  1  0  0  0  0
 46159  1  0  0  0  0
 46160  1  0  0  0  0
 47 48  1  0  0  0  0
 47161  1  0  0  0  0
 47162  1  0  0  0  0
 48 49  1  0  0  0  0
 48163  1  0  0  0  0
 48164  1  0  0  0  0
 49 50  1  0  0  0  0
 49165  1  0  0  0  0
 49166  1  0  0  0  0
 50 51  1  0  0  0  0
 50167  1  0  0  0  0
 50168  1  0  0  0  0
 51 52  1  0  0  0  0
 51169  1  0  0  0  0
 51170  1  0  0  0  0
 52 53  1  0  0  0  0
 52171  1  0  0  0  0
 52172  1  0  0  0  0
 53 54  1  0  0  0  0
 53173  1  0  0  0  0
 53174  1  0  0  0  0
 54 55  1  0  0  0  0
 54175  1  0  0  0  0
 54176  1  0  0  0  0
 55 56  1  0  0  0  0
 55177  1  0  0  0  0
 55178  1  0  0  0  0
 56 57  1  0  0  0  0
 56179  1  0  0  0  0
 56180  1  0  0  0  0
 57 58  1  0  0  0  0
 57181  1  0  0  0  0
 57182  1  0  0  0  0
 58 59  1  0  0  0  0
 58183  1  0  0  0  0
 58184  1  0  0  0  0
 59 60  1  0  0  0  0
 59185  1  0  0  0  0
 59186  1  0  0  0  0
 60 61  1  0  0  0  0
 60187  1  0  0  0  0
 60188  1  0  0  0  0
 61 62  1  0  0  0  0
 61189  1  0  0  0  0
 61190  1  0  0  0  0
 62 63  1  0  0  0  0
 62191  1  0  0  0  0
 62192  1  0  0  0  0
 63 64  1  0  0  0  0
 63193  1  0  0  0  0
 63194  1  0  0  0  0
 64 65  1  0  0  0  0
 64195  1  0  0  0  0
 64196  1  0  0  0  0
 65 66  1  0  0  0  0
 65197  1  0  0  0  0
 65198  1  0  0  0  0
 66 67  1  0  0  0  0
 66199  1  0  0  0  0
 66200  1  0  0  0  0
 67 68  1  0  0  0  0
 67201  1  0  0  0  0
 67202  1  0  0  0  0
 68 69  1  0  0  0  0
 68203  1  0  0  0  0
 68204  1  0  0  0  0
 69 70  1  0  0  0  0
 69205  1  0  0  0  0
 69206  1  0  0  0  0
 70 71  1  0  0  0  0
 70207  1  0  0  0  0
 70208  1  0  0  0  0
 71 72  1  0  0  0  0
 71209  1  0  0  0  0
 71210  1  0  0  0  0
 72 73  1  0  0  0  0
 72211  1  0  0  0  0
 72212  1  0  0  0  0
 73 74  1  0  0  0  0
 73213  1  0  0  0  0
 73214  1  0  0  0  0
 74 75  1  0  0  0  0
 74215  1  0  0  0  0
 74216  1  0  0  0  0
 75 76  1  0  0  0  0
 75217  1  0  0  0  0
 75218  1  0  0  0  0
 76 77  1  0  0  0  0
 76219  1  0  0  0  0
 76220  1  0  0  0  0
 77221  1  0  0  0  0
 77222  1  0  0  0  0
 77223  1  0  0  0  0
M  END
$$$$
