
 OpenBabel04232216453D

 67 67  0  0  0  0  0  0  0  0999 V2000
    6.8396    3.4922    1.6675 C   0  0  0  0  0  0  0  0  0  0  0  0
    8.0310    2.6231    2.4923 C   0  0  0  0  0  0  0  0  0  0  0  0
    7.2841    1.1873    2.0084 C   0  0  0  0  0  0  0  0  0  0  0  0
    6.4437    0.0589    1.9505 C   0  0  0  0  0  0  0  0  0  0  0  0
    6.0034   -0.5766    0.6377 C   0  0  0  0  0  0  0  0  0  0  0  0
    5.5142   -0.2149    3.1214 C   0  0  0  0  0  0  0  0  0  0  0  0
    6.2101   -0.0218    4.4780 C   0  0  0  0  0  0  0  0  0  0  0  0
    7.6771    0.2777    4.8265 C   0  0  0  0  0  0  0  0  0  0  0  0
    8.7978   -0.2911    3.9609 C   0  0  0  0  0  0  0  0  0  0  0  0
   10.0245   -0.5238    4.8222 C   0  0  0  0  0  0  0  0  0  0  0  0
   11.3239   -0.3956    4.0225 C   0  0  0  0  0  0  0  0  0  0  0  0
   11.8279    0.9980    4.3214 C   0  0  0  0  0  0  0  0  0  0  0  0
   12.6646    1.1344    5.2304 O   0  0  0  0  0  0  0  0  0  0  0  0
   11.2436    2.0839    3.4243 C   0  0  0  0  0  0  0  0  0  0  0  0
   10.3645    2.9794    4.0800 C   0  0  0  0  0  0  0  0  0  0  0  0
   11.1091    3.7067    5.4288 N   0  0  0  0  0  0  0  0  0  0  0  0
   12.8453    4.0314    5.7726 C   0  0  0  0  0  0  0  0  0  0  0  0
   13.9497    4.1411    7.2691 C   0  0  0  0  0  0  0  0  0  0  0  0
   15.0005    4.9561    8.5387 C   0  0  0  0  0  0  0  0  0  0  0  0
   15.7500    6.3335    9.2366 C   0  0  0  0  0  0  0  0  0  0  0  0
   17.0452    7.2884    8.9949 C   0  0  0  0  0  0  0  0  0  0  0  0
   18.5322    7.0383    9.4119 C   0  0  0  0  0  0  0  0  0  0  0  0
   19.2386    5.8557    8.7624 C   0  0  0  0  0  0  0  0  0  0  0  0
   19.1088    5.9180    7.2454 C   0  0  0  0  0  0  0  0  0  0  0  0
   19.4983    4.6204    6.5652 C   0  0  0  0  0  0  0  0  0  0  0  0
   18.6914    3.5498    7.0351 O   0  0  0  0  0  0  0  0  0  0  0  0
    9.0280    3.2421    3.2209 N   0  0  0  0  0  0  0  0  0  0  0  0
    6.1203    3.9956    2.3202 H   0  0  0  0  0  0  0  0  0  0  0  0
    6.1185    2.7736    1.1730 H   0  0  0  0  0  0  0  0  0  0  0  0
    7.1600    4.0176    0.7706 H   0  0  0  0  0  0  0  0  0  0  0  0
    6.7085    1.5373    2.8755 H   0  0  0  0  0  0  0  0  0  0  0  0
    4.8953   -0.6393    0.5586 H   0  0  0  0  0  0  0  0  0  0  0  0
    6.3794   -1.5980    0.4834 H   0  0  0  0  0  0  0  0  0  0  0  0
    6.2985    0.0457   -0.2169 H   0  0  0  0  0  0  0  0  0  0  0  0
    5.0352   -1.2075    3.1095 H   0  0  0  0  0  0  0  0  0  0  0  0
    4.6489    0.4737    3.0601 H   0  0  0  0  0  0  0  0  0  0  0  0
    5.6734    0.8092    4.9521 H   0  0  0  0  0  0  0  0  0  0  0  0
    6.0566   -0.9873    4.9760 H   0  0  0  0  0  0  0  0  0  0  0  0
    7.7958   -0.1340    5.8374 H   0  0  0  0  0  0  0  0  0  0  0  0
    7.8296    1.3551    4.9765 H   0  0  0  0  0  0  0  0  0  0  0  0
    9.0739    0.4189    3.1793 H   0  0  0  0  0  0  0  0  0  0  0  0
    8.4914   -1.2076    3.4519 H   0  0  0  0  0  0  0  0  0  0  0  0
    9.9365   -1.5217    5.2639 H   0  0  0  0  0  0  0  0  0  0  0  0
   10.0162    0.2024    5.6521 H   0  0  0  0  0  0  0  0  0  0  0  0
   11.1823   -0.5310    2.9546 H   0  0  0  0  0  0  0  0  0  0  0  0
   12.1022   -1.1150    4.3537 H   0  0  0  0  0  0  0  0  0  0  0  0
   11.0132    1.7540    2.4564 H   0  0  0  0  0  0  0  0  0  0  0  0
   10.8085    3.0999    6.1946 H   0  0  0  0  0  0  0  0  0  0  0  0
   13.1601    4.8067    5.0796 H   0  0  0  0  0  0  0  0  0  0  0  0
   13.2765    3.1061    5.3945 H   0  0  0  0  0  0  0  0  0  0  0  0
   14.8602    3.9355    6.6679 H   0  0  0  0  0  0  0  0  0  0  0  0
   13.7564    3.1861    7.7857 H   0  0  0  0  0  0  0  0  0  0  0  0
   15.8440    4.2415    8.6209 H   0  0  0  0  0  0  0  0  0  0  0  0
   14.3778    4.7037    9.4196 H   0  0  0  0  0  0  0  0  0  0  0  0
   16.0079    5.9668   10.2550 H   0  0  0  0  0  0  0  0  0  0  0  0
   14.9369    7.0449    9.4191 H   0  0  0  0  0  0  0  0  0  0  0  0
   16.8447    8.1601    9.6471 H   0  0  0  0  0  0  0  0  0  0  0  0
   17.0215    7.7175    7.9892 H   0  0  0  0  0  0  0  0  0  0  0  0
   18.6825    6.9765   10.5012 H   0  0  0  0  0  0  0  0  0  0  0  0
   19.1370    7.9310    9.1340 H   0  0  0  0  0  0  0  0  0  0  0  0
   18.8074    4.9498    9.1866 H   0  0  0  0  0  0  0  0  0  0  0  0
   20.3004    5.8550    9.0422 H   0  0  0  0  0  0  0  0  0  0  0  0
   19.7134    6.7455    6.8513 H   0  0  0  0  0  0  0  0  0  0  0  0
   18.0715    6.1204    6.9835 H   0  0  0  0  0  0  0  0  0  0  0  0
   20.5545    4.3753    6.7278 H   0  0  0  0  0  0  0  0  0  0  0  0
   19.3239    4.7169    5.4892 H   0  0  0  0  0  0  0  0  0  0  0  0
   18.9223    3.3888    7.9657 H   0  0  0  0  0  0  0  0  0  0  0  0
  1  2  1  0  0  0  0
  1 28  1  0  0  0  0
  1 29  1  0  0  0  0
  1 30  1  0  0  0  0
  2  3  1  0  0  0  0
  2 27  2  3  0  0  0
  3  4  2  3  0  0  0
  3 31  1  0  0  0  0
  4  5  1  0  0  0  0
  4  6  1  0  0  0  0
  5 32  1  0  0  0  0
  5 33  1  0  0  0  0
  5 34  1  0  0  0  0
  6  7  1  0  0  0  0
  6 35  1  0  0  0  0
  6 36  1  0  0  0  0
  7  8  1  0  0  0  0
  7 37  1  0  0  0  0
  7 38  1  0  0  0  0
  8  9  1  0  0  0  0
  8 39  1  0  0  0  0
  8 40  1  0  0  0  0
  9 10  1  0  0  0  0
  9 41  1  0  0  0  0
  9 42  1  0  0  0  0
 10 11  1  0  0  0  0
 10 43  1  0  0  0  0
 10 44  1  0  0  0  0
 11 12  1  0  0  0  0
 11 45  1  0  0  0  0
 11 46  1  0  0  0  0
 12 13  2  0  0  0  0
 12 14  1  0  0  0  0
 14 15  2  3  0  0  0
 14 47  1  0  0  0  0
 15 16  1  0  0  0  0
 15 27  1  0  0  0  0
 16 17  1  0  0  0  0
 16 48  1  0  0  0  0
 17 18  1  0  0  0  0
 17 49  1  0  0  0  0
 17 50  1  0  0  0  0
 18 19  1  0  0  0  0
 18 51  1  0  0  0  0
 18 52  1  0  0  0  0
 19 20  1  0  0  0  0
 19 53  1  0  0  0  0
 19 54  1  0  0  0  0
 20 21  1  0  0  0  0
 20 55  1  0  0  0  0
 20 56  1  0  0  0  0
 21 22  1  0  0  0  0
 21 57  1  0  0  0  0
 21 58  1  0  0  0  0
 22 23  1  0  0  0  0
 22 59  1  0  0  0  0
 22 60  1  0  0  0  0
 23 24  1  0  0  0  0
 23 61  1  0  0  0  0
 23 62  1  0  0  0  0
 24 25  1  0  0  0  0
 24 63  1  0  0  0  0
 24 64  1  0  0  0  0
 25 26  1  0  0  0  0
 25 65  1  0  0  0  0
 25 66  1  0  0  0  0
 26 67  1  0  0  0  0
M  END
$$$$
