
 OpenBabel04232216463D

 50 52  0  0  1  0  0  0  0  0999 V2000
    1.2261   -0.6001   -1.7060 C   0  0  0  0  0  0  0  0  0  0  0  0
    2.6334   -0.2982   -1.3387 C   0  0  0  0  0  0  0  0  0  0  0  0
    2.8237    0.1101    0.0227 C   0  0  0  0  0  3  0  0  0  0  0  0
    4.1633   -0.2312    0.3494 C   0  0  0  0  0  0  0  0  0  0  0  0
    5.1266    0.6522    0.6961 C   0  0  3  0  0  0  0  0  0  0  0  0
    6.1127    0.2320    1.7395 C   0  0  0  0  0  0  0  0  0  0  0  0
    5.3980    0.2721    3.0818 C   0  0  0  0  0  0  0  0  0  0  0  0
    6.3016   -0.0419    4.2571 C   0  0  0  0  0  0  0  0  0  0  0  0
    5.4569    0.0251    5.5252 C   0  0  0  0  0  0  0  0  0  0  0  0
    6.2745   -0.2588    6.7720 C   0  0  0  0  0  0  0  0  0  0  0  0
    5.3946   -0.1841    8.0069 C   0  0  0  0  0  0  0  0  0  0  0  0
    6.1509   -0.4439    9.1047 F   0  0  0  0  0  0  0  0  0  0  0  0
    5.0544   -0.1130   -0.8437 C   0  0  0  0  0  0  0  0  0  0  0  0
    5.8535    0.9788   -1.4522 C   0  0  0  0  0  0  0  0  0  0  0  0
    7.1956    1.0729   -1.4211 C   0  0  0  0  0  0  0  0  0  0  0  0
    7.8737    1.8938   -2.4393 C   0  0  0  0  0  0  0  0  0  0  0  0
    8.1849    1.1659   -3.5480 C   0  0  0  0  0  0  0  0  0  0  0  0
    9.4387    0.3244   -3.4506 C   0  0  0  0  0  0  0  0  0  0  0  0
    6.9810    0.6137   -4.2316 C   0  0  0  0  0  0  0  0  0  0  0  0
    6.5425   -0.6386   -3.9789 C   0  0  0  0  0  0  0  0  0  0  0  0
    5.1692   -1.0969   -4.0595 C   0  0  0  0  0  0  0  0  0  0  0  0
    4.1250   -0.9996   -3.2077 C   0  0  0  0  0  0  0  0  0  0  0  0
    3.8816   -0.4190   -1.8671 C   0  0  0  0  0  0  0  0  0  0  0  0
    0.6110    0.3064   -1.6674 H   0  0  0  0  0  0  0  0  0  0  0  0
    0.8056   -1.2979   -0.9675 H   0  0  0  0  0  0  0  0  0  0  0  0
    1.1151   -1.0623   -2.6863 H   0  0  0  0  0  0  0  0  0  0  0  0
    2.3806    1.0419    0.3579 H   0  0  0  0  0  0  0  0  0  0  0  0
    4.8882    1.7101    0.7552 H   0  0  0  0  0  0  0  0  0  0  0  0
    6.9677    0.9158    1.7353 H   0  0  0  0  0  0  0  0  0  0  0  0
    6.5005   -0.7749    1.5399 H   0  0  0  0  0  0  0  0  0  0  0  0
    4.5644   -0.4426    3.0710 H   0  0  0  0  0  0  0  0  0  0  0  0
    4.9494    1.2649    3.2195 H   0  0  0  0  0  0  0  0  0  0  0  0
    7.1237    0.6805    4.3050 H   0  0  0  0  0  0  0  0  0  0  0  0
    6.7407   -1.0401    4.1426 H   0  0  0  0  0  0  0  0  0  0  0  0
    4.6341   -0.6979    5.4532 H   0  0  0  0  0  0  0  0  0  0  0  0
    4.9987    1.0196    5.6057 H   0  0  0  0  0  0  0  0  0  0  0  0
    7.0951    0.4615    6.8627 H   0  0  0  0  0  0  0  0  0  0  0  0
    6.7354   -1.2507    6.7092 H   0  0  0  0  0  0  0  0  0  0  0  0
    4.5874   -0.9229    7.9665 H   0  0  0  0  0  0  0  0  0  0  0  0
    4.9557    0.8123    8.1232 H   0  0  0  0  0  0  0  0  0  0  0  0
    5.2874    1.6859   -2.0586 H   0  0  0  0  0  0  0  0  0  0  0  0
    7.7856    0.3304   -0.8877 H   0  0  0  0  0  0  0  0  0  0  0  0
    7.2154    2.7539   -2.6179 H   0  0  0  0  0  0  0  0  0  0  0  0
    9.5235   -0.1697   -2.4737 H   0  0  0  0  0  0  0  0  0  0  0  0
   10.3178    0.9721   -3.5586 H   0  0  0  0  0  0  0  0  0  0  0  0
    9.4945   -0.4468   -4.2217 H   0  0  0  0  0  0  0  0  0  0  0  0
    6.2820    1.3652   -4.6015 H   0  0  0  0  0  0  0  0  0  0  0  0
    7.2329   -1.3738   -3.5683 H   0  0  0  0  0  0  0  0  0  0  0  0
    4.9989   -1.6745   -4.9747 H   0  0  0  0  0  0  0  0  0  0  0  0
    3.2275   -1.4967   -3.5810 H   0  0  0  0  0  0  0  0  0  0  0  0
  1  2  1  0  0  0  0
  1 24  1  0  0  0  0
  1 25  1  0  0  0  0
  1 26  1  0  0  0  0
  2  3  1  0  0  0  0
  2 23  2  0  0  0  0
  3  4  1  0  0  0  0
  3 27  1  0  0  0  0
  4  5  1  0  0  0  0
  4 13  2  0  0  0  0
  5  6  1  0  0  0  0
  5 13  1  0  0  0  0
  5 28  1  0  0  0  0
  6  7  1  0  0  0  0
  6 29  1  0  0  0  0
  6 30  1  0  0  0  0
  7  8  1  0  0  0  0
  7 31  1  0  0  0  0
  7 32  1  0  0  0  0
  8  9  1  0  0  0  0
  8 33  1  0  0  0  0
  8 34  1  0  0  0  0
  9 10  1  0  0  0  0
  9 35  1  0  0  0  0
  9 36  1  0  0  0  0
 10 11  1  0  0  0  0
 10 37  1  0  0  0  0
 10 38  1  0  0  0  0
 11 12  1  0  0  0  0
 11 39  1  0  0  0  0
 11 40  1  0  0  0  0
 13 14  1  0  0  0  0
 13 23  1  0  0  0  0
 14 15  2  3  0  0  0
 14 41  1  0  0  0  0
 15 16  1  0  0  0  0
 15 42  1  0  0  0  0
 16 17  2  3  0  0  0
 16 43  1  0  0  0  0
 17 18  1  0  0  0  0
 17 19  1  0  0  0  0
 18 44  1  0  0  0  0
 18 45  1  0  0  0  0
 18 46  1  0  0  0  0
 19 20  2  3  0  0  0
 19 47  1  0  0  0  0
 20 21  1  0  0  0  0
 20 48  1  0  0  0  0
 21 22  2  3  0  0  0
 21 49  1  0  0  0  0
 22 23  1  0  0  0  0
 22 50  1  0  0  0  0
M  END
$$$$
