
 OpenBabel04232216493D

 43 46  0  0  0  0  0  0  0  0999 V2000
    3.0992    1.8430    0.9803 C   0  0  0  0  0  0  0  0  0  0  0  0
    4.2506    2.0608    1.9680 C   0  0  0  0  0  0  0  0  0  0  0  0
    4.6347    0.8052    2.7638 C   0  0  0  0  0  0  0  0  0  0  0  0
    6.3160    0.1752    3.2171 C   0  0  0  0  0  0  0  0  0  0  0  0
    7.7545    0.6968    2.8025 C   0  0  0  0  0  0  0  0  0  0  0  0
    8.7787    0.3305    3.6294 N   0  0  0  0  0  0  0  0  0  0  0  0
    8.5766    0.8518    4.8091 C   0  0  0  0  0  0  0  0  0  0  0  0
    9.6860    1.6824    5.2591 C   0  0  0  0  0  0  0  0  0  0  0  0
    9.4459    2.8731    4.6627 C   0  0  0  0  0  0  0  0  0  0  0  0
    8.1073    3.7180    4.5717 C   0  0  0  0  0  0  0  0  0  0  0  0
    7.0527    3.5608    3.3961 C   0  0  0  0  0  0  0  0  0  0  0  0
    6.2245    4.6671    3.3832 N   0  0  0  0  0  0  0  0  0  0  0  0
    5.1952    4.4336    2.5857 C   0  0  0  0  0  0  0  0  0  0  0  0
    3.9298    4.9001    3.2524 C   0  0  0  0  0  0  0  0  0  0  0  0
    5.2182    3.4448    1.5097 N   0  0  0  0  0  0  0  0  0  0  0  0
    6.9014    3.3286    0.9107 C   0  0  0  0  0  0  0  0  0  0  0  0
    6.9167    2.8657   -0.3585 C   0  0  0  0  0  0  0  0  0  0  0  0
    6.3481    1.6044   -0.0512 C   0  0  0  0  0  0  0  0  0  0  0  0
    6.2258    1.3433    1.2917 C   0  0  0  0  0  0  0  0  0  0  0  0
    6.4075    2.3808    2.9746 C   0  0  0  0  0  0  0  0  0  0  0  0
   10.5416    3.3203    3.8358 C   0  0  0  0  0  0  0  0  0  0  0  0
   10.3938    3.4253    2.5172 C   0  0  0  0  0  0  0  0  0  0  0  0
    9.2614    3.0949    1.7243 C   0  0  0  0  0  0  0  0  0  0  0  0
    8.2024    2.2160    1.7253 C   0  0  0  0  0  0  0  0  0  0  0  0
    2.1576    2.2778    1.3149 H   0  0  0  0  0  0  0  0  0  0  0  0
    2.9420    0.7679    0.8102 H   0  0  0  0  0  0  0  0  0  0  0  0
    3.3484    2.2483   -0.0102 H   0  0  0  0  0  0  0  0  0  0  0  0
    3.9283   -0.0233    2.8147 H   0  0  0  0  0  0  0  0  0  0  0  0
    6.2033   -0.6305    3.9426 H   0  0  0  0  0  0  0  0  0  0  0  0
    7.5964    1.1398    5.2471 H   0  0  0  0  0  0  0  0  0  0  0  0
   10.6570    1.1961    5.1544 H   0  0  0  0  0  0  0  0  0  0  0  0
    8.4541    4.7596    4.5295 H   0  0  0  0  0  0  0  0  0  0  0  0
    7.5835    3.6477    5.5392 H   0  0  0  0  0  0  0  0  0  0  0  0
    4.1947    5.4950    4.1421 H   0  0  0  0  0  0  0  0  0  0  0  0
    3.4234    4.0110    3.6396 H   0  0  0  0  0  0  0  0  0  0  0  0
    3.2849    5.4734    2.6020 H   0  0  0  0  0  0  0  0  0  0  0  0
    7.8517    2.6987   -0.9011 H   0  0  0  0  0  0  0  0  0  0  0  0
    6.1617    0.8599   -0.8157 H   0  0  0  0  0  0  0  0  0  0  0  0
    5.9675    0.2729    1.2650 H   0  0  0  0  0  0  0  0  0  0  0  0
    5.7354    2.1662    3.8288 H   0  0  0  0  0  0  0  0  0  0  0  0
   11.5618    3.3202    4.2277 H   0  0  0  0  0  0  0  0  0  0  0  0
   10.9589    4.2865    2.1253 H   0  0  0  0  0  0  0  0  0  0  0  0
    9.1753    3.8703    0.9819 H   0  0  0  0  0  0  0  0  0  0  0  0
  1  2  1  0  0  0  0
  1 25  1  0  0  0  0
  1 26  1  0  0  0  0
  1 27  1  0  0  0  0
  2  3  2  0  0  0  0
  2 15  1  0  0  0  0
  3  4  1  0  0  0  0
  3 28  1  0  0  0  0
  4  5  2  0  0  0  0
  4 29  1  0  0  0  0
  5  6  1  0  0  0  0
  5 24  1  0  0  0  0
  6  7  2  3  0  0  0
  7  8  1  0  0  0  0
  7 30  1  0  0  0  0
  8  9  2  3  0  0  0
  8 31  1  0  0  0  0
  9 10  1  0  0  0  0
  9 21  1  0  0  0  0
 10 11  1  0  0  0  0
 10 32  1  0  0  0  0
 10 33  1  0  0  0  0
 11 12  1  0  0  0  0
 11 20  2  0  0  0  0
 12 13  2  0  0  0  0
 13 14  1  0  0  0  0
 13 15  1  0  0  0  0
 14 34  1  0  0  0  0
 14 35  1  0  0  0  0
 14 36  1  0  0  0  0
 15 16  1  0  0  0  0
 16 17  2  0  0  0  0
 16 24  1  0  0  0  0
 17 18  1  0  0  0  0
 17 37  1  0  0  0  0
 18 19  2  0  0  0  0
 18 38  1  0  0  0  0
 19 20  1  0  0  0  0
 19 39  1  0  0  0  0
 20 40  1  0  0  0  0
 21 22  2  3  0  0  0
 21 41  1  0  0  0  0
 22 23  1  0  0  0  0
 22 42  1  0  0  0  0
 23 24  2  3  0  0  0
 23 43  1  0  0  0  0
M  END
$$$$
