
 OpenBabel04232216523D

 67 68  0  0  1  0  0  0  0  0999 V2000
    3.8607   -0.4677   -2.2239 C   0  0  0  0  0  0  0  0  0  0  0  0
    3.9679   -1.8804   -2.8365 C   0  0  0  0  0  0  0  0  0  0  0  0
    5.3169   -2.6782   -3.2239 C   0  0  0  0  0  0  0  0  0  0  0  0
    6.4921   -2.1693   -4.1938 C   0  0  0  0  0  0  0  0  0  0  0  0
    6.4831   -0.8199   -4.2360 C   0  0  0  0  0  0  0  0  0  0  0  0
    7.0307    0.0613   -3.0927 C   0  0  3  0  0  0  0  0  0  0  0  0
    7.6616   -0.6569   -1.8800 C   0  0  0  0  0  0  0  0  0  0  0  0
    7.8107    1.1795   -3.7583 C   0  0  0  0  0  0  0  0  0  0  0  0
    9.1031    0.9826   -4.0387 C   0  0  0  0  0  0  0  0  0  0  0  0
    9.3663    0.6697   -5.4423 C   0  0  0  0  0  0  0  0  0  0  0  0
   10.1793   -0.3448   -5.8141 C   0  0  0  0  0  0  0  0  0  0  0  0
   11.4063   -0.7812   -5.0286 C   0  0  0  0  0  0  0  0  0  0  0  0
   12.7663   -0.3569   -5.6010 C   0  0  0  0  0  0  0  0  0  0  0  0
   12.9334    1.1420   -5.8296 C   0  0  0  0  0  0  0  0  0  0  0  0
    9.5441   -1.1797   -6.8773 C   0  0  0  0  0  0  0  0  0  0  0  0
    8.5591   -2.0602   -6.5673 C   0  0  0  0  0  0  0  0  0  0  0  0
    8.5583   -2.9588   -5.3360 C   0  0  0  0  0  0  0  0  0  0  0  0
    9.5870   -3.9601   -5.3655 N   0  0  0  0  0  0  0  0  0  0  0  0
   10.8225   -4.0184   -6.2288 C   0  0  0  0  0  0  0  0  0  0  0  0
   10.9457   -5.1851   -7.2625 C   0  0  0  0  0  0  0  0  0  0  0  0
   11.5312   -4.8477   -8.6882 C   0  0  0  0  0  0  0  0  0  0  0  0
   10.5918   -5.1242   -9.8886 C   0  0  0  0  0  0  0  0  0  0  0  0
    9.9846   -3.8918  -10.5822 C   0  0  0  0  0  0  0  0  0  0  0  0
    9.3842   -2.8984   -9.5909 C   0  0  0  0  0  0  0  0  0  0  0  0
   10.2431   -1.6465   -9.4039 C   0  0  0  0  0  0  0  0  0  0  0  0
    9.7907   -0.6693   -8.2987 C   0  0  0  0  0  0  0  0  0  0  0  0
    7.6630   -2.9748   -4.3366 N   0  0  0  0  0  0  0  0  0  0  0  0
    2.7985   -0.2371   -2.0380 H   0  0  0  0  0  0  0  0  0  0  0  0
    4.1813    0.3322   -2.8940 H   0  0  0  0  0  0  0  0  0  0  0  0
    4.3557   -0.3664   -1.2525 H   0  0  0  0  0  0  0  0  0  0  0  0
    3.3081   -1.8811   -3.7106 H   0  0  0  0  0  0  0  0  0  0  0  0
    3.4608   -2.5113   -2.0894 H   0  0  0  0  0  0  0  0  0  0  0  0
    4.9443   -3.6174   -3.6541 H   0  0  0  0  0  0  0  0  0  0  0  0
    5.7767   -2.9581   -2.2659 H   0  0  0  0  0  0  0  0  0  0  0  0
    5.5071   -0.4070   -4.5035 H   0  0  0  0  0  0  0  0  0  0  0  0
    6.1766    0.5959   -2.6678 H   0  0  0  0  0  0  0  0  0  0  0  0
    7.5638   -1.7455   -1.9001 H   0  0  0  0  0  0  0  0  0  0  0  0
    7.1511   -0.3289   -0.9650 H   0  0  0  0  0  0  0  0  0  0  0  0
    8.7215   -0.4430   -1.7355 H   0  0  0  0  0  0  0  0  0  0  0  0
    7.1896    1.7188   -4.4833 H   0  0  0  0  0  0  0  0  0  0  0  0
    9.6812    0.3764   -3.3488 H   0  0  0  0  0  0  0  0  0  0  0  0
    8.5302    0.9158   -6.1062 H   0  0  0  0  0  0  0  0  0  0  0  0
   11.4029   -1.8543   -4.8536 H   0  0  0  0  0  0  0  0  0  0  0  0
   11.3804   -0.3566   -4.0227 H   0  0  0  0  0  0  0  0  0  0  0  0
   12.9789   -0.8970   -6.5300 H   0  0  0  0  0  0  0  0  0  0  0  0
   13.5340   -0.6596   -4.8766 H   0  0  0  0  0  0  0  0  0  0  0  0
   12.2962    1.4963   -6.6432 H   0  0  0  0  0  0  0  0  0  0  0  0
   13.9706    1.3644   -6.1047 H   0  0  0  0  0  0  0  0  0  0  0  0
   12.7019    1.7196   -4.9273 H   0  0  0  0  0  0  0  0  0  0  0  0
    7.9229   -2.5070   -7.3381 H   0  0  0  0  0  0  0  0  0  0  0  0
    9.6991   -4.4086   -4.4593 H   0  0  0  0  0  0  0  0  0  0  0  0
   11.6669   -4.1407   -5.5352 H   0  0  0  0  0  0  0  0  0  0  0  0
   11.0296   -3.0820   -6.7402 H   0  0  0  0  0  0  0  0  0  0  0  0
   10.0197   -5.7567   -7.3444 H   0  0  0  0  0  0  0  0  0  0  0  0
   11.6912   -5.8774   -6.8390 H   0  0  0  0  0  0  0  0  0  0  0  0
   12.3927   -5.5158   -8.8508 H   0  0  0  0  0  0  0  0  0  0  0  0
   11.9632   -3.8450   -8.7361 H   0  0  0  0  0  0  0  0  0  0  0  0
    9.7827   -5.7934   -9.5778 H   0  0  0  0  0  0  0  0  0  0  0  0
   11.1471   -5.6770  -10.6631 H   0  0  0  0  0  0  0  0  0  0  0  0
    9.1888   -4.2490  -11.2503 H   0  0  0  0  0  0  0  0  0  0  0  0
   10.7255   -3.4120  -11.2338 H   0  0  0  0  0  0  0  0  0  0  0  0
    9.2520   -3.4262   -8.6493 H   0  0  0  0  0  0  0  0  0  0  0  0
    8.3868   -2.5966   -9.9308 H   0  0  0  0  0  0  0  0  0  0  0  0
   10.2378   -1.0891  -10.3515 H   0  0  0  0  0  0  0  0  0  0  0  0
   11.2909   -1.9168   -9.2384 H   0  0  0  0  0  0  0  0  0  0  0  0
    8.8871   -0.1491   -8.6347 H   0  0  0  0  0  0  0  0  0  0  0  0
   10.5808    0.0954   -8.2548 H   0  0  0  0  0  0  0  0  0  0  0  0
  1  2  1  0  0  0  0
  1 28  1  0  0  0  0
  1 29  1  0  0  0  0
  1 30  1  0  0  0  0
  2  3  1  0  0  0  0
  2 31  1  0  0  0  0
  2 32  1  0  0  0  0
  3  4  1  0  0  0  0
  3 33  1  0  0  0  0
  3 34  1  0  0  0  0
  4  5  2  3  0  0  0
  4 27  1  0  0  0  0
  5  6  1  0  0  0  0
  5 35  1  0  0  0  0
  6  7  1  0  0  0  0
  6  8  1  0  0  0  0
  6 36  1  0  0  0  0
  7 37  1  0  0  0  0
  7 38  1  0  0  0  0
  7 39  1  0  0  0  0
  8  9  2  3  0  0  0
  8 40  1  0  0  0  0
  9 10  1  0  0  0  0
  9 41  1  0  0  0  0
 10 11  2  3  0  0  0
 10 42  1  0  0  0  0
 11 12  1  0  0  0  0
 11 15  1  0  0  0  0
 12 13  1  0  0  0  0
 12 43  1  0  0  0  0
 12 44  1  0  0  0  0
 13 14  1  0  0  0  0
 13 45  1  0  0  0  0
 13 46  1  0  0  0  0
 14 47  1  0  0  0  0
 14 48  1  0  0  0  0
 14 49  1  0  0  0  0
 15 16  2  3  0  0  0
 15 26  1  0  0  0  0
 16 17  1  0  0  0  0
 16 50  1  0  0  0  0
 17 18  1  0  0  0  0
 17 27  2  3  0  0  0
 18 19  1  0  0  0  0
 18 51  1  0  0  0  0
 19 20  1  0  0  0  0
 19 52  1  0  0  0  0
 19 53  1  0  0  0  0
 20 21  1  0  0  0  0
 20 54  1  0  0  0  0
 20 55  1  0  0  0  0
 21 22  1  0  0  0  0
 21 56  1  0  0  0  0
 21 57  1  0  0  0  0
 22 23  1  0  0  0  0
 22 58  1  0  0  0  0
 22 59  1  0  0  0  0
 23 24  1  0  0  0  0
 23 60  1  0  0  0  0
 23 61  1  0  0  0  0
 24 25  1  0  0  0  0
 24 62  1  0  0  0  0
 24 63  1  0  0  0  0
 25 26  1  0  0  0  0
 25 64  1  0  0  0  0
 25 65  1  0  0  0  0
 26 66  1  0  0  0  0
 26 67  1  0  0  0  0
M  END
$$$$
