
 OpenBabel04232216583D

128127  0  0  0  0  0  0  0  0999 V2000
   15.9204   -0.5223   13.7549 N   0  0  0  0  0  0  0  0  0  0  0  0
   15.5829   -0.9423   15.0776 N   0  0  0  0  0  0  0  0  0  0  0  0
   16.2213   -0.0698   16.0541 N   0  0  0  0  0  0  0  0  0  0  0  0
   15.7673   -0.4839   17.3996 C   0  0  0  0  0  0  0  0  0  0  0  0
   16.2257   -1.8548   17.7317 N   0  0  0  0  0  0  0  0  0  0  0  0
   17.6728   -1.8836   17.5801 N   0  0  0  0  0  0  0  0  0  0  0  0
   18.2976   -0.9643   18.4690 N   0  0  0  0  0  0  0  0  0  0  0  0
   19.6956   -1.0016   18.3137 N   0  0  0  0  0  0  0  0  0  0  0  0
   20.0947   -0.5589   17.0141 N   0  0  0  0  0  0  0  0  0  0  0  0
   19.5943    0.7572   16.7428 N   0  0  0  0  0  0  0  0  0  0  0  0
   20.1526    1.6686   17.7049 N   0  0  0  0  0  0  0  0  0  0  0  0
   21.5892    1.6506   17.6014 N   0  0  0  0  0  0  0  0  0  0  0  0
   21.9618    2.0156   16.2698 N   0  0  0  0  0  0  0  0  0  0  0  0
   21.4856    3.3302   15.9847 N   0  0  0  0  0  0  0  0  0  0  0  0
   22.0302    4.2685   16.9340 N   0  0  0  0  0  0  0  0  0  0  0  0
   23.4421    4.2161   16.8533 N   0  0  0  0  0  0  0  0  0  0  0  0
   23.8781    4.6217   15.5346 N   0  0  0  0  0  0  0  0  0  0  0  0
   23.3560    5.9141   15.2160 N   0  0  0  0  0  0  0  0  0  0  0  0
   23.8977    6.8667   16.1362 N   0  0  0  0  0  0  0  0  0  0  0  0
   25.3374    6.8505   16.0871 N   0  0  0  0  0  0  0  0  0  0  0  0
   25.7752    7.2060   14.7701 N   0  0  0  0  0  0  0  0  0  0  0  0
   25.2585    8.4934   14.4546 N   0  0  0  0  0  0  0  0  0  0  0  0
   25.7564    9.4414   15.4033 N   0  0  0  0  0  0  0  0  0  0  0  0
   27.1937    9.4354   15.3574 N   0  0  0  0  0  0  0  0  0  0  0  0
   27.6498    9.7881   14.0445 N   0  0  0  0  0  0  0  0  0  0  0  0
   27.1577   11.0951   13.6750 N   0  0  0  0  0  0  0  0  0  0  0  0
   27.6522   12.0497   14.6145 N   0  0  0  0  0  0  0  0  0  0  0  0
   29.0791   12.0021   14.6302 N   0  0  0  0  0  0  0  0  0  0  0  0
   29.5606   12.3561   13.3182 N   0  0  0  0  0  0  0  0  0  0  0  0
   29.0868   13.6605   12.9300 N   0  0  0  0  0  0  0  0  0  0  0  0
   29.5130   14.6112   13.8882 N   0  0  0  0  0  0  0  0  0  0  0  0
   30.9700   14.6362   13.8909 N   0  0  0  0  0  0  0  0  0  0  0  0
   31.4589   14.9508   12.5705 N   0  0  0  0  0  0  0  0  0  0  0  0
   30.9662   16.2216   12.1697 N   0  0  0  0  0  0  0  0  0  0  0  0
   31.4175   17.2265   13.1016 N   0  0  0  0  0  0  0  0  0  0  0  0
   32.8562   17.2307   13.1346 N   0  0  0  0  0  0  0  0  0  0  0  0
   33.3702   17.5208   11.8376 N   0  0  0  0  0  0  0  0  0  0  0  0
   32.8742   18.7823   11.4088 N   0  0  0  0  0  0  0  0  0  0  0  0
   33.2929   19.7943   12.3382 N   0  0  0  0  0  0  0  0  0  0  0  0
   34.7351   19.8185   12.3934 N   0  0  0  0  0  0  0  0  0  0  0  0
   35.2770   20.0860   11.0978 N   0  0  0  0  0  0  0  0  0  0  0  0
   34.7984   21.3548   10.6389 N   0  0  0  0  0  0  0  0  0  0  0  0
   35.1762   22.3411   11.5873 N   0  0  0  0  0  0  0  0  0  0  0  0
   36.6173   22.3858   11.6574 N   0  0  0  0  0  0  0  0  0  0  0  0
   37.1717   22.6577   10.3647 N   0  0  0  0  0  0  0  0  0  0  0  0
   36.7007   23.9142    9.8807 N   0  0  0  0  0  0  0  0  0  0  0  0
   37.0897   24.9336   10.8043 N   0  0  0  0  0  0  0  0  0  0  0  0
   38.5196   24.9477   10.9192 N   0  0  0  0  0  0  0  0  0  0  0  0
   39.1036   25.2216    9.6201 N   0  0  0  0  0  0  0  0  0  0  0  0
   38.6077   26.4780    9.1324 N   0  0  0  0  0  0  0  0  0  0  0  0
   38.9851   27.5272   10.0406 N   0  0  0  0  0  0  0  0  0  0  0  0
   40.4192   27.5815   10.1736 N   0  0  0  0  0  0  0  0  0  0  0  0
   41.0034   27.8070    8.8893 N   0  0  0  0  0  0  0  0  0  0  0  0
   40.5404   29.0709    8.3611 N   0  0  0  0  0  0  0  0  0  0  0  0
   40.8858   30.1653    9.2809 N   0  0  0  0  0  0  0  0  0  0  0  0
   42.3405   30.1489    9.4264 C   0  0  0  0  0  0  0  0  0  0  0  0
   42.7261   31.2425   10.3916 C   0  0  0  0  0  0  0  0  0  0  0  0
   44.2350   31.2934   10.5330 C   0  0  0  0  0  0  0  0  0  0  0  0
   44.6300   32.4028   11.4895 C   0  0  0  0  0  0  0  0  0  0  0  0
   46.1348   32.4552   11.6281 C   0  0  0  0  0  0  0  0  0  0  0  0
   15.5393   -1.1759   13.0715 H   0  0  0  0  0  0  0  0  0  0  0  0
   16.9299   -0.5597   13.6194 H   0  0  0  0  0  0  0  0  0  0  0  0
   15.8690   -1.9232   15.1980 H   0  0  0  0  0  0  0  0  0  0  0  0
   15.8557    0.8958   15.9185 H   0  0  0  0  0  0  0  0  0  0  0  0
   14.6813   -0.4475   17.5053 H   0  0  0  0  0  0  0  0  0  0  0  0
   16.1740    0.2351   18.1264 H   0  0  0  0  0  0  0  0  0  0  0  0
   15.8259   -2.5068   17.0573 H   0  0  0  0  0  0  0  0  0  0  0  0
   17.9308   -1.5952   16.6314 H   0  0  0  0  0  0  0  0  0  0  0  0
   18.0524   -1.1918   19.4364 H   0  0  0  0  0  0  0  0  0  0  0  0
   20.0610   -1.9402   18.5233 H   0  0  0  0  0  0  0  0  0  0  0  0
   19.7450   -1.1703   16.2901 H   0  0  0  0  0  0  0  0  0  0  0  0
   18.5688    0.7663   16.8111 H   0  0  0  0  0  0  0  0  0  0  0  0
   19.8669    1.3585   18.6458 H   0  0  0  0  0  0  0  0  0  0  0  0
   21.9499    0.7151   17.7594 H   0  0  0  0  0  0  0  0  0  0  0  0
   21.5537    1.3270   15.6218 H   0  0  0  0  0  0  0  0  0  0  0  0
   20.4747    3.3526   16.0846 H   0  0  0  0  0  0  0  0  0  0  0  0
   21.7378    3.9894   17.8758 H   0  0  0  0  0  0  0  0  0  0  0  0
   23.7734    3.2645   17.0573 H   0  0  0  0  0  0  0  0  0  0  0  0
   23.4778    3.9874   14.8478 H   0  0  0  0  0  0  0  0  0  0  0  0
   22.3300    5.8787   15.2696 H   0  0  0  0  0  0  0  0  0  0  0  0
   23.6413    6.5978   17.0811 H   0  0  0  0  0  0  0  0  0  0  0  0
   25.6571    5.8993   16.3238 H   0  0  0  0  0  0  0  0  0  0  0  0
   25.3869    6.5517   14.0992 H   0  0  0  0  0  0  0  0  0  0  0  0
   24.2352    8.4549   14.5107 H   0  0  0  0  0  0  0  0  0  0  0  0
   25.4865    9.1648   16.3418 H   0  0  0  0  0  0  0  0  0  0  0  0
   27.5096    8.4864   15.6084 H   0  0  0  0  0  0  0  0  0  0  0  0
   27.2755    9.1313   13.3662 H   0  0  0  0  0  0  0  0  0  0  0  0
   26.1303   11.0468   13.7116 H   0  0  0  0  0  0  0  0  0  0  0  0
   27.3539   11.7794   15.5451 H   0  0  0  0  0  0  0  0  0  0  0  0
   29.3732   11.0501   14.8788 H   0  0  0  0  0  0  0  0  0  0  0  0
   29.1952   11.6899   12.6402 H   0  0  0  0  0  0  0  0  0  0  0  0
   28.0645   13.6266   12.9534 H   0  0  0  0  0  0  0  0  0  0  0  0
   29.1490   14.3335   14.8029 H   0  0  0  0  0  0  0  0  0  0  0  0
   31.2741   13.6778   14.1197 H   0  0  0  0  0  0  0  0  0  0  0  0
   31.0927   14.2602   11.9092 H   0  0  0  0  0  0  0  0  0  0  0  0
   29.9406   16.1696   12.1578 H   0  0  0  0  0  0  0  0  0  0  0  0
   31.0742   16.9521   14.0316 H   0  0  0  0  0  0  0  0  0  0  0  0
   33.1827   16.2967   13.3740 H   0  0  0  0  0  0  0  0  0  0  0  0
   33.0045   16.8005   11.2115 H   0  0  0  0  0  0  0  0  0  0  0  0
   31.8505   18.7053   11.4171 H   0  0  0  0  0  0  0  0  0  0  0  0
   32.9782   19.5174   13.2603 H   0  0  0  0  0  0  0  0  0  0  0  0
   35.0277   18.8803   12.6581 H   0  0  0  0  0  0  0  0  0  0  0  0
   34.9249   19.3531   10.4810 H   0  0  0  0  0  0  0  0  0  0  0  0
   33.7708   21.2653   10.6240 H   0  0  0  0  0  0  0  0  0  0  0  0
   34.8065   22.0882   12.5103 H   0  0  0  0  0  0  0  0  0  0  0  0
   36.9344   21.4540   11.9306 H   0  0  0  0  0  0  0  0  0  0  0  0
   36.8403   21.9289    9.7398 H   0  0  0  0  0  0  0  0  0  0  0  0
   35.6906   23.8823    9.8595 H   0  0  0  0  0  0  0  0  0  0  0  0
   36.6754   24.7086   11.7156 H   0  0  0  0  0  0  0  0  0  0  0  0
   38.8303   24.0188   11.2439 H   0  0  0  0  0  0  0  0  0  0  0  0
   38.7890   24.4709    8.9830 H   0  0  0  0  0  0  0  0  0  0  0  0
   37.5792   26.4282    9.0867 H   0  0  0  0  0  0  0  0  0  0  0  0
   38.6000   27.2889   10.9564 H   0  0  0  0  0  0  0  0  0  0  0  0
   40.6959   26.6460   10.4930 H   0  0  0  0  0  0  0  0  0  0  0  0
   40.6669   27.0430    8.2929 H   0  0  0  0  0  0  0  0  0  0  0  0
   39.5170   28.9652    8.3606 H   0  0  0  0  0  0  0  0  0  0  0  0
   40.4639   29.8374   10.1666 H   0  0  0  0  0  0  0  0  0  0  0  0
   42.7997   30.3205    8.4482 H   0  0  0  0  0  0  0  0  0  0  0  0
   42.7216   29.1920    9.8155 H   0  0  0  0  0  0  0  0  0  0  0  0
   42.2701   31.0569   11.3718 H   0  0  0  0  0  0  0  0  0  0  0  0
   42.3558   32.2030   10.0186 H   0  0  0  0  0  0  0  0  0  0  0  0
   44.6921   31.4695    9.5518 H   0  0  0  0  0  0  0  0  0  0  0  0
   44.6064   30.3315   10.9072 H   0  0  0  0  0  0  0  0  0  0  0  0
   44.1762   32.2252   12.4707 H   0  0  0  0  0  0  0  0  0  0  0  0
   44.2615   33.3639   11.1142 H   0  0  0  0  0  0  0  0  0  0  0  0
   46.5144   31.5046   12.0153 H   0  0  0  0  0  0  0  0  0  0  0  0
   46.4216   33.2536   12.3162 H   0  0  0  0  0  0  0  0  0  0  0  0
   46.5998   32.6458   10.6558 H   0  0  0  0  0  0  0  0  0  0  0  0
  1  2  1  0  0  0  0
  1 61  1  0  0  0  0
  1 62  1  0  0  0  0
  2  3  1  0  0  0  0
  2 63  1  0  0  0  0
  3  4  1  0  0  0  0
  3 64  1  0  0  0  0
  4  5  1  0  0  0  0
  4 65  1  0  0  0  0
  4 66  1  0  0  0  0
  5  6  1  0  0  0  0
  5 67  1  0  0  0  0
  6  7  1  0  0  0  0
  6 68  1  0  0  0  0
  7  8  1  0  0  0  0
  7 69  1  0  0  0  0
  8  9  1  0  0  0  0
  8 70  1  0  0  0  0
  9 10  1  0  0  0  0
  9 71  1  0  0  0  0
 10 11  1  0  0  0  0
 10 72  1  0  0  0  0
 11 12  1  0  0  0  0
 11 73  1  0  0  0  0
 12 13  1  0  0  0  0
 12 74  1  0  0  0  0
 13 14  1  0  0  0  0
 13 75  1  0  0  0  0
 14 15  1  0  0  0  0
 14 76  1  0  0  0  0
 15 16  1  0  0  0  0
 15 77  1  0  0  0  0
 16 17  1  0  0  0  0
 16 78  1  0  0  0  0
 17 18  1  0  0  0  0
 17 79  1  0  0  0  0
 18 19  1  0  0  0  0
 18 80  1  0  0  0  0
 19 20  1  0  0  0  0
 19 81  1  0  0  0  0
 20 21  1  0  0  0  0
 20 82  1  0  0  0  0
 21 22  1  0  0  0  0
 21 83  1  0  0  0  0
 22 23  1  0  0  0  0
 22 84  1  0  0  0  0
 23 24  1  0  0  0  0
 23 85  1  0  0  0  0
 24 25  1  0  0  0  0
 24 86  1  0  0  0  0
 25 26  1  0  0  0  0
 25 87  1  0  0  0  0
 26 27  1  0  0  0  0
 26 88  1  0  0  0  0
 27 28  1  0  0  0  0
 27 89  1  0  0  0  0
 28 29  1  0  0  0  0
 28 90  1  0  0  0  0
 29 30  1  0  0  0  0
 29 91  1  0  0  0  0
 30 31  1  0  0  0  0
 30 92  1  0  0  0  0
 31 32  1  0  0  0  0
 31 93  1  0  0  0  0
 32 33  1  0  0  0  0
 32 94  1  0  0  0  0
 33 34  1  0  0  0  0
 33 95  1  0  0  0  0
 34 35  1  0  0  0  0
 34 96  1  0  0  0  0
 35 36  1  0  0  0  0
 35 97  1  0  0  0  0
 36 37  1  0  0  0  0
 36 98  1  0  0  0  0
 37 38  1  0  0  0  0
 37 99  1  0  0  0  0
 38 39  1  0  0  0  0
 38100  1  0  0  0  0
 39 40  1  0  0  0  0
 39101  1  0  0  0  0
 40 41  1  0  0  0  0
 40102  1  0  0  0  0
 41 42  1  0  0  0  0
 41103  1  0  0  0  0
 42 43  1  0  0  0  0
 42104  1  0  0  0  0
 43 44  1  0  0  0  0
 43105  1  0  0  0  0
 44 45  1  0  0  0  0
 44106  1  0  0  0  0
 45 46  1  0  0  0  0
 45107  1  0  0  0  0
 46 47  1  0  0  0  0
 46108  1  0  0  0  0
 47 48  1  0  0  0  0
 47109  1  0  0  0  0
 48 49  1  0  0  0  0
 48110  1  0  0  0  0
 49 50  1  0  0  0  0
 49111  1  0  0  0  0
 50 51  1  0  0  0  0
 50112  1  0  0  0  0
 51 52  1  0  0  0  0
 51113  1  0  0  0  0
 52 53  1  0  0  0  0
 52114  1  0  0  0  0
 53 54  1  0  0  0  0
 53115  1  0  0  0  0
 54 55  1  0  0  0  0
 54116  1  0  0  0  0
 55 56  1  0  0  0  0
 55117  1  0  0  0  0
 56 57  1  0  0  0  0
 56118  1  0  0  0  0
 56119  1  0  0  0  0
 57 58  1  0  0  0  0
 57120  1  0  0  0  0
 57121  1  0  0  0  0
 58 59  1  0  0  0  0
 58122  1  0  0  0  0
 58123  1  0  0  0  0
 59 60  1  0  0  0  0
 59124  1  0  0  0  0
 59125  1  0  0  0  0
 60126  1  0  0  0  0
 60127  1  0  0  0  0
 60128  1  0  0  0  0
M  END
$$$$
