
 OpenBabel04232216573D

109108  0  0  0  0  0  0  0  0999 V2000
    9.4930  -24.1969   -1.0381 C   0  0  0  0  0  0  0  0  0  0  0  0
   11.2835  -24.3523   -0.9797 S   0  0  0  0  0  0  0  0  0  0  0  0
   11.6873  -23.3741   -2.4519 C   0  0  0  0  0  0  0  0  0  0  0  0
   13.1996  -23.3773   -2.5946 C   0  0  0  0  0  0  0  0  0  0  0  0
   13.6382  -22.5937   -3.8174 C   0  0  0  0  0  0  0  0  0  0  0  0
   15.0853  -22.7345   -3.8961 N   0  0  0  0  0  0  0  0  0  0  0  0
   15.5167  -22.0189   -5.0814 N   0  0  0  0  0  0  0  0  0  0  0  0
   16.9389  -21.9866   -5.2214 N   0  0  0  0  0  0  0  0  0  0  0  0
   17.3454  -21.1577   -6.3223 N   0  0  0  0  0  0  0  0  0  0  0  0
   17.1420  -19.7614   -6.1683 N   0  0  0  0  0  0  0  0  0  0  0  0
   17.7457  -19.1561   -5.0575 N   0  0  0  0  0  0  0  0  0  0  0  0
   19.1610  -19.1342   -5.1595 N   0  0  0  0  0  0  0  0  0  0  0  0
   19.5693  -18.4167   -6.3205 N   0  0  0  0  0  0  0  0  0  0  0  0
   19.1779  -17.0606   -6.2148 N   0  0  0  0  0  0  0  0  0  0  0  0
   19.6638  -16.5011   -4.9958 N   0  0  0  0  0  0  0  0  0  0  0  0
   21.0952  -16.5626   -5.0318 N   0  0  0  0  0  0  0  0  0  0  0  0
   21.5042  -15.9004   -6.2303 N   0  0  0  0  0  0  0  0  0  0  0  0
   21.1408  -14.4707   -6.1259 C   0  0  0  0  0  0  0  0  0  0  0  0
   21.6870  -13.7972   -4.8596 C   0  0  0  0  0  0  0  0  0  0  0  0
   23.2047  -13.8889   -4.8192 C   0  0  0  0  0  0  0  0  0  0  0  0
   23.9786  -13.1396   -3.3381 S   0  0  0  0  0  0  0  0  0  0  0  0
   23.3082  -14.2949   -1.7713 S   0  0  0  0  0  0  0  0  0  0  0  0
   24.0168  -16.2026   -2.0985 S   0  0  0  0  0  0  0  0  0  0  0  0
   26.0576  -16.1870   -1.7984 S   0  0  0  0  0  0  0  0  0  0  0  0
   26.6936  -18.1340   -2.1478 S   0  0  0  0  0  0  0  0  0  0  0  0
   28.7731  -18.1089   -2.1692 S   0  0  0  0  0  0  0  0  0  0  0  0
   29.4255  -20.0834   -2.3662 S   0  0  0  0  0  0  0  0  0  0  0  0
   31.5191  -20.0614   -2.3720 S   0  0  0  0  0  0  0  0  0  0  0  0
   32.1948  -22.0340   -2.6001 S   0  0  0  0  0  0  0  0  0  0  0  0
   34.2966  -22.0138   -2.5965 S   0  0  0  0  0  0  0  0  0  0  0  0
   34.9819  -23.9900   -2.8239 S   0  0  0  0  0  0  0  0  0  0  0  0
   37.0878  -23.9736   -2.8221 S   0  0  0  0  0  0  0  0  0  0  0  0
   37.7762  -25.9522   -3.0494 S   0  0  0  0  0  0  0  0  0  0  0  0
   39.8842  -25.9379   -3.0478 S   0  0  0  0  0  0  0  0  0  0  0  0
   40.5740  -27.9175   -3.2753 S   0  0  0  0  0  0  0  0  0  0  0  0
   42.6829  -27.9041   -3.2738 S   0  0  0  0  0  0  0  0  0  0  0  0
   43.3730  -29.8841   -3.5013 S   0  0  0  0  0  0  0  0  0  0  0  0
   45.4822  -29.8710   -3.4998 S   0  0  0  0  0  0  0  0  0  0  0  0
   46.1725  -31.8512   -3.7274 S   0  0  0  0  0  0  0  0  0  0  0  0
   48.2819  -31.8382   -3.7259 S   0  0  0  0  0  0  0  0  0  0  0  0
   48.9725  -33.8183   -3.9535 S   0  0  0  0  0  0  0  0  0  0  0  0
   51.0820  -33.8052   -3.9520 S   0  0  0  0  0  0  0  0  0  0  0  0
   51.7725  -35.7853   -4.1796 S   0  0  0  0  0  0  0  0  0  0  0  0
   53.8820  -35.7728   -4.1781 S   0  0  0  0  0  0  0  0  0  0  0  0
   54.5719  -37.7532   -4.4057 S   0  0  0  0  0  0  0  0  0  0  0  0
   56.6813  -37.7409   -4.4043 S   0  0  0  0  0  0  0  0  0  0  0  0
   57.3717  -39.7211   -4.6319 S   0  0  0  0  0  0  0  0  0  0  0  0
   59.4811  -39.7075   -4.6303 S   0  0  0  0  0  0  0  0  0  0  0  0
   60.1726  -41.6873   -4.8579 S   0  0  0  0  0  0  0  0  0  0  0  0
   62.2819  -41.6731   -4.8562 S   0  0  0  0  0  0  0  0  0  0  0  0
   62.9732  -43.6529   -5.0838 S   0  0  0  0  0  0  0  0  0  0  0  0
   65.0825  -43.6394   -5.0822 S   0  0  0  0  0  0  0  0  0  0  0  0
   65.7731  -45.6195   -5.3098 S   0  0  0  0  0  0  0  0  0  0  0  0
   67.8824  -45.6063   -5.3083 S   0  0  0  0  0  0  0  0  0  0  0  0
   68.5730  -47.5864   -5.5359 S   0  0  0  0  0  0  0  0  0  0  0  0
   70.6823  -47.5733   -5.5344 S   0  0  0  0  0  0  0  0  0  0  0  0
   71.3729  -49.5534   -5.7619 S   0  0  0  0  0  0  0  0  0  0  0  0
   73.4823  -49.5402   -5.7604 S   0  0  0  0  0  0  0  0  0  0  0  0
   74.1729  -51.5203   -5.9880 S   0  0  0  0  0  0  0  0  0  0  0  0
   76.2823  -51.5071   -5.9865 S   0  0  0  0  0  0  0  0  0  0  0  0
   76.9729  -53.4872   -6.2141 S   0  0  0  0  0  0  0  0  0  0  0  0
   79.0822  -53.4741   -6.2125 S   0  0  0  0  0  0  0  0  0  0  0  0
   79.7727  -55.4541   -6.4401 S   0  0  0  0  0  0  0  0  0  0  0  0
   81.8820  -55.4409   -6.4386 S   0  0  0  0  0  0  0  0  0  0  0  0
   82.5724  -57.4209   -6.6662 S   0  0  0  0  0  0  0  0  0  0  0  0
   84.6814  -57.4074   -6.6646 S   0  0  0  0  0  0  0  0  0  0  0  0
   85.3714  -59.3871   -6.8921 S   0  0  0  0  0  0  0  0  0  0  0  0
   87.4797  -59.3732   -6.8905 S   0  0  0  0  0  0  0  0  0  0  0  0
   88.1685  -61.3522   -7.1180 S   0  0  0  0  0  0  0  0  0  0  0  0
   90.2753  -61.3368   -7.1162 S   0  0  0  0  0  0  0  0  0  0  0  0
   90.9613  -63.3142   -7.3435 S   0  0  0  0  0  0  0  0  0  0  0  0
   93.0645  -63.2960   -7.3417 S   0  0  0  0  0  0  0  0  0  0  0  0
   93.7444  -65.2705   -7.5672 S   0  0  0  0  0  0  0  0  0  0  0  0
   95.8409  -65.2467   -7.5665 S   0  0  0  0  0  0  0  0  0  0  0  0
   96.5104  -67.2154   -7.7992 S   0  0  0  0  0  0  0  0  0  0  0  0
   98.5959  -67.1831   -7.7667 S   0  0  0  0  0  0  0  0  0  0  0  0
   99.2557  -69.1399   -8.0225 S   0  0  0  0  0  0  0  0  0  0  0  0
  101.3250  -69.0628   -8.1047 S   0  0  0  0  0  0  0  0  0  0  0  0
  101.9983  -71.0153   -8.0700 S   0  0  0  0  0  0  0  0  0  0  0  0
  104.0501  -70.9072   -8.2493 S   0  0  0  0  0  0  0  0  0  0  0  0
  104.7255  -70.3972   -6.3775 S   0  0  0  0  0  0  0  0  0  0  0  0
    9.0730  -24.7492   -0.1948 H   0  0  0  0  0  0  0  0  0  0  0  0
    9.1022  -24.6230   -1.9655 H   0  0  0  0  0  0  0  0  0  0  0  0
    9.1963  -23.1487   -0.9549 H   0  0  0  0  0  0  0  0  0  0  0  0
   11.3228  -22.3477   -2.3399 H   0  0  0  0  0  0  0  0  0  0  0  0
   11.2270  -23.8167   -3.3416 H   0  0  0  0  0  0  0  0  0  0  0  0
   13.5671  -24.4090   -2.6844 H   0  0  0  0  0  0  0  0  0  0  0  0
   13.6722  -22.9372   -1.7045 H   0  0  0  0  0  0  0  0  0  0  0  0
   13.3515  -21.5366   -3.7158 H   0  0  0  0  0  0  0  0  0  0  0  0
   13.1715  -22.9920   -4.7288 H   0  0  0  0  0  0  0  0  0  0  0  0
   15.3127  -23.7367   -3.9530 H   0  0  0  0  0  0  0  0  0  0  0  0
   15.1857  -21.0533   -5.0179 H   0  0  0  0  0  0  0  0  0  0  0  0
   17.3460  -22.9281   -5.3322 H   0  0  0  0  0  0  0  0  0  0  0  0
   17.0893  -21.5177   -7.2576 H   0  0  0  0  0  0  0  0  0  0  0  0
   16.2341  -19.3518   -6.3730 H   0  0  0  0  0  0  0  0  0  0  0  0
   17.4677  -19.4780   -4.1452 H   0  0  0  0  0  0  0  0  0  0  0  0
   19.5059  -20.0722   -5.2577 H   0  0  0  0  0  0  0  0  0  0  0  0
   19.0775  -18.8081   -7.1111 H   0  0  0  0  0  0  0  0  0  0  0  0
   18.1695  -17.0152   -6.1864 H   0  0  0  0  0  0  0  0  0  0  0  0
   19.3356  -17.0562   -4.2138 H   0  0  0  0  0  0  0  0  0  0  0  0
   21.3525  -17.5425   -5.1354 H   0  0  0  0  0  0  0  0  0  0  0  0
   20.8974  -16.3167   -6.9461 H   0  0  0  0  0  0  0  0  0  0  0  0
   20.0486  -14.3352   -6.1642 H   0  0  0  0  0  0  0  0  0  0  0  0
   21.5246  -13.9596   -7.0174 H   0  0  0  0  0  0  0  0  0  0  0  0
   21.2425  -14.2611   -3.9688 H   0  0  0  0  0  0  0  0  0  0  0  0
   21.3584  -12.7509   -4.8544 H   0  0  0  0  0  0  0  0  0  0  0  0
   23.6083  -13.3539   -5.6852 H   0  0  0  0  0  0  0  0  0  0  0  0
   23.5644  -14.9182   -4.8953 H   0  0  0  0  0  0  0  0  0  0  0  0
  106.0508  -70.3865   -6.5933 H   0  0  0  0  0  0  0  0  0  0  0  0
  1  2  1  0  0  0  0
  1 82  1  0  0  0  0
  1 83  1  0  0  0  0
  1 84  1  0  0  0  0
  2  3  1  0  0  0  0
  3  4  1  0  0  0  0
  3 85  1  0  0  0  0
  3 86  1  0  0  0  0
  4  5  1  0  0  0  0
  4 87  1  0  0  0  0
  4 88  1  0  0  0  0
  5  6  1  0  0  0  0
  5 89  1  0  0  0  0
  5 90  1  0  0  0  0
  6  7  1  0  0  0  0
  6 91  1  0  0  0  0
  7  8  1  0  0  0  0
  7 92  1  0  0  0  0
  8  9  1  0  0  0  0
  8 93  1  0  0  0  0
  9 10  1  0  0  0  0
  9 94  1  0  0  0  0
 10 11  1  0  0  0  0
 10 95  1  0  0  0  0
 11 12  1  0  0  0  0
 11 96  1  0  0  0  0
 12 13  1  0  0  0  0
 12 97  1  0  0  0  0
 13 14  1  0  0  0  0
 13 98  1  0  0  0  0
 14 15  1  0  0  0  0
 14 99  1  0  0  0  0
 15 16  1  0  0  0  0
 15100  1  0  0  0  0
 16 17  1  0  0  0  0
 16101  1  0  0  0  0
 17 18  1  0  0  0  0
 17102  1  0  0  0  0
 18 19  1  0  0  0  0
 18103  1  0  0  0  0
 18104  1  0  0  0  0
 19 20  1  0  0  0  0
 19105  1  0  0  0  0
 19106  1  0  0  0  0
 20 21  1  0  0  0  0
 20107  1  0  0  0  0
 20108  1  0  0  0  0
 21 22  1  0  0  0  0
 22 23  1  0  0  0  0
 23 24  1  0  0  0  0
 24 25  1  0  0  0  0
 25 26  1  0  0  0  0
 26 27  1  0  0  0  0
 27 28  1  0  0  0  0
 28 29  1  0  0  0  0
 29 30  1  0  0  0  0
 30 31  1  0  0  0  0
 31 32  1  0  0  0  0
 32 33  1  0  0  0  0
 33 34  1  0  0  0  0
 34 35  1  0  0  0  0
 35 36  1  0  0  0  0
 36 37  1  0  0  0  0
 37 38  1  0  0  0  0
 38 39  1  0  0  0  0
 39 40  1  0  0  0  0
 40 41  1  0  0  0  0
 41 42  1  0  0  0  0
 42 43  1  0  0  0  0
 43 44  1  0  0  0  0
 44 45  1  0  0  0  0
 45 46  1  0  0  0  0
 46 47  1  0  0  0  0
 47 48  1  0  0  0  0
 48 49  1  0  0  0  0
 49 50  1  0  0  0  0
 50 51  1  0  0  0  0
 51 52  1  0  0  0  0
 52 53  1  0  0  0  0
 53 54  1  0  0  0  0
 54 55  1  0  0  0  0
 55 56  1  0  0  0  0
 56 57  1  0  0  0  0
 57 58  1  0  0  0  0
 58 59  1  0  0  0  0
 59 60  1  0  0  0  0
 60 61  1  0  0  0  0
 61 62  1  0  0  0  0
 62 63  1  0  0  0  0
 63 64  1  0  0  0  0
 64 65  1  0  0  0  0
 65 66  1  0  0  0  0
 66 67  1  0  0  0  0
 67 68  1  0  0  0  0
 68 69  1  0  0  0  0
 69 70  1  0  0  0  0
 70 71  1  0  0  0  0
 71 72  1  0  0  0  0
 72 73  1  0  0  0  0
 73 74  1  0  0  0  0
 74 75  1  0  0  0  0
 75 76  1  0  0  0  0
 76 77  1  0  0  0  0
 77 78  1  0  0  0  0
 78 79  1  0  0  0  0
 79 80  1  0  0  0  0
 80 81  1  0  0  0  0
 81109  1  0  0  0  0
M  END
$$$$
