
 OpenBabel04232216393D

 83 83  0  0  1  0  0  0  0  0999 V2000
    6.4981    3.1261   -4.8120 C   0  0  0  0  0  0  0  0  0  0  0  0
    7.3949    2.1844   -5.1675 C   0  0  0  0  0  0  0  0  0  0  0  0
    7.1377    0.7135   -5.0252 C   0  0  0  0  0  0  0  0  0  0  0  0
    8.1245   -0.0005   -4.1438 C   0  0  3  0  0  0  0  0  0  0  0  0
    8.0239   -1.4842   -3.8792 C   0  0  3  0  0  0  0  0  0  0  0  0
    6.9397   -2.3212   -4.4814 C   0  0  0  0  0  0  0  0  0  0  0  0
    7.1028   -3.7719   -4.0435 C   0  0  0  0  0  0  0  0  0  0  0  0
    6.0020   -4.6329   -4.6341 C   0  0  0  0  0  0  0  0  0  0  0  0
    6.1697   -6.0773   -4.1962 C   0  0  0  0  0  0  0  0  0  0  0  0
    5.0619   -6.9301   -4.7956 C   0  0  0  0  0  0  0  0  0  0  0  0
    5.2295   -8.3720   -4.3595 C   0  0  0  0  0  0  0  0  0  0  0  0
    4.1380   -9.2560   -4.9395 C   0  0  0  0  0  0  0  0  0  0  0  0
    4.3592  -10.6777   -4.4802 C   0  0  0  0  0  0  0  0  0  0  0  0
    4.8760  -10.9308   -3.3935 O   0  0  0  0  0  0  0  0  0  0  0  0
    3.8902  -11.7683   -5.4158 C   0  0  0  0  0  0  0  0  0  0  0  0
    4.1905  -13.1243   -4.7997 C   0  0  0  0  0  0  0  0  0  0  0  0
    3.7456  -14.2522   -5.7070 C   0  0  0  0  0  0  0  0  0  0  0  0
    4.0570  -15.5875   -5.0520 C   0  0  0  0  0  0  0  0  0  0  0  0
    3.6117  -16.7217   -5.9553 C   0  0  0  0  0  0  0  0  0  0  0  0
    3.9189  -18.0573   -5.3040 C   0  0  0  0  0  0  0  0  0  0  0  0
    3.4690  -19.1870   -6.2124 C   0  0  0  0  0  0  0  0  0  0  0  0
    3.7742  -20.5249   -5.5653 C   0  0  0  0  0  0  0  0  0  0  0  0
    3.3239  -21.6536   -6.4746 C   0  0  0  0  0  0  0  0  0  0  0  0
    3.6292  -22.9924   -5.8273 C   0  0  0  0  0  0  0  0  0  0  0  0
    3.1797  -24.1241   -6.7348 C   0  0  0  0  0  0  0  0  0  0  0  0
    3.4831  -25.4653   -6.0869 C   0  0  0  0  0  0  0  0  0  0  0  0
    3.0338  -26.6004   -6.9939 C   0  0  0  0  0  0  0  0  0  0  0  0
    3.3349  -27.9492   -6.3551 C   0  0  0  0  0  0  0  0  0  0  0  0
    2.8859  -29.0792   -7.2616 C   0  0  0  0  0  0  0  0  0  0  0  0
    9.0821   -0.9321   -4.7040 C   0  0  0  0  0  3  0  0  0  0  0  0
    6.7325    4.1761   -4.9130 H   0  0  0  0  0  0  0  0  0  0  0  0
    5.5273    2.8568   -4.4095 H   0  0  0  0  0  0  0  0  0  0  0  0
    8.3555    2.4927   -5.5639 H   0  0  0  0  0  0  0  0  0  0  0  0
    7.1280    0.2672   -6.0289 H   0  0  0  0  0  0  0  0  0  0  0  0
    6.1322    0.5708   -4.6097 H   0  0  0  0  0  0  0  0  0  0  0  0
    8.4735    0.6022   -3.3129 H   0  0  0  0  0  0  0  0  0  0  0  0
    8.3578   -1.8543   -2.9166 H   0  0  0  0  0  0  0  0  0  0  0  0
    6.9681   -2.2612   -5.5757 H   0  0  0  0  0  0  0  0  0  0  0  0
    5.9507   -1.9573   -4.1721 H   0  0  0  0  0  0  0  0  0  0  0  0
    7.0825   -3.8403   -2.9475 H   0  0  0  0  0  0  0  0  0  0  0  0
    8.0836   -4.1434   -4.3644 H   0  0  0  0  0  0  0  0  0  0  0  0
    6.0316   -4.5718   -5.7284 H   0  0  0  0  0  0  0  0  0  0  0  0
    5.0220   -4.2600   -4.3123 H   0  0  0  0  0  0  0  0  0  0  0  0
    6.1435   -6.1430   -3.1009 H   0  0  0  0  0  0  0  0  0  0  0  0
    7.1491   -6.4546   -4.5170 H   0  0  0  0  0  0  0  0  0  0  0  0
    5.0931   -6.8646   -5.8900 H   0  0  0  0  0  0  0  0  0  0  0  0
    4.0844   -6.5521   -4.4720 H   0  0  0  0  0  0  0  0  0  0  0  0
    5.2096   -8.4272   -3.2639 H   0  0  0  0  0  0  0  0  0  0  0  0
    6.2126   -8.7428   -4.6756 H   0  0  0  0  0  0  0  0  0  0  0  0
    4.1705   -9.2300   -6.0336 H   0  0  0  0  0  0  0  0  0  0  0  0
    3.1470   -8.9256   -4.6106 H   0  0  0  0  0  0  0  0  0  0  0  0
    4.4177  -11.6570   -6.3695 H   0  0  0  0  0  0  0  0  0  0  0  0
    2.8149  -11.6522   -5.5889 H   0  0  0  0  0  0  0  0  0  0  0  0
    3.6852  -13.2100   -3.8290 H   0  0  0  0  0  0  0  0  0  0  0  0
    5.2669  -13.2131   -4.6025 H   0  0  0  0  0  0  0  0  0  0  0  0
    4.2607  -14.1808   -6.6725 H   0  0  0  0  0  0  0  0  0  0  0  0
    2.6693  -14.1734   -5.9015 H   0  0  0  0  0  0  0  0  0  0  0  0
    3.5464  -15.6599   -4.0832 H   0  0  0  0  0  0  0  0  0  0  0  0
    5.1336  -15.6684   -4.8548 H   0  0  0  0  0  0  0  0  0  0  0  0
    4.1249  -16.6512   -6.9220 H   0  0  0  0  0  0  0  0  0  0  0  0
    2.5357  -16.6409   -6.1515 H   0  0  0  0  0  0  0  0  0  0  0  0
    3.4069  -18.1292   -4.3365 H   0  0  0  0  0  0  0  0  0  0  0  0
    4.9952  -18.1405   -5.1087 H   0  0  0  0  0  0  0  0  0  0  0  0
    3.9810  -19.1142   -7.1799 H   0  0  0  0  0  0  0  0  0  0  0  0
    2.3928  -19.1030   -6.4074 H   0  0  0  0  0  0  0  0  0  0  0  0
    3.2625  -20.5972   -4.5977 H   0  0  0  0  0  0  0  0  0  0  0  0
    4.8505  -20.6085   -5.3702 H   0  0  0  0  0  0  0  0  0  0  0  0
    3.8357  -21.5802   -7.4422 H   0  0  0  0  0  0  0  0  0  0  0  0
    2.2477  -21.5689   -6.6697 H   0  0  0  0  0  0  0  0  0  0  0  0
    3.1174  -23.0634   -4.8596 H   0  0  0  0  0  0  0  0  0  0  0  0
    4.7056  -23.0748   -5.6321 H   0  0  0  0  0  0  0  0  0  0  0  0
    3.6925  -24.0511   -7.7019 H   0  0  0  0  0  0  0  0  0  0  0  0
    2.1038  -24.0382   -6.9313 H   0  0  0  0  0  0  0  0  0  0  0  0
    2.9703  -25.5341   -5.1194 H   0  0  0  0  0  0  0  0  0  0  0  0
    4.5594  -25.5470   -5.8902 H   0  0  0  0  0  0  0  0  0  0  0  0
    3.5452  -26.5232   -7.9614 H   0  0  0  0  0  0  0  0  0  0  0  0
    1.9579  -26.5118   -7.1894 H   0  0  0  0  0  0  0  0  0  0  0  0
    2.8224  -28.0272   -5.3890 H   0  0  0  0  0  0  0  0  0  0  0  0
    4.4103  -28.0386   -6.1614 H   0  0  0  0  0  0  0  0  0  0  0  0
    1.8089  -29.0212   -7.4486 H   0  0  0  0  0  0  0  0  0  0  0  0
    3.1039  -30.0455   -6.7992 H   0  0  0  0  0  0  0  0  0  0  0  0
    3.4042  -29.0325   -8.2246 H   0  0  0  0  0  0  0  0  0  0  0  0
    9.1826   -1.1514   -5.7601 H   0  0  0  0  0  0  0  0  0  0  0  0
  1  2  2  0  0  0  0
  1 31  1  0  0  0  0
  1 32  1  0  0  0  0
  2  3  1  0  0  0  0
  2 33  1  0  0  0  0
  3  4  1  0  0  0  0
  3 34  1  0  0  0  0
  3 35  1  0  0  0  0
  4  5  1  0  0  0  0
  4 30  1  0  0  0  0
  4 36  1  0  0  0  0
  5  6  1  0  0  0  0
  5 30  1  0  0  0  0
  5 37  1  0  0  0  0
  6  7  1  0  0  0  0
  6 38  1  0  0  0  0
  6 39  1  0  0  0  0
  7  8  1  0  0  0  0
  7 40  1  0  0  0  0
  7 41  1  0  0  0  0
  8  9  1  0  0  0  0
  8 42  1  0  0  0  0
  8 43  1  0  0  0  0
  9 10  1  0  0  0  0
  9 44  1  0  0  0  0
  9 45  1  0  0  0  0
 10 11  1  0  0  0  0
 10 46  1  0  0  0  0
 10 47  1  0  0  0  0
 11 12  1  0  0  0  0
 11 48  1  0  0  0  0
 11 49  1  0  0  0  0
 12 13  1  0  0  0  0
 12 50  1  0  0  0  0
 12 51  1  0  0  0  0
 13 14  2  0  0  0  0
 13 15  1  0  0  0  0
 15 16  1  0  0  0  0
 15 52  1  0  0  0  0
 15 53  1  0  0  0  0
 16 17  1  0  0  0  0
 16 54  1  0  0  0  0
 16 55  1  0  0  0  0
 17 18  1  0  0  0  0
 17 56  1  0  0  0  0
 17 57  1  0  0  0  0
 18 19  1  0  0  0  0
 18 58  1  0  0  0  0
 18 59  1  0  0  0  0
 19 20  1  0  0  0  0
 19 60  1  0  0  0  0
 19 61  1  0  0  0  0
 20 21  1  0  0  0  0
 20 62  1  0  0  0  0
 20 63  1  0  0  0  0
 21 22  1  0  0  0  0
 21 64  1  0  0  0  0
 21 65  1  0  0  0  0
 22 23  1  0  0  0  0
 22 66  1  0  0  0  0
 22 67  1  0  0  0  0
 23 24  1  0  0  0  0
 23 68  1  0  0  0  0
 23 69  1  0  0  0  0
 24 25  1  0  0  0  0
 24 70  1  0  0  0  0
 24 71  1  0  0  0  0
 25 26  1  0  0  0  0
 25 72  1  0  0  0  0
 25 73  1  0  0  0  0
 26 27  1  0  0  0  0
 26 74  1  0  0  0  0
 26 75  1  0  0  0  0
 27 28  1  0  0  0  0
 27 76  1  0  0  0  0
 27 77  1  0  0  0  0
 28 29  1  0  0  0  0
 28 78  1  0  0  0  0
 28 79  1  0  0  0  0
 29 80  1  0  0  0  0
 29 81  1  0  0  0  0
 29 82  1  0  0  0  0
 30 83  1  0  0  0  0
M  END
$$$$
