
 OpenBabel04232216433D

 67 68  0  0  0  0  0  0  0  0999 V2000
    4.9559    1.4246   -1.0123 C   0  0  0  0  0  0  0  0  0  0  0  0
    4.0259    0.2376   -0.7221 C   0  0  0  0  0  0  0  0  0  0  0  0
    3.7739   -0.4599    0.4118 C   0  0  0  0  0  0  0  0  0  0  0  0
    4.7184   -0.6357    1.4722 C   0  0  0  0  0  0  0  0  0  0  0  0
    4.9474   -1.9085    1.8724 C   0  0  0  0  0  0  0  0  0  0  0  0
    6.2931   -2.3510    1.7659 C   0  0  0  0  0  0  0  0  0  0  0  0
    7.1440   -2.9869    2.5949 C   0  0  0  0  0  0  0  0  0  0  0  0
    6.5271   -3.7424    3.7257 C   0  0  0  0  0  0  0  0  0  0  0  0
    8.6323   -2.8751    2.3769 C   0  0  0  0  0  0  0  0  0  0  0  0
    9.0814   -1.6873    1.5598 C   0  0  0  0  0  0  0  0  0  0  0  0
    8.2848   -0.6126    0.8953 C   0  0  0  0  0  0  0  0  0  0  0  0
    9.7204   -3.5306    2.9167 C   0  0  0  0  0  0  0  0  0  0  0  0
    9.6482   -4.5727    4.0121 C   0  0  0  0  0  0  0  0  0  0  0  0
    9.2861   -5.9859    3.5640 C   0  0  0  0  0  0  0  0  0  0  0  0
   10.2922   -6.7366    2.6889 C   0  0  0  0  0  0  0  0  0  0  0  0
    9.7356   -8.1184    2.2942 C   0  0  0  0  0  0  0  0  0  0  0  0
    8.3976   -8.0949    1.5393 C   0  0  0  0  0  0  0  0  0  0  0  0
    8.4699   -7.3674    0.1972 C   0  0  0  0  0  0  0  0  0  0  0  0
    7.1049   -7.3116   -0.4712 C   0  0  0  0  0  0  0  0  0  0  0  0
   11.0904   -3.1564    2.5730 C   0  0  0  0  0  0  0  0  0  0  0  0
   12.3564   -3.2673    2.8116 C   0  0  0  0  0  0  0  0  0  0  0  0
   12.0310   -2.5697    1.5855 C   0  0  0  0  0  0  0  0  0  0  0  0
   12.0642   -1.2186    1.4705 C   0  0  0  0  0  0  0  0  0  0  0  0
   12.1521   -0.2456    0.3334 C   0  0  0  0  0  0  0  0  0  0  0  0
   11.1155   -0.0773   -0.5262 C   0  0  0  0  0  0  0  0  0  0  0  0
   10.3636    1.1564   -0.9956 C   0  0  0  0  0  0  0  0  0  0  0  0
    9.0789    0.9407   -1.4440 C   0  0  0  0  0  0  0  0  0  0  0  0
    7.8240    1.7146   -1.6507 C   0  0  0  0  0  0  0  0  0  0  0  0
    6.5298    1.4088   -1.2652 C   0  0  0  0  0  0  0  0  0  0  0  0
    4.7420    2.1602   -0.2193 H   0  0  0  0  0  0  0  0  0  0  0  0
    4.4573    1.8456   -1.9071 H   0  0  0  0  0  0  0  0  0  0  0  0
    3.2508    0.1058   -1.4818 H   0  0  0  0  0  0  0  0  0  0  0  0
    2.8735   -1.1013    0.4461 H   0  0  0  0  0  0  0  0  0  0  0  0
    5.5040    0.1243    1.4979 H   0  0  0  0  0  0  0  0  0  0  0  0
    4.1790   -2.6882    1.7433 H   0  0  0  0  0  0  0  0  0  0  0  0
    6.6369   -2.0606    0.7829 H   0  0  0  0  0  0  0  0  0  0  0  0
    5.4350   -3.6450    3.7317 H   0  0  0  0  0  0  0  0  0  0  0  0
    6.8841   -3.4054    4.6980 H   0  0  0  0  0  0  0  0  0  0  0  0
    6.7013   -4.8095    3.5863 H   0  0  0  0  0  0  0  0  0  0  0  0
    9.6912   -2.1127    0.7579 H   0  0  0  0  0  0  0  0  0  0  0  0
    9.6642   -1.0890    2.2688 H   0  0  0  0  0  0  0  0  0  0  0  0
    7.9397   -0.9697   -0.0817 H   0  0  0  0  0  0  0  0  0  0  0  0
    8.9546    0.2253    0.7750 H   0  0  0  0  0  0  0  0  0  0  0  0
    7.4900   -0.1842    1.4860 H   0  0  0  0  0  0  0  0  0  0  0  0
    8.8891   -4.2542    4.7332 H   0  0  0  0  0  0  0  0  0  0  0  0
   10.5675   -4.5945    4.6107 H   0  0  0  0  0  0  0  0  0  0  0  0
    8.3333   -5.9288    3.0402 H   0  0  0  0  0  0  0  0  0  0  0  0
    9.1079   -6.5856    4.4656 H   0  0  0  0  0  0  0  0  0  0  0  0
   11.2288   -6.8836    3.2420 H   0  0  0  0  0  0  0  0  0  0  0  0
   10.5497   -6.1657    1.7915 H   0  0  0  0  0  0  0  0  0  0  0  0
    9.5962   -8.7107    3.2082 H   0  0  0  0  0  0  0  0  0  0  0  0
   10.4802   -8.6529    1.6921 H   0  0  0  0  0  0  0  0  0  0  0  0
    7.6149   -7.6480    2.1626 H   0  0  0  0  0  0  0  0  0  0  0  0
    8.0747   -9.1293    1.3707 H   0  0  0  0  0  0  0  0  0  0  0  0
    9.1775   -7.8838   -0.4613 H   0  0  0  0  0  0  0  0  0  0  0  0
    8.8321   -6.3424    0.3273 H   0  0  0  0  0  0  0  0  0  0  0  0
    6.7097   -8.3175   -0.6434 H   0  0  0  0  0  0  0  0  0  0  0  0
    7.1754   -6.8017   -1.4369 H   0  0  0  0  0  0  0  0  0  0  0  0
    6.3893   -6.7625    0.1499 H   0  0  0  0  0  0  0  0  0  0  0  0
   12.9647   -3.8758    3.4329 H   0  0  0  0  0  0  0  0  0  0  0  0
   11.7733   -0.6541    2.3636 H   0  0  0  0  0  0  0  0  0  0  0  0
   12.8644    0.5495    0.5456 H   0  0  0  0  0  0  0  0  0  0  0  0
   10.5118   -0.9647   -0.6770 H   0  0  0  0  0  0  0  0  0  0  0  0
   10.7478    2.1385   -0.7092 H   0  0  0  0  0  0  0  0  0  0  0  0
    8.8471   -0.0949   -1.6503 H   0  0  0  0  0  0  0  0  0  0  0  0
    8.0017    2.5771   -2.2998 H   0  0  0  0  0  0  0  0  0  0  0  0
    6.2105    2.2858   -1.8870 H   0  0  0  0  0  0  0  0  0  0  0  0
  1  2  1  0  0  0  0
  1 29  1  0  0  0  0
  1 30  1  0  0  0  0
  1 31  1  0  0  0  0
  2  3  2  3  0  0  0
  2 32  1  0  0  0  0
  3  4  1  0  0  0  0
  3 33  1  0  0  0  0
  4  5  2  3  0  0  0
  4 34  1  0  0  0  0
  5  6  1  0  0  0  0
  5 35  1  0  0  0  0
  6  7  2  3  0  0  0
  6 36  1  0  0  0  0
  7  8  1  0  0  0  0
  7  9  1  0  0  0  0
  8 37  1  0  0  0  0
  8 38  1  0  0  0  0
  8 39  1  0  0  0  0
  9 10  1  0  0  0  0
  9 12  2  3  0  0  0
 10 11  1  0  0  0  0
 10 40  1  0  0  0  0
 10 41  1  0  0  0  0
 11 42  1  0  0  0  0
 11 43  1  0  0  0  0
 11 44  1  0  0  0  0
 12 13  1  0  0  0  0
 12 20  1  0  0  0  0
 13 14  1  0  0  0  0
 13 45  1  0  0  0  0
 13 46  1  0  0  0  0
 14 15  1  0  0  0  0
 14 47  1  0  0  0  0
 14 48  1  0  0  0  0
 15 16  1  0  0  0  0
 15 49  1  0  0  0  0
 15 50  1  0  0  0  0
 16 17  1  0  0  0  0
 16 51  1  0  0  0  0
 16 52  1  0  0  0  0
 17 18  1  0  0  0  0
 17 53  1  0  0  0  0
 17 54  1  0  0  0  0
 18 19  1  0  0  0  0
 18 55  1  0  0  0  0
 18 56  1  0  0  0  0
 19 57  1  0  0  0  0
 19 58  1  0  0  0  0
 19 59  1  0  0  0  0
 20 21  2  0  0  0  0
 20 22  1  0  0  0  0
 21 22  1  0  0  0  0
 21 60  1  0  0  0  0
 22 23  2  3  0  0  0
 23 24  1  0  0  0  0
 23 61  1  0  0  0  0
 24 25  2  3  0  0  0
 24 62  1  0  0  0  0
 25 26  1  0  0  0  0
 25 63  1  0  0  0  0
 26 27  2  3  0  0  0
 26 64  1  0  0  0  0
 27 28  1  0  0  0  0
 27 65  1  0  0  0  0
 28 29  2  3  0  0  0
 28 66  1  0  0  0  0
 29 67  1  0  0  0  0
M  END
$$$$
