
 OpenBabel04232216503D

 62 63  0  0  1  0  0  0  0  0999 V2000
    3.5932   -1.1275   -3.6998 C   0  0  0  0  0  0  0  0  0  0  0  0
    3.5809    0.0845   -2.7825 C   0  0  3  0  0  0  0  0  0  0  0  0
    4.2974   -0.2334   -1.4490 C   0  0  0  0  0  0  0  0  0  0  0  0
    3.1060   -0.6444   -0.5522 N   0  0  0  0  0  0  0  0  0  0  0  0
    3.1335   -1.5090    0.6363 C   0  0  0  0  0  0  0  0  0  0  0  0
    3.0996   -0.4444   -0.8271 S   0  0  0  0  0  0  0  0  0  0  0  0
    3.3744    1.2740   -0.3296 C   0  0  0  0  0  0  0  0  0  0  0  0
    4.7274    1.3937    0.3528 C   0  0  0  0  0  0  0  0  0  0  0  0
    5.8210    0.9644   -0.6116 C   0  0  0  0  0  0  0  0  0  0  0  0
    7.1739    1.0841    0.0708 C   0  0  0  0  0  0  0  0  0  0  0  0
    8.2677    0.6566   -0.8943 C   0  0  0  0  0  0  0  0  0  0  0  0
    9.6205    0.7744   -0.2113 C   0  0  0  0  0  0  0  0  0  0  0  0
   10.7144    0.3489   -1.1770 C   0  0  0  0  0  0  0  0  0  0  0  0
   12.0672    0.4667   -0.4940 C   0  0  0  0  0  0  0  0  0  0  0  0
   13.1613    0.0430   -1.4603 C   0  0  0  0  0  0  0  0  0  0  0  0
   14.5141    0.1608   -0.7773 C   0  0  0  0  0  0  0  0  0  0  0  0
    4.3092   -2.0481    1.0582 C   0  0  0  0  0  0  0  0  0  0  0  0
    4.3377   -2.9421    2.2872 C   0  0  0  0  0  0  0  0  0  0  0  0
    4.3092   -2.0481    1.0582 C   0  0  0  0  0  0  0  0  0  0  0  0
    5.5133   -3.4811    2.7090 C   0  0  0  0  0  0  0  0  0  0  0  0
    6.7984   -3.1894    1.9514 C   0  0  0  0  0  0  0  0  0  0  0  0
    5.5419   -4.3752    3.9380 C   0  0  0  0  0  0  0  0  0  0  0  0
    0.5760    0.2380   -0.4631 C   0  0  0  0  0  0  0  0  0  0  0  0
    1.9080    0.0392   -1.1678 C   0  0  0  0  0  0  0  0  0  0  0  0
    2.1660    0.4367   -2.3837 C   0  0  0  0  0  0  0  0  0  0  0  0
    4.6021   -1.3600   -3.9700 H   0  0  0  0  0  0  0  0  0  0  0  0
    3.0280   -0.9125   -4.5825 H   0  0  0  0  0  0  0  0  0  0  0  0
    3.1583   -1.9632   -3.1925 H   0  0  0  0  0  0  0  0  0  0  0  0
    4.0589    0.8766   -3.3201 H   0  0  0  0  0  0  0  0  0  0  0  0
    4.8009    0.6271   -1.0606 H   0  0  0  0  0  0  0  0  0  0  0  0
    5.0612   -0.9783   -1.5298 H   0  0  0  0  0  0  0  0  0  0  0  0
    2.6046    1.5763    0.3493 H   0  0  0  0  0  0  0  0  0  0  0  0
    3.3544    1.9034   -1.1947 H   0  0  0  0  0  0  0  0  0  0  0  0
    4.7475    0.7644    1.2179 H   0  0  0  0  0  0  0  0  0  0  0  0
    4.8899    2.4096    0.6469 H   0  0  0  0  0  0  0  0  0  0  0  0
    5.8009    1.5937   -1.4767 H   0  0  0  0  0  0  0  0  0  0  0  0
    5.6585   -0.0515   -0.9057 H   0  0  0  0  0  0  0  0  0  0  0  0
    7.1945    0.4537    0.9351 H   0  0  0  0  0  0  0  0  0  0  0  0
    7.3358    2.0997    0.3662 H   0  0  0  0  0  0  0  0  0  0  0  0
    8.2481    1.2879   -1.7580 H   0  0  0  0  0  0  0  0  0  0  0  0
    8.1050   -0.3585   -1.1908 H   0  0  0  0  0  0  0  0  0  0  0  0
    9.6406    0.1420    0.6516 H   0  0  0  0  0  0  0  0  0  0  0  0
    9.7825    1.7893    0.0865 H   0  0  0  0  0  0  0  0  0  0  0  0
   10.6943    0.9813   -2.0399 H   0  0  0  0  0  0  0  0  0  0  0  0
   10.5524   -0.6660   -1.4747 H   0  0  0  0  0  0  0  0  0  0  0  0
   12.0879   -0.1668    0.3681 H   0  0  0  0  0  0  0  0  0  0  0  0
   12.2287    1.4813   -0.1950 H   0  0  0  0  0  0  0  0  0  0  0  0
   13.1407    0.6765   -2.3224 H   0  0  0  0  0  0  0  0  0  0  0  0
   12.9999   -0.9716   -1.7593 H   0  0  0  0  0  0  0  0  0  0  0  0
   14.6755    1.1754   -0.4783 H   0  0  0  0  0  0  0  0  0  0  0  0
   15.2843   -0.1374   -1.4576 H   0  0  0  0  0  0  0  0  0  0  0  0
   14.5347   -0.4727    0.0848 H   0  0  0  0  0  0  0  0  0  0  0  0
    5.1817   -1.8500    0.5438 H   0  0  0  0  0  0  0  0  0  0  0  0
    3.3068   -1.7193    0.8795 H   0  0  0  0  0  0  0  0  0  0  0  0
    4.6612   -2.5968    0.2097 H   0  0  0  0  0  0  0  0  0  0  0  0
    4.9396   -1.1988    1.2203 H   0  0  0  0  0  0  0  0  0  0  0  0
    6.5857   -2.5476    1.1221 H   0  0  0  0  0  0  0  0  0  0  0  0
    7.2179   -4.1066    1.5942 H   0  0  0  0  0  0  0  0  0  0  0  0
    7.4963   -2.7086    2.6047 H   0  0  0  0  0  0  0  0  0  0  0  0
    5.8875   -5.0077    4.6765 H   0  0  0  0  0  0  0  0  0  0  0  0
   -0.3566    0.6770   -0.5138 H   0  0  0  0  0  0  0  0  0  0  0  0
    1.4925    0.9271   -2.9928 H   0  0  0  0  0  0  0  0  0  0  0  0
  1  2  1  0  0  0  0
  1 26  1  0  0  0  0
  1 27  1  0  0  0  0
  1 28  1  0  0  0  0
  2  3  1  0  0  0  0
  2 25  1  0  0  0  0
  2 29  1  0  0  0  0
  3  4  1  0  0  0  0
  3 30  1  0  0  0  0
  3 31  1  0  0  0  0
  4  5  1  0  0  0  0
  4 24  1  0  0  0  0
  5  6  1  0  0  0  0
  5 17  2  0  0  0  0
  6  7  1  0  0  0  0
  7  8  1  0  0  0  0
  7 32  1  0  0  0  0
  7 33  1  0  0  0  0
  8  9  1  0  0  0  0
  8 34  1  0  0  0  0
  8 35  1  0  0  0  0
  9 10  1  0  0  0  0
  9 36  1  0  0  0  0
  9 37  1  0  0  0  0
 10 11  1  0  0  0  0
 10 38  1  0  0  0  0
 10 39  1  0  0  0  0
 11 12  1  0  0  0  0
 11 40  1  0  0  0  0
 11 41  1  0  0  0  0
 12 13  1  0  0  0  0
 12 42  1  0  0  0  0
 12 43  1  0  0  0  0
 13 14  1  0  0  0  0
 13 44  1  0  0  0  0
 13 45  1  0  0  0  0
 14 15  1  0  0  0  0
 14 46  1  0  0  0  0
 14 47  1  0  0  0  0
 15 16  1  0  0  0  0
 15 48  1  0  0  0  0
 15 49  1  0  0  0  0
 16 50  1  0  0  0  0
 16 51  1  0  0  0  0
 16 52  1  0  0  0  0
 17 18  1  0  0  0  0
 17 53  1  0  0  0  0
 18 19  1  0  0  0  0
 18 20  2  0  0  0  0
 19 54  1  0  0  0  0
 19 55  1  0  0  0  0
 19 56  1  0  0  0  0
 20 21  1  0  0  0  0
 20 22  1  0  0  0  0
 21 57  1  0  0  0  0
 21 58  1  0  0  0  0
 21 59  1  0  0  0  0
 22 23  2  0  0  0  0
 22 60  1  0  0  0  0
 23 24  1  0  0  0  0
 23 61  1  0  0  0  0
 24 25  2  0  0  0  0
 25 62  1  0  0  0  0
M  END
$$$$
