
 OpenBabel04232216473D

 59 59  0  0  0  0  0  0  0  0999 V2000
    7.1172   -0.1880    4.3696 C   0  0  0  0  0  0  0  0  0  0  0  0
    6.3147   -1.0552    3.4023 C   0  0  0  0  0  0  0  0  0  0  0  0
    5.5122   -0.3211    2.5894 C   0  0  0  0  0  0  0  0  0  0  0  0
    4.7883   -0.8776    1.4769 C   0  0  0  0  0  0  0  0  0  0  0  0
    5.5352   -1.3420    0.3996 N   0  0  0  0  0  0  0  0  0  0  0  0
    5.0608   -1.3262   -0.9757 C   0  0  0  0  0  0  0  0  0  0  0  0
    6.1701   -1.4184   -2.0402 C   0  0  0  0  0  0  0  0  0  0  0  0
    7.0274   -2.6932   -2.0308 C   0  0  0  0  0  0  0  0  0  0  0  0
    8.0564   -2.6966   -3.1795 C   0  0  0  0  0  0  0  0  0  0  0  0
    8.9242   -3.9615   -3.1637 C   0  0  0  0  0  0  0  0  0  0  0  0
    9.9450   -3.9447   -4.3042 C   0  0  0  0  0  0  0  0  0  0  0  0
   10.8260   -5.1931   -4.3079 C   0  0  0  0  0  0  0  0  0  0  0  0
   11.8166   -5.1458   -5.4719 C   0  0  0  0  0  0  0  0  0  0  0  0
   12.7187   -6.3666   -5.4893 C   0  0  0  0  0  0  0  0  0  0  0  0
    3.5177   -1.1247    1.8409 C   0  0  0  0  0  0  0  0  0  0  0  0
    3.1265   -2.5375    1.6876 C   0  0  0  0  0  0  0  0  0  0  0  0
    2.4456   -2.9751    0.7877 O   0  0  0  0  0  0  0  0  0  0  0  0
    3.5318   -3.3026    2.9466 C   0  0  0  0  0  0  0  0  0  0  0  0
    2.3112   -3.7272    3.7143 C   0  0  0  0  0  0  0  0  0  0  0  0
    4.6208   -4.0618    2.6571 C   0  0  0  0  0  0  0  0  0  0  0  0
    4.3231   -5.2956    1.7846 C   0  0  0  0  0  0  0  0  0  0  0  0
    6.0349   -3.5840    2.7093 C   0  0  0  0  0  0  0  0  0  0  0  0
    6.7254   -2.4444    3.0549 C   0  0  0  0  0  0  0  0  0  0  0  0
    8.2365   -2.4243    2.8638 C   0  0  0  0  0  0  0  0  0  0  0  0
    6.5073    0.1736    5.2043 H   0  0  0  0  0  0  0  0  0  0  0  0
    7.4793    0.6990    3.8286 H   0  0  0  0  0  0  0  0  0  0  0  0
    8.0111   -0.6608    4.7820 H   0  0  0  0  0  0  0  0  0  0  0  0
    5.3425    0.7252    2.7796 H   0  0  0  0  0  0  0  0  0  0  0  0
    6.5295   -1.1598    0.5058 H   0  0  0  0  0  0  0  0  0  0  0  0
    4.5445   -0.3722   -1.1395 H   0  0  0  0  0  0  0  0  0  0  0  0
    4.3338   -2.1348   -1.1089 H   0  0  0  0  0  0  0  0  0  0  0  0
    6.8262   -0.5444   -1.9660 H   0  0  0  0  0  0  0  0  0  0  0  0
    5.6793   -1.3505   -3.0203 H   0  0  0  0  0  0  0  0  0  0  0  0
    6.3811   -3.5713   -2.1318 H   0  0  0  0  0  0  0  0  0  0  0  0
    7.5597   -2.7760   -1.0785 H   0  0  0  0  0  0  0  0  0  0  0  0
    8.7055   -1.8151   -3.1023 H   0  0  0  0  0  0  0  0  0  0  0  0
    7.5411   -2.6266   -4.1462 H   0  0  0  0  0  0  0  0  0  0  0  0
    8.2867   -4.8490   -3.2561 H   0  0  0  0  0  0  0  0  0  0  0  0
    9.4496   -4.0365   -2.2041 H   0  0  0  0  0  0  0  0  0  0  0  0
   10.5807   -3.0553   -4.2133 H   0  0  0  0  0  0  0  0  0  0  0  0
    9.4200   -3.8691   -5.2644 H   0  0  0  0  0  0  0  0  0  0  0  0
   10.2021   -6.0919   -4.3909 H   0  0  0  0  0  0  0  0  0  0  0  0
   11.3730   -5.2661   -3.3594 H   0  0  0  0  0  0  0  0  0  0  0  0
   12.4335   -4.2423   -5.3985 H   0  0  0  0  0  0  0  0  0  0  0  0
   11.2701   -5.0873   -6.4209 H   0  0  0  0  0  0  0  0  0  0  0  0
   13.3047   -6.4322   -4.5672 H   0  0  0  0  0  0  0  0  0  0  0  0
   13.4146   -6.3106   -6.3321 H   0  0  0  0  0  0  0  0  0  0  0  0
   12.1320   -7.2849   -5.5917 H   0  0  0  0  0  0  0  0  0  0  0  0
    3.1474   -0.7345    2.7884 H   0  0  0  0  0  0  0  0  0  0  0  0
    2.1953   -3.0431    4.5638 H   0  0  0  0  0  0  0  0  0  0  0  0
    2.3995   -4.7353    4.1315 H   0  0  0  0  0  0  0  0  0  0  0  0
    1.3952   -3.6779    3.1316 H   0  0  0  0  0  0  0  0  0  0  0  0
    4.9590   -5.3153    0.8915 H   0  0  0  0  0  0  0  0  0  0  0  0
    3.2864   -5.2889    1.3944 H   0  0  0  0  0  0  0  0  0  0  0  0
    4.4245   -6.2392    2.3219 H   0  0  0  0  0  0  0  0  0  0  0  0
    6.6758   -4.4034    2.3597 H   0  0  0  0  0  0  0  0  0  0  0  0
    8.6064   -3.2282    2.2268 H   0  0  0  0  0  0  0  0  0  0  0  0
    8.7484   -2.4772    3.8303 H   0  0  0  0  0  0  0  0  0  0  0  0
    8.5337   -1.4853    2.3747 H   0  0  0  0  0  0  0  0  0  0  0  0
  1  2  1  0  0  0  0
  1 25  1  0  0  0  0
  1 26  1  0  0  0  0
  1 27  1  0  0  0  0
  2  3  2  3  0  0  0
  2 23  1  0  0  0  0
  3  4  1  0  0  0  0
  3 28  1  0  0  0  0
  4  5  1  0  0  0  0
  4 15  2  3  0  0  0
  5  6  1  0  0  0  0
  5 29  1  0  0  0  0
  6  7  1  0  0  0  0
  6 30  1  0  0  0  0
  6 31  1  0  0  0  0
  7  8  1  0  0  0  0
  7 32  1  0  0  0  0
  7 33  1  0  0  0  0
  8  9  1  0  0  0  0
  8 34  1  0  0  0  0
  8 35  1  0  0  0  0
  9 10  1  0  0  0  0
  9 36  1  0  0  0  0
  9 37  1  0  0  0  0
 10 11  1  0  0  0  0
 10 38  1  0  0  0  0
 10 39  1  0  0  0  0
 11 12  1  0  0  0  0
 11 40  1  0  0  0  0
 11 41  1  0  0  0  0
 12 13  1  0  0  0  0
 12 42  1  0  0  0  0
 12 43  1  0  0  0  0
 13 14  1  0  0  0  0
 13 44  1  0  0  0  0
 13 45  1  0  0  0  0
 14 46  1  0  0  0  0
 14 47  1  0  0  0  0
 14 48  1  0  0  0  0
 15 16  1  0  0  0  0
 15 49  1  0  0  0  0
 16 17  2  0  0  0  0
 16 18  1  0  0  0  0
 18 19  1  0  0  0  0
 18 20  2  3  0  0  0
 19 50  1  0  0  0  0
 19 51  1  0  0  0  0
 19 52  1  0  0  0  0
 20 21  1  0  0  0  0
 20 22  1  0  0  0  0
 21 53  1  0  0  0  0
 21 54  1  0  0  0  0
 21 55  1  0  0  0  0
 22 23  2  3  0  0  0
 22 56  1  0  0  0  0
 23 24  1  0  0  0  0
 24 57  1  0  0  0  0
 24 58  1  0  0  0  0
 24 59  1  0  0  0  0
M  END
$$$$
