
 OpenBabel04232216443D

 59 62  0  0  1  0  0  0  0  0999 V2000
    0.2439   -1.4265    4.6853 C   0  0  0  0  0  0  0  0  0  0  0  0
    1.1489   -2.3498    5.4503 C   0  0  0  0  0  0  0  0  0  0  0  0
    2.4498   -2.4098    5.2217 C   0  0  0  0  0  0  0  0  0  0  0  0
    3.0975   -1.6939    4.0731 C   0  0  0  0  0  0  0  0  0  0  0  0
    4.0630   -2.4852    3.1684 C   0  0  0  0  0  0  0  0  0  0  0  0
    3.7096   -3.9631    2.9981 C   0  0  0  0  0  0  0  0  0  0  0  0
    4.3674   -4.7795    4.1005 C   0  0  0  0  0  0  0  0  0  0  0  0
    3.3177   -5.5001    4.9029 C   0  0  3  0  0  0  0  0  0  0  0  0
    2.6444   -6.8040    4.5119 C   0  0  0  0  0  0  0  0  0  0  0  0
    3.0260   -7.3866    5.8845 C   0  0  0  0  0  0  0  0  0  0  0  0
    3.8984   -6.1495    6.1927 C   0  0  3  0  0  0  0  0  0  0  0  0
    3.7265   -5.1802    7.3731 C   0  0  0  0  0  0  0  0  0  0  0  0
    5.0118   -4.4231    7.7632 C   0  0  0  0  0  0  0  0  0  0  0  0
    5.5903   -4.6253    9.2017 C   0  0  0  0  0  0  0  0  0  0  0  0
    6.1866   -6.0063    9.5351 C   0  0  0  0  0  0  0  0  0  0  0  0
    6.9041   -6.0975   10.9104 C   0  0  0  0  0  0  0  0  0  0  0  0
    6.0090   -5.8265   12.1255 C   0  0  0  0  0  0  0  0  0  0  0  0
    6.7303   -6.0439   13.4550 C   0  0  0  0  0  0  0  0  0  0  0  0
    2.0171   -2.2466    6.5998 C   0  0  0  0  0  0  0  0  0  0  0  0
    2.1317   -3.1931    7.5874 C   0  0  0  0  0  0  0  0  0  0  0  0
    1.8278   -2.7870    8.9864 C   0  0  0  0  0  0  0  0  0  0  0  0
    1.4596   -3.7192    9.8840 C   0  0  0  0  0  0  0  0  0  0  0  0
    1.2286   -5.1097    9.4925 C   0  0  0  0  0  0  0  0  0  0  0  0
    1.6214   -5.5529    8.2877 C   0  0  0  0  0  0  0  0  0  0  0  0
    2.4623   -4.6549    7.4624 C   0  0  0  0  0  0  0  0  0  0  0  0
    0.7529   -0.5347    4.2927 H   0  0  0  0  0  0  0  0  0  0  0  0
   -0.5806   -1.0457    5.2901 H   0  0  0  0  0  0  0  0  0  0  0  0
   -0.1778   -1.9513    3.8183 H   0  0  0  0  0  0  0  0  0  0  0  0
    2.3311   -1.3750    3.3561 H   0  0  0  0  0  0  0  0  0  0  0  0
    3.5838   -0.7722    4.4092 H   0  0  0  0  0  0  0  0  0  0  0  0
    5.0932   -2.3626    3.5238 H   0  0  0  0  0  0  0  0  0  0  0  0
    4.0454   -2.0240    2.1708 H   0  0  0  0  0  0  0  0  0  0  0  0
    4.0751   -4.3290    2.0332 H   0  0  0  0  0  0  0  0  0  0  0  0
    2.6191   -4.0908    2.9747 H   0  0  0  0  0  0  0  0  0  0  0  0
    4.9301   -4.1227    4.7724 H   0  0  0  0  0  0  0  0  0  0  0  0
    5.1018   -5.4758    3.6926 H   0  0  0  0  0  0  0  0  0  0  0  0
    2.4975   -4.8070    5.0995 H   0  0  0  0  0  0  0  0  0  0  0  0
    3.0655   -7.2873    3.6306 H   0  0  0  0  0  0  0  0  0  0  0  0
    1.5631   -6.6772    4.3692 H   0  0  0  0  0  0  0  0  0  0  0  0
    3.5904   -8.3200    5.7830 H   0  0  0  0  0  0  0  0  0  0  0  0
    2.1593   -7.6052    6.5036 H   0  0  0  0  0  0  0  0  0  0  0  0
    4.9598   -6.4346    6.0972 H   0  0  0  0  0  0  0  0  0  0  0  0
    4.8343   -3.3465    7.6524 H   0  0  0  0  0  0  0  0  0  0  0  0
    5.8119   -4.6495    7.0484 H   0  0  0  0  0  0  0  0  0  0  0  0
    4.8254   -4.3656    9.9402 H   0  0  0  0  0  0  0  0  0  0  0  0
    6.3994   -3.8904    9.3243 H   0  0  0  0  0  0  0  0  0  0  0  0
    6.9290   -6.2663    8.7696 H   0  0  0  0  0  0  0  0  0  0  0  0
    5.4028   -6.7693    9.4936 H   0  0  0  0  0  0  0  0  0  0  0  0
    7.7601   -5.4104   10.9303 H   0  0  0  0  0  0  0  0  0  0  0  0
    7.3246   -7.1083   11.0082 H   0  0  0  0  0  0  0  0  0  0  0  0
    5.1344   -6.4851   12.0924 H   0  0  0  0  0  0  0  0  0  0  0  0
    5.6476   -4.7937   12.0992 H   0  0  0  0  0  0  0  0  0  0  0  0
    7.0702   -7.0792   13.5640 H   0  0  0  0  0  0  0  0  0  0  0  0
    6.0536   -5.8281   14.2902 H   0  0  0  0  0  0  0  0  0  0  0  0
    7.5994   -5.3851   13.5535 H   0  0  0  0  0  0  0  0  0  0  0  0
    1.9597   -1.7406    9.2686 H   0  0  0  0  0  0  0  0  0  0  0  0
    1.2678   -3.4761   10.9244 H   0  0  0  0  0  0  0  0  0  0  0  0
    0.7282   -5.7857   10.1813 H   0  0  0  0  0  0  0  0  0  0  0  0
    1.4499   -6.5820    8.0115 H   0  0  0  0  0  0  0  0  0  0  0  0
  1  2  1  0  0  0  0
  1 26  1  0  0  0  0
  1 27  1  0  0  0  0
  1 28  1  0  0  0  0
  2  3  2  0  0  0  0
  2 19  1  0  0  0  0
  3  4  1  0  0  0  0
  3 19  1  0  0  0  0
  4  5  1  0  0  0  0
  4 29  1  0  0  0  0
  4 30  1  0  0  0  0
  5  6  1  0  0  0  0
  5 31  1  0  0  0  0
  5 32  1  0  0  0  0
  6  7  1  0  0  0  0
  6 33  1  0  0  0  0
  6 34  1  0  0  0  0
  7  8  1  0  0  0  0
  7 35  1  0  0  0  0
  7 36  1  0  0  0  0
  8  9  1  0  0  0  0
  8 11  1  0  0  0  0
  8 37  1  0  0  0  0
  9 10  1  0  0  0  0
  9 38  1  0  0  0  0
  9 39  1  0  0  0  0
 10 11  1  0  0  0  0
 10 40  1  0  0  0  0
 10 41  1  0  0  0  0
 11 12  1  0  0  0  0
 11 42  1  0  0  0  0
 12 13  1  0  0  0  0
 12 25  2  3  0  0  0
 13 14  1  0  0  0  0
 13 43  1  0  0  0  0
 13 44  1  0  0  0  0
 14 15  1  0  0  0  0
 14 45  1  0  0  0  0
 14 46  1  0  0  0  0
 15 16  1  0  0  0  0
 15 47  1  0  0  0  0
 15 48  1  0  0  0  0
 16 17  1  0  0  0  0
 16 49  1  0  0  0  0
 16 50  1  0  0  0  0
 17 18  1  0  0  0  0
 17 51  1  0  0  0  0
 17 52  1  0  0  0  0
 18 53  1  0  0  0  0
 18 54  1  0  0  0  0
 18 55  1  0  0  0  0
 19 20  2  3  0  0  0
 20 21  1  0  0  0  0
 20 25  1  0  0  0  0
 21 22  2  0  0  0  0
 21 56  1  0  0  0  0
 22 23  1  0  0  0  0
 22 57  1  0  0  0  0
 23 24  2  0  0  0  0
 23 58  1  0  0  0  0
 24 25  1  0  0  0  0
 24 59  1  0  0  0  0
M  END
$$$$
