
 OpenBabel04232217023D

240239  0  0  0  0  0  0  0  0999 V2000
    0.8784   -0.0905   -0.1304 O   0  0  0  0  0  0  0  0  0  0  0  0
    2.3263   -0.0968   -0.0475 N   0  0  0  0  0  0  0  0  0  0  0  0
    2.7772    0.7001   -1.1890 C   0  0  0  0  0  0  0  0  0  0  0  0
    4.3019    0.7103   -1.2241 C   0  0  0  0  0  0  0  0  0  0  0  0
    4.7924    1.5213   -2.4095 C   0  0  0  0  0  0  0  0  0  0  0  0
    6.2175    1.5175   -2.4168 O   0  0  0  0  0  0  0  0  0  0  0  0
    6.6984    2.2744   -3.5217 C   0  0  0  0  0  0  0  0  0  0  0  0
    8.2142    2.2655   -3.5121 C   0  0  0  0  0  0  0  0  0  0  0  0
    8.7382    3.0702   -4.6907 C   0  0  0  0  0  0  0  0  0  0  0  0
   10.2566    3.0737   -4.7023 C   0  0  0  0  0  0  0  0  0  0  0  0
   10.7665    3.8812   -5.8831 C   0  0  0  0  0  0  0  0  0  0  0  0
   12.2850    3.8847   -5.8909 C   0  0  0  0  0  0  0  0  0  0  0  0
   12.7958    4.6901   -7.0710 C   0  0  0  0  0  0  0  0  0  0  0  0
   14.3129    4.6930   -7.0754 C   0  0  0  0  0  0  0  0  0  0  0  0
   14.8234    5.4983   -8.2552 C   0  0  0  0  0  0  0  0  0  0  0  0
   16.3401    5.5027   -8.2582 C   0  0  0  0  0  0  0  0  0  0  0  0
   16.8503    6.3094   -9.4369 C   0  0  0  0  0  0  0  0  0  0  0  0
   18.3670    6.3122   -9.4408 C   0  0  0  0  0  0  0  0  0  0  0  0
   18.8771    7.1177  -10.6204 C   0  0  0  0  0  0  0  0  0  0  0  0
   20.3937    7.1220  -10.6232 C   0  0  0  0  0  0  0  0  0  0  0  0
   20.9038    7.9286  -11.8019 C   0  0  0  0  0  0  0  0  0  0  0  0
   22.4204    7.9346  -11.8037 C   0  0  0  0  0  0  0  0  0  0  0  0
   22.9305    8.7399  -12.9833 C   0  0  0  0  0  0  0  0  0  0  0  0
   24.4471    8.7444  -12.9860 C   0  0  0  0  0  0  0  0  0  0  0  0
   24.9571    9.5495  -14.1658 C   0  0  0  0  0  0  0  0  0  0  0  0
   26.4737    9.5522  -14.1698 C   0  0  0  0  0  0  0  0  0  0  0  0
   26.9838   10.3573  -15.3496 C   0  0  0  0  0  0  0  0  0  0  0  0
   28.5004   10.3599  -15.3535 C   0  0  0  0  0  0  0  0  0  0  0  0
   29.0105   11.1651  -16.5332 C   0  0  0  0  0  0  0  0  0  0  0  0
   30.5271   11.1678  -16.5371 C   0  0  0  0  0  0  0  0  0  0  0  0
   31.0372   11.9729  -17.7169 C   0  0  0  0  0  0  0  0  0  0  0  0
   32.5538   11.9755  -17.7209 C   0  0  0  0  0  0  0  0  0  0  0  0
   33.0638   12.7809  -18.9005 C   0  0  0  0  0  0  0  0  0  0  0  0
   34.5804   12.7821  -18.9055 C   0  0  0  0  0  0  0  0  0  0  0  0
   35.0904   13.5872  -20.0853 C   0  0  0  0  0  0  0  0  0  0  0  0
   36.6070   13.5896  -20.0895 C   0  0  0  0  0  0  0  0  0  0  0  0
   37.1171   14.3930  -21.2704 C   0  0  0  0  0  0  0  0  0  0  0  0
   38.6337   14.3942  -21.2753 C   0  0  0  0  0  0  0  0  0  0  0  0
   39.1437   15.1962  -22.4572 C   0  0  0  0  0  0  0  0  0  0  0  0
   40.6604   15.1987  -22.4612 C   0  0  0  0  0  0  0  0  0  0  0  0
   41.1704   16.0020  -23.6422 C   0  0  0  0  0  0  0  0  0  0  0  0
   42.6871   16.0046  -23.6461 C   0  0  0  0  0  0  0  0  0  0  0  0
   43.1971   16.8082  -24.8269 C   0  0  0  0  0  0  0  0  0  0  0  0
   44.7137   16.8109  -24.8308 C   0  0  0  0  0  0  0  0  0  0  0  0
   45.2238   17.6144  -26.0117 C   0  0  0  0  0  0  0  0  0  0  0  0
   46.7404   17.6170  -26.0157 C   0  0  0  0  0  0  0  0  0  0  0  0
   47.2504   18.4205  -27.1966 C   0  0  0  0  0  0  0  0  0  0  0  0
   48.7671   18.4232  -27.2005 C   0  0  0  0  0  0  0  0  0  0  0  0
   49.2771   19.2268  -28.3813 C   0  0  0  0  0  0  0  0  0  0  0  0
   50.7937   19.2310  -28.3843 C   0  0  0  0  0  0  0  0  0  0  0  0
   51.3037   20.0344  -29.5653 C   0  0  0  0  0  0  0  0  0  0  0  0
   52.8204   20.0403  -29.5670 C   0  0  0  0  0  0  0  0  0  0  0  0
   53.3304   20.8424  -30.7489 C   0  0  0  0  0  0  0  0  0  0  0  0
   54.8470   20.8502  -30.7492 C   0  0  0  0  0  0  0  0  0  0  0  0
   55.3570   21.6536  -31.9301 C   0  0  0  0  0  0  0  0  0  0  0  0
   56.8736   21.6630  -31.9296 C   0  0  0  0  0  0  0  0  0  0  0  0
   57.3836   22.4681  -33.1093 C   0  0  0  0  0  0  0  0  0  0  0  0
   58.9003   22.4759  -33.1098 C   0  0  0  0  0  0  0  0  0  0  0  0
   59.4103   23.2812  -34.2895 C   0  0  0  0  0  0  0  0  0  0  0  0
   60.9269   23.2872  -34.2912 C   0  0  0  0  0  0  0  0  0  0  0  0
   61.4369   24.0924  -35.4709 C   0  0  0  0  0  0  0  0  0  0  0  0
   62.9536   24.0983  -35.4726 C   0  0  0  0  0  0  0  0  0  0  0  0
   63.4636   24.9035  -36.6524 C   0  0  0  0  0  0  0  0  0  0  0  0
   64.9802   24.9095  -36.6540 C   0  0  0  0  0  0  0  0  0  0  0  0
   65.4903   25.7147  -37.8337 C   0  0  0  0  0  0  0  0  0  0  0  0
   67.0069   25.7207  -37.8354 C   0  0  0  0  0  0  0  0  0  0  0  0
   67.5169   26.5259  -39.0151 C   0  0  0  0  0  0  0  0  0  0  0  0
   69.0335   26.5319  -39.0169 C   0  0  0  0  0  0  0  0  0  0  0  0
   69.5427   27.3367  -40.1962 C   0  0  0  0  0  0  0  0  0  0  0  0
   71.0596   27.3414  -40.1994 C   0  0  0  0  0  0  0  0  0  0  0  0
   71.5698   28.1466  -41.3790 C   0  0  0  0  0  0  0  0  0  0  0  0
   73.0852   28.1505  -41.3826 C   0  0  0  0  0  0  0  0  0  0  0  0
   73.5957   28.9556  -42.5613 C   0  0  0  0  0  0  0  0  0  0  0  0
   75.1135   28.9605  -42.5647 C   0  0  0  0  0  0  0  0  0  0  0  0
   75.6288   29.7663  -43.7455 C   0  0  0  0  0  0  0  0  0  0  0  0
   77.1412   29.7715  -43.7461 C   0  0  0  0  0  0  0  0  0  0  0  0
   77.6560   30.5778  -44.9270 C   0  0  0  0  0  0  0  0  0  0  0  0
   79.1753   30.5840  -44.9292 C   0  0  0  0  0  0  0  0  0  0  0  0
   79.6902   31.3900  -46.1064 C   0  0  0  0  0  0  0  0  0  0  0  0
   81.2084   31.4075  -46.1282 C   0  0  0  0  0  0  0  0  0  0  0  0
   81.7193   32.2125  -47.3043 C   0  0  0  0  0  0  0  0  0  0  0  0
    0.6593   -0.4545    0.7468 H   0  0  0  0  0  0  0  0  0  0  0  0
    2.5256   -1.0770   -0.2462 H   0  0  0  0  0  0  0  0  0  0  0  0
    2.4015    1.7258   -1.1053 H   0  0  0  0  0  0  0  0  0  0  0  0
    2.3882    0.2735   -2.1226 H   0  0  0  0  0  0  0  0  0  0  0  0
    4.6994   -0.3106   -1.2910 H   0  0  0  0  0  0  0  0  0  0  0  0
    4.7079    1.1342   -0.2973 H   0  0  0  0  0  0  0  0  0  0  0  0
    4.4333    2.5542   -2.3356 H   0  0  0  0  0  0  0  0  0  0  0  0
    4.4268    1.0822   -3.3444 H   0  0  0  0  0  0  0  0  0  0  0  0
    6.3317    3.3047   -3.4468 H   0  0  0  0  0  0  0  0  0  0  0  0
    6.3293    1.8323   -4.4547 H   0  0  0  0  0  0  0  0  0  0  0  0
    8.5828    1.2333   -3.5562 H   0  0  0  0  0  0  0  0  0  0  0  0
    8.5850    2.6813   -2.5670 H   0  0  0  0  0  0  0  0  0  0  0  0
    8.3665    4.1013   -4.6336 H   0  0  0  0  0  0  0  0  0  0  0  0
    8.3622    2.6449   -5.6299 H   0  0  0  0  0  0  0  0  0  0  0  0
   10.6312    2.0451   -4.7662 H   0  0  0  0  0  0  0  0  0  0  0  0
   10.6358    3.5018   -3.7669 H   0  0  0  0  0  0  0  0  0  0  0  0
   10.3929    4.9119   -5.8230 H   0  0  0  0  0  0  0  0  0  0  0  0
   10.3905    3.4551   -6.8208 H   0  0  0  0  0  0  0  0  0  0  0  0
   12.6602    2.8556   -5.9510 H   0  0  0  0  0  0  0  0  0  0  0  0
   12.6624    4.3138   -4.9546 H   0  0  0  0  0  0  0  0  0  0  0  0
   12.4204    5.7192   -7.0123 H   0  0  0  0  0  0  0  0  0  0  0  0
   12.4203    4.2605   -8.0079 H   0  0  0  0  0  0  0  0  0  0  0  0
   14.6890    3.6642   -7.1344 H   0  0  0  0  0  0  0  0  0  0  0  0
   14.6889    5.1229   -6.1388 H   0  0  0  0  0  0  0  0  0  0  0  0
   14.4467    6.5270   -8.1971 H   0  0  0  0  0  0  0  0  0  0  0  0
   14.4489    5.0678   -9.1921 H   0  0  0  0  0  0  0  0  0  0  0  0
   16.7171    4.4742   -8.3177 H   0  0  0  0  0  0  0  0  0  0  0  0
   16.7150    5.9322   -7.3209 H   0  0  0  0  0  0  0  0  0  0  0  0
   16.4746    7.3383   -9.3766 H   0  0  0  0  0  0  0  0  0  0  0  0
   16.4746    5.8809  -10.3742 H   0  0  0  0  0  0  0  0  0  0  0  0
   18.7429    5.2834   -9.4999 H   0  0  0  0  0  0  0  0  0  0  0  0
   18.7426    6.7419   -8.5040 H   0  0  0  0  0  0  0  0  0  0  0  0
   18.5001    8.1462  -10.5621 H   0  0  0  0  0  0  0  0  0  0  0  0
   18.5025    6.6871  -11.5573 H   0  0  0  0  0  0  0  0  0  0  0  0
   20.7706    6.0935  -10.6826 H   0  0  0  0  0  0  0  0  0  0  0  0
   20.7683    7.5515   -9.6858 H   0  0  0  0  0  0  0  0  0  0  0  0
   20.5258    8.9568  -11.7434 H   0  0  0  0  0  0  0  0  0  0  0  0
   20.5302    7.4982  -12.7393 H   0  0  0  0  0  0  0  0  0  0  0  0
   22.7985    6.9064  -11.8611 H   0  0  0  0  0  0  0  0  0  0  0  0
   22.7938    8.3661  -10.8668 H   0  0  0  0  0  0  0  0  0  0  0  0
   22.5534    9.7684  -12.9253 H   0  0  0  0  0  0  0  0  0  0  0  0
   22.5561    8.3091  -13.9202 H   0  0  0  0  0  0  0  0  0  0  0  0
   24.8240    7.7158  -13.0442 H   0  0  0  0  0  0  0  0  0  0  0  0
   24.8217    9.1750  -12.0492 H   0  0  0  0  0  0  0  0  0  0  0  0
   24.5813   10.5785  -14.1070 H   0  0  0  0  0  0  0  0  0  0  0  0
   24.5814    9.1196  -15.1025 H   0  0  0  0  0  0  0  0  0  0  0  0
   26.8494    8.5232  -14.2288 H   0  0  0  0  0  0  0  0  0  0  0  0
   26.8495    9.9819  -13.2331 H   0  0  0  0  0  0  0  0  0  0  0  0
   26.6080   11.3863  -15.2907 H   0  0  0  0  0  0  0  0  0  0  0  0
   26.6080    9.9275  -16.2863 H   0  0  0  0  0  0  0  0  0  0  0  0
   28.8761    9.3310  -15.4124 H   0  0  0  0  0  0  0  0  0  0  0  0
   28.8762   10.7897  -14.4168 H   0  0  0  0  0  0  0  0  0  0  0  0
   28.6347   12.1940  -16.4744 H   0  0  0  0  0  0  0  0  0  0  0  0
   28.6348   10.7352  -17.4699 H   0  0  0  0  0  0  0  0  0  0  0  0
   30.9029   10.1388  -16.5960 H   0  0  0  0  0  0  0  0  0  0  0  0
   30.9029   11.5976  -15.6004 H   0  0  0  0  0  0  0  0  0  0  0  0
   30.6614   13.0019  -17.6580 H   0  0  0  0  0  0  0  0  0  0  0  0
   30.6613   11.5431  -18.6536 H   0  0  0  0  0  0  0  0  0  0  0  0
   32.9294   10.9466  -17.7799 H   0  0  0  0  0  0  0  0  0  0  0  0
   32.9297   12.4052  -16.7841 H   0  0  0  0  0  0  0  0  0  0  0  0
   32.6891   13.8101  -18.8408 H   0  0  0  0  0  0  0  0  0  0  0  0
   32.6871   12.3519  -19.8372 H   0  0  0  0  0  0  0  0  0  0  0  0
   34.9551   11.7528  -18.9652 H   0  0  0  0  0  0  0  0  0  0  0  0
   34.9573   13.2109  -17.9688 H   0  0  0  0  0  0  0  0  0  0  0  0
   34.7149   14.6162  -20.0265 H   0  0  0  0  0  0  0  0  0  0  0  0
   34.7144   13.1573  -21.0219 H   0  0  0  0  0  0  0  0  0  0  0  0
   36.9826   12.5604  -20.1469 H   0  0  0  0  0  0  0  0  0  0  0  0
   36.9830   14.0206  -19.1534 H   0  0  0  0  0  0  0  0  0  0  0  0
   36.7423   15.4223  -21.2123 H   0  0  0  0  0  0  0  0  0  0  0  0
   36.7403   13.9625  -22.2064 H   0  0  0  0  0  0  0  0  0  0  0  0
   39.0085   13.3648  -21.3321 H   0  0  0  0  0  0  0  0  0  0  0  0
   39.0103   14.8258  -20.3397 H   0  0  0  0  0  0  0  0  0  0  0  0
   38.7680   16.2253  -22.4012 H   0  0  0  0  0  0  0  0  0  0  0  0
   38.7680   14.7637  -23.3927 H   0  0  0  0  0  0  0  0  0  0  0  0
   41.0360   14.1696  -22.5185 H   0  0  0  0  0  0  0  0  0  0  0  0
   41.0363   15.6300  -21.5252 H   0  0  0  0  0  0  0  0  0  0  0  0
   40.7947   17.0311  -23.5849 H   0  0  0  0  0  0  0  0  0  0  0  0
   40.7946   15.5708  -24.5783 H   0  0  0  0  0  0  0  0  0  0  0  0
   43.0629   14.9756  -23.7035 H   0  0  0  0  0  0  0  0  0  0  0  0
   43.0628   16.4358  -22.7100 H   0  0  0  0  0  0  0  0  0  0  0  0
   42.8213   17.8372  -24.7694 H   0  0  0  0  0  0  0  0  0  0  0  0
   42.8214   16.3771  -25.7631 H   0  0  0  0  0  0  0  0  0  0  0  0
   45.0895   15.7819  -24.8883 H   0  0  0  0  0  0  0  0  0  0  0  0
   45.0895   17.2421  -23.8947 H   0  0  0  0  0  0  0  0  0  0  0  0
   44.8481   18.6435  -25.9543 H   0  0  0  0  0  0  0  0  0  0  0  0
   44.8480   17.1833  -26.9478 H   0  0  0  0  0  0  0  0  0  0  0  0
   47.1162   16.5880  -26.0731 H   0  0  0  0  0  0  0  0  0  0  0  0
   47.1162   18.0482  -25.0796 H   0  0  0  0  0  0  0  0  0  0  0  0
   46.8747   19.4496  -27.1391 H   0  0  0  0  0  0  0  0  0  0  0  0
   46.8747   17.9895  -28.1327 H   0  0  0  0  0  0  0  0  0  0  0  0
   49.1429   17.3943  -27.2580 H   0  0  0  0  0  0  0  0  0  0  0  0
   49.1428   18.8544  -26.2643 H   0  0  0  0  0  0  0  0  0  0  0  0
   48.9003   20.2555  -28.3245 H   0  0  0  0  0  0  0  0  0  0  0  0
   48.9023   18.7950  -29.3175 H   0  0  0  0  0  0  0  0  0  0  0  0
   51.1706   18.2024  -28.4408 H   0  0  0  0  0  0  0  0  0  0  0  0
   51.1684   19.6631  -27.4481 H   0  0  0  0  0  0  0  0  0  0  0  0
   50.9258   21.0627  -29.5094 H   0  0  0  0  0  0  0  0  0  0  0  0
   50.9302   19.6015  -30.5015 H   0  0  0  0  0  0  0  0  0  0  0  0
   53.1986   19.0121  -29.6213 H   0  0  0  0  0  0  0  0  0  0  0  0
   53.1936   20.4746  -28.6312 H   0  0  0  0  0  0  0  0  0  0  0  0
   52.9510   21.8702  -30.6951 H   0  0  0  0  0  0  0  0  0  0  0  0
   52.9583   20.4074  -31.6846 H   0  0  0  0  0  0  0  0  0  0  0  0
   55.2264   19.8224  -30.8041 H   0  0  0  0  0  0  0  0  0  0  0  0
   55.2190   21.2841  -29.8129 H   0  0  0  0  0  0  0  0  0  0  0  0
   54.9766   22.6811  -31.8758 H   0  0  0  0  0  0  0  0  0  0  0  0
   54.9859   21.2190  -32.8665 H   0  0  0  0  0  0  0  0  0  0  0  0
   57.2540   20.6356  -31.9853 H   0  0  0  0  0  0  0  0  0  0  0  0
   57.2448   22.0963  -30.9927 H   0  0  0  0  0  0  0  0  0  0  0  0
   57.0043   23.4959  -33.0528 H   0  0  0  0  0  0  0  0  0  0  0  0
   57.0114   22.0358  -34.0463 H   0  0  0  0  0  0  0  0  0  0  0  0
   59.2795   21.4481  -33.1665 H   0  0  0  0  0  0  0  0  0  0  0  0
   59.2725   22.9082  -32.1729 H   0  0  0  0  0  0  0  0  0  0  0  0
   59.0321   24.3093  -34.2321 H   0  0  0  0  0  0  0  0  0  0  0  0
   59.0369   22.8497  -35.2264 H   0  0  0  0  0  0  0  0  0  0  0  0
   61.3050   22.2590  -34.3486 H   0  0  0  0  0  0  0  0  0  0  0  0
   61.3003   23.7187  -33.3543 H   0  0  0  0  0  0  0  0  0  0  0  0
   61.0588   25.1205  -35.4136 H   0  0  0  0  0  0  0  0  0  0  0  0
   61.0635   23.6608  -36.4078 H   0  0  0  0  0  0  0  0  0  0  0  0
   63.3316   23.0701  -35.5300 H   0  0  0  0  0  0  0  0  0  0  0  0
   63.3270   24.5298  -34.5358 H   0  0  0  0  0  0  0  0  0  0  0  0
   63.0855   25.9316  -36.5950 H   0  0  0  0  0  0  0  0  0  0  0  0
   63.0902   24.4719  -37.5892 H   0  0  0  0  0  0  0  0  0  0  0  0
   65.3583   23.8813  -36.7114 H   0  0  0  0  0  0  0  0  0  0  0  0
   65.3536   25.3410  -35.7171 H   0  0  0  0  0  0  0  0  0  0  0  0
   65.1121   26.7428  -37.7764 H   0  0  0  0  0  0  0  0  0  0  0  0
   65.1169   25.2831  -38.7706 H   0  0  0  0  0  0  0  0  0  0  0  0
   67.3850   24.6925  -37.8927 H   0  0  0  0  0  0  0  0  0  0  0  0
   67.3803   26.1522  -36.8985 H   0  0  0  0  0  0  0  0  0  0  0  0
   67.1388   27.5540  -38.9578 H   0  0  0  0  0  0  0  0  0  0  0  0
   67.1435   26.0943  -39.9520 H   0  0  0  0  0  0  0  0  0  0  0  0
   69.4116   25.5037  -39.0742 H   0  0  0  0  0  0  0  0  0  0  0  0
   69.4070   26.9634  -38.0800 H   0  0  0  0  0  0  0  0  0  0  0  0
   69.1666   28.3656  -40.1385 H   0  0  0  0  0  0  0  0  0  0  0  0
   69.1691   26.9063  -41.1334 H   0  0  0  0  0  0  0  0  0  0  0  0
   71.4380   26.3125  -40.2561 H   0  0  0  0  0  0  0  0  0  0  0  0
   71.4363   27.7696  -39.2607 H   0  0  0  0  0  0  0  0  0  0  0  0
   71.1930   29.1752  -41.3211 H   0  0  0  0  0  0  0  0  0  0  0  0
   71.1953   27.7160  -42.3160 H   0  0  0  0  0  0  0  0  0  0  0  0
   73.4631   27.1226  -41.4397 H   0  0  0  0  0  0  0  0  0  0  0  0
   73.4609   28.5811  -40.4449 H   0  0  0  0  0  0  0  0  0  0  0  0
   73.2200   29.9847  -42.5036 H   0  0  0  0  0  0  0  0  0  0  0  0
   73.2221   28.5259  -43.4987 H   0  0  0  0  0  0  0  0  0  0  0  0
   75.4907   27.9322  -42.6227 H   0  0  0  0  0  0  0  0  0  0  0  0
   75.4880   29.3910  -41.6282 H   0  0  0  0  0  0  0  0  0  0  0  0
   75.2458   30.7944  -43.6875 H   0  0  0  0  0  0  0  0  0  0  0  0
   75.2504   29.3344  -44.6819 H   0  0  0  0  0  0  0  0  0  0  0  0
   77.5189   28.7434  -43.8031 H   0  0  0  0  0  0  0  0  0  0  0  0
   77.5142   30.2028  -42.8089 H   0  0  0  0  0  0  0  0  0  0  0  0
   77.2774   31.6050  -44.8687 H   0  0  0  0  0  0  0  0  0  0  0  0
   77.2822   30.1458  -45.8627 H   0  0  0  0  0  0  0  0  0  0  0  0
   79.5516   29.5551  -44.9864 H   0  0  0  0  0  0  0  0  0  0  0  0
   79.5471   31.0133  -43.9903 H   0  0  0  0  0  0  0  0  0  0  0  0
   79.3080   32.4193  -46.0477 H   0  0  0  0  0  0  0  0  0  0  0  0
   79.3107   30.9612  -47.0452 H   0  0  0  0  0  0  0  0  0  0  0  0
   81.5951   30.3795  -46.1902 H   0  0  0  0  0  0  0  0  0  0  0  0
   81.5928   31.8389  -45.1919 H   0  0  0  0  0  0  0  0  0  0  0  0
   81.3635   31.7829  -48.2503 H   0  0  0  0  0  0  0  0  0  0  0  0
   82.8066   32.2242  -47.3189 H   0  0  0  0  0  0  0  0  0  0  0  0
   81.3611   33.2491  -47.2477 H   0  0  0  0  0  0  0  0  0  0  0  0
  1  2  1  0  0  0  0
  1 82  1  0  0  0  0
  2  3  1  0  0  0  0
  2 83  1  0  0  0  0
  3  4  1  0  0  0  0
  3 84  1  0  0  0  0
  3 85  1  0  0  0  0
  4  5  1  0  0  0  0
  4 86  1  0  0  0  0
  4 87  1  0  0  0  0
  5  6  1  0  0  0  0
  5 88  1  0  0  0  0
  5 89  1  0  0  0  0
  6  7  1  0  0  0  0
  7  8  1  0  0  0  0
  7 90  1  0  0  0  0
  7 91  1  0  0  0  0
  8  9  1  0  0  0  0
  8 92  1  0  0  0  0
  8 93  1  0  0  0  0
  9 10  1  0  0  0  0
  9 94  1  0  0  0  0
  9 95  1  0  0  0  0
 10 11  1  0  0  0  0
 10 96  1  0  0  0  0
 10 97  1  0  0  0  0
 11 12  1  0  0  0  0
 11 98  1  0  0  0  0
 11 99  1  0  0  0  0
 12 13  1  0  0  0  0
 12100  1  0  0  0  0
 12101  1  0  0  0  0
 13 14  1  0  0  0  0
 13102  1  0  0  0  0
 13103  1  0  0  0  0
 14 15  1  0  0  0  0
 14104  1  0  0  0  0
 14105  1  0  0  0  0
 15 16  1  0  0  0  0
 15106  1  0  0  0  0
 15107  1  0  0  0  0
 16 17  1  0  0  0  0
 16108  1  0  0  0  0
 16109  1  0  0  0  0
 17 18  1  0  0  0  0
 17110  1  0  0  0  0
 17111  1  0  0  0  0
 18 19  1  0  0  0  0
 18112  1  0  0  0  0
 18113  1  0  0  0  0
 19 20  1  0  0  0  0
 19114  1  0  0  0  0
 19115  1  0  0  0  0
 20 21  1  0  0  0  0
 20116  1  0  0  0  0
 20117  1  0  0  0  0
 21 22  1  0  0  0  0
 21118  1  0  0  0  0
 21119  1  0  0  0  0
 22 23  1  0  0  0  0
 22120  1  0  0  0  0
 22121  1  0  0  0  0
 23 24  1  0  0  0  0
 23122  1  0  0  0  0
 23123  1  0  0  0  0
 24 25  1  0  0  0  0
 24124  1  0  0  0  0
 24125  1  0  0  0  0
 25 26  1  0  0  0  0
 25126  1  0  0  0  0
 25127  1  0  0  0  0
 26 27  1  0  0  0  0
 26128  1  0  0  0  0
 26129  1  0  0  0  0
 27 28  1  0  0  0  0
 27130  1  0  0  0  0
 27131  1  0  0  0  0
 28 29  1  0  0  0  0
 28132  1  0  0  0  0
 28133  1  0  0  0  0
 29 30  1  0  0  0  0
 29134  1  0  0  0  0
 29135  1  0  0  0  0
 30 31  1  0  0  0  0
 30136  1  0  0  0  0
 30137  1  0  0  0  0
 31 32  1  0  0  0  0
 31138  1  0  0  0  0
 31139  1  0  0  0  0
 32 33  1  0  0  0  0
 32140  1  0  0  0  0
 32141  1  0  0  0  0
 33 34  1  0  0  0  0
 33142  1  0  0  0  0
 33143  1  0  0  0  0
 34 35  1  0  0  0  0
 34144  1  0  0  0  0
 34145  1  0  0  0  0
 35 36  1  0  0  0  0
 35146  1  0  0  0  0
 35147  1  0  0  0  0
 36 37  1  0  0  0  0
 36148  1  0  0  0  0
 36149  1  0  0  0  0
 37 38  1  0  0  0  0
 37150  1  0  0  0  0
 37151  1  0  0  0  0
 38 39  1  0  0  0  0
 38152  1  0  0  0  0
 38153  1  0  0  0  0
 39 40  1  0  0  0  0
 39154  1  0  0  0  0
 39155  1  0  0  0  0
 40 41  1  0  0  0  0
 40156  1  0  0  0  0
 40157  1  0  0  0  0
 41 42  1  0  0  0  0
 41158  1  0  0  0  0
 41159  1  0  0  0  0
 42 43  1  0  0  0  0
 42160  1  0  0  0  0
 42161  1  0  0  0  0
 43 44  1  0  0  0  0
 43162  1  0  0  0  0
 43163  1  0  0  0  0
 44 45  1  0  0  0  0
 44164  1  0  0  0  0
 44165  1  0  0  0  0
 45 46  1  0  0  0  0
 45166  1  0  0  0  0
 45167  1  0  0  0  0
 46 47  1  0  0  0  0
 46168  1  0  0  0  0
 46169  1  0  0  0  0
 47 48  1  0  0  0  0
 47170  1  0  0  0  0
 47171  1  0  0  0  0
 48 49  1  0  0  0  0
 48172  1  0  0  0  0
 48173  1  0  0  0  0
 49 50  1  0  0  0  0
 49174  1  0  0  0  0
 49175  1  0  0  0  0
 50 51  1  0  0  0  0
 50176  1  0  0  0  0
 50177  1  0  0  0  0
 51 52  1  0  0  0  0
 51178  1  0  0  0  0
 51179  1  0  0  0  0
 52 53  1  0  0  0  0
 52180  1  0  0  0  0
 52181  1  0  0  0  0
 53 54  1  0  0  0  0
 53182  1  0  0  0  0
 53183  1  0  0  0  0
 54 55  1  0  0  0  0
 54184  1  0  0  0  0
 54185  1  0  0  0  0
 55 56  1  0  0  0  0
 55186  1  0  0  0  0
 55187  1  0  0  0  0
 56 57  1  0  0  0  0
 56188  1  0  0  0  0
 56189  1  0  0  0  0
 57 58  1  0  0  0  0
 57190  1  0  0  0  0
 57191  1  0  0  0  0
 58 59  1  0  0  0  0
 58192  1  0  0  0  0
 58193  1  0  0  0  0
 59 60  1  0  0  0  0
 59194  1  0  0  0  0
 59195  1  0  0  0  0
 60 61  1  0  0  0  0
 60196  1  0  0  0  0
 60197  1  0  0  0  0
 61 62  1  0  0  0  0
 61198  1  0  0  0  0
 61199  1  0  0  0  0
 62 63  1  0  0  0  0
 62200  1  0  0  0  0
 62201  1  0  0  0  0
 63 64  1  0  0  0  0
 63202  1  0  0  0  0
 63203  1  0  0  0  0
 64 65  1  0  0  0  0
 64204  1  0  0  0  0
 64205  1  0  0  0  0
 65 66  1  0  0  0  0
 65206  1  0  0  0  0
 65207  1  0  0  0  0
 66 67  1  0  0  0  0
 66208  1  0  0  0  0
 66209  1  0  0  0  0
 67 68  1  0  0  0  0
 67210  1  0  0  0  0
 67211  1  0  0  0  0
 68 69  1  0  0  0  0
 68212  1  0  0  0  0
 68213  1  0  0  0  0
 69 70  1  0  0  0  0
 69214  1  0  0  0  0
 69215  1  0  0  0  0
 70 71  1  0  0  0  0
 70216  1  0  0  0  0
 70217  1  0  0  0  0
 71 72  1  0  0  0  0
 71218  1  0  0  0  0
 71219  1  0  0  0  0
 72 73  1  0  0  0  0
 72220  1  0  0  0  0
 72221  1  0  0  0  0
 73 74  1  0  0  0  0
 73222  1  0  0  0  0
 73223  1  0  0  0  0
 74 75  1  0  0  0  0
 74224  1  0  0  0  0
 74225  1  0  0  0  0
 75 76  1  0  0  0  0
 75226  1  0  0  0  0
 75227  1  0  0  0  0
 76 77  1  0  0  0  0
 76228  1  0  0  0  0
 76229  1  0  0  0  0
 77 78  1  0  0  0  0
 77230  1  0  0  0  0
 77231  1  0  0  0  0
 78 79  1  0  0  0  0
 78232  1  0  0  0  0
 78233  1  0  0  0  0
 79 80  1  0  0  0  0
 79234  1  0  0  0  0
 79235  1  0  0  0  0
 80 81  1  0  0  0  0
 80236  1  0  0  0  0
 80237  1  0  0  0  0
 81238  1  0  0  0  0
 81239  1  0  0  0  0
 81240  1  0  0  0  0
M  END
$$$$
