
 OpenBabel04232216483D

 70 71  0  0  1  0  0  0  0  0999 V2000
    0.6788    3.6611   -0.2900 C   0  0  0  0  0  0  0  0  0  0  0  0
    1.8621    4.6225    0.1511 C   0  0  0  0  0  0  0  0  0  0  0  0
    2.9479    3.5188   -0.0282 C   0  0  0  0  0  0  0  0  0  0  0  0
    4.0584    2.7448   -0.0099 C   0  0  0  0  0  0  0  0  0  0  0  0
    5.0885    2.6309    1.0216 C   0  0  0  0  0  0  0  0  0  0  0  0
    4.7636    3.4728    2.2616 C   0  0  0  0  0  0  0  0  0  0  0  0
    3.6490    2.9900    3.0088 O   0  0  0  0  0  0  0  0  0  0  0  0
    2.6863    4.0090    3.3117 C   0  0  0  0  0  0  0  0  0  0  0  0
    1.2988    3.3951    3.2256 C   0  0  0  0  0  0  0  0  0  0  0  0
    0.1512    4.3555    3.0628 C   0  0  0  0  0  0  0  0  0  0  0  0
   -1.1717    3.6983    2.6677 C   0  0  0  0  0  0  0  0  0  0  0  0
   -2.2046    4.7590    2.4880 C   0  0  0  0  0  0  0  0  0  0  0  0
   -3.6152    4.3048    2.7158 C   0  0  0  0  0  0  0  0  0  0  0  0
   -4.2688    5.5262    3.2814 C   0  0  0  0  0  0  0  0  0  0  0  0
   -4.2230    6.5763    2.1745 C   0  0  0  0  0  0  0  0  0  0  0  0
   -2.8091    7.6224    1.9069 C   0  0  3  0  0  0  0  0  0  0  0  0
   -3.9316    8.8691    1.6475 C   0  0  0  0  0  0  0  0  0  0  0  0
   -3.7039   10.3494    1.7180 C   0  0  0  0  0  0  0  0  0  0  0  0
   -1.2217    7.0834    0.9708 C   0  0  0  0  0  0  0  0  0  0  0  0
    0.2595    6.8530    1.2033 C   0  0  0  0  0  0  0  0  0  0  0  0
    6.2342    2.0351    0.7460 C   0  0  0  0  0  0  0  0  0  0  0  0
    7.3909    2.7411    1.3336 C   0  0  0  0  0  0  0  0  0  0  0  0
    8.6986    2.7145    1.4660 C   0  0  0  0  0  0  0  0  0  0  0  0
    9.1109    4.0208    2.0903 C   0  0  0  0  0  0  0  0  0  0  0  0
    8.8292    5.1245    1.3449 C   0  0  0  0  0  0  0  0  0  0  0  0
    7.8085    6.2044    1.6147 C   0  0  0  0  0  0  0  0  0  0  0  0
    6.5014    6.6469    1.5378 C   0  0  0  0  0  0  0  0  0  0  0  0
    4.8398    6.3484    1.1684 C   0  0  0  0  0  0  0  0  0  0  0  0
    3.4014    6.6195    1.1853 C   0  0  0  0  0  0  0  0  0  0  0  0
    1.8160    6.0004    0.6145 C   0  0  0  0  0  0  0  0  0  0  0  0
    1.0404    2.7103   -0.7595 H   0  0  0  0  0  0  0  0  0  0  0  0
   -0.0151    4.0222   -1.0349 H   0  0  0  0  0  0  0  0  0  0  0  0
    0.2072    3.2035    0.5668 H   0  0  0  0  0  0  0  0  0  0  0  0
    2.3957    2.7557    0.5880 H   0  0  0  0  0  0  0  0  0  0  0  0
    3.9228    1.7356   -0.4176 H   0  0  0  0  0  0  0  0  0  0  0  0
    4.5139    4.4105    1.8304 H   0  0  0  0  0  0  0  0  0  0  0  0
    5.5871    3.6674    2.9535 H   0  0  0  0  0  0  0  0  0  0  0  0
    2.7534    4.8188    2.5814 H   0  0  0  0  0  0  0  0  0  0  0  0
    2.9136    4.5012    4.2641 H   0  0  0  0  0  0  0  0  0  0  0  0
    1.1243    2.7414    4.0841 H   0  0  0  0  0  0  0  0  0  0  0  0
    1.2891    2.7399    2.3544 H   0  0  0  0  0  0  0  0  0  0  0  0
    0.4020    4.9649    2.2137 H   0  0  0  0  0  0  0  0  0  0  0  0
    0.0521    5.0696    3.8916 H   0  0  0  0  0  0  0  0  0  0  0  0
   -1.4668    2.9406    3.3773 H   0  0  0  0  0  0  0  0  0  0  0  0
   -1.1517    3.2283    1.6884 H   0  0  0  0  0  0  0  0  0  0  0  0
   -2.1853    5.0869    1.4469 H   0  0  0  0  0  0  0  0  0  0  0  0
   -1.9507    5.6016    3.1425 H   0  0  0  0  0  0  0  0  0  0  0  0
   -3.7043    3.4445    3.3701 H   0  0  0  0  0  0  0  0  0  0  0  0
   -4.0935    4.0520    1.7545 H   0  0  0  0  0  0  0  0  0  0  0  0
   -3.7888    5.9056    4.1926 H   0  0  0  0  0  0  0  0  0  0  0  0
   -5.3006    5.2750    3.5790 H   0  0  0  0  0  0  0  0  0  0  0  0
   -5.1002    7.1550    2.5296 H   0  0  0  0  0  0  0  0  0  0  0  0
   -4.6062    6.2038    1.2127 H   0  0  0  0  0  0  0  0  0  0  0  0
   -2.4418    7.8318    2.9188 H   0  0  0  0  0  0  0  0  0  0  0  0
   -4.6465    8.8354    2.5122 H   0  0  0  0  0  0  0  0  0  0  0  0
   -4.6170    8.6223    0.8104 H   0  0  0  0  0  0  0  0  0  0  0  0
   -3.6565   10.7161    2.7462 H   0  0  0  0  0  0  0  0  0  0  0  0
   -4.5487   10.8667    1.2615 H   0  0  0  0  0  0  0  0  0  0  0  0
   -2.7741   10.6167    1.1656 H   0  0  0  0  0  0  0  0  0  0  0  0
   -1.5966    6.7388    0.0035 H   0  0  0  0  0  0  0  0  0  0  0  0
    0.5815    7.2432    2.1812 H   0  0  0  0  0  0  0  0  0  0  0  0
    6.4795    1.3947   -0.0964 H   0  0  0  0  0  0  0  0  0  0  0  0
    6.9765    3.7070    1.6361 H   0  0  0  0  0  0  0  0  0  0  0  0
    9.3774    1.9709    1.1591 H   0  0  0  0  0  0  0  0  0  0  0  0
    8.7195    3.9402    3.1062 H   0  0  0  0  0  0  0  0  0  0  0  0
    9.7769    5.4617    0.9099 H   0  0  0  0  0  0  0  0  0  0  0  0
    8.5164    6.9753    2.0176 H   0  0  0  0  0  0  0  0  0  0  0  0
    6.5392    7.6798    1.9468 H   0  0  0  0  0  0  0  0  0  0  0  0
    4.8759    6.9157    2.1520 H   0  0  0  0  0  0  0  0  0  0  0  0
    3.0782    7.3803    1.9109 H   0  0  0  0  0  0  0  0  0  0  0  0
  1  2  1  0  0  0  0
  1 31  1  0  0  0  0
  1 32  1  0  0  0  0
  1 33  1  0  0  0  0
  2  3  1  0  0  0  0
  2 30  2  0  0  0  0
  3  4  2  0  0  0  0
  3 34  1  0  0  0  0
  4  5  1  0  0  0  0
  4 35  1  0  0  0  0
  5  6  1  0  0  0  0
  5 21  2  0  0  0  0
  6  7  1  0  0  0  0
  6 36  1  0  0  0  0
  6 37  1  0  0  0  0
  7  8  1  0  0  0  0
  8  9  1  0  0  0  0
  8 38  1  0  0  0  0
  8 39  1  0  0  0  0
  9 10  1  0  0  0  0
  9 40  1  0  0  0  0
  9 41  1  0  0  0  0
 10 11  1  0  0  0  0
 10 42  1  0  0  0  0
 10 43  1  0  0  0  0
 11 12  1  0  0  0  0
 11 44  1  0  0  0  0
 11 45  1  0  0  0  0
 12 13  1  0  0  0  0
 12 46  1  0  0  0  0
 12 47  1  0  0  0  0
 13 14  1  0  0  0  0
 13 48  1  0  0  0  0
 13 49  1  0  0  0  0
 14 15  1  0  0  0  0
 14 50  1  0  0  0  0
 14 51  1  0  0  0  0
 15 16  1  0  0  0  0
 15 52  1  0  0  0  0
 15 53  1  0  0  0  0
 16 17  1  0  0  0  0
 16 19  1  0  0  0  0
 16 54  1  0  0  0  0
 17 18  1  0  0  0  0
 17 55  1  0  0  0  0
 17 56  1  0  0  0  0
 18 57  1  0  0  0  0
 18 58  1  0  0  0  0
 18 59  1  0  0  0  0
 19 20  2  3  0  0  0
 19 60  1  0  0  0  0
 20 30  1  0  0  0  0
 20 61  1  0  0  0  0
 21 22  1  0  0  0  0
 21 62  1  0  0  0  0
 22 23  2  0  0  0  0
 22 63  1  0  0  0  0
 23 24  1  0  0  0  0
 23 64  1  0  0  0  0
 24 25  2  0  0  0  0
 24 65  1  0  0  0  0
 25 26  1  0  0  0  0
 25 66  1  0  0  0  0
 26 27  2  0  0  0  0
 26 67  1  0  0  0  0
 27 28  1  0  0  0  0
 27 68  1  0  0  0  0
 28 29  2  0  0  0  0
 28 69  1  0  0  0  0
 29 30  1  0  0  0  0
 29 70  1  0  0  0  0
M  END
$$$$
