
 OpenBabel04232217033D

141140  0  0  0  0  0  0  0  0999 V2000
   56.9278   24.2772    8.6525 S   0  0  0  0  0  0  0  0  0  0  0  0
   56.8261   25.5002    7.5292 O   0  0  0  0  0  0  0  0  0  0  0  0
   57.3371   26.9270    8.2097 S   0  0  0  0  0  0  0  0  0  0  0  0
   56.6996   28.2251    6.7548 S   0  0  0  0  0  0  0  0  0  0  0  0
   54.6818   28.3889    7.0340 S   0  0  0  0  0  0  0  0  0  0  0  0
   54.6989   29.2042    8.4776 N   0  0  0  0  0  0  0  0  0  0  0  0
   53.3832   29.1312    9.0394 N   0  0  0  0  0  0  0  0  0  0  0  0
   53.2876   29.4122   10.4474 N   0  0  0  0  0  0  0  0  0  0  0  0
   54.1093   30.4623   10.9818 N   0  0  0  0  0  0  0  0  0  0  0  0
   53.8020   31.7917   10.5596 N   0  0  0  0  0  0  0  0  0  0  0  0
   52.5209   32.2583   10.9635 N   0  0  0  0  0  0  0  0  0  0  0  0
   52.3341   32.8195   12.2282 N   0  0  0  0  0  0  0  0  0  0  0  0
   52.3449   34.2438   12.3875 N   0  0  0  0  0  0  0  0  0  0  0  0
   51.7706   35.1350   11.3426 N   0  0  0  0  0  0  0  0  0  0  0  0
   50.3291   34.9670   11.0192 N   0  0  0  0  0  0  0  0  0  0  0  0
   49.6305   36.1349    9.9835 S   0  0  0  0  0  0  0  0  0  0  0  0
   50.0276   36.0748    8.3394 N   0  0  0  0  0  0  0  0  0  0  0  0
   48.9041   35.2915    7.3276 S   0  0  0  0  0  0  0  0  0  0  0  0
   49.6072   35.1075    5.7697 N   0  0  0  0  0  0  0  0  0  0  0  0
   49.6647   33.4904    5.2214 S   0  0  0  0  0  0  0  0  0  0  0  0
   51.2094   32.8284    5.2632 N   0  0  0  0  0  0  0  0  0  0  0  0
   51.1977   31.1421    5.5153 S   0  0  0  0  0  0  0  0  0  0  0  0
   51.1824   30.3235    4.0891 N   0  0  0  0  0  0  0  0  0  0  0  0
   50.3119   28.8964    4.1668 S   0  0  0  0  0  0  0  0  0  0  0  0
   48.7657   29.0601    4.7575 N   0  0  0  0  0  0  0  0  0  0  0  0
   47.9871   30.4233    4.2374 S   0  0  0  0  0  0  0  0  0  0  0  0
   46.3544   30.2859    4.4343 N   0  0  0  0  0  0  0  0  0  0  0  0
   45.7848   30.6334    5.9498 S   0  0  0  0  0  0  0  0  0  0  0  0
   46.2291   32.1298    6.4891 N   0  0  0  0  0  0  0  0  0  0  0  0
   45.6505   33.4359    5.6622 S   0  0  0  0  0  0  0  0  0  0  0  0
   44.0469   33.7060    6.0154 N   0  0  0  0  0  0  0  0  0  0  0  0
   43.7030   33.8527    7.6297 S   0  0  0  0  0  0  0  0  0  0  0  0
   44.2585   35.3149    8.1784 N   0  0  0  0  0  0  0  0  0  0  0  0
   43.6700   35.6828    9.6888 S   0  0  0  0  0  0  0  0  0  0  0  0
   44.0359   34.4663   10.7608 N   0  0  0  0  0  0  0  0  0  0  0  0
   45.6727   34.2682   10.9461 S   0  0  0  0  0  0  0  0  0  0  0  0
   45.9324   32.8953   11.8092 N   0  0  0  0  0  0  0  0  0  0  0  0
   45.0701   31.5548   11.3983 S   0  0  0  0  0  0  0  0  0  0  0  0
   45.6811   31.0332    9.9387 N   0  0  0  0  0  0  0  0  0  0  0  0
   47.1336   30.2759   10.1606 S   0  0  0  0  0  0  0  0  0  0  0  0
   48.2363   31.4772    9.9201 N   0  0  0  0  0  0  0  0  0  0  0  0
   49.7461   30.9280   10.3296 S   0  0  0  0  0  0  0  0  0  0  0  0
   50.7766   31.2062    9.0668 N   0  0  0  0  0  0  0  0  0  0  0  0
   50.4880   32.5997    8.3105 S   0  0  0  0  0  0  0  0  0  0  0  0
   51.5766   33.8174    8.2717 N   0  0  0  0  0  0  0  0  0  0  0  0
   53.1694   33.6010    8.0560 S   0  0  0  0  0  0  0  0  0  0  0  0
   53.5636   33.8704    6.4694 N   0  0  0  0  0  0  0  0  0  0  0  0
   55.1911   33.9364    6.2038 S   0  0  0  0  0  0  0  0  0  0  0  0
   55.9314   32.8887    7.2471 N   0  0  0  0  0  0  0  0  0  0  0  0
   57.5588   32.8320    7.0822 S   0  0  0  0  0  0  0  0  0  0  0  0
   58.1142   34.3553    7.4670 N   0  0  0  0  0  0  0  0  0  0  0  0
   57.6204   34.8457    8.7275 N   0  0  0  0  0  0  0  0  0  0  0  0
   58.1838   34.2138    9.8632 N   0  0  0  0  0  0  0  0  0  0  0  0
   59.5933   34.2846    9.9098 N   0  0  0  0  0  0  0  0  0  0  0  0
   59.9990   35.6463   10.0771 N   0  0  0  0  0  0  0  0  0  0  0  0
   59.4686   36.1270   11.3595 N   0  0  0  0  0  0  0  0  0  0  0  0
   59.8610   35.1728   12.4037 N   0  0  0  0  0  0  0  0  0  0  0  0
   61.3011   34.9605   12.2787 N   0  0  0  0  0  0  0  0  0  0  0  0
   62.0094   36.1921   12.4938 N   0  0  0  0  0  0  0  0  0  0  0  0
   61.5839   36.8631   13.6852 N   0  0  0  0  0  0  0  0  0  0  0  0
   62.0115   36.1299   14.8363 N   0  0  0  0  0  0  0  0  0  0  0  0
   63.4409   35.9447   14.7829 N   0  0  0  0  0  0  0  0  0  0  0  0
   64.0835   37.2431   14.7790 N   0  0  0  0  0  0  0  0  0  0  0  0
   63.7875   37.9321   16.0076 N   0  0  0  0  0  0  0  0  0  0  0  0
   64.1619   37.1054   17.1276 N   0  0  0  0  0  0  0  0  0  0  0  0
   65.5864   36.8780   17.0832 N   0  0  0  0  0  0  0  0  0  0  0  0
   66.2688   38.1520   17.1351 N   0  0  0  0  0  0  0  0  0  0  0  0
   65.9255   38.8319   18.3662 N   0  0  0  0  0  0  0  0  0  0  0  0
   66.3160   38.0198   19.4991 N   0  0  0  0  0  0  0  0  0  0  0  0
   67.7316   37.7295   19.4278 N   0  0  0  0  0  0  0  0  0  0  0  0
   68.4969   38.9564   19.4765 N   0  0  0  0  0  0  0  0  0  0  0  0
   68.2426   39.6716   20.7106 N   0  0  0  0  0  0  0  0  0  0  0  0
   68.5693   38.8614   21.8651 N   0  0  0  0  0  0  0  0  0  0  0  0
   69.9676   38.5107   21.8924 N   0  0  0  0  0  0  0  0  0  0  0  0
   70.8249   39.6873   21.9458 N   0  0  0  0  0  0  0  0  0  0  0  0
   70.5761   40.4798   23.1298 N   0  0  0  0  0  0  0  0  0  0  0  0
   70.8520   39.7454   24.3525 N   0  0  0  0  0  0  0  0  0  0  0  0
   72.2583   39.4059   24.5080 N   0  0  0  0  0  0  0  0  0  0  0  0
   73.1416   40.5618   24.6748 N   0  0  0  0  0  0  0  0  0  0  0  0
   72.8662   41.3551   25.8595 N   0  0  0  0  0  0  0  0  0  0  0  0
   73.3300   40.6955   27.0822 N   0  0  0  0  0  0  0  0  0  0  0  0
   56.0092   23.4518    8.1343 H   0  0  0  0  0  0  0  0  0  0  0  0
   55.0508   30.1692    8.3578 H   0  0  0  0  0  0  0  0  0  0  0  0
   53.0063   28.1766    8.8537 H   0  0  0  0  0  0  0  0  0  0  0  0
   53.3169   28.5555   11.0208 H   0  0  0  0  0  0  0  0  0  0  0  0
   55.1174   30.2604   10.9443 H   0  0  0  0  0  0  0  0  0  0  0  0
   53.9081   31.9353    9.5426 H   0  0  0  0  0  0  0  0  0  0  0  0
   51.7335   31.6495   10.7084 H   0  0  0  0  0  0  0  0  0  0  0  0
   52.4633   32.2417   13.0737 H   0  0  0  0  0  0  0  0  0  0  0  0
   53.2611   34.5902   12.7392 H   0  0  0  0  0  0  0  0  0  0  0  0
   52.3979   35.2414   10.5466 H   0  0  0  0  0  0  0  0  0  0  0  0
   49.8270   35.1175   11.9183 H   0  0  0  0  0  0  0  0  0  0  0  0
   50.0858   37.0512    8.0125 H   0  0  0  0  0  0  0  0  0  0  0  0
   48.9642   35.5822    5.1135 H   0  0  0  0  0  0  0  0  0  0  0  0
   51.6960   33.1691    6.1202 H   0  0  0  0  0  0  0  0  0  0  0  0
   52.1385   30.0793    3.8054 H   0  0  0  0  0  0  0  0  0  0  0  0
   48.7409   28.9129    5.7698 H   0  0  0  0  0  0  0  0  0  0  0  0
   45.9811   29.4252    4.0721 H   0  0  0  0  0  0  0  0  0  0  0  0
   47.2253   32.1998    6.6868 H   0  0  0  0  0  0  0  0  0  0  0  0
   43.4933   32.9350    5.6484 H   0  0  0  0  0  0  0  0  0  0  0  0
   44.0448   36.0625    7.5251 H   0  0  0  0  0  0  0  0  0  0  0  0
   43.6637   33.5839   10.4122 H   0  0  0  0  0  0  0  0  0  0  0  0
   46.1465   33.0163   12.7935 H   0  0  0  0  0  0  0  0  0  0  0  0
   45.8919   31.8692    9.3976 H   0  0  0  0  0  0  0  0  0  0  0  0
   48.0815   32.3048   10.4992 H   0  0  0  0  0  0  0  0  0  0  0  0
   51.7819   30.9999    9.2653 H   0  0  0  0  0  0  0  0  0  0  0  0
   51.3653   34.4402    9.0595 H   0  0  0  0  0  0  0  0  0  0  0  0
   53.1100   34.7083    6.1085 H   0  0  0  0  0  0  0  0  0  0  0  0
   55.4696   31.9803    7.3149 H   0  0  0  0  0  0  0  0  0  0  0  0
   57.7255   34.9741    6.7525 H   0  0  0  0  0  0  0  0  0  0  0  0
   56.6135   34.6744    8.7556 H   0  0  0  0  0  0  0  0  0  0  0  0
   57.8907   33.2470    9.8864 H   0  0  0  0  0  0  0  0  0  0  0  0
   59.9786   33.8732    9.0662 H   0  0  0  0  0  0  0  0  0  0  0  0
   59.5343   36.1611    9.3179 H   0  0  0  0  0  0  0  0  0  0  0  0
   58.4458   36.0349   11.2566 H   0  0  0  0  0  0  0  0  0  0  0  0
   59.4115   34.2910   12.0966 H   0  0  0  0  0  0  0  0  0  0  0  0
   61.4126   34.7302   11.2755 H   0  0  0  0  0  0  0  0  0  0  0  0
   61.8241   36.7983   11.6992 H   0  0  0  0  0  0  0  0  0  0  0  0
   60.5564   36.9396   13.6722 H   0  0  0  0  0  0  0  0  0  0  0  0
   61.5432   35.2170   14.8101 H   0  0  0  0  0  0  0  0  0  0  0  0
   63.6557   35.4641   13.8969 H   0  0  0  0  0  0  0  0  0  0  0  0
   63.6200   37.7734   14.0278 H   0  0  0  0  0  0  0  0  0  0  0  0
   62.7689   38.0499   16.0084 H   0  0  0  0  0  0  0  0  0  0  0  0
   63.6800   36.2054   16.9763 H   0  0  0  0  0  0  0  0  0  0  0  0
   65.7687   36.4471   16.1638 H   0  0  0  0  0  0  0  0  0  0  0  0
   65.8891   38.6998   16.3468 H   0  0  0  0  0  0  0  0  0  0  0  0
   64.8953   38.9081   18.3596 H   0  0  0  0  0  0  0  0  0  0  0  0
   65.8037   37.1306   19.3886 H   0  0  0  0  0  0  0  0  0  0  0  0
   67.8651   37.3037   18.4953 H   0  0  0  0  0  0  0  0  0  0  0  0
   68.1400   39.5243   18.6896 H   0  0  0  0  0  0  0  0  0  0  0  0
   67.2281   39.8483   20.7201 H   0  0  0  0  0  0  0  0  0  0  0  0
   68.0227   37.9919   21.7513 H   0  0  0  0  0  0  0  0  0  0  0  0
   70.1441   38.0149   20.9971 H   0  0  0  0  0  0  0  0  0  0  0  0
   70.5658   40.2504   21.1155 H   0  0  0  0  0  0  0  0  0  0  0  0
   69.5645   40.6914   23.0977 H   0  0  0  0  0  0  0  0  0  0  0  0
   70.3014   38.8702   24.2566 H   0  0  0  0  0  0  0  0  0  0  0  0
   72.5103   38.9135   23.6329 H   0  0  0  0  0  0  0  0  0  0  0  0
   73.0000   41.1391   23.8268 H   0  0  0  0  0  0  0  0  0  0  0  0
   71.8467   41.5093   25.8737 H   0  0  0  0  0  0  0  0  0  0  0  0
   74.2835   40.3894   26.8985 H   0  0  0  0  0  0  0  0  0  0  0  0
   72.8024   39.8132   27.1129 H   0  0  0  0  0  0  0  0  0  0  0  0
  1  2  1  0  0  0  0
  1 82  1  0  0  0  0
  2  3  1  0  0  0  0
  3  4  1  0  0  0  0
  4  5  1  0  0  0  0
  5  6  1  0  0  0  0
  6  7  1  0  0  0  0
  6 83  1  0  0  0  0
  7  8  1  0  0  0  0
  7 84  1  0  0  0  0
  8  9  1  0  0  0  0
  8 85  1  0  0  0  0
  9 10  1  0  0  0  0
  9 86  1  0  0  0  0
 10 11  1  0  0  0  0
 10 87  1  0  0  0  0
 11 12  1  0  0  0  0
 11 88  1  0  0  0  0
 12 13  1  0  0  0  0
 12 89  1  0  0  0  0
 13 14  1  0  0  0  0
 13 90  1  0  0  0  0
 14 15  1  0  0  0  0
 14 91  1  0  0  0  0
 15 16  1  0  0  0  0
 15 92  1  0  0  0  0
 16 17  1  0  0  0  0
 17 18  1  0  0  0  0
 17 93  1  0  0  0  0
 18 19  1  0  0  0  0
 19 20  1  0  0  0  0
 19 94  1  0  0  0  0
 20 21  1  0  0  0  0
 21 22  1  0  0  0  0
 21 95  1  0  0  0  0
 22 23  1  0  0  0  0
 23 24  1  0  0  0  0
 23 96  1  0  0  0  0
 24 25  1  0  0  0  0
 25 26  1  0  0  0  0
 25 97  1  0  0  0  0
 26 27  1  0  0  0  0
 27 28  1  0  0  0  0
 27 98  1  0  0  0  0
 28 29  1  0  0  0  0
 29 30  1  0  0  0  0
 29 99  1  0  0  0  0
 30 31  1  0  0  0  0
 31 32  1  0  0  0  0
 31100  1  0  0  0  0
 32 33  1  0  0  0  0
 33 34  1  0  0  0  0
 33101  1  0  0  0  0
 34 35  1  0  0  0  0
 35 36  1  0  0  0  0
 35102  1  0  0  0  0
 36 37  1  0  0  0  0
 37 38  1  0  0  0  0
 37103  1  0  0  0  0
 38 39  1  0  0  0  0
 39 40  1  0  0  0  0
 39104  1  0  0  0  0
 40 41  1  0  0  0  0
 41 42  1  0  0  0  0
 41105  1  0  0  0  0
 42 43  1  0  0  0  0
 43 44  1  0  0  0  0
 43106  1  0  0  0  0
 44 45  1  0  0  0  0
 45 46  1  0  0  0  0
 45107  1  0  0  0  0
 46 47  1  0  0  0  0
 47 48  1  0  0  0  0
 47108  1  0  0  0  0
 48 49  1  0  0  0  0
 49 50  1  0  0  0  0
 49109  1  0  0  0  0
 50 51  1  0  0  0  0
 51 52  1  0  0  0  0
 51110  1  0  0  0  0
 52 53  1  0  0  0  0
 52111  1  0  0  0  0
 53 54  1  0  0  0  0
 53112  1  0  0  0  0
 54 55  1  0  0  0  0
 54113  1  0  0  0  0
 55 56  1  0  0  0  0
 55114  1  0  0  0  0
 56 57  1  0  0  0  0
 56115  1  0  0  0  0
 57 58  1  0  0  0  0
 57116  1  0  0  0  0
 58 59  1  0  0  0  0
 58117  1  0  0  0  0
 59 60  1  0  0  0  0
 59118  1  0  0  0  0
 60 61  1  0  0  0  0
 60119  1  0  0  0  0
 61 62  1  0  0  0  0
 61120  1  0  0  0  0
 62 63  1  0  0  0  0
 62121  1  0  0  0  0
 63 64  1  0  0  0  0
 63122  1  0  0  0  0
 64 65  1  0  0  0  0
 64123  1  0  0  0  0
 65 66  1  0  0  0  0
 65124  1  0  0  0  0
 66 67  1  0  0  0  0
 66125  1  0  0  0  0
 67 68  1  0  0  0  0
 67126  1  0  0  0  0
 68 69  1  0  0  0  0
 68127  1  0  0  0  0
 69 70  1  0  0  0  0
 69128  1  0  0  0  0
 70 71  1  0  0  0  0
 70129  1  0  0  0  0
 71 72  1  0  0  0  0
 71130  1  0  0  0  0
 72 73  1  0  0  0  0
 72131  1  0  0  0  0
 73 74  1  0  0  0  0
 73132  1  0  0  0  0
 74 75  1  0  0  0  0
 74133  1  0  0  0  0
 75 76  1  0  0  0  0
 75134  1  0  0  0  0
 76 77  1  0  0  0  0
 76135  1  0  0  0  0
 77 78  1  0  0  0  0
 77136  1  0  0  0  0
 78 79  1  0  0  0  0
 78137  1  0  0  0  0
 79 80  1  0  0  0  0
 79138  1  0  0  0  0
 80 81  1  0  0  0  0
 80139  1  0  0  0  0
 81140  1  0  0  0  0
 81141  1  0  0  0  0
M  END
$$$$
