
 OpenBabel04232216523D

 47 48  0  0  0  0  0  0  0  0999 V2000
    5.6304   -5.5198    4.2896 C   0  0  0  0  0  0  0  0  0  0  0  0
    5.8699   -4.8117    2.9591 C   0  0  0  0  0  0  0  0  0  0  0  0
    5.7434   -3.2911    3.1118 C   0  0  0  0  0  0  0  0  0  0  0  0
    6.0707   -2.5008    1.8458 C   0  0  0  0  0  0  0  0  0  0  0  0
    5.1256   -2.3060    0.9126 C   0  0  0  0  0  0  0  0  0  0  0  0
    5.1748   -1.5284   -0.3489 C   0  0  0  0  0  0  0  0  0  0  0  0
    4.1162   -1.2151   -0.8940 O   0  0  0  0  0  0  0  0  0  0  0  0
    6.4437   -1.2210   -1.0567 C   0  0  0  0  0  0  0  0  0  0  0  0
    7.6968   -1.1469   -0.5721 C   0  0  0  0  0  0  0  0  0  0  0  0
    8.8730   -0.7955   -1.4816 C   0  0  0  0  0  0  0  0  0  0  0  0
   10.0085   -0.7006   -1.0125 O   0  0  0  0  0  0  0  0  0  0  0  0
    8.6695   -0.5184   -2.8971 C   0  0  0  0  0  0  0  0  0  0  0  0
    8.2225   -0.3889   -4.1274 C   0  0  0  0  0  0  0  0  0  0  0  0
    9.5660   -0.3416   -3.9194 N   0  0  0  0  0  0  0  0  0  0  0  0
   10.4258    0.8427   -3.8684 C   0  0  0  0  0  0  0  0  0  0  0  0
   10.8687    1.3653   -5.2463 C   0  0  0  0  0  0  0  0  0  0  0  0
    9.7212    1.8820   -6.1199 C   0  0  0  0  0  0  0  0  0  0  0  0
   10.1633    2.7207   -7.3298 C   0  0  0  0  0  0  0  0  0  0  0  0
   11.0334    1.9718   -8.3410 C   0  0  0  0  0  0  0  0  0  0  0  0
   11.3061    2.8212   -9.5776 C   0  0  0  0  0  0  0  0  0  0  0  0
    8.0245   -1.2679    0.8414 C   0  0  0  0  0  0  0  0  0  0  0  0
    7.3583   -1.8438    1.8486 C   0  0  0  0  0  0  0  0  0  0  0  0
    5.6350   -6.6062    4.1538 H   0  0  0  0  0  0  0  0  0  0  0  0
    4.6646   -5.2378    4.7219 H   0  0  0  0  0  0  0  0  0  0  0  0
    6.4133   -5.2688    5.0132 H   0  0  0  0  0  0  0  0  0  0  0  0
    5.1385   -5.1762    2.2282 H   0  0  0  0  0  0  0  0  0  0  0  0
    6.8649   -5.0813    2.5865 H   0  0  0  0  0  0  0  0  0  0  0  0
    6.3849   -2.9641    3.9408 H   0  0  0  0  0  0  0  0  0  0  0  0
    4.7215   -3.0498    3.4339 H   0  0  0  0  0  0  0  0  0  0  0  0
    4.1404   -2.7435    1.0682 H   0  0  0  0  0  0  0  0  0  0  0  0
    6.2378   -1.0131   -2.0994 H   0  0  0  0  0  0  0  0  0  0  0  0
    7.4854   -1.1062   -4.4568 H   0  0  0  0  0  0  0  0  0  0  0  0
   11.3356    0.5589   -3.3224 H   0  0  0  0  0  0  0  0  0  0  0  0
    9.9616    1.6586   -3.2994 H   0  0  0  0  0  0  0  0  0  0  0  0
   11.4268    0.5883   -5.7810 H   0  0  0  0  0  0  0  0  0  0  0  0
   11.5699    2.1918   -5.0683 H   0  0  0  0  0  0  0  0  0  0  0  0
    9.0609    2.5084   -5.5077 H   0  0  0  0  0  0  0  0  0  0  0  0
    9.1224    1.0367   -6.4761 H   0  0  0  0  0  0  0  0  0  0  0  0
   10.6941    3.6158   -6.9830 H   0  0  0  0  0  0  0  0  0  0  0  0
    9.2573    3.0746   -7.8388 H   0  0  0  0  0  0  0  0  0  0  0  0
   10.5361    1.0454   -8.6494 H   0  0  0  0  0  0  0  0  0  0  0  0
   11.9908    1.6960   -7.8861 H   0  0  0  0  0  0  0  0  0  0  0  0
   10.3738    3.0890  -10.0861 H   0  0  0  0  0  0  0  0  0  0  0  0
   11.9302    2.2706  -10.2890 H   0  0  0  0  0  0  0  0  0  0  0  0
   11.8294    3.7463   -9.3145 H   0  0  0  0  0  0  0  0  0  0  0  0
    8.9728   -0.7991    1.1159 H   0  0  0  0  0  0  0  0  0  0  0  0
    7.8431   -1.7837    2.8248 H   0  0  0  0  0  0  0  0  0  0  0  0
  1  2  1  0  0  0  0
  1 23  1  0  0  0  0
  1 24  1  0  0  0  0
  1 25  1  0  0  0  0
  2  3  1  0  0  0  0
  2 26  1  0  0  0  0
  2 27  1  0  0  0  0
  3  4  1  0  0  0  0
  3 28  1  0  0  0  0
  3 29  1  0  0  0  0
  4  5  2  0  0  0  0
  4 22  1  0  0  0  0
  5  6  1  0  0  0  0
  5 30  1  0  0  0  0
  6  7  2  0  0  0  0
  6  8  1  0  0  0  0
  8  9  2  0  0  0  0
  8 31  1  0  0  0  0
  9 10  1  0  0  0  0
  9 21  1  0  0  0  0
 10 11  2  0  0  0  0
 10 12  1  0  0  0  0
 12 13  2  0  0  0  0
 12 14  1  0  0  0  0
 13 14  1  0  0  0  0
 13 32  1  0  0  0  0
 14 15  1  0  0  0  0
 15 16  1  0  0  0  0
 15 33  1  0  0  0  0
 15 34  1  0  0  0  0
 16 17  1  0  0  0  0
 16 35  1  0  0  0  0
 16 36  1  0  0  0  0
 17 18  1  0  0  0  0
 17 37  1  0  0  0  0
 17 38  1  0  0  0  0
 18 19  1  0  0  0  0
 18 39  1  0  0  0  0
 18 40  1  0  0  0  0
 19 20  1  0  0  0  0
 19 41  1  0  0  0  0
 19 42  1  0  0  0  0
 20 43  1  0  0  0  0
 20 44  1  0  0  0  0
 20 45  1  0  0  0  0
 21 22  2  0  0  0  0
 21 46  1  0  0  0  0
 22 47  1  0  0  0  0
M  END
$$$$
