
 OpenBabel04232216543D

243242  0  0  0  0  0  0  0  0999 V2000
    1.0105    0.1609    0.0233 C   0  0  0  0  0  0  0  0  0  0  0  0
    2.5283    0.1641    0.0223 C   0  0  0  0  0  0  0  0  0  0  0  0
    3.0516    1.0188   -1.1237 C   0  0  0  0  0  0  0  0  0  0  0  0
    4.5764    1.0285   -1.1367 C   0  0  0  0  0  0  0  0  0  0  0  0
    5.0729    1.8807   -2.2795 C   0  0  0  0  0  0  0  0  0  0  0  0
    6.4937    1.8811   -2.2802 O   0  0  0  0  0  0  0  0  0  0  0  0
    6.9702    2.6860   -3.3562 C   0  0  0  0  0  0  0  0  0  0  0  0
    8.4770    2.6792   -3.3501 C   0  0  0  0  0  0  0  0  0  0  0  0
    8.9968    3.5348   -4.4941 C   0  0  0  0  0  0  0  0  0  0  0  0
   10.5126    3.5391   -4.4998 C   0  0  0  0  0  0  0  0  0  0  0  0
   11.0244    4.3972   -5.6438 C   0  0  0  0  0  0  0  0  0  0  0  0
   12.5402    4.3996   -5.6503 C   0  0  0  0  0  0  0  0  0  0  0  0
   13.0510    5.2547   -6.7934 C   0  0  0  0  0  0  0  0  0  0  0  0
   14.5676    5.2583   -6.7980 C   0  0  0  0  0  0  0  0  0  0  0  0
   15.0779    6.1135   -7.9417 C   0  0  0  0  0  0  0  0  0  0  0  0
   16.5943    6.1179   -7.9442 C   0  0  0  0  0  0  0  0  0  0  0  0
   17.1046    6.9748   -9.0866 C   0  0  0  0  0  0  0  0  0  0  0  0
   18.6208    6.9781   -9.0907 C   0  0  0  0  0  0  0  0  0  0  0  0
   19.1312    7.8366  -10.2316 C   0  0  0  0  0  0  0  0  0  0  0  0
   20.6476    7.8381  -10.2369 C   0  0  0  0  0  0  0  0  0  0  0  0
   21.1579    8.6981  -11.3769 C   0  0  0  0  0  0  0  0  0  0  0  0
   22.6742    8.6982  -11.3833 C   0  0  0  0  0  0  0  0  0  0  0  0
   23.1845    9.5565  -12.5244 C   0  0  0  0  0  0  0  0  0  0  0  0
   24.7009    9.5549  -12.5320 C   0  0  0  0  0  0  0  0  0  0  0  0
   25.2112   10.4134  -13.6732 C   0  0  0  0  0  0  0  0  0  0  0  0
   26.7275   10.4130  -13.6798 C   0  0  0  0  0  0  0  0  0  0  0  0
   27.2379   11.2716  -14.8208 C   0  0  0  0  0  0  0  0  0  0  0  0
   28.7541   11.2716  -14.8274 C   0  0  0  0  0  0  0  0  0  0  0  0
   29.2645   12.1300  -15.9684 C   0  0  0  0  0  0  0  0  0  0  0  0
   30.7808   12.1299  -15.9750 C   0  0  0  0  0  0  0  0  0  0  0  0
   31.2911   12.9883  -17.1161 C   0  0  0  0  0  0  0  0  0  0  0  0
   32.8074   12.9884  -17.1225 C   0  0  0  0  0  0  0  0  0  0  0  0
   33.3177   13.8470  -18.2635 C   0  0  0  0  0  0  0  0  0  0  0  0
   34.8342   13.8482  -18.2688 C   0  0  0  0  0  0  0  0  0  0  0  0
   35.3443   14.7068  -19.4101 C   0  0  0  0  0  0  0  0  0  0  0  0
   36.8607   14.7067  -19.4164 C   0  0  0  0  0  0  0  0  0  0  0  0
   37.3710   15.5667  -20.5565 C   0  0  0  0  0  0  0  0  0  0  0  0
   38.8874   15.5683  -20.5616 C   0  0  0  0  0  0  0  0  0  0  0  0
   39.3976   16.4299  -21.7004 C   0  0  0  0  0  0  0  0  0  0  0  0
   40.9142   16.4329  -21.7043 C   0  0  0  0  0  0  0  0  0  0  0  0
   41.4243   17.2933  -22.8441 C   0  0  0  0  0  0  0  0  0  0  0  0
   42.9407   17.2963  -22.8483 C   0  0  0  0  0  0  0  0  0  0  0  0
   43.4511   18.1564  -23.9880 C   0  0  0  0  0  0  0  0  0  0  0  0
   44.9674   18.1595  -23.9922 C   0  0  0  0  0  0  0  0  0  0  0  0
   45.4777   19.0196  -25.1319 C   0  0  0  0  0  0  0  0  0  0  0  0
   46.9940   19.0227  -25.1361 C   0  0  0  0  0  0  0  0  0  0  0  0
   47.5043   19.8830  -26.2759 C   0  0  0  0  0  0  0  0  0  0  0  0
   49.0207   19.8858  -26.2801 C   0  0  0  0  0  0  0  0  0  0  0  0
   49.5309   20.7459  -27.4200 C   0  0  0  0  0  0  0  0  0  0  0  0
   51.0475   20.7474  -27.4250 C   0  0  0  0  0  0  0  0  0  0  0  0
   51.5576   21.6078  -28.5650 C   0  0  0  0  0  0  0  0  0  0  0  0
   53.0740   21.6106  -28.5692 C   0  0  0  0  0  0  0  0  0  0  0  0
   53.5843   22.4690  -29.7102 C   0  0  0  0  0  0  0  0  0  0  0  0
   55.1007   22.4707  -29.7155 C   0  0  0  0  0  0  0  0  0  0  0  0
   55.6110   23.3276  -30.8576 C   0  0  0  0  0  0  0  0  0  0  0  0
   57.1274   23.3304  -30.8619 C   0  0  0  0  0  0  0  0  0  0  0  0
   57.6375   24.1892  -32.0030 C   0  0  0  0  0  0  0  0  0  0  0  0
   59.1541   24.1937  -32.0058 C   0  0  0  0  0  0  0  0  0  0  0  0
   59.6643   25.0523  -33.1468 C   0  0  0  0  0  0  0  0  0  0  0  0
   61.1807   25.0585  -33.1486 C   0  0  0  0  0  0  0  0  0  0  0  0
   61.6910   25.9171  -34.2895 C   0  0  0  0  0  0  0  0  0  0  0  0
   63.2073   25.9235  -34.2913 C   0  0  0  0  0  0  0  0  0  0  0  0
   63.7177   26.7819  -35.4322 C   0  0  0  0  0  0  0  0  0  0  0  0
   65.2339   26.7883  -35.4340 C   0  0  0  0  0  0  0  0  0  0  0  0
   65.7443   27.6468  -36.5749 C   0  0  0  0  0  0  0  0  0  0  0  0
   67.2606   27.6532  -36.5767 C   0  0  0  0  0  0  0  0  0  0  0  0
   67.7709   28.5118  -37.7176 C   0  0  0  0  0  0  0  0  0  0  0  0
   69.2873   28.5179  -37.7194 C   0  0  0  0  0  0  0  0  0  0  0  0
   69.7976   29.3764  -38.8604 C   0  0  0  0  0  0  0  0  0  0  0  0
   71.3140   29.3813  -38.8632 C   0  0  0  0  0  0  0  0  0  0  0  0
   71.8243   30.2396  -40.0043 C   0  0  0  0  0  0  0  0  0  0  0  0
   73.3405   30.2444  -40.0073 C   0  0  0  0  0  0  0  0  0  0  0  0
   73.8509   31.1028  -41.1485 C   0  0  0  0  0  0  0  0  0  0  0  0
   75.3674   31.1075  -41.1511 C   0  0  0  0  0  0  0  0  0  0  0  0
   75.8785   31.9664  -42.2928 C   0  0  0  0  0  0  0  0  0  0  0  0
   77.3947   31.9727  -42.2944 C   0  0  0  0  0  0  0  0  0  0  0  0
   77.9059   32.8314  -43.4355 C   0  0  0  0  0  0  0  0  0  0  0  0
   79.4239   32.8383  -43.4381 C   0  0  0  0  0  0  0  0  0  0  0  0
   79.9365   33.6983  -44.5777 C   0  0  0  0  0  0  0  0  0  0  0  0
   81.4587   33.7099  -44.5897 C   0  0  0  0  0  0  0  0  0  0  0  0
   81.9692   34.5699  -45.7295 C   0  0  0  0  0  0  0  0  0  0  0  0
    0.6355   -0.4520    0.8452 H   0  0  0  0  0  0  0  0  0  0  0  0
    0.6238   -0.2450   -0.9175 H   0  0  0  0  0  0  0  0  0  0  0  0
    0.6214    1.1777    0.1423 H   0  0  0  0  0  0  0  0  0  0  0  0
    2.8985   -0.8603   -0.0801 H   0  0  0  0  0  0  0  0  0  0  0  0
    2.8962    0.5562    0.9752 H   0  0  0  0  0  0  0  0  0  0  0  0
    2.6758    2.0457   -1.0247 H   0  0  0  0  0  0  0  0  0  0  0  0
    2.6760    0.6310   -2.0798 H   0  0  0  0  0  0  0  0  0  0  0  0
    4.9634    0.0079   -1.2348 H   0  0  0  0  0  0  0  0  0  0  0  0
    4.9634    1.4137   -0.1863 H   0  0  0  0  0  0  0  0  0  0  0  0
    4.7053    2.9102   -2.1687 H   0  0  0  0  0  0  0  0  0  0  0  0
    4.7053    1.4811   -3.2346 H   0  0  0  0  0  0  0  0  0  0  0  0
    6.5972    3.7115   -3.2370 H   0  0  0  0  0  0  0  0  0  0  0  0
    6.5951    2.2840   -4.3060 H   0  0  0  0  0  0  0  0  0  0  0  0
    8.8500    1.6504   -3.4412 H   0  0  0  0  0  0  0  0  0  0  0  0
    8.8521    3.0555   -2.3892 H   0  0  0  0  0  0  0  0  0  0  0  0
    8.6223    4.5609   -4.3924 H   0  0  0  0  0  0  0  0  0  0  0  0
    8.6222    3.1475   -5.4496 H   0  0  0  0  0  0  0  0  0  0  0  0
   10.8892    2.5151   -4.6073 H   0  0  0  0  0  0  0  0  0  0  0  0
   10.8894    3.9289   -3.5469 H   0  0  0  0  0  0  0  0  0  0  0  0
   10.6497    5.4234   -5.5385 H   0  0  0  0  0  0  0  0  0  0  0  0
   10.6474    4.0106   -6.5993 H   0  0  0  0  0  0  0  0  0  0  0  0
   12.9151    3.3738   -5.7550 H   0  0  0  0  0  0  0  0  0  0  0  0
   12.9172    4.7882   -4.6960 H   0  0  0  0  0  0  0  0  0  0  0  0
   12.6756    6.2804   -6.6898 H   0  0  0  0  0  0  0  0  0  0  0  0
   12.6756    4.8655   -7.7481 H   0  0  0  0  0  0  0  0  0  0  0  0
   14.9431    4.2325   -6.9018 H   0  0  0  0  0  0  0  0  0  0  0  0
   14.9429    5.6474   -5.8435 H   0  0  0  0  0  0  0  0  0  0  0  0
   14.7012    7.1385   -7.8381 H   0  0  0  0  0  0  0  0  0  0  0  0
   14.7035    5.7231   -8.8958 H   0  0  0  0  0  0  0  0  0  0  0  0
   16.9708    5.0929   -8.0489 H   0  0  0  0  0  0  0  0  0  0  0  0
   16.9686    6.5070   -6.9894 H   0  0  0  0  0  0  0  0  0  0  0  0
   16.7290    8.0003   -8.9811 H   0  0  0  0  0  0  0  0  0  0  0  0
   16.7291    6.5869  -10.0416 H   0  0  0  0  0  0  0  0  0  0  0  0
   18.9964    5.9528   -9.1975 H   0  0  0  0  0  0  0  0  0  0  0  0
   18.9965    7.3648   -8.1352 H   0  0  0  0  0  0  0  0  0  0  0  0
   18.7568    8.8621  -10.1240 H   0  0  0  0  0  0  0  0  0  0  0  0
   18.7547    7.4507  -11.1871 H   0  0  0  0  0  0  0  0  0  0  0  0
   21.0218    6.8126  -10.3460 H   0  0  0  0  0  0  0  0  0  0  0  0
   21.0243    8.2227   -9.2810 H   0  0  0  0  0  0  0  0  0  0  0  0
   20.7847    9.7240  -11.2670 H   0  0  0  0  0  0  0  0  0  0  0  0
   20.7800    8.3144  -12.3326 H   0  0  0  0  0  0  0  0  0  0  0  0
   23.0474    7.6721  -11.4918 H   0  0  0  0  0  0  0  0  0  0  0  0
   23.0521    9.0830  -10.4281 H   0  0  0  0  0  0  0  0  0  0  0  0
   22.8125   10.5828  -12.4152 H   0  0  0  0  0  0  0  0  0  0  0  0
   22.8056    9.1724  -13.4796 H   0  0  0  0  0  0  0  0  0  0  0  0
   25.0729    8.5286  -12.6413 H   0  0  0  0  0  0  0  0  0  0  0  0
   25.0798    9.9390  -11.5770 H   0  0  0  0  0  0  0  0  0  0  0  0
   24.8381   11.4393  -13.5648 H   0  0  0  0  0  0  0  0  0  0  0  0
   24.8332   10.0283  -14.6284 H   0  0  0  0  0  0  0  0  0  0  0  0
   27.1006    9.3872  -13.7882 H   0  0  0  0  0  0  0  0  0  0  0  0
   27.1054   10.7982  -12.7245 H   0  0  0  0  0  0  0  0  0  0  0  0
   26.8647   12.2976  -14.7124 H   0  0  0  0  0  0  0  0  0  0  0  0
   26.8600   10.8866  -15.7761 H   0  0  0  0  0  0  0  0  0  0  0  0
   29.1273   10.2456  -14.9358 H   0  0  0  0  0  0  0  0  0  0  0  0
   29.1320   11.6566  -13.8721 H   0  0  0  0  0  0  0  0  0  0  0  0
   28.8913   13.1560  -15.8600 H   0  0  0  0  0  0  0  0  0  0  0  0
   28.8866   11.7450  -16.9237 H   0  0  0  0  0  0  0  0  0  0  0  0
   31.1540   11.1039  -16.0834 H   0  0  0  0  0  0  0  0  0  0  0  0
   31.1587   12.5149  -15.0197 H   0  0  0  0  0  0  0  0  0  0  0  0
   30.9179   14.0143  -17.0076 H   0  0  0  0  0  0  0  0  0  0  0  0
   30.9133   12.6033  -18.0713 H   0  0  0  0  0  0  0  0  0  0  0  0
   33.1807   11.9624  -17.2309 H   0  0  0  0  0  0  0  0  0  0  0  0
   33.1852   13.3733  -16.1672 H   0  0  0  0  0  0  0  0  0  0  0  0
   32.9436   14.8724  -18.1559 H   0  0  0  0  0  0  0  0  0  0  0  0
   32.9410   13.4610  -19.2189 H   0  0  0  0  0  0  0  0  0  0  0  0
   35.2084   12.8226  -18.3765 H   0  0  0  0  0  0  0  0  0  0  0  0
   35.2108   14.2341  -17.3136 H   0  0  0  0  0  0  0  0  0  0  0  0
   34.9712   15.7326  -19.3015 H   0  0  0  0  0  0  0  0  0  0  0  0
   34.9666   14.3217  -20.3653 H   0  0  0  0  0  0  0  0  0  0  0  0
   37.2340   13.6808  -19.5263 H   0  0  0  0  0  0  0  0  0  0  0  0
   37.2385   15.0904  -18.4608 H   0  0  0  0  0  0  0  0  0  0  0  0
   36.9968   16.5922  -20.4472 H   0  0  0  0  0  0  0  0  0  0  0  0
   36.9943   15.1822  -21.5123 H   0  0  0  0  0  0  0  0  0  0  0  0
   39.2617   14.5429  -20.6721 H   0  0  0  0  0  0  0  0  0  0  0  0
   39.2640   15.9515  -19.6052 H   0  0  0  0  0  0  0  0  0  0  0  0
   39.0223   17.4549  -21.5906 H   0  0  0  0  0  0  0  0  0  0  0  0
   39.0221   16.0459  -22.6568 H   0  0  0  0  0  0  0  0  0  0  0  0
   41.2896   15.4080  -21.8127 H   0  0  0  0  0  0  0  0  0  0  0  0
   41.2895   16.8183  -20.7483 H   0  0  0  0  0  0  0  0  0  0  0  0
   41.0489   18.3182  -22.7358 H   0  0  0  0  0  0  0  0  0  0  0  0
   41.0489   16.9078  -23.8002 H   0  0  0  0  0  0  0  0  0  0  0  0
   43.3162   16.2712  -22.9565 H   0  0  0  0  0  0  0  0  0  0  0  0
   43.3162   17.6817  -21.8922 H   0  0  0  0  0  0  0  0  0  0  0  0
   43.0755   19.1815  -23.8798 H   0  0  0  0  0  0  0  0  0  0  0  0
   43.0755   17.7710  -24.9441 H   0  0  0  0  0  0  0  0  0  0  0  0
   45.3429   17.1344  -24.1005 H   0  0  0  0  0  0  0  0  0  0  0  0
   45.3429   18.5449  -23.0361 H   0  0  0  0  0  0  0  0  0  0  0  0
   45.1022   20.0447  -25.0237 H   0  0  0  0  0  0  0  0  0  0  0  0
   45.1022   18.6342  -26.0881 H   0  0  0  0  0  0  0  0  0  0  0  0
   47.3696   17.9976  -25.2444 H   0  0  0  0  0  0  0  0  0  0  0  0
   47.3695   19.4081  -24.1800 H   0  0  0  0  0  0  0  0  0  0  0  0
   47.1289   20.9079  -26.1676 H   0  0  0  0  0  0  0  0  0  0  0  0
   47.1288   19.4974  -27.2320 H   0  0  0  0  0  0  0  0  0  0  0  0
   49.3961   18.8608  -26.3883 H   0  0  0  0  0  0  0  0  0  0  0  0
   49.3963   20.2713  -25.3240 H   0  0  0  0  0  0  0  0  0  0  0  0
   49.1566   21.7714  -27.3108 H   0  0  0  0  0  0  0  0  0  0  0  0
   49.1545   20.3614  -28.3758 H   0  0  0  0  0  0  0  0  0  0  0  0
   51.4218   19.7222  -27.5342 H   0  0  0  0  0  0  0  0  0  0  0  0
   51.4240   21.1321  -26.4691 H   0  0  0  0  0  0  0  0  0  0  0  0
   51.1823   22.6328  -28.4567 H   0  0  0  0  0  0  0  0  0  0  0  0
   51.1821   21.2222  -29.5209 H   0  0  0  0  0  0  0  0  0  0  0  0
   53.4494   20.5854  -28.6760 H   0  0  0  0  0  0  0  0  0  0  0  0
   53.4496   21.9974  -27.6136 H   0  0  0  0  0  0  0  0  0  0  0  0
   53.2100   23.4948  -29.6026 H   0  0  0  0  0  0  0  0  0  0  0  0
   53.2077   22.0832  -30.6656 H   0  0  0  0  0  0  0  0  0  0  0  0
   55.4751   21.4449  -29.8217 H   0  0  0  0  0  0  0  0  0  0  0  0
   55.4773   22.8579  -28.7606 H   0  0  0  0  0  0  0  0  0  0  0  0
   55.2355   24.3529  -30.7523 H   0  0  0  0  0  0  0  0  0  0  0  0
   55.2355   22.9395  -31.8127 H   0  0  0  0  0  0  0  0  0  0  0  0
   57.5028   22.3054  -30.9687 H   0  0  0  0  0  0  0  0  0  0  0  0
   57.5028   23.7174  -29.9064 H   0  0  0  0  0  0  0  0  0  0  0  0
   57.2611   25.2139  -31.8969 H   0  0  0  0  0  0  0  0  0  0  0  0
   57.2633   23.8015  -32.9586 H   0  0  0  0  0  0  0  0  0  0  0  0
   59.5307   23.1689  -32.1119 H   0  0  0  0  0  0  0  0  0  0  0  0
   59.5282   24.5814  -31.0502 H   0  0  0  0  0  0  0  0  0  0  0  0
   59.2865   26.0768  -33.0415 H   0  0  0  0  0  0  0  0  0  0  0  0
   59.2911   24.6639  -34.1026 H   0  0  0  0  0  0  0  0  0  0  0  0
   61.5585   24.0341  -33.2538 H   0  0  0  0  0  0  0  0  0  0  0  0
   61.5538   25.4471  -32.1928 H   0  0  0  0  0  0  0  0  0  0  0  0
   61.3131   26.9417  -34.1843 H   0  0  0  0  0  0  0  0  0  0  0  0
   61.3178   25.5287  -35.2453 H   0  0  0  0  0  0  0  0  0  0  0  0
   63.5852   24.8989  -34.3965 H   0  0  0  0  0  0  0  0  0  0  0  0
   63.5804   26.3119  -33.3355 H   0  0  0  0  0  0  0  0  0  0  0  0
   63.3398   27.8065  -35.3270 H   0  0  0  0  0  0  0  0  0  0  0  0
   63.3445   26.3935  -36.3880 H   0  0  0  0  0  0  0  0  0  0  0  0
   65.6118   25.7637  -35.5392 H   0  0  0  0  0  0  0  0  0  0  0  0
   65.6071   27.1768  -34.4782 H   0  0  0  0  0  0  0  0  0  0  0  0
   65.3664   28.6714  -36.4697 H   0  0  0  0  0  0  0  0  0  0  0  0
   65.3711   27.2584  -37.5307 H   0  0  0  0  0  0  0  0  0  0  0  0
   67.6385   26.6286  -36.6819 H   0  0  0  0  0  0  0  0  0  0  0  0
   67.6338   28.0416  -35.6209 H   0  0  0  0  0  0  0  0  0  0  0  0
   67.3931   29.5362  -37.6124 H   0  0  0  0  0  0  0  0  0  0  0  0
   67.3978   28.1232  -38.6734 H   0  0  0  0  0  0  0  0  0  0  0  0
   69.6650   27.4934  -37.8246 H   0  0  0  0  0  0  0  0  0  0  0  0
   69.6605   28.9064  -36.7636 H   0  0  0  0  0  0  0  0  0  0  0  0
   69.4208   30.4013  -38.7544 H   0  0  0  0  0  0  0  0  0  0  0  0
   69.4234   28.9888  -39.8160 H   0  0  0  0  0  0  0  0  0  0  0  0
   71.6906   28.3563  -38.9693 H   0  0  0  0  0  0  0  0  0  0  0  0
   71.6882   29.7688  -37.9076 H   0  0  0  0  0  0  0  0  0  0  0  0
   71.4476   31.2646  -39.8983 H   0  0  0  0  0  0  0  0  0  0  0  0
   71.4499   29.8521  -40.9599 H   0  0  0  0  0  0  0  0  0  0  0  0
   73.7173   29.2194  -40.1133 H   0  0  0  0  0  0  0  0  0  0  0  0
   73.7149   30.6319  -39.0516 H   0  0  0  0  0  0  0  0  0  0  0  0
   73.4742   32.1277  -41.0423 H   0  0  0  0  0  0  0  0  0  0  0  0
   73.4766   30.7152  -42.1039 H   0  0  0  0  0  0  0  0  0  0  0  0
   75.7439   30.0827  -41.2573 H   0  0  0  0  0  0  0  0  0  0  0  0
   75.7414   31.4951  -40.1956 H   0  0  0  0  0  0  0  0  0  0  0  0
   75.4998   32.9906  -42.1870 H   0  0  0  0  0  0  0  0  0  0  0  0
   75.5044   31.5776  -43.2479 H   0  0  0  0  0  0  0  0  0  0  0  0
   77.7719   30.9479  -42.3992 H   0  0  0  0  0  0  0  0  0  0  0  0
   77.7671   32.3608  -41.3383 H   0  0  0  0  0  0  0  0  0  0  0  0
   77.5272   33.8554  -43.3299 H   0  0  0  0  0  0  0  0  0  0  0  0
   77.5319   32.4427  -44.3907 H   0  0  0  0  0  0  0  0  0  0  0  0
   79.8000   31.8130  -43.5437 H   0  0  0  0  0  0  0  0  0  0  0  0
   79.7955   33.2247  -42.4807 H   0  0  0  0  0  0  0  0  0  0  0  0
   79.5572   34.7222  -44.4701 H   0  0  0  0  0  0  0  0  0  0  0  0
   79.5597   33.3121  -45.5332 H   0  0  0  0  0  0  0  0  0  0  0  0
   81.8380   32.6879  -44.7001 H   0  0  0  0  0  0  0  0  0  0  0  0
   81.8356   34.0981  -43.6370 H   0  0  0  0  0  0  0  0  0  0  0  0
   81.6164   34.1837  -46.6914 H   0  0  0  0  0  0  0  0  0  0  0  0
   83.0605   34.5778  -45.7375 H   0  0  0  0  0  0  0  0  0  0  0  0
   81.6140   35.6003  -45.6236 H   0  0  0  0  0  0  0  0  0  0  0  0
  1  2  1  0  0  0  0
  1 82  1  0  0  0  0
  1 83  1  0  0  0  0
  1 84  1  0  0  0  0
  2  3  1  0  0  0  0
  2 85  1  0  0  0  0
  2 86  1  0  0  0  0
  3  4  1  0  0  0  0
  3 87  1  0  0  0  0
  3 88  1  0  0  0  0
  4  5  1  0  0  0  0
  4 89  1  0  0  0  0
  4 90  1  0  0  0  0
  5  6  1  0  0  0  0
  5 91  1  0  0  0  0
  5 92  1  0  0  0  0
  6  7  1  0  0  0  0
  7  8  1  0  0  0  0
  7 93  1  0  0  0  0
  7 94  1  0  0  0  0
  8  9  1  0  0  0  0
  8 95  1  0  0  0  0
  8 96  1  0  0  0  0
  9 10  1  0  0  0  0
  9 97  1  0  0  0  0
  9 98  1  0  0  0  0
 10 11  1  0  0  0  0
 10 99  1  0  0  0  0
 10100  1  0  0  0  0
 11 12  1  0  0  0  0
 11101  1  0  0  0  0
 11102  1  0  0  0  0
 12 13  1  0  0  0  0
 12103  1  0  0  0  0
 12104  1  0  0  0  0
 13 14  1  0  0  0  0
 13105  1  0  0  0  0
 13106  1  0  0  0  0
 14 15  1  0  0  0  0
 14107  1  0  0  0  0
 14108  1  0  0  0  0
 15 16  1  0  0  0  0
 15109  1  0  0  0  0
 15110  1  0  0  0  0
 16 17  1  0  0  0  0
 16111  1  0  0  0  0
 16112  1  0  0  0  0
 17 18  1  0  0  0  0
 17113  1  0  0  0  0
 17114  1  0  0  0  0
 18 19  1  0  0  0  0
 18115  1  0  0  0  0
 18116  1  0  0  0  0
 19 20  1  0  0  0  0
 19117  1  0  0  0  0
 19118  1  0  0  0  0
 20 21  1  0  0  0  0
 20119  1  0  0  0  0
 20120  1  0  0  0  0
 21 22  1  0  0  0  0
 21121  1  0  0  0  0
 21122  1  0  0  0  0
 22 23  1  0  0  0  0
 22123  1  0  0  0  0
 22124  1  0  0  0  0
 23 24  1  0  0  0  0
 23125  1  0  0  0  0
 23126  1  0  0  0  0
 24 25  1  0  0  0  0
 24127  1  0  0  0  0
 24128  1  0  0  0  0
 25 26  1  0  0  0  0
 25129  1  0  0  0  0
 25130  1  0  0  0  0
 26 27  1  0  0  0  0
 26131  1  0  0  0  0
 26132  1  0  0  0  0
 27 28  1  0  0  0  0
 27133  1  0  0  0  0
 27134  1  0  0  0  0
 28 29  1  0  0  0  0
 28135  1  0  0  0  0
 28136  1  0  0  0  0
 29 30  1  0  0  0  0
 29137  1  0  0  0  0
 29138  1  0  0  0  0
 30 31  1  0  0  0  0
 30139  1  0  0  0  0
 30140  1  0  0  0  0
 31 32  1  0  0  0  0
 31141  1  0  0  0  0
 31142  1  0  0  0  0
 32 33  1  0  0  0  0
 32143  1  0  0  0  0
 32144  1  0  0  0  0
 33 34  1  0  0  0  0
 33145  1  0  0  0  0
 33146  1  0  0  0  0
 34 35  1  0  0  0  0
 34147  1  0  0  0  0
 34148  1  0  0  0  0
 35 36  1  0  0  0  0
 35149  1  0  0  0  0
 35150  1  0  0  0  0
 36 37  1  0  0  0  0
 36151  1  0  0  0  0
 36152  1  0  0  0  0
 37 38  1  0  0  0  0
 37153  1  0  0  0  0
 37154  1  0  0  0  0
 38 39  1  0  0  0  0
 38155  1  0  0  0  0
 38156  1  0  0  0  0
 39 40  1  0  0  0  0
 39157  1  0  0  0  0
 39158  1  0  0  0  0
 40 41  1  0  0  0  0
 40159  1  0  0  0  0
 40160  1  0  0  0  0
 41 42  1  0  0  0  0
 41161  1  0  0  0  0
 41162  1  0  0  0  0
 42 43  1  0  0  0  0
 42163  1  0  0  0  0
 42164  1  0  0  0  0
 43 44  1  0  0  0  0
 43165  1  0  0  0  0
 43166  1  0  0  0  0
 44 45  1  0  0  0  0
 44167  1  0  0  0  0
 44168  1  0  0  0  0
 45 46  1  0  0  0  0
 45169  1  0  0  0  0
 45170  1  0  0  0  0
 46 47  1  0  0  0  0
 46171  1  0  0  0  0
 46172  1  0  0  0  0
 47 48  1  0  0  0  0
 47173  1  0  0  0  0
 47174  1  0  0  0  0
 48 49  1  0  0  0  0
 48175  1  0  0  0  0
 48176  1  0  0  0  0
 49 50  1  0  0  0  0
 49177  1  0  0  0  0
 49178  1  0  0  0  0
 50 51  1  0  0  0  0
 50179  1  0  0  0  0
 50180  1  0  0  0  0
 51 52  1  0  0  0  0
 51181  1  0  0  0  0
 51182  1  0  0  0  0
 52 53  1  0  0  0  0
 52183  1  0  0  0  0
 52184  1  0  0  0  0
 53 54  1  0  0  0  0
 53185  1  0  0  0  0
 53186  1  0  0  0  0
 54 55  1  0  0  0  0
 54187  1  0  0  0  0
 54188  1  0  0  0  0
 55 56  1  0  0  0  0
 55189  1  0  0  0  0
 55190  1  0  0  0  0
 56 57  1  0  0  0  0
 56191  1  0  0  0  0
 56192  1  0  0  0  0
 57 58  1  0  0  0  0
 57193  1  0  0  0  0
 57194  1  0  0  0  0
 58 59  1  0  0  0  0
 58195  1  0  0  0  0
 58196  1  0  0  0  0
 59 60  1  0  0  0  0
 59197  1  0  0  0  0
 59198  1  0  0  0  0
 60 61  1  0  0  0  0
 60199  1  0  0  0  0
 60200  1  0  0  0  0
 61 62  1  0  0  0  0
 61201  1  0  0  0  0
 61202  1  0  0  0  0
 62 63  1  0  0  0  0
 62203  1  0  0  0  0
 62204  1  0  0  0  0
 63 64  1  0  0  0  0
 63205  1  0  0  0  0
 63206  1  0  0  0  0
 64 65  1  0  0  0  0
 64207  1  0  0  0  0
 64208  1  0  0  0  0
 65 66  1  0  0  0  0
 65209  1  0  0  0  0
 65210  1  0  0  0  0
 66 67  1  0  0  0  0
 66211  1  0  0  0  0
 66212  1  0  0  0  0
 67 68  1  0  0  0  0
 67213  1  0  0  0  0
 67214  1  0  0  0  0
 68 69  1  0  0  0  0
 68215  1  0  0  0  0
 68216  1  0  0  0  0
 69 70  1  0  0  0  0
 69217  1  0  0  0  0
 69218  1  0  0  0  0
 70 71  1  0  0  0  0
 70219  1  0  0  0  0
 70220  1  0  0  0  0
 71 72  1  0  0  0  0
 71221  1  0  0  0  0
 71222  1  0  0  0  0
 72 73  1  0  0  0  0
 72223  1  0  0  0  0
 72224  1  0  0  0  0
 73 74  1  0  0  0  0
 73225  1  0  0  0  0
 73226  1  0  0  0  0
 74 75  1  0  0  0  0
 74227  1  0  0  0  0
 74228  1  0  0  0  0
 75 76  1  0  0  0  0
 75229  1  0  0  0  0
 75230  1  0  0  0  0
 76 77  1  0  0  0  0
 76231  1  0  0  0  0
 76232  1  0  0  0  0
 77 78  1  0  0  0  0
 77233  1  0  0  0  0
 77234  1  0  0  0  0
 78 79  1  0  0  0  0
 78235  1  0  0  0  0
 78236  1  0  0  0  0
 79 80  1  0  0  0  0
 79237  1  0  0  0  0
 79238  1  0  0  0  0
 80 81  1  0  0  0  0
 80239  1  0  0  0  0
 80240  1  0  0  0  0
 81241  1  0  0  0  0
 81242  1  0  0  0  0
 81243  1  0  0  0  0
M  END
$$$$
