
 OpenBabel04232216523D

 69 70  0  0  1  0  0  0  0  0999 V2000
    4.8744   -0.5779   -2.2441 C   0  0  0  0  0  0  0  0  0  0  0  0
    6.5238   -0.1159   -3.1921 C   0  0  0  0  0  0  0  0  0  0  0  0
    8.4890    0.0382   -3.6211 C   0  0  0  0  0  0  0  0  0  0  0  0
   10.0387    1.4284   -3.9890 C   0  0  0  0  0  0  0  0  0  0  0  0
    8.3475    2.1991   -3.5012 C   0  0  0  0  0  0  0  0  0  0  0  0
    7.9991    2.1213   -1.9227 C   0  0  0  0  0  0  0  0  0  0  0  0
    8.3122    3.5688   -1.8436 C   0  0  0  0  0  0  0  0  0  0  0  0
    9.7542    3.4132   -1.7111 C   0  0  0  0  0  0  0  0  0  0  0  0
   10.1961    4.2637   -2.8281 C   0  0  0  0  0  0  0  0  0  0  0  0
   11.5833    4.1324   -2.4963 C   0  0  0  0  0  0  0  0  0  0  0  0
   12.1435    5.1178   -3.3769 C   0  0  0  0  0  0  0  0  0  0  0  0
   13.4698    5.0783   -2.7316 C   0  0  0  0  0  0  0  0  0  0  0  0
   14.1389    6.1566   -3.4334 C   0  0  0  0  0  0  0  0  0  0  0  0
   15.3745    5.4325   -3.6811 C   0  0  0  0  0  0  0  0  0  0  0  0
   16.2081    5.0881   -2.8632 O   0  0  0  0  0  0  0  0  0  0  0  0
   15.2708    5.1926   -5.0646 N   0  0  0  0  0  0  0  0  0  0  0  0
   13.8475    4.2165   -5.4328 C   0  0  0  0  0  0  0  0  0  0  0  0
   13.4013    2.8540   -4.7256 C   0  0  0  0  0  0  0  0  0  0  0  0
   15.5459    2.7567   -4.8491 C   0  0  0  0  0  0  0  0  0  0  0  0
   17.3388    3.7401   -4.9118 C   0  0  3  0  0  0  0  0  0  0  0  0
   18.8666    3.3339   -5.9688 C   0  0  0  0  0  0  0  0  0  0  0  0
   18.5646    5.2089   -4.6084 C   0  0  0  0  0  0  0  0  0  0  0  0
   19.1081    6.6948   -4.2377 C   0  0  0  0  0  0  0  0  0  0  0  0
   18.4767    7.6600   -5.2134 C   0  0  0  0  0  0  0  0  0  0  0  0
   17.0324    7.6457   -4.7166 C   0  0  0  0  0  0  0  0  0  0  0  0
   15.8379    6.6972   -5.5720 C   0  0  0  0  0  0  0  0  0  0  0  0
   11.7476    1.8369   -4.3803 N   0  0  0  0  0  0  0  0  0  0  0  0
    4.1409   -0.9816   -2.9592 H   0  0  0  0  0  0  0  0  0  0  0  0
    4.2125    0.2181   -1.8036 H   0  0  0  0  0  0  0  0  0  0  0  0
    4.8367   -1.4016   -1.4660 H   0  0  0  0  0  0  0  0  0  0  0  0
    5.9439    0.4872   -3.8940 H   0  0  0  0  0  0  0  0  0  0  0  0
    6.5514   -1.1617   -3.4669 H   0  0  0  0  0  0  0  0  0  0  0  0
    8.2358   -0.3684   -4.6083 H   0  0  0  0  0  0  0  0  0  0  0  0
    8.7571   -0.5087   -2.6874 H   0  0  0  0  0  0  0  0  0  0  0  0
    7.5043    2.8838   -3.7974 H   0  0  0  0  0  0  0  0  0  0  0  0
    7.6453    1.6242   -4.1480 H   0  0  0  0  0  0  0  0  0  0  0  0
    8.6527    1.4054   -1.3718 H   0  0  0  0  0  0  0  0  0  0  0  0
    7.0403    2.0438   -1.3819 H   0  0  0  0  0  0  0  0  0  0  0  0
    7.8194    4.2600   -1.1847 H   0  0  0  0  0  0  0  0  0  0  0  0
    8.0896    4.1112   -2.7947 H   0  0  0  0  0  0  0  0  0  0  0  0
   10.1973    2.4025   -1.8778 H   0  0  0  0  0  0  0  0  0  0  0  0
   10.0555    3.6445   -0.6965 H   0  0  0  0  0  0  0  0  0  0  0  0
    9.8062    5.2838   -2.7542 H   0  0  0  0  0  0  0  0  0  0  0  0
    9.9891    3.9302   -3.8655 H   0  0  0  0  0  0  0  0  0  0  0  0
   11.9836    3.1236   -2.6311 H   0  0  0  0  0  0  0  0  0  0  0  0
   11.7623    4.3654   -1.4437 H   0  0  0  0  0  0  0  0  0  0  0  0
   11.6842    6.1081   -3.3489 H   0  0  0  0  0  0  0  0  0  0  0  0
   11.9966    4.8013   -4.4226 H   0  0  0  0  0  0  0  0  0  0  0  0
   13.9098    4.0590   -2.8032 H   0  0  0  0  0  0  0  0  0  0  0  0
   13.4975    5.2601   -1.6603 H   0  0  0  0  0  0  0  0  0  0  0  0
   14.1750    7.1144   -2.9509 H   0  0  0  0  0  0  0  0  0  0  0  0
   13.6248    6.3575   -4.3975 H   0  0  0  0  0  0  0  0  0  0  0  0
   13.9153    4.1242   -6.5256 H   0  0  0  0  0  0  0  0  0  0  0  0
   15.5417    2.8075   -5.9114 H   0  0  0  0  0  0  0  0  0  0  0  0
   15.7876    1.7982   -4.5681 H   0  0  0  0  0  0  0  0  0  0  0  0
   17.7498    3.2527   -3.9645 H   0  0  0  0  0  0  0  0  0  0  0  0
   18.9818    3.9778   -6.8869 H   0  0  0  0  0  0  0  0  0  0  0  0
   19.3259    2.3514   -6.0491 H   0  0  0  0  0  0  0  0  0  0  0  0
   19.8478    3.7463   -5.5025 H   0  0  0  0  0  0  0  0  0  0  0  0
   18.9838    5.4199   -5.6544 H   0  0  0  0  0  0  0  0  0  0  0  0
   19.4395    4.7574   -4.0706 H   0  0  0  0  0  0  0  0  0  0  0  0
   20.2183    6.8589   -4.3645 H   0  0  0  0  0  0  0  0  0  0  0  0
   19.0001    6.9215   -3.1690 H   0  0  0  0  0  0  0  0  0  0  0  0
   18.5764    7.3480   -6.2614 H   0  0  0  0  0  0  0  0  0  0  0  0
   19.0058    8.6415   -5.1968 H   0  0  0  0  0  0  0  0  0  0  0  0
   16.7831    8.7193   -4.7451 H   0  0  0  0  0  0  0  0  0  0  0  0
   17.0471    7.4365   -3.6324 H   0  0  0  0  0  0  0  0  0  0  0  0
   16.1076    6.7318   -6.6236 H   0  0  0  0  0  0  0  0  0  0  0  0
   15.0292    7.3961   -5.3450 H   0  0  0  0  0  0  0  0  0  0  0  0
  1  2  1  0  0  0  0
  1 28  1  0  0  0  0
  1 29  1  0  0  0  0
  1 30  1  0  0  0  0
  2  3  1  0  0  0  0
  2 31  1  0  0  0  0
  2 32  1  0  0  0  0
  3  4  1  0  0  0  0
  3 33  1  0  0  0  0
  3 34  1  0  0  0  0
  4  5  1  0  0  0  0
  4 27  2  3  0  0  0
  5  6  1  0  0  0  0
  5 35  1  0  0  0  0
  5 36  1  0  0  0  0
  6  7  1  0  0  0  0
  6 37  1  0  0  0  0
  6 38  1  0  0  0  0
  7  8  1  0  0  0  0
  7 39  1  0  0  0  0
  7 40  1  0  0  0  0
  8  9  1  0  0  0  0
  8 41  1  0  0  0  0
  8 42  1  0  0  0  0
  9 10  1  0  0  0  0
  9 43  1  0  0  0  0
  9 44  1  0  0  0  0
 10 11  1  0  0  0  0
 10 45  1  0  0  0  0
 10 46  1  0  0  0  0
 11 12  1  0  0  0  0
 11 47  1  0  0  0  0
 11 48  1  0  0  0  0
 12 13  1  0  0  0  0
 12 49  1  0  0  0  0
 12 50  1  0  0  0  0
 13 14  1  0  0  0  0
 13 51  1  0  0  0  0
 13 52  1  0  0  0  0
 14 15  2  0  0  0  0
 14 16  1  0  0  0  0
 16 17  1  0  0  0  0
 16 26  1  0  0  0  0
 17 18  2  3  0  0  0
 17 53  1  0  0  0  0
 18 19  1  0  0  0  0
 18 27  1  0  0  0  0
 19 20  1  0  0  0  0
 19 54  1  0  0  0  0
 19 55  1  0  0  0  0
 20 21  1  0  0  0  0
 20 22  1  0  0  0  0
 20 56  1  0  0  0  0
 21 57  1  0  0  0  0
 21 58  1  0  0  0  0
 21 59  1  0  0  0  0
 22 23  1  0  0  0  0
 22 60  1  0  0  0  0
 22 61  1  0  0  0  0
 23 24  1  0  0  0  0
 23 62  1  0  0  0  0
 23 63  1  0  0  0  0
 24 25  1  0  0  0  0
 24 64  1  0  0  0  0
 24 65  1  0  0  0  0
 25 26  1  0  0  0  0
 25 66  1  0  0  0  0
 25 67  1  0  0  0  0
 26 68  1  0  0  0  0
 26 69  1  0  0  0  0
M  END
$$$$
