
 OpenBabel04232216453D

 38 39  0  0  0  0  0  0  0  0999 V2000
    4.3972    0.6378    2.7874 C   0  0  0  0  0  0  0  0  0  0  0  0
    5.2652   -0.6042    2.5799 C   0  0  0  0  0  0  0  0  0  0  0  0
    4.5231   -1.5769    1.7116 C   0  0  0  0  0  0  0  0  0  0  0  0
    5.0796   -1.7085    0.5004 C   0  0  0  0  0  0  0  0  0  0  0  0
    5.0315   -0.6199   -0.5473 C   0  0  0  0  0  0  0  0  0  0  0  0
    5.9460   -2.8663    0.4479 C   0  0  0  0  0  0  0  0  0  0  0  0
    5.3604   -4.0628    1.2172 C   0  0  0  0  0  0  0  0  0  0  0  0
    7.2607   -2.7668    0.0969 C   0  0  0  0  0  0  0  0  0  0  0  0
    7.9749   -1.4660   -0.2406 C   0  0  0  0  0  0  0  0  0  0  0  0
    8.1668   -3.9060    0.3426 C   0  0  0  0  0  0  0  0  0  0  0  0
    9.0355   -3.7156    1.3493 C   0  0  0  0  0  0  0  0  0  0  0  0
   10.3546   -3.0209    1.0905 C   0  0  0  0  0  0  0  0  0  0  0  0
    8.5294   -3.6841    2.7303 C   0  0  0  0  0  0  0  0  0  0  0  0
    7.9933   -2.5731    3.3314 C   0  0  0  0  0  0  0  0  0  0  0  0
    8.6280   -2.0503    4.5074 C   0  0  0  0  0  0  0  0  0  0  0  0
    8.5037   -0.8749    3.8692 C   0  0  0  0  0  0  0  0  0  0  0  0
    7.6119   -1.3388    2.9847 N   0  0  0  0  0  0  0  0  0  0  0  0
    6.4443   -0.5662    3.1250 N   0  0  0  0  0  0  0  0  0  0  0  0
    3.4745    0.3605    3.3073 H   0  0  0  0  0  0  0  0  0  0  0  0
    4.1139    1.0280    1.7980 H   0  0  0  0  0  0  0  0  0  0  0  0
    4.9167    1.4280    3.3259 H   0  0  0  0  0  0  0  0  0  0  0  0
    3.4729   -1.2858    1.7185 H   0  0  0  0  0  0  0  0  0  0  0  0
    4.0155   -0.3953   -0.8774 H   0  0  0  0  0  0  0  0  0  0  0  0
    5.6106   -0.8663   -1.4447 H   0  0  0  0  0  0  0  0  0  0  0  0
    5.4507    0.3115   -0.1375 H   0  0  0  0  0  0  0  0  0  0  0  0
    4.2635   -4.0621    1.2098 H   0  0  0  0  0  0  0  0  0  0  0  0
    5.6581   -3.9914    2.2731 H   0  0  0  0  0  0  0  0  0  0  0  0
    5.6491   -5.0444    0.8458 H   0  0  0  0  0  0  0  0  0  0  0  0
    7.3591   -0.5729   -0.2642 H   0  0  0  0  0  0  0  0  0  0  0  0
    8.5062   -1.5298   -1.1936 H   0  0  0  0  0  0  0  0  0  0  0  0
    8.6894   -1.2041    0.5440 H   0  0  0  0  0  0  0  0  0  0  0  0
    7.5690   -4.8099    0.4687 H   0  0  0  0  0  0  0  0  0  0  0  0
   10.3617   -2.4901    0.1306 H   0  0  0  0  0  0  0  0  0  0  0  0
   11.1614   -3.7561    1.0311 H   0  0  0  0  0  0  0  0  0  0  0  0
   10.6046   -2.2874    1.8631 H   0  0  0  0  0  0  0  0  0  0  0  0
    9.0163   -4.4188    3.3710 H   0  0  0  0  0  0  0  0  0  0  0  0
    9.2272   -2.4187    5.3217 H   0  0  0  0  0  0  0  0  0  0  0  0
    8.8779    0.1150    4.0663 H   0  0  0  0  0  0  0  0  0  0  0  0
  1  2  1  0  0  0  0
  1 19  1  0  0  0  0
  1 20  1  0  0  0  0
  1 21  1  0  0  0  0
  2  3  1  0  0  0  0
  2 18  2  0  0  0  0
  3  4  2  0  0  0  0
  3 22  1  0  0  0  0
  4  5  1  0  0  0  0
  4  6  1  0  0  0  0
  5 23  1  0  0  0  0
  5 24  1  0  0  0  0
  5 25  1  0  0  0  0
  6  7  1  0  0  0  0
  6  8  2  0  0  0  0
  7 26  1  0  0  0  0
  7 27  1  0  0  0  0
  7 28  1  0  0  0  0
  8  9  1  0  0  0  0
  8 10  1  0  0  0  0
  9 29  1  0  0  0  0
  9 30  1  0  0  0  0
  9 31  1  0  0  0  0
 10 11  2  0  0  0  0
 10 32  1  0  0  0  0
 11 12  1  0  0  0  0
 11 13  1  0  0  0  0
 12 33  1  0  0  0  0
 12 34  1  0  0  0  0
 12 35  1  0  0  0  0
 13 14  2  0  0  0  0
 13 36  1  0  0  0  0
 14 15  1  0  0  0  0
 14 17  1  0  0  0  0
 15 16  2  0  0  0  0
 15 37  1  0  0  0  0
 16 17  1  0  0  0  0
 16 38  1  0  0  0  0
 17 18  1  0  0  0  0
M  END
$$$$
