
 OpenBabel04232216393D

 47 48  0  0  1  0  0  0  0  0999 V2000
    1.4492    0.2100    1.5368 C   0  0  0  0  0  0  0  0  0  0  0  0
    2.3627   -0.7619    1.4086 C   0  0  0  0  0  0  0  0  0  0  0  0
    2.9961   -1.1528    0.0978 C   0  0  0  0  0  0  0  0  0  0  0  0
    4.5519   -1.1290    0.0259 C   0  0  3  0  0  0  0  0  0  0  0  0
    5.2554   -2.0910    1.0195 C   0  0  3  0  0  0  0  0  0  0  0  0
    4.5778   -3.4571    1.1875 C   0  0  0  0  0  0  0  0  0  0  0  0
    6.7270   -2.3496    0.6127 C   0  0  0  0  0  0  0  0  0  0  0  0
    7.6625   -1.1356    0.5163 C   0  0  0  0  0  0  0  0  0  0  0  0
    7.2775    0.0793    1.3786 C   0  0  3  0  0  0  0  0  0  0  0  0
    7.1745   -0.3238    2.8646 C   0  0  0  0  0  0  0  0  0  0  0  0
    7.5367   -1.4552    3.2087 O   0  0  0  0  0  0  0  0  0  0  0  0
    6.7737    0.6911    3.8621 C   0  0  0  0  0  0  0  0  0  0  0  0
    6.4586    2.0670    3.8267 C   0  0  0  0  0  0  0  0  0  0  0  0
    6.3152    2.0480    5.1697 C   0  0  0  0  0  0  0  0  0  0  0  0
    6.6658    0.6492    5.1962 C   0  0  0  0  0  0  0  0  0  0  0  0
    6.8070   -0.3326    6.3498 C   0  0  0  0  0  0  0  0  0  0  0  0
    7.7535   -1.5232    6.2423 C   0  0  0  0  0  0  0  0  0  0  0  0
    9.2307   -1.1584    6.1213 C   0  0  0  0  0  0  0  0  0  0  0  0
    9.5475   -0.5660    4.8724 O   0  0  0  0  0  0  0  0  0  0  0  0
    6.1287    0.8156    0.7268 C   0  0  0  0  0  0  0  0  0  0  0  0
    5.0484    0.3097    0.1046 C   0  0  0  0  0  0  0  0  0  0  0  0
    0.9867    0.4144    2.4966 H   0  0  0  0  0  0  0  0  0  0  0  0
    1.1287    0.8092    0.6904 H   0  0  0  0  0  0  0  0  0  0  0  0
    2.6228   -1.3446    2.2889 H   0  0  0  0  0  0  0  0  0  0  0  0
    2.6009   -0.5116   -0.7030 H   0  0  0  0  0  0  0  0  0  0  0  0
    2.6441   -2.1608   -0.1540 H   0  0  0  0  0  0  0  0  0  0  0  0
    4.7940   -1.4761   -0.9896 H   0  0  0  0  0  0  0  0  0  0  0  0
    5.2153   -1.6374    2.0153 H   0  0  0  0  0  0  0  0  0  0  0  0
    4.5212   -3.9981    0.2362 H   0  0  0  0  0  0  0  0  0  0  0  0
    3.5696   -3.3682    1.5986 H   0  0  0  0  0  0  0  0  0  0  0  0
    5.1419   -4.0724    1.8985 H   0  0  0  0  0  0  0  0  0  0  0  0
    6.7556   -2.8775   -0.3497 H   0  0  0  0  0  0  0  0  0  0  0  0
    7.1666   -3.0537    1.3318 H   0  0  0  0  0  0  0  0  0  0  0  0
    7.7422   -0.8266   -0.5343 H   0  0  0  0  0  0  0  0  0  0  0  0
    8.6745   -1.4638    0.7934 H   0  0  0  0  0  0  0  0  0  0  0  0
    8.1387    0.7640    1.3402 H   0  0  0  0  0  0  0  0  0  0  0  0
    6.3728    2.8265    3.0588 H   0  0  0  0  0  0  0  0  0  0  0  0
    6.0694    2.7732    5.9336 H   0  0  0  0  0  0  0  0  0  0  0  0
    5.8034   -0.7678    6.4771 H   0  0  0  0  0  0  0  0  0  0  0  0
    6.9659    0.2157    7.2864 H   0  0  0  0  0  0  0  0  0  0  0  0
    7.4522   -2.1765    5.4189 H   0  0  0  0  0  0  0  0  0  0  0  0
    7.6369   -2.1247    7.1537 H   0  0  0  0  0  0  0  0  0  0  0  0
    9.8419   -2.0624    6.2111 H   0  0  0  0  0  0  0  0  0  0  0  0
    9.5314   -0.4712    6.9177 H   0  0  0  0  0  0  0  0  0  0  0  0
    9.1495   -1.1442    4.1894 H   0  0  0  0  0  0  0  0  0  0  0  0
    6.2928    1.8891    0.6187 H   0  0  0  0  0  0  0  0  0  0  0  0
    4.4341    1.0242   -0.4478 H   0  0  0  0  0  0  0  0  0  0  0  0
  1  2  2  0  0  0  0
  1 22  1  0  0  0  0
  1 23  1  0  0  0  0
  2  3  1  0  0  0  0
  2 24  1  0  0  0  0
  3  4  1  0  0  0  0
  3 25  1  0  0  0  0
  3 26  1  0  0  0  0
  4  5  1  0  0  0  0
  4 21  1  0  0  0  0
  4 27  1  0  0  0  0
  5  6  1  0  0  0  0
  5  7  1  0  0  0  0
  5 28  1  0  0  0  0
  6 29  1  0  0  0  0
  6 30  1  0  0  0  0
  6 31  1  0  0  0  0
  7  8  1  0  0  0  0
  7 32  1  0  0  0  0
  7 33  1  0  0  0  0
  8  9  1  0  0  0  0
  8 34  1  0  0  0  0
  8 35  1  0  0  0  0
  9 10  1  0  0  0  0
  9 20  1  0  0  0  0
  9 36  1  0  0  0  0
 10 11  2  0  0  0  0
 10 12  1  0  0  0  0
 12 13  1  0  0  0  0
 12 15  2  0  0  0  0
 13 14  2  0  0  0  0
 13 37  1  0  0  0  0
 14 15  1  0  0  0  0
 14 38  1  0  0  0  0
 15 16  1  0  0  0  0
 16 17  1  0  0  0  0
 16 39  1  0  0  0  0
 16 40  1  0  0  0  0
 17 18  1  0  0  0  0
 17 41  1  0  0  0  0
 17 42  1  0  0  0  0
 18 19  1  0  0  0  0
 18 43  1  0  0  0  0
 18 44  1  0  0  0  0
 19 45  1  0  0  0  0
 20 21  2  0  0  0  0
 20 46  1  0  0  0  0
 21 47  1  0  0  0  0
M  END
$$$$
