
 OpenBabel04232216463D

 46 48  0  0  1  0  0  0  0  0999 V2000
    1.4115    0.7607   -0.1847 C   0  0  0  0  0  0  0  0  0  0  0  0
    2.8609    0.8249    0.2478 C   0  0  0  0  0  0  0  0  0  0  0  0
    3.4279   -0.4660    0.7533 C   0  0  0  0  0  0  0  0  0  0  0  0
    4.2981   -1.2569    0.1045 C   0  0  0  0  0  0  0  0  0  0  0  0
    4.7313   -1.0919   -1.1936 N   0  0  0  0  0  0  0  0  0  0  0  0
    5.0965   -2.3058    0.9013 C   0  0  0  0  0  0  0  0  0  0  0  0
    5.5552   -3.7068    0.5050 C   0  0  3  0  0  0  0  0  0  0  0  0
    5.1427   -5.0794    0.9870 C   0  0  0  0  0  0  0  0  0  0  0  0
    6.5277   -5.7794    1.0038 C   0  0  0  0  0  0  0  0  0  0  0  0
    7.5530   -4.6090    1.1258 C   0  0  0  0  0  0  0  0  0  0  0  0
    6.6485   -3.4851    1.5933 C   0  0  3  0  0  0  0  0  0  0  0  0
    6.4328   -2.0634    1.2122 C   0  0  0  0  0  0  0  0  0  0  0  0
    7.1521   -0.7616    1.4598 C   0  0  0  0  0  0  0  0  0  0  0  0
    6.4983    0.3404    1.8828 C   0  0  0  0  0  0  0  0  0  0  0  0
    5.4421    0.3384    2.9433 C   0  0  0  0  0  0  0  0  0  0  0  0
    6.7984    1.5835    1.1006 C   0  0  0  0  0  0  0  0  0  0  0  0
    7.9662    1.9365    0.9360 O   0  0  0  0  0  0  0  0  0  0  0  0
    5.7111    2.0438    0.3405 N   0  0  0  0  0  0  0  0  0  0  0  0
    5.9398    2.5287   -1.0063 C   0  0  0  0  0  0  0  0  0  0  0  0
    4.4713    2.3427    0.9668 N   0  0  0  0  0  0  0  0  0  0  0  0
    4.4781    3.7776    1.4016 C   0  0  0  0  0  0  0  0  0  0  0  0
    3.3623    2.0261    0.2397 N   0  0  0  0  0  0  0  0  0  0  0  0
    0.9786   -0.2226    0.0151 H   0  0  0  0  0  0  0  0  0  0  0  0
    1.3271    1.0067   -1.2438 H   0  0  0  0  0  0  0  0  0  0  0  0
    0.8475    1.5021    0.3994 H   0  0  0  0  0  0  0  0  0  0  0  0
    3.1135   -0.7316    1.7546 H   0  0  0  0  0  0  0  0  0  0  0  0
    4.5225   -0.1700   -1.5653 H   0  0  0  0  0  0  0  0  0  0  0  0
    5.7287   -1.2868   -1.2853 H   0  0  0  0  0  0  0  0  0  0  0  0
    5.8816   -3.7704   -0.5485 H   0  0  0  0  0  0  0  0  0  0  0  0
    4.4380   -5.5833    0.3198 H   0  0  0  0  0  0  0  0  0  0  0  0
    4.7081   -5.0640    1.9961 H   0  0  0  0  0  0  0  0  0  0  0  0
    6.7025   -6.3378    0.0767 H   0  0  0  0  0  0  0  0  0  0  0  0
    6.6033   -6.4821    1.8406 H   0  0  0  0  0  0  0  0  0  0  0  0
    8.0251   -4.4095    0.1562 H   0  0  0  0  0  0  0  0  0  0  0  0
    8.3402   -4.8525    1.8441 H   0  0  0  0  0  0  0  0  0  0  0  0
    6.3846   -3.6701    2.6481 H   0  0  0  0  0  0  0  0  0  0  0  0
    8.1388   -0.7200    1.0113 H   0  0  0  0  0  0  0  0  0  0  0  0
    5.3202   -0.6535    3.3964 H   0  0  0  0  0  0  0  0  0  0  0  0
    4.4607    0.6570    2.6138 H   0  0  0  0  0  0  0  0  0  0  0  0
    5.7249    1.0283    3.7420 H   0  0  0  0  0  0  0  0  0  0  0  0
    5.6910    1.7003   -1.6757 H   0  0  0  0  0  0  0  0  0  0  0  0
    6.9858    2.7929   -1.1595 H   0  0  0  0  0  0  0  0  0  0  0  0
    5.2994    3.3784   -1.2494 H   0  0  0  0  0  0  0  0  0  0  0  0
    5.2886    3.9846    2.1086 H   0  0  0  0  0  0  0  0  0  0  0  0
    3.5363    4.0190    1.9111 H   0  0  0  0  0  0  0  0  0  0  0  0
    4.5651    4.4583    0.5552 H   0  0  0  0  0  0  0  0  0  0  0  0
  1  2  1  0  0  0  0
  1 23  1  0  0  0  0
  1 24  1  0  0  0  0
  1 25  1  0  0  0  0
  2  3  1  0  0  0  0
  2 22  2  3  0  0  0
  3  4  2  3  0  0  0
  3 26  1  0  0  0  0
  4  5  1  0  0  0  0
  4  6  1  0  0  0  0
  5 27  1  0  0  0  0
  5 28  1  0  0  0  0
  6  7  1  0  0  0  0
  6 12  2  0  0  0  0
  7  8  1  0  0  0  0
  7 11  1  0  0  0  0
  7 29  1  0  0  0  0
  8  9  1  0  0  0  0
  8 30  1  0  0  0  0
  8 31  1  0  0  0  0
  9 10  1  0  0  0  0
  9 32  1  0  0  0  0
  9 33  1  0  0  0  0
 10 11  1  0  0  0  0
 10 34  1  0  0  0  0
 10 35  1  0  0  0  0
 11 12  1  0  0  0  0
 11 36  1  0  0  0  0
 12 13  1  0  0  0  0
 13 14  2  3  0  0  0
 13 37  1  0  0  0  0
 14 15  1  0  0  0  0
 14 16  1  0  0  0  0
 15 38  1  0  0  0  0
 15 39  1  0  0  0  0
 15 40  1  0  0  0  0
 16 17  2  0  0  0  0
 16 18  1  0  0  0  0
 18 19  1  0  0  0  0
 18 20  1  0  0  0  0
 19 41  1  0  0  0  0
 19 42  1  0  0  0  0
 19 43  1  0  0  0  0
 20 21  1  0  0  0  0
 20 22  1  0  0  0  0
 21 44  1  0  0  0  0
 21 45  1  0  0  0  0
 21 46  1  0  0  0  0
M  END
$$$$
