
 OpenBabel04232217013D

159158  0  0  0  0  0  0  0  0999 V2000
   29.7582  -15.8911   19.7763 O   0  0  0  0  0  0  0  0  0  0  0  0
   28.8940  -15.0560   19.0773 N   0  0  0  0  0  0  0  0  0  0  0  0
   27.8029  -14.9689   19.6445 N   0  0  0  0  0  0  0  0  0  0  0  0
   27.0113  -14.1317   18.9693 N   0  0  0  0  0  0  0  0  0  0  0  0
   25.6839  -14.0407   19.3083 N   0  0  0  0  0  0  0  0  0  0  0  0
   25.3782  -12.7051   19.6712 N   0  0  0  0  0  0  0  0  0  0  0  0
   25.4806  -11.8602   18.5323 N   0  0  0  0  0  0  0  0  0  0  0  0
   25.2161  -10.5079   18.8582 N   0  0  0  0  0  0  0  0  0  0  0  0
   26.1459   -9.9650   19.8006 N   0  0  0  0  0  0  0  0  0  0  0  0
   27.5028  -10.0994   19.3560 N   0  0  0  0  0  0  0  0  0  0  0  0
   27.7177   -9.3274   18.1639 N   0  0  0  0  0  0  0  0  0  0  0  0
   27.4370   -7.9377   18.4076 N   0  0  0  0  0  0  0  0  0  0  0  0
   28.3009   -7.4275   19.4388 N   0  0  0  0  0  0  0  0  0  0  0  0
   29.6764   -7.5572   19.0361 N   0  0  0  0  0  0  0  0  0  0  0  0
   29.8986   -6.8212   17.8177 N   0  0  0  0  0  0  0  0  0  0  0  0
   29.5841   -5.4305   18.0273 N   0  0  0  0  0  0  0  0  0  0  0  0
   30.4170   -4.9006   19.0777 N   0  0  0  0  0  0  0  0  0  0  0  0
   31.8034   -5.0430   18.7084 N   0  0  0  0  0  0  0  0  0  0  0  0
   32.0454   -4.3337   17.4761 N   0  0  0  0  0  0  0  0  0  0  0  0
   31.7172   -2.9404   17.6548 N   0  0  0  0  0  0  0  0  0  0  0  0
   32.5266   -2.3927   18.7160 N   0  0  0  0  0  0  0  0  0  0  0  0
   33.9209   -2.5415   18.3759 N   0  0  0  0  0  0  0  0  0  0  0  0
   34.1840   -1.8515   17.1361 N   0  0  0  0  0  0  0  0  0  0  0  0
   33.8476   -0.4564   17.2882 N   0  0  0  0  0  0  0  0  0  0  0  0
   34.6345    0.1076   18.3584 N   0  0  0  0  0  0  0  0  0  0  0  0
   36.0359   -0.0411   18.0471 N   0  0  0  0  0  0  0  0  0  0  0  0
   36.3197    0.6305   16.8014 N   0  0  0  0  0  0  0  0  0  0  0  0
   35.9746    2.0262   16.9249 N   0  0  0  0  0  0  0  0  0  0  0  0
   36.7395    2.6105   18.0011 N   0  0  0  0  0  0  0  0  0  0  0  0
   38.1469    2.4610   17.7173 N   0  0  0  0  0  0  0  0  0  0  0  0
   38.4527    3.1157   16.4677 N   0  0  0  0  0  0  0  0  0  0  0  0
   38.1017    4.5121   16.5677 N   0  0  0  0  0  0  0  0  0  0  0  0
   38.8500    5.1141   17.6457 N   0  0  0  0  0  0  0  0  0  0  0  0
   40.2612    4.9630   17.3866 N   0  0  0  0  0  0  0  0  0  0  0  0
   40.5838    5.5980   16.1321 N   0  0  0  0  0  0  0  0  0  0  0  0
   40.2276    6.9956   16.2027 N   0  0  0  0  0  0  0  0  0  0  0  0
   40.9522    7.6153   17.2864 N   0  0  0  0  0  0  0  0  0  0  0  0
   42.3692    7.4640   17.0566 N   0  0  0  0  0  0  0  0  0  0  0  0
   42.7139    8.0815   15.7982 N   0  0  0  0  0  0  0  0  0  0  0  0
   42.3538    9.4786   15.8416 N   0  0  0  0  0  0  0  0  0  0  0  0
   43.0580   10.1160   16.9285 N   0  0  0  0  0  0  0  0  0  0  0  0
   44.4792    9.9650   16.7257 N   0  0  0  0  0  0  0  0  0  0  0  0
   44.8443   10.5646   15.4646 N   0  0  0  0  0  0  0  0  0  0  0  0
   44.4804   11.9614   15.4809 N   0  0  0  0  0  0  0  0  0  0  0  0
   45.1640   12.6166   16.5703 N   0  0  0  0  0  0  0  0  0  0  0  0
   46.5888   12.4662   16.3946 N   0  0  0  0  0  0  0  0  0  0  0  0
   46.9746   13.0481   15.1313 N   0  0  0  0  0  0  0  0  0  0  0  0
   46.6073   14.4439   15.1204 N   0  0  0  0  0  0  0  0  0  0  0  0
   47.2702   15.1170   16.2117 N   0  0  0  0  0  0  0  0  0  0  0  0
   48.6982   14.9677   16.0633 N   0  0  0  0  0  0  0  0  0  0  0  0
   49.1047   15.5318   14.7983 N   0  0  0  0  0  0  0  0  0  0  0  0
   48.7345   16.9264   14.7604 N   0  0  0  0  0  0  0  0  0  0  0  0
   49.3767   17.6172   15.8530 N   0  0  0  0  0  0  0  0  0  0  0  0
   50.8075   17.4693   15.7319 N   0  0  0  0  0  0  0  0  0  0  0  0
   51.2350   18.0155   14.4661 N   0  0  0  0  0  0  0  0  0  0  0  0
   50.8618   19.4081   14.4007 N   0  0  0  0  0  0  0  0  0  0  0  0
   51.4840   20.1179   15.4928 N   0  0  0  0  0  0  0  0  0  0  0  0
   52.9168   19.9721   15.3986 N   0  0  0  0  0  0  0  0  0  0  0  0
   53.3650   20.5008   14.1328 N   0  0  0  0  0  0  0  0  0  0  0  0
   52.9905   21.8916   14.0407 N   0  0  0  0  0  0  0  0  0  0  0  0
   53.5912   22.6178   15.1339 N   0  0  0  0  0  0  0  0  0  0  0  0
   55.0256   22.4742   15.0670 N   0  0  0  0  0  0  0  0  0  0  0  0
   55.4948   22.9850   13.8013 N   0  0  0  0  0  0  0  0  0  0  0  0
   55.1192   24.3733   13.6816 N   0  0  0  0  0  0  0  0  0  0  0  0
   55.6989   25.1170   14.7740 N   0  0  0  0  0  0  0  0  0  0  0  0
   57.1346   24.9765   14.7345 N   0  0  0  0  0  0  0  0  0  0  0  0
   57.6254   25.4697   13.4701 N   0  0  0  0  0  0  0  0  0  0  0  0
   57.2495   26.8550   13.3221 N   0  0  0  0  0  0  0  0  0  0  0  0
   57.8077   27.6182   14.4120 N   0  0  0  0  0  0  0  0  0  0  0  0
   59.2443   27.4826   14.4019 N   0  0  0  0  0  0  0  0  0  0  0  0
   59.7600   27.9577   13.1409 N   0  0  0  0  0  0  0  0  0  0  0  0
   59.3876   29.3399   12.9618 N   0  0  0  0  0  0  0  0  0  0  0  0
   59.9225   30.1264   14.0469 N   0  0  0  0  0  0  0  0  0  0  0  0
   61.3599   30.0039   14.0727 N   0  0  0  0  0  0  0  0  0  0  0  0
   61.9110   30.4617   12.8216 N   0  0  0  0  0  0  0  0  0  0  0  0
   61.5455   31.8372   12.5974 N   0  0  0  0  0  0  0  0  0  0  0  0
   62.0636   32.6724   13.6536 N   0  0  0  0  0  0  0  0  0  0  0  0
   63.5086   32.6012   13.7005 N   0  0  0  0  0  0  0  0  0  0  0  0
   64.0854   33.0154   12.4560 N   0  0  0  0  0  0  0  0  0  0  0  0
   63.7126   34.3797   12.2298 N   0  0  0  0  0  0  0  0  0  0  0  0
   30.5682  -15.8508   19.2302 H   0  0  0  0  0  0  0  0  0  0  0  0
   27.3144  -13.8899   18.0313 H   0  0  0  0  0  0  0  0  0  0  0  0
   25.5330  -14.6685   20.1058 H   0  0  0  0  0  0  0  0  0  0  0  0
   26.0593  -12.4041   20.3738 H   0  0  0  0  0  0  0  0  0  0  0  0
   24.8629  -12.1995   17.7877 H   0  0  0  0  0  0  0  0  0  0  0  0
   24.2514  -10.3861   19.1812 H   0  0  0  0  0  0  0  0  0  0  0  0
   26.0274  -10.3807   20.7278 H   0  0  0  0  0  0  0  0  0  0  0  0
   27.6924  -11.0882   19.1489 H   0  0  0  0  0  0  0  0  0  0  0  0
   27.0720   -9.6754   17.4442 H   0  0  0  0  0  0  0  0  0  0  0  0
   26.4623   -7.8717   18.7271 H   0  0  0  0  0  0  0  0  0  0  0  0
   28.1469   -7.9987   20.2790 H   0  0  0  0  0  0  0  0  0  0  0  0
   29.8440   -8.5550   18.8530 H   0  0  0  0  0  0  0  0  0  0  0  0
   29.2486   -7.2020   17.1169 H   0  0  0  0  0  0  0  0  0  0  0  0
   28.6031   -5.3908   18.3351 H   0  0  0  0  0  0  0  0  0  0  0  0
   30.2399   -5.4748   19.9131 H   0  0  0  0  0  0  0  0  0  0  0  0
   31.9620   -6.0466   18.5443 H   0  0  0  0  0  0  0  0  0  0  0  0
   31.4036   -4.7331   16.7774 H   0  0  0  0  0  0  0  0  0  0  0  0
   30.7305   -2.9077   17.9467 H   0  0  0  0  0  0  0  0  0  0  0  0
   32.3326   -2.9601   19.5529 H   0  0  0  0  0  0  0  0  0  0  0  0
   34.0785   -3.5482   18.2286 H   0  0  0  0  0  0  0  0  0  0  0  0
   33.5534   -2.2641   16.4344 H   0  0  0  0  0  0  0  0  0  0  0  0
   32.8554   -0.4255   17.5623 H   0  0  0  0  0  0  0  0  0  0  0  0
   34.4259   -0.4522   19.1973 H   0  0  0  0  0  0  0  0  0  0  0  0
   36.1986   -1.0498   17.9179 H   0  0  0  0  0  0  0  0  0  0  0  0
   35.7030    0.2039   16.0955 H   0  0  0  0  0  0  0  0  0  0  0  0
   34.9776    2.0564   17.1807 H   0  0  0  0  0  0  0  0  0  0  0  0
   36.5169    2.0625   18.8435 H   0  0  0  0  0  0  0  0  0  0  0  0
   38.3136    1.4508   17.6053 H   0  0  0  0  0  0  0  0  0  0  0  0
   37.8479    2.6792   15.7572 H   0  0  0  0  0  0  0  0  0  0  0  0
   37.1016    4.5386   16.8120 H   0  0  0  0  0  0  0  0  0  0  0  0
   38.6158    4.5798   18.4943 H   0  0  0  0  0  0  0  0  0  0  0  0
   40.4306    3.9514   17.2938 H   0  0  0  0  0  0  0  0  0  0  0  0
   39.9927    5.1472   15.4196 H   0  0  0  0  0  0  0  0  0  0  0  0
   39.2220    7.0271   16.4230 H   0  0  0  0  0  0  0  0  0  0  0  0
   40.7025    7.0918   18.1374 H   0  0  0  0  0  0  0  0  0  0  0  0
   42.5432    6.4517   16.9812 H   0  0  0  0  0  0  0  0  0  0  0  0
   42.1370    7.6185   15.0816 H   0  0  0  0  0  0  0  0  0  0  0  0
   41.3445    9.5108   16.0440 H   0  0  0  0  0  0  0  0  0  0  0  0
   42.7947    9.6045   17.7828 H   0  0  0  0  0  0  0  0  0  0  0  0
   44.6568    8.9521   16.6684 H   0  0  0  0  0  0  0  0  0  0  0  0
   44.2811   10.0896   14.7449 H   0  0  0  0  0  0  0  0  0  0  0  0
   43.4676   11.9939   15.6652 H   0  0  0  0  0  0  0  0  0  0  0  0
   44.8869   12.1172   17.4274 H   0  0  0  0  0  0  0  0  0  0  0  0
   46.7698   11.4531   16.3555 H   0  0  0  0  0  0  0  0  0  0  0  0
   46.4252   12.5610   14.4090 H   0  0  0  0  0  0  0  0  0  0  0  0
   45.5913   14.4766   15.2865 H   0  0  0  0  0  0  0  0  0  0  0  0
   46.9793   14.6296   17.0712 H   0  0  0  0  0  0  0  0  0  0  0  0
   48.8822   13.9546   16.0423 H   0  0  0  0  0  0  0  0  0  0  0  0
   48.5691   15.0327   14.0739 H   0  0  0  0  0  0  0  0  0  0  0  0
   47.7158   16.9590   14.9082 H   0  0  0  0  0  0  0  0  0  0  0  0
   49.0719   17.1419   16.7144 H   0  0  0  0  0  0  0  0  0  0  0  0
   50.9940   16.4564   15.7292 H   0  0  0  0  0  0  0  0  0  0  0  0
   50.7132   17.5040   13.7400 H   0  0  0  0  0  0  0  0  0  0  0  0
   49.8406   19.4398   14.5309 H   0  0  0  0  0  0  0  0  0  0  0  0
   51.1660   19.6567   16.3568 H   0  0  0  0  0  0  0  0  0  0  0  0
   53.1064   18.9599   15.4147 H   0  0  0  0  0  0  0  0  0  0  0  0
   52.8579   19.9780   13.4048 H   0  0  0  0  0  0  0  0  0  0  0  0
   51.9672   21.9238   14.1516 H   0  0  0  0  0  0  0  0  0  0  0  0
   53.2587   22.1675   15.9982 H   0  0  0  0  0  0  0  0  0  0  0  0
   55.2174   21.4631   15.1013 H   0  0  0  0  0  0  0  0  0  0  0  0
   55.0018   22.4501   13.0723 H   0  0  0  0  0  0  0  0  0  0  0  0
   54.0941   24.4050   13.7737 H   0  0  0  0  0  0  0  0  0  0  0  0
   55.3528   24.6778   15.6388 H   0  0  0  0  0  0  0  0  0  0  0  0
   57.3286   23.9667   14.7871 H   0  0  0  0  0  0  0  0  0  0  0  0
   57.1472   24.9230   12.7403 H   0  0  0  0  0  0  0  0  0  0  0  0
   56.2228   26.8862   13.3953 H   0  0  0  0  0  0  0  0  0  0  0  0
   57.4473   27.1931   15.2778 H   0  0  0  0  0  0  0  0  0  0  0  0
   59.4407   26.4743   14.4737 H   0  0  0  0  0  0  0  0  0  0  0  0
   59.2975   27.3995   12.4096 H   0  0  0  0  0  0  0  0  0  0  0  0
   58.3600   29.3718   13.0145 H   0  0  0  0  0  0  0  0  0  0  0  0
   59.5472   29.7156   14.9132 H   0  0  0  0  0  0  0  0  0  0  0  0
   61.5623   28.9977   14.1642 H   0  0  0  0  0  0  0  0  0  0  0  0
   61.4719   29.8899   12.0862 H   0  0  0  0  0  0  0  0  0  0  0  0
   60.5175   31.8716   12.6314 H   0  0  0  0  0  0  0  0  0  0  0  0
   61.6926   32.2851   14.5322 H   0  0  0  0  0  0  0  0  0  0  0  0
   63.7380   31.6082   13.8490 H   0  0  0  0  0  0  0  0  0  0  0  0
   63.6753   32.4125   11.7266 H   0  0  0  0  0  0  0  0  0  0  0  0
   64.0437   34.9173   13.0310 H   0  0  0  0  0  0  0  0  0  0  0  0
   62.6922   34.3973   12.3494 H   0  0  0  0  0  0  0  0  0  0  0  0
  1  2  1  0  0  0  0
  1 81  1  0  0  0  0
  2  3  2  3  0  0  0
  3  4  1  0  0  0  0
  4  5  1  0  0  0  0
  4 82  1  0  0  0  0
  5  6  1  0  0  0  0
  5 83  1  0  0  0  0
  6  7  1  0  0  0  0
  6 84  1  0  0  0  0
  7  8  1  0  0  0  0
  7 85  1  0  0  0  0
  8  9  1  0  0  0  0
  8 86  1  0  0  0  0
  9 10  1  0  0  0  0
  9 87  1  0  0  0  0
 10 11  1  0  0  0  0
 10 88  1  0  0  0  0
 11 12  1  0  0  0  0
 11 89  1  0  0  0  0
 12 13  1  0  0  0  0
 12 90  1  0  0  0  0
 13 14  1  0  0  0  0
 13 91  1  0  0  0  0
 14 15  1  0  0  0  0
 14 92  1  0  0  0  0
 15 16  1  0  0  0  0
 15 93  1  0  0  0  0
 16 17  1  0  0  0  0
 16 94  1  0  0  0  0
 17 18  1  0  0  0  0
 17 95  1  0  0  0  0
 18 19  1  0  0  0  0
 18 96  1  0  0  0  0
 19 20  1  0  0  0  0
 19 97  1  0  0  0  0
 20 21  1  0  0  0  0
 20 98  1  0  0  0  0
 21 22  1  0  0  0  0
 21 99  1  0  0  0  0
 22 23  1  0  0  0  0
 22100  1  0  0  0  0
 23 24  1  0  0  0  0
 23101  1  0  0  0  0
 24 25  1  0  0  0  0
 24102  1  0  0  0  0
 25 26  1  0  0  0  0
 25103  1  0  0  0  0
 26 27  1  0  0  0  0
 26104  1  0  0  0  0
 27 28  1  0  0  0  0
 27105  1  0  0  0  0
 28 29  1  0  0  0  0
 28106  1  0  0  0  0
 29 30  1  0  0  0  0
 29107  1  0  0  0  0
 30 31  1  0  0  0  0
 30108  1  0  0  0  0
 31 32  1  0  0  0  0
 31109  1  0  0  0  0
 32 33  1  0  0  0  0
 32110  1  0  0  0  0
 33 34  1  0  0  0  0
 33111  1  0  0  0  0
 34 35  1  0  0  0  0
 34112  1  0  0  0  0
 35 36  1  0  0  0  0
 35113  1  0  0  0  0
 36 37  1  0  0  0  0
 36114  1  0  0  0  0
 37 38  1  0  0  0  0
 37115  1  0  0  0  0
 38 39  1  0  0  0  0
 38116  1  0  0  0  0
 39 40  1  0  0  0  0
 39117  1  0  0  0  0
 40 41  1  0  0  0  0
 40118  1  0  0  0  0
 41 42  1  0  0  0  0
 41119  1  0  0  0  0
 42 43  1  0  0  0  0
 42120  1  0  0  0  0
 43 44  1  0  0  0  0
 43121  1  0  0  0  0
 44 45  1  0  0  0  0
 44122  1  0  0  0  0
 45 46  1  0  0  0  0
 45123  1  0  0  0  0
 46 47  1  0  0  0  0
 46124  1  0  0  0  0
 47 48  1  0  0  0  0
 47125  1  0  0  0  0
 48 49  1  0  0  0  0
 48126  1  0  0  0  0
 49 50  1  0  0  0  0
 49127  1  0  0  0  0
 50 51  1  0  0  0  0
 50128  1  0  0  0  0
 51 52  1  0  0  0  0
 51129  1  0  0  0  0
 52 53  1  0  0  0  0
 52130  1  0  0  0  0
 53 54  1  0  0  0  0
 53131  1  0  0  0  0
 54 55  1  0  0  0  0
 54132  1  0  0  0  0
 55 56  1  0  0  0  0
 55133  1  0  0  0  0
 56 57  1  0  0  0  0
 56134  1  0  0  0  0
 57 58  1  0  0  0  0
 57135  1  0  0  0  0
 58 59  1  0  0  0  0
 58136  1  0  0  0  0
 59 60  1  0  0  0  0
 59137  1  0  0  0  0
 60 61  1  0  0  0  0
 60138  1  0  0  0  0
 61 62  1  0  0  0  0
 61139  1  0  0  0  0
 62 63  1  0  0  0  0
 62140  1  0  0  0  0
 63 64  1  0  0  0  0
 63141  1  0  0  0  0
 64 65  1  0  0  0  0
 64142  1  0  0  0  0
 65 66  1  0  0  0  0
 65143  1  0  0  0  0
 66 67  1  0  0  0  0
 66144  1  0  0  0  0
 67 68  1  0  0  0  0
 67145  1  0  0  0  0
 68 69  1  0  0  0  0
 68146  1  0  0  0  0
 69 70  1  0  0  0  0
 69147  1  0  0  0  0
 70 71  1  0  0  0  0
 70148  1  0  0  0  0
 71 72  1  0  0  0  0
 71149  1  0  0  0  0
 72 73  1  0  0  0  0
 72150  1  0  0  0  0
 73 74  1  0  0  0  0
 73151  1  0  0  0  0
 74 75  1  0  0  0  0
 74152  1  0  0  0  0
 75 76  1  0  0  0  0
 75153  1  0  0  0  0
 76 77  1  0  0  0  0
 76154  1  0  0  0  0
 77 78  1  0  0  0  0
 77155  1  0  0  0  0
 78 79  1  0  0  0  0
 78156  1  0  0  0  0
 79 80  1  0  0  0  0
 79157  1  0  0  0  0
 80158  1  0  0  0  0
 80159  1  0  0  0  0
M  END
$$$$
