
 OpenBabel04232216523D

 84 84  0  0  1  0  0  0  0  0999 V2000
    5.9070    2.9553    3.6839 C   0  0  0  0  0  0  0  0  0  0  0  0
    5.5670    2.1709    2.4149 C   0  0  0  0  0  0  0  0  0  0  0  0
    6.3129    2.7433    1.1930 C   0  0  0  0  0  0  0  0  0  0  0  0
    6.0365    2.0188   -0.1466 C   0  0  0  0  0  0  0  0  0  0  0  0
    6.8380    2.6685   -1.3389 C   0  0  0  0  0  0  0  0  0  0  0  0
    6.6071    2.0010   -2.7249 C   0  0  0  0  0  0  0  0  0  0  0  0
    7.4246    2.4914   -4.0538 C   0  0  0  0  0  0  0  0  0  0  0  0
    9.1112    2.4197   -4.1280 C   0  0  3  0  0  0  0  0  0  0  0  0
    9.4969    0.8811   -4.0050 C   0  0  0  0  0  0  0  0  0  0  0  0
    8.8726   -0.2516   -4.9079 C   0  0  0  0  0  0  0  0  0  0  0  0
    9.2606   -0.3545   -6.3859 C   0  0  0  0  0  0  0  0  0  0  0  0
   10.7627   -0.4193   -6.6753 C   0  0  0  0  0  0  0  0  0  0  0  0
   11.0257   -0.4540   -8.1893 C   0  0  0  0  0  0  0  0  0  0  0  0
   12.5176   -0.4808   -8.5355 C   0  0  0  0  0  0  0  0  0  0  0  0
   12.7170   -0.5069  -10.0548 C   0  0  0  0  0  0  0  0  0  0  0  0
   14.1971   -0.5349  -10.4334 C   0  0  0  0  0  0  0  0  0  0  0  0
   14.3796   -0.5585  -11.9512 C   0  0  0  0  0  0  0  0  0  0  0  0
   15.8520   -0.5872  -12.3267 C   0  0  0  0  0  0  0  0  0  0  0  0
   10.1775    3.4234   -5.1937 C   0  0  0  0  0  0  0  0  0  0  0  0
    9.5339    3.6362   -6.3597 C   0  0  0  0  0  0  0  0  0  0  0  0
    9.2465    5.0901   -6.5922 C   0  0  0  0  0  0  0  0  0  0  0  0
    9.8845    5.8345   -7.4123 C   0  0  0  0  0  0  0  0  0  0  0  0
   10.5274    6.9703   -6.6306 C   0  0  0  0  0  0  0  0  0  0  0  0
   11.7467    7.3896   -6.7637 C   0  0  0  0  0  0  0  0  0  0  0  0
   12.3723    6.8277   -5.4846 C   0  0  0  0  0  0  0  0  0  0  0  0
   13.0204    7.5658   -4.7274 O   0  0  0  0  0  0  0  0  0  0  0  0
   12.5321    5.4034   -5.5944 N   0  0  0  0  0  0  0  0  0  0  0  0
   13.5317    5.2190   -6.7099 C   0  0  0  0  0  0  0  0  0  0  0  0
   11.4262    4.3002   -4.6362 N   0  0  0  0  0  0  0  0  0  0  0  0
   12.1072    3.9972   -3.2304 C   0  0  0  0  0  0  0  0  0  0  0  0
   11.6270    4.2402   -1.7252 C   0  0  0  0  0  0  0  0  0  0  0  0
   12.3610    5.3576   -0.8985 C   0  0  0  0  0  0  0  0  0  0  0  0
    5.3881    2.5385    4.5543 H   0  0  0  0  0  0  0  0  0  0  0  0
    5.6100    4.0054    3.5898 H   0  0  0  0  0  0  0  0  0  0  0  0
    6.9823    2.9238    3.8898 H   0  0  0  0  0  0  0  0  0  0  0  0
    4.4827    2.2096    2.2586 H   0  0  0  0  0  0  0  0  0  0  0  0
    5.8362    1.1198    2.5698 H   0  0  0  0  0  0  0  0  0  0  0  0
    7.3879    2.7052    1.4002 H   0  0  0  0  0  0  0  0  0  0  0  0
    6.0387    3.7996    1.0901 H   0  0  0  0  0  0  0  0  0  0  0  0
    4.9580    2.0548   -0.3472 H   0  0  0  0  0  0  0  0  0  0  0  0
    6.3033    0.9600   -0.0410 H   0  0  0  0  0  0  0  0  0  0  0  0
    7.9015    2.6574   -1.0903 H   0  0  0  0  0  0  0  0  0  0  0  0
    6.5144    3.7141   -1.4016 H   0  0  0  0  0  0  0  0  0  0  0  0
    5.5358    2.1775   -2.9290 H   0  0  0  0  0  0  0  0  0  0  0  0
    6.6874    0.9115   -2.6193 H   0  0  0  0  0  0  0  0  0  0  0  0
    7.0618    3.4964   -4.2994 H   0  0  0  0  0  0  0  0  0  0  0  0
    7.0105    1.8506   -4.8555 H   0  0  0  0  0  0  0  0  0  0  0  0
    9.3553    2.8943   -3.1718 H   0  0  0  0  0  0  0  0  0  0  0  0
    9.1730    0.5960   -2.9978 H   0  0  0  0  0  0  0  0  0  0  0  0
   10.5725    0.7767   -4.0084 H   0  0  0  0  0  0  0  0  0  0  0  0
    7.7736   -0.2322   -4.8720 H   0  0  0  0  0  0  0  0  0  0  0  0
    9.1228   -1.2245   -4.4438 H   0  0  0  0  0  0  0  0  0  0  0  0
    8.8011    0.4701   -6.9287 H   0  0  0  0  0  0  0  0  0  0  0  0
    8.8003   -1.2800   -6.7984 H   0  0  0  0  0  0  0  0  0  0  0  0
   11.2036   -1.3100   -6.2106 H   0  0  0  0  0  0  0  0  0  0  0  0
   11.2548    0.4576   -6.2440 H   0  0  0  0  0  0  0  0  0  0  0  0
   10.5672    0.4266   -8.6549 H   0  0  0  0  0  0  0  0  0  0  0  0
   10.5414   -1.3360   -8.6266 H   0  0  0  0  0  0  0  0  0  0  0  0
   12.9904   -1.3628   -8.0872 H   0  0  0  0  0  0  0  0  0  0  0  0
   13.0130    0.4027   -8.1152 H   0  0  0  0  0  0  0  0  0  0  0  0
   12.2436    0.3762  -10.5014 H   0  0  0  0  0  0  0  0  0  0  0  0
   12.2165   -1.3877  -10.4759 H   0  0  0  0  0  0  0  0  0  0  0  0
   14.6738   -1.4189   -9.9928 H   0  0  0  0  0  0  0  0  0  0  0  0
   14.7003    0.3463  -10.0174 H   0  0  0  0  0  0  0  0  0  0  0  0
   13.9100    0.3255  -12.3984 H   0  0  0  0  0  0  0  0  0  0  0  0
   13.8816   -1.4388  -12.3747 H   0  0  0  0  0  0  0  0  0  0  0  0
   16.3699    0.2971  -11.9421 H   0  0  0  0  0  0  0  0  0  0  0  0
   15.9676   -0.6038  -13.4147 H   0  0  0  0  0  0  0  0  0  0  0  0
   16.3415   -1.4770  -11.9182 H   0  0  0  0  0  0  0  0  0  0  0  0
    8.7263    2.9951   -6.7123 H   0  0  0  0  0  0  0  0  0  0  0  0
    8.9347    5.4372   -5.6243 H   0  0  0  0  0  0  0  0  0  0  0  0
   10.2393    5.5460   -8.3987 H   0  0  0  0  0  0  0  0  0  0  0  0
   10.2104    6.8893   -5.5976 H   0  0  0  0  0  0  0  0  0  0  0  0
   12.3307    7.4687   -7.6844 H   0  0  0  0  0  0  0  0  0  0  0  0
   13.0872    5.2322   -7.7198 H   0  0  0  0  0  0  0  0  0  0  0  0
   14.4475    4.6233   -6.6104 H   0  0  0  0  0  0  0  0  0  0  0  0
   14.0658    6.2163   -6.7908 H   0  0  0  0  0  0  0  0  0  0  0  0
   12.9526    4.6927   -3.2656 H   0  0  0  0  0  0  0  0  0  0  0  0
   12.4892    2.9616   -3.2816 H   0  0  0  0  0  0  0  0  0  0  0  0
   11.9611    3.3427   -1.1637 H   0  0  0  0  0  0  0  0  0  0  0  0
   10.5496    4.2815   -1.5230 H   0  0  0  0  0  0  0  0  0  0  0  0
   13.4494    5.3558   -1.0477 H   0  0  0  0  0  0  0  0  0  0  0  0
   12.2298    5.2054    0.1876 H   0  0  0  0  0  0  0  0  0  0  0  0
   11.9834    6.3613   -1.1100 H   0  0  0  0  0  0  0  0  0  0  0  0
  1  2  1  0  0  0  0
  1 33  1  0  0  0  0
  1 34  1  0  0  0  0
  1 35  1  0  0  0  0
  2  3  1  0  0  0  0
  2 36  1  0  0  0  0
  2 37  1  0  0  0  0
  3  4  1  0  0  0  0
  3 38  1  0  0  0  0
  3 39  1  0  0  0  0
  4  5  1  0  0  0  0
  4 40  1  0  0  0  0
  4 41  1  0  0  0  0
  5  6  1  0  0  0  0
  5 42  1  0  0  0  0
  5 43  1  0  0  0  0
  6  7  1  0  0  0  0
  6 44  1  0  0  0  0
  6 45  1  0  0  0  0
  7  8  1  0  0  0  0
  7 46  1  0  0  0  0
  7 47  1  0  0  0  0
  8  9  1  0  0  0  0
  8 19  1  0  0  0  0
  8 48  1  0  0  0  0
  9 10  1  0  0  0  0
  9 49  1  0  0  0  0
  9 50  1  0  0  0  0
 10 11  1  0  0  0  0
 10 51  1  0  0  0  0
 10 52  1  0  0  0  0
 11 12  1  0  0  0  0
 11 53  1  0  0  0  0
 11 54  1  0  0  0  0
 12 13  1  0  0  0  0
 12 55  1  0  0  0  0
 12 56  1  0  0  0  0
 13 14  1  0  0  0  0
 13 57  1  0  0  0  0
 13 58  1  0  0  0  0
 14 15  1  0  0  0  0
 14 59  1  0  0  0  0
 14 60  1  0  0  0  0
 15 16  1  0  0  0  0
 15 61  1  0  0  0  0
 15 62  1  0  0  0  0
 16 17  1  0  0  0  0
 16 63  1  0  0  0  0
 16 64  1  0  0  0  0
 17 18  1  0  0  0  0
 17 65  1  0  0  0  0
 17 66  1  0  0  0  0
 18 67  1  0  0  0  0
 18 68  1  0  0  0  0
 18 69  1  0  0  0  0
 19 20  2  0  0  0  0
 19 29  1  0  0  0  0
 20 21  1  0  0  0  0
 20 70  1  0  0  0  0
 21 22  2  0  0  0  0
 21 71  1  0  0  0  0
 22 23  1  0  0  0  0
 22 72  1  0  0  0  0
 23 24  2  0  0  0  0
 23 73  1  0  0  0  0
 24 25  1  0  0  0  0
 24 74  1  0  0  0  0
 25 26  2  0  0  0  0
 25 27  1  0  0  0  0
 27 28  1  0  0  0  0
 27 29  1  0  0  0  0
 28 75  1  0  0  0  0
 28 76  1  0  0  0  0
 28 77  1  0  0  0  0
 29 30  1  0  0  0  0
 30 31  1  0  0  0  0
 30 78  1  0  0  0  0
 30 79  1  0  0  0  0
 31 32  1  0  0  0  0
 31 80  1  0  0  0  0
 31 81  1  0  0  0  0
 32 82  1  0  0  0  0
 32 83  1  0  0  0  0
 32 84  1  0  0  0  0
M  END
$$$$
