
 OpenBabel04232216443D

 62 63  0  0  0  0  0  0  0  0999 V2000
    3.9564    0.8209   -0.4842 C   0  0  0  0  0  0  0  0  0  0  0  0
    4.7672    1.7402    0.4380 C   0  0  0  0  0  0  0  0  0  0  0  0
    3.7234    2.5348    1.3709 C   0  0  0  0  0  0  0  0  0  0  0  0
    2.2512    1.9498    1.7314 C   0  0  0  0  0  0  0  0  0  0  0  0
    1.9100    1.9111    3.2881 C   0  0  0  0  0  0  0  0  0  0  0  0
    0.9572    2.9346    3.9481 C   0  0  0  0  0  0  0  0  0  0  0  0
    1.5731    4.2747    4.3353 C   0  0  0  0  0  0  0  0  0  0  0  0
    0.8156    5.5141    3.8291 C   0  0  0  0  0  0  0  0  0  0  0  0
    0.3138    5.4808    2.3818 C   0  0  0  0  0  0  0  0  0  0  0  0
    1.3676    5.0675    1.3573 C   0  0  0  0  0  0  0  0  0  0  0  0
    0.9888    3.8961    0.4363 C   0  0  0  0  0  0  0  0  0  0  0  0
    1.0324    2.4532    0.9378 C   0  0  0  0  0  0  0  0  0  0  0  0
    3.9957    3.5073    2.1771 N   0  0  0  0  0  0  0  0  0  0  0  0
    5.0699    3.2999    2.9408 C   0  0  0  0  0  0  0  0  0  0  0  0
    5.3801    2.0895    3.4472 C   0  0  0  0  0  0  0  0  0  0  0  0
    6.6665    1.7907    4.0393 C   0  0  0  0  0  0  0  0  0  0  0  0
    6.7543    2.7003    5.2582 C   0  0  0  0  0  0  0  0  0  0  0  0
    7.6375    1.7589    3.0993 C   0  0  0  0  0  0  0  0  0  0  0  0
    8.4973    0.5626    2.7739 C   0  0  0  0  0  0  0  0  0  0  0  0
    7.7529    2.7868    2.0677 C   0  0  0  0  0  0  0  0  0  0  0  0
    8.6644    3.9004    2.5900 C   0  0  0  0  0  0  0  0  0  0  0  0
    7.2913    2.6542    0.7975 C   0  0  0  0  0  0  0  0  0  0  0  0
    8.3670    3.1308   -0.2043 C   0  0  0  0  0  0  0  0  0  0  0  0
    6.1582    1.7604    0.2663 C   0  0  0  0  0  0  0  0  0  0  0  0
    6.7298    0.6457   -0.6219 C   0  0  0  0  0  0  0  0  0  0  0  0
    2.8967    1.0711   -0.5317 H   0  0  0  0  0  0  0  0  0  0  0  0
    4.0412   -0.2206   -0.1609 H   0  0  0  0  0  0  0  0  0  0  0  0
    4.2693    0.9095   -1.5306 H   0  0  0  0  0  0  0  0  0  0  0  0
    2.3414    0.8749    1.5095 H   0  0  0  0  0  0  0  0  0  0  0  0
    2.8105    1.8466    3.8969 H   0  0  0  0  0  0  0  0  0  0  0  0
    1.4130    0.9384    3.4448 H   0  0  0  0  0  0  0  0  0  0  0  0
    0.6196    2.4785    4.8896 H   0  0  0  0  0  0  0  0  0  0  0  0
    0.0327    3.0578    3.3831 H   0  0  0  0  0  0  0  0  0  0  0  0
    2.6202    4.3437    4.0360 H   0  0  0  0  0  0  0  0  0  0  0  0
    1.6054    4.3465    5.4361 H   0  0  0  0  0  0  0  0  0  0  0  0
    1.4650    6.3844    3.9635 H   0  0  0  0  0  0  0  0  0  0  0  0
   -0.0535    5.6895    4.4815 H   0  0  0  0  0  0  0  0  0  0  0  0
    0.0005    6.5013    2.1289 H   0  0  0  0  0  0  0  0  0  0  0  0
   -0.5854    4.8653    2.3104 H   0  0  0  0  0  0  0  0  0  0  0  0
    2.3046    4.8586    1.8762 H   0  0  0  0  0  0  0  0  0  0  0  0
    1.5876    5.9150    0.7282 H   0  0  0  0  0  0  0  0  0  0  0  0
    1.6534    3.9449   -0.4309 H   0  0  0  0  0  0  0  0  0  0  0  0
   -0.0233    4.0825    0.0524 H   0  0  0  0  0  0  0  0  0  0  0  0
    0.9238    1.8098    0.0532 H   0  0  0  0  0  0  0  0  0  0  0  0
    0.1099    2.2330    1.4921 H   0  0  0  0  0  0  0  0  0  0  0  0
    5.6890    4.1789    3.1006 H   0  0  0  0  0  0  0  0  0  0  0  0
    4.7800    1.2048    3.2477 H   0  0  0  0  0  0  0  0  0  0  0  0
    5.7687    2.7669    5.7530 H   0  0  0  0  0  0  0  0  0  0  0  0
    7.0282    3.7225    4.9896 H   0  0  0  0  0  0  0  0  0  0  0  0
    7.4575    2.3115    5.9921 H   0  0  0  0  0  0  0  0  0  0  0  0
    7.9062   -0.2306    2.3050 H   0  0  0  0  0  0  0  0  0  0  0  0
    9.0117    0.1782    3.6548 H   0  0  0  0  0  0  0  0  0  0  0  0
    9.2839    0.8273    2.0489 H   0  0  0  0  0  0  0  0  0  0  0  0
    8.0568    4.6534    3.1177 H   0  0  0  0  0  0  0  0  0  0  0  0
    9.2237    4.4500    1.8289 H   0  0  0  0  0  0  0  0  0  0  0  0
    9.3972    3.5266    3.3211 H   0  0  0  0  0  0  0  0  0  0  0  0
    8.4342    2.5358   -1.1214 H   0  0  0  0  0  0  0  0  0  0  0  0
    9.3730    2.9889    0.2320 H   0  0  0  0  0  0  0  0  0  0  0  0
    8.2764    4.1836   -0.4682 H   0  0  0  0  0  0  0  0  0  0  0  0
    7.8264    0.6239   -0.6733 H   0  0  0  0  0  0  0  0  0  0  0  0
    6.3696    0.7012   -1.6466 H   0  0  0  0  0  0  0  0  0  0  0  0
    6.4608   -0.3321   -0.1927 H   0  0  0  0  0  0  0  0  0  0  0  0
  1  2  1  0  0  0  0
  1 26  1  0  0  0  0
  1 27  1  0  0  0  0
  1 28  1  0  0  0  0
  2  3  1  0  0  0  0
  2 24  2  0  0  0  0
  3  4  1  0  0  0  0
  3 13  2  0  0  0  0
  4  5  1  0  0  0  0
  4 12  1  0  0  0  0
  4 29  1  0  0  0  0
  5  6  1  0  0  0  0
  5 30  1  0  0  0  0
  5 31  1  0  0  0  0
  6  7  1  0  0  0  0
  6 32  1  0  0  0  0
  6 33  1  0  0  0  0
  7  8  1  0  0  0  0
  7 34  1  0  0  0  0
  7 35  1  0  0  0  0
  8  9  1  0  0  0  0
  8 36  1  0  0  0  0
  8 37  1  0  0  0  0
  9 10  1  0  0  0  0
  9 38  1  0  0  0  0
  9 39  1  0  0  0  0
 10 11  1  0  0  0  0
 10 40  1  0  0  0  0
 10 41  1  0  0  0  0
 11 12  1  0  0  0  0
 11 42  1  0  0  0  0
 11 43  1  0  0  0  0
 12 44  1  0  0  0  0
 12 45  1  0  0  0  0
 13 14  1  0  0  0  0
 14 15  2  0  0  0  0
 14 46  1  0  0  0  0
 15 16  1  0  0  0  0
 15 47  1  0  0  0  0
 16 17  1  0  0  0  0
 16 18  2  0  0  0  0
 17 48  1  0  0  0  0
 17 49  1  0  0  0  0
 17 50  1  0  0  0  0
 18 19  1  0  0  0  0
 18 20  1  0  0  0  0
 19 51  1  0  0  0  0
 19 52  1  0  0  0  0
 19 53  1  0  0  0  0
 20 21  1  0  0  0  0
 20 22  2  0  0  0  0
 21 54  1  0  0  0  0
 21 55  1  0  0  0  0
 21 56  1  0  0  0  0
 22 23  1  0  0  0  0
 22 24  1  0  0  0  0
 23 57  1  0  0  0  0
 23 58  1  0  0  0  0
 23 59  1  0  0  0  0
 24 25  1  0  0  0  0
 25 60  1  0  0  0  0
 25 61  1  0  0  0  0
 25 62  1  0  0  0  0
M  END
$$$$
