
 OpenBabel04232216563D

 84 84  0  0  0  0  0  0  0  0999 V2000
    0.1688    4.6259    0.9573 C   0  0  0  0  0  0  0  0  0  0  0  0
    0.2682    3.2543    0.7041 N   0  0  0  0  0  0  0  0  0  0  0  0
    0.0669    2.1284    0.0732 C   0  0  0  0  0  0  0  0  0  0  0  0
    0.9934    2.1822    1.1193 C   0  0  0  0  0  0  0  0  0  0  0  0
    1.8981    2.8352    2.4237 S   0  0  0  0  0  0  0  0  0  0  0  0
    2.8022    1.6324    3.1243 O   0  0  0  0  0  0  0  0  0  0  0  0
    3.5952    2.2380    4.2151 O   0  0  0  0  0  0  0  0  0  0  0  0
    2.7185    2.7398    5.2615 O   0  0  0  0  0  0  0  0  0  0  0  0
    3.4628    3.3443    6.3303 O   0  0  0  0  0  0  0  0  0  0  0  0
    2.5409    3.8563    7.3045 O   0  0  0  0  0  0  0  0  0  0  0  0
    3.2640    4.4274    8.3953 O   0  0  0  0  0  0  0  0  0  0  0  0
    2.3440    4.9343    9.3609 O   0  0  0  0  0  0  0  0  0  0  0  0
    3.0701    5.5082   10.4542 O   0  0  0  0  0  0  0  0  0  0  0  0
    2.1342    6.0101   11.4105 O   0  0  0  0  0  0  0  0  0  0  0  0
    2.8017    6.6059   12.5458 O   0  0  0  0  0  0  0  0  0  0  0  0
    1.6229    7.1477   13.5782 S   0  0  0  0  0  0  0  0  0  0  0  0
    2.5239    7.8059   14.8321 O   0  0  0  0  0  0  0  0  0  0  0  0
    1.3986    8.3855   15.9366 S   0  0  0  0  0  0  0  0  0  0  0  0
    2.3053    9.0500   17.2025 O   0  0  0  0  0  0  0  0  0  0  0  0
    1.1732    9.6400   18.3267 S   0  0  0  0  0  0  0  0  0  0  0  0
    2.0606   10.3176   19.6178 O   0  0  0  0  0  0  0  0  0  0  0  0
    0.9220   10.9133   20.7528 S   0  0  0  0  0  0  0  0  0  0  0  0
    1.8043   11.5983   22.0580 O   0  0  0  0  0  0  0  0  0  0  0  0
    0.6658   12.1984   23.2015 S   0  0  0  0  0  0  0  0  0  0  0  0
    1.5482   12.8864   24.5123 O   0  0  0  0  0  0  0  0  0  0  0  0
    0.4098   13.4885   25.6596 S   0  0  0  0  0  0  0  0  0  0  0  0
    1.2922   14.1775   26.9724 O   0  0  0  0  0  0  0  0  0  0  0  0
    0.1537   14.7802   28.1207 S   0  0  0  0  0  0  0  0  0  0  0  0
    1.0361   15.4695   29.4341 O   0  0  0  0  0  0  0  0  0  0  0  0
   -0.1025   16.0724   30.5826 S   0  0  0  0  0  0  0  0  0  0  0  0
    0.7799   16.7617   31.8961 O   0  0  0  0  0  0  0  0  0  0  0  0
   -0.3587   17.3646   33.0448 S   0  0  0  0  0  0  0  0  0  0  0  0
    0.5236   18.0539   34.3583 O   0  0  0  0  0  0  0  0  0  0  0  0
   -0.6149   18.6568   35.5069 S   0  0  0  0  0  0  0  0  0  0  0  0
    0.2674   19.3462   36.8204 O   0  0  0  0  0  0  0  0  0  0  0  0
   -0.8711   19.9490   37.9690 S   0  0  0  0  0  0  0  0  0  0  0  0
    0.0112   20.6384   39.2825 O   0  0  0  0  0  0  0  0  0  0  0  0
   -1.1273   21.2412   40.4311 S   0  0  0  0  0  0  0  0  0  0  0  0
   -0.2450   21.9306   41.7446 O   0  0  0  0  0  0  0  0  0  0  0  0
   -1.3835   22.5335   42.8933 S   0  0  0  0  0  0  0  0  0  0  0  0
   -0.5012   23.2228   44.2068 O   0  0  0  0  0  0  0  0  0  0  0  0
   -1.6398   23.8257   45.3554 S   0  0  0  0  0  0  0  0  0  0  0  0
   -0.7574   24.5151   46.6689 O   0  0  0  0  0  0  0  0  0  0  0  0
   -1.8960   25.1179   47.8175 S   0  0  0  0  0  0  0  0  0  0  0  0
   -1.0136   25.8073   49.1311 O   0  0  0  0  0  0  0  0  0  0  0  0
   -2.1522   26.4101   50.2797 S   0  0  0  0  0  0  0  0  0  0  0  0
   -1.2698   27.0995   51.5932 O   0  0  0  0  0  0  0  0  0  0  0  0
   -2.4084   27.7023   52.7418 S   0  0  0  0  0  0  0  0  0  0  0  0
   -1.5261   28.3917   54.0553 O   0  0  0  0  0  0  0  0  0  0  0  0
   -2.6646   28.9946   55.2039 S   0  0  0  0  0  0  0  0  0  0  0  0
   -1.7823   29.6839   56.5174 O   0  0  0  0  0  0  0  0  0  0  0  0
   -2.9208   30.2868   57.6661 S   0  0  0  0  0  0  0  0  0  0  0  0
   -2.0385   30.9762   58.9796 O   0  0  0  0  0  0  0  0  0  0  0  0
   -3.1771   31.5790   60.1282 S   0  0  0  0  0  0  0  0  0  0  0  0
   -2.2947   32.2684   61.4417 O   0  0  0  0  0  0  0  0  0  0  0  0
   -3.4333   32.8712   62.5903 S   0  0  0  0  0  0  0  0  0  0  0  0
   -2.5509   33.5606   63.9038 O   0  0  0  0  0  0  0  0  0  0  0  0
   -3.6895   34.1635   65.0525 S   0  0  0  0  0  0  0  0  0  0  0  0
   -2.8071   34.8528   66.3660 O   0  0  0  0  0  0  0  0  0  0  0  0
   -3.9457   35.4557   67.5146 S   0  0  0  0  0  0  0  0  0  0  0  0
   -3.0633   36.1451   68.8281 O   0  0  0  0  0  0  0  0  0  0  0  0
   -4.2019   36.7479   69.9767 S   0  0  0  0  0  0  0  0  0  0  0  0
   -3.3196   37.4373   71.2902 O   0  0  0  0  0  0  0  0  0  0  0  0
   -4.4581   38.0401   72.4389 S   0  0  0  0  0  0  0  0  0  0  0  0
   -3.5758   38.7295   73.7523 O   0  0  0  0  0  0  0  0  0  0  0  0
   -4.7143   39.3323   74.9009 S   0  0  0  0  0  0  0  0  0  0  0  0
   -3.8320   40.0216   76.2143 O   0  0  0  0  0  0  0  0  0  0  0  0
   -4.9705   40.6243   77.3626 S   0  0  0  0  0  0  0  0  0  0  0  0
   -4.0881   41.3134   78.6755 O   0  0  0  0  0  0  0  0  0  0  0  0
   -5.2264   41.9156   79.8230 S   0  0  0  0  0  0  0  0  0  0  0  0
   -4.3434   42.6036   81.1338 O   0  0  0  0  0  0  0  0  0  0  0  0
   -5.4802   43.2043   82.2784 S   0  0  0  0  0  0  0  0  0  0  0  0
   -4.5949   43.8898   83.5840 O   0  0  0  0  0  0  0  0  0  0  0  0
   -5.7337   44.4823   84.7168 S   0  0  0  0  0  0  0  0  0  0  0  0
   -4.8662   45.1658   86.0207 O   0  0  0  0  0  0  0  0  0  0  0  0
   -6.0433   45.7720   87.0978 S   0  0  0  0  0  0  0  0  0  0  0  0
   -5.1986   46.3392   88.4328 O   0  0  0  0  0  0  0  0  0  0  0  0
   -6.2668   47.0422   89.5432 S   0  0  0  0  0  0  0  0  0  0  0  0
   -7.1236   45.6902   90.0318 O   0  0  0  0  0  0  0  0  0  0  0  0
   -0.5236    5.1454    0.2893 H   0  0  0  0  0  0  0  0  0  0  0  0
    1.1550    5.0962    0.8738 H   0  0  0  0  0  0  0  0  0  0  0  0
   -0.1679    4.7713    1.9892 H   0  0  0  0  0  0  0  0  0  0  0  0
   -0.6241    2.4879   -0.6164 H   0  0  0  0  0  0  0  0  0  0  0  0
   -7.8530   45.9197   90.6569 H   0  0  0  0  0  0  0  0  0  0  0  0
  1  2  1  0  0  0  0
  1 80  1  0  0  0  0
  1 81  1  0  0  0  0
  1 82  1  0  0  0  0
  2  3  1  0  0  0  0
  2  4  1  0  0  0  0
  3  4  2  0  0  0  0
  3 83  1  0  0  0  0
  4  5  1  0  0  0  0
  5  6  1  0  0  0  0
  6  7  1  0  0  0  0
  7  8  1  0  0  0  0
  8  9  1  0  0  0  0
  9 10  1  0  0  0  0
 10 11  1  0  0  0  0
 11 12  1  0  0  0  0
 12 13  1  0  0  0  0
 13 14  1  0  0  0  0
 14 15  1  0  0  0  0
 15 16  1  0  0  0  0
 16 17  1  0  0  0  0
 17 18  1  0  0  0  0
 18 19  1  0  0  0  0
 19 20  1  0  0  0  0
 20 21  1  0  0  0  0
 21 22  1  0  0  0  0
 22 23  1  0  0  0  0
 23 24  1  0  0  0  0
 24 25  1  0  0  0  0
 25 26  1  0  0  0  0
 26 27  1  0  0  0  0
 27 28  1  0  0  0  0
 28 29  1  0  0  0  0
 29 30  1  0  0  0  0
 30 31  1  0  0  0  0
 31 32  1  0  0  0  0
 32 33  1  0  0  0  0
 33 34  1  0  0  0  0
 34 35  1  0  0  0  0
 35 36  1  0  0  0  0
 36 37  1  0  0  0  0
 37 38  1  0  0  0  0
 38 39  1  0  0  0  0
 39 40  1  0  0  0  0
 40 41  1  0  0  0  0
 41 42  1  0  0  0  0
 42 43  1  0  0  0  0
 43 44  1  0  0  0  0
 44 45  1  0  0  0  0
 45 46  1  0  0  0  0
 46 47  1  0  0  0  0
 47 48  1  0  0  0  0
 48 49  1  0  0  0  0
 49 50  1  0  0  0  0
 50 51  1  0  0  0  0
 51 52  1  0  0  0  0
 52 53  1  0  0  0  0
 53 54  1  0  0  0  0
 54 55  1  0  0  0  0
 55 56  1  0  0  0  0
 56 57  1  0  0  0  0
 57 58  1  0  0  0  0
 58 59  1  0  0  0  0
 59 60  1  0  0  0  0
 60 61  1  0  0  0  0
 61 62  1  0  0  0  0
 62 63  1  0  0  0  0
 63 64  1  0  0  0  0
 64 65  1  0  0  0  0
 65 66  1  0  0  0  0
 66 67  1  0  0  0  0
 67 68  1  0  0  0  0
 68 69  1  0  0  0  0
 69 70  1  0  0  0  0
 70 71  1  0  0  0  0
 71 72  1  0  0  0  0
 72 73  1  0  0  0  0
 73 74  1  0  0  0  0
 74 75  1  0  0  0  0
 75 76  1  0  0  0  0
 76 77  1  0  0  0  0
 77 78  1  0  0  0  0
 78 79  1  0  0  0  0
 79 84  1  0  0  0  0
M  END
$$$$
