
 OpenBabel04232216573D

159158  0  0  0  0  0  0  0  0999 V2000
   20.3884  -12.3396   19.0101 F   0  0  0  0  0  0  0  0  0  0  0  0
   19.6582  -13.0875   19.9598 O   0  0  0  0  0  0  0  0  0  0  0  0
   19.8691  -14.4772   19.7030 O   0  0  0  0  0  0  0  0  0  0  0  0
   21.2667  -14.7163   19.7949 O   0  0  0  0  0  0  0  0  0  0  0  0
   21.4830  -16.0904   19.5433 N   0  0  0  0  0  0  0  0  0  0  0  0
   22.8546  -16.3133   19.6480 N   0  0  0  0  0  0  0  0  0  0  0  0
   23.0989  -17.6737   19.4044 N   0  0  0  0  0  0  0  0  0  0  0  0
   22.6531  -18.0044   18.0671 N   0  0  0  0  0  0  0  0  0  0  0  0
   23.3465  -17.1910   17.0987 N   0  0  0  0  0  0  0  0  0  0  0  0
   24.7594  -17.4275   17.1975 N   0  0  0  0  0  0  0  0  0  0  0  0
   25.0342  -18.8134   16.9585 N   0  0  0  0  0  0  0  0  0  0  0  0
   24.5701  -19.1793   15.6515 N   0  0  0  0  0  0  0  0  0  0  0  0
   25.2281  -18.3745   14.6631 N   0  0  0  0  0  0  0  0  0  0  0  0
   26.6454  -18.5735   14.7493 N   0  0  0  0  0  0  0  0  0  0  0  0
   26.9510  -19.9574   14.5336 N   0  0  0  0  0  0  0  0  0  0  0  0
   26.4804  -20.3586   13.2399 N   0  0  0  0  0  0  0  0  0  0  0  0
   27.1082  -19.5570   12.2307 N   0  0  0  0  0  0  0  0  0  0  0  0
   28.5312  -19.7200   12.3039 N   0  0  0  0  0  0  0  0  0  0  0  0
   28.8670  -21.1008   12.1115 N   0  0  0  0  0  0  0  0  0  0  0  0
   28.3905  -21.5363   10.8307 N   0  0  0  0  0  0  0  0  0  0  0  0
   28.9886  -20.7383    9.7998 N   0  0  0  0  0  0  0  0  0  0  0  0
   30.4159  -20.8668    9.8609 N   0  0  0  0  0  0  0  0  0  0  0  0
   30.7808  -22.2432    9.6896 N   0  0  0  0  0  0  0  0  0  0  0  0
   30.3002  -22.7116    8.4218 N   0  0  0  0  0  0  0  0  0  0  0  0
   30.8683  -21.9159    7.3723 N   0  0  0  0  0  0  0  0  0  0  0  0
   32.3027  -22.0099    7.4314 N   0  0  0  0  0  0  0  0  0  0  0  0
   32.6874  -23.3919    7.2807 N   0  0  0  0  0  0  0  0  0  0  0  0
   32.1912  -23.8822    6.0184 N   0  0  0  0  0  0  0  0  0  0  0  0
   32.7402  -23.0742    4.9541 N   0  0  0  0  0  0  0  0  0  0  0  0
   34.1860  -23.1468    5.0066 N   0  0  0  0  0  0  0  0  0  0  0  0
   34.5880  -24.5272    4.8743 N   0  0  0  0  0  0  0  0  0  0  0  0
   34.0890  -25.0341    3.6229 N   0  0  0  0  0  0  0  0  0  0  0  0
   34.6216  -24.2307    2.5506 N   0  0  0  0  0  0  0  0  0  0  0  0
   36.0612  -24.2887    2.5784 N   0  0  0  0  0  0  0  0  0  0  0  0
   36.4936  -25.6493    2.4397 N   0  0  0  0  0  0  0  0  0  0  0  0
   36.0160  -26.1767    1.1968 N   0  0  0  0  0  0  0  0  0  0  0  0
   36.5257  -25.3875    0.1151 N   0  0  0  0  0  0  0  0  0  0  0  0
   37.9571  -25.4167    0.1394 N   0  0  0  0  0  0  0  0  0  0  0  0
   38.4113  -26.7696    0.0102 N   0  0  0  0  0  0  0  0  0  0  0  0
   37.9314  -27.3220   -1.2216 N   0  0  0  0  0  0  0  0  0  0  0  0
   38.4104  -26.5288   -2.3166 N   0  0  0  0  0  0  0  0  0  0  0  0
   39.8506  -26.5285   -2.2992 N   0  0  0  0  0  0  0  0  0  0  0  0
   40.3195  -27.8880   -2.4068 N   0  0  0  0  0  0  0  0  0  0  0  0
   39.8174  -28.4580   -3.6357 N   0  0  0  0  0  0  0  0  0  0  0  0
   40.2856  -27.6607   -4.7501 N   0  0  0  0  0  0  0  0  0  0  0  0
   41.7313  -27.6499   -4.7435 N   0  0  0  0  0  0  0  0  0  0  0  0
   42.2177  -29.0025   -4.8614 N   0  0  0  0  0  0  0  0  0  0  0  0
   41.7416  -29.5855   -6.0807 N   0  0  0  0  0  0  0  0  0  0  0  0
   42.1929  -28.8206   -7.1922 N   0  0  0  0  0  0  0  0  0  0  0  0
   43.6158  -28.7844   -7.2015 N   0  0  0  0  0  0  0  0  0  0  0  0
   44.1202  -30.1166   -7.2889 N   0  0  0  0  0  0  0  0  0  0  0  0
   43.6402  -30.7226   -8.4857 N   0  0  0  0  0  0  0  0  0  0  0  0
   44.0691  -29.9602   -9.6129 N   0  0  0  0  0  0  0  0  0  0  0  0
   45.5039  -29.9018   -9.6518 N   0  0  0  0  0  0  0  0  0  0  0  0
   46.0543  -31.2272   -9.7566 N   0  0  0  0  0  0  0  0  0  0  0  0
   45.6029  -31.8598  -10.9505 N   0  0  0  0  0  0  0  0  0  0  0  0
   46.0159  -31.1084  -12.0778 N   0  0  0  0  0  0  0  0  0  0  0  0
   47.4283  -31.0408  -12.0978 N   0  0  0  0  0  0  0  0  0  0  0  0
   47.9627  -32.3542  -12.1685 N   0  0  0  0  0  0  0  0  0  0  0  0
   47.4962  -32.9948  -13.3508 N   0  0  0  0  0  0  0  0  0  0  0  0
   47.9040  -32.2674  -14.5015 N   0  0  0  0  0  0  0  0  0  0  0  0
   49.3151  -32.1737  -14.5547 N   0  0  0  0  0  0  0  0  0  0  0  0
   49.8819  -33.4678  -14.6076 N   0  0  0  0  0  0  0  0  0  0  0  0
   49.4127  -34.1539  -15.7574 N   0  0  0  0  0  0  0  0  0  0  0  0
   49.7707  -33.4390  -16.9364 N   0  0  0  0  0  0  0  0  0  0  0  0
   51.1813  -33.3121  -17.0141 N   0  0  0  0  0  0  0  0  0  0  0  0
   51.7773  -34.5963  -17.0441 N   0  0  0  0  0  0  0  0  0  0  0  0
   51.3103  -35.3273  -18.1735 N   0  0  0  0  0  0  0  0  0  0  0  0
   51.6355  -34.6331  -19.3683 N   0  0  0  0  0  0  0  0  0  0  0  0
   53.0391  -34.4718  -19.4667 N   0  0  0  0  0  0  0  0  0  0  0  0
   53.6738  -35.7429  -19.4741 N   0  0  0  0  0  0  0  0  0  0  0  0
   53.2139  -36.5085  -20.5782 N   0  0  0  0  0  0  0  0  0  0  0  0
   53.5081  -35.8353  -21.7926 N   0  0  0  0  0  0  0  0  0  0  0  0
   54.9092  -35.6412  -21.9103 N   0  0  0  0  0  0  0  0  0  0  0  0
   55.5723  -36.8954  -21.8998 N   0  0  0  0  0  0  0  0  0  0  0  0
   55.1187  -37.6903  -22.9833 N   0  0  0  0  0  0  0  0  0  0  0  0
   55.3853  -37.0273  -24.2032 N   0  0  0  0  0  0  0  0  0  0  0  0
   56.7755  -36.8076  -24.3287 N   0  0  0  0  0  0  0  0  0  0  0  0
   57.4641  -38.0517  -24.3131 N   0  0  0  0  0  0  0  0  0  0  0  0
   57.0245  -38.8733  -25.3792 N   0  0  0  0  0  0  0  0  0  0  0  0
   57.2681  -38.2242  -26.6106 N   0  0  0  0  0  0  0  0  0  0  0  0
   21.1131  -16.1459   18.5868 H   0  0  0  0  0  0  0  0  0  0  0  0
   23.1650  -16.0344   20.5822 H   0  0  0  0  0  0  0  0  0  0  0  0
   22.6074  -18.2428   20.1105 H   0  0  0  0  0  0  0  0  0  0  0  0
   21.6440  -17.8400   17.9823 H   0  0  0  0  0  0  0  0  0  0  0  0
   23.1730  -16.2010   17.2864 H   0  0  0  0  0  0  0  0  0  0  0  0
   25.0649  -17.1792   18.1405 H   0  0  0  0  0  0  0  0  0  0  0  0
   24.5339  -19.3690   17.6535 H   0  0  0  0  0  0  0  0  0  0  0  0
   23.5658  -19.0051   15.5959 H   0  0  0  0  0  0  0  0  0  0  0  0
   25.0204  -17.3917   14.8516 H   0  0  0  0  0  0  0  0  0  0  0  0
   26.9556  -18.3078   15.6856 H   0  0  0  0  0  0  0  0  0  0  0  0
   26.4729  -20.5124   15.2451 H   0  0  0  0  0  0  0  0  0  0  0  0
   25.4712  -20.2074   13.2009 H   0  0  0  0  0  0  0  0  0  0  0  0
   26.8784  -18.5774   12.4063 H   0  0  0  0  0  0  0  0  0  0  0  0
   28.8419  -19.4317   13.2332 H   0  0  0  0  0  0  0  0  0  0  0  0
   28.4057  -21.6492   12.8397 H   0  0  0  0  0  0  0  0  0  0  0  0
   27.3774  -21.4064   10.8042 H   0  0  0  0  0  0  0  0  0  0  0  0
   28.7369  -19.7615    9.9629 H   0  0  0  0  0  0  0  0  0  0  0  0
   30.7263  -20.5540   10.7828 H   0  0  0  0  0  0  0  0  0  0  0  0
   30.3382  -22.7866   10.4334 H   0  0  0  0  0  0  0  0  0  0  0  0
   29.2842  -22.6037    8.4049 H   0  0  0  0  0  0  0  0  0  0  0  0
   30.5879  -20.9423    7.5185 H   0  0  0  0  0  0  0  0  0  0  0  0
   32.6192  -21.6674    8.3502 H   0  0  0  0  0  0  0  0  0  0  0  0
   32.2655  -23.9349    8.0502 H   0  0  0  0  0  0  0  0  0  0  0  0
   31.1590  -23.8128    6.0251 H   0  0  0  0  0  0  0  0  0  0  0  0
   32.4218  -22.0968    5.0799 H   0  0  0  0  0  0  0  0  0  0  0  0
   34.5168  -22.7684    5.9100 H   0  0  0  0  0  0  0  0  0  0  0  0
   34.2090  -25.0829    5.6563 H   0  0  0  0  0  0  0  0  0  0  0  0
   33.0596  -25.0018    3.6011 H   0  0  0  0  0  0  0  0  0  0  0  0
   34.3258  -23.2509    2.6435 H   0  0  0  0  0  0  0  0  0  0  0  0
   36.4212  -23.9272    3.4622 H   0  0  0  0  0  0  0  0  0  0  0  0
   36.1278  -26.2312    3.1906 H   0  0  0  0  0  0  0  0  0  0  0  0
   35.0015  -26.1428    1.1617 H   0  0  0  0  0  0  0  0  0  0  0  0
   36.2325  -24.4202    0.2137 H   0  0  0  0  0  0  0  0  0  0  0  0
   38.3040  -25.0519    1.0217 H   0  0  0  0  0  0  0  0  0  0  0  0
   38.0494  -27.3398    0.7683 H   0  0  0  0  0  0  0  0  0  0  0  0
   36.9172  -27.2998   -1.2473 H   0  0  0  0  0  0  0  0  0  0  0  0
   38.0834  -25.5663   -2.2273 H   0  0  0  0  0  0  0  0  0  0  0  0
   40.1996  -26.1308   -1.4230 H   0  0  0  0  0  0  0  0  0  0  0  0
   39.9852  -28.4467   -1.6134 H   0  0  0  0  0  0  0  0  0  0  0  0
   38.7909  -28.4733   -3.6384 H   0  0  0  0  0  0  0  0  0  0  0  0
   39.9457  -26.6943   -4.6871 H   0  0  0  0  0  0  0  0  0  0  0  0
   42.1008  -27.2321   -3.8830 H   0  0  0  0  0  0  0  0  0  0  0  0
   41.9041  -29.5978   -4.0974 H   0  0  0  0  0  0  0  0  0  0  0  0
   40.7315  -29.6117   -6.1254 H   0  0  0  0  0  0  0  0  0  0  0  0
   41.8717  -27.8652   -7.1494 H   0  0  0  0  0  0  0  0  0  0  0  0
   43.9938  -28.3749   -6.3576 H   0  0  0  0  0  0  0  0  0  0  0  0
   43.8247  -30.6934   -6.5060 H   0  0  0  0  0  0  0  0  0  0  0  0
   42.6220  -30.7854   -8.5048 H   0  0  0  0  0  0  0  0  0  0  0  0
   43.7028  -29.0045   -9.5916 H   0  0  0  0  0  0  0  0  0  0  0  0
   45.8737  -29.4548   -8.8034 H   0  0  0  0  0  0  0  0  0  0  0  0
   45.7556  -31.8072   -8.9736 H   0  0  0  0  0  0  0  0  0  0  0  0
   44.5884  -31.9153  -10.9662 H   0  0  0  0  0  0  0  0  0  0  0  0
   45.6497  -30.1562  -12.0249 H   0  0  0  0  0  0  0  0  0  0  0  0
   47.7551  -30.5903  -11.2379 H   0  0  0  0  0  0  0  0  0  0  0  0
   47.6530  -32.8843  -11.3418 H   0  0  0  0  0  0  0  0  0  0  0  0
   46.4709  -33.0458  -13.3386 H   0  0  0  0  0  0  0  0  0  0  0  0
   47.5177  -31.3232  -14.4764 H   0  0  0  0  0  0  0  0  0  0  0  0
   49.6611  -31.6857  -13.7247 H   0  0  0  0  0  0  0  0  0  0  0  0
   49.6189  -33.9890  -13.7643 H   0  0  0  0  0  0  0  0  0  0  0  0
   48.3911  -34.2403  -15.7136 H   0  0  0  0  0  0  0  0  0  0  0  0
   49.3605  -32.4992  -16.9087 H   0  0  0  0  0  0  0  0  0  0  0  0
   51.5140  -32.7994  -16.1921 H   0  0  0  0  0  0  0  0  0  0  0  0
   51.5302  -35.0991  -16.1851 H   0  0  0  0  0  0  0  0  0  0  0  0
   50.2909  -35.4244  -18.1296 H   0  0  0  0  0  0  0  0  0  0  0  0
   51.1918  -33.7108  -19.3547 H   0  0  0  0  0  0  0  0  0  0  0  0
   53.3740  -33.9360  -18.6612 H   0  0  0  0  0  0  0  0  0  0  0  0
   53.4464  -36.2402  -18.6080 H   0  0  0  0  0  0  0  0  0  0  0  0
   52.2009  -36.6431  -20.5052 H   0  0  0  0  0  0  0  0  0  0  0  0
   53.0438  -34.9225  -21.8055 H   0  0  0  0  0  0  0  0  0  0  0  0
   55.2479  -35.0754  -21.1271 H   0  0  0  0  0  0  0  0  0  0  0  0
   55.3793  -37.3849  -21.0224 H   0  0  0  0  0  0  0  0  0  0  0  0
   54.1122  -37.8514  -22.9089 H   0  0  0  0  0  0  0  0  0  0  0  0
   54.9062  -36.1266  -24.2343 H   0  0  0  0  0  0  0  0  0  0  0  0
   57.1270  -36.2304  -23.5628 H   0  0  0  0  0  0  0  0  0  0  0  0
   57.2824  -38.5367  -23.4289 H   0  0  0  0  0  0  0  0  0  0  0  0
   56.0206  -39.0604  -25.2914 H   0  0  0  0  0  0  0  0  0  0  0  0
   58.2653  -38.0309  -26.7269 H   0  0  0  0  0  0  0  0  0  0  0  0
   56.7957  -37.3196  -26.6536 H   0  0  0  0  0  0  0  0  0  0  0  0
  1  2  1  0  0  0  0
  2  3  1  0  0  0  0
  3  4  1  0  0  0  0
  4  5  1  0  0  0  0
  5  6  1  0  0  0  0
  5 82  1  0  0  0  0
  6  7  1  0  0  0  0
  6 83  1  0  0  0  0
  7  8  1  0  0  0  0
  7 84  1  0  0  0  0
  8  9  1  0  0  0  0
  8 85  1  0  0  0  0
  9 10  1  0  0  0  0
  9 86  1  0  0  0  0
 10 11  1  0  0  0  0
 10 87  1  0  0  0  0
 11 12  1  0  0  0  0
 11 88  1  0  0  0  0
 12 13  1  0  0  0  0
 12 89  1  0  0  0  0
 13 14  1  0  0  0  0
 13 90  1  0  0  0  0
 14 15  1  0  0  0  0
 14 91  1  0  0  0  0
 15 16  1  0  0  0  0
 15 92  1  0  0  0  0
 16 17  1  0  0  0  0
 16 93  1  0  0  0  0
 17 18  1  0  0  0  0
 17 94  1  0  0  0  0
 18 19  1  0  0  0  0
 18 95  1  0  0  0  0
 19 20  1  0  0  0  0
 19 96  1  0  0  0  0
 20 21  1  0  0  0  0
 20 97  1  0  0  0  0
 21 22  1  0  0  0  0
 21 98  1  0  0  0  0
 22 23  1  0  0  0  0
 22 99  1  0  0  0  0
 23 24  1  0  0  0  0
 23100  1  0  0  0  0
 24 25  1  0  0  0  0
 24101  1  0  0  0  0
 25 26  1  0  0  0  0
 25102  1  0  0  0  0
 26 27  1  0  0  0  0
 26103  1  0  0  0  0
 27 28  1  0  0  0  0
 27104  1  0  0  0  0
 28 29  1  0  0  0  0
 28105  1  0  0  0  0
 29 30  1  0  0  0  0
 29106  1  0  0  0  0
 30 31  1  0  0  0  0
 30107  1  0  0  0  0
 31 32  1  0  0  0  0
 31108  1  0  0  0  0
 32 33  1  0  0  0  0
 32109  1  0  0  0  0
 33 34  1  0  0  0  0
 33110  1  0  0  0  0
 34 35  1  0  0  0  0
 34111  1  0  0  0  0
 35 36  1  0  0  0  0
 35112  1  0  0  0  0
 36 37  1  0  0  0  0
 36113  1  0  0  0  0
 37 38  1  0  0  0  0
 37114  1  0  0  0  0
 38 39  1  0  0  0  0
 38115  1  0  0  0  0
 39 40  1  0  0  0  0
 39116  1  0  0  0  0
 40 41  1  0  0  0  0
 40117  1  0  0  0  0
 41 42  1  0  0  0  0
 41118  1  0  0  0  0
 42 43  1  0  0  0  0
 42119  1  0  0  0  0
 43 44  1  0  0  0  0
 43120  1  0  0  0  0
 44 45  1  0  0  0  0
 44121  1  0  0  0  0
 45 46  1  0  0  0  0
 45122  1  0  0  0  0
 46 47  1  0  0  0  0
 46123  1  0  0  0  0
 47 48  1  0  0  0  0
 47124  1  0  0  0  0
 48 49  1  0  0  0  0
 48125  1  0  0  0  0
 49 50  1  0  0  0  0
 49126  1  0  0  0  0
 50 51  1  0  0  0  0
 50127  1  0  0  0  0
 51 52  1  0  0  0  0
 51128  1  0  0  0  0
 52 53  1  0  0  0  0
 52129  1  0  0  0  0
 53 54  1  0  0  0  0
 53130  1  0  0  0  0
 54 55  1  0  0  0  0
 54131  1  0  0  0  0
 55 56  1  0  0  0  0
 55132  1  0  0  0  0
 56 57  1  0  0  0  0
 56133  1  0  0  0  0
 57 58  1  0  0  0  0
 57134  1  0  0  0  0
 58 59  1  0  0  0  0
 58135  1  0  0  0  0
 59 60  1  0  0  0  0
 59136  1  0  0  0  0
 60 61  1  0  0  0  0
 60137  1  0  0  0  0
 61 62  1  0  0  0  0
 61138  1  0  0  0  0
 62 63  1  0  0  0  0
 62139  1  0  0  0  0
 63 64  1  0  0  0  0
 63140  1  0  0  0  0
 64 65  1  0  0  0  0
 64141  1  0  0  0  0
 65 66  1  0  0  0  0
 65142  1  0  0  0  0
 66 67  1  0  0  0  0
 66143  1  0  0  0  0
 67 68  1  0  0  0  0
 67144  1  0  0  0  0
 68 69  1  0  0  0  0
 68145  1  0  0  0  0
 69 70  1  0  0  0  0
 69146  1  0  0  0  0
 70 71  1  0  0  0  0
 70147  1  0  0  0  0
 71 72  1  0  0  0  0
 71148  1  0  0  0  0
 72 73  1  0  0  0  0
 72149  1  0  0  0  0
 73 74  1  0  0  0  0
 73150  1  0  0  0  0
 74 75  1  0  0  0  0
 74151  1  0  0  0  0
 75 76  1  0  0  0  0
 75152  1  0  0  0  0
 76 77  1  0  0  0  0
 76153  1  0  0  0  0
 77 78  1  0  0  0  0
 77154  1  0  0  0  0
 78 79  1  0  0  0  0
 78155  1  0  0  0  0
 79 80  1  0  0  0  0
 79156  1  0  0  0  0
 80 81  1  0  0  0  0
 80157  1  0  0  0  0
 81158  1  0  0  0  0
 81159  1  0  0  0  0
M  END
$$$$
