
 OpenBabel04232216413D

180179  0  0  0  0  0  0  0  0999 V2000
   31.3037   15.9016   18.7666 C   0  0  0  0  0  0  0  0  0  0  0  0
   30.6469   14.7366   18.8845 C   0  0  0  0  0  0  0  0  0  0  0  0
   31.3469   13.4211   19.0502 C   0  0  0  0  0  0  0  0  0  0  0  0
   30.9913   12.4977   17.9664 N   0  0  0  0  0  0  0  0  0  0  0  0
   31.6810   11.2788   18.1598 N   0  0  0  0  0  0  0  0  0  0  0  0
   31.3383   10.3994   17.1125 N   0  0  0  0  0  0  0  0  0  0  0  0
   32.0111    9.1654   17.2805 N   0  0  0  0  0  0  0  0  0  0  0  0
   31.6771    8.2636   16.2310 N   0  0  0  0  0  0  0  0  0  0  0  0
   32.3683    7.0272   16.4198 N   0  0  0  0  0  0  0  0  0  0  0  0
   31.9980    6.1312   15.3332 C   0  0  0  0  0  0  0  0  0  0  0  0
   32.7207    4.8061   15.5158 C   0  0  0  0  0  0  0  0  0  0  0  0
   32.3608    3.8476   14.3944 C   0  0  0  0  0  0  0  0  0  0  0  0
   33.0833    2.5278   14.5777 C   0  0  0  0  0  0  0  0  0  0  0  0
   32.7206    1.5733   13.4589 C   0  0  0  0  0  0  0  0  0  0  0  0
   33.4430    0.2553   13.6434 C   0  0  0  0  0  0  0  0  0  0  0  0
   33.0818   -0.6978   12.5238 C   0  0  0  0  0  0  0  0  0  0  0  0
   33.8026   -2.0162   12.7095 C   0  0  0  0  0  0  0  0  0  0  0  0
   33.4398   -2.9700   11.5910 C   0  0  0  0  0  0  0  0  0  0  0  0
   34.1591   -4.2891   11.7778 C   0  0  0  0  0  0  0  0  0  0  0  0
   33.7948   -5.2436   10.6604 C   0  0  0  0  0  0  0  0  0  0  0  0
   34.5156   -6.5620   10.8460 C   0  0  0  0  0  0  0  0  0  0  0  0
   34.1529   -7.5162    9.7275 C   0  0  0  0  0  0  0  0  0  0  0  0
   34.8724   -8.8365    9.9137 C   0  0  0  0  0  0  0  0  0  0  0  0
   34.5121   -9.7935    8.7930 C   0  0  0  0  0  0  0  0  0  0  0  0
   35.2329  -11.1218    8.9757 C   0  0  0  0  0  0  0  0  0  0  0  0
   34.8803  -12.0927    7.8490 C   0  0  0  0  0  0  0  0  0  0  0  0
   35.5826  -13.3645    8.0398 N   0  0  0  0  0  0  0  0  0  0  0  0
   35.2136  -14.2172    7.0093 N   0  0  0  0  0  0  0  0  0  0  0  0
   35.8866  -15.4472    7.1794 N   0  0  0  0  0  0  0  0  0  0  0  0
   35.5382  -16.3181    6.1381 N   0  0  0  0  0  0  0  0  0  0  0  0
   35.9166  -15.7677    4.8767 N   0  0  0  0  0  0  0  0  0  0  0  0
   37.3417  -15.5442    4.8423 N   0  0  0  0  0  0  0  0  0  0  0  0
   38.0406  -16.7732    5.0526 N   0  0  0  0  0  0  0  0  0  0  0  0
   37.7003  -17.6892    4.0152 N   0  0  0  0  0  0  0  0  0  0  0  0
   38.0472  -17.1346    2.7393 N   0  0  0  0  0  0  0  0  0  0  0  0
   39.4475  -16.8807    2.6992 N   0  0  0  0  0  0  0  0  0  0  0  0
   40.1799  -18.0891    2.9088 N   0  0  0  0  0  0  0  0  0  0  0  0
   39.8462  -19.0516    1.8978 N   0  0  0  0  0  0  0  0  0  0  0  0
   40.1706  -18.5053    0.6198 N   0  0  0  0  0  0  0  0  0  0  0  0
   41.5741  -18.2322    0.5625 N   0  0  0  0  0  0  0  0  0  0  0  0
   42.3226  -19.4251    0.8162 N   0  0  0  0  0  0  0  0  0  0  0  0
   41.9980  -20.3992   -0.1866 N   0  0  0  0  0  0  0  0  0  0  0  0
   42.3409  -19.8838   -1.4927 N   0  0  0  0  0  0  0  0  0  0  0  0
   43.7227  -19.5483   -1.5433 N   0  0  0  0  0  0  0  0  0  0  0  0
   44.4714  -20.7282   -1.2809 N   0  0  0  0  0  0  0  0  0  0  0  0
   44.1523  -21.7168   -2.2801 N   0  0  0  0  0  0  0  0  0  0  0  0
   44.4583  -21.2151   -3.5754 N   0  0  0  0  0  0  0  0  0  0  0  0
   45.8498  -20.8941   -3.6600 N   0  0  0  0  0  0  0  0  0  0  0  0
   46.6462  -22.0571   -3.4000 N   0  0  0  0  0  0  0  0  0  0  0  0
   46.3328  -23.0667   -4.3585 N   0  0  0  0  0  0  0  0  0  0  0  0
   46.6202  -22.5765   -5.6719 N   0  0  0  0  0  0  0  0  0  0  0  0
   47.9826  -22.2048   -5.7481 N   0  0  0  0  0  0  0  0  0  0  0  0
   48.8073  -23.3640   -5.5050 N   0  0  0  0  0  0  0  0  0  0  0  0
   48.5124  -24.4069   -6.4517 N   0  0  0  0  0  0  0  0  0  0  0  0
   48.7693  -23.9261   -7.7665 N   0  0  0  0  0  0  0  0  0  0  0  0
   50.1553  -23.5469   -7.8761 N   0  0  0  0  0  0  0  0  0  0  0  0
   50.9855  -24.6755   -7.5782 N   0  0  0  0  0  0  0  0  0  0  0  0
   50.6986  -25.7282   -8.5091 N   0  0  0  0  0  0  0  0  0  0  0  0
   50.9399  -25.2661   -9.8326 N   0  0  0  0  0  0  0  0  0  0  0  0
   52.3202  -24.8818   -9.9828 N   0  0  0  0  0  0  0  0  0  0  0  0
   53.1743  -25.9752   -9.6756 N   0  0  0  0  0  0  0  0  0  0  0  0
   52.8917  -27.0412  -10.5897 N   0  0  0  0  0  0  0  0  0  0  0  0
   53.0881  -26.5729  -11.9378 N   0  0  0  0  0  0  0  0  0  0  0  0
   54.4522  -26.1476  -12.0622 N   0  0  0  0  0  0  0  0  0  0  0  0
   55.3339  -27.2576  -11.7634 N   0  0  0  0  0  0  0  0  0  0  0  0
   55.0540  -28.3279  -12.6667 N   0  0  0  0  0  0  0  0  0  0  0  0
   55.2696  -27.8966  -14.0192 N   0  0  0  0  0  0  0  0  0  0  0  0
   56.6128  -27.4592  -14.1725 N   0  0  0  0  0  0  0  0  0  0  0  0
   57.5069  -28.5404  -13.8701 N   0  0  0  0  0  0  0  0  0  0  0  0
   57.2263  -29.6324  -14.7480 N   0  0  0  0  0  0  0  0  0  0  0  0
   57.4215  -29.2081  -16.1109 N   0  0  0  0  0  0  0  0  0  0  0  0
   58.7672  -28.7532  -16.2670 N   0  0  0  0  0  0  0  0  0  0  0  0
   59.6883  -29.8268  -15.9849 N   0  0  0  0  0  0  0  0  0  0  0  0
   59.4312  -30.9227  -16.8633 N   0  0  0  0  0  0  0  0  0  0  0  0
   59.5925  -30.5068  -18.2140 N   0  0  0  0  0  0  0  0  0  0  0  0
   60.9337  -30.0606  -18.4097 N   0  0  0  0  0  0  0  0  0  0  0  0
   61.8528  -31.1005  -18.1050 N   0  0  0  0  0  0  0  0  0  0  0  0
   61.6286  -32.2088  -18.9657 N   0  0  0  0  0  0  0  0  0  0  0  0
   61.7635  -31.8281  -20.3207 N   0  0  0  0  0  0  0  0  0  0  0  0
   63.0737  -31.3509  -20.5539 N   0  0  0  0  0  0  0  0  0  0  0  0
   30.7817   16.8431   18.6453 H   0  0  0  0  0  0  0  0  0  0  0  0
   32.3892   15.9145   18.7692 H   0  0  0  0  0  0  0  0  0  0  0  0
   29.5594   14.7446   18.8817 H   0  0  0  0  0  0  0  0  0  0  0  0
   31.0578   12.9973   20.0208 H   0  0  0  0  0  0  0  0  0  0  0  0
   32.4302   13.5941   19.0702 H   0  0  0  0  0  0  0  0  0  0  0  0
   31.2813   12.9116   17.0829 H   0  0  0  0  0  0  0  0  0  0  0  0
   31.3995   10.8565   19.0409 H   0  0  0  0  0  0  0  0  0  0  0  0
   31.5994   10.8574   16.2393 H   0  0  0  0  0  0  0  0  0  0  0  0
   31.7431    8.7585   18.1781 H   0  0  0  0  0  0  0  0  0  0  0  0
   31.9500    8.6743   15.3350 H   0  0  0  0  0  0  0  0  0  0  0  0
   32.0825    6.6303   17.3160 H   0  0  0  0  0  0  0  0  0  0  0  0
   32.2863    6.5589   14.3654 H   0  0  0  0  0  0  0  0  0  0  0  0
   30.9171    5.9500   15.3254 H   0  0  0  0  0  0  0  0  0  0  0  0
   32.4418    4.3579   16.4762 H   0  0  0  0  0  0  0  0  0  0  0  0
   33.8048    4.9682   15.5177 H   0  0  0  0  0  0  0  0  0  0  0  0
   32.6395    4.2859   13.4298 H   0  0  0  0  0  0  0  0  0  0  0  0
   31.2791    3.6746   14.3894 H   0  0  0  0  0  0  0  0  0  0  0  0
   32.8060    2.0867   15.5412 H   0  0  0  0  0  0  0  0  0  0  0  0
   34.1655    2.6973   14.5796 H   0  0  0  0  0  0  0  0  0  0  0  0
   32.9980    2.0133   12.4948 H   0  0  0  0  0  0  0  0  0  0  0  0
   31.6385    1.4026   13.4565 H   0  0  0  0  0  0  0  0  0  0  0  0
   33.1645   -0.1856   14.6067 H   0  0  0  0  0  0  0  0  0  0  0  0
   34.5251    0.4258   13.6471 H   0  0  0  0  0  0  0  0  0  0  0  0
   33.3616   -0.2575   11.5606 H   0  0  0  0  0  0  0  0  0  0  0  0
   31.9995   -0.8673   12.5192 H   0  0  0  0  0  0  0  0  0  0  0  0
   33.5239   -2.4558   13.6733 H   0  0  0  0  0  0  0  0  0  0  0  0
   34.8849   -1.8470   12.7127 H   0  0  0  0  0  0  0  0  0  0  0  0
   33.7198   -2.5310   10.6273 H   0  0  0  0  0  0  0  0  0  0  0  0
   32.3574   -3.1381   11.5869 H   0  0  0  0  0  0  0  0  0  0  0  0
   33.8802   -4.7274   12.7422 H   0  0  0  0  0  0  0  0  0  0  0  0
   35.2416   -4.1211   11.7804 H   0  0  0  0  0  0  0  0  0  0  0  0
   34.0724   -4.8046    9.6959 H   0  0  0  0  0  0  0  0  0  0  0  0
   32.7125   -5.4126   10.6587 H   0  0  0  0  0  0  0  0  0  0  0  0
   34.2369   -7.0015   11.8099 H   0  0  0  0  0  0  0  0  0  0  0  0
   35.5979   -6.3928   10.8492 H   0  0  0  0  0  0  0  0  0  0  0  0
   34.4329   -7.0768    8.7639 H   0  0  0  0  0  0  0  0  0  0  0  0
   33.0704   -7.6839    9.7235 H   0  0  0  0  0  0  0  0  0  0  0  0
   34.5910   -9.2747   10.8774 H   0  0  0  0  0  0  0  0  0  0  0  0
   35.9546   -8.6668    9.9198 H   0  0  0  0  0  0  0  0  0  0  0  0
   34.7923   -9.3494    7.8315 H   0  0  0  0  0  0  0  0  0  0  0  0
   33.4289   -9.9574    8.7890 H   0  0  0  0  0  0  0  0  0  0  0  0
   34.9479  -11.5497    9.9437 H   0  0  0  0  0  0  0  0  0  0  0  0
   36.3136  -10.9410    8.9878 H   0  0  0  0  0  0  0  0  0  0  0  0
   35.1599  -11.6248    6.8975 H   0  0  0  0  0  0  0  0  0  0  0  0
   33.7907  -12.2360    7.8534 H   0  0  0  0  0  0  0  0  0  0  0  0
   35.2887  -13.7519    8.9403 H   0  0  0  0  0  0  0  0  0  0  0  0
   35.5197  -13.8359    6.1120 H   0  0  0  0  0  0  0  0  0  0  0  0
   35.6288  -15.8518    8.0643 H   0  0  0  0  0  0  0  0  0  0  0  0
   34.5320  -16.4953    6.1657 H   0  0  0  0  0  0  0  0  0  0  0  0
   35.4265  -14.8826    4.7207 H   0  0  0  0  0  0  0  0  0  0  0  0
   37.5991  -14.9076    5.5993 H   0  0  0  0  0  0  0  0  0  0  0  0
   37.7869  -17.1721    5.9600 H   0  0  0  0  0  0  0  0  0  0  0  0
   36.7042  -17.8578    4.0076 H   0  0  0  0  0  0  0  0  0  0  0  0
   37.5271  -16.2516    2.6113 H   0  0  0  0  0  0  0  0  0  0  0  0
   39.7071  -16.2224    3.4367 H   0  0  0  0  0  0  0  0  0  0  0  0
   39.9303  -18.4885    3.8017 H   0  0  0  0  0  0  0  0  0  0  0  0
   38.8315  -19.2186    1.9591 H   0  0  0  0  0  0  0  0  0  0  0  0
   39.6461  -17.6284    0.4871 H   0  0  0  0  0  0  0  0  0  0  0  0
   41.8106  -17.5651    1.2920 H   0  0  0  0  0  0  0  0  0  0  0  0
   42.0451  -19.7684    1.7437 H   0  0  0  0  0  0  0  0  0  0  0  0
   40.9948  -20.5778   -0.1632 H   0  0  0  0  0  0  0  0  0  0  0  0
   41.8067  -19.0310   -1.6518 H   0  0  0  0  0  0  0  0  0  0  0  0
   43.9207  -18.8434   -0.8280 H   0  0  0  0  0  0  0  0  0  0  0  0
   44.2287  -21.0969   -0.3610 H   0  0  0  0  0  0  0  0  0  0  0  0
   43.1489  -21.9437   -2.2460 H   0  0  0  0  0  0  0  0  0  0  0  0
   43.9253  -20.3701   -3.7819 H   0  0  0  0  0  0  0  0  0  0  0  0
   46.0502  -20.1655   -2.9626 H   0  0  0  0  0  0  0  0  0  0  0  0
   46.4083  -22.4224   -2.4825 H   0  0  0  0  0  0  0  0  0  0  0  0
   45.3437  -23.2757   -4.3145 H   0  0  0  0  0  0  0  0  0  0  0  0
   46.0520  -21.7439   -5.8327 H   0  0  0  0  0  0  0  0  0  0  0  0
   48.1691  -21.4668   -5.0539 H   0  0  0  0  0  0  0  0  0  0  0  0
   48.5890  -23.7085   -4.5632 H   0  0  0  0  0  0  0  0  0  0  0  0
   47.5214  -24.6400   -6.3914 H   0  0  0  0  0  0  0  0  0  0  0  0
   48.2130  -23.0985   -7.9395 H   0  0  0  0  0  0  0  0  0  0  0  0
   50.3166  -22.8062   -7.1781 H   0  0  0  0  0  0  0  0  0  0  0  0
   50.7735  -24.9865   -6.6165 H   0  0  0  0  0  0  0  0  0  0  0  0
   49.6999  -25.9858   -8.4067 H   0  0  0  0  0  0  0  0  0  0  0  0
   50.3657  -24.4470  -10.0298 H   0  0  0  0  0  0  0  0  0  0  0  0
   52.5013  -24.1431   -9.3041 H   0  0  0  0  0  0  0  0  0  0  0  0
   52.9644  -26.2842   -8.7315 H   0  0  0  0  0  0  0  0  0  0  0  0
   51.8963  -27.2785  -10.4436 H   0  0  0  0  0  0  0  0  0  0  0  0
   52.4519  -25.7682  -12.0857 H   0  0  0  0  0  0  0  0  0  0  0  0
   54.6199  -25.3774  -11.3903 H   0  0  0  0  0  0  0  0  0  0  0  0
   55.1642  -27.5776  -10.8003 H   0  0  0  0  0  0  0  0  0  0  0  0
   54.0898  -28.6336  -12.5861 H   0  0  0  0  0  0  0  0  0  0  0  0
   54.6563  -27.1155  -14.2300 H   0  0  0  0  0  0  0  0  0  0  0  0
   56.8278  -26.6943  -13.5475 H   0  0  0  0  0  0  0  0  0  0  0  0
   57.3657  -28.8423  -12.9030 H   0  0  0  0  0  0  0  0  0  0  0  0
   56.2622  -29.9544  -14.6269 H   0  0  0  0  0  0  0  0  0  0  0  0
   56.7760  -28.4413  -16.3379 H   0  0  0  0  0  0  0  0  0  0  0  0
   58.9792  -27.9551  -15.6606 H   0  0  0  0  0  0  0  0  0  0  0  0
   59.5728  -30.1475  -15.0236 H   0  0  0  0  0  0  0  0  0  0  0  0
   58.4788  -31.2771  -16.7297 H   0  0  0  0  0  0  0  0  0  0  0  0
   58.9429  -29.7569  -18.4574 H   0  0  0  0  0  0  0  0  0  0  0  0
   61.1570  -29.2620  -17.8128 H   0  0  0  0  0  0  0  0  0  0  0  0
   61.7567  -31.4241  -17.1515 H   0  0  0  0  0  0  0  0  0  0  0  0
   60.6770  -32.5472  -18.8286 H   0  0  0  0  0  0  0  0  0  0  0  0
   61.1059  -31.0813  -20.5368 H   0  0  0  0  0  0  0  0  0  0  0  0
   63.7351  -32.0848  -20.3001 H   0  0  0  0  0  0  0  0  0  0  0  0
   63.2555  -30.5723  -19.9186 H   0  0  0  0  0  0  0  0  0  0  0  0
  1  2  2  0  0  0  0
  1 81  1  0  0  0  0
  1 82  1  0  0  0  0
  2  3  1  0  0  0  0
  2 83  1  0  0  0  0
  3  4  1  0  0  0  0
  3 84  1  0  0  0  0
  3 85  1  0  0  0  0
  4  5  1  0  0  0  0
  4 86  1  0  0  0  0
  5  6  1  0  0  0  0
  5 87  1  0  0  0  0
  6  7  1  0  0  0  0
  6 88  1  0  0  0  0
  7  8  1  0  0  0  0
  7 89  1  0  0  0  0
  8  9  1  0  0  0  0
  8 90  1  0  0  0  0
  9 10  1  0  0  0  0
  9 91  1  0  0  0  0
 10 11  1  0  0  0  0
 10 92  1  0  0  0  0
 10 93  1  0  0  0  0
 11 12  1  0  0  0  0
 11 94  1  0  0  0  0
 11 95  1  0  0  0  0
 12 13  1  0  0  0  0
 12 96  1  0  0  0  0
 12 97  1  0  0  0  0
 13 14  1  0  0  0  0
 13 98  1  0  0  0  0
 13 99  1  0  0  0  0
 14 15  1  0  0  0  0
 14100  1  0  0  0  0
 14101  1  0  0  0  0
 15 16  1  0  0  0  0
 15102  1  0  0  0  0
 15103  1  0  0  0  0
 16 17  1  0  0  0  0
 16104  1  0  0  0  0
 16105  1  0  0  0  0
 17 18  1  0  0  0  0
 17106  1  0  0  0  0
 17107  1  0  0  0  0
 18 19  1  0  0  0  0
 18108  1  0  0  0  0
 18109  1  0  0  0  0
 19 20  1  0  0  0  0
 19110  1  0  0  0  0
 19111  1  0  0  0  0
 20 21  1  0  0  0  0
 20112  1  0  0  0  0
 20113  1  0  0  0  0
 21 22  1  0  0  0  0
 21114  1  0  0  0  0
 21115  1  0  0  0  0
 22 23  1  0  0  0  0
 22116  1  0  0  0  0
 22117  1  0  0  0  0
 23 24  1  0  0  0  0
 23118  1  0  0  0  0
 23119  1  0  0  0  0
 24 25  1  0  0  0  0
 24120  1  0  0  0  0
 24121  1  0  0  0  0
 25 26  1  0  0  0  0
 25122  1  0  0  0  0
 25123  1  0  0  0  0
 26 27  1  0  0  0  0
 26124  1  0  0  0  0
 26125  1  0  0  0  0
 27 28  1  0  0  0  0
 27126  1  0  0  0  0
 28 29  1  0  0  0  0
 28127  1  0  0  0  0
 29 30  1  0  0  0  0
 29128  1  0  0  0  0
 30 31  1  0  0  0  0
 30129  1  0  0  0  0
 31 32  1  0  0  0  0
 31130  1  0  0  0  0
 32 33  1  0  0  0  0
 32131  1  0  0  0  0
 33 34  1  0  0  0  0
 33132  1  0  0  0  0
 34 35  1  0  0  0  0
 34133  1  0  0  0  0
 35 36  1  0  0  0  0
 35134  1  0  0  0  0
 36 37  1  0  0  0  0
 36135  1  0  0  0  0
 37 38  1  0  0  0  0
 37136  1  0  0  0  0
 38 39  1  0  0  0  0
 38137  1  0  0  0  0
 39 40  1  0  0  0  0
 39138  1  0  0  0  0
 40 41  1  0  0  0  0
 40139  1  0  0  0  0
 41 42  1  0  0  0  0
 41140  1  0  0  0  0
 42 43  1  0  0  0  0
 42141  1  0  0  0  0
 43 44  1  0  0  0  0
 43142  1  0  0  0  0
 44 45  1  0  0  0  0
 44143  1  0  0  0  0
 45 46  1  0  0  0  0
 45144  1  0  0  0  0
 46 47  1  0  0  0  0
 46145  1  0  0  0  0
 47 48  1  0  0  0  0
 47146  1  0  0  0  0
 48 49  1  0  0  0  0
 48147  1  0  0  0  0
 49 50  1  0  0  0  0
 49148  1  0  0  0  0
 50 51  1  0  0  0  0
 50149  1  0  0  0  0
 51 52  1  0  0  0  0
 51150  1  0  0  0  0
 52 53  1  0  0  0  0
 52151  1  0  0  0  0
 53 54  1  0  0  0  0
 53152  1  0  0  0  0
 54 55  1  0  0  0  0
 54153  1  0  0  0  0
 55 56  1  0  0  0  0
 55154  1  0  0  0  0
 56 57  1  0  0  0  0
 56155  1  0  0  0  0
 57 58  1  0  0  0  0
 57156  1  0  0  0  0
 58 59  1  0  0  0  0
 58157  1  0  0  0  0
 59 60  1  0  0  0  0
 59158  1  0  0  0  0
 60 61  1  0  0  0  0
 60159  1  0  0  0  0
 61 62  1  0  0  0  0
 61160  1  0  0  0  0
 62 63  1  0  0  0  0
 62161  1  0  0  0  0
 63 64  1  0  0  0  0
 63162  1  0  0  0  0
 64 65  1  0  0  0  0
 64163  1  0  0  0  0
 65 66  1  0  0  0  0
 65164  1  0  0  0  0
 66 67  1  0  0  0  0
 66165  1  0  0  0  0
 67 68  1  0  0  0  0
 67166  1  0  0  0  0
 68 69  1  0  0  0  0
 68167  1  0  0  0  0
 69 70  1  0  0  0  0
 69168  1  0  0  0  0
 70 71  1  0  0  0  0
 70169  1  0  0  0  0
 71 72  1  0  0  0  0
 71170  1  0  0  0  0
 72 73  1  0  0  0  0
 72171  1  0  0  0  0
 73 74  1  0  0  0  0
 73172  1  0  0  0  0
 74 75  1  0  0  0  0
 74173  1  0  0  0  0
 75 76  1  0  0  0  0
 75174  1  0  0  0  0
 76 77  1  0  0  0  0
 76175  1  0  0  0  0
 77 78  1  0  0  0  0
 77176  1  0  0  0  0
 78 79  1  0  0  0  0
 78177  1  0  0  0  0
 79 80  1  0  0  0  0
 79178  1  0  0  0  0
 80179  1  0  0  0  0
 80180  1  0  0  0  0
M  END
$$$$
