
 OpenBabel04232216533D

243242  0  0  0  0  0  0  0  0999 V2000
    0.8881    0.0512   -0.0754 C   0  0  0  0  0  0  0  0  0  0  0  0
    2.4071    0.0559   -0.0598 C   0  0  0  0  0  0  0  0  0  0  0  0
    2.9364    0.3023    1.3492 C   0  0  0  0  0  0  0  0  0  0  0  0
    4.4608    0.3053    1.3665 C   0  0  0  0  0  0  0  0  0  0  0  0
    4.9887    0.5513    2.7766 C   0  0  0  0  0  0  0  0  0  0  0  0
    6.5114    0.5501    2.7710 C   0  0  0  0  0  0  0  0  0  0  0  0
    7.0053    0.7904    4.1241 N   0  0  0  0  0  0  0  0  0  0  0  0
    8.4611    0.7927    4.1292 C   0  0  0  0  0  0  0  0  0  0  0  0
    8.9639    1.0421    5.5446 C   0  0  0  0  0  0  0  0  0  0  0  0
   10.4854    1.0444    5.5367 C   0  0  0  0  0  0  0  0  0  0  0  0
   10.9750    1.2855    6.8877 N   0  0  0  0  0  0  0  0  0  0  0  0
   12.4312    1.2873    6.8939 C   0  0  0  0  0  0  0  0  0  0  0  0
   12.9285    1.5366    8.3086 C   0  0  0  0  0  0  0  0  0  0  0  0
   14.4504    1.5440    8.3222 C   0  0  0  0  0  0  0  0  0  0  0  0
   14.9672    1.7920    9.7285 C   0  0  0  0  0  0  0  0  0  0  0  0
   16.4868    1.7949    9.7328 C   0  0  0  0  0  0  0  0  0  0  0  0
   17.0024    2.0448   11.1386 C   0  0  0  0  0  0  0  0  0  0  0  0
   18.5204    2.0458   11.1441 C   0  0  0  0  0  0  0  0  0  0  0  0
   19.0322    2.2940   12.5512 C   0  0  0  0  0  0  0  0  0  0  0  0
   20.5494    2.2972   12.5575 C   0  0  0  0  0  0  0  0  0  0  0  0
   21.0597    2.5474   13.9643 C   0  0  0  0  0  0  0  0  0  0  0  0
   22.5766    2.5524   13.9688 C   0  0  0  0  0  0  0  0  0  0  0  0
   23.0877    2.8004   15.3752 C   0  0  0  0  0  0  0  0  0  0  0  0
   24.6045    2.8032   15.3789 C   0  0  0  0  0  0  0  0  0  0  0  0
   25.1155    3.0512   16.7852 C   0  0  0  0  0  0  0  0  0  0  0  0
   26.6321    3.0520   16.7893 C   0  0  0  0  0  0  0  0  0  0  0  0
   27.1423    3.3000   18.1958 C   0  0  0  0  0  0  0  0  0  0  0  0
   28.6589    3.3010   18.2010 C   0  0  0  0  0  0  0  0  0  0  0  0
   29.1681    3.5491   19.6080 C   0  0  0  0  0  0  0  0  0  0  0  0
   30.6846    3.5501   19.6138 C   0  0  0  0  0  0  0  0  0  0  0  0
   31.1947    3.7982   21.0206 C   0  0  0  0  0  0  0  0  0  0  0  0
   32.7115    3.7988   21.0247 C   0  0  0  0  0  0  0  0  0  0  0  0
   33.2222    4.0469   22.4311 C   0  0  0  0  0  0  0  0  0  0  0  0
   34.7391    4.0456   22.4358 C   0  0  0  0  0  0  0  0  0  0  0  0
   35.2492    4.2942   23.8423 C   0  0  0  0  0  0  0  0  0  0  0  0
   36.7659    4.2949   23.8475 C   0  0  0  0  0  0  0  0  0  0  0  0
   37.2758    4.5450   25.2538 C   0  0  0  0  0  0  0  0  0  0  0  0
   38.7924    4.5478   25.2581 C   0  0  0  0  0  0  0  0  0  0  0  0
   39.3026    4.7999   26.6640 C   0  0  0  0  0  0  0  0  0  0  0  0
   40.8191    4.8008   26.6686 C   0  0  0  0  0  0  0  0  0  0  0  0
   41.3292    5.0509   28.0749 C   0  0  0  0  0  0  0  0  0  0  0  0
   42.8459    5.0517   28.0796 C   0  0  0  0  0  0  0  0  0  0  0  0
   43.3559    5.3018   29.4858 C   0  0  0  0  0  0  0  0  0  0  0  0
   44.8725    5.3027   29.4905 C   0  0  0  0  0  0  0  0  0  0  0  0
   45.3825    5.5526   30.8968 C   0  0  0  0  0  0  0  0  0  0  0  0
   46.8991    5.5536   30.9015 C   0  0  0  0  0  0  0  0  0  0  0  0
   47.4092    5.8036   32.3078 C   0  0  0  0  0  0  0  0  0  0  0  0
   48.9257    5.8043   32.3124 C   0  0  0  0  0  0  0  0  0  0  0  0
   49.4360    6.0545   33.7185 C   0  0  0  0  0  0  0  0  0  0  0  0
   50.9526    6.0572   33.7225 C   0  0  0  0  0  0  0  0  0  0  0  0
   51.4626    6.3075   35.1289 C   0  0  0  0  0  0  0  0  0  0  0  0
   52.9790    6.3084   35.1338 C   0  0  0  0  0  0  0  0  0  0  0  0
   53.4890    6.5605   36.5397 C   0  0  0  0  0  0  0  0  0  0  0  0
   55.0057    6.5593   36.5447 C   0  0  0  0  0  0  0  0  0  0  0  0
   55.5158    6.8095   37.9509 C   0  0  0  0  0  0  0  0  0  0  0  0
   57.0324    6.8102   37.9558 C   0  0  0  0  0  0  0  0  0  0  0  0
   57.5423    7.0626   39.3616 C   0  0  0  0  0  0  0  0  0  0  0  0
   59.0590    7.0612   39.3670 C   0  0  0  0  0  0  0  0  0  0  0  0
   59.5690    7.3134   40.7728 C   0  0  0  0  0  0  0  0  0  0  0  0
   61.0856    7.3101   40.7781 C   0  0  0  0  0  0  0  0  0  0  0  0
   61.5958    7.5622   42.1840 C   0  0  0  0  0  0  0  0  0  0  0  0
   63.1125    7.5591   42.1893 C   0  0  0  0  0  0  0  0  0  0  0  0
   63.6225    7.8111   43.5952 C   0  0  0  0  0  0  0  0  0  0  0  0
   65.1391    7.8080   43.6006 C   0  0  0  0  0  0  0  0  0  0  0  0
   65.6492    8.0600   45.0065 C   0  0  0  0  0  0  0  0  0  0  0  0
   67.1659    8.0570   45.0119 C   0  0  0  0  0  0  0  0  0  0  0  0
   67.6760    8.3090   46.4179 C   0  0  0  0  0  0  0  0  0  0  0  0
   69.1928    8.3060   46.4234 C   0  0  0  0  0  0  0  0  0  0  0  0
   69.7029    8.5580   47.8293 C   0  0  0  0  0  0  0  0  0  0  0  0
   71.2198    8.5569   47.8348 C   0  0  0  0  0  0  0  0  0  0  0  0
   71.7305    8.8091   49.2410 C   0  0  0  0  0  0  0  0  0  0  0  0
   73.2478    8.8081   49.2469 C   0  0  0  0  0  0  0  0  0  0  0  0
   73.7593    9.0603   50.6532 C   0  0  0  0  0  0  0  0  0  0  0  0
   75.2773    9.0594   50.6599 C   0  0  0  0  0  0  0  0  0  0  0  0
   75.7911    9.3116   52.0664 C   0  0  0  0  0  0  0  0  0  0  0  0
   77.3104    9.3089   52.0743 C   0  0  0  0  0  0  0  0  0  0  0  0
   77.8281    9.5611   53.4808 C   0  0  0  0  0  0  0  0  0  0  0  0
   79.3495    9.5591   53.4926 C   0  0  0  0  0  0  0  0  0  0  0  0
   79.8688    9.8138   54.9020 C   0  0  0  0  0  0  0  0  0  0  0  0
   81.3950    9.8123   54.9274 C   0  0  0  0  0  0  0  0  0  0  0  0
   81.9040   10.0660   56.3315 C   0  0  0  0  0  0  0  0  0  0  0  0
    0.5196   -0.1264   -1.0893 H   0  0  0  0  0  0  0  0  0  0  0  0
    0.4926    1.0116    0.2701 H   0  0  0  0  0  0  0  0  0  0  0  0
    0.4949   -0.7363    0.5754 H   0  0  0  0  0  0  0  0  0  0  0  0
    2.7751    0.8339   -0.7389 H   0  0  0  0  0  0  0  0  0  0  0  0
    2.7773   -0.9051   -0.4356 H   0  0  0  0  0  0  0  0  0  0  0  0
    2.5633   -0.4753    2.0266 H   0  0  0  0  0  0  0  0  0  0  0  0
    2.5632    1.2636    1.7226 H   0  0  0  0  0  0  0  0  0  0  0  0
    4.8376    1.0830    0.6908 H   0  0  0  0  0  0  0  0  0  0  0  0
    4.8375   -0.6557    0.9949 H   0  0  0  0  0  0  0  0  0  0  0  0
    4.6137   -0.2266    3.4537 H   0  0  0  0  0  0  0  0  0  0  0  0
    4.6156    1.5138    3.1496 H   0  0  0  0  0  0  0  0  0  0  0  0
    6.8729    1.3368    2.0994 H   0  0  0  0  0  0  0  0  0  0  0  0
    6.8792   -0.4124    2.3981 H   0  0  0  0  0  0  0  0  0  0  0  0
    6.6574    0.0701    4.7594 H   0  0  0  0  0  0  0  0  0  0  0  0
    8.8387    1.5790    3.4649 H   0  0  0  0  0  0  0  0  0  0  0  0
    8.8449   -0.1696    3.7688 H   0  0  0  0  0  0  0  0  0  0  0  0
    8.5908    0.2623    6.2217 H   0  0  0  0  0  0  0  0  0  0  0  0
    8.5874    2.0041    5.9147 H   0  0  0  0  0  0  0  0  0  0  0  0
   10.8469    1.8283    4.8609 H   0  0  0  0  0  0  0  0  0  0  0  0
   10.8542    0.0799    5.1663 H   0  0  0  0  0  0  0  0  0  0  0  0
   10.6168    0.5659    7.5151 H   0  0  0  0  0  0  0  0  0  0  0  0
   12.8085    2.0767    6.2323 H   0  0  0  0  0  0  0  0  0  0  0  0
   12.8177    0.3271    6.5310 H   0  0  0  0  0  0  0  0  0  0  0  0
   12.5560    0.7575    8.9853 H   0  0  0  0  0  0  0  0  0  0  0  0
   12.5502    2.4981    8.6788 H   0  0  0  0  0  0  0  0  0  0  0  0
   14.8255    2.3229    7.6466 H   0  0  0  0  0  0  0  0  0  0  0  0
   14.8306    0.5841    7.9513 H   0  0  0  0  0  0  0  0  0  0  0  0
   14.5948    1.0138   10.4059 H   0  0  0  0  0  0  0  0  0  0  0  0
   14.5922    2.7534   10.1001 H   0  0  0  0  0  0  0  0  0  0  0  0
   16.8614    2.5717    9.0550 H   0  0  0  0  0  0  0  0  0  0  0  0
   16.8636    0.8331    9.3632 H   0  0  0  0  0  0  0  0  0  0  0  0
   16.6280    1.2687   11.8174 H   0  0  0  0  0  0  0  0  0  0  0  0
   16.6279    3.0073   11.5082 H   0  0  0  0  0  0  0  0  0  0  0  0
   18.8966    2.8231   10.4676 H   0  0  0  0  0  0  0  0  0  0  0  0
   18.8967    1.0839   10.7745 H   0  0  0  0  0  0  0  0  0  0  0  0
   18.6578    1.5161   13.2280 H   0  0  0  0  0  0  0  0  0  0  0  0
   18.6555    3.2553   12.9219 H   0  0  0  0  0  0  0  0  0  0  0  0
   20.9247    3.0744   11.8804 H   0  0  0  0  0  0  0  0  0  0  0  0
   20.9270    1.3355   12.1888 H   0  0  0  0  0  0  0  0  0  0  0  0
   20.6863    1.7695   14.6416 H   0  0  0  0  0  0  0  0  0  0  0  0
   20.6818    3.5085   14.3342 H   0  0  0  0  0  0  0  0  0  0  0  0
   22.9502    3.3312   13.2925 H   0  0  0  0  0  0  0  0  0  0  0  0
   22.9548    1.5917   13.5977 H   0  0  0  0  0  0  0  0  0  0  0  0
   22.7135    2.0223   16.0519 H   0  0  0  0  0  0  0  0  0  0  0  0
   22.7110    3.7617   15.7460 H   0  0  0  0  0  0  0  0  0  0  0  0
   24.9790    3.5812   14.7023 H   0  0  0  0  0  0  0  0  0  0  0  0
   24.9813    1.8418   15.0082 H   0  0  0  0  0  0  0  0  0  0  0  0
   24.7400    2.2739   17.4622 H   0  0  0  0  0  0  0  0  0  0  0  0
   24.7399    4.0131   17.1554 H   0  0  0  0  0  0  0  0  0  0  0  0
   27.0078    3.8293   16.1125 H   0  0  0  0  0  0  0  0  0  0  0  0
   27.0079    2.0900   16.4192 H   0  0  0  0  0  0  0  0  0  0  0  0
   26.7665    2.5227   18.8725 H   0  0  0  0  0  0  0  0  0  0  0  0
   26.7665    4.2619   18.5658 H   0  0  0  0  0  0  0  0  0  0  0  0
   29.0349    4.0784   17.5244 H   0  0  0  0  0  0  0  0  0  0  0  0
   29.0350    2.3392   17.8310 H   0  0  0  0  0  0  0  0  0  0  0  0
   28.7917    2.7719   20.2845 H   0  0  0  0  0  0  0  0  0  0  0  0
   28.7918    4.5111   19.9776 H   0  0  0  0  0  0  0  0  0  0  0  0
   31.0607    4.3275   18.9371 H   0  0  0  0  0  0  0  0  0  0  0  0
   31.0606    2.5883   19.2439 H   0  0  0  0  0  0  0  0  0  0  0  0
   30.8190    3.0207   21.6972 H   0  0  0  0  0  0  0  0  0  0  0  0
   30.8188    4.7600   21.3907 H   0  0  0  0  0  0  0  0  0  0  0  0
   33.0871    4.5758   20.3477 H   0  0  0  0  0  0  0  0  0  0  0  0
   33.0867    2.8368   20.6548 H   0  0  0  0  0  0  0  0  0  0  0  0
   32.8456    3.2709   23.1085 H   0  0  0  0  0  0  0  0  0  0  0  0
   32.8483    5.0098   22.8002 H   0  0  0  0  0  0  0  0  0  0  0  0
   35.1158    4.8218   21.7583 H   0  0  0  0  0  0  0  0  0  0  0  0
   35.1138    3.0828   22.0667 H   0  0  0  0  0  0  0  0  0  0  0  0
   34.8731    3.5175   24.5195 H   0  0  0  0  0  0  0  0  0  0  0  0
   34.8735    5.2565   24.2118 H   0  0  0  0  0  0  0  0  0  0  0  0
   37.1418    5.0711   23.1696 H   0  0  0  0  0  0  0  0  0  0  0  0
   37.1415    3.3324   23.4790 H   0  0  0  0  0  0  0  0  0  0  0  0
   36.9011    3.7679   25.9314 H   0  0  0  0  0  0  0  0  0  0  0  0
   36.8989    5.5069   25.6230 H   0  0  0  0  0  0  0  0  0  0  0  0
   39.1672    5.3240   24.5795 H   0  0  0  0  0  0  0  0  0  0  0  0
   39.1693    3.5855   24.8902 H   0  0  0  0  0  0  0  0  0  0  0  0
   38.9268    4.0244   27.3429 H   0  0  0  0  0  0  0  0  0  0  0  0
   38.9268    5.7628   27.0313 H   0  0  0  0  0  0  0  0  0  0  0  0
   41.1949    5.5771   25.9908 H   0  0  0  0  0  0  0  0  0  0  0  0
   41.1951    3.8383   26.3001 H   0  0  0  0  0  0  0  0  0  0  0  0
   40.9535    4.2745   28.7528 H   0  0  0  0  0  0  0  0  0  0  0  0
   40.9534    6.0133   28.4435 H   0  0  0  0  0  0  0  0  0  0  0  0
   43.2217    5.8281   27.4017 H   0  0  0  0  0  0  0  0  0  0  0  0
   43.2217    4.0893   27.7110 H   0  0  0  0  0  0  0  0  0  0  0  0
   42.9801    4.5254   30.1637 H   0  0  0  0  0  0  0  0  0  0  0  0
   42.9801    6.2642   29.8545 H   0  0  0  0  0  0  0  0  0  0  0  0
   45.2483    6.0790   28.8127 H   0  0  0  0  0  0  0  0  0  0  0  0
   45.2484    4.3402   29.1219 H   0  0  0  0  0  0  0  0  0  0  0  0
   45.0068    4.7764   31.5746 H   0  0  0  0  0  0  0  0  0  0  0  0
   45.0067    6.5152   31.2655 H   0  0  0  0  0  0  0  0  0  0  0  0
   47.2750    6.3299   30.2236 H   0  0  0  0  0  0  0  0  0  0  0  0
   47.2750    4.5911   30.5328 H   0  0  0  0  0  0  0  0  0  0  0  0
   47.0333    5.0274   32.9856 H   0  0  0  0  0  0  0  0  0  0  0  0
   47.0335    6.7662   32.6763 H   0  0  0  0  0  0  0  0  0  0  0  0
   49.3016    6.5803   31.6343 H   0  0  0  0  0  0  0  0  0  0  0  0
   49.3014    4.8416   31.9440 H   0  0  0  0  0  0  0  0  0  0  0  0
   49.0615    5.2775   34.3962 H   0  0  0  0  0  0  0  0  0  0  0  0
   49.0591    7.0164   34.0876 H   0  0  0  0  0  0  0  0  0  0  0  0
   51.3275    6.8339   33.0446 H   0  0  0  0  0  0  0  0  0  0  0  0
   51.3294    5.0953   33.3537 H   0  0  0  0  0  0  0  0  0  0  0  0
   51.0867    5.5310   35.8067 H   0  0  0  0  0  0  0  0  0  0  0  0
   51.0864    7.2699   35.4977 H   0  0  0  0  0  0  0  0  0  0  0  0
   53.3550    7.0837   34.4549 H   0  0  0  0  0  0  0  0  0  0  0  0
   53.3548    5.3454   34.7666 H   0  0  0  0  0  0  0  0  0  0  0  0
   53.1121    5.7860   37.2189 H   0  0  0  0  0  0  0  0  0  0  0  0
   53.1145    7.5242   36.9064 H   0  0  0  0  0  0  0  0  0  0  0  0
   55.3826    7.3348   35.8665 H   0  0  0  0  0  0  0  0  0  0  0  0
   55.3804    5.5962   36.1767 H   0  0  0  0  0  0  0  0  0  0  0  0
   55.1399    6.0332   38.6288 H   0  0  0  0  0  0  0  0  0  0  0  0
   55.1401    7.7720   38.3195 H   0  0  0  0  0  0  0  0  0  0  0  0
   57.4084    7.5854   37.2767 H   0  0  0  0  0  0  0  0  0  0  0  0
   57.4081    5.8471   37.5886 H   0  0  0  0  0  0  0  0  0  0  0  0
   57.1652    6.2880   40.0409 H   0  0  0  0  0  0  0  0  0  0  0  0
   57.1677    8.0261   39.7282 H   0  0  0  0  0  0  0  0  0  0  0  0
   59.4362    7.8356   38.6878 H   0  0  0  0  0  0  0  0  0  0  0  0
   59.4335    6.0974   39.0004 H   0  0  0  0  0  0  0  0  0  0  0  0
   59.1908    6.5399   41.4525 H   0  0  0  0  0  0  0  0  0  0  0  0
   59.1957    8.2778   41.1388 H   0  0  0  0  0  0  0  0  0  0  0  0
   61.4639    8.0837   40.0985 H   0  0  0  0  0  0  0  0  0  0  0  0
   61.4590    6.3457   40.4120 H   0  0  0  0  0  0  0  0  0  0  0  0
   61.2177    6.7884   42.8635 H   0  0  0  0  0  0  0  0  0  0  0  0
   61.2224    8.5265   42.5501 H   0  0  0  0  0  0  0  0  0  0  0  0
   63.4906    8.3328   41.5098 H   0  0  0  0  0  0  0  0  0  0  0  0
   63.4859    6.5948   41.8231 H   0  0  0  0  0  0  0  0  0  0  0  0
   63.2444    7.0374   44.2747 H   0  0  0  0  0  0  0  0  0  0  0  0
   63.2491    8.7754   43.9614 H   0  0  0  0  0  0  0  0  0  0  0  0
   65.5173    8.5818   42.9211 H   0  0  0  0  0  0  0  0  0  0  0  0
   65.5126    6.8437   43.2344 H   0  0  0  0  0  0  0  0  0  0  0  0
   65.2711    7.2862   45.6859 H   0  0  0  0  0  0  0  0  0  0  0  0
   65.2756    9.0243   45.3727 H   0  0  0  0  0  0  0  0  0  0  0  0
   67.5440    8.8307   44.3324 H   0  0  0  0  0  0  0  0  0  0  0  0
   67.5393    7.0927   44.6457 H   0  0  0  0  0  0  0  0  0  0  0  0
   67.2978    7.5353   47.0974 H   0  0  0  0  0  0  0  0  0  0  0  0
   67.3025    9.2733   46.7840 H   0  0  0  0  0  0  0  0  0  0  0  0
   69.5708    9.0797   45.7438 H   0  0  0  0  0  0  0  0  0  0  0  0
   69.5662    7.3417   46.0572 H   0  0  0  0  0  0  0  0  0  0  0  0
   69.3259    7.7835   48.5085 H   0  0  0  0  0  0  0  0  0  0  0  0
   69.3283    9.5216   48.1960 H   0  0  0  0  0  0  0  0  0  0  0  0
   71.5967    9.3315   47.1555 H   0  0  0  0  0  0  0  0  0  0  0  0
   71.5944    7.5933   47.4680 H   0  0  0  0  0  0  0  0  0  0  0  0
   71.3533    8.0345   49.9200 H   0  0  0  0  0  0  0  0  0  0  0  0
   71.3556    9.7726   49.6075 H   0  0  0  0  0  0  0  0  0  0  0  0
   73.6243    9.5826   48.5673 H   0  0  0  0  0  0  0  0  0  0  0  0
   73.6220    7.8444   48.8798 H   0  0  0  0  0  0  0  0  0  0  0  0
   73.3817    8.2856   51.3320 H   0  0  0  0  0  0  0  0  0  0  0  0
   73.3841   10.0238   51.0196 H   0  0  0  0  0  0  0  0  0  0  0  0
   75.6533    9.8337   49.9799 H   0  0  0  0  0  0  0  0  0  0  0  0
   75.6508    8.0957   50.2924 H   0  0  0  0  0  0  0  0  0  0  0  0
   75.4120    8.5378   52.7454 H   0  0  0  0  0  0  0  0  0  0  0  0
   75.4166   10.2756   52.4321 H   0  0  0  0  0  0  0  0  0  0  0  0
   77.6865   10.0823   51.3933 H   0  0  0  0  0  0  0  0  0  0  0  0
   77.6818    8.3444   51.7067 H   0  0  0  0  0  0  0  0  0  0  0  0
   77.4483    8.7875   54.1596 H   0  0  0  0  0  0  0  0  0  0  0  0
   77.4529   10.5250   53.8463 H   0  0  0  0  0  0  0  0  0  0  0  0
   79.7259   10.3316   52.8106 H   0  0  0  0  0  0  0  0  0  0  0  0
   79.7210    8.5940   53.1262 H   0  0  0  0  0  0  0  0  0  0  0  0
   79.4846    9.0418   55.5794 H   0  0  0  0  0  0  0  0  0  0  0  0
   79.4916   10.7781   55.2630 H   0  0  0  0  0  0  0  0  0  0  0  0
   81.7772   10.5848   54.2511 H   0  0  0  0  0  0  0  0  0  0  0  0
   81.7701    8.8478   54.5676 H   0  0  0  0  0  0  0  0  0  0  0  0
   81.5609   11.0372   56.7025 H   0  0  0  0  0  0  0  0  0  0  0  0
   82.9992   10.0638   56.3438 H   0  0  0  0  0  0  0  0  0  0  0  0
   81.5538    9.2909   57.0208 H   0  0  0  0  0  0  0  0  0  0  0  0
  1  2  1  0  0  0  0
  1 82  1  0  0  0  0
  1 83  1  0  0  0  0
  1 84  1  0  0  0  0
  2  3  1  0  0  0  0
  2 85  1  0  0  0  0
  2 86  1  0  0  0  0
  3  4  1  0  0  0  0
  3 87  1  0  0  0  0
  3 88  1  0  0  0  0
  4  5  1  0  0  0  0
  4 89  1  0  0  0  0
  4 90  1  0  0  0  0
  5  6  1  0  0  0  0
  5 91  1  0  0  0  0
  5 92  1  0  0  0  0
  6  7  1  0  0  0  0
  6 93  1  0  0  0  0
  6 94  1  0  0  0  0
  7  8  1  0  0  0  0
  7 95  1  0  0  0  0
  8  9  1  0  0  0  0
  8 96  1  0  0  0  0
  8 97  1  0  0  0  0
  9 10  1  0  0  0  0
  9 98  1  0  0  0  0
  9 99  1  0  0  0  0
 10 11  1  0  0  0  0
 10100  1  0  0  0  0
 10101  1  0  0  0  0
 11 12  1  0  0  0  0
 11102  1  0  0  0  0
 12 13  1  0  0  0  0
 12103  1  0  0  0  0
 12104  1  0  0  0  0
 13 14  1  0  0  0  0
 13105  1  0  0  0  0
 13106  1  0  0  0  0
 14 15  1  0  0  0  0
 14107  1  0  0  0  0
 14108  1  0  0  0  0
 15 16  1  0  0  0  0
 15109  1  0  0  0  0
 15110  1  0  0  0  0
 16 17  1  0  0  0  0
 16111  1  0  0  0  0
 16112  1  0  0  0  0
 17 18  1  0  0  0  0
 17113  1  0  0  0  0
 17114  1  0  0  0  0
 18 19  1  0  0  0  0
 18115  1  0  0  0  0
 18116  1  0  0  0  0
 19 20  1  0  0  0  0
 19117  1  0  0  0  0
 19118  1  0  0  0  0
 20 21  1  0  0  0  0
 20119  1  0  0  0  0
 20120  1  0  0  0  0
 21 22  1  0  0  0  0
 21121  1  0  0  0  0
 21122  1  0  0  0  0
 22 23  1  0  0  0  0
 22123  1  0  0  0  0
 22124  1  0  0  0  0
 23 24  1  0  0  0  0
 23125  1  0  0  0  0
 23126  1  0  0  0  0
 24 25  1  0  0  0  0
 24127  1  0  0  0  0
 24128  1  0  0  0  0
 25 26  1  0  0  0  0
 25129  1  0  0  0  0
 25130  1  0  0  0  0
 26 27  1  0  0  0  0
 26131  1  0  0  0  0
 26132  1  0  0  0  0
 27 28  1  0  0  0  0
 27133  1  0  0  0  0
 27134  1  0  0  0  0
 28 29  1  0  0  0  0
 28135  1  0  0  0  0
 28136  1  0  0  0  0
 29 30  1  0  0  0  0
 29137  1  0  0  0  0
 29138  1  0  0  0  0
 30 31  1  0  0  0  0
 30139  1  0  0  0  0
 30140  1  0  0  0  0
 31 32  1  0  0  0  0
 31141  1  0  0  0  0
 31142  1  0  0  0  0
 32 33  1  0  0  0  0
 32143  1  0  0  0  0
 32144  1  0  0  0  0
 33 34  1  0  0  0  0
 33145  1  0  0  0  0
 33146  1  0  0  0  0
 34 35  1  0  0  0  0
 34147  1  0  0  0  0
 34148  1  0  0  0  0
 35 36  1  0  0  0  0
 35149  1  0  0  0  0
 35150  1  0  0  0  0
 36 37  1  0  0  0  0
 36151  1  0  0  0  0
 36152  1  0  0  0  0
 37 38  1  0  0  0  0
 37153  1  0  0  0  0
 37154  1  0  0  0  0
 38 39  1  0  0  0  0
 38155  1  0  0  0  0
 38156  1  0  0  0  0
 39 40  1  0  0  0  0
 39157  1  0  0  0  0
 39158  1  0  0  0  0
 40 41  1  0  0  0  0
 40159  1  0  0  0  0
 40160  1  0  0  0  0
 41 42  1  0  0  0  0
 41161  1  0  0  0  0
 41162  1  0  0  0  0
 42 43  1  0  0  0  0
 42163  1  0  0  0  0
 42164  1  0  0  0  0
 43 44  1  0  0  0  0
 43165  1  0  0  0  0
 43166  1  0  0  0  0
 44 45  1  0  0  0  0
 44167  1  0  0  0  0
 44168  1  0  0  0  0
 45 46  1  0  0  0  0
 45169  1  0  0  0  0
 45170  1  0  0  0  0
 46 47  1  0  0  0  0
 46171  1  0  0  0  0
 46172  1  0  0  0  0
 47 48  1  0  0  0  0
 47173  1  0  0  0  0
 47174  1  0  0  0  0
 48 49  1  0  0  0  0
 48175  1  0  0  0  0
 48176  1  0  0  0  0
 49 50  1  0  0  0  0
 49177  1  0  0  0  0
 49178  1  0  0  0  0
 50 51  1  0  0  0  0
 50179  1  0  0  0  0
 50180  1  0  0  0  0
 51 52  1  0  0  0  0
 51181  1  0  0  0  0
 51182  1  0  0  0  0
 52 53  1  0  0  0  0
 52183  1  0  0  0  0
 52184  1  0  0  0  0
 53 54  1  0  0  0  0
 53185  1  0  0  0  0
 53186  1  0  0  0  0
 54 55  1  0  0  0  0
 54187  1  0  0  0  0
 54188  1  0  0  0  0
 55 56  1  0  0  0  0
 55189  1  0  0  0  0
 55190  1  0  0  0  0
 56 57  1  0  0  0  0
 56191  1  0  0  0  0
 56192  1  0  0  0  0
 57 58  1  0  0  0  0
 57193  1  0  0  0  0
 57194  1  0  0  0  0
 58 59  1  0  0  0  0
 58195  1  0  0  0  0
 58196  1  0  0  0  0
 59 60  1  0  0  0  0
 59197  1  0  0  0  0
 59198  1  0  0  0  0
 60 61  1  0  0  0  0
 60199  1  0  0  0  0
 60200  1  0  0  0  0
 61 62  1  0  0  0  0
 61201  1  0  0  0  0
 61202  1  0  0  0  0
 62 63  1  0  0  0  0
 62203  1  0  0  0  0
 62204  1  0  0  0  0
 63 64  1  0  0  0  0
 63205  1  0  0  0  0
 63206  1  0  0  0  0
 64 65  1  0  0  0  0
 64207  1  0  0  0  0
 64208  1  0  0  0  0
 65 66  1  0  0  0  0
 65209  1  0  0  0  0
 65210  1  0  0  0  0
 66 67  1  0  0  0  0
 66211  1  0  0  0  0
 66212  1  0  0  0  0
 67 68  1  0  0  0  0
 67213  1  0  0  0  0
 67214  1  0  0  0  0
 68 69  1  0  0  0  0
 68215  1  0  0  0  0
 68216  1  0  0  0  0
 69 70  1  0  0  0  0
 69217  1  0  0  0  0
 69218  1  0  0  0  0
 70 71  1  0  0  0  0
 70219  1  0  0  0  0
 70220  1  0  0  0  0
 71 72  1  0  0  0  0
 71221  1  0  0  0  0
 71222  1  0  0  0  0
 72 73  1  0  0  0  0
 72223  1  0  0  0  0
 72224  1  0  0  0  0
 73 74  1  0  0  0  0
 73225  1  0  0  0  0
 73226  1  0  0  0  0
 74 75  1  0  0  0  0
 74227  1  0  0  0  0
 74228  1  0  0  0  0
 75 76  1  0  0  0  0
 75229  1  0  0  0  0
 75230  1  0  0  0  0
 76 77  1  0  0  0  0
 76231  1  0  0  0  0
 76232  1  0  0  0  0
 77 78  1  0  0  0  0
 77233  1  0  0  0  0
 77234  1  0  0  0  0
 78 79  1  0  0  0  0
 78235  1  0  0  0  0
 78236  1  0  0  0  0
 79 80  1  0  0  0  0
 79237  1  0  0  0  0
 79238  1  0  0  0  0
 80 81  1  0  0  0  0
 80239  1  0  0  0  0
 80240  1  0  0  0  0
 81241  1  0  0  0  0
 81242  1  0  0  0  0
 81243  1  0  0  0  0
M  END
$$$$
