
 OpenBabel04232216463D

 57 58  0  0  1  0  0  0  0  0999 V2000
    2.5543   -2.3405   -0.8064 C   0  0  0  0  0  0  0  0  0  0  0  0
    2.2219   -0.8620   -0.6833 C   0  0  3  0  0  0  0  0  0  0  0  0
    2.6303   -0.1388   -1.9321 C   0  0  0  0  0  0  0  0  0  0  0  0
    3.5848    0.7606   -1.6528 C   0  0  0  0  0  0  0  0  0  0  0  0
    4.2850    1.6516   -2.6208 C   0  0  0  0  0  0  0  0  0  0  0  0
    4.0470    3.1188   -2.2870 C   0  0  0  0  0  0  0  0  0  0  0  0
    4.7486    4.0412   -3.2686 C   0  0  0  0  0  0  0  0  0  0  0  0
    4.4803    5.4881   -2.8794 C   0  0  0  0  0  0  0  0  0  0  0  0
    5.1759    6.4216   -3.8502 C   0  0  0  0  0  0  0  0  0  0  0  0
    4.9149    7.8683   -3.4677 C   0  0  0  0  0  0  0  0  0  0  0  0
    5.6163    8.7845   -4.4510 C   0  0  0  0  0  0  0  0  0  0  0  0
    5.3693   10.2402   -4.1020 C   0  0  0  0  0  0  0  0  0  0  0  0
    6.0653   11.1307   -5.1064 C   0  0  0  0  0  0  0  0  0  0  0  0
    6.7584   10.6985   -6.0161 O   0  0  0  0  0  0  0  0  0  0  0  0
    5.8890   12.5797   -4.9682 C   0  0  0  0  0  0  0  0  0  0  0  0
    5.2076   13.2440   -4.0232 C   0  0  0  0  0  0  0  0  0  0  0  0
    5.3238   14.6567   -4.2899 C   0  0  0  0  0  0  0  0  0  0  0  0
    6.0667   14.8541   -5.3943 C   0  0  0  0  0  0  0  0  0  0  0  0
    6.4879   16.1355   -6.0396 C   0  0  0  0  0  0  0  0  0  0  0  0
    6.0088   16.3050   -7.4859 C   0  0  0  0  0  0  0  0  0  0  0  0
    5.3306   15.4691   -8.0878 O   0  0  0  0  0  0  0  0  0  0  0  0
    6.4059   17.5684   -8.2033 C   0  0  0  0  0  0  0  0  0  0  0  0
    6.5052   13.5223   -5.9484 C   0  0  0  0  0  0  0  0  0  0  0  0
    3.8574    0.7360   -0.2302 C   0  0  0  0  0  0  0  0  0  0  0  0
    3.0736   -0.1810    0.3533 C   0  0  0  0  0  0  0  0  0  0  0  0
    2.0107   -2.7903   -1.6443 H   0  0  0  0  0  0  0  0  0  0  0  0
    2.2878   -2.8789    0.1075 H   0  0  0  0  0  0  0  0  0  0  0  0
    3.6256   -2.4970   -0.9883 H   0  0  0  0  0  0  0  0  0  0  0  0
    1.1557   -0.7053   -0.4828 H   0  0  0  0  0  0  0  0  0  0  0  0
    2.2231   -0.3563   -2.9087 H   0  0  0  0  0  0  0  0  0  0  0  0
    3.9279    1.4460   -3.6388 H   0  0  0  0  0  0  0  0  0  0  0  0
    5.3587    1.4299   -2.6146 H   0  0  0  0  0  0  0  0  0  0  0  0
    4.4150    3.3382   -1.2775 H   0  0  0  0  0  0  0  0  0  0  0  0
    2.9716    3.3361   -2.2966 H   0  0  0  0  0  0  0  0  0  0  0  0
    4.3868    3.8551   -4.2869 H   0  0  0  0  0  0  0  0  0  0  0  0
    5.8283    3.8480   -3.2618 H   0  0  0  0  0  0  0  0  0  0  0  0
    4.8390    5.6770   -1.8596 H   0  0  0  0  0  0  0  0  0  0  0  0
    3.4007    5.6850   -2.8813 H   0  0  0  0  0  0  0  0  0  0  0  0
    4.8149    6.2331   -4.8689 H   0  0  0  0  0  0  0  0  0  0  0  0
    6.2548    6.2234   -3.8464 H   0  0  0  0  0  0  0  0  0  0  0  0
    5.2796    8.0598   -2.4513 H   0  0  0  0  0  0  0  0  0  0  0  0
    3.8367    8.0691   -3.4713 H   0  0  0  0  0  0  0  0  0  0  0  0
    5.2556    8.5831   -5.4677 H   0  0  0  0  0  0  0  0  0  0  0  0
    6.6941    8.5774   -4.4502 H   0  0  0  0  0  0  0  0  0  0  0  0
    5.7418   10.4559   -3.0931 H   0  0  0  0  0  0  0  0  0  0  0  0
    4.2966   10.4542   -4.1404 H   0  0  0  0  0  0  0  0  0  0  0  0
    4.6693   12.8202   -3.1907 H   0  0  0  0  0  0  0  0  0  0  0  0
    4.8726   15.3950   -3.6481 H   0  0  0  0  0  0  0  0  0  0  0  0
    7.5825   16.1885   -6.0363 H   0  0  0  0  0  0  0  0  0  0  0  0
    6.1067   16.9827   -5.4593 H   0  0  0  0  0  0  0  0  0  0  0  0
    7.0044   18.2234   -7.5656 H   0  0  0  0  0  0  0  0  0  0  0  0
    5.4956   18.0938   -8.5046 H   0  0  0  0  0  0  0  0  0  0  0  0
    6.9888   17.2991   -9.0885 H   0  0  0  0  0  0  0  0  0  0  0  0
    7.5961   13.4259   -5.9539 H   0  0  0  0  0  0  0  0  0  0  0  0
    6.1071   13.3511   -6.9515 H   0  0  0  0  0  0  0  0  0  0  0  0
    4.5746    1.3692    0.2737 H   0  0  0  0  0  0  0  0  0  0  0  0
    3.0536   -0.4121    1.4093 H   0  0  0  0  0  0  0  0  0  0  0  0
  1  2  1  0  0  0  0
  1 26  1  0  0  0  0
  1 27  1  0  0  0  0
  1 28  1  0  0  0  0
  2  3  1  0  0  0  0
  2 25  1  0  0  0  0
  2 29  1  0  0  0  0
  3  4  2  0  0  0  0
  3 30  1  0  0  0  0
  4  5  1  0  0  0  0
  4 24  1  0  0  0  0
  5  6  1  0  0  0  0
  5 31  1  0  0  0  0
  5 32  1  0  0  0  0
  6  7  1  0  0  0  0
  6 33  1  0  0  0  0
  6 34  1  0  0  0  0
  7  8  1  0  0  0  0
  7 35  1  0  0  0  0
  7 36  1  0  0  0  0
  8  9  1  0  0  0  0
  8 37  1  0  0  0  0
  8 38  1  0  0  0  0
  9 10  1  0  0  0  0
  9 39  1  0  0  0  0
  9 40  1  0  0  0  0
 10 11  1  0  0  0  0
 10 41  1  0  0  0  0
 10 42  1  0  0  0  0
 11 12  1  0  0  0  0
 11 43  1  0  0  0  0
 11 44  1  0  0  0  0
 12 13  1  0  0  0  0
 12 45  1  0  0  0  0
 12 46  1  0  0  0  0
 13 14  2  0  0  0  0
 13 15  1  0  0  0  0
 15 16  2  0  0  0  0
 15 23  1  0  0  0  0
 16 17  1  0  0  0  0
 16 47  1  0  0  0  0
 17 18  2  0  0  0  0
 17 48  1  0  0  0  0
 18 19  1  0  0  0  0
 18 23  1  0  0  0  0
 19 20  1  0  0  0  0
 19 49  1  0  0  0  0
 19 50  1  0  0  0  0
 20 21  2  0  0  0  0
 20 22  1  0  0  0  0
 22 51  1  0  0  0  0
 22 52  1  0  0  0  0
 22 53  1  0  0  0  0
 23 54  1  0  0  0  0
 23 55  1  0  0  0  0
 24 25  2  0  0  0  0
 24 56  1  0  0  0  0
 25 57  1  0  0  0  0
M  END
$$$$
