
 OpenBabel04232216423D

 54 56  0  0  1  0  0  0  0  0999 V2000
    2.9830   -1.8717    2.2494 C   0  0  0  0  0  0  0  0  0  0  0  0
    4.4259   -1.7687    2.0431 C   0  0  0  0  0  0  0  0  0  0  0  0
    5.0941   -1.3777    0.9376 C   0  0  0  0  0  0  0  0  0  0  0  0
    4.4692   -1.1910   -0.3473 C   0  0  0  0  0  0  0  0  0  0  0  0
    3.1426   -0.8112   -0.3275 N   0  0  0  0  0  0  0  0  0  0  0  0
    2.7176    0.5584   -0.1691 C   0  0  0  0  0  0  0  0  0  0  0  0
    3.0825    1.3596   -1.4095 C   0  0  0  0  0  0  0  0  0  0  0  0
    4.5882    1.6555   -1.4897 C   0  0  0  0  0  0  0  0  0  0  0  0
    5.3219    0.8700   -2.5346 N   0  0  3  0  0  0  0  0  0  0  0  0
    6.0665    1.8121   -3.3711 C   0  0  0  0  0  0  0  0  0  0  0  0
    6.4486    1.3193   -4.7638 C   0  0  0  0  0  0  0  0  0  0  0  0
    7.6001    0.3335   -4.7838 C   0  0  0  0  0  0  0  0  0  0  0  0
    7.2135   -0.9834   -4.1436 C   0  0  0  0  0  0  0  0  0  0  0  0
    7.3314   -0.8622   -2.6322 C   0  0  0  0  0  0  0  0  0  0  0  0
    6.1069   -0.2545   -1.9160 C   0  0  3  0  0  0  0  0  0  0  0  0
    5.1461   -1.3729   -1.5099 C   0  0  0  0  0  0  0  0  0  0  0  0
    4.6646   -2.3617   -2.5141 C   0  0  0  0  0  0  0  0  0  0  0  0
    5.4449   -3.6662   -2.5430 C   0  0  0  0  0  0  0  0  0  0  0  0
    3.4218   -2.2797   -3.0566 C   0  0  0  0  0  0  0  0  0  0  0  0
    2.4843   -3.3210   -2.5840 C   0  0  0  0  0  0  0  0  0  0  0  0
    1.5421   -2.9663   -1.6770 C   0  0  0  0  0  0  0  0  0  0  0  0
    1.3240   -3.7830   -0.5015 C   0  0  0  0  0  0  0  0  0  0  0  0
    1.5328   -3.5773    0.8236 C   0  0  0  0  0  0  0  0  0  0  0  0
    1.9026   -2.5082    1.7417 C   0  0  0  0  0  0  0  0  0  0  0  0
    2.7399   -1.2020    3.0811 H   0  0  0  0  0  0  0  0  0  0  0  0
    5.0146   -1.8413    2.9575 H   0  0  0  0  0  0  0  0  0  0  0  0
    6.1732   -1.2435    0.9928 H   0  0  0  0  0  0  0  0  0  0  0  0
    2.7324   -1.1511   -1.1714 H   0  0  0  0  0  0  0  0  0  0  0  0
    3.1190    1.0051    0.7476 H   0  0  0  0  0  0  0  0  0  0  0  0
    1.6241    0.5438   -0.0572 H   0  0  0  0  0  0  0  0  0  0  0  0
    2.5369    2.3087   -1.3609 H   0  0  0  0  0  0  0  0  0  0  0  0
    2.7263    0.8586   -2.3187 H   0  0  0  0  0  0  0  0  0  0  0  0
    5.0650    1.5804   -0.5036 H   0  0  0  0  0  0  0  0  0  0  0  0
    4.6481    2.7286   -1.7110 H   0  0  0  0  0  0  0  0  0  0  0  0
    6.9271    2.2249   -2.8338 H   0  0  0  0  0  0  0  0  0  0  0  0
    5.3991    2.6594   -3.5885 H   0  0  0  0  0  0  0  0  0  0  0  0
    6.7404    2.1931   -5.3587 H   0  0  0  0  0  0  0  0  0  0  0  0
    5.5713    0.8893   -5.2646 H   0  0  0  0  0  0  0  0  0  0  0  0
    8.4708    0.7716   -4.2828 H   0  0  0  0  0  0  0  0  0  0  0  0
    7.8979    0.1570   -5.8249 H   0  0  0  0  0  0  0  0  0  0  0  0
    7.8995   -1.7640   -4.4931 H   0  0  0  0  0  0  0  0  0  0  0  0
    6.2104   -1.2903   -4.4607 H   0  0  0  0  0  0  0  0  0  0  0  0
    8.2269   -0.2827   -2.3763 H   0  0  0  0  0  0  0  0  0  0  0  0
    7.5473   -1.8573   -2.2238 H   0  0  0  0  0  0  0  0  0  0  0  0
    6.5612    0.1490   -0.9979 H   0  0  0  0  0  0  0  0  0  0  0  0
    6.4015   -3.6116   -2.0176 H   0  0  0  0  0  0  0  0  0  0  0  0
    5.6693   -3.9256   -3.5861 H   0  0  0  0  0  0  0  0  0  0  0  0
    4.9047   -4.5031   -2.0928 H   0  0  0  0  0  0  0  0  0  0  0  0
    2.9672   -1.2941   -3.1417 H   0  0  0  0  0  0  0  0  0  0  0  0
    2.8623   -4.3392   -2.5794 H   0  0  0  0  0  0  0  0  0  0  0  0
    1.1457   -1.9583   -1.6366 H   0  0  0  0  0  0  0  0  0  0  0  0
    0.8852   -4.7420   -0.7718 H   0  0  0  0  0  0  0  0  0  0  0  0
    1.1547   -4.4076    1.4186 H   0  0  0  0  0  0  0  0  0  0  0  0
    0.9996   -2.2324    2.2836 H   0  0  0  0  0  0  0  0  0  0  0  0
  1  2  1  0  0  0  0
  1 24  2  3  0  0  0
  1 25  1  0  0  0  0
  2  3  2  3  0  0  0
  2 26  1  0  0  0  0
  3  4  1  0  0  0  0
  3 27  1  0  0  0  0
  4  5  1  0  0  0  0
  4 16  2  0  0  0  0
  5  6  1  0  0  0  0
  5 28  1  0  0  0  0
  6  7  1  0  0  0  0
  6 29  1  0  0  0  0
  6 30  1  0  0  0  0
  7  8  1  0  0  0  0
  7 31  1  0  0  0  0
  7 32  1  0  0  0  0
  8  9  1  0  0  0  0
  8 33  1  0  0  0  0
  8 34  1  0  0  0  0
  9 10  1  0  0  0  0
  9 15  1  0  0  0  0
 10 11  1  0  0  0  0
 10 35  1  0  0  0  0
 10 36  1  0  0  0  0
 11 12  1  0  0  0  0
 11 37  1  0  0  0  0
 11 38  1  0  0  0  0
 12 13  1  0  0  0  0
 12 39  1  0  0  0  0
 12 40  1  0  0  0  0
 13 14  1  0  0  0  0
 13 41  1  0  0  0  0
 13 42  1  0  0  0  0
 14 15  1  0  0  0  0
 14 43  1  0  0  0  0
 14 44  1  0  0  0  0
 15 16  1  0  0  0  0
 15 45  1  0  0  0  0
 16 17  1  0  0  0  0
 17 18  1  0  0  0  0
 17 19  2  3  0  0  0
 18 46  1  0  0  0  0
 18 47  1  0  0  0  0
 18 48  1  0  0  0  0
 19 20  1  0  0  0  0
 19 49  1  0  0  0  0
 20 21  2  3  0  0  0
 20 50  1  0  0  0  0
 21 22  1  0  0  0  0
 21 51  1  0  0  0  0
 22 23  2  3  0  0  0
 22 52  1  0  0  0  0
 23 24  1  0  0  0  0
 23 53  1  0  0  0  0
 24 54  1  0  0  0  0
M  END
$$$$
