
 OpenBabel04232216483D

 55 55  0  0  0  0  0  0  0  0999 V2000
    6.6086   -1.9276    3.5762 C   0  0  0  0  0  0  0  0  0  0  0  0
    7.6423   -2.7282    2.6484 C   0  0  0  0  0  0  0  0  0  0  0  0
    6.9332   -2.2719    1.4209 C   0  0  0  0  0  0  0  0  0  0  0  0
    6.3122   -2.1128    0.2200 C   0  0  0  0  0  0  0  0  0  0  0  0
    5.8873   -3.2061   -0.7246 C   0  0  0  0  0  0  0  0  0  0  0  0
    5.0730   -4.2312   -0.2064 N   0  0  0  0  0  0  0  0  0  0  0  0
    3.6454   -4.1330    0.0542 C   0  0  0  0  0  0  0  0  0  0  0  0
    2.8379   -4.3606   -1.2235 C   0  0  0  0  0  0  0  0  0  0  0  0
    3.0949   -5.7412   -1.8326 C   0  0  0  0  0  0  0  0  0  0  0  0
    2.4257   -5.8793   -3.1253 N   0  0  0  0  0  0  0  0  0  0  0  0
    1.0595   -5.8775   -2.9845 F   0  0  0  0  0  0  0  0  0  0  0  0
    7.0372   -3.5326   -1.3981 C   0  0  0  0  0  0  0  0  0  0  0  0
    7.9394   -4.3075   -0.5861 C   0  0  0  0  0  0  0  0  0  0  0  0
    9.2498   -4.3644   -0.3958 C   0  0  0  0  0  0  0  0  0  0  0  0
    9.6439   -5.6135    0.1776 C   0  0  0  0  0  0  0  0  0  0  0  0
    8.7508   -6.4899    1.0492 C   0  0  0  0  0  0  0  0  0  0  0  0
   10.8580   -5.9766   -0.2264 C   0  0  0  0  0  0  0  0  0  0  0  0
   11.5151   -7.0980    0.1679 N   0  0  0  0  0  0  0  0  0  0  0  0
   12.7295   -6.9814   -0.1888 C   0  0  0  0  0  0  0  0  0  0  0  0
   13.6907   -7.5888    0.5469 N   0  0  0  0  0  0  0  0  0  0  0  0
   14.0914   -6.6732    1.3669 C   0  0  0  0  0  0  0  0  0  0  0  0
   15.3343   -6.1532    1.1443 N   0  0  0  0  0  0  0  0  0  0  0  0
   13.2853   -6.3243    2.6260 C   0  0  0  0  0  0  0  0  0  0  0  0
   12.3153   -5.5812    3.2403 C   0  0  0  0  0  0  0  0  0  0  0  0
   11.2082   -4.4990    3.3053 C   0  0  0  0  0  0  0  0  0  0  0  0
   10.2474   -3.8313    2.5543 C   0  0  0  0  0  0  0  0  0  0  0  0
    9.0269   -2.8157    2.9590 C   0  0  0  0  0  0  0  0  0  0  0  0
    6.0078   -2.6186    4.1737 H   0  0  0  0  0  0  0  0  0  0  0  0
    5.8163   -1.3671    3.0085 H   0  0  0  0  0  0  0  0  0  0  0  0
    7.0782   -1.1521    4.1724 H   0  0  0  0  0  0  0  0  0  0  0  0
    6.3802   -3.2385    1.5813 H   0  0  0  0  0  0  0  0  0  0  0  0
    6.1892   -1.1444   -0.2616 H   0  0  0  0  0  0  0  0  0  0  0  0
    5.5460   -4.8011    0.4889 H   0  0  0  0  0  0  0  0  0  0  0  0
    3.4078   -3.1614    0.4971 H   0  0  0  0  0  0  0  0  0  0  0  0
    3.3634   -4.8966    0.7929 H   0  0  0  0  0  0  0  0  0  0  0  0
    3.0819   -3.5779   -1.9512 H   0  0  0  0  0  0  0  0  0  0  0  0
    1.7704   -4.2592   -0.9877 H   0  0  0  0  0  0  0  0  0  0  0  0
    2.7435   -6.5293   -1.1566 H   0  0  0  0  0  0  0  0  0  0  0  0
    4.1664   -5.8989   -1.9900 H   0  0  0  0  0  0  0  0  0  0  0  0
    2.7386   -6.7450   -3.5645 H   0  0  0  0  0  0  0  0  0  0  0  0
    7.5403   -2.8269   -2.0425 H   0  0  0  0  0  0  0  0  0  0  0  0
    7.4867   -4.5633    0.3628 H   0  0  0  0  0  0  0  0  0  0  0  0
    9.9492   -3.6421   -0.7916 H   0  0  0  0  0  0  0  0  0  0  0  0
    7.7127   -6.1607    1.1301 H   0  0  0  0  0  0  0  0  0  0  0  0
    9.1168   -6.5070    2.0785 H   0  0  0  0  0  0  0  0  0  0  0  0
    8.6826   -7.5067    0.6546 H   0  0  0  0  0  0  0  0  0  0  0  0
   11.4034   -5.2398   -0.8031 H   0  0  0  0  0  0  0  0  0  0  0  0
   13.1274   -6.1992   -0.8765 H   0  0  0  0  0  0  0  0  0  0  0  0
   15.4313   -5.2045    1.4633 H   0  0  0  0  0  0  0  0  0  0  0  0
   16.0780   -6.7010    1.5594 H   0  0  0  0  0  0  0  0  0  0  0  0
   13.7471   -7.0629    3.3173 H   0  0  0  0  0  0  0  0  0  0  0  0
   12.3543   -5.9316    4.2927 H   0  0  0  0  0  0  0  0  0  0  0  0
   11.2651   -4.1372    4.3360 H   0  0  0  0  0  0  0  0  0  0  0  0
   10.7584   -3.3655    1.7054 H   0  0  0  0  0  0  0  0  0  0  0  0
    9.4489   -1.9030    2.5680 H   0  0  0  0  0  0  0  0  0  0  0  0
  1  2  1  0  0  0  0
  1 28  1  0  0  0  0
  1 29  1  0  0  0  0
  1 30  1  0  0  0  0
  2  3  1  0  0  0  0
  2 27  2  3  0  0  0
  3  4  2  3  0  0  0
  3 31  1  0  0  0  0
  4  5  1  0  0  0  0
  4 32  1  0  0  0  0
  5  6  1  0  0  0  0
  5 12  2  3  0  0  0
  6  7  1  0  0  0  0
  6 33  1  0  0  0  0
  7  8  1  0  0  0  0
  7 34  1  0  0  0  0
  7 35  1  0  0  0  0
  8  9  1  0  0  0  0
  8 36  1  0  0  0  0
  8 37  1  0  0  0  0
  9 10  1  0  0  0  0
  9 38  1  0  0  0  0
  9 39  1  0  0  0  0
 10 11  1  0  0  0  0
 10 40  1  0  0  0  0
 12 13  1  0  0  0  0
 12 41  1  0  0  0  0
 13 14  2  3  0  0  0
 13 42  1  0  0  0  0
 14 15  1  0  0  0  0
 14 43  1  0  0  0  0
 15 16  1  0  0  0  0
 15 17  2  3  0  0  0
 16 44  1  0  0  0  0
 16 45  1  0  0  0  0
 16 46  1  0  0  0  0
 17 18  1  0  0  0  0
 17 47  1  0  0  0  0
 18 19  2  3  0  0  0
 19 20  1  0  0  0  0
 19 48  1  0  0  0  0
 20 21  2  3  0  0  0
 21 22  1  0  0  0  0
 21 23  1  0  0  0  0
 22 49  1  0  0  0  0
 22 50  1  0  0  0  0
 23 24  2  3  0  0  0
 23 51  1  0  0  0  0
 24 25  1  0  0  0  0
 24 52  1  0  0  0  0
 25 26  2  3  0  0  0
 25 53  1  0  0  0  0
 26 27  1  0  0  0  0
 26 54  1  0  0  0  0
 27 55  1  0  0  0  0
M  END
$$$$
