
 OpenBabel04232216553D

 59 59  0  0  0  0  0  0  0  0999 V2000
    3.8379   -3.6630   -4.2006 C   0  0  0  0  0  0  0  0  0  0  0  0
    4.4638   -3.5376   -2.7718 N   0  0  0  0  0  0  0  0  0  0  0  0
    3.2903   -3.1910   -1.9859 C   0  0  0  0  0  0  0  0  0  0  0  0
    2.6079   -1.7771   -1.9920 C   0  0  0  0  0  0  0  0  0  0  0  0
    1.0421   -1.5144   -1.8206 C   0  0  0  0  0  0  0  0  0  0  0  0
    0.1909   -2.1703   -2.9004 C   0  0  0  0  0  0  0  0  0  0  0  0
   -1.3093   -1.8938   -2.7454 C   0  0  0  0  0  0  0  0  0  0  0  0
   -2.1062   -2.5856   -3.8564 C   0  0  0  0  0  0  0  0  0  0  0  0
   -3.6023   -2.3178   -3.7128 C   0  0  0  0  0  0  0  0  0  0  0  0
   -4.3798   -3.0131   -4.8248 C   0  0  0  0  0  0  0  0  0  0  0  0
   -5.8730   -2.7464   -4.6849 C   0  0  0  0  0  0  0  0  0  0  0  0
   -6.6438   -3.4438   -5.7984 C   0  0  0  0  0  0  0  0  0  0  0  0
   -8.1389   -3.1808   -5.6675 C   0  0  0  0  0  0  0  0  0  0  0  0
   -8.9043   -3.8764   -6.7777 C   0  0  0  0  0  0  0  0  0  0  0  0
    2.7401   -4.1512   -1.2959 C   0  0  0  0  0  0  0  0  0  0  0  0
    2.9128   -3.6884    0.0712 C   0  0  0  0  0  0  0  0  0  0  0  0
    4.0443   -3.9931    0.5463 C   0  0  0  0  0  0  0  0  0  0  0  0
    4.7308   -3.7296    1.7146 C   0  0  0  0  0  0  0  0  0  0  0  0
    4.4285   -2.5386    2.5288 C   0  0  0  0  0  0  0  0  0  0  0  0
    5.2795   -4.8459    2.1013 C   0  0  0  0  0  0  0  0  0  0  0  0
    6.5627   -5.0955    1.4562 C   0  0  0  0  0  0  0  0  0  0  0  0
    6.8032   -5.2355    0.0733 C   0  0  0  0  0  0  0  0  0  0  0  0
    6.2437   -5.1439   -1.2642 N   0  0  0  0  0  0  0  0  0  0  0  0
    5.5236   -4.7315   -2.3278 N   0  0  0  0  0  0  0  0  0  0  0  0
    3.0216   -2.9093   -4.2609 H   0  0  0  0  0  0  0  0  0  0  0  0
    3.2417   -4.5826   -4.3464 H   0  0  0  0  0  0  0  0  0  0  0  0
    4.4168   -3.3518   -5.0790 H   0  0  0  0  0  0  0  0  0  0  0  0
    2.9595   -1.1530   -2.8156 H   0  0  0  0  0  0  0  0  0  0  0  0
    2.9743   -1.3290   -1.0666 H   0  0  0  0  0  0  0  0  0  0  0  0
    0.8762   -0.4216   -1.8311 H   0  0  0  0  0  0  0  0  0  0  0  0
    0.7131   -1.8244   -0.8196 H   0  0  0  0  0  0  0  0  0  0  0  0
    0.3604   -3.2416   -2.8642 H   0  0  0  0  0  0  0  0  0  0  0  0
    0.5153   -1.8115   -3.8763 H   0  0  0  0  0  0  0  0  0  0  0  0
   -1.5058   -0.8147   -2.7810 H   0  0  0  0  0  0  0  0  0  0  0  0
   -1.6600   -2.2590   -1.7723 H   0  0  0  0  0  0  0  0  0  0  0  0
   -1.9284   -3.6678   -3.8254 H   0  0  0  0  0  0  0  0  0  0  0  0
   -1.7677   -2.2329   -4.8390 H   0  0  0  0  0  0  0  0  0  0  0  0
   -3.7946   -1.2385   -3.7487 H   0  0  0  0  0  0  0  0  0  0  0  0
   -3.9540   -2.6777   -2.7383 H   0  0  0  0  0  0  0  0  0  0  0  0
   -4.1927   -4.0935   -4.7895 H   0  0  0  0  0  0  0  0  0  0  0  0
   -4.0307   -2.6564   -5.8017 H   0  0  0  0  0  0  0  0  0  0  0  0
   -6.0619   -1.6666   -4.7219 H   0  0  0  0  0  0  0  0  0  0  0  0
   -6.2239   -3.1044   -3.7093 H   0  0  0  0  0  0  0  0  0  0  0  0
   -6.4514   -4.5232   -5.7600 H   0  0  0  0  0  0  0  0  0  0  0  0
   -6.2875   -3.0871   -6.7728 H   0  0  0  0  0  0  0  0  0  0  0  0
   -8.3330   -2.1026   -5.7086 H   0  0  0  0  0  0  0  0  0  0  0  0
   -8.4970   -3.5393   -4.6954 H   0  0  0  0  0  0  0  0  0  0  0  0
   -8.5792   -3.5151   -7.7586 H   0  0  0  0  0  0  0  0  0  0  0  0
   -9.9759   -3.6837   -6.6779 H   0  0  0  0  0  0  0  0  0  0  0  0
   -8.7440   -4.9586   -6.7404 H   0  0  0  0  0  0  0  0  0  0  0  0
    3.1184   -5.1677   -1.4811 H   0  0  0  0  0  0  0  0  0  0  0  0
    2.4040   -2.8055    0.4926 H   0  0  0  0  0  0  0  0  0  0  0  0
    4.5835   -4.7120   -0.1126 H   0  0  0  0  0  0  0  0  0  0  0  0
    3.7762   -1.8232    2.0301 H   0  0  0  0  0  0  0  0  0  0  0  0
    5.3495   -2.0072    2.8020 H   0  0  0  0  0  0  0  0  0  0  0  0
    3.9225   -2.8859    3.4356 H   0  0  0  0  0  0  0  0  0  0  0  0
    4.7733   -5.7880    1.7301 H   0  0  0  0  0  0  0  0  0  0  0  0
    7.2541   -5.3287    2.2750 H   0  0  0  0  0  0  0  0  0  0  0  0
    7.6997   -5.9281    0.1100 H   0  0  0  0  0  0  0  0  0  0  0  0
  1  2  1  0  0  0  0
  1 25  1  0  0  0  0
  1 26  1  0  0  0  0
  1 27  1  0  0  0  0
  2  3  1  0  0  0  0
  2 24  1  0  0  0  0
  3  4  1  0  0  0  0
  3 15  2  3  0  0  0
  4  5  1  0  0  0  0
  4 28  1  0  0  0  0
  4 29  1  0  0  0  0
  5  6  1  0  0  0  0
  5 30  1  0  0  0  0
  5 31  1  0  0  0  0
  6  7  1  0  0  0  0
  6 32  1  0  0  0  0
  6 33  1  0  0  0  0
  7  8  1  0  0  0  0
  7 34  1  0  0  0  0
  7 35  1  0  0  0  0
  8  9  1  0  0  0  0
  8 36  1  0  0  0  0
  8 37  1  0  0  0  0
  9 10  1  0  0  0  0
  9 38  1  0  0  0  0
  9 39  1  0  0  0  0
 10 11  1  0  0  0  0
 10 40  1  0  0  0  0
 10 41  1  0  0  0  0
 11 12  1  0  0  0  0
 11 42  1  0  0  0  0
 11 43  1  0  0  0  0
 12 13  1  0  0  0  0
 12 44  1  0  0  0  0
 12 45  1  0  0  0  0
 13 14  1  0  0  0  0
 13 46  1  0  0  0  0
 13 47  1  0  0  0  0
 14 48  1  0  0  0  0
 14 49  1  0  0  0  0
 14 50  1  0  0  0  0
 15 16  1  0  0  0  0
 15 51  1  0  0  0  0
 16 17  2  3  0  0  0
 16 52  1  0  0  0  0
 17 18  1  0  0  0  0
 17 53  1  0  0  0  0
 18 19  1  0  0  0  0
 18 20  2  3  0  0  0
 19 54  1  0  0  0  0
 19 55  1  0  0  0  0
 19 56  1  0  0  0  0
 20 21  1  0  0  0  0
 20 57  1  0  0  0  0
 21 22  2  3  0  0  0
 21 58  1  0  0  0  0
 22 23  1  0  0  0  0
 22 59  1  0  0  0  0
 23 24  2  3  0  0  0
M  END
$$$$
