
 OpenBabel04232216583D

 96 95  0  0  0  0  0  0  0  0999 V2000
   11.3817    7.7440   -4.9385 N   0  0  0  0  0  0  0  0  0  0  0  0
   12.7995    7.6420   -4.8787 N   0  0  0  0  0  0  0  0  0  0  0  0
   13.3029    8.4889   -3.8740 N   0  0  0  0  0  0  0  0  0  0  0  0
   14.7106    8.4081   -3.7956 N   0  0  0  0  0  0  0  0  0  0  0  0
   15.2197    9.2448   -2.7836 N   0  0  0  0  0  0  0  0  0  0  0  0
   14.7335    8.8534   -1.5299 N   0  0  0  0  0  0  0  0  0  0  0  0
   15.2180    9.7013   -0.5451 N   0  0  0  0  0  0  0  0  0  0  0  0
   14.6880    9.3147    0.6896 N   0  0  0  0  0  0  0  0  0  0  0  0
   15.1757   10.1507    1.7183 N   0  0  0  0  0  0  0  0  0  0  0  0
   14.6388    9.7613    2.9788 N   0  0  0  0  0  0  0  0  0  0  0  0
   15.1299   10.5970    4.0401 N   0  0  0  0  0  0  0  0  0  0  0  0
   14.6206   10.2020    5.3423 N   0  0  0  0  0  0  0  0  0  0  0  0
   14.9468    8.8464    5.7494 N   0  0  0  0  0  0  0  0  0  0  0  0
   14.3245    8.5334    7.2466 S   0  0  0  0  0  0  0  0  0  0  0  0
   14.9536    6.6050    7.5900 S   0  0  0  0  0  0  0  0  0  0  0  0
   17.0265    6.5935    7.6163 S   0  0  0  0  0  0  0  0  0  0  0  0
   17.7132    7.8296    9.1377 S   0  0  0  0  0  0  0  0  0  0  0  0
   19.8167    7.8235    9.0990 S   0  0  0  0  0  0  0  0  0  0  0  0
   20.5124    9.1209   10.6107 S   0  0  0  0  0  0  0  0  0  0  0  0
   22.6222    9.1125   10.6013 S   0  0  0  0  0  0  0  0  0  0  0  0
   23.3134   10.4114   12.1141 S   0  0  0  0  0  0  0  0  0  0  0  0
   25.4233   10.4031   12.1044 S   0  0  0  0  0  0  0  0  0  0  0  0
   26.1140   11.7018   13.6170 S   0  0  0  0  0  0  0  0  0  0  0  0
   28.2235   11.6940   13.6080 S   0  0  0  0  0  0  0  0  0  0  0  0
   28.9141   12.9923   15.1197 S   0  0  0  0  0  0  0  0  0  0  0  0
   31.0236   12.9830   15.1093 S   0  0  0  0  0  0  0  0  0  0  0  0
   31.7144   14.2811   16.6211 S   0  0  0  0  0  0  0  0  0  0  0  0
   33.8235   14.2724   16.6110 S   0  0  0  0  0  0  0  0  0  0  0  0
   34.5138   15.5708   18.1233 S   0  0  0  0  0  0  0  0  0  0  0  0
   36.6232   15.5621   18.1132 S   0  0  0  0  0  0  0  0  0  0  0  0
   37.3138   16.8605   19.6254 S   0  0  0  0  0  0  0  0  0  0  0  0
   39.4231   16.8519   19.6154 S   0  0  0  0  0  0  0  0  0  0  0  0
   40.1138   18.1502   21.1276 S   0  0  0  0  0  0  0  0  0  0  0  0
   42.2231   18.1416   21.1175 S   0  0  0  0  0  0  0  0  0  0  0  0
   42.9138   19.4400   22.6298 S   0  0  0  0  0  0  0  0  0  0  0  0
   45.0231   19.4314   22.6197 S   0  0  0  0  0  0  0  0  0  0  0  0
   45.7138   20.7297   24.1320 S   0  0  0  0  0  0  0  0  0  0  0  0
   47.8231   20.7211   24.1219 S   0  0  0  0  0  0  0  0  0  0  0  0
   48.5137   22.0195   25.6342 S   0  0  0  0  0  0  0  0  0  0  0  0
   50.6231   22.0109   25.6241 S   0  0  0  0  0  0  0  0  0  0  0  0
   51.3137   23.3092   27.1363 S   0  0  0  0  0  0  0  0  0  0  0  0
   53.4231   23.3006   27.1263 S   0  0  0  0  0  0  0  0  0  0  0  0
   54.1137   24.5990   28.6385 S   0  0  0  0  0  0  0  0  0  0  0  0
   56.2231   24.5903   28.6285 S   0  0  0  0  0  0  0  0  0  0  0  0
   56.9137   25.8887   30.1407 S   0  0  0  0  0  0  0  0  0  0  0  0
   59.0231   25.8801   30.1307 S   0  0  0  0  0  0  0  0  0  0  0  0
   59.7137   27.1785   31.6429 S   0  0  0  0  0  0  0  0  0  0  0  0
   61.8231   27.1698   31.6328 S   0  0  0  0  0  0  0  0  0  0  0  0
   62.5137   28.4682   33.1451 S   0  0  0  0  0  0  0  0  0  0  0  0
   64.6231   28.4596   33.1350 S   0  0  0  0  0  0  0  0  0  0  0  0
   65.3137   29.7580   34.6473 S   0  0  0  0  0  0  0  0  0  0  0  0
   67.4231   29.7493   34.6372 S   0  0  0  0  0  0  0  0  0  0  0  0
   68.1137   31.0477   36.1495 S   0  0  0  0  0  0  0  0  0  0  0  0
   70.2231   31.0391   36.1394 S   0  0  0  0  0  0  0  0  0  0  0  0
   70.9137   32.3375   37.6516 S   0  0  0  0  0  0  0  0  0  0  0  0
   73.0231   32.3288   37.6416 S   0  0  0  0  0  0  0  0  0  0  0  0
   73.7137   33.6272   39.1538 S   0  0  0  0  0  0  0  0  0  0  0  0
   75.8230   33.6186   39.1438 S   0  0  0  0  0  0  0  0  0  0  0  0
   76.5137   34.9170   40.6560 S   0  0  0  0  0  0  0  0  0  0  0  0
   78.6230   34.9083   40.6460 S   0  0  0  0  0  0  0  0  0  0  0  0
   79.3137   36.2067   42.1582 S   0  0  0  0  0  0  0  0  0  0  0  0
   81.4230   36.1981   42.1481 S   0  0  0  0  0  0  0  0  0  0  0  0
   82.1137   37.4965   43.6604 S   0  0  0  0  0  0  0  0  0  0  0  0
   84.2230   37.4878   43.6503 S   0  0  0  0  0  0  0  0  0  0  0  0
   84.9136   38.7862   45.1626 S   0  0  0  0  0  0  0  0  0  0  0  0
   87.0230   38.7776   45.1525 S   0  0  0  0  0  0  0  0  0  0  0  0
   87.7136   40.0760   46.6647 S   0  0  0  0  0  0  0  0  0  0  0  0
   89.8230   40.0673   46.6547 S   0  0  0  0  0  0  0  0  0  0  0  0
   90.5136   41.3657   48.1669 S   0  0  0  0  0  0  0  0  0  0  0  0
   92.6230   41.3571   48.1569 S   0  0  0  0  0  0  0  0  0  0  0  0
   93.3136   42.6554   49.6691 S   0  0  0  0  0  0  0  0  0  0  0  0
   95.4229   42.6468   49.6590 S   0  0  0  0  0  0  0  0  0  0  0  0
   96.1135   43.9451   51.1712 S   0  0  0  0  0  0  0  0  0  0  0  0
   98.2225   43.9364   51.1611 S   0  0  0  0  0  0  0  0  0  0  0  0
   98.9125   45.2343   52.6729 S   0  0  0  0  0  0  0  0  0  0  0  0
  101.0195   45.2249   52.6613 S   0  0  0  0  0  0  0  0  0  0  0  0
  101.7059   46.5207   54.1709 S   0  0  0  0  0  0  0  0  0  0  0  0
  103.8023   46.4871   54.1616 S   0  0  0  0  0  0  0  0  0  0  0  0
  104.4858   47.8160   55.6130 S   0  0  0  0  0  0  0  0  0  0  0  0
  106.5670   47.7519   55.6131 S   0  0  0  0  0  0  0  0  0  0  0  0
  107.1777   48.4665   53.7818 S   0  0  0  0  0  0  0  0  0  0  0  0
   10.9665    7.1616   -5.6740 H   0  0  0  0  0  0  0  0  0  0  0  0
   11.0709    8.7010   -5.1111 H   0  0  0  0  0  0  0  0  0  0  0  0
   13.2700    7.9339   -5.7433 H   0  0  0  0  0  0  0  0  0  0  0  0
   12.9298    8.1806   -2.9669 H   0  0  0  0  0  0  0  0  0  0  0  0
   15.1178    8.7014   -4.6911 H   0  0  0  0  0  0  0  0  0  0  0  0
   14.9586   10.2132   -2.9656 H   0  0  0  0  0  0  0  0  0  0  0  0
   14.9892    7.8910   -1.3470 H   0  0  0  0  0  0  0  0  0  0  0  0
   14.9175   10.6359   -0.8142 H   0  0  0  0  0  0  0  0  0  0  0  0
   14.9585    8.3337    0.8251 H   0  0  0  0  0  0  0  0  0  0  0  0
   14.9219   11.1238    1.4937 H   0  0  0  0  0  0  0  0  0  0  0  0
   14.8969    8.7801    3.1741 H   0  0  0  0  0  0  0  0  0  0  0  0
   14.8887   11.5801    3.8563 H   0  0  0  0  0  0  0  0  0  0  0  0
   13.5938   10.3116    5.3505 H   0  0  0  0  0  0  0  0  0  0  0  0
   15.9931    8.7541    5.7958 H   0  0  0  0  0  0  0  0  0  0  0  0
  108.5238   48.4078   53.8612 H   0  0  0  0  0  0  0  0  0  0  0  0
  1  2  1  0  0  0  0
  1 82  1  0  0  0  0
  1 83  1  0  0  0  0
  2  3  1  0  0  0  0
  2 84  1  0  0  0  0
  3  4  1  0  0  0  0
  3 85  1  0  0  0  0
  4  5  1  0  0  0  0
  4 86  1  0  0  0  0
  5  6  1  0  0  0  0
  5 87  1  0  0  0  0
  6  7  1  0  0  0  0
  6 88  1  0  0  0  0
  7  8  1  0  0  0  0
  7 89  1  0  0  0  0
  8  9  1  0  0  0  0
  8 90  1  0  0  0  0
  9 10  1  0  0  0  0
  9 91  1  0  0  0  0
 10 11  1  0  0  0  0
 10 92  1  0  0  0  0
 11 12  1  0  0  0  0
 11 93  1  0  0  0  0
 12 13  1  0  0  0  0
 12 94  1  0  0  0  0
 13 14  1  0  0  0  0
 13 95  1  0  0  0  0
 14 15  1  0  0  0  0
 15 16  1  0  0  0  0
 16 17  1  0  0  0  0
 17 18  1  0  0  0  0
 18 19  1  0  0  0  0
 19 20  1  0  0  0  0
 20 21  1  0  0  0  0
 21 22  1  0  0  0  0
 22 23  1  0  0  0  0
 23 24  1  0  0  0  0
 24 25  1  0  0  0  0
 25 26  1  0  0  0  0
 26 27  1  0  0  0  0
 27 28  1  0  0  0  0
 28 29  1  0  0  0  0
 29 30  1  0  0  0  0
 30 31  1  0  0  0  0
 31 32  1  0  0  0  0
 32 33  1  0  0  0  0
 33 34  1  0  0  0  0
 34 35  1  0  0  0  0
 35 36  1  0  0  0  0
 36 37  1  0  0  0  0
 37 38  1  0  0  0  0
 38 39  1  0  0  0  0
 39 40  1  0  0  0  0
 40 41  1  0  0  0  0
 41 42  1  0  0  0  0
 42 43  1  0  0  0  0
 43 44  1  0  0  0  0
 44 45  1  0  0  0  0
 45 46  1  0  0  0  0
 46 47  1  0  0  0  0
 47 48  1  0  0  0  0
 48 49  1  0  0  0  0
 49 50  1  0  0  0  0
 50 51  1  0  0  0  0
 51 52  1  0  0  0  0
 52 53  1  0  0  0  0
 53 54  1  0  0  0  0
 54 55  1  0  0  0  0
 55 56  1  0  0  0  0
 56 57  1  0  0  0  0
 57 58  1  0  0  0  0
 58 59  1  0  0  0  0
 59 60  1  0  0  0  0
 60 61  1  0  0  0  0
 61 62  1  0  0  0  0
 62 63  1  0  0  0  0
 63 64  1  0  0  0  0
 64 65  1  0  0  0  0
 65 66  1  0  0  0  0
 66 67  1  0  0  0  0
 67 68  1  0  0  0  0
 68 69  1  0  0  0  0
 69 70  1  0  0  0  0
 70 71  1  0  0  0  0
 71 72  1  0  0  0  0
 72 73  1  0  0  0  0
 73 74  1  0  0  0  0
 74 75  1  0  0  0  0
 75 76  1  0  0  0  0
 76 77  1  0  0  0  0
 77 78  1  0  0  0  0
 78 79  1  0  0  0  0
 79 80  1  0  0  0  0
 80 81  1  0  0  0  0
 81 96  1  0  0  0  0
M  END
$$$$
