
 OpenBabel04232216403D

 61 62  0  0  0  0  0  0  0  0999 V2000
    8.5334   -1.7864   -2.5023 C   0  0  0  0  0  0  0  0  0  0  0  0
    7.7358   -2.1827   -3.5043 C   0  0  0  0  0  0  0  0  0  0  0  0
    7.1819   -1.4845   -4.7289 C   0  0  0  0  0  0  0  0  0  0  0  0
    7.4615   -0.0653   -4.8343 N   0  0  0  0  0  0  0  0  0  0  0  0
    6.6937    0.9317   -4.4952 C   0  0  0  0  0  0  0  0  0  0  0  0
    5.6624    1.3016   -3.4195 C   0  0  0  0  0  0  0  0  0  0  0  0
    4.1658    1.0110   -3.5467 C   0  0  0  0  0  0  0  0  0  0  0  0
    3.3290    1.8403   -4.5367 C   0  0  0  0  0  0  0  0  0  0  0  0
    3.3060    1.2967   -5.9665 C   0  0  0  0  0  0  0  0  0  0  0  0
    2.3554    2.1111   -6.8612 C   0  0  0  0  0  0  0  0  0  0  0  0
    2.3335    1.5928   -8.3050 C   0  0  0  0  0  0  0  0  0  0  0  0
    1.4052    2.4273   -9.1980 C   0  0  0  0  0  0  0  0  0  0  0  0
    1.3976    1.9199  -10.6452 C   0  0  0  0  0  0  0  0  0  0  0  0
    0.4747    2.7594  -11.5360 C   0  0  0  0  0  0  0  0  0  0  0  0
    0.4710    2.2529  -12.9804 C   0  0  0  0  0  0  0  0  0  0  0  0
   -0.4444    3.0844  -13.8671 C   0  0  0  0  0  0  0  0  0  0  0  0
    7.5126    1.7988   -5.1295 C   0  0  0  0  0  0  0  0  0  0  0  0
    7.5668    3.1659   -4.9411 N   0  0  0  0  0  0  0  0  0  0  0  0
    8.4036    4.0315   -5.1865 N   0  0  0  0  0  0  0  0  0  0  0  0
    9.4399    3.7746   -6.0352 N   0  0  0  0  0  0  0  0  0  0  0  0
   10.4211    3.1552   -5.4827 C   0  0  0  0  0  0  0  0  0  0  0  0
   11.6793    2.9842   -6.2183 C   0  0  0  0  0  0  0  0  0  0  0  0
   11.7096    1.8608   -6.9577 C   0  0  0  0  0  0  0  0  0  0  0  0
   10.6731    1.7019   -7.9769 C   0  0  0  0  0  0  0  0  0  0  0  0
    9.4631    1.1330   -7.8660 C   0  0  0  0  0  0  0  0  0  0  0  0
    8.9241    0.3435   -6.7721 C   0  0  0  0  0  0  0  0  0  0  0  0
    8.1173    0.6587   -5.7414 C   0  0  0  0  0  0  0  0  0  0  0  0
    8.7967   -2.4913   -1.7125 H   0  0  0  0  0  0  0  0  0  0  0  0
    8.9474   -0.7869   -2.4229 H   0  0  0  0  0  0  0  0  0  0  0  0
    7.4005   -3.2213   -3.4480 H   0  0  0  0  0  0  0  0  0  0  0  0
    6.0947   -1.6259   -4.7069 H   0  0  0  0  0  0  0  0  0  0  0  0
    7.5457   -2.0229   -5.6103 H   0  0  0  0  0  0  0  0  0  0  0  0
    5.7491    2.3778   -3.2231 H   0  0  0  0  0  0  0  0  0  0  0  0
    5.9820    0.7502   -2.5284 H   0  0  0  0  0  0  0  0  0  0  0  0
    3.7597    1.2800   -2.5580 H   0  0  0  0  0  0  0  0  0  0  0  0
    3.9691   -0.0576   -3.6676 H   0  0  0  0  0  0  0  0  0  0  0  0
    3.6427    2.8908   -4.5279 H   0  0  0  0  0  0  0  0  0  0  0  0
    2.2911    1.8347   -4.1684 H   0  0  0  0  0  0  0  0  0  0  0  0
    2.9752    0.2512   -5.9517 H   0  0  0  0  0  0  0  0  0  0  0  0
    4.3177    1.3182   -6.3853 H   0  0  0  0  0  0  0  0  0  0  0  0
    2.6611    3.1642   -6.8569 H   0  0  0  0  0  0  0  0  0  0  0  0
    1.3377    2.0729   -6.4499 H   0  0  0  0  0  0  0  0  0  0  0  0
    2.0041    0.5468   -8.3132 H   0  0  0  0  0  0  0  0  0  0  0  0
    3.3506    1.6162   -8.7141 H   0  0  0  0  0  0  0  0  0  0  0  0
    1.7277    3.4755   -9.1825 H   0  0  0  0  0  0  0  0  0  0  0  0
    0.3850    2.3978   -8.7963 H   0  0  0  0  0  0  0  0  0  0  0  0
    1.0706    0.8732  -10.6651 H   0  0  0  0  0  0  0  0  0  0  0  0
    2.4172    1.9479  -11.0483 H   0  0  0  0  0  0  0  0  0  0  0  0
    0.7999    3.8068  -11.5179 H   0  0  0  0  0  0  0  0  0  0  0  0
   -0.5464    2.7315  -11.1368 H   0  0  0  0  0  0  0  0  0  0  0  0
    0.1418    1.2076  -13.0079 H   0  0  0  0  0  0  0  0  0  0  0  0
    1.4878    2.2835  -13.3887 H   0  0  0  0  0  0  0  0  0  0  0  0
   -1.4782    3.0491  -13.5086 H   0  0  0  0  0  0  0  0  0  0  0  0
   -0.4291    2.7020  -14.8929 H   0  0  0  0  0  0  0  0  0  0  0  0
   -0.1244    4.1310  -13.8917 H   0  0  0  0  0  0  0  0  0  0  0  0
   10.4039    2.7184   -4.4665 H   0  0  0  0  0  0  0  0  0  0  0  0
   11.9368    3.9136   -6.7436 H   0  0  0  0  0  0  0  0  0  0  0  0
   12.6818    1.6175   -7.3944 H   0  0  0  0  0  0  0  0  0  0  0  0
   10.9393    2.1587   -8.9360 H   0  0  0  0  0  0  0  0  0  0  0  0
    8.8481    1.1397   -8.7681 H   0  0  0  0  0  0  0  0  0  0  0  0
    9.0784   -0.7191   -6.9570 H   0  0  0  0  0  0  0  0  0  0  0  0
  1  2  2  0  0  0  0
  1 28  1  0  0  0  0
  1 29  1  0  0  0  0
  2  3  1  0  0  0  0
  2 30  1  0  0  0  0
  3  4  1  0  0  0  0
  3 31  1  0  0  0  0
  3 32  1  0  0  0  0
  4  5  1  0  0  0  0
  4 27  1  0  0  0  0
  5  6  1  0  0  0  0
  5 17  2  0  0  0  0
  6  7  1  0  0  0  0
  6 33  1  0  0  0  0
  6 34  1  0  0  0  0
  7  8  1  0  0  0  0
  7 35  1  0  0  0  0
  7 36  1  0  0  0  0
  8  9  1  0  0  0  0
  8 37  1  0  0  0  0
  8 38  1  0  0  0  0
  9 10  1  0  0  0  0
  9 39  1  0  0  0  0
  9 40  1  0  0  0  0
 10 11  1  0  0  0  0
 10 41  1  0  0  0  0
 10 42  1  0  0  0  0
 11 12  1  0  0  0  0
 11 43  1  0  0  0  0
 11 44  1  0  0  0  0
 12 13  1  0  0  0  0
 12 45  1  0  0  0  0
 12 46  1  0  0  0  0
 13 14  1  0  0  0  0
 13 47  1  0  0  0  0
 13 48  1  0  0  0  0
 14 15  1  0  0  0  0
 14 49  1  0  0  0  0
 14 50  1  0  0  0  0
 15 16  1  0  0  0  0
 15 51  1  0  0  0  0
 15 52  1  0  0  0  0
 16 53  1  0  0  0  0
 16 54  1  0  0  0  0
 16 55  1  0  0  0  0
 17 18  1  0  0  0  0
 17 27  1  0  0  0  0
 18 19  2  0  0  0  0
 19 20  1  0  0  0  0
 20 21  2  0  0  0  0
 21 22  1  0  0  0  0
 21 56  1  0  0  0  0
 22 23  2  0  0  0  0
 22 57  1  0  0  0  0
 23 24  1  0  0  0  0
 23 58  1  0  0  0  0
 24 25  2  0  0  0  0
 24 59  1  0  0  0  0
 25 26  1  0  0  0  0
 25 60  1  0  0  0  0
 26 27  2  0  0  0  0
 26 61  1  0  0  0  0
M  END
$$$$
