
 OpenBabel04232216423D

 51 52  0  0  0  0  0  0  0  0999 V2000
    4.8587    1.1642    2.2546 C   0  0  0  0  0  0  0  0  0  0  0  0
    5.2325    0.0989    1.3664 C   0  0  0  0  0  0  0  0  0  0  0  0
    4.7444   -1.0672    0.9145 C   0  0  0  0  0  0  0  0  0  0  0  0
    3.5137   -1.8452    1.0238 C   0  0  0  0  0  0  0  0  0  0  0  0
    3.5250   -3.2113    0.0826 C   0  0  0  0  0  0  0  0  0  0  0  0
    3.8377   -4.8506    0.2927 C   0  0  0  0  0  0  0  0  0  0  0  0
    5.2495   -5.5483    0.3456 N   0  0  0  0  0  0  0  0  0  0  0  0
    6.2185   -4.7571   -0.2005 N   0  0  0  0  0  0  0  0  0  0  0  0
    7.3092   -4.8154    0.4907 C   0  0  0  0  0  0  0  0  0  0  0  0
    8.6228   -4.6512   -0.1527 C   0  0  0  0  0  0  0  0  0  0  0  0
    8.7987   -5.6834   -0.9885 C   0  0  0  0  0  0  0  0  0  0  0  0
   10.0152   -6.2509   -1.5073 C   0  0  0  0  0  0  0  0  0  0  0  0
    9.9186   -7.4424   -2.1336 C   0  0  0  0  0  0  0  0  0  0  0  0
   10.9834   -8.4548   -2.0759 C   0  0  0  0  0  0  0  0  0  0  0  0
   10.5609   -9.6069   -1.5048 C   0  0  0  0  0  0  0  0  0  0  0  0
    9.8491  -10.7132   -2.2377 C   0  0  0  0  0  0  0  0  0  0  0  0
   10.6315   -9.7291   -0.1371 N   0  0  0  0  0  0  0  0  0  0  0  0
    9.5573   -9.4324    0.5699 C   0  0  0  0  0  0  0  0  0  0  0  0
    8.2784   -9.0740    0.1162 N   0  0  0  0  0  0  0  0  0  0  0  0
    7.7446   -8.0122    0.6105 N   0  0  0  0  0  0  0  0  0  0  0  0
    6.3658   -7.9867    0.2390 N   0  0  0  0  0  0  0  0  0  0  0  0
    5.4274   -7.0568    0.1900 C   0  0  0  0  0  0  0  0  0  0  0  0
    4.1341   -7.7967   -0.2193 C   0  0  0  0  0  0  0  0  0  0  0  0
    2.3488   -1.3258    1.5005 C   0  0  0  0  0  0  0  0  0  0  0  0
    1.8880   -0.1067    2.1819 C   0  0  0  0  0  0  0  0  0  0  0  0
    2.3916    1.0208    2.6977 C   0  0  0  0  0  0  0  0  0  0  0  0
    3.7174    1.5138    2.8344 C   0  0  0  0  0  0  0  0  0  0  0  0
    5.6918    1.8332    2.4801 H   0  0  0  0  0  0  0  0  0  0  0  0
    6.2170    0.3452    0.9539 H   0  0  0  0  0  0  0  0  0  0  0  0
    5.4273   -1.5448    0.2099 H   0  0  0  0  0  0  0  0  0  0  0  0
    3.9895   -2.9139   -0.8695 H   0  0  0  0  0  0  0  0  0  0  0  0
    2.4519   -3.2634   -0.1895 H   0  0  0  0  0  0  0  0  0  0  0  0
    3.3525   -5.2847   -0.5978 H   0  0  0  0  0  0  0  0  0  0  0  0
    3.2690   -5.1920    1.1616 H   0  0  0  0  0  0  0  0  0  0  0  0
    7.3343   -5.2447    1.5120 H   0  0  0  0  0  0  0  0  0  0  0  0
    9.3504   -3.9556    0.2270 H   0  0  0  0  0  0  0  0  0  0  0  0
    7.9339   -6.3245   -1.1792 H   0  0  0  0  0  0  0  0  0  0  0  0
   10.9589   -5.8594   -1.1412 H   0  0  0  0  0  0  0  0  0  0  0  0
    8.9318   -7.8483   -2.3765 H   0  0  0  0  0  0  0  0  0  0  0  0
   11.8407   -7.9758   -1.5893 H   0  0  0  0  0  0  0  0  0  0  0  0
    8.7859  -10.4898   -2.3402 H   0  0  0  0  0  0  0  0  0  0  0  0
    9.9416  -11.6515   -1.6707 H   0  0  0  0  0  0  0  0  0  0  0  0
   10.2769  -10.9056   -3.2291 H   0  0  0  0  0  0  0  0  0  0  0  0
    9.7019   -9.6121    1.6448 H   0  0  0  0  0  0  0  0  0  0  0  0
    4.2873   -8.8872   -0.2330 H   0  0  0  0  0  0  0  0  0  0  0  0
    3.8436   -7.5049   -1.2314 H   0  0  0  0  0  0  0  0  0  0  0  0
    3.3424   -7.5819    0.4949 H   0  0  0  0  0  0  0  0  0  0  0  0
    1.4514   -1.9141    1.2858 H   0  0  0  0  0  0  0  0  0  0  0  0
    0.7983   -0.1338    2.3053 H   0  0  0  0  0  0  0  0  0  0  0  0
    1.6622    1.7001    3.1654 H   0  0  0  0  0  0  0  0  0  0  0  0
    3.7472    2.4577    3.4155 H   0  0  0  0  0  0  0  0  0  0  0  0
  1  2  1  0  0  0  0
  1 27  2  0  0  0  0
  1 28  1  0  0  0  0
  2  3  2  0  0  0  0
  2 29  1  0  0  0  0
  3  4  1  0  0  0  0
  3 30  1  0  0  0  0
  4  5  1  0  0  0  0
  4 24  2  0  0  0  0
  5  6  1  0  0  0  0
  5 31  1  0  0  0  0
  5 32  1  0  0  0  0
  6  7  1  0  0  0  0
  6 33  1  0  0  0  0
  6 34  1  0  0  0  0
  7  8  1  0  0  0  0
  7 22  1  0  0  0  0
  8  9  2  3  0  0  0
  9 10  1  0  0  0  0
  9 35  1  0  0  0  0
 10 11  2  3  0  0  0
 10 36  1  0  0  0  0
 11 12  1  0  0  0  0
 11 37  1  0  0  0  0
 12 13  2  3  0  0  0
 12 38  1  0  0  0  0
 13 14  1  0  0  0  0
 13 39  1  0  0  0  0
 14 15  2  3  0  0  0
 14 40  1  0  0  0  0
 15 16  1  0  0  0  0
 15 17  1  0  0  0  0
 16 41  1  0  0  0  0
 16 42  1  0  0  0  0
 16 43  1  0  0  0  0
 17 18  2  3  0  0  0
 18 19  1  0  0  0  0
 18 44  1  0  0  0  0
 19 20  2  3  0  0  0
 20 21  1  0  0  0  0
 21 22  2  3  0  0  0
 22 23  1  0  0  0  0
 23 45  1  0  0  0  0
 23 46  1  0  0  0  0
 23 47  1  0  0  0  0
 24 25  1  0  0  0  0
 24 48  1  0  0  0  0
 25 26  2  0  0  0  0
 25 49  1  0  0  0  0
 26 27  1  0  0  0  0
 26 50  1  0  0  0  0
 27 51  1  0  0  0  0
M  END
$$$$
