
 OpenBabel04232216403D

236235  0  0  0  0  0  0  0  0999 V2000
    1.4107    0.4681    0.7891 C   0  0  0  0  0  0  0  0  0  0  0  0
    2.2754   -0.0734   -0.0800 C   0  0  0  0  0  0  0  0  0  0  0  0
    3.0595   -1.3220    0.2036 C   0  0  0  0  0  0  0  0  0  0  0  0
    4.4960   -1.0472    0.1233 N   0  0  0  0  0  0  0  0  0  0  0  0
    5.2063   -2.2550    0.4154 N   0  0  0  0  0  0  0  0  0  0  0  0
    6.6052   -2.0224    0.3658 N   0  0  0  0  0  0  0  0  0  0  0  0
    7.3099   -3.2243    0.6535 N   0  0  0  0  0  0  0  0  0  0  0  0
    8.7367   -2.9370    0.5757 C   0  0  0  0  0  0  0  0  0  0  0  0
    9.5023   -4.2158    0.8780 C   0  0  0  0  0  0  0  0  0  0  0  0
   11.0009   -3.9583    0.8146 C   0  0  0  0  0  0  0  0  0  0  0  0
   11.7680   -5.2353    1.1204 C   0  0  0  0  0  0  0  0  0  0  0  0
   13.2619   -4.9699    1.0569 C   0  0  0  0  0  0  0  0  0  0  0  0
   14.0271   -6.2444    1.3642 C   0  0  0  0  0  0  0  0  0  0  0  0
   15.5200   -5.9800    1.3025 C   0  0  0  0  0  0  0  0  0  0  0  0
   16.2834   -7.2546    1.6100 C   0  0  0  0  0  0  0  0  0  0  0  0
   17.7758   -6.9892    1.5502 C   0  0  0  0  0  0  0  0  0  0  0  0
   18.5386   -8.2633    1.8595 C   0  0  0  0  0  0  0  0  0  0  0  0
   20.0307   -7.9972    1.8015 C   0  0  0  0  0  0  0  0  0  0  0  0
   20.7933   -9.2716    2.1090 C   0  0  0  0  0  0  0  0  0  0  0  0
   22.2853   -9.0059    2.0491 C   0  0  0  0  0  0  0  0  0  0  0  0
   23.0478  -10.2800    2.3582 C   0  0  0  0  0  0  0  0  0  0  0  0
   24.5398  -10.0146    2.2964 C   0  0  0  0  0  0  0  0  0  0  0  0
   25.3022  -11.2891    2.6038 C   0  0  0  0  0  0  0  0  0  0  0  0
   26.7942  -11.0234    2.5438 C   0  0  0  0  0  0  0  0  0  0  0  0
   27.5566  -12.2979    2.8512 C   0  0  0  0  0  0  0  0  0  0  0  0
   29.0486  -12.0316    2.7931 C   0  0  0  0  0  0  0  0  0  0  0  0
   29.8110  -13.3061    3.1005 C   0  0  0  0  0  0  0  0  0  0  0  0
   31.3030  -13.0398    3.0426 C   0  0  0  0  0  0  0  0  0  0  0  0
   32.0654  -14.3143    3.3500 C   0  0  0  0  0  0  0  0  0  0  0  0
   33.5574  -14.0481    3.2920 C   0  0  0  0  0  0  0  0  0  0  0  0
   34.3198  -15.3226    3.5993 C   0  0  0  0  0  0  0  0  0  0  0  0
   35.8118  -15.0563    3.5413 C   0  0  0  0  0  0  0  0  0  0  0  0
   36.5743  -16.3313    3.8467 C   0  0  0  0  0  0  0  0  0  0  0  0
   38.0662  -16.0650    3.7887 C   0  0  0  0  0  0  0  0  0  0  0  0
   38.8287  -17.3400    4.0942 C   0  0  0  0  0  0  0  0  0  0  0  0
   40.3206  -17.0737    4.0361 C   0  0  0  0  0  0  0  0  0  0  0  0
   41.0830  -18.3482    4.3435 C   0  0  0  0  0  0  0  0  0  0  0  0
   42.5750  -18.0825    4.2837 C   0  0  0  0  0  0  0  0  0  0  0  0
   43.3374  -19.3565    4.5929 C   0  0  0  0  0  0  0  0  0  0  0  0
   44.8294  -19.0912    4.5310 C   0  0  0  0  0  0  0  0  0  0  0  0
   45.5918  -20.3657    4.8384 C   0  0  0  0  0  0  0  0  0  0  0  0
   47.0838  -20.1008    4.7746 C   0  0  0  0  0  0  0  0  0  0  0  0
   47.8463  -21.3753    5.0819 C   0  0  0  0  0  0  0  0  0  0  0  0
   49.3382  -21.1105    5.0180 C   0  0  0  0  0  0  0  0  0  0  0  0
   50.1007  -22.3850    5.3254 C   0  0  0  0  0  0  0  0  0  0  0  0
   51.5926  -22.1201    5.2614 C   0  0  0  0  0  0  0  0  0  0  0  0
   52.3551  -23.3946    5.5688 C   0  0  0  0  0  0  0  0  0  0  0  0
   53.8470  -23.1303    5.5030 C   0  0  0  0  0  0  0  0  0  0  0  0
   54.6095  -24.4043    5.8122 C   0  0  0  0  0  0  0  0  0  0  0  0
   56.1014  -24.1403    5.7446 C   0  0  0  0  0  0  0  0  0  0  0  0
   56.8639  -25.4144    6.0540 C   0  0  0  0  0  0  0  0  0  0  0  0
   58.3559  -25.1500    5.9880 C   0  0  0  0  0  0  0  0  0  0  0  0
   59.1184  -26.4246    6.2955 C   0  0  0  0  0  0  0  0  0  0  0  0
   60.6104  -26.1607    6.2277 C   0  0  0  0  0  0  0  0  0  0  0  0
   61.3728  -27.4357    6.5330 C   0  0  0  0  0  0  0  0  0  0  0  0
   62.8647  -27.1722    6.4632 C   0  0  0  0  0  0  0  0  0  0  0  0
   63.6271  -28.4477    6.7668 C   0  0  0  0  0  0  0  0  0  0  0  0
   65.1190  -28.1842    6.6970 C   0  0  0  0  0  0  0  0  0  0  0  0
   65.8815  -29.4593    7.0023 C   0  0  0  0  0  0  0  0  0  0  0  0
   67.3734  -29.1958    6.9325 C   0  0  0  0  0  0  0  0  0  0  0  0
   68.1359  -30.4708    7.2379 C   0  0  0  0  0  0  0  0  0  0  0  0
   69.6278  -30.2074    7.1682 C   0  0  0  0  0  0  0  0  0  0  0  0
   70.3902  -31.4823    7.4736 C   0  0  0  0  0  0  0  0  0  0  0  0
   71.8822  -31.2189    7.4038 C   0  0  0  0  0  0  0  0  0  0  0  0
   72.6446  -32.4939    7.7092 C   0  0  0  0  0  0  0  0  0  0  0  0
   74.1366  -32.2305    7.6395 C   0  0  0  0  0  0  0  0  0  0  0  0
   74.8990  -33.5055    7.9449 C   0  0  0  0  0  0  0  0  0  0  0  0
   76.3910  -33.2421    7.8752 C   0  0  0  0  0  0  0  0  0  0  0  0
   77.1535  -34.5166    8.1825 C   0  0  0  0  0  0  0  0  0  0  0  0
   78.6456  -34.2532    8.1127 C   0  0  0  0  0  0  0  0  0  0  0  0
   79.4081  -35.5277    8.4201 C   0  0  0  0  0  0  0  0  0  0  0  0
   80.9005  -35.2646    8.3504 C   0  0  0  0  0  0  0  0  0  0  0  0
   81.6635  -36.5390    8.6578 C   0  0  0  0  0  0  0  0  0  0  0  0
   83.1564  -36.2764    8.5882 C   0  0  0  0  0  0  0  0  0  0  0  0
   83.9205  -37.5510    8.8976 C   0  0  0  0  0  0  0  0  0  0  0  0
   85.4146  -37.2906    8.8287 C   0  0  0  0  0  0  0  0  0  0  0  0
   86.1807  -38.5663    9.1384 C   0  0  0  0  0  0  0  0  0  0  0  0
   87.6775  -38.3093    9.0723 C   0  0  0  0  0  0  0  0  0  0  0  0
   88.4541  -39.5828    9.3796 C   0  0  0  0  0  0  0  0  0  0  0  0
   89.9463  -39.3202    9.3119 C   0  0  0  0  0  0  0  0  0  0  0  0
    0.8660    1.3653    0.5439 H   0  0  0  0  0  0  0  0  0  0  0  0
    1.2447    0.0244    1.7678 H   0  0  0  0  0  0  0  0  0  0  0  0
    2.4048    0.4006   -1.0493 H   0  0  0  0  0  0  0  0  0  0  0  0
    2.7776   -2.0806   -0.5368 H   0  0  0  0  0  0  0  0  0  0  0  0
    2.8046   -1.7152    1.1967 H   0  0  0  0  0  0  0  0  0  0  0  0
    4.7080   -0.3498    0.8355 H   0  0  0  0  0  0  0  0  0  0  0  0
    4.9648   -2.9583   -0.2809 H   0  0  0  0  0  0  0  0  0  0  0  0
    6.8368   -1.3139    1.0607 H   0  0  0  0  0  0  0  0  0  0  0  0
    7.0639   -3.9254   -0.0448 H   0  0  0  0  0  0  0  0  0  0  0  0
    9.0138   -2.1674    1.3072 H   0  0  0  0  0  0  0  0  0  0  0  0
    9.0079   -2.5700   -0.4229 H   0  0  0  0  0  0  0  0  0  0  0  0
    9.2344   -4.9996    0.1583 H   0  0  0  0  0  0  0  0  0  0  0  0
    9.2359   -4.5881    1.8764 H   0  0  0  0  0  0  0  0  0  0  0  0
   11.2754   -3.1772    1.5347 H   0  0  0  0  0  0  0  0  0  0  0  0
   11.2729   -3.5898   -0.1818 H   0  0  0  0  0  0  0  0  0  0  0  0
   11.4966   -6.0142    0.3996 H   0  0  0  0  0  0  0  0  0  0  0  0
   11.4970   -5.6024    2.1170 H   0  0  0  0  0  0  0  0  0  0  0  0
   13.5354   -4.1884    1.7769 H   0  0  0  0  0  0  0  0  0  0  0  0
   13.5354   -4.6023    0.0601 H   0  0  0  0  0  0  0  0  0  0  0  0
   13.7564   -7.0260    0.6437 H   0  0  0  0  0  0  0  0  0  0  0  0
   13.7544   -6.6132    2.3608 H   0  0  0  0  0  0  0  0  0  0  0  0
   15.7917   -5.1989    2.0234 H   0  0  0  0  0  0  0  0  0  0  0  0
   15.7940   -5.6117    0.3062 H   0  0  0  0  0  0  0  0  0  0  0  0
   16.0136   -8.0357    0.8886 H   0  0  0  0  0  0  0  0  0  0  0  0
   16.0092   -7.6239    2.6059 H   0  0  0  0  0  0  0  0  0  0  0  0
   18.0460   -6.2075    2.2709 H   0  0  0  0  0  0  0  0  0  0  0  0
   18.0508   -6.6213    0.5540 H   0  0  0  0  0  0  0  0  0  0  0  0
   18.2697   -9.0447    1.1380 H   0  0  0  0  0  0  0  0  0  0  0  0
   18.2631   -8.6320    2.8552 H   0  0  0  0  0  0  0  0  0  0  0  0
   20.2999   -7.2167    2.5239 H   0  0  0  0  0  0  0  0  0  0  0  0
   20.3064   -7.6273    0.8062 H   0  0  0  0  0  0  0  0  0  0  0  0
   20.5233  -10.0526    1.3874 H   0  0  0  0  0  0  0  0  0  0  0  0
   20.5187   -9.6408    3.1049 H   0  0  0  0  0  0  0  0  0  0  0  0
   22.5554   -8.2241    2.7697 H   0  0  0  0  0  0  0  0  0  0  0  0
   22.5599   -8.6380    1.0528 H   0  0  0  0  0  0  0  0  0  0  0  0
   22.7768  -11.0622    1.6384 H   0  0  0  0  0  0  0  0  0  0  0  0
   22.7741  -10.6471    3.3551 H   0  0  0  0  0  0  0  0  0  0  0  0
   24.8109   -9.2333    3.0172 H   0  0  0  0  0  0  0  0  0  0  0  0
   24.8133   -9.6463    1.3000 H   0  0  0  0  0  0  0  0  0  0  0  0
   25.0320  -12.0700    1.8822 H   0  0  0  0  0  0  0  0  0  0  0  0
   25.0278  -11.6583    3.5997 H   0  0  0  0  0  0  0  0  0  0  0  0
   27.0643  -10.2425    3.2655 H   0  0  0  0  0  0  0  0  0  0  0  0
   27.0687  -10.6541    1.5480 H   0  0  0  0  0  0  0  0  0  0  0  0
   27.2875  -13.0783    2.1287 H   0  0  0  0  0  0  0  0  0  0  0  0
   27.2812  -12.6679    3.8465 H   0  0  0  0  0  0  0  0  0  0  0  0
   29.3177  -11.2512    3.5156 H   0  0  0  0  0  0  0  0  0  0  0  0
   29.3242  -11.6616    1.7979 H   0  0  0  0  0  0  0  0  0  0  0  0
   29.5420  -14.0865    2.3781 H   0  0  0  0  0  0  0  0  0  0  0  0
   29.5355  -13.6761    4.0958 H   0  0  0  0  0  0  0  0  0  0  0  0
   31.5721  -12.2594    3.7651 H   0  0  0  0  0  0  0  0  0  0  0  0
   31.5786  -12.6698    2.0473 H   0  0  0  0  0  0  0  0  0  0  0  0
   31.7964  -15.0947    2.6275 H   0  0  0  0  0  0  0  0  0  0  0  0
   31.7898  -14.6844    4.3452 H   0  0  0  0  0  0  0  0  0  0  0  0
   33.8265  -13.2677    4.0145 H   0  0  0  0  0  0  0  0  0  0  0  0
   33.8329  -13.6781    2.2967 H   0  0  0  0  0  0  0  0  0  0  0  0
   34.0507  -16.1029    2.8768 H   0  0  0  0  0  0  0  0  0  0  0  0
   34.0443  -15.6927    4.5946 H   0  0  0  0  0  0  0  0  0  0  0  0
   36.0811  -14.2769    4.2648 H   0  0  0  0  0  0  0  0  0  0  0  0
   36.0872  -14.6850    2.5465 H   0  0  0  0  0  0  0  0  0  0  0  0
   36.3050  -17.1107    3.1232 H   0  0  0  0  0  0  0  0  0  0  0  0
   36.2989  -16.7027    4.8416 H   0  0  0  0  0  0  0  0  0  0  0  0
   38.3355  -15.2856    4.5122 H   0  0  0  0  0  0  0  0  0  0  0  0
   38.3416  -15.6937    2.7939 H   0  0  0  0  0  0  0  0  0  0  0  0
   38.5594  -18.1194    3.3707 H   0  0  0  0  0  0  0  0  0  0  0  0
   38.5533  -17.7113    5.0890 H   0  0  0  0  0  0  0  0  0  0  0  0
   40.5898  -16.2934    4.7586 H   0  0  0  0  0  0  0  0  0  0  0  0
   40.5961  -16.7037    3.0408 H   0  0  0  0  0  0  0  0  0  0  0  0
   40.8130  -19.1291    3.6219 H   0  0  0  0  0  0  0  0  0  0  0  0
   40.8084  -18.7175    5.3394 H   0  0  0  0  0  0  0  0  0  0  0  0
   42.8451  -17.3006    5.0043 H   0  0  0  0  0  0  0  0  0  0  0  0
   42.8496  -17.7145    3.2873 H   0  0  0  0  0  0  0  0  0  0  0  0
   43.0664  -20.1387    3.8731 H   0  0  0  0  0  0  0  0  0  0  0  0
   43.0638  -19.7237    5.5897 H   0  0  0  0  0  0  0  0  0  0  0  0
   45.1007  -18.3098    5.2516 H   0  0  0  0  0  0  0  0  0  0  0  0
   45.1028  -18.7228    3.5345 H   0  0  0  0  0  0  0  0  0  0  0  0
   45.3196  -21.1474    4.1185 H   0  0  0  0  0  0  0  0  0  0  0  0
   45.3194  -20.7333    5.8354 H   0  0  0  0  0  0  0  0  0  0  0  0
   47.3562  -19.3191    5.4944 H   0  0  0  0  0  0  0  0  0  0  0  0
   47.3562  -19.7332    3.7775 H   0  0  0  0  0  0  0  0  0  0  0  0
   47.5739  -22.1570    4.3620 H   0  0  0  0  0  0  0  0  0  0  0  0
   47.5739  -21.7430    6.0789 H   0  0  0  0  0  0  0  0  0  0  0  0
   49.6106  -20.3288    5.7378 H   0  0  0  0  0  0  0  0  0  0  0  0
   49.6105  -20.7429    4.0210 H   0  0  0  0  0  0  0  0  0  0  0  0
   49.8283  -23.1667    4.6055 H   0  0  0  0  0  0  0  0  0  0  0  0
   49.8284  -22.7527    6.3224 H   0  0  0  0  0  0  0  0  0  0  0  0
   51.8650  -21.3384    5.9812 H   0  0  0  0  0  0  0  0  0  0  0  0
   51.8649  -21.7525    4.2644 H   0  0  0  0  0  0  0  0  0  0  0  0
   52.0818  -24.1768    4.8499 H   0  0  0  0  0  0  0  0  0  0  0  0
   52.0837  -23.7615    6.5665 H   0  0  0  0  0  0  0  0  0  0  0  0
   54.1203  -22.3472    6.2210 H   0  0  0  0  0  0  0  0  0  0  0  0
   54.1184  -22.7647    4.5049 H   0  0  0  0  0  0  0  0  0  0  0  0
   54.3353  -25.1879    5.0951 H   0  0  0  0  0  0  0  0  0  0  0  0
   54.3390  -24.7690    6.8109 H   0  0  0  0  0  0  0  0  0  0  0  0
   56.3756  -23.3568    6.4617 H   0  0  0  0  0  0  0  0  0  0  0  0
   56.3719  -23.7757    4.7460 H   0  0  0  0  0  0  0  0  0  0  0  0
   56.5906  -26.1975    5.3360 H   0  0  0  0  0  0  0  0  0  0  0  0
   56.5925  -25.7800    7.0520 H   0  0  0  0  0  0  0  0  0  0  0  0
   58.6293  -24.3679    6.7069 H   0  0  0  0  0  0  0  0  0  0  0  0
   58.6270  -24.7833    4.9904 H   0  0  0  0  0  0  0  0  0  0  0  0
   58.8439  -27.2070    5.5773 H   0  0  0  0  0  0  0  0  0  0  0  0
   58.8481  -26.7908    7.2936 H   0  0  0  0  0  0  0  0  0  0  0  0
   60.8850  -25.3791    6.9467 H   0  0  0  0  0  0  0  0  0  0  0  0
   60.8803  -25.7932    5.2299 H   0  0  0  0  0  0  0  0  0  0  0  0
   61.0969  -28.2176    5.8147 H   0  0  0  0  0  0  0  0  0  0  0  0
   61.1038  -27.8024    7.5313 H   0  0  0  0  0  0  0  0  0  0  0  0
   63.1406  -26.3912    7.1824 H   0  0  0  0  0  0  0  0  0  0  0  0
   63.1334  -26.8043    5.4653 H   0  0  0  0  0  0  0  0  0  0  0  0
   63.3511  -29.2287    6.0475 H   0  0  0  0  0  0  0  0  0  0  0  0
   63.3584  -28.8156    7.7647 H   0  0  0  0  0  0  0  0  0  0  0  0
   65.3949  -27.4023    7.4152 H   0  0  0  0  0  0  0  0  0  0  0  0
   65.3878  -27.8175    5.6986 H   0  0  0  0  0  0  0  0  0  0  0  0
   65.6056  -30.2412    6.2840 H   0  0  0  0  0  0  0  0  0  0  0  0
   65.6126  -29.8259    8.0006 H   0  0  0  0  0  0  0  0  0  0  0  0
   67.6492  -28.4139    7.6508 H   0  0  0  0  0  0  0  0  0  0  0  0
   67.6423  -28.8291    5.9342 H   0  0  0  0  0  0  0  0  0  0  0  0
   67.8600  -31.2528    6.5197 H   0  0  0  0  0  0  0  0  0  0  0  0
   67.8670  -30.8375    8.2363 H   0  0  0  0  0  0  0  0  0  0  0  0
   69.9036  -29.4254    7.8864 H   0  0  0  0  0  0  0  0  0  0  0  0
   69.8967  -29.8407    6.1699 H   0  0  0  0  0  0  0  0  0  0  0  0
   70.1144  -32.2643    6.7554 H   0  0  0  0  0  0  0  0  0  0  0  0
   70.1214  -31.8490    8.4720 H   0  0  0  0  0  0  0  0  0  0  0  0
   72.1580  -30.4370    8.1221 H   0  0  0  0  0  0  0  0  0  0  0  0
   72.1511  -30.8523    6.4055 H   0  0  0  0  0  0  0  0  0  0  0  0
   72.3688  -33.2759    6.9910 H   0  0  0  0  0  0  0  0  0  0  0  0
   72.3758  -32.8606    8.7076 H   0  0  0  0  0  0  0  0  0  0  0  0
   74.4124  -31.4485    8.3577 H   0  0  0  0  0  0  0  0  0  0  0  0
   74.4055  -31.8638    6.6411 H   0  0  0  0  0  0  0  0  0  0  0  0
   74.6233  -34.2875    7.2267 H   0  0  0  0  0  0  0  0  0  0  0  0
   74.6301  -33.8721    8.9433 H   0  0  0  0  0  0  0  0  0  0  0  0
   76.6666  -32.4591    8.5924 H   0  0  0  0  0  0  0  0  0  0  0  0
   76.6600  -32.8767    6.8764 H   0  0  0  0  0  0  0  0  0  0  0  0
   76.8779  -35.2996    7.4653 H   0  0  0  0  0  0  0  0  0  0  0  0
   76.8844  -34.8819    9.1813 H   0  0  0  0  0  0  0  0  0  0  0  0
   78.9210  -33.4702    8.8300 H   0  0  0  0  0  0  0  0  0  0  0  0
   78.9146  -33.8879    7.1140 H   0  0  0  0  0  0  0  0  0  0  0  0
   79.1325  -36.3108    7.7029 H   0  0  0  0  0  0  0  0  0  0  0  0
   79.1390  -35.8930    9.4189 H   0  0  0  0  0  0  0  0  0  0  0  0
   81.1757  -34.4814    9.0676 H   0  0  0  0  0  0  0  0  0  0  0  0
   81.1693  -34.8991    7.3516 H   0  0  0  0  0  0  0  0  0  0  0  0
   81.3875  -37.3220    7.9407 H   0  0  0  0  0  0  0  0  0  0  0  0
   81.3939  -36.9041    9.6566 H   0  0  0  0  0  0  0  0  0  0  0  0
   83.4310  -35.4921    9.3044 H   0  0  0  0  0  0  0  0  0  0  0  0
   83.4249  -35.9120    7.5890 H   0  0  0  0  0  0  0  0  0  0  0  0
   83.6435  -38.3342    8.1813 H   0  0  0  0  0  0  0  0  0  0  0  0
   83.6495  -37.9142    9.8966 H   0  0  0  0  0  0  0  0  0  0  0  0
   85.6886  -36.5057    9.5446 H   0  0  0  0  0  0  0  0  0  0  0  0
   85.6828  -36.9257    7.8295 H   0  0  0  0  0  0  0  0  0  0  0  0
   85.9032  -39.3484    8.4209 H   0  0  0  0  0  0  0  0  0  0  0  0
   85.9073  -38.9296   10.1369 H   0  0  0  0  0  0  0  0  0  0  0  0
   87.9487  -37.5243    9.7890 H   0  0  0  0  0  0  0  0  0  0  0  0
   87.9445  -37.9407    8.0742 H   0  0  0  0  0  0  0  0  0  0  0  0
   88.1856  -40.3664    8.6618 H   0  0  0  0  0  0  0  0  0  0  0  0
   88.1899  -39.9499   10.3779 H   0  0  0  0  0  0  0  0  0  0  0  0
   90.2341  -38.9716    8.3136 H   0  0  0  0  0  0  0  0  0  0  0  0
   90.5065  -40.2324    9.5320 H   0  0  0  0  0  0  0  0  0  0  0  0
   90.2385  -38.5530   10.0381 H   0  0  0  0  0  0  0  0  0  0  0  0
  1  2  2  0  0  0  0
  1 81  1  0  0  0  0
  1 82  1  0  0  0  0
  2  3  1  0  0  0  0
  2 83  1  0  0  0  0
  3  4  1  0  0  0  0
  3 84  1  0  0  0  0
  3 85  1  0  0  0  0
  4  5  1  0  0  0  0
  4 86  1  0  0  0  0
  5  6  1  0  0  0  0
  5 87  1  0  0  0  0
  6  7  1  0  0  0  0
  6 88  1  0  0  0  0
  7  8  1  0  0  0  0
  7 89  1  0  0  0  0
  8  9  1  0  0  0  0
  8 90  1  0  0  0  0
  8 91  1  0  0  0  0
  9 10  1  0  0  0  0
  9 92  1  0  0  0  0
  9 93  1  0  0  0  0
 10 11  1  0  0  0  0
 10 94  1  0  0  0  0
 10 95  1  0  0  0  0
 11 12  1  0  0  0  0
 11 96  1  0  0  0  0
 11 97  1  0  0  0  0
 12 13  1  0  0  0  0
 12 98  1  0  0  0  0
 12 99  1  0  0  0  0
 13 14  1  0  0  0  0
 13100  1  0  0  0  0
 13101  1  0  0  0  0
 14 15  1  0  0  0  0
 14102  1  0  0  0  0
 14103  1  0  0  0  0
 15 16  1  0  0  0  0
 15104  1  0  0  0  0
 15105  1  0  0  0  0
 16 17  1  0  0  0  0
 16106  1  0  0  0  0
 16107  1  0  0  0  0
 17 18  1  0  0  0  0
 17108  1  0  0  0  0
 17109  1  0  0  0  0
 18 19  1  0  0  0  0
 18110  1  0  0  0  0
 18111  1  0  0  0  0
 19 20  1  0  0  0  0
 19112  1  0  0  0  0
 19113  1  0  0  0  0
 20 21  1  0  0  0  0
 20114  1  0  0  0  0
 20115  1  0  0  0  0
 21 22  1  0  0  0  0
 21116  1  0  0  0  0
 21117  1  0  0  0  0
 22 23  1  0  0  0  0
 22118  1  0  0  0  0
 22119  1  0  0  0  0
 23 24  1  0  0  0  0
 23120  1  0  0  0  0
 23121  1  0  0  0  0
 24 25  1  0  0  0  0
 24122  1  0  0  0  0
 24123  1  0  0  0  0
 25 26  1  0  0  0  0
 25124  1  0  0  0  0
 25125  1  0  0  0  0
 26 27  1  0  0  0  0
 26126  1  0  0  0  0
 26127  1  0  0  0  0
 27 28  1  0  0  0  0
 27128  1  0  0  0  0
 27129  1  0  0  0  0
 28 29  1  0  0  0  0
 28130  1  0  0  0  0
 28131  1  0  0  0  0
 29 30  1  0  0  0  0
 29132  1  0  0  0  0
 29133  1  0  0  0  0
 30 31  1  0  0  0  0
 30134  1  0  0  0  0
 30135  1  0  0  0  0
 31 32  1  0  0  0  0
 31136  1  0  0  0  0
 31137  1  0  0  0  0
 32 33  1  0  0  0  0
 32138  1  0  0  0  0
 32139  1  0  0  0  0
 33 34  1  0  0  0  0
 33140  1  0  0  0  0
 33141  1  0  0  0  0
 34 35  1  0  0  0  0
 34142  1  0  0  0  0
 34143  1  0  0  0  0
 35 36  1  0  0  0  0
 35144  1  0  0  0  0
 35145  1  0  0  0  0
 36 37  1  0  0  0  0
 36146  1  0  0  0  0
 36147  1  0  0  0  0
 37 38  1  0  0  0  0
 37148  1  0  0  0  0
 37149  1  0  0  0  0
 38 39  1  0  0  0  0
 38150  1  0  0  0  0
 38151  1  0  0  0  0
 39 40  1  0  0  0  0
 39152  1  0  0  0  0
 39153  1  0  0  0  0
 40 41  1  0  0  0  0
 40154  1  0  0  0  0
 40155  1  0  0  0  0
 41 42  1  0  0  0  0
 41156  1  0  0  0  0
 41157  1  0  0  0  0
 42 43  1  0  0  0  0
 42158  1  0  0  0  0
 42159  1  0  0  0  0
 43 44  1  0  0  0  0
 43160  1  0  0  0  0
 43161  1  0  0  0  0
 44 45  1  0  0  0  0
 44162  1  0  0  0  0
 44163  1  0  0  0  0
 45 46  1  0  0  0  0
 45164  1  0  0  0  0
 45165  1  0  0  0  0
 46 47  1  0  0  0  0
 46166  1  0  0  0  0
 46167  1  0  0  0  0
 47 48  1  0  0  0  0
 47168  1  0  0  0  0
 47169  1  0  0  0  0
 48 49  1  0  0  0  0
 48170  1  0  0  0  0
 48171  1  0  0  0  0
 49 50  1  0  0  0  0
 49172  1  0  0  0  0
 49173  1  0  0  0  0
 50 51  1  0  0  0  0
 50174  1  0  0  0  0
 50175  1  0  0  0  0
 51 52  1  0  0  0  0
 51176  1  0  0  0  0
 51177  1  0  0  0  0
 52 53  1  0  0  0  0
 52178  1  0  0  0  0
 52179  1  0  0  0  0
 53 54  1  0  0  0  0
 53180  1  0  0  0  0
 53181  1  0  0  0  0
 54 55  1  0  0  0  0
 54182  1  0  0  0  0
 54183  1  0  0  0  0
 55 56  1  0  0  0  0
 55184  1  0  0  0  0
 55185  1  0  0  0  0
 56 57  1  0  0  0  0
 56186  1  0  0  0  0
 56187  1  0  0  0  0
 57 58  1  0  0  0  0
 57188  1  0  0  0  0
 57189  1  0  0  0  0
 58 59  1  0  0  0  0
 58190  1  0  0  0  0
 58191  1  0  0  0  0
 59 60  1  0  0  0  0
 59192  1  0  0  0  0
 59193  1  0  0  0  0
 60 61  1  0  0  0  0
 60194  1  0  0  0  0
 60195  1  0  0  0  0
 61 62  1  0  0  0  0
 61196  1  0  0  0  0
 61197  1  0  0  0  0
 62 63  1  0  0  0  0
 62198  1  0  0  0  0
 62199  1  0  0  0  0
 63 64  1  0  0  0  0
 63200  1  0  0  0  0
 63201  1  0  0  0  0
 64 65  1  0  0  0  0
 64202  1  0  0  0  0
 64203  1  0  0  0  0
 65 66  1  0  0  0  0
 65204  1  0  0  0  0
 65205  1  0  0  0  0
 66 67  1  0  0  0  0
 66206  1  0  0  0  0
 66207  1  0  0  0  0
 67 68  1  0  0  0  0
 67208  1  0  0  0  0
 67209  1  0  0  0  0
 68 69  1  0  0  0  0
 68210  1  0  0  0  0
 68211  1  0  0  0  0
 69 70  1  0  0  0  0
 69212  1  0  0  0  0
 69213  1  0  0  0  0
 70 71  1  0  0  0  0
 70214  1  0  0  0  0
 70215  1  0  0  0  0
 71 72  1  0  0  0  0
 71216  1  0  0  0  0
 71217  1  0  0  0  0
 72 73  1  0  0  0  0
 72218  1  0  0  0  0
 72219  1  0  0  0  0
 73 74  1  0  0  0  0
 73220  1  0  0  0  0
 73221  1  0  0  0  0
 74 75  1  0  0  0  0
 74222  1  0  0  0  0
 74223  1  0  0  0  0
 75 76  1  0  0  0  0
 75224  1  0  0  0  0
 75225  1  0  0  0  0
 76 77  1  0  0  0  0
 76226  1  0  0  0  0
 76227  1  0  0  0  0
 77 78  1  0  0  0  0
 77228  1  0  0  0  0
 77229  1  0  0  0  0
 78 79  1  0  0  0  0
 78230  1  0  0  0  0
 78231  1  0  0  0  0
 79 80  1  0  0  0  0
 79232  1  0  0  0  0
 79233  1  0  0  0  0
 80234  1  0  0  0  0
 80235  1  0  0  0  0
 80236  1  0  0  0  0
M  END
$$$$
