
 OpenBabel04232216403D

158157  0  0  0  0  0  0  0  0999 V2000
   18.9484   21.0913    1.8421 C   0  0  0  0  0  0  0  0  0  0  0  0
   19.8025   20.2108    2.3777 C   0  0  0  0  0  0  0  0  0  0  0  0
   20.3738   20.4000    3.7514 C   0  0  0  0  0  0  0  0  0  0  0  0
   21.8930   20.4959    3.6965 C   0  0  0  0  0  0  0  0  0  0  0  0
   22.4140   20.6843    5.0458 N   0  0  0  0  0  0  0  0  0  0  0  0
   23.8375   20.7864    4.9827 N   0  0  0  0  0  0  0  0  0  0  0  0
   24.3540   20.9544    6.2956 N   0  0  0  0  0  0  0  0  0  0  0  0
   24.0081   19.8485    7.1390 N   0  0  0  0  0  0  0  0  0  0  0  0
   24.5156   18.6269    6.5948 N   0  0  0  0  0  0  0  0  0  0  0  0
   25.9399   18.7091    6.4976 N   0  0  0  0  0  0  0  0  0  0  0  0
   26.4765   18.9278    7.8116 N   0  0  0  0  0  0  0  0  0  0  0  0
   26.0754   17.8347    8.6641 N   0  0  0  0  0  0  0  0  0  0  0  0
   26.5745   16.5953    8.1186 N   0  0  0  0  0  0  0  0  0  0  0  0
   27.9967   16.6495    8.0180 N   0  0  0  0  0  0  0  0  0  0  0  0
   28.5616   16.8657    9.2894 N   0  0  0  0  0  0  0  0  0  0  0  0
   28.1883   15.8218   10.1536 N   0  0  0  0  0  0  0  0  0  0  0  0
   28.6383   14.5943    9.6339 N   0  0  0  0  0  0  0  0  0  0  0  0
   30.0585   14.6128    9.5117 N   0  0  0  0  0  0  0  0  0  0  0  0
   30.6441   14.8275   10.7974 N   0  0  0  0  0  0  0  0  0  0  0  0
   30.2742   13.7654   11.6893 N   0  0  0  0  0  0  0  0  0  0  0  0
   30.7286   12.4982   11.1933 N   0  0  0  0  0  0  0  0  0  0  0  0
   32.1561   12.4827   11.0491 N   0  0  0  0  0  0  0  0  0  0  0  0
   32.8043   12.7284   12.3138 N   0  0  0  0  0  0  0  0  0  0  0  0
   32.3997   11.7162   13.2603 N   0  0  0  0  0  0  0  0  0  0  0  0
   32.7922   10.4262   12.7332 N   0  0  0  0  0  0  0  0  0  0  0  0
   34.2302   10.4371   12.5419 N   0  0  0  0  0  0  0  0  0  0  0  0
   34.8771   10.6956   13.8050 N   0  0  0  0  0  0  0  0  0  0  0  0
   34.5020    9.7020   14.7506 N   0  0  0  0  0  0  0  0  0  0  0  0
   34.8852    8.4293   14.2715 N   0  0  0  0  0  0  0  0  0  0  0  0
   36.2887    8.4085   14.0640 N   0  0  0  0  0  0  0  0  0  0  0  0
   36.9427    8.6845   15.2919 N   0  0  0  0  0  0  0  0  0  0  0  0
   36.5992    7.7019   16.2566 N   0  0  0  0  0  0  0  0  0  0  0  0
   36.9769    6.4083   15.8152 N   0  0  0  0  0  0  0  0  0  0  0  0
   38.3787    6.3551   15.5769 N   0  0  0  0  0  0  0  0  0  0  0  0
   39.0871    6.6519   16.7932 N   0  0  0  0  0  0  0  0  0  0  0  0
   38.7465    5.6868   17.8188 N   0  0  0  0  0  0  0  0  0  0  0  0
   39.0923    4.3513   17.3859 N   0  0  0  0  0  0  0  0  0  0  0  0
   40.4932    4.3091   17.0932 N   0  0  0  0  0  0  0  0  0  0  0  0
   41.1820    4.6632   18.2981 N   0  0  0  0  0  0  0  0  0  0  0  0
   40.8066    3.7135   19.3246 N   0  0  0  0  0  0  0  0  0  0  0  0
   41.1402    2.3779   18.8815 N   0  0  0  0  0  0  0  0  0  0  0  0
   42.5499    2.3132   18.6097 N   0  0  0  0  0  0  0  0  0  0  0  0
   43.2828    2.6249   19.8085 N   0  0  0  0  0  0  0  0  0  0  0  0
   42.9386    1.7146   20.8576 N   0  0  0  0  0  0  0  0  0  0  0  0
   43.2482    0.3808   20.4603 N   0  0  0  0  0  0  0  0  0  0  0  0
   44.6628    0.2501   20.2023 N   0  0  0  0  0  0  0  0  0  0  0  0
   45.4324    0.5806   21.3731 N   0  0  0  0  0  0  0  0  0  0  0  0
   45.0839   -0.3046   22.4416 N   0  0  0  0  0  0  0  0  0  0  0  0
   45.3820   -1.6579   22.0720 N   0  0  0  0  0  0  0  0  0  0  0  0
   46.7505   -1.7493   21.7373 N   0  0  0  0  0  0  0  0  0  0  0  0
   47.5093   -1.3915   22.8785 N   0  0  0  0  0  0  0  0  0  0  0  0
   47.1645   -2.2463   23.9651 N   0  0  0  0  0  0  0  0  0  0  0  0
   47.4333   -3.5927   23.5991 N   0  0  0  0  0  0  0  0  0  0  0  0
   48.8245   -3.7421   23.2952 N   0  0  0  0  0  0  0  0  0  0  0  0
   49.6203   -3.3590   24.4279 N   0  0  0  0  0  0  0  0  0  0  0  0
   49.3107   -4.2013   25.5520 N   0  0  0  0  0  0  0  0  0  0  0  0
   49.5609   -5.5847   25.2093 N   0  0  0  0  0  0  0  0  0  0  0  0
   50.9550   -5.7206   24.8452 N   0  0  0  0  0  0  0  0  0  0  0  0
   51.7660   -5.3159   25.9763 N   0  0  0  0  0  0  0  0  0  0  0  0
   51.4319   -6.1424   27.1156 N   0  0  0  0  0  0  0  0  0  0  0  0
   51.6959   -7.5414   26.8018 N   0  0  0  0  0  0  0  0  0  0  0  0
   53.0823   -7.7130   26.4266 N   0  0  0  0  0  0  0  0  0  0  0  0
   53.9156   -7.3086   27.5277 N   0  0  0  0  0  0  0  0  0  0  0  0
   53.6022   -8.1136   28.6660 N   0  0  0  0  0  0  0  0  0  0  0  0
   53.8249   -9.4876   28.3657 N   0  0  0  0  0  0  0  0  0  0  0  0
   55.1937   -9.6843   28.0080 N   0  0  0  0  0  0  0  0  0  0  0  0
   56.0455   -9.2804   29.0925 N   0  0  0  0  0  0  0  0  0  0  0  0
   55.7760  -10.0521   30.2688 N   0  0  0  0  0  0  0  0  0  0  0  0
   56.7441   -9.5946   31.5418 S   0  0  0  0  0  0  0  0  0  0  0  0
   56.3792  -10.4989   32.8912 N   0  0  0  0  0  0  0  0  0  0  0  0
   54.8084  -10.3419   33.4376 S   0  0  0  0  0  0  0  0  0  0  0  0
   53.7158  -10.8587   32.2831 N   0  0  0  0  0  0  0  0  0  0  0  0
   53.8306  -12.4884   31.8880 S   0  0  0  0  0  0  0  0  0  0  0  0
   53.5881  -13.5066   33.2199 N   0  0  0  0  0  0  0  0  0  0  0  0
   52.0471  -13.4160   33.8686 S   0  0  0  0  0  0  0  0  0  0  0  0
   51.8198  -14.4579   35.2131 N   0  0  0  0  0  0  0  0  0  0  0  0
   51.9795  -16.0752   34.8184 S   0  0  0  0  0  0  0  0  0  0  0  0
   51.7177  -17.0699   36.1483 N   0  0  0  0  0  0  0  0  0  0  0  0
   50.1892  -16.9690   36.8084 S   0  0  0  0  0  0  0  0  0  0  0  0
   49.0306  -17.3409   35.6817 N   0  0  0  0  0  0  0  0  0  0  0  0
   18.5436   20.9401    0.8487 H   0  0  0  0  0  0  0  0  0  0  0  0
   18.6427   21.9731    2.3919 H   0  0  0  0  0  0  0  0  0  0  0  0
   20.0855   19.3330    1.7979 H   0  0  0  0  0  0  0  0  0  0  0  0
   20.0748   19.5576    4.3871 H   0  0  0  0  0  0  0  0  0  0  0  0
   19.9706   21.3158    4.2007 H   0  0  0  0  0  0  0  0  0  0  0  0
   22.1856   21.3395    3.0689 H   0  0  0  0  0  0  0  0  0  0  0  0
   22.2999   19.5728    3.2675 H   0  0  0  0  0  0  0  0  0  0  0  0
   22.0909   19.8854    5.5926 H   0  0  0  0  0  0  0  0  0  0  0  0
   24.1038   21.5913    4.3961 H   0  0  0  0  0  0  0  0  0  0  0  0
   24.0010   21.8136    6.7113 H   0  0  0  0  0  0  0  0  0  0  0  0
   22.9987   19.7771    7.2348 H   0  0  0  0  0  0  0  0  0  0  0  0
   24.1520   18.4703    5.6590 H   0  0  0  0  0  0  0  0  0  0  0  0
   26.1954   19.4902    5.8852 H   0  0  0  0  0  0  0  0  0  0  0  0
   26.1104   19.8145    8.1875 H   0  0  0  0  0  0  0  0  0  0  0  0
   25.0461   17.8010    8.7324 H   0  0  0  0  0  0  0  0  0  0  0  0
   26.1996   16.4279    7.1825 H   0  0  0  0  0  0  0  0  0  0  0  0
   28.3118   17.4003    7.4104 H   0  0  0  0  0  0  0  0  0  0  0  0
   28.2519   17.7336    9.7162 H   0  0  0  0  0  0  0  0  0  0  0  0
   27.1823   15.7342   10.2601 H   0  0  0  0  0  0  0  0  0  0  0  0
   28.2707   14.4029    8.7061 H   0  0  0  0  0  0  0  0  0  0  0  0
   30.3538   15.3693    8.8891 H   0  0  0  0  0  0  0  0  0  0  0  0
   30.3209   15.7263   11.1818 H   0  0  0  0  0  0  0  0  0  0  0  0
   29.2529   13.7354   11.7707 H   0  0  0  0  0  0  0  0  0  0  0  0
   30.3125   12.3397   10.2742 H   0  0  0  0  0  0  0  0  0  0  0  0
   32.4002   13.2352   10.4081 H   0  0  0  0  0  0  0  0  0  0  0  0
   32.4460   13.6240   12.6432 H   0  0  0  0  0  0  0  0  0  0  0  0
   31.3743   11.7656   13.3122 H   0  0  0  0  0  0  0  0  0  0  0  0
   32.3153   10.3250   11.8187 H   0  0  0  0  0  0  0  0  0  0  0  0
   34.4456   11.2035   11.8902 H   0  0  0  0  0  0  0  0  0  0  0  0
   34.5763   11.6009   14.1558 H   0  0  0  0  0  0  0  0  0  0  0  0
   33.4980    9.6900   14.8852 H   0  0  0  0  0  0  0  0  0  0  0  0
   34.4317    8.2222   13.3850 H   0  0  0  0  0  0  0  0  0  0  0  0
   36.5550    9.1194   13.3737 H   0  0  0  0  0  0  0  0  0  0  0  0
   36.6535    9.6002   15.6467 H   0  0  0  0  0  0  0  0  0  0  0  0
   35.5927    7.6978   16.3962 H   0  0  0  0  0  0  0  0  0  0  0  0
   36.5099    6.2167   14.9369 H   0  0  0  0  0  0  0  0  0  0  0  0
   38.5991    7.0670   14.8716 H   0  0  0  0  0  0  0  0  0  0  0  0
   38.7792    7.5985   17.0785 H   0  0  0  0  0  0  0  0  0  0  0  0
   37.7272    5.7410   17.9410 H   0  0  0  0  0  0  0  0  0  0  0  0
   38.5703    4.2009   16.5188 H   0  0  0  0  0  0  0  0  0  0  0  0
   40.6525    5.0160   16.3644 H   0  0  0  0  0  0  0  0  0  0  0  0
   40.8707    5.6052   18.5731 H   0  0  0  0  0  0  0  0  0  0  0  0
   39.7940    3.7339   19.4673 H   0  0  0  0  0  0  0  0  0  0  0  0
   40.6331    2.1437   18.0276 H   0  0  0  0  0  0  0  0  0  0  0  0
   42.7930    2.9803   17.8711 H   0  0  0  0  0  0  0  0  0  0  0  0
   43.0485    3.5559   20.1518 H   0  0  0  0  0  0  0  0  0  0  0  0
   41.9414    1.7329   21.0586 H   0  0  0  0  0  0  0  0  0  0  0  0
   42.7061    0.1439   19.6171 H   0  0  0  0  0  0  0  0  0  0  0  0
   44.9209    0.9093   19.4643 H   0  0  0  0  0  0  0  0  0  0  0  0
   45.2016    1.5429   21.6464 H   0  0  0  0  0  0  0  0  0  0  0  0
   44.0754   -0.1880   22.6124 H   0  0  0  0  0  0  0  0  0  0  0  0
   44.8574   -1.8759   21.2277 H   0  0  0  0  0  0  0  0  0  0  0  0
   46.9477   -1.1058   20.9625 H   0  0  0  0  0  0  0  0  0  0  0  0
   47.2588   -0.4396   23.1399 H   0  0  0  0  0  0  0  0  0  0  0  0
   46.1637   -2.1530   24.1524 H   0  0  0  0  0  0  0  0  0  0  0  0
   46.8594   -3.8291   22.7789 H   0  0  0  0  0  0  0  0  0  0  0  0
   49.0724   -3.1202   22.5224 H   0  0  0  0  0  0  0  0  0  0  0  0
   49.4032   -2.3730   24.6480 H   0  0  0  0  0  0  0  0  0  0  0  0
   48.3163   -4.0916   25.7778 H   0  0  0  0  0  0  0  0  0  0  0  0
   48.9647   -5.7870   24.3859 H   0  0  0  0  0  0  0  0  0  0  0  0
   51.1333   -5.0824   24.0568 H   0  0  0  0  0  0  0  0  0  0  0  0
   51.5133   -4.3500   26.2071 H   0  0  0  0  0  0  0  0  0  0  0  0
   50.4338   -6.0013   27.3331 H   0  0  0  0  0  0  0  0  0  0  0  0
   51.1228   -7.8167   26.0049 H   0  0  0  0  0  0  0  0  0  0  0  0
   53.2703   -7.1256   25.6063 H   0  0  0  0  0  0  0  0  0  0  0  0
   53.7400   -6.3251   27.7607 H   0  0  0  0  0  0  0  0  0  0  0  0
   52.6254   -8.0204   28.9366 H   0  0  0  0  0  0  0  0  0  0  0  0
   53.2122   -9.7712   27.5909 H   0  0  0  0  0  0  0  0  0  0  0  0
   55.4156   -9.1305   27.1628 H   0  0  0  0  0  0  0  0  0  0  0  0
   55.8867   -8.2925   29.2997 H   0  0  0  0  0  0  0  0  0  0  0  0
   55.8979  -11.0369   30.0379 H   0  0  0  0  0  0  0  0  0  0  0  0
   57.0386  -10.2439   33.6482 H   0  0  0  0  0  0  0  0  0  0  0  0
   53.8251  -10.2670   31.4398 H   0  0  0  0  0  0  0  0  0  0  0  0
   54.3164  -13.3042   33.8997 H   0  0  0  0  0  0  0  0  0  0  0  0
   50.8726  -14.2931   35.5829 H   0  0  0  0  0  0  0  0  0  0  0  0
   52.4242  -16.9238   36.8773 H   0  0  0  0  0  0  0  0  0  0  0  0
   48.0739  -17.2598   36.0620 H   0  0  0  0  0  0  0  0  0  0  0  0
   49.0720  -18.3164   35.3743 H   0  0  0  0  0  0  0  0  0  0  0  0
  1  2  2  0  0  0  0
  1 81  1  0  0  0  0
  1 82  1  0  0  0  0
  2  3  1  0  0  0  0
  2 83  1  0  0  0  0
  3  4  1  0  0  0  0
  3 84  1  0  0  0  0
  3 85  1  0  0  0  0
  4  5  1  0  0  0  0
  4 86  1  0  0  0  0
  4 87  1  0  0  0  0
  5  6  1  0  0  0  0
  5 88  1  0  0  0  0
  6  7  1  0  0  0  0
  6 89  1  0  0  0  0
  7  8  1  0  0  0  0
  7 90  1  0  0  0  0
  8  9  1  0  0  0  0
  8 91  1  0  0  0  0
  9 10  1  0  0  0  0
  9 92  1  0  0  0  0
 10 11  1  0  0  0  0
 10 93  1  0  0  0  0
 11 12  1  0  0  0  0
 11 94  1  0  0  0  0
 12 13  1  0  0  0  0
 12 95  1  0  0  0  0
 13 14  1  0  0  0  0
 13 96  1  0  0  0  0
 14 15  1  0  0  0  0
 14 97  1  0  0  0  0
 15 16  1  0  0  0  0
 15 98  1  0  0  0  0
 16 17  1  0  0  0  0
 16 99  1  0  0  0  0
 17 18  1  0  0  0  0
 17100  1  0  0  0  0
 18 19  1  0  0  0  0
 18101  1  0  0  0  0
 19 20  1  0  0  0  0
 19102  1  0  0  0  0
 20 21  1  0  0  0  0
 20103  1  0  0  0  0
 21 22  1  0  0  0  0
 21104  1  0  0  0  0
 22 23  1  0  0  0  0
 22105  1  0  0  0  0
 23 24  1  0  0  0  0
 23106  1  0  0  0  0
 24 25  1  0  0  0  0
 24107  1  0  0  0  0
 25 26  1  0  0  0  0
 25108  1  0  0  0  0
 26 27  1  0  0  0  0
 26109  1  0  0  0  0
 27 28  1  0  0  0  0
 27110  1  0  0  0  0
 28 29  1  0  0  0  0
 28111  1  0  0  0  0
 29 30  1  0  0  0  0
 29112  1  0  0  0  0
 30 31  1  0  0  0  0
 30113  1  0  0  0  0
 31 32  1  0  0  0  0
 31114  1  0  0  0  0
 32 33  1  0  0  0  0
 32115  1  0  0  0  0
 33 34  1  0  0  0  0
 33116  1  0  0  0  0
 34 35  1  0  0  0  0
 34117  1  0  0  0  0
 35 36  1  0  0  0  0
 35118  1  0  0  0  0
 36 37  1  0  0  0  0
 36119  1  0  0  0  0
 37 38  1  0  0  0  0
 37120  1  0  0  0  0
 38 39  1  0  0  0  0
 38121  1  0  0  0  0
 39 40  1  0  0  0  0
 39122  1  0  0  0  0
 40 41  1  0  0  0  0
 40123  1  0  0  0  0
 41 42  1  0  0  0  0
 41124  1  0  0  0  0
 42 43  1  0  0  0  0
 42125  1  0  0  0  0
 43 44  1  0  0  0  0
 43126  1  0  0  0  0
 44 45  1  0  0  0  0
 44127  1  0  0  0  0
 45 46  1  0  0  0  0
 45128  1  0  0  0  0
 46 47  1  0  0  0  0
 46129  1  0  0  0  0
 47 48  1  0  0  0  0
 47130  1  0  0  0  0
 48 49  1  0  0  0  0
 48131  1  0  0  0  0
 49 50  1  0  0  0  0
 49132  1  0  0  0  0
 50 51  1  0  0  0  0
 50133  1  0  0  0  0
 51 52  1  0  0  0  0
 51134  1  0  0  0  0
 52 53  1  0  0  0  0
 52135  1  0  0  0  0
 53 54  1  0  0  0  0
 53136  1  0  0  0  0
 54 55  1  0  0  0  0
 54137  1  0  0  0  0
 55 56  1  0  0  0  0
 55138  1  0  0  0  0
 56 57  1  0  0  0  0
 56139  1  0  0  0  0
 57 58  1  0  0  0  0
 57140  1  0  0  0  0
 58 59  1  0  0  0  0
 58141  1  0  0  0  0
 59 60  1  0  0  0  0
 59142  1  0  0  0  0
 60 61  1  0  0  0  0
 60143  1  0  0  0  0
 61 62  1  0  0  0  0
 61144  1  0  0  0  0
 62 63  1  0  0  0  0
 62145  1  0  0  0  0
 63 64  1  0  0  0  0
 63146  1  0  0  0  0
 64 65  1  0  0  0  0
 64147  1  0  0  0  0
 65 66  1  0  0  0  0
 65148  1  0  0  0  0
 66 67  1  0  0  0  0
 66149  1  0  0  0  0
 67 68  1  0  0  0  0
 67150  1  0  0  0  0
 68 69  1  0  0  0  0
 68151  1  0  0  0  0
 69 70  1  0  0  0  0
 70 71  1  0  0  0  0
 70152  1  0  0  0  0
 71 72  1  0  0  0  0
 72 73  1  0  0  0  0
 72153  1  0  0  0  0
 73 74  1  0  0  0  0
 74 75  1  0  0  0  0
 74154  1  0  0  0  0
 75 76  1  0  0  0  0
 76 77  1  0  0  0  0
 76155  1  0  0  0  0
 77 78  1  0  0  0  0
 78 79  1  0  0  0  0
 78156  1  0  0  0  0
 79 80  1  0  0  0  0
 80157  1  0  0  0  0
 80158  1  0  0  0  0
M  END
$$$$
