
 OpenBabel04232216463D

 50 51  0  0  0  0  0  0  0  0999 V2000
    0.0119   -3.0139   -0.3002 C   0  0  0  0  0  0  0  0  0  0  0  0
    1.4364   -2.5495   -0.5123 C   0  0  0  0  0  0  0  0  0  0  0  0
    1.6067   -1.1637   -0.4708 C   0  0  0  0  0  0  0  0  0  0  0  0
    2.8832   -0.6446   -0.4277 C   0  0  0  0  0  0  0  0  0  0  0  0
    2.9913    0.8626   -0.2046 C   0  0  0  0  0  0  0  0  0  0  0  0
    3.0753    1.7603   -1.4504 C   0  0  0  0  0  0  0  0  0  0  0  0
    1.8196    1.9510   -2.3218 C   0  0  0  0  0  0  0  0  0  0  0  0
    0.6191    2.6218   -1.6359 C   0  0  0  0  0  0  0  0  0  0  0  0
   -0.4522    3.0288   -2.6628 C   0  0  0  0  0  0  0  0  0  0  0  0
   -1.6778    3.6573   -2.0130 C   0  0  0  0  0  0  0  0  0  0  0  0
    3.9628   -1.5739   -0.4351 C   0  0  0  0  0  0  0  0  0  0  0  0
    5.2761   -1.0237   -0.1663 C   0  0  0  0  0  0  0  0  0  0  0  0
    6.0100   -1.6009    0.7958 C   0  0  0  0  0  0  0  0  0  0  0  0
    5.5309   -2.4235    1.9755 C   0  0  0  0  0  0  0  0  0  0  0  0
    7.2537   -2.0011    0.2020 C   0  0  0  0  0  0  0  0  0  0  0  0
    7.1979   -3.0225   -0.6591 C   0  0  0  0  0  0  0  0  0  0  0  0
    6.1056   -4.1172   -0.6370 C   0  0  0  0  0  0  0  0  0  0  0  0
    6.9606   -5.4532   -0.4718 C   0  0  0  0  0  0  0  0  0  0  0  0
    6.5844   -6.9148   -0.3739 C   0  0  0  0  0  0  0  0  0  0  0  0
    4.7921   -4.0826   -0.6374 N   0  0  0  0  0  0  0  0  0  0  0  0
    3.7802   -2.9877   -0.6230 C   0  0  0  0  0  0  0  0  0  0  0  0
    2.4821   -3.4476   -0.6256 N   0  0  0  0  0  0  0  0  0  0  0  0
   -0.6733   -2.1554   -0.2104 H   0  0  0  0  0  0  0  0  0  0  0  0
   -0.0769   -3.5637    0.6413 H   0  0  0  0  0  0  0  0  0  0  0  0
   -0.3460   -3.6112   -1.1393 H   0  0  0  0  0  0  0  0  0  0  0  0
    0.7467   -0.5071   -0.3779 H   0  0  0  0  0  0  0  0  0  0  0  0
    3.8770    1.0603    0.4122 H   0  0  0  0  0  0  0  0  0  0  0  0
    2.1562    1.1998    0.4267 H   0  0  0  0  0  0  0  0  0  0  0  0
    3.8843    1.3992   -2.0968 H   0  0  0  0  0  0  0  0  0  0  0  0
    3.3809    2.7583   -1.1089 H   0  0  0  0  0  0  0  0  0  0  0  0
    1.5111    0.9944   -2.7564 H   0  0  0  0  0  0  0  0  0  0  0  0
    2.1178    2.5891   -3.1658 H   0  0  0  0  0  0  0  0  0  0  0  0
    0.9478    3.5159   -1.0929 H   0  0  0  0  0  0  0  0  0  0  0  0
    0.1789    1.9367   -0.9037 H   0  0  0  0  0  0  0  0  0  0  0  0
   -0.7686    2.1535   -3.2421 H   0  0  0  0  0  0  0  0  0  0  0  0
   -0.0296    3.7485   -3.3749 H   0  0  0  0  0  0  0  0  0  0  0  0
   -2.1595    2.9597   -1.3210 H   0  0  0  0  0  0  0  0  0  0  0  0
   -2.4125    3.9326   -2.7782 H   0  0  0  0  0  0  0  0  0  0  0  0
   -1.4130    4.5651   -1.4619 H   0  0  0  0  0  0  0  0  0  0  0  0
    5.7131   -0.5245   -1.0327 H   0  0  0  0  0  0  0  0  0  0  0  0
    6.3701   -2.7107    2.6163 H   0  0  0  0  0  0  0  0  0  0  0  0
    4.8115   -1.8638    2.5780 H   0  0  0  0  0  0  0  0  0  0  0  0
    5.0479   -3.3643    1.6944 H   0  0  0  0  0  0  0  0  0  0  0  0
    8.1208   -1.3595    0.2938 H   0  0  0  0  0  0  0  0  0  0  0  0
    8.1074   -3.2864   -1.1942 H   0  0  0  0  0  0  0  0  0  0  0  0
    7.5208   -5.2680    0.4615 H   0  0  0  0  0  0  0  0  0  0  0  0
    7.7249   -5.4197   -1.2648 H   0  0  0  0  0  0  0  0  0  0  0  0
    5.7939   -7.1266    0.3441 H   0  0  0  0  0  0  0  0  0  0  0  0
    7.4778   -7.4654   -0.0228 H   0  0  0  0  0  0  0  0  0  0  0  0
    6.3544   -7.3502   -1.3490 H   0  0  0  0  0  0  0  0  0  0  0  0
  1  2  1  0  0  0  0
  1 23  1  0  0  0  0
  1 24  1  0  0  0  0
  1 25  1  0  0  0  0
  2  3  1  0  0  0  0
  2 22  2  0  0  0  0
  3  4  2  0  0  0  0
  3 26  1  0  0  0  0
  4  5  1  0  0  0  0
  4 11  1  0  0  0  0
  5  6  1  0  0  0  0
  5 27  1  0  0  0  0
  5 28  1  0  0  0  0
  6  7  1  0  0  0  0
  6 29  1  0  0  0  0
  6 30  1  0  0  0  0
  7  8  1  0  0  0  0
  7 31  1  0  0  0  0
  7 32  1  0  0  0  0
  8  9  1  0  0  0  0
  8 33  1  0  0  0  0
  8 34  1  0  0  0  0
  9 10  1  0  0  0  0
  9 35  1  0  0  0  0
  9 36  1  0  0  0  0
 10 37  1  0  0  0  0
 10 38  1  0  0  0  0
 10 39  1  0  0  0  0
 11 12  1  0  0  0  0
 11 21  2  0  0  0  0
 12 13  2  0  0  0  0
 12 40  1  0  0  0  0
 13 14  1  0  0  0  0
 13 15  1  0  0  0  0
 14 41  1  0  0  0  0
 14 42  1  0  0  0  0
 14 43  1  0  0  0  0
 15 16  2  0  0  0  0
 15 44  1  0  0  0  0
 16 17  1  0  0  0  0
 16 45  1  0  0  0  0
 17 18  1  0  0  0  0
 17 20  2  0  0  0  0
 18 19  1  0  0  0  0
 18 46  1  0  0  0  0
 18 47  1  0  0  0  0
 19 48  1  0  0  0  0
 19 49  1  0  0  0  0
 19 50  1  0  0  0  0
 20 21  1  0  0  0  0
 21 22  1  0  0  0  0
M  END
$$$$
