
 OpenBabel04232216543D

102101  0  0  0  0  0  0  0  0999 V2000
   13.4743    7.9939    3.5097 C   0  0  0  0  0  0  0  0  0  0  0  0
   12.9178    6.5800    3.5188 C   0  0  0  0  0  0  0  0  0  0  0  0
   13.4772    5.7782    4.6755 C   0  0  0  0  0  0  0  0  0  0  0  0
   12.9167    4.3643    4.6765 C   0  0  0  0  0  0  0  0  0  0  0  0
   13.4779    3.5962    5.8014 N   0  0  0  0  0  0  0  0  0  0  0  0
   12.9434    2.2979    5.8048 N   0  0  0  0  0  0  0  0  0  0  0  0
   13.4908    1.5742    6.8734 N   0  0  0  0  0  0  0  0  0  0  0  0
   12.9266    0.2166    6.8625 C   0  0  0  0  0  0  0  0  0  0  0  0
   13.4982   -0.5823    8.0182 C   0  0  0  0  0  0  0  0  0  0  0  0
   12.9489   -2.0012    8.0356 C   0  0  0  0  0  0  0  0  0  0  0  0
   13.5052   -2.8159    9.1754 C   0  0  0  0  0  0  0  0  0  0  0  0
   12.8702   -4.5295    9.1894 S   0  0  0  0  0  0  0  0  0  0  0  0
   13.4647   -5.3704    7.4085 S   0  0  0  0  0  0  0  0  0  0  0  0
   15.5263   -5.3624    7.3943 S   0  0  0  0  0  0  0  0  0  0  0  0
   16.2019   -6.5600    8.9426 S   0  0  0  0  0  0  0  0  0  0  0  0
   18.2947   -6.5128    8.9258 S   0  0  0  0  0  0  0  0  0  0  0  0
   18.9833   -7.6765   10.5349 S   0  0  0  0  0  0  0  0  0  0  0  0
   21.0891   -7.6689   10.5236 S   0  0  0  0  0  0  0  0  0  0  0  0
   21.7798   -8.8363   12.1384 S   0  0  0  0  0  0  0  0  0  0  0  0
   23.8889   -8.8288   12.1280 S   0  0  0  0  0  0  0  0  0  0  0  0
   24.5798   -9.9963   13.7430 S   0  0  0  0  0  0  0  0  0  0  0  0
   26.6889   -9.9888   13.7326 S   0  0  0  0  0  0  0  0  0  0  0  0
   27.3798  -11.1563   15.3475 S   0  0  0  0  0  0  0  0  0  0  0  0
   29.4889  -11.1488   15.3371 S   0  0  0  0  0  0  0  0  0  0  0  0
   30.1798  -12.3163   16.9520 S   0  0  0  0  0  0  0  0  0  0  0  0
   32.2889  -12.3088   16.9416 S   0  0  0  0  0  0  0  0  0  0  0  0
   32.9798  -13.4763   18.5565 S   0  0  0  0  0  0  0  0  0  0  0  0
   35.0889  -13.4688   18.5461 S   0  0  0  0  0  0  0  0  0  0  0  0
   35.7797  -14.6363   20.1610 S   0  0  0  0  0  0  0  0  0  0  0  0
   37.8888  -14.6287   20.1506 S   0  0  0  0  0  0  0  0  0  0  0  0
   38.5797  -15.7963   21.7655 S   0  0  0  0  0  0  0  0  0  0  0  0
   40.6888  -15.7887   21.7551 S   0  0  0  0  0  0  0  0  0  0  0  0
   41.3797  -16.9563   23.3700 S   0  0  0  0  0  0  0  0  0  0  0  0
   43.4888  -16.9487   23.3596 S   0  0  0  0  0  0  0  0  0  0  0  0
   44.1797  -18.1163   24.9745 S   0  0  0  0  0  0  0  0  0  0  0  0
   46.2888  -18.1087   24.9641 S   0  0  0  0  0  0  0  0  0  0  0  0
   46.9797  -19.2762   26.5790 S   0  0  0  0  0  0  0  0  0  0  0  0
   49.0888  -19.2687   26.5686 S   0  0  0  0  0  0  0  0  0  0  0  0
   49.7797  -20.4362   28.1835 S   0  0  0  0  0  0  0  0  0  0  0  0
   51.8888  -20.4287   28.1731 S   0  0  0  0  0  0  0  0  0  0  0  0
   52.5797  -21.5962   29.7880 S   0  0  0  0  0  0  0  0  0  0  0  0
   54.6888  -21.5887   29.7776 S   0  0  0  0  0  0  0  0  0  0  0  0
   55.3797  -22.7562   31.3925 S   0  0  0  0  0  0  0  0  0  0  0  0
   57.4888  -22.7487   31.3821 S   0  0  0  0  0  0  0  0  0  0  0  0
   58.1797  -23.9162   32.9970 S   0  0  0  0  0  0  0  0  0  0  0  0
   60.2888  -23.9087   32.9866 S   0  0  0  0  0  0  0  0  0  0  0  0
   60.9797  -25.0762   34.6015 S   0  0  0  0  0  0  0  0  0  0  0  0
   63.0888  -25.0686   34.5911 S   0  0  0  0  0  0  0  0  0  0  0  0
   63.7797  -26.2362   36.2061 S   0  0  0  0  0  0  0  0  0  0  0  0
   65.8888  -26.2286   36.1956 S   0  0  0  0  0  0  0  0  0  0  0  0
   66.5797  -27.3962   37.8106 S   0  0  0  0  0  0  0  0  0  0  0  0
   68.6888  -27.3886   37.8001 S   0  0  0  0  0  0  0  0  0  0  0  0
   69.3797  -28.5562   39.4151 S   0  0  0  0  0  0  0  0  0  0  0  0
   71.4888  -28.5486   39.4046 S   0  0  0  0  0  0  0  0  0  0  0  0
   72.1796  -29.7161   41.0196 S   0  0  0  0  0  0  0  0  0  0  0  0
   74.2887  -29.7086   41.0091 S   0  0  0  0  0  0  0  0  0  0  0  0
   74.9796  -30.8761   42.6241 S   0  0  0  0  0  0  0  0  0  0  0  0
   77.0887  -30.8686   42.6136 S   0  0  0  0  0  0  0  0  0  0  0  0
   77.7796  -32.0361   44.2286 S   0  0  0  0  0  0  0  0  0  0  0  0
   79.8887  -32.0286   44.2181 S   0  0  0  0  0  0  0  0  0  0  0  0
   80.5796  -33.1961   45.8331 S   0  0  0  0  0  0  0  0  0  0  0  0
   82.6887  -33.1886   45.8226 S   0  0  0  0  0  0  0  0  0  0  0  0
   83.3796  -34.3561   47.4376 S   0  0  0  0  0  0  0  0  0  0  0  0
   85.4887  -34.3486   47.4272 S   0  0  0  0  0  0  0  0  0  0  0  0
   86.1796  -35.5161   49.0421 S   0  0  0  0  0  0  0  0  0  0  0  0
   88.2887  -35.5086   49.0317 S   0  0  0  0  0  0  0  0  0  0  0  0
   88.9796  -36.6761   50.6466 S   0  0  0  0  0  0  0  0  0  0  0  0
   91.0887  -36.6685   50.6362 S   0  0  0  0  0  0  0  0  0  0  0  0
   91.7796  -37.8361   52.2511 S   0  0  0  0  0  0  0  0  0  0  0  0
   93.8887  -37.8285   52.2407 S   0  0  0  0  0  0  0  0  0  0  0  0
   94.5796  -38.9961   53.8556 S   0  0  0  0  0  0  0  0  0  0  0  0
   96.6887  -38.9885   53.8452 S   0  0  0  0  0  0  0  0  0  0  0  0
   97.3796  -40.1561   55.4601 S   0  0  0  0  0  0  0  0  0  0  0  0
   99.4886  -40.1485   55.4497 S   0  0  0  0  0  0  0  0  0  0  0  0
  100.1794  -41.3158   57.0645 S   0  0  0  0  0  0  0  0  0  0  0  0
  102.2862  -41.3086   57.0534 S   0  0  0  0  0  0  0  0  0  0  0  0
  102.9725  -42.4732   58.6649 S   0  0  0  0  0  0  0  0  0  0  0  0
  105.0653  -42.4321   58.6554 S   0  0  0  0  0  0  0  0  0  0  0  0
  105.7559  -43.6495   60.1930 S   0  0  0  0  0  0  0  0  0  0  0  0
  107.8294  -43.5670   60.1848 S   0  0  0  0  0  0  0  0  0  0  0  0
  108.4339  -44.4530   58.4333 S   0  0  0  0  0  0  0  0  0  0  0  0
   13.0713    8.5647    2.6826 H   0  0  0  0  0  0  0  0  0  0  0  0
   14.5689    7.9710    3.4202 H   0  0  0  0  0  0  0  0  0  0  0  0
   13.2223    8.5081    4.4471 H   0  0  0  0  0  0  0  0  0  0  0  0
   13.1602    6.0925    2.5617 H   0  0  0  0  0  0  0  0  0  0  0  0
   11.8191    6.6274    3.5842 H   0  0  0  0  0  0  0  0  0  0  0  0
   13.2345    6.2809    5.6253 H   0  0  0  0  0  0  0  0  0  0  0  0
   14.5797    5.7490    4.6061 H   0  0  0  0  0  0  0  0  0  0  0  0
   13.1822    3.8741    3.7338 H   0  0  0  0  0  0  0  0  0  0  0  0
   11.8293    4.4029    4.7504 H   0  0  0  0  0  0  0  0  0  0  0  0
   13.2182    4.0664    6.6858 H   0  0  0  0  0  0  0  0  0  0  0  0
   13.2171    1.8186    4.9139 H   0  0  0  0  0  0  0  0  0  0  0  0
   13.2310    2.0559    7.7313 H   0  0  0  0  0  0  0  0  0  0  0  0
   13.1932   -0.2813    5.9126 H   0  0  0  0  0  0  0  0  0  0  0  0
   11.8424    0.2539    6.9332 H   0  0  0  0  0  0  0  0  0  0  0  0
   13.2528   -0.0944    8.9692 H   0  0  0  0  0  0  0  0  0  0  0  0
   14.5956   -0.6179    7.9544 H   0  0  0  0  0  0  0  0  0  0  0  0
   13.1962   -2.4767    7.0675 H   0  0  0  0  0  0  0  0  0  0  0  0
   11.8468   -1.9666    8.0955 H   0  0  0  0  0  0  0  0  0  0  0  0
   13.2485   -2.3507   10.1312 H   0  0  0  0  0  0  0  0  0  0  0  0
   14.5936   -2.8673    9.1319 H   0  0  0  0  0  0  0  0  0  0  0  0
  109.7782  -44.3752   58.5077 H   0  0  0  0  0  0  0  0  0  0  0  0
  1  2  1  0  0  0  0
  1 82  1  0  0  0  0
  1 83  1  0  0  0  0
  1 84  1  0  0  0  0
  2  3  1  0  0  0  0
  2 85  1  0  0  0  0
  2 86  1  0  0  0  0
  3  4  1  0  0  0  0
  3 87  1  0  0  0  0
  3 88  1  0  0  0  0
  4  5  1  0  0  0  0
  4 89  1  0  0  0  0
  4 90  1  0  0  0  0
  5  6  1  0  0  0  0
  5 91  1  0  0  0  0
  6  7  1  0  0  0  0
  6 92  1  0  0  0  0
  7  8  1  0  0  0  0
  7 93  1  0  0  0  0
  8  9  1  0  0  0  0
  8 94  1  0  0  0  0
  8 95  1  0  0  0  0
  9 10  1  0  0  0  0
  9 96  1  0  0  0  0
  9 97  1  0  0  0  0
 10 11  1  0  0  0  0
 10 98  1  0  0  0  0
 10 99  1  0  0  0  0
 11 12  1  0  0  0  0
 11100  1  0  0  0  0
 11101  1  0  0  0  0
 12 13  1  0  0  0  0
 13 14  1  0  0  0  0
 14 15  1  0  0  0  0
 15 16  1  0  0  0  0
 16 17  1  0  0  0  0
 17 18  1  0  0  0  0
 18 19  1  0  0  0  0
 19 20  1  0  0  0  0
 20 21  1  0  0  0  0
 21 22  1  0  0  0  0
 22 23  1  0  0  0  0
 23 24  1  0  0  0  0
 24 25  1  0  0  0  0
 25 26  1  0  0  0  0
 26 27  1  0  0  0  0
 27 28  1  0  0  0  0
 28 29  1  0  0  0  0
 29 30  1  0  0  0  0
 30 31  1  0  0  0  0
 31 32  1  0  0  0  0
 32 33  1  0  0  0  0
 33 34  1  0  0  0  0
 34 35  1  0  0  0  0
 35 36  1  0  0  0  0
 36 37  1  0  0  0  0
 37 38  1  0  0  0  0
 38 39  1  0  0  0  0
 39 40  1  0  0  0  0
 40 41  1  0  0  0  0
 41 42  1  0  0  0  0
 42 43  1  0  0  0  0
 43 44  1  0  0  0  0
 44 45  1  0  0  0  0
 45 46  1  0  0  0  0
 46 47  1  0  0  0  0
 47 48  1  0  0  0  0
 48 49  1  0  0  0  0
 49 50  1  0  0  0  0
 50 51  1  0  0  0  0
 51 52  1  0  0  0  0
 52 53  1  0  0  0  0
 53 54  1  0  0  0  0
 54 55  1  0  0  0  0
 55 56  1  0  0  0  0
 56 57  1  0  0  0  0
 57 58  1  0  0  0  0
 58 59  1  0  0  0  0
 59 60  1  0  0  0  0
 60 61  1  0  0  0  0
 61 62  1  0  0  0  0
 62 63  1  0  0  0  0
 63 64  1  0  0  0  0
 64 65  1  0  0  0  0
 65 66  1  0  0  0  0
 66 67  1  0  0  0  0
 67 68  1  0  0  0  0
 68 69  1  0  0  0  0
 69 70  1  0  0  0  0
 70 71  1  0  0  0  0
 71 72  1  0  0  0  0
 72 73  1  0  0  0  0
 73 74  1  0  0  0  0
 74 75  1  0  0  0  0
 75 76  1  0  0  0  0
 76 77  1  0  0  0  0
 77 78  1  0  0  0  0
 78 79  1  0  0  0  0
 79 80  1  0  0  0  0
 80 81  1  0  0  0  0
 81102  1  0  0  0  0
M  END
$$$$
