
 OpenBabel04232216443D

 42 44  0  0  0  0  0  0  0  0999 V2000
    3.8729    0.3025    2.7639 C   0  0  0  0  0  0  0  0  0  0  0  0
    4.5134    0.5295    1.4222 C   0  0  0  0  0  0  0  0  0  0  0  0
    3.4858    0.6002    0.3695 C   0  0  0  0  0  0  0  0  0  0  0  0
    2.5802    1.4228    0.4939 O   0  0  0  0  0  0  0  0  0  0  0  0
    3.5586   -0.3286   -0.7740 C   0  0  0  0  0  0  0  0  0  0  0  0
    4.6992   -0.4086   -1.5038 C   0  0  0  0  0  0  0  0  0  0  0  0
    4.7525   -0.2802   -3.0234 C   0  0  0  0  0  0  0  0  0  0  0  0
    3.6542    0.1814   -3.9592 C   0  0  0  0  0  0  0  0  0  0  0  0
    2.4403    0.7424   -3.9300 C   0  0  0  0  0  0  0  0  0  0  0  0
    1.6482    1.0468   -2.7788 C   0  0  0  0  0  0  0  0  0  0  0  0
    0.4882    0.3862   -2.6428 C   0  0  0  0  0  0  0  0  0  0  0  0
    0.0580   -0.0313   -1.3280 C   0  0  0  0  0  0  0  0  0  0  0  0
    0.7874   -0.8156   -0.5151 C   0  0  0  0  0  0  0  0  0  0  0  0
    2.3134   -1.5657   -0.9296 S   0  0  0  0  0  0  0  0  0  0  0  0
    6.0958   -0.2755   -0.9996 C   0  0  0  0  0  0  0  0  0  0  0  0
    7.0384   -1.0860   -1.6615 N   0  0  0  0  0  0  0  0  0  0  0  0
    7.7905   -1.7460   -0.8240 C   0  0  0  0  0  0  0  0  0  0  0  0
    9.1635   -1.7570   -0.9738 N   0  0  0  0  0  0  0  0  0  0  0  0
    9.7143   -0.5753   -1.0268 C   0  0  0  0  0  0  0  0  0  0  0  0
    8.9643    0.7495   -1.1801 C   0  0  0  0  0  0  0  0  0  0  0  0
    8.9406    1.0047   -2.6778 C   0  0  0  0  0  0  0  0  0  0  0  0
    8.0978    0.8780   -0.1385 C   0  0  0  0  0  0  0  0  0  0  0  0
    6.5741    0.6415   -0.1156 C   0  0  0  0  0  0  0  0  0  0  0  0
    5.8323    0.6688    1.1819 C   0  0  0  0  0  0  0  0  0  0  0  0
    2.8297   -0.0311    2.6412 H   0  0  0  0  0  0  0  0  0  0  0  0
    3.8492    1.2119    3.3664 H   0  0  0  0  0  0  0  0  0  0  0  0
    4.3705   -0.5041    3.3126 H   0  0  0  0  0  0  0  0  0  0  0  0
    5.1578   -1.2117   -3.4323 H   0  0  0  0  0  0  0  0  0  0  0  0
    5.5118    0.5007   -3.2073 H   0  0  0  0  0  0  0  0  0  0  0  0
    4.0001    0.0036   -4.9799 H   0  0  0  0  0  0  0  0  0  0  0  0
    1.9330    0.8952   -4.8809 H   0  0  0  0  0  0  0  0  0  0  0  0
    2.1378    1.4861   -1.9279 H   0  0  0  0  0  0  0  0  0  0  0  0
   -0.0179   -0.0800   -3.4770 H   0  0  0  0  0  0  0  0  0  0  0  0
   -0.9854    0.2000   -1.0703 H   0  0  0  0  0  0  0  0  0  0  0  0
    0.3000   -1.1778    0.3873 H   0  0  0  0  0  0  0  0  0  0  0  0
    7.4432   -2.0703    0.1753 H   0  0  0  0  0  0  0  0  0  0  0  0
   10.8116   -0.4932   -1.1272 H   0  0  0  0  0  0  0  0  0  0  0  0
    7.9476    1.0040   -3.1221 H   0  0  0  0  0  0  0  0  0  0  0  0
    9.5286    0.2448   -3.2248 H   0  0  0  0  0  0  0  0  0  0  0  0
    9.4419    1.9518   -2.9019 H   0  0  0  0  0  0  0  0  0  0  0  0
    8.5030    0.6726    0.8472 H   0  0  0  0  0  0  0  0  0  0  0  0
    6.4888    0.6640    2.0529 H   0  0  0  0  0  0  0  0  0  0  0  0
  1  2  1  0  0  0  0
  1 25  1  0  0  0  0
  1 26  1  0  0  0  0
  1 27  1  0  0  0  0
  2  3  1  0  0  0  0
  2 24  2  0  0  0  0
  3  4  2  0  0  0  0
  3  5  1  0  0  0  0
  5  6  2  0  0  0  0
  5 14  1  0  0  0  0
  6  7  1  0  0  0  0
  6 15  1  0  0  0  0
  7  8  1  0  0  0  0
  7 28  1  0  0  0  0
  7 29  1  0  0  0  0
  8  9  2  3  0  0  0
  8 30  1  0  0  0  0
  9 10  1  0  0  0  0
  9 31  1  0  0  0  0
 10 11  2  3  0  0  0
 10 32  1  0  0  0  0
 11 12  1  0  0  0  0
 11 33  1  0  0  0  0
 12 13  2  3  0  0  0
 12 34  1  0  0  0  0
 13 14  1  0  0  0  0
 13 35  1  0  0  0  0
 15 16  1  0  0  0  0
 15 23  2  0  0  0  0
 16 17  2  0  0  0  0
 17 18  1  0  0  0  0
 17 36  1  0  0  0  0
 18 19  2  0  0  0  0
 19 20  1  0  0  0  0
 19 37  1  0  0  0  0
 20 21  1  0  0  0  0
 20 22  2  0  0  0  0
 21 38  1  0  0  0  0
 21 39  1  0  0  0  0
 21 40  1  0  0  0  0
 22 23  1  0  0  0  0
 22 41  1  0  0  0  0
 23 24  1  0  0  0  0
 24 42  1  0  0  0  0
M  END
$$$$
