
 OpenBabel04232216463D

 62 63  0  0  0  0  0  0  0  0999 V2000
    1.0587   -1.9840   -0.4074 C   0  0  0  0  0  0  0  0  0  0  0  0
    2.5641   -1.9068   -0.5938 C   0  0  0  0  0  0  0  0  0  0  0  0
    3.0748   -0.5430   -0.5263 C   0  0  0  0  0  0  0  0  0  0  0  0
    4.4330   -0.2078   -0.5391 C   0  0  0  0  0  0  0  0  0  0  0  0
    4.8977    1.2321   -0.3486 C   0  0  0  0  0  0  0  0  0  0  0  0
    6.3947    1.6307   -0.1904 C   0  0  0  0  0  0  0  0  0  0  0  0
    7.3158    1.5376   -1.4209 C   0  0  0  0  0  0  0  0  0  0  0  0
    6.9594    2.4759   -2.5720 C   0  0  0  0  0  0  0  0  0  0  0  0
    7.8882    2.3377   -3.7966 C   0  0  0  0  0  0  0  0  0  0  0  0
    7.8891    0.9272   -4.3956 C   0  0  0  0  0  0  0  0  0  0  0  0
    8.6907    0.8506   -5.6858 C   0  0  0  0  0  0  0  0  0  0  0  0
    5.2808   -1.3035   -0.6300 C   0  0  0  0  0  0  0  0  0  0  0  0
    4.7844   -2.6814   -0.6429 C   0  0  0  0  0  0  0  0  0  0  0  0
    5.7935   -3.5756   -0.3545 N   0  0  0  0  0  0  0  0  0  0  0  0
    5.8612   -3.9763    0.8861 C   0  0  0  0  0  0  0  0  0  0  0  0
    4.7876   -3.7572    1.9561 C   0  0  0  0  0  0  0  0  0  0  0  0
    7.0380   -4.8260    1.1927 C   0  0  0  0  0  0  0  0  0  0  0  0
    8.3083   -4.4760    0.4917 C   0  0  0  0  0  0  0  0  0  0  0  0
    6.5573   -6.0340    1.5481 C   0  0  0  0  0  0  0  0  0  0  0  0
    6.9048   -7.2301    0.8040 C   0  0  0  0  0  0  0  0  0  0  0  0
    5.8012   -7.9600    0.5777 C   0  0  0  0  0  0  0  0  0  0  0  0
    5.0845   -7.6434   -0.6953 C   0  0  0  0  0  0  0  0  0  0  0  0
    3.7675   -7.2948   -0.6492 C   0  0  0  0  0  0  0  0  0  0  0  0
    2.8924   -8.5902   -0.6293 C   0  0  0  0  0  0  0  0  0  0  0  0
    3.0092   -5.9570   -0.6756 C   0  0  0  0  0  0  0  0  0  0  0  0
    2.8975   -4.5800   -0.7000 C   0  0  0  0  0  0  0  0  0  0  0  0
    3.4317   -3.0673   -0.6851 C   0  0  0  0  0  0  0  0  0  0  0  0
    0.6136   -0.9767   -0.3828 H   0  0  0  0  0  0  0  0  0  0  0  0
    0.8180   -2.4419    0.5571 H   0  0  0  0  0  0  0  0  0  0  0  0
    0.5743   -2.5124   -1.2285 H   0  0  0  0  0  0  0  0  0  0  0  0
    2.3646    0.2812   -0.4080 H   0  0  0  0  0  0  0  0  0  0  0  0
    4.4359    1.5661    0.5949 H   0  0  0  0  0  0  0  0  0  0  0  0
    4.4541    1.8618   -1.1304 H   0  0  0  0  0  0  0  0  0  0  0  0
    6.8415    1.0459    0.6241 H   0  0  0  0  0  0  0  0  0  0  0  0
    6.4288    2.6780    0.1520 H   0  0  0  0  0  0  0  0  0  0  0  0
    7.3420    0.4988   -1.7564 H   0  0  0  0  0  0  0  0  0  0  0  0
    8.3388    1.7788   -1.0915 H   0  0  0  0  0  0  0  0  0  0  0  0
    7.0200    3.5153   -2.2218 H   0  0  0  0  0  0  0  0  0  0  0  0
    5.9277    2.3057   -2.8893 H   0  0  0  0  0  0  0  0  0  0  0  0
    8.9093    2.6231   -3.5244 H   0  0  0  0  0  0  0  0  0  0  0  0
    7.5526    3.0506   -4.5591 H   0  0  0  0  0  0  0  0  0  0  0  0
    6.8598    0.6066   -4.5931 H   0  0  0  0  0  0  0  0  0  0  0  0
    8.3239    0.2160   -3.6855 H   0  0  0  0  0  0  0  0  0  0  0  0
    8.2725    1.5098   -6.4522 H   0  0  0  0  0  0  0  0  0  0  0  0
    8.6754   -0.1732   -6.0754 H   0  0  0  0  0  0  0  0  0  0  0  0
    9.7354    1.1315   -5.5188 H   0  0  0  0  0  0  0  0  0  0  0  0
    6.3394   -1.1719   -0.5581 H   0  0  0  0  0  0  0  0  0  0  0  0
    4.4652   -2.7162    2.0180 H   0  0  0  0  0  0  0  0  0  0  0  0
    5.1413   -4.0681    2.9403 H   0  0  0  0  0  0  0  0  0  0  0  0
    3.9149   -4.3793    1.7252 H   0  0  0  0  0  0  0  0  0  0  0  0
    8.3979   -3.3845    0.3821 H   0  0  0  0  0  0  0  0  0  0  0  0
    8.3692   -4.9103   -0.5106 H   0  0  0  0  0  0  0  0  0  0  0  0
    9.1602   -4.8042    1.0883 H   0  0  0  0  0  0  0  0  0  0  0  0
    5.5369   -6.0807    1.9279 H   0  0  0  0  0  0  0  0  0  0  0  0
    7.6053   -7.0723   -0.0130 H   0  0  0  0  0  0  0  0  0  0  0  0
    5.1199   -8.1464    1.4164 H   0  0  0  0  0  0  0  0  0  0  0  0
    5.2770   -8.6284   -1.1724 H   0  0  0  0  0  0  0  0  0  0  0  0
    1.8258   -8.4173   -0.4844 H   0  0  0  0  0  0  0  0  0  0  0  0
    3.2034   -9.2540    0.1973 H   0  0  0  0  0  0  0  0  0  0  0  0
    3.0212   -9.1756   -1.5520 H   0  0  0  0  0  0  0  0  0  0  0  0
    1.9766   -6.3435   -0.7273 H   0  0  0  0  0  0  0  0  0  0  0  0
    1.8153   -4.3858   -0.7470 H   0  0  0  0  0  0  0  0  0  0  0  0
  1  2  1  0  0  0  0
  1 28  1  0  0  0  0
  1 29  1  0  0  0  0
  1 30  1  0  0  0  0
  2  3  1  0  0  0  0
  2 27  2  0  0  0  0
  3  4  2  0  0  0  0
  3 31  1  0  0  0  0
  4  5  1  0  0  0  0
  4 12  1  0  0  0  0
  5  6  1  0  0  0  0
  5 32  1  0  0  0  0
  5 33  1  0  0  0  0
  6  7  1  0  0  0  0
  6 34  1  0  0  0  0
  6 35  1  0  0  0  0
  7  8  1  0  0  0  0
  7 36  1  0  0  0  0
  7 37  1  0  0  0  0
  8  9  1  0  0  0  0
  8 38  1  0  0  0  0
  8 39  1  0  0  0  0
  9 10  1  0  0  0  0
  9 40  1  0  0  0  0
  9 41  1  0  0  0  0
 10 11  1  0  0  0  0
 10 42  1  0  0  0  0
 10 43  1  0  0  0  0
 11 44  1  0  0  0  0
 11 45  1  0  0  0  0
 11 46  1  0  0  0  0
 12 13  2  0  0  0  0
 12 47  1  0  0  0  0
 13 14  1  0  0  0  0
 13 27  1  0  0  0  0
 14 15  2  3  0  0  0
 15 16  1  0  0  0  0
 15 17  1  0  0  0  0
 16 48  1  0  0  0  0
 16 49  1  0  0  0  0
 16 50  1  0  0  0  0
 17 18  1  0  0  0  0
 17 19  2  3  0  0  0
 18 51  1  0  0  0  0
 18 52  1  0  0  0  0
 18 53  1  0  0  0  0
 19 20  1  0  0  0  0
 19 54  1  0  0  0  0
 20 21  2  3  0  0  0
 20 55  1  0  0  0  0
 21 22  1  0  0  0  0
 21 56  1  0  0  0  0
 22 23  2  3  0  0  0
 22 57  1  0  0  0  0
 23 24  1  0  0  0  0
 23 25  1  0  0  0  0
 24 58  1  0  0  0  0
 24 59  1  0  0  0  0
 24 60  1  0  0  0  0
 25 26  2  3  0  0  0
 25 61  1  0  0  0  0
 26 27  1  0  0  0  0
 26 62  1  0  0  0  0
M  END
$$$$
