
 OpenBabel04232217013D

242241  0  0  0  0  0  0  0  0999 V2000
    0.8878   -0.1895    0.0764 O   0  0  0  0  0  0  0  0  0  0  0  0
    2.3068   -0.2011    0.0489 C   0  0  0  0  0  0  0  0  0  0  0  0
    2.8256    0.2623    1.3988 C   0  0  0  0  0  0  0  0  0  0  0  0
    4.3472    0.2708    1.4238 C   0  0  0  0  0  0  0  0  0  0  0  0
    4.8634    0.7361    2.7790 C   0  0  0  0  0  0  0  0  0  0  0  0
    6.3851    0.7411    2.7932 C   0  0  0  0  0  0  0  0  0  0  0  0
    6.9084    1.2062    4.1458 C   0  0  0  0  0  0  0  0  0  0  0  0
    8.4291    1.2020    4.1374 C   0  0  0  0  0  0  0  0  0  0  0  0
    8.9173    1.6516    5.4336 N   0  0  0  0  0  0  0  0  0  0  0  0
   10.3735    1.6497    5.4366 C   0  0  0  0  0  0  0  0  0  0  0  0
   10.8696    2.1154    6.7952 C   0  0  0  0  0  0  0  0  0  0  0  0
   12.3901    2.1186    6.8076 C   0  0  0  0  0  0  0  0  0  0  0  0
   12.9049    2.5843    8.1574 C   0  0  0  0  0  0  0  0  0  0  0  0
   14.4234    2.5858    8.1618 C   0  0  0  0  0  0  0  0  0  0  0  0
   14.9375    3.0514    9.5117 C   0  0  0  0  0  0  0  0  0  0  0  0
   16.4551    3.0545    9.5157 C   0  0  0  0  0  0  0  0  0  0  0  0
   16.9672    3.5221   10.8653 C   0  0  0  0  0  0  0  0  0  0  0  0
   18.4844    3.5242   10.8705 C   0  0  0  0  0  0  0  0  0  0  0  0
   18.9950    3.9900   12.2210 C   0  0  0  0  0  0  0  0  0  0  0  0
   20.5118    3.9933   12.2254 C   0  0  0  0  0  0  0  0  0  0  0  0
   21.0222    4.4573   13.5765 C   0  0  0  0  0  0  0  0  0  0  0  0
   22.5389    4.4590   13.5813 C   0  0  0  0  0  0  0  0  0  0  0  0
   23.0487    4.9214   14.9328 C   0  0  0  0  0  0  0  0  0  0  0  0
   24.5649    4.9245   14.9370 C   0  0  0  0  0  0  0  0  0  0  0  0
   25.0752    5.3863   16.2895 C   0  0  0  0  0  0  0  0  0  0  0  0
   26.5917    5.3876   16.2936 C   0  0  0  0  0  0  0  0  0  0  0  0
   27.1032    5.8467   17.6460 C   0  0  0  0  0  0  0  0  0  0  0  0
   28.6197    5.8503   17.6501 C   0  0  0  0  0  0  0  0  0  0  0  0
   29.1294    6.3131   19.0013 C   0  0  0  0  0  0  0  0  0  0  0  0
   30.6461    6.3147   19.0055 C   0  0  0  0  0  0  0  0  0  0  0  0
   31.1562    6.7760   20.3572 C   0  0  0  0  0  0  0  0  0  0  0  0
   32.6731    6.7778   20.3617 C   0  0  0  0  0  0  0  0  0  0  0  0
   33.1825    7.2393   21.7130 C   0  0  0  0  0  0  0  0  0  0  0  0
   34.6996    7.2439   21.7176 C   0  0  0  0  0  0  0  0  0  0  0  0
   35.2096    7.7036   23.0665 C   0  0  0  0  0  0  0  0  0  0  0  0
   36.7275    7.7082   23.0749 C   0  0  0  0  0  0  0  0  0  0  0  0
   37.2363    8.1659   24.4246 C   0  0  0  0  0  0  0  0  0  0  0  0
   38.7527    8.1659   24.4302 C   0  0  0  0  0  0  0  0  0  0  0  0
   39.2627    8.6239   25.7831 C   0  0  0  0  0  0  0  0  0  0  0  0
   40.7794    8.6253   25.7876 C   0  0  0  0  0  0  0  0  0  0  0  0
   41.2894    9.0815   27.1411 C   0  0  0  0  0  0  0  0  0  0  0  0
   42.8060    9.0830   27.1457 C   0  0  0  0  0  0  0  0  0  0  0  0
   43.3161    9.5390   28.4992 C   0  0  0  0  0  0  0  0  0  0  0  0
   44.8327    9.5406   28.5037 C   0  0  0  0  0  0  0  0  0  0  0  0
   45.3427    9.9967   29.8572 C   0  0  0  0  0  0  0  0  0  0  0  0
   46.8594    9.9982   29.8617 C   0  0  0  0  0  0  0  0  0  0  0  0
   47.3694   10.4543   31.2152 C   0  0  0  0  0  0  0  0  0  0  0  0
   48.8860   10.4558   31.2198 C   0  0  0  0  0  0  0  0  0  0  0  0
   49.3960   10.9119   32.5733 C   0  0  0  0  0  0  0  0  0  0  0  0
   50.9127   10.9115   32.5785 C   0  0  0  0  0  0  0  0  0  0  0  0
   51.4227   11.3676   33.9320 C   0  0  0  0  0  0  0  0  0  0  0  0
   52.9393   11.3655   33.9378 C   0  0  0  0  0  0  0  0  0  0  0  0
   53.4494   11.8234   35.2907 C   0  0  0  0  0  0  0  0  0  0  0  0
   54.9660   11.8229   35.2959 C   0  0  0  0  0  0  0  0  0  0  0  0
   55.4760   12.2791   36.6494 C   0  0  0  0  0  0  0  0  0  0  0  0
   56.9926   12.2767   36.6552 C   0  0  0  0  0  0  0  0  0  0  0  0
   57.5027   12.7309   38.0094 C   0  0  0  0  0  0  0  0  0  0  0  0
   59.0193   12.7268   38.0158 C   0  0  0  0  0  0  0  0  0  0  0  0
   59.5293   13.1809   39.3700 C   0  0  0  0  0  0  0  0  0  0  0  0
   61.0459   13.1785   39.3758 C   0  0  0  0  0  0  0  0  0  0  0  0
   61.5560   13.6327   40.7299 C   0  0  0  0  0  0  0  0  0  0  0  0
   63.0726   13.6304   40.7357 C   0  0  0  0  0  0  0  0  0  0  0  0
   63.5826   14.0846   42.0899 C   0  0  0  0  0  0  0  0  0  0  0  0
   65.0992   14.0823   42.0957 C   0  0  0  0  0  0  0  0  0  0  0  0
   65.6093   14.5365   43.4499 C   0  0  0  0  0  0  0  0  0  0  0  0
   67.1259   14.5342   43.4557 C   0  0  0  0  0  0  0  0  0  0  0  0
   67.6360   14.9884   44.8099 C   0  0  0  0  0  0  0  0  0  0  0  0
   69.1526   14.9860   44.8157 C   0  0  0  0  0  0  0  0  0  0  0  0
   69.6627   15.4402   46.1699 C   0  0  0  0  0  0  0  0  0  0  0  0
   71.1795   15.4361   46.1765 C   0  0  0  0  0  0  0  0  0  0  0  0
   71.6898   15.8903   47.5308 C   0  0  0  0  0  0  0  0  0  0  0  0
   73.2068   15.8862   47.5376 C   0  0  0  0  0  0  0  0  0  0  0  0
   73.7177   16.3405   48.8921 C   0  0  0  0  0  0  0  0  0  0  0  0
   75.2351   16.3366   48.8996 C   0  0  0  0  0  0  0  0  0  0  0  0
   75.7474   16.7908   50.2541 C   0  0  0  0  0  0  0  0  0  0  0  0
   77.2659   16.7854   50.2630 C   0  0  0  0  0  0  0  0  0  0  0  0
   77.7820   17.2398   51.6179 C   0  0  0  0  0  0  0  0  0  0  0  0
   79.3025   17.2352   51.6293 C   0  0  0  0  0  0  0  0  0  0  0  0
   79.8208   17.6920   52.9853 C   0  0  0  0  0  0  0  0  0  0  0  0
   81.3437   17.6933   53.0084 C   0  0  0  0  0  0  0  0  0  0  0  0
   81.8575   18.1491   54.3611 C   0  0  0  0  0  0  0  0  0  0  0  0
    0.5855   -0.4855   -0.7988 H   0  0  0  0  0  0  0  0  0  0  0  0
    2.6491    0.4665   -0.7486 H   0  0  0  0  0  0  0  0  0  0  0  0
    2.6462   -1.2190   -0.1689 H   0  0  0  0  0  0  0  0  0  0  0  0
    2.4353   -0.3926    2.1880 H   0  0  0  0  0  0  0  0  0  0  0  0
    2.4355    1.2639    1.6194 H   0  0  0  0  0  0  0  0  0  0  0  0
    4.7280    0.9337    0.6367 H   0  0  0  0  0  0  0  0  0  0  0  0
    4.7280   -0.7358    1.2100 H   0  0  0  0  0  0  0  0  0  0  0  0
    4.4885    0.0736    3.5683 H   0  0  0  0  0  0  0  0  0  0  0  0
    4.4884    1.7440    2.9948 H   0  0  0  0  0  0  0  0  0  0  0  0
    6.7623    1.4023    2.0034 H   0  0  0  0  0  0  0  0  0  0  0  0
    6.7619   -0.2665    2.5779 H   0  0  0  0  0  0  0  0  0  0  0  0
    6.5319    0.5446    4.9364 H   0  0  0  0  0  0  0  0  0  0  0  0
    6.5356    2.2157    4.3613 H   0  0  0  0  0  0  0  0  0  0  0  0
    8.7914    1.8707    3.3473 H   0  0  0  0  0  0  0  0  0  0  0  0
    8.7946    0.1906    3.9214 H   0  0  0  0  0  0  0  0  0  0  0  0
    8.5688    1.0362    6.1685 H   0  0  0  0  0  0  0  0  0  0  0  0
   10.7528    2.3244    4.6597 H   0  0  0  0  0  0  0  0  0  0  0  0
   10.7562    0.6428    5.2297 H   0  0  0  0  0  0  0  0  0  0  0  0
   10.4943    1.4532    7.5857 H   0  0  0  0  0  0  0  0  0  0  0  0
   10.4943    3.1241    7.0101 H   0  0  0  0  0  0  0  0  0  0  0  0
   12.7685    2.7791    6.0174 H   0  0  0  0  0  0  0  0  0  0  0  0
   12.7668    1.1105    6.5939 H   0  0  0  0  0  0  0  0  0  0  0  0
   12.5305    1.9229    8.9484 H   0  0  0  0  0  0  0  0  0  0  0  0
   12.5306    3.5927    8.3723 H   0  0  0  0  0  0  0  0  0  0  0  0
   14.7992    3.2472    7.3712 H   0  0  0  0  0  0  0  0  0  0  0  0
   14.7994    1.5778    7.9468 H   0  0  0  0  0  0  0  0  0  0  0  0
   14.5636    2.3895   10.3025 H   0  0  0  0  0  0  0  0  0  0  0  0
   14.5617    4.0592    9.7273 H   0  0  0  0  0  0  0  0  0  0  0  0
   16.8300    3.7157    8.7246 H   0  0  0  0  0  0  0  0  0  0  0  0
   16.8317    2.0467    9.3019 H   0  0  0  0  0  0  0  0  0  0  0  0
   16.5920    2.8616   11.6569 H   0  0  0  0  0  0  0  0  0  0  0  0
   16.5917    4.5304   11.0789 H   0  0  0  0  0  0  0  0  0  0  0  0
   18.8603    4.1858   10.0802 H   0  0  0  0  0  0  0  0  0  0  0  0
   18.8607    2.5163   10.6562 H   0  0  0  0  0  0  0  0  0  0  0  0
   18.6204    3.3277   13.0112 H   0  0  0  0  0  0  0  0  0  0  0  0
   18.6183    4.9975   12.4364 H   0  0  0  0  0  0  0  0  0  0  0  0
   20.8868    4.6569   11.4364 H   0  0  0  0  0  0  0  0  0  0  0  0
   20.8889    2.9863   12.0091 H   0  0  0  0  0  0  0  0  0  0  0  0
   20.6465    3.7944   14.3660 H   0  0  0  0  0  0  0  0  0  0  0  0
   20.6464    5.4648   13.7926 H   0  0  0  0  0  0  0  0  0  0  0  0
   22.9147    5.1226   12.7925 H   0  0  0  0  0  0  0  0  0  0  0  0
   22.9150    3.4516   13.3642 H   0  0  0  0  0  0  0  0  0  0  0  0
   22.6740    4.2565   15.7210 H   0  0  0  0  0  0  0  0  0  0  0  0
   22.6715    5.9283   15.1507 H   0  0  0  0  0  0  0  0  0  0  0  0
   24.9406    5.5893   14.1486 H   0  0  0  0  0  0  0  0  0  0  0  0
   24.9411    3.9175   14.7192 H   0  0  0  0  0  0  0  0  0  0  0  0
   24.7002    4.7230   17.0772 H   0  0  0  0  0  0  0  0  0  0  0  0
   24.7000    6.3939   16.5063 H   0  0  0  0  0  0  0  0  0  0  0  0
   26.9691    6.0526   15.5058 H   0  0  0  0  0  0  0  0  0  0  0  0
   26.9668    4.3797   16.0740 H   0  0  0  0  0  0  0  0  0  0  0  0
   26.7281    5.1814   18.4336 H   0  0  0  0  0  0  0  0  0  0  0  0
   26.7265    6.8534   17.8653 H   0  0  0  0  0  0  0  0  0  0  0  0
   28.9946    6.5151   16.8619 H   0  0  0  0  0  0  0  0  0  0  0  0
   28.9967    4.8437   17.4322 H   0  0  0  0  0  0  0  0  0  0  0  0
   28.7540    5.6499   19.7903 H   0  0  0  0  0  0  0  0  0  0  0  0
   28.7536    7.3206   19.2182 H   0  0  0  0  0  0  0  0  0  0  0  0
   31.0216    6.9793   18.2172 H   0  0  0  0  0  0  0  0  0  0  0  0
   31.0218    5.3076   18.7873 H   0  0  0  0  0  0  0  0  0  0  0  0
   30.7805    6.1123   21.1453 H   0  0  0  0  0  0  0  0  0  0  0  0
   30.7803    7.7834   20.5744 H   0  0  0  0  0  0  0  0  0  0  0  0
   33.0483    7.4416   19.5727 H   0  0  0  0  0  0  0  0  0  0  0  0
   33.0486    5.7704   20.1439 H   0  0  0  0  0  0  0  0  0  0  0  0
   32.8083    6.5754   22.5009 H   0  0  0  0  0  0  0  0  0  0  0  0
   32.8057    8.2477   21.9310 H   0  0  0  0  0  0  0  0  0  0  0  0
   35.0746    7.9071   20.9285 H   0  0  0  0  0  0  0  0  0  0  0  0
   35.0761    6.2354   21.4992 H   0  0  0  0  0  0  0  0  0  0  0  0
   34.8343    7.0408   23.8569 H   0  0  0  0  0  0  0  0  0  0  0  0
   34.8339    8.7125   23.2860 H   0  0  0  0  0  0  0  0  0  0  0  0
   37.1022    8.3710   22.2849 H   0  0  0  0  0  0  0  0  0  0  0  0
   37.1022    6.6982   22.8537 H   0  0  0  0  0  0  0  0  0  0  0  0
   36.8592    7.5020   25.2126 H   0  0  0  0  0  0  0  0  0  0  0  0
   36.8613    9.1738   24.6432 H   0  0  0  0  0  0  0  0  0  0  0  0
   39.1296    8.8310   23.6434 H   0  0  0  0  0  0  0  0  0  0  0  0
   39.1274    7.1586   24.2107 H   0  0  0  0  0  0  0  0  0  0  0  0
   38.8868    7.9579   26.5695 H   0  0  0  0  0  0  0  0  0  0  0  0
   38.8871    9.6307   26.0034 H   0  0  0  0  0  0  0  0  0  0  0  0
   41.1552    9.2923   25.0020 H   0  0  0  0  0  0  0  0  0  0  0  0
   41.1551    7.6187   25.5661 H   0  0  0  0  0  0  0  0  0  0  0  0
   40.9136    8.4144   27.9268 H   0  0  0  0  0  0  0  0  0  0  0  0
   40.9136   10.0880   27.3628 H   0  0  0  0  0  0  0  0  0  0  0  0
   43.1818    9.7501   26.3600 H   0  0  0  0  0  0  0  0  0  0  0  0
   43.1818    8.0764   26.9240 H   0  0  0  0  0  0  0  0  0  0  0  0
   42.9403    8.8719   29.2848 H   0  0  0  0  0  0  0  0  0  0  0  0
   42.9403   10.5456   28.7208 H   0  0  0  0  0  0  0  0  0  0  0  0
   45.2085   10.2077   27.7181 H   0  0  0  0  0  0  0  0  0  0  0  0
   45.2085    8.5340   28.2820 H   0  0  0  0  0  0  0  0  0  0  0  0
   44.9669    9.3296   30.6428 H   0  0  0  0  0  0  0  0  0  0  0  0
   44.9669   11.0032   30.0789 H   0  0  0  0  0  0  0  0  0  0  0  0
   47.2351   10.6653   29.0761 H   0  0  0  0  0  0  0  0  0  0  0  0
   47.2352    8.9917   29.6401 H   0  0  0  0  0  0  0  0  0  0  0  0
   46.9936    9.7872   32.0008 H   0  0  0  0  0  0  0  0  0  0  0  0
   46.9936   11.4609   31.4369 H   0  0  0  0  0  0  0  0  0  0  0  0
   49.2619   11.1228   30.4342 H   0  0  0  0  0  0  0  0  0  0  0  0
   49.2617    9.4492   30.9982 H   0  0  0  0  0  0  0  0  0  0  0  0
   49.0191   10.2456   33.3591 H   0  0  0  0  0  0  0  0  0  0  0  0
   49.0214   11.9190   32.7943 H   0  0  0  0  0  0  0  0  0  0  0  0
   51.2897   11.5777   31.7927 H   0  0  0  0  0  0  0  0  0  0  0  0
   51.2872    9.9043   32.3575 H   0  0  0  0  0  0  0  0  0  0  0  0
   51.0447   10.7022   34.7180 H   0  0  0  0  0  0  0  0  0  0  0  0
   51.0491   12.3752   34.1523 H   0  0  0  0  0  0  0  0  0  0  0  0
   53.3174   12.0298   33.1509 H   0  0  0  0  0  0  0  0  0  0  0  0
   53.3128   10.3575   33.7187 H   0  0  0  0  0  0  0  0  0  0  0  0
   53.0722   11.1582   36.0773 H   0  0  0  0  0  0  0  0  0  0  0  0
   53.0749   12.8308   35.5104 H   0  0  0  0  0  0  0  0  0  0  0  0
   55.3430   12.4890   34.5101 H   0  0  0  0  0  0  0  0  0  0  0  0
   55.3405   10.8157   35.0749 H   0  0  0  0  0  0  0  0  0  0  0  0
   55.0979   11.6136   37.4353 H   0  0  0  0  0  0  0  0  0  0  0  0
   55.1025   13.2867   36.8698 H   0  0  0  0  0  0  0  0  0  0  0  0
   57.3708   12.9432   35.8702 H   0  0  0  0  0  0  0  0  0  0  0  0
   57.3661   11.2693   36.4335 H   0  0  0  0  0  0  0  0  0  0  0  0
   57.1235   12.0652   38.7945 H   0  0  0  0  0  0  0  0  0  0  0  0
   57.1303   13.7388   38.2305 H   0  0  0  0  0  0  0  0  0  0  0  0
   59.3985   13.3925   37.2306 H   0  0  0  0  0  0  0  0  0  0  0  0
   59.3917   11.7189   37.7946 H   0  0  0  0  0  0  0  0  0  0  0  0
   59.1511   12.5144   40.1549 H   0  0  0  0  0  0  0  0  0  0  0  0
   59.1560   14.1883   39.5918 H   0  0  0  0  0  0  0  0  0  0  0  0
   61.4241   13.8450   38.5908 H   0  0  0  0  0  0  0  0  0  0  0  0
   61.4193   12.1711   39.1540 H   0  0  0  0  0  0  0  0  0  0  0  0
   61.1778   12.9662   41.5149 H   0  0  0  0  0  0  0  0  0  0  0  0
   61.1825   14.6400   40.9517 H   0  0  0  0  0  0  0  0  0  0  0  0
   63.4507   14.2969   39.9508 H   0  0  0  0  0  0  0  0  0  0  0  0
   63.4460   12.6230   40.5139 H   0  0  0  0  0  0  0  0  0  0  0  0
   63.2045   13.4181   42.8749 H   0  0  0  0  0  0  0  0  0  0  0  0
   63.2092   15.0919   42.3117 H   0  0  0  0  0  0  0  0  0  0  0  0
   65.4774   14.7488   41.3107 H   0  0  0  0  0  0  0  0  0  0  0  0
   65.4727   13.0749   41.8739 H   0  0  0  0  0  0  0  0  0  0  0  0
   65.2311   13.8700   44.2348 H   0  0  0  0  0  0  0  0  0  0  0  0
   65.2358   15.5438   43.6717 H   0  0  0  0  0  0  0  0  0  0  0  0
   67.5040   15.2007   42.6707 H   0  0  0  0  0  0  0  0  0  0  0  0
   67.4993   13.5268   43.2339 H   0  0  0  0  0  0  0  0  0  0  0  0
   67.2578   14.3219   45.5948 H   0  0  0  0  0  0  0  0  0  0  0  0
   67.2625   15.9957   45.0317 H   0  0  0  0  0  0  0  0  0  0  0  0
   69.5308   15.6525   44.0307 H   0  0  0  0  0  0  0  0  0  0  0  0
   69.5259   13.9786   44.5939 H   0  0  0  0  0  0  0  0  0  0  0  0
   69.2834   14.7745   46.9550 H   0  0  0  0  0  0  0  0  0  0  0  0
   69.2903   16.4481   46.3911 H   0  0  0  0  0  0  0  0  0  0  0  0
   71.5587   16.1018   45.3913 H   0  0  0  0  0  0  0  0  0  0  0  0
   71.5517   14.4282   45.9553 H   0  0  0  0  0  0  0  0  0  0  0  0
   71.3103   15.2246   48.3158 H   0  0  0  0  0  0  0  0  0  0  0  0
   71.3174   16.8982   47.7519 H   0  0  0  0  0  0  0  0  0  0  0  0
   73.5858   16.5518   46.7523 H   0  0  0  0  0  0  0  0  0  0  0  0
   73.5788   14.8782   47.3162 H   0  0  0  0  0  0  0  0  0  0  0  0
   73.3379   15.6747   49.6769 H   0  0  0  0  0  0  0  0  0  0  0  0
   73.3450   17.3483   49.1130 H   0  0  0  0  0  0  0  0  0  0  0  0
   75.6138   17.0020   48.1139 H   0  0  0  0  0  0  0  0  0  0  0  0
   75.6067   15.3285   48.6779 H   0  0  0  0  0  0  0  0  0  0  0  0
   75.3662   16.1260   51.0389 H   0  0  0  0  0  0  0  0  0  0  0  0
   75.3753   17.7993   50.4743 H   0  0  0  0  0  0  0  0  0  0  0  0
   77.6448   17.4497   49.4766 H   0  0  0  0  0  0  0  0  0  0  0  0
   77.6354   15.7766   50.0414 H   0  0  0  0  0  0  0  0  0  0  0  0
   77.3996   16.5749   52.4023 H   0  0  0  0  0  0  0  0  0  0  0  0
   77.4089   18.2478   51.8375 H   0  0  0  0  0  0  0  0  0  0  0  0
   79.6806   17.8984   50.8416 H   0  0  0  0  0  0  0  0  0  0  0  0
   79.6713   16.2259   51.4086 H   0  0  0  0  0  0  0  0  0  0  0  0
   79.4367   17.0271   53.7688 H   0  0  0  0  0  0  0  0  0  0  0  0
   79.4439   18.6989   53.2028 H   0  0  0  0  0  0  0  0  0  0  0  0
   81.7280   18.3592   52.2269 H   0  0  0  0  0  0  0  0  0  0  0  0
   81.7209   16.6867   52.7931 H   0  0  0  0  0  0  0  0  0  0  0  0
   81.5119   19.1633   54.5859 H   0  0  0  0  0  0  0  0  0  0  0  0
   82.9508   18.1480   54.3714 H   0  0  0  0  0  0  0  0  0  0  0  0
   81.5049   17.4828   55.1549 H   0  0  0  0  0  0  0  0  0  0  0  0
  1  2  1  0  0  0  0
  1 82  1  0  0  0  0
  2  3  1  0  0  0  0
  2 83  1  0  0  0  0
  2 84  1  0  0  0  0
  3  4  1  0  0  0  0
  3 85  1  0  0  0  0
  3 86  1  0  0  0  0
  4  5  1  0  0  0  0
  4 87  1  0  0  0  0
  4 88  1  0  0  0  0
  5  6  1  0  0  0  0
  5 89  1  0  0  0  0
  5 90  1  0  0  0  0
  6  7  1  0  0  0  0
  6 91  1  0  0  0  0
  6 92  1  0  0  0  0
  7  8  1  0  0  0  0
  7 93  1  0  0  0  0
  7 94  1  0  0  0  0
  8  9  1  0  0  0  0
  8 95  1  0  0  0  0
  8 96  1  0  0  0  0
  9 10  1  0  0  0  0
  9 97  1  0  0  0  0
 10 11  1  0  0  0  0
 10 98  1  0  0  0  0
 10 99  1  0  0  0  0
 11 12  1  0  0  0  0
 11100  1  0  0  0  0
 11101  1  0  0  0  0
 12 13  1  0  0  0  0
 12102  1  0  0  0  0
 12103  1  0  0  0  0
 13 14  1  0  0  0  0
 13104  1  0  0  0  0
 13105  1  0  0  0  0
 14 15  1  0  0  0  0
 14106  1  0  0  0  0
 14107  1  0  0  0  0
 15 16  1  0  0  0  0
 15108  1  0  0  0  0
 15109  1  0  0  0  0
 16 17  1  0  0  0  0
 16110  1  0  0  0  0
 16111  1  0  0  0  0
 17 18  1  0  0  0  0
 17112  1  0  0  0  0
 17113  1  0  0  0  0
 18 19  1  0  0  0  0
 18114  1  0  0  0  0
 18115  1  0  0  0  0
 19 20  1  0  0  0  0
 19116  1  0  0  0  0
 19117  1  0  0  0  0
 20 21  1  0  0  0  0
 20118  1  0  0  0  0
 20119  1  0  0  0  0
 21 22  1  0  0  0  0
 21120  1  0  0  0  0
 21121  1  0  0  0  0
 22 23  1  0  0  0  0
 22122  1  0  0  0  0
 22123  1  0  0  0  0
 23 24  1  0  0  0  0
 23124  1  0  0  0  0
 23125  1  0  0  0  0
 24 25  1  0  0  0  0
 24126  1  0  0  0  0
 24127  1  0  0  0  0
 25 26  1  0  0  0  0
 25128  1  0  0  0  0
 25129  1  0  0  0  0
 26 27  1  0  0  0  0
 26130  1  0  0  0  0
 26131  1  0  0  0  0
 27 28  1  0  0  0  0
 27132  1  0  0  0  0
 27133  1  0  0  0  0
 28 29  1  0  0  0  0
 28134  1  0  0  0  0
 28135  1  0  0  0  0
 29 30  1  0  0  0  0
 29136  1  0  0  0  0
 29137  1  0  0  0  0
 30 31  1  0  0  0  0
 30138  1  0  0  0  0
 30139  1  0  0  0  0
 31 32  1  0  0  0  0
 31140  1  0  0  0  0
 31141  1  0  0  0  0
 32 33  1  0  0  0  0
 32142  1  0  0  0  0
 32143  1  0  0  0  0
 33 34  1  0  0  0  0
 33144  1  0  0  0  0
 33145  1  0  0  0  0
 34 35  1  0  0  0  0
 34146  1  0  0  0  0
 34147  1  0  0  0  0
 35 36  1  0  0  0  0
 35148  1  0  0  0  0
 35149  1  0  0  0  0
 36 37  1  0  0  0  0
 36150  1  0  0  0  0
 36151  1  0  0  0  0
 37 38  1  0  0  0  0
 37152  1  0  0  0  0
 37153  1  0  0  0  0
 38 39  1  0  0  0  0
 38154  1  0  0  0  0
 38155  1  0  0  0  0
 39 40  1  0  0  0  0
 39156  1  0  0  0  0
 39157  1  0  0  0  0
 40 41  1  0  0  0  0
 40158  1  0  0  0  0
 40159  1  0  0  0  0
 41 42  1  0  0  0  0
 41160  1  0  0  0  0
 41161  1  0  0  0  0
 42 43  1  0  0  0  0
 42162  1  0  0  0  0
 42163  1  0  0  0  0
 43 44  1  0  0  0  0
 43164  1  0  0  0  0
 43165  1  0  0  0  0
 44 45  1  0  0  0  0
 44166  1  0  0  0  0
 44167  1  0  0  0  0
 45 46  1  0  0  0  0
 45168  1  0  0  0  0
 45169  1  0  0  0  0
 46 47  1  0  0  0  0
 46170  1  0  0  0  0
 46171  1  0  0  0  0
 47 48  1  0  0  0  0
 47172  1  0  0  0  0
 47173  1  0  0  0  0
 48 49  1  0  0  0  0
 48174  1  0  0  0  0
 48175  1  0  0  0  0
 49 50  1  0  0  0  0
 49176  1  0  0  0  0
 49177  1  0  0  0  0
 50 51  1  0  0  0  0
 50178  1  0  0  0  0
 50179  1  0  0  0  0
 51 52  1  0  0  0  0
 51180  1  0  0  0  0
 51181  1  0  0  0  0
 52 53  1  0  0  0  0
 52182  1  0  0  0  0
 52183  1  0  0  0  0
 53 54  1  0  0  0  0
 53184  1  0  0  0  0
 53185  1  0  0  0  0
 54 55  1  0  0  0  0
 54186  1  0  0  0  0
 54187  1  0  0  0  0
 55 56  1  0  0  0  0
 55188  1  0  0  0  0
 55189  1  0  0  0  0
 56 57  1  0  0  0  0
 56190  1  0  0  0  0
 56191  1  0  0  0  0
 57 58  1  0  0  0  0
 57192  1  0  0  0  0
 57193  1  0  0  0  0
 58 59  1  0  0  0  0
 58194  1  0  0  0  0
 58195  1  0  0  0  0
 59 60  1  0  0  0  0
 59196  1  0  0  0  0
 59197  1  0  0  0  0
 60 61  1  0  0  0  0
 60198  1  0  0  0  0
 60199  1  0  0  0  0
 61 62  1  0  0  0  0
 61200  1  0  0  0  0
 61201  1  0  0  0  0
 62 63  1  0  0  0  0
 62202  1  0  0  0  0
 62203  1  0  0  0  0
 63 64  1  0  0  0  0
 63204  1  0  0  0  0
 63205  1  0  0  0  0
 64 65  1  0  0  0  0
 64206  1  0  0  0  0
 64207  1  0  0  0  0
 65 66  1  0  0  0  0
 65208  1  0  0  0  0
 65209  1  0  0  0  0
 66 67  1  0  0  0  0
 66210  1  0  0  0  0
 66211  1  0  0  0  0
 67 68  1  0  0  0  0
 67212  1  0  0  0  0
 67213  1  0  0  0  0
 68 69  1  0  0  0  0
 68214  1  0  0  0  0
 68215  1  0  0  0  0
 69 70  1  0  0  0  0
 69216  1  0  0  0  0
 69217  1  0  0  0  0
 70 71  1  0  0  0  0
 70218  1  0  0  0  0
 70219  1  0  0  0  0
 71 72  1  0  0  0  0
 71220  1  0  0  0  0
 71221  1  0  0  0  0
 72 73  1  0  0  0  0
 72222  1  0  0  0  0
 72223  1  0  0  0  0
 73 74  1  0  0  0  0
 73224  1  0  0  0  0
 73225  1  0  0  0  0
 74 75  1  0  0  0  0
 74226  1  0  0  0  0
 74227  1  0  0  0  0
 75 76  1  0  0  0  0
 75228  1  0  0  0  0
 75229  1  0  0  0  0
 76 77  1  0  0  0  0
 76230  1  0  0  0  0
 76231  1  0  0  0  0
 77 78  1  0  0  0  0
 77232  1  0  0  0  0
 77233  1  0  0  0  0
 78 79  1  0  0  0  0
 78234  1  0  0  0  0
 78235  1  0  0  0  0
 79 80  1  0  0  0  0
 79236  1  0  0  0  0
 79237  1  0  0  0  0
 80 81  1  0  0  0  0
 80238  1  0  0  0  0
 80239  1  0  0  0  0
 81240  1  0  0  0  0
 81241  1  0  0  0  0
 81242  1  0  0  0  0
M  END
$$$$
