
 OpenBabel04232216443D

 43 45  0  0  0  0  0  0  0  0999 V2000
    5.0955    2.5780    0.9589 C   0  0  0  0  0  0  0  0  0  0  0  0
    6.2479    3.4620    0.3975 C   0  0  0  0  0  0  0  0  0  0  0  0
    6.0647    4.1883   -0.7483 C   0  0  0  0  0  0  0  0  0  0  0  0
    5.0091    3.5320   -1.5878 C   0  0  0  0  0  0  0  0  0  0  0  0
    5.2937    2.3983   -2.2776 C   0  0  0  0  0  0  0  0  0  0  0  0
    6.6588    2.1283   -2.7103 C   0  0  0  0  0  0  0  0  0  0  0  0
    7.2430    3.0370   -3.5393 C   0  0  0  0  0  0  0  0  0  0  0  0
    6.4972    3.8804   -4.3683 N   0  0  0  0  0  0  0  0  0  0  0  0
    8.5690    3.4524   -3.0764 C   0  0  0  0  0  0  0  0  0  0  0  0
    8.6357    4.7706   -2.8487 C   0  0  0  0  0  0  0  0  0  0  0  0
    8.1901    5.4265   -1.5983 C   0  0  0  0  0  0  0  0  0  0  0  0
    6.8986    5.3957   -1.1208 C   0  0  0  0  0  0  0  0  0  0  0  0
    6.0159    6.6693   -1.3037 C   0  0  0  0  0  0  0  0  0  0  0  0
    4.8272    6.6907   -0.9798 O   0  0  0  0  0  0  0  0  0  0  0  0
    6.6093    7.9460   -1.7933 C   0  0  0  0  0  0  0  0  0  0  0  0
    7.3982    7.9968   -2.8860 C   0  0  0  0  0  0  0  0  0  0  0  0
    8.6703    8.7012   -2.7284 C   0  0  0  0  0  0  0  0  0  0  0  0
    9.7382    7.8657   -2.6308 C   0  0  0  0  0  0  0  0  0  0  0  0
   10.0029    7.1272   -1.3827 C   0  0  0  0  0  0  0  0  0  0  0  0
    9.3165    6.0548   -0.8719 C   0  0  0  0  0  0  0  0  0  0  0  0
   10.0708    5.2470    0.0908 C   0  0  0  0  0  0  0  0  0  0  0  0
    9.8300    4.0775    0.7025 C   0  0  0  0  0  0  0  0  0  0  0  0
    8.8219    3.0603    0.8075 C   0  0  0  0  0  0  0  0  0  0  0  0
    7.5117    2.8329    0.7370 C   0  0  0  0  0  0  0  0  0  0  0  0
    4.1002    3.0087    0.7860 H   0  0  0  0  0  0  0  0  0  0  0  0
    5.1740    2.4441    2.0433 H   0  0  0  0  0  0  0  0  0  0  0  0
    5.1045    1.5783    0.4996 H   0  0  0  0  0  0  0  0  0  0  0  0
    3.9756    3.7401   -1.3178 H   0  0  0  0  0  0  0  0  0  0  0  0
    4.5517    1.6576   -2.5394 H   0  0  0  0  0  0  0  0  0  0  0  0
    7.2307    1.5216   -2.0284 H   0  0  0  0  0  0  0  0  0  0  0  0
    5.5544    3.9971   -4.0042 H   0  0  0  0  0  0  0  0  0  0  0  0
    6.9000    4.8008   -4.4858 H   0  0  0  0  0  0  0  0  0  0  0  0
    8.9342    2.8431   -2.2523 H   0  0  0  0  0  0  0  0  0  0  0  0
    8.5283    5.4421   -3.6956 H   0  0  0  0  0  0  0  0  0  0  0  0
    6.5570    8.7585   -1.0779 H   0  0  0  0  0  0  0  0  0  0  0  0
    7.3820    7.1864   -3.6049 H   0  0  0  0  0  0  0  0  0  0  0  0
    8.6053    9.4987   -1.9881 H   0  0  0  0  0  0  0  0  0  0  0  0
    9.9343    7.2078   -3.4759 H   0  0  0  0  0  0  0  0  0  0  0  0
   10.9759    7.3968   -0.9691 H   0  0  0  0  0  0  0  0  0  0  0  0
   11.1054    5.5785    0.2175 H   0  0  0  0  0  0  0  0  0  0  0  0
   10.7255    3.7013    1.2062 H   0  0  0  0  0  0  0  0  0  0  0  0
    9.3555    2.1295    1.0697 H   0  0  0  0  0  0  0  0  0  0  0  0
    7.3111    1.7829    0.9920 H   0  0  0  0  0  0  0  0  0  0  0  0
  1  2  1  0  0  0  0
  1 25  1  0  0  0  0
  1 26  1  0  0  0  0
  1 27  1  0  0  0  0
  2  3  2  0  0  0  0
  2 24  1  0  0  0  0
  3  4  1  0  0  0  0
  3 12  1  0  0  0  0
  4  5  2  0  0  0  0
  4 28  1  0  0  0  0
  5  6  1  0  0  0  0
  5 29  1  0  0  0  0
  6  7  2  0  0  0  0
  6 30  1  0  0  0  0
  7  8  1  0  0  0  0
  7  9  1  0  0  0  0
  8 31  1  0  0  0  0
  8 32  1  0  0  0  0
  9 10  2  0  0  0  0
  9 33  1  0  0  0  0
 10 11  1  0  0  0  0
 10 34  1  0  0  0  0
 11 12  2  3  0  0  0
 11 20  1  0  0  0  0
 12 13  1  0  0  0  0
 13 14  2  0  0  0  0
 13 15  1  0  0  0  0
 15 16  2  3  0  0  0
 15 35  1  0  0  0  0
 16 17  1  0  0  0  0
 16 36  1  0  0  0  0
 17 18  2  3  0  0  0
 17 37  1  0  0  0  0
 18 19  1  0  0  0  0
 18 38  1  0  0  0  0
 19 20  2  3  0  0  0
 19 39  1  0  0  0  0
 20 21  1  0  0  0  0
 21 22  2  0  0  0  0
 21 40  1  0  0  0  0
 22 23  1  0  0  0  0
 22 41  1  0  0  0  0
 23 24  2  0  0  0  0
 23 42  1  0  0  0  0
 24 43  1  0  0  0  0
M  END
$$$$
