
 OpenBabel04232216503D

 60 61  0  0  1  0  0  0  0  0999 V2000
    6.1712    0.9315    4.8490 C   0  0  0  0  0  0  0  0  0  0  0  0
    7.1641   -0.4472    5.1439 C   0  0  3  0  0  0  0  0  0  0  0  0
    5.9468   -1.3854    4.4095 C   0  0  0  0  0  3  0  0  0  0  0  0
    5.3499   -1.2930    2.8347 C   0  0  0  0  0  0  0  0  0  0  0  0
    5.4366   -2.6802    2.0993 C   0  0  0  0  0  0  0  0  0  0  0  0
    6.9039   -2.8588    1.9591 C   0  0  0  0  0  0  0  0  0  0  0  0
    7.3110   -3.4923    3.2334 C   0  0  0  0  0  0  0  0  0  0  0  0
    8.6860   -3.0083    3.3344 C   0  0  0  0  0  0  0  0  0  0  0  0
    9.1691   -3.7930    4.5542 C   0  0  0  0  0  0  0  0  0  0  0  0
   10.6244   -3.5621    4.3454 C   0  0  0  0  0  0  0  0  0  0  0  0
   11.1935   -4.5829    5.2389 C   0  0  0  0  0  0  0  0  0  0  0  0
   12.6276   -4.5229    4.8010 C   0  0  0  0  0  0  0  0  0  0  0  0
   13.4375   -4.7301    6.0065 C   0  0  0  0  0  0  0  0  0  0  0  0
   13.5963   -3.2951    6.5967 C   0  0  0  0  0  0  0  0  0  0  0  0
   14.5805   -2.5895    6.5160 O   0  0  0  0  0  0  0  0  0  0  0  0
   12.3693   -2.9090    7.4659 C   0  0  0  0  0  0  0  0  0  0  0  0
   11.4299   -1.9808    6.9260 C   0  0  0  0  0  0  0  0  0  0  0  0
    9.8277   -1.5059    7.1960 C   0  0  0  0  0  0  0  0  0  0  0  0
    9.8281   -1.7253    8.9108 C   0  0  0  0  0  0  0  0  0  0  0  0
    8.8047   -1.3216    9.5054 O   0  0  0  0  0  0  0  0  0  0  0  0
   11.3225   -2.0577    9.9208 C   0  0  0  0  0  0  0  0  0  0  0  0
   12.1386   -3.2979   10.6702 C   0  0  0  0  0  0  0  0  0  0  0  0
   13.2135   -3.9747    9.8822 C   0  0  0  0  0  0  0  0  0  0  0  0
   12.6009   -4.1296    8.5131 C   0  0  0  0  0  0  0  0  0  0  0  0
    8.7668   -1.0404    6.0610 C   0  0  0  0  0  0  0  0  0  0  0  0
    5.2693    0.6782    4.2169 H   0  0  0  0  0  0  0  0  0  0  0  0
    6.6027    1.6562    4.1323 H   0  0  0  0  0  0  0  0  0  0  0  0
    5.6277    1.3953    5.6795 H   0  0  0  0  0  0  0  0  0  0  0  0
    7.7460   -0.2335    4.2307 H   0  0  0  0  0  0  0  0  0  0  0  0
    5.0519   -1.5576    5.0189 H   0  0  0  0  0  0  0  0  0  0  0  0
    5.8580   -0.5346    2.2143 H   0  0  0  0  0  0  0  0  0  0  0  0
    4.2794   -1.0155    2.7816 H   0  0  0  0  0  0  0  0  0  0  0  0
    4.9462   -2.7691    1.1640 H   0  0  0  0  0  0  0  0  0  0  0  0
    4.9832   -3.4276    2.7834 H   0  0  0  0  0  0  0  0  0  0  0  0
    7.3892   -1.8927    1.7755 H   0  0  0  0  0  0  0  0  0  0  0  0
    7.1834   -3.4899    1.1077 H   0  0  0  0  0  0  0  0  0  0  0  0
    7.2435   -4.5976    3.1461 H   0  0  0  0  0  0  0  0  0  0  0  0
    6.7755   -3.2852    4.1731 H   0  0  0  0  0  0  0  0  0  0  0  0
    8.8090   -1.9304    3.4331 H   0  0  0  0  0  0  0  0  0  0  0  0
    9.2396   -3.2986    2.4407 H   0  0  0  0  0  0  0  0  0  0  0  0
    8.8879   -4.8030    4.5127 H   0  0  0  0  0  0  0  0  0  0  0  0
    8.7864   -3.3975    5.4795 H   0  0  0  0  0  0  0  0  0  0  0  0
   10.9239   -2.5246    4.5222 H   0  0  0  0  0  0  0  0  0  0  0  0
   10.9190   -3.7904    3.3117 H   0  0  0  0  0  0  0  0  0  0  0  0
   10.7681   -5.5784    5.1164 H   0  0  0  0  0  0  0  0  0  0  0  0
   10.9269   -4.3430    6.2789 H   0  0  0  0  0  0  0  0  0  0  0  0
   12.8919   -3.5411    4.3925 H   0  0  0  0  0  0  0  0  0  0  0  0
   12.7844   -5.2647    4.0228 H   0  0  0  0  0  0  0  0  0  0  0  0
   14.3611   -5.2736    5.8654 H   0  0  0  0  0  0  0  0  0  0  0  0
   12.8304   -5.4181    6.6170 H   0  0  0  0  0  0  0  0  0  0  0  0
   11.7916   -1.3796    6.0834 H   0  0  0  0  0  0  0  0  0  0  0  0
   12.1523   -1.3894    9.6098 H   0  0  0  0  0  0  0  0  0  0  0  0
   10.9833   -1.6612   10.8730 H   0  0  0  0  0  0  0  0  0  0  0  0
   11.4846   -4.0979   11.0594 H   0  0  0  0  0  0  0  0  0  0  0  0
   12.6854   -2.9208   11.5453 H   0  0  0  0  0  0  0  0  0  0  0  0
   13.4433   -5.0032   10.3020 H   0  0  0  0  0  0  0  0  0  0  0  0
   14.2177   -3.5208    9.8925 H   0  0  0  0  0  0  0  0  0  0  0  0
   11.7108   -4.7572    8.5613 H   0  0  0  0  0  0  0  0  0  0  0  0
   13.3964   -4.8319    8.1971 H   0  0  0  0  0  0  0  0  0  0  0  0
    9.4078   -0.9623    5.1570 H   0  0  0  0  0  0  0  0  0  0  0  0
  1  2  1  0  0  0  0
  1 26  1  0  0  0  0
  1 27  1  0  0  0  0
  1 28  1  0  0  0  0
  2  3  1  0  0  0  0
  2 25  1  0  0  0  0
  2 29  1  0  0  0  0
  3  4  1  0  0  0  0
  3 30  1  0  0  0  0
  4  5  1  0  0  0  0
  4 31  1  0  0  0  0
  4 32  1  0  0  0  0
  5  6  1  0  0  0  0
  5 33  1  0  0  0  0
  5 34  1  0  0  0  0
  6  7  1  0  0  0  0
  6 35  1  0  0  0  0
  6 36  1  0  0  0  0
  7  8  1  0  0  0  0
  7 37  1  0  0  0  0
  7 38  1  0  0  0  0
  8  9  1  0  0  0  0
  8 39  1  0  0  0  0
  8 40  1  0  0  0  0
  9 10  1  0  0  0  0
  9 41  1  0  0  0  0
  9 42  1  0  0  0  0
 10 11  1  0  0  0  0
 10 43  1  0  0  0  0
 10 44  1  0  0  0  0
 11 12  1  0  0  0  0
 11 45  1  0  0  0  0
 11 46  1  0  0  0  0
 12 13  1  0  0  0  0
 12 47  1  0  0  0  0
 12 48  1  0  0  0  0
 13 14  1  0  0  0  0
 13 49  1  0  0  0  0
 13 50  1  0  0  0  0
 14 15  2  0  0  0  0
 14 16  1  0  0  0  0
 16 17  2  0  0  0  0
 16 24  1  0  0  0  0
 17 18  1  0  0  0  0
 17 51  1  0  0  0  0
 18 19  1  0  0  0  0
 18 25  2  3  0  0  0
 19 20  2  0  0  0  0
 19 21  1  0  0  0  0
 21 22  1  0  0  0  0
 21 52  1  0  0  0  0
 21 53  1  0  0  0  0
 22 23  1  0  0  0  0
 22 54  1  0  0  0  0
 22 55  1  0  0  0  0
 23 24  1  0  0  0  0
 23 56  1  0  0  0  0
 23 57  1  0  0  0  0
 24 58  1  0  0  0  0
 24 59  1  0  0  0  0
 25 60  1  0  0  0  0
M  END
$$$$
