
 OpenBabel04232216423D

 29 30  0  0  0  0  0  0  0  0999 V2000
    5.2263    0.3918    2.2963 C   0  0  0  0  0  0  0  0  0  0  0  0
    4.0405    0.5096    1.3376 C   0  0  0  0  0  0  0  0  0  0  0  0
    3.6220    1.1810    0.2495 C   0  0  0  0  0  0  0  0  0  0  0  0
    4.5143    2.0420   -0.5425 C   0  0  0  0  0  0  0  0  0  0  0  0
    5.5586    1.2613   -1.3544 C   0  0  0  0  0  0  0  0  0  0  0  0
    4.6390    3.2882   -0.1354 N   0  0  0  0  0  0  0  0  0  0  0  0
    5.9642    3.2627    0.4739 C   0  0  0  0  0  0  0  0  0  0  0  0
    6.2673    3.9316    1.8030 C   0  0  0  0  0  0  0  0  0  0  0  0
    7.5003    3.0994    2.2239 C   0  0  0  0  0  0  0  0  0  0  0  0
    8.7434    3.7658    2.0959 C   0  0  0  0  0  0  0  0  0  0  0  0
    9.8953    3.0473    1.8463 C   0  0  0  0  0  0  0  0  0  0  0  0
    9.8576    1.6873    1.7145 C   0  0  0  0  0  0  0  0  0  0  0  0
    8.6490    0.9847    1.9284 C   0  0  0  0  0  0  0  0  0  0  0  0
    7.4524    1.6574    2.2343 C   0  0  0  0  0  0  0  0  0  0  0  0
    6.4006    0.8062    2.6318 N   0  0  0  0  0  0  0  0  0  0  0  0
    4.9387   -0.3883    3.0351 H   0  0  0  0  0  0  0  0  0  0  0  0
    3.2799   -0.1955    1.6906 H   0  0  0  0  0  0  0  0  0  0  0  0
    2.6034    1.1207   -0.1113 H   0  0  0  0  0  0  0  0  0  0  0  0
    5.0770    0.4426   -1.8953 H   0  0  0  0  0  0  0  0  0  0  0  0
    6.3016    0.8114   -0.6824 H   0  0  0  0  0  0  0  0  0  0  0  0
    6.0823    1.9056   -2.0638 H   0  0  0  0  0  0  0  0  0  0  0  0
    6.7925    3.3182   -0.2416 H   0  0  0  0  0  0  0  0  0  0  0  0
    5.9476    2.2601    0.8529 H   0  0  0  0  0  0  0  0  0  0  0  0
    5.4765    3.8832    2.5540 H   0  0  0  0  0  0  0  0  0  0  0  0
    6.5155    4.9866    1.6395 H   0  0  0  0  0  0  0  0  0  0  0  0
    8.7897    4.8589    2.0911 H   0  0  0  0  0  0  0  0  0  0  0  0
   10.8504    3.5723    1.6992 H   0  0  0  0  0  0  0  0  0  0  0  0
   10.7453    1.0964    1.4534 H   0  0  0  0  0  0  0  0  0  0  0  0
    8.6285   -0.0960    1.8478 H   0  0  0  0  0  0  0  0  0  0  0  0
  1  2  1  0  0  0  0
  1 15  2  3  0  0  0
  1 16  1  0  0  0  0
  2  3  2  3  0  0  0
  2 17  1  0  0  0  0
  3  4  1  0  0  0  0
  3 18  1  0  0  0  0
  4  5  1  0  0  0  0
  4  6  2  3  0  0  0
  5 19  1  0  0  0  0
  5 20  1  0  0  0  0
  5 21  1  0  0  0  0
  6  7  1  0  0  0  0
  7  8  1  0  0  0  0
  7 22  1  0  0  0  0
  7 23  1  0  0  0  0
  8  9  1  0  0  0  0
  8 24  1  0  0  0  0
  8 25  1  0  0  0  0
  9 10  1  0  0  0  0
  9 14  2  0  0  0  0
 10 11  2  0  0  0  0
 10 26  1  0  0  0  0
 11 12  1  0  0  0  0
 11 27  1  0  0  0  0
 12 13  2  0  0  0  0
 12 28  1  0  0  0  0
 13 14  1  0  0  0  0
 13 29  1  0  0  0  0
 14 15  1  0  0  0  0
M  END
$$$$
