
 OpenBabel04232216563D

234234  0  0  1  0  0  0  0  0999 V2000
    1.1144   -0.1076   -0.1302 C   0  0  0  0  0  0  0  0  0  0  0  0
    2.5571   -0.0169   -0.1162 N   0  0  0  0  0  0  0  0  0  0  0  0
    3.4452   -1.0583    0.0530 C   0  0  0  0  0  0  0  0  0  0  0  0
    4.6738   -0.6276    0.4187 C   0  0  0  0  0  0  0  0  0  0  0  0
    4.6249    0.8637    0.5959 C   0  0  0  0  0  0  0  0  0  0  0  0
    3.2884    1.2666   -0.0997 C   0  0  3  0  0  0  0  0  0  0  0  0
    3.5622    1.7337   -1.5405 C   0  0  0  0  0  0  0  0  0  0  0  0
    4.4968    2.9416   -1.5656 C   0  0  0  0  0  0  0  0  0  0  0  0
    4.7674    3.3818   -2.9895 C   0  0  0  0  0  0  0  0  0  0  0  0
    5.6988    4.5823   -2.9879 C   0  0  0  0  0  0  0  0  0  0  0  0
    5.9645    5.0250   -4.4136 C   0  0  0  0  0  0  0  0  0  0  0  0
    6.8944    6.2228   -4.4187 C   0  0  0  0  0  0  0  0  0  0  0  0
    7.1563    6.6653   -5.8454 C   0  0  0  0  0  0  0  0  0  0  0  0
    8.0861    7.8632   -5.8509 C   0  0  0  0  0  0  0  0  0  0  0  0
    8.3479    8.3056   -7.2775 C   0  0  0  0  0  0  0  0  0  0  0  0
    9.2776    9.5035   -7.2829 C   0  0  0  0  0  0  0  0  0  0  0  0
    9.5394    9.9459   -8.7095 C   0  0  0  0  0  0  0  0  0  0  0  0
   10.4692   11.1438   -8.7149 C   0  0  0  0  0  0  0  0  0  0  0  0
   10.7326   11.5850  -10.1416 C   0  0  0  0  0  0  0  0  0  0  0  0
   11.6623   12.7829  -10.1470 C   0  0  0  0  0  0  0  0  0  0  0  0
   11.9257   13.2241  -11.5737 C   0  0  0  0  0  0  0  0  0  0  0  0
   12.8554   14.4220  -11.5791 C   0  0  0  0  0  0  0  0  0  0  0  0
   13.1189   14.8632  -13.0057 C   0  0  0  0  0  0  0  0  0  0  0  0
   14.0486   16.0611  -13.0111 C   0  0  0  0  0  0  0  0  0  0  0  0
   14.3120   16.5022  -14.4378 C   0  0  0  0  0  0  0  0  0  0  0  0
   15.2417   17.7002  -14.4432 C   0  0  0  0  0  0  0  0  0  0  0  0
   15.5051   18.1413  -15.8699 C   0  0  0  0  0  0  0  0  0  0  0  0
   16.4349   19.3392  -15.8753 C   0  0  0  0  0  0  0  0  0  0  0  0
   16.6999   19.7792  -17.3021 C   0  0  0  0  0  0  0  0  0  0  0  0
   17.6296   20.9771  -17.3075 C   0  0  0  0  0  0  0  0  0  0  0  0
   17.8930   21.4182  -18.7342 C   0  0  0  0  0  0  0  0  0  0  0  0
   18.8228   22.6161  -18.7396 C   0  0  0  0  0  0  0  0  0  0  0  0
   19.0878   23.0561  -20.1664 C   0  0  0  0  0  0  0  0  0  0  0  0
   20.0175   24.2540  -20.1718 C   0  0  0  0  0  0  0  0  0  0  0  0
   20.2809   24.6951  -21.5985 C   0  0  0  0  0  0  0  0  0  0  0  0
   21.2090   25.8943  -21.6038 C   0  0  0  0  0  0  0  0  0  0  0  0
   21.4709   26.3367  -23.0304 C   0  0  0  0  0  0  0  0  0  0  0  0
   22.3990   27.5359  -23.0357 C   0  0  0  0  0  0  0  0  0  0  0  0
   22.6608   27.9782  -24.4623 C   0  0  0  0  0  0  0  0  0  0  0  0
   23.5889   29.1774  -24.4676 C   0  0  0  0  0  0  0  0  0  0  0  0
   23.8508   29.6198  -25.8942 C   0  0  0  0  0  0  0  0  0  0  0  0
   24.7789   30.8190  -25.8995 C   0  0  0  0  0  0  0  0  0  0  0  0
   25.0407   31.2613  -27.3261 C   0  0  0  0  0  0  0  0  0  0  0  0
   25.9704   32.4593  -27.3315 C   0  0  0  0  0  0  0  0  0  0  0  0
   26.2339   32.9004  -28.7582 C   0  0  0  0  0  0  0  0  0  0  0  0
   27.1652   34.0971  -28.7637 C   0  0  0  0  0  0  0  0  0  0  0  0
   27.4302   34.5370  -30.1905 C   0  0  0  0  0  0  0  0  0  0  0  0
   28.3599   35.7349  -30.1959 C   0  0  0  0  0  0  0  0  0  0  0  0
   28.6249   36.1748  -31.6227 C   0  0  0  0  0  0  0  0  0  0  0  0
   29.5547   37.3728  -31.6281 C   0  0  0  0  0  0  0  0  0  0  0  0
   29.8196   37.8127  -33.0548 C   0  0  0  0  0  0  0  0  0  0  0  0
   30.7478   39.0118  -33.0602 C   0  0  0  0  0  0  0  0  0  0  0  0
   31.0128   39.4518  -34.4869 C   0  0  0  0  0  0  0  0  0  0  0  0
   31.9425   40.6497  -34.4923 C   0  0  0  0  0  0  0  0  0  0  0  0
   32.2075   41.0896  -35.9191 C   0  0  0  0  0  0  0  0  0  0  0  0
   33.1388   42.2863  -35.9246 C   0  0  0  0  0  0  0  0  0  0  0  0
   33.4038   42.7262  -37.3514 C   0  0  0  0  0  0  0  0  0  0  0  0
   34.3336   43.9241  -37.3568 C   0  0  0  0  0  0  0  0  0  0  0  0
   34.5970   44.3653  -38.7835 C   0  0  0  0  0  0  0  0  0  0  0  0
   35.5283   45.5620  -38.7890 C   0  0  0  0  0  0  0  0  0  0  0  0
   35.7933   46.0019  -40.2158 C   0  0  0  0  0  0  0  0  0  0  0  0
   36.7262   47.1973  -40.2213 C   0  0  0  0  0  0  0  0  0  0  0  0
   36.9896   47.6385  -41.6480 C   0  0  0  0  0  0  0  0  0  0  0  0
   37.9241   48.8327  -41.6537 C   0  0  0  0  0  0  0  0  0  0  0  0
   38.1891   49.2726  -43.0805 C   0  0  0  0  0  0  0  0  0  0  0  0
   39.1220   50.4680  -43.0861 C   0  0  0  0  0  0  0  0  0  0  0  0
   39.3870   50.9080  -44.5129 C   0  0  0  0  0  0  0  0  0  0  0  0
   40.3215   52.1022  -44.5185 C   0  0  0  0  0  0  0  0  0  0  0  0
   40.5849   52.5433  -45.9452 C   0  0  0  0  0  0  0  0  0  0  0  0
   41.5210   53.7363  -45.9509 C   0  0  0  0  0  0  0  0  0  0  0  0
   41.7859   54.1761  -47.3777 C   0  0  0  0  0  0  0  0  0  0  0  0
   42.7204   55.3703  -47.3833 C   0  0  0  0  0  0  0  0  0  0  0  0
   42.9855   55.8103  -48.8102 C   0  0  0  0  0  0  0  0  0  0  0  0
   43.9184   57.0057  -48.8151 C   0  0  0  0  0  0  0  0  0  0  0  0
   44.1863   57.4461  -50.2413 C   0  0  0  0  0  0  0  0  0  0  0  0
   45.1203   58.6425  -50.2457 C   0  0  0  0  0  0  0  0  0  0  0  0
   45.3877   59.0825  -51.6735 C   0  0  0  0  0  0  0  0  0  0  0  0
   46.3217   60.2834  -51.6895 C   0  0  0  0  0  0  0  0  0  0  0  0
   46.5872   60.7205  -53.1136 C   0  0  0  0  0  0  0  0  0  0  0  0
    0.7787   -1.1535   -0.0694 H   0  0  0  0  0  0  0  0  0  0  0  0
    0.6929    0.3144   -1.0471 H   0  0  0  0  0  0  0  0  0  0  0  0
    0.6636    0.4159    0.7238 H   0  0  0  0  0  0  0  0  0  0  0  0
    3.1556   -2.0824   -0.1329 H   0  0  0  0  0  0  0  0  0  0  0  0
    5.5277   -1.2452    0.5625 H   0  0  0  0  0  0  0  0  0  0  0  0
    5.5173    1.3039    0.1574 H   0  0  0  0  0  0  0  0  0  0  0  0
    4.6080    1.1209    1.6588 H   0  0  0  0  0  0  0  0  0  0  0  0
    2.7686    2.0615    0.4512 H   0  0  0  0  0  0  0  0  0  0  0  0
    2.6184    1.9927   -2.0351 H   0  0  0  0  0  0  0  0  0  0  0  0
    4.0077    0.9182   -2.1297 H   0  0  0  0  0  0  0  0  0  0  0  0
    5.4632    2.7138   -1.1068 H   0  0  0  0  0  0  0  0  0  0  0  0
    4.0604    3.7620   -0.9854 H   0  0  0  0  0  0  0  0  0  0  0  0
    3.8241    3.6383   -3.4801 H   0  0  0  0  0  0  0  0  0  0  0  0
    5.2263    2.5603   -3.5518 H   0  0  0  0  0  0  0  0  0  0  0  0
    6.6456    4.3265   -2.4951 H   0  0  0  0  0  0  0  0  0  0  0  0
    5.2478    5.4048   -2.4193 H   0  0  0  0  0  0  0  0  0  0  0  0
    5.0188    5.2846   -4.9045 H   0  0  0  0  0  0  0  0  0  0  0  0
    6.4138    4.2016   -4.9823 H   0  0  0  0  0  0  0  0  0  0  0  0
    7.8409    5.9631   -3.9290 H   0  0  0  0  0  0  0  0  0  0  0  0
    6.4459    7.0460   -3.8492 H   0  0  0  0  0  0  0  0  0  0  0  0
    6.2099    6.9252   -6.3353 H   0  0  0  0  0  0  0  0  0  0  0  0
    7.6049    5.8422   -6.4151 H   0  0  0  0  0  0  0  0  0  0  0  0
    9.0325    7.6034   -5.3611 H   0  0  0  0  0  0  0  0  0  0  0  0
    7.6375    8.6864   -5.2813 H   0  0  0  0  0  0  0  0  0  0  0  0
    7.4015    8.5655   -7.7673 H   0  0  0  0  0  0  0  0  0  0  0  0
    8.7964    7.4825   -7.8471 H   0  0  0  0  0  0  0  0  0  0  0  0
   10.2240    9.2436   -6.7931 H   0  0  0  0  0  0  0  0  0  0  0  0
    8.8291   10.3267   -6.7132 H   0  0  0  0  0  0  0  0  0  0  0  0
    8.5930   10.2058   -9.1993 H   0  0  0  0  0  0  0  0  0  0  0  0
    9.9880    9.1228   -9.2791 H   0  0  0  0  0  0  0  0  0  0  0  0
   11.4150   10.8844   -8.2238 H   0  0  0  0  0  0  0  0  0  0  0  0
   10.0200   11.9674   -8.1464 H   0  0  0  0  0  0  0  0  0  0  0  0
    9.7867   11.8445  -10.6327 H   0  0  0  0  0  0  0  0  0  0  0  0
   11.1817   10.7614  -10.7100 H   0  0  0  0  0  0  0  0  0  0  0  0
   12.6082   12.5235   -9.6559 H   0  0  0  0  0  0  0  0  0  0  0  0
   11.2131   13.6065   -9.5785 H   0  0  0  0  0  0  0  0  0  0  0  0
   10.9798   13.4835  -12.0647 H   0  0  0  0  0  0  0  0  0  0  0  0
   12.3749   12.4005  -12.1421 H   0  0  0  0  0  0  0  0  0  0  0  0
   13.8013   14.1625  -11.0880 H   0  0  0  0  0  0  0  0  0  0  0  0
   12.4063   15.2456  -11.0106 H   0  0  0  0  0  0  0  0  0  0  0  0
   12.1730   15.1226  -13.4968 H   0  0  0  0  0  0  0  0  0  0  0  0
   13.5680   14.0395  -13.5742 H   0  0  0  0  0  0  0  0  0  0  0  0
   14.9945   15.8016  -12.5201 H   0  0  0  0  0  0  0  0  0  0  0  0
   13.5994   16.8847  -12.4427 H   0  0  0  0  0  0  0  0  0  0  0  0
   13.3661   16.7617  -14.9289 H   0  0  0  0  0  0  0  0  0  0  0  0
   14.7612   15.6786  -15.0063 H   0  0  0  0  0  0  0  0  0  0  0  0
   16.1876   17.4407  -13.9521 H   0  0  0  0  0  0  0  0  0  0  0  0
   14.7926   18.5238  -13.8748 H   0  0  0  0  0  0  0  0  0  0  0  0
   14.5593   18.4008  -16.3610 H   0  0  0  0  0  0  0  0  0  0  0  0
   15.9543   17.3177  -16.4383 H   0  0  0  0  0  0  0  0  0  0  0  0
   17.3802   19.0802  -15.3830 H   0  0  0  0  0  0  0  0  0  0  0  0
   15.9851   20.1633  -15.3081 H   0  0  0  0  0  0  0  0  0  0  0  0
   15.7545   20.0382  -17.7945 H   0  0  0  0  0  0  0  0  0  0  0  0
   17.1497   18.9551  -17.8693 H   0  0  0  0  0  0  0  0  0  0  0  0
   18.5755   20.7176  -16.8164 H   0  0  0  0  0  0  0  0  0  0  0  0
   17.1804   21.8007  -16.7391 H   0  0  0  0  0  0  0  0  0  0  0  0
   16.9472   21.6777  -19.2253 H   0  0  0  0  0  0  0  0  0  0  0  0
   18.3422   20.5946  -19.3026 H   0  0  0  0  0  0  0  0  0  0  0  0
   19.7681   22.3571  -18.2472 H   0  0  0  0  0  0  0  0  0  0  0  0
   18.3729   23.4402  -18.1724 H   0  0  0  0  0  0  0  0  0  0  0  0
   18.1424   23.3151  -20.6587 H   0  0  0  0  0  0  0  0  0  0  0  0
   19.5376   22.2320  -20.7336 H   0  0  0  0  0  0  0  0  0  0  0  0
   20.9634   23.9946  -19.6807 H   0  0  0  0  0  0  0  0  0  0  0  0
   19.5683   25.0776  -19.6034 H   0  0  0  0  0  0  0  0  0  0  0  0
   19.3349   24.9533  -22.0900 H   0  0  0  0  0  0  0  0  0  0  0  0
   20.7314   23.8720  -22.1665 H   0  0  0  0  0  0  0  0  0  0  0  0
   22.1556   25.6358  -21.1135 H   0  0  0  0  0  0  0  0  0  0  0  0
   20.7592   26.7170  -21.0346 H   0  0  0  0  0  0  0  0  0  0  0  0
   20.5243   26.5952  -23.5206 H   0  0  0  0  0  0  0  0  0  0  0  0
   21.9207   25.5140  -23.5996 H   0  0  0  0  0  0  0  0  0  0  0  0
   23.3456   27.2773  -22.5454 H   0  0  0  0  0  0  0  0  0  0  0  0
   21.9491   28.3585  -22.4664 H   0  0  0  0  0  0  0  0  0  0  0  0
   21.7143   28.2368  -24.9525 H   0  0  0  0  0  0  0  0  0  0  0  0
   23.1107   27.1556  -25.0315 H   0  0  0  0  0  0  0  0  0  0  0  0
   24.5355   28.9189  -23.9773 H   0  0  0  0  0  0  0  0  0  0  0  0
   23.1391   30.0001  -23.8984 H   0  0  0  0  0  0  0  0  0  0  0  0
   22.9042   29.8783  -26.3845 H   0  0  0  0  0  0  0  0  0  0  0  0
   24.3006   28.7971  -26.4634 H   0  0  0  0  0  0  0  0  0  0  0  0
   25.7255   30.5604  -25.4092 H   0  0  0  0  0  0  0  0  0  0  0  0
   24.3291   31.6416  -25.3303 H   0  0  0  0  0  0  0  0  0  0  0  0
   24.0943   31.5212  -27.8159 H   0  0  0  0  0  0  0  0  0  0  0  0
   25.4893   30.4382  -27.8957 H   0  0  0  0  0  0  0  0  0  0  0  0
   26.9163   32.1998  -26.8404 H   0  0  0  0  0  0  0  0  0  0  0  0
   25.5213   33.2829  -26.7631 H   0  0  0  0  0  0  0  0  0  0  0  0
   25.2881   33.1612  -29.2489 H   0  0  0  0  0  0  0  0  0  0  0  0
   26.6817   32.0764  -29.3270 H   0  0  0  0  0  0  0  0  0  0  0  0
   28.1104   33.8367  -28.2718 H   0  0  0  0  0  0  0  0  0  0  0  0
   26.7167   34.9216  -28.1961 H   0  0  0  0  0  0  0  0  0  0  0  0
   26.4849   34.7961  -30.6829 H   0  0  0  0  0  0  0  0  0  0  0  0
   27.8800   33.7129  -30.7577 H   0  0  0  0  0  0  0  0  0  0  0  0
   29.3053   35.4759  -29.7035 H   0  0  0  0  0  0  0  0  0  0  0  0
   27.9101   36.5590  -29.6287 H   0  0  0  0  0  0  0  0  0  0  0  0
   27.6796   36.4339  -32.1150 H   0  0  0  0  0  0  0  0  0  0  0  0
   29.0747   35.3508  -32.1899 H   0  0  0  0  0  0  0  0  0  0  0  0
   30.5000   37.1138  -31.1357 H   0  0  0  0  0  0  0  0  0  0  0  0
   29.1048   38.1969  -31.0609 H   0  0  0  0  0  0  0  0  0  0  0  0
   28.8742   38.0704  -33.5477 H   0  0  0  0  0  0  0  0  0  0  0  0
   30.2708   36.9890  -33.6216 H   0  0  0  0  0  0  0  0  0  0  0  0
   31.6933   38.7542  -32.5673 H   0  0  0  0  0  0  0  0  0  0  0  0
   30.2967   39.8355  -32.4934 H   0  0  0  0  0  0  0  0  0  0  0  0
   30.0675   39.7108  -34.9793 H   0  0  0  0  0  0  0  0  0  0  0  0
   31.4626   38.6277  -35.0541 H   0  0  0  0  0  0  0  0  0  0  0  0
   32.8878   40.3906  -34.0000 H   0  0  0  0  0  0  0  0  0  0  0  0
   31.4927   41.4738  -33.9252 H   0  0  0  0  0  0  0  0  0  0  0  0
   31.2623   41.3500  -36.4110 H   0  0  0  0  0  0  0  0  0  0  0  0
   32.6560   40.2651  -36.4867 H   0  0  0  0  0  0  0  0  0  0  0  0
   34.0840   42.0259  -35.4327 H   0  0  0  0  0  0  0  0  0  0  0  0
   32.6903   43.1108  -35.3570 H   0  0  0  0  0  0  0  0  0  0  0  0
   32.4585   42.9853  -37.8438 H   0  0  0  0  0  0  0  0  0  0  0  0
   33.8536   41.9021  -37.9186 H   0  0  0  0  0  0  0  0  0  0  0  0
   35.2794   43.6646  -36.8657 H   0  0  0  0  0  0  0  0  0  0  0  0
   33.8844   44.7478  -36.7884 H   0  0  0  0  0  0  0  0  0  0  0  0
   33.6513   44.6261  -39.2742 H   0  0  0  0  0  0  0  0  0  0  0  0
   35.0448   43.5412  -39.3523 H   0  0  0  0  0  0  0  0  0  0  0  0
   36.4735   45.3016  -38.2971 H   0  0  0  0  0  0  0  0  0  0  0  0
   35.0798   46.3865  -38.2214 H   0  0  0  0  0  0  0  0  0  0  0  0
   34.8482   46.2636  -40.7072 H   0  0  0  0  0  0  0  0  0  0  0  0
   36.2405   45.1769  -40.7838 H   0  0  0  0  0  0  0  0  0  0  0  0
   37.6718   46.9351  -39.7311 H   0  0  0  0  0  0  0  0  0  0  0  0
   36.2797   48.0219  -39.6522 H   0  0  0  0  0  0  0  0  0  0  0  0
   36.0442   47.9021  -42.1378 H   0  0  0  0  0  0  0  0  0  0  0  0
   37.4348   46.8135  -42.2176 H   0  0  0  0  0  0  0  0  0  0  0  0
   38.8690   48.5696  -41.1627 H   0  0  0  0  0  0  0  0  0  0  0  0
   37.4783   49.6581  -41.0853 H   0  0  0  0  0  0  0  0  0  0  0  0
   37.2441   49.5344  -43.5720 H   0  0  0  0  0  0  0  0  0  0  0  0
   38.6362   48.4476  -43.6484 H   0  0  0  0  0  0  0  0  0  0  0  0
   40.0671   50.2062  -42.5946 H   0  0  0  0  0  0  0  0  0  0  0  0
   38.6749   51.2931  -42.5181 H   0  0  0  0  0  0  0  0  0  0  0  0
   38.4421   51.1711  -45.0038 H   0  0  0  0  0  0  0  0  0  0  0  0
   39.8329   50.0825  -45.0812 H   0  0  0  0  0  0  0  0  0  0  0  0
   41.2669   51.8385  -44.0288 H   0  0  0  0  0  0  0  0  0  0  0  0
   39.8764   52.9272  -43.9490 H   0  0  0  0  0  0  0  0  0  0  0  0
   39.6397   52.8083  -46.4345 H   0  0  0  0  0  0  0  0  0  0  0  0
   41.0288   51.7179  -46.5152 H   0  0  0  0  0  0  0  0  0  0  0  0
   42.4658   53.4718  -45.4604 H   0  0  0  0  0  0  0  0  0  0  0  0
   41.0765   54.5622  -45.3822 H   0  0  0  0  0  0  0  0  0  0  0  0
   40.8411   54.4393  -47.8688 H   0  0  0  0  0  0  0  0  0  0  0  0
   42.2318   53.3507  -47.9461 H   0  0  0  0  0  0  0  0  0  0  0  0
   43.6653   55.1072  -46.8924 H   0  0  0  0  0  0  0  0  0  0  0  0
   42.2746   56.1958  -46.8150 H   0  0  0  0  0  0  0  0  0  0  0  0
   42.0404   56.0720  -49.3017 H   0  0  0  0  0  0  0  0  0  0  0  0
   43.4326   54.9852  -49.3781 H   0  0  0  0  0  0  0  0  0  0  0  0
   44.8629   56.7439  -48.3224 H   0  0  0  0  0  0  0  0  0  0  0  0
   43.4702   57.8309  -48.2482 H   0  0  0  0  0  0  0  0  0  0  0  0
   43.2417   57.7069  -50.7342 H   0  0  0  0  0  0  0  0  0  0  0  0
   44.6328   56.6204  -50.8086 H   0  0  0  0  0  0  0  0  0  0  0  0
   46.0643   58.3811  -49.7514 H   0  0  0  0  0  0  0  0  0  0  0  0
   44.6724   59.4673  -49.6778 H   0  0  0  0  0  0  0  0  0  0  0  0
   44.4415   59.3392  -52.1671 H   0  0  0  0  0  0  0  0  0  0  0  0
   45.8339   58.2551  -52.2403 H   0  0  0  0  0  0  0  0  0  0  0  0
   47.2674   60.0250  -51.1983 H   0  0  0  0  0  0  0  0  0  0  0  0
   45.8737   61.1099  -51.1251 H   0  0  0  0  0  0  0  0  0  0  0  0
   47.0516   59.9097  -53.6840 H   0  0  0  0  0  0  0  0  0  0  0  0
   47.2577   61.5825  -53.1251 H   0  0  0  0  0  0  0  0  0  0  0  0
   45.6524   60.9990  -53.6105 H   0  0  0  0  0  0  0  0  0  0  0  0
  1  2  1  0  0  0  0
  1 80  1  0  0  0  0
  1 81  1  0  0  0  0
  1 82  1  0  0  0  0
  2  3  1  0  0  0  0
  2  6  1  0  0  0  0
  3  4  2  0  0  0  0
  3 83  1  0  0  0  0
  4  5  1  0  0  0  0
  4 84  1  0  0  0  0
  5  6  1  0  0  0  0
  5 85  1  0  0  0  0
  5 86  1  0  0  0  0
  6  7  1  0  0  0  0
  6 87  1  0  0  0  0
  7  8  1  0  0  0  0
  7 88  1  0  0  0  0
  7 89  1  0  0  0  0
  8  9  1  0  0  0  0
  8 90  1  0  0  0  0
  8 91  1  0  0  0  0
  9 10  1  0  0  0  0
  9 92  1  0  0  0  0
  9 93  1  0  0  0  0
 10 11  1  0  0  0  0
 10 94  1  0  0  0  0
 10 95  1  0  0  0  0
 11 12  1  0  0  0  0
 11 96  1  0  0  0  0
 11 97  1  0  0  0  0
 12 13  1  0  0  0  0
 12 98  1  0  0  0  0
 12 99  1  0  0  0  0
 13 14  1  0  0  0  0
 13100  1  0  0  0  0
 13101  1  0  0  0  0
 14 15  1  0  0  0  0
 14102  1  0  0  0  0
 14103  1  0  0  0  0
 15 16  1  0  0  0  0
 15104  1  0  0  0  0
 15105  1  0  0  0  0
 16 17  1  0  0  0  0
 16106  1  0  0  0  0
 16107  1  0  0  0  0
 17 18  1  0  0  0  0
 17108  1  0  0  0  0
 17109  1  0  0  0  0
 18 19  1  0  0  0  0
 18110  1  0  0  0  0
 18111  1  0  0  0  0
 19 20  1  0  0  0  0
 19112  1  0  0  0  0
 19113  1  0  0  0  0
 20 21  1  0  0  0  0
 20114  1  0  0  0  0
 20115  1  0  0  0  0
 21 22  1  0  0  0  0
 21116  1  0  0  0  0
 21117  1  0  0  0  0
 22 23  1  0  0  0  0
 22118  1  0  0  0  0
 22119  1  0  0  0  0
 23 24  1  0  0  0  0
 23120  1  0  0  0  0
 23121  1  0  0  0  0
 24 25  1  0  0  0  0
 24122  1  0  0  0  0
 24123  1  0  0  0  0
 25 26  1  0  0  0  0
 25124  1  0  0  0  0
 25125  1  0  0  0  0
 26 27  1  0  0  0  0
 26126  1  0  0  0  0
 26127  1  0  0  0  0
 27 28  1  0  0  0  0
 27128  1  0  0  0  0
 27129  1  0  0  0  0
 28 29  1  0  0  0  0
 28130  1  0  0  0  0
 28131  1  0  0  0  0
 29 30  1  0  0  0  0
 29132  1  0  0  0  0
 29133  1  0  0  0  0
 30 31  1  0  0  0  0
 30134  1  0  0  0  0
 30135  1  0  0  0  0
 31 32  1  0  0  0  0
 31136  1  0  0  0  0
 31137  1  0  0  0  0
 32 33  1  0  0  0  0
 32138  1  0  0  0  0
 32139  1  0  0  0  0
 33 34  1  0  0  0  0
 33140  1  0  0  0  0
 33141  1  0  0  0  0
 34 35  1  0  0  0  0
 34142  1  0  0  0  0
 34143  1  0  0  0  0
 35 36  1  0  0  0  0
 35144  1  0  0  0  0
 35145  1  0  0  0  0
 36 37  1  0  0  0  0
 36146  1  0  0  0  0
 36147  1  0  0  0  0
 37 38  1  0  0  0  0
 37148  1  0  0  0  0
 37149  1  0  0  0  0
 38 39  1  0  0  0  0
 38150  1  0  0  0  0
 38151  1  0  0  0  0
 39 40  1  0  0  0  0
 39152  1  0  0  0  0
 39153  1  0  0  0  0
 40 41  1  0  0  0  0
 40154  1  0  0  0  0
 40155  1  0  0  0  0
 41 42  1  0  0  0  0
 41156  1  0  0  0  0
 41157  1  0  0  0  0
 42 43  1  0  0  0  0
 42158  1  0  0  0  0
 42159  1  0  0  0  0
 43 44  1  0  0  0  0
 43160  1  0  0  0  0
 43161  1  0  0  0  0
 44 45  1  0  0  0  0
 44162  1  0  0  0  0
 44163  1  0  0  0  0
 45 46  1  0  0  0  0
 45164  1  0  0  0  0
 45165  1  0  0  0  0
 46 47  1  0  0  0  0
 46166  1  0  0  0  0
 46167  1  0  0  0  0
 47 48  1  0  0  0  0
 47168  1  0  0  0  0
 47169  1  0  0  0  0
 48 49  1  0  0  0  0
 48170  1  0  0  0  0
 48171  1  0  0  0  0
 49 50  1  0  0  0  0
 49172  1  0  0  0  0
 49173  1  0  0  0  0
 50 51  1  0  0  0  0
 50174  1  0  0  0  0
 50175  1  0  0  0  0
 51 52  1  0  0  0  0
 51176  1  0  0  0  0
 51177  1  0  0  0  0
 52 53  1  0  0  0  0
 52178  1  0  0  0  0
 52179  1  0  0  0  0
 53 54  1  0  0  0  0
 53180  1  0  0  0  0
 53181  1  0  0  0  0
 54 55  1  0  0  0  0
 54182  1  0  0  0  0
 54183  1  0  0  0  0
 55 56  1  0  0  0  0
 55184  1  0  0  0  0
 55185  1  0  0  0  0
 56 57  1  0  0  0  0
 56186  1  0  0  0  0
 56187  1  0  0  0  0
 57 58  1  0  0  0  0
 57188  1  0  0  0  0
 57189  1  0  0  0  0
 58 59  1  0  0  0  0
 58190  1  0  0  0  0
 58191  1  0  0  0  0
 59 60  1  0  0  0  0
 59192  1  0  0  0  0
 59193  1  0  0  0  0
 60 61  1  0  0  0  0
 60194  1  0  0  0  0
 60195  1  0  0  0  0
 61 62  1  0  0  0  0
 61196  1  0  0  0  0
 61197  1  0  0  0  0
 62 63  1  0  0  0  0
 62198  1  0  0  0  0
 62199  1  0  0  0  0
 63 64  1  0  0  0  0
 63200  1  0  0  0  0
 63201  1  0  0  0  0
 64 65  1  0  0  0  0
 64202  1  0  0  0  0
 64203  1  0  0  0  0
 65 66  1  0  0  0  0
 65204  1  0  0  0  0
 65205  1  0  0  0  0
 66 67  1  0  0  0  0
 66206  1  0  0  0  0
 66207  1  0  0  0  0
 67 68  1  0  0  0  0
 67208  1  0  0  0  0
 67209  1  0  0  0  0
 68 69  1  0  0  0  0
 68210  1  0  0  0  0
 68211  1  0  0  0  0
 69 70  1  0  0  0  0
 69212  1  0  0  0  0
 69213  1  0  0  0  0
 70 71  1  0  0  0  0
 70214  1  0  0  0  0
 70215  1  0  0  0  0
 71 72  1  0  0  0  0
 71216  1  0  0  0  0
 71217  1  0  0  0  0
 72 73  1  0  0  0  0
 72218  1  0  0  0  0
 72219  1  0  0  0  0
 73 74  1  0  0  0  0
 73220  1  0  0  0  0
 73221  1  0  0  0  0
 74 75  1  0  0  0  0
 74222  1  0  0  0  0
 74223  1  0  0  0  0
 75 76  1  0  0  0  0
 75224  1  0  0  0  0
 75225  1  0  0  0  0
 76 77  1  0  0  0  0
 76226  1  0  0  0  0
 76227  1  0  0  0  0
 77 78  1  0  0  0  0
 77228  1  0  0  0  0
 77229  1  0  0  0  0
 78 79  1  0  0  0  0
 78230  1  0  0  0  0
 78231  1  0  0  0  0
 79232  1  0  0  0  0
 79233  1  0  0  0  0
 79234  1  0  0  0  0
M  END
$$$$
