
 OpenBabel04232216523D

 50 51  0  0  1  0  0  0  0  0999 V2000
    4.8907   -4.9940    1.6679 C   0  0  0  0  0  0  0  0  0  0  0  0
    5.8697   -3.8314    1.6187 C   0  0  0  0  0  0  0  0  0  0  0  0
    5.1381   -2.4905    1.5287 C   0  0  0  0  0  0  0  0  0  0  0  0
    6.0883   -1.2851    1.4921 C   0  0  3  0  0  0  0  0  0  0  0  0
    6.9937   -1.2723    0.2871 C   0  0  0  0  0  0  0  0  0  0  0  0
    6.7545   -0.1925   -0.4825 C   0  0  0  0  0  0  0  0  0  0  0  0
    7.4463    0.0599   -1.7211 C   0  0  0  0  0  0  0  0  0  0  0  0
    7.2195    1.1253   -2.5023 C   0  0  0  0  0  0  0  0  0  0  0  0
    7.9109    1.3971   -3.8024 C   0  0  0  0  0  0  0  0  0  0  0  0
    8.6878    2.7169   -3.7685 C   0  0  0  0  0  0  0  0  0  0  0  0
    8.7383    3.4190   -2.7563 O   0  0  0  0  0  0  0  0  0  0  0  0
    9.3900    3.1895   -5.0205 C   0  0  0  0  0  0  0  0  0  0  0  0
    9.0641    2.6494   -6.2071 C   0  0  0  0  0  0  0  0  0  0  0  0
    9.4509    3.0959   -7.5344 C   0  0  0  0  0  0  0  0  0  0  0  0
    8.4680    2.6959   -8.6325 C   0  0  0  0  0  0  0  0  0  0  0  0
    7.0549    3.2439   -8.4391 C   0  0  0  0  0  0  0  0  0  0  0  0
   10.5725    3.7637   -7.8588 C   0  0  0  0  0  0  0  0  0  0  0  0
   11.7165    4.2536   -7.0217 C   0  0  0  0  0  0  0  0  0  0  0  0
   11.7275    3.9817   -5.5226 C   0  0  0  0  0  0  0  0  0  0  0  0
   10.4072    4.2828   -4.8194 C   0  0  0  0  0  0  0  0  0  0  0  0
    5.7152    0.5920    0.1671 C   0  0  0  0  0  0  0  0  0  0  0  0
    5.3248   -0.0031    1.3011 C   0  0  0  0  0  0  0  0  0  0  0  0
    5.4336   -5.9433    1.7092 H   0  0  0  0  0  0  0  0  0  0  0  0
    4.2542   -5.0067    0.7768 H   0  0  0  0  0  0  0  0  0  0  0  0
    4.2472   -4.9291    2.5502 H   0  0  0  0  0  0  0  0  0  0  0  0
    6.5227   -3.9691    0.7503 H   0  0  0  0  0  0  0  0  0  0  0  0
    6.5048   -3.8512    2.5117 H   0  0  0  0  0  0  0  0  0  0  0  0
    4.4688   -2.3885    2.3938 H   0  0  0  0  0  0  0  0  0  0  0  0
    4.4930   -2.4920    0.6392 H   0  0  0  0  0  0  0  0  0  0  0  0
    6.6846   -1.2333    2.4114 H   0  0  0  0  0  0  0  0  0  0  0  0
    7.7290   -2.0349    0.0809 H   0  0  0  0  0  0  0  0  0  0  0  0
    8.1873   -0.6809   -2.0243 H   0  0  0  0  0  0  0  0  0  0  0  0
    6.4890    1.8765   -2.2054 H   0  0  0  0  0  0  0  0  0  0  0  0
    7.1286    1.4560   -4.5663 H   0  0  0  0  0  0  0  0  0  0  0  0
    8.6069    0.5890   -4.0569 H   0  0  0  0  0  0  0  0  0  0  0  0
    8.3469    1.8336   -6.2488 H   0  0  0  0  0  0  0  0  0  0  0  0
    8.4231    1.6007   -8.6887 H   0  0  0  0  0  0  0  0  0  0  0  0
    8.8267    3.0335   -9.6127 H   0  0  0  0  0  0  0  0  0  0  0  0
    6.5845    2.8484   -7.5325 H   0  0  0  0  0  0  0  0  0  0  0  0
    6.4232    2.9520   -9.2849 H   0  0  0  0  0  0  0  0  0  0  0  0
    7.0554    4.3365   -8.3756 H   0  0  0  0  0  0  0  0  0  0  0  0
   10.7082    4.0208   -8.9108 H   0  0  0  0  0  0  0  0  0  0  0  0
   11.7885    5.3383   -7.1734 H   0  0  0  0  0  0  0  0  0  0  0  0
   12.6381    3.8308   -7.4430 H   0  0  0  0  0  0  0  0  0  0  0  0
   12.5093    4.6123   -5.0779 H   0  0  0  0  0  0  0  0  0  0  0  0
   12.0344    2.9451   -5.3314 H   0  0  0  0  0  0  0  0  0  0  0  0
    9.9951    5.2493   -5.1309 H   0  0  0  0  0  0  0  0  0  0  0  0
   10.6479    4.3807   -3.7538 H   0  0  0  0  0  0  0  0  0  0  0  0
    5.3292    1.5241   -0.2164 H   0  0  0  0  0  0  0  0  0  0  0  0
    4.5729    0.3762    1.9776 H   0  0  0  0  0  0  0  0  0  0  0  0
  1  2  1  0  0  0  0
  1 23  1  0  0  0  0
  1 24  1  0  0  0  0
  1 25  1  0  0  0  0
  2  3  1  0  0  0  0
  2 26  1  0  0  0  0
  2 27  1  0  0  0  0
  3  4  1  0  0  0  0
  3 28  1  0  0  0  0
  3 29  1  0  0  0  0
  4  5  1  0  0  0  0
  4 22  1  0  0  0  0
  4 30  1  0  0  0  0
  5  6  2  0  0  0  0
  5 31  1  0  0  0  0
  6  7  1  0  0  0  0
  6 21  1  0  0  0  0
  7  8  2  0  0  0  0
  7 32  1  0  0  0  0
  8  9  1  0  0  0  0
  8 33  1  0  0  0  0
  9 10  1  0  0  0  0
  9 34  1  0  0  0  0
  9 35  1  0  0  0  0
 10 11  2  0  0  0  0
 10 12  1  0  0  0  0
 12 13  2  0  0  0  0
 12 20  1  0  0  0  0
 13 14  1  0  0  0  0
 13 36  1  0  0  0  0
 14 15  1  0  0  0  0
 14 17  2  0  0  0  0
 15 16  1  0  0  0  0
 15 37  1  0  0  0  0
 15 38  1  0  0  0  0
 16 39  1  0  0  0  0
 16 40  1  0  0  0  0
 16 41  1  0  0  0  0
 17 18  1  0  0  0  0
 17 42  1  0  0  0  0
 18 19  1  0  0  0  0
 18 43  1  0  0  0  0
 18 44  1  0  0  0  0
 19 20  1  0  0  0  0
 19 45  1  0  0  0  0
 19 46  1  0  0  0  0
 20 47  1  0  0  0  0
 20 48  1  0  0  0  0
 21 22  2  0  0  0  0
 21 49  1  0  0  0  0
 22 50  1  0  0  0  0
M  END
$$$$
