
 OpenBabel04232216573D

106106  0  0  0  0  0  0  0  0999 V2000
   10.0504    3.1732    0.5785 C   0  0  0  0  0  0  0  0  0  0  0  0
    9.3335    2.0122    0.1735 O   0  0  0  0  0  0  0  0  0  0  0  0
    8.0267    2.1513   -0.2938 C   0  0  0  0  0  0  0  0  0  0  0  0
    7.7855    1.1016   -1.2797 C   0  0  0  0  0  0  0  0  0  0  0  0
    7.0451    1.1008   -2.4005 C   0  0  0  0  0  0  0  0  0  0  0  0
    6.1974    2.1894   -2.8560 C   0  0  0  0  0  0  0  0  0  0  0  0
    6.9545    3.4314   -3.2696 C   0  0  0  0  0  0  0  0  0  0  0  0
    8.1592    3.2292   -4.1884 C   0  0  0  0  0  0  0  0  0  0  0  0
    8.9499    4.5282   -4.1569 C   0  0  0  0  0  0  0  0  0  0  0  0
   10.1130    4.5098   -5.1197 C   0  0  0  0  0  0  0  0  0  0  0  0
   10.8369    5.8417   -5.0308 C   0  0  0  0  0  0  0  0  0  0  0  0
   11.9786    5.8551   -6.0175 C   0  0  0  0  0  0  0  0  0  0  0  0
   12.7134    7.1773   -5.9546 C   0  0  0  0  0  0  0  0  0  0  0  0
   13.8357    7.1424   -6.9685 C   0  0  0  0  0  0  0  0  0  0  0  0
   14.5930    8.4489   -6.9457 C   0  0  0  0  0  0  0  0  0  0  0  0
   15.7036    8.3869   -7.9722 C   0  0  0  0  0  0  0  0  0  0  0  0
   16.4700    9.6866   -7.9477 C   0  0  0  0  0  0  0  0  0  0  0  0
   17.5824    9.6320   -8.9693 C   0  0  0  0  0  0  0  0  0  0  0  0
   18.3509   10.9341   -8.9322 C   0  0  0  0  0  0  0  0  0  0  0  0
   19.4612   10.8849   -9.9565 C   0  0  0  0  0  0  0  0  0  0  0  0
   20.2325   12.1858   -9.9288 C   0  0  0  0  0  0  0  0  0  0  0  0
   21.3437   12.1214  -10.9546 C   0  0  0  0  0  0  0  0  0  0  0  0
   22.1270   13.4168  -10.9437 C   0  0  0  0  0  0  0  0  0  0  0  0
   23.2395   13.3421  -11.9715 C   0  0  0  0  0  0  0  0  0  0  0  0
   24.0243   14.6376  -11.9624 C   0  0  0  0  0  0  0  0  0  0  0  0
   25.1388   14.5747  -12.9889 C   0  0  0  0  0  0  0  0  0  0  0  0
   25.9241   15.8742  -12.9751 C   0  0  0  0  0  0  0  0  0  0  0  0
   27.0403   15.8170  -14.0028 C   0  0  0  0  0  0  0  0  0  0  0  0
   27.8330   17.1147  -13.9985 C   0  0  0  0  0  0  0  0  0  0  0  0
   28.9490   17.0516  -15.0314 C   0  0  0  0  0  0  0  0  0  0  0  0
   29.7491   18.3472  -15.0373 C   0  0  0  0  0  0  0  0  0  0  0  0
   30.8687   18.2806  -16.0700 C   0  0  0  0  0  0  0  0  0  0  0  0
   31.6723   19.5750  -16.0824 C   0  0  0  0  0  0  0  0  0  0  0  0
   32.7912   19.5221  -17.1096 C   0  0  0  0  0  0  0  0  0  0  0  0
   33.4978   20.7590  -17.0644 O   0  0  0  0  0  0  0  0  0  0  0  0
   34.5467   20.6394  -18.0651 O   0  0  0  0  0  0  0  0  0  0  0  0
    5.0864    2.3094   -2.1051 C   0  0  0  0  0  0  0  0  0  0  0  0
    4.9547    3.2903   -1.0529 C   0  0  0  0  0  0  0  0  0  0  0  0
    5.8433    3.5607   -0.0855 C   0  0  0  0  0  0  0  0  0  0  0  0
    7.1957    3.1009    0.1863 C   0  0  0  0  0  0  0  0  0  0  0  0
   11.0643    3.0926    0.1752 H   0  0  0  0  0  0  0  0  0  0  0  0
   10.1159    3.1934    1.6697 H   0  0  0  0  0  0  0  0  0  0  0  0
    9.6264    4.1097    0.2028 H   0  0  0  0  0  0  0  0  0  0  0  0
    8.3745    0.1975   -1.1056 H   0  0  0  0  0  0  0  0  0  0  0  0
    7.0530    0.2204   -3.0425 H   0  0  0  0  0  0  0  0  0  0  0  0
    7.2991    3.9734   -2.3839 H   0  0  0  0  0  0  0  0  0  0  0  0
    6.2537    4.1091   -3.7772 H   0  0  0  0  0  0  0  0  0  0  0  0
    7.8236    2.9996   -5.2064 H   0  0  0  0  0  0  0  0  0  0  0  0
    8.8102    2.4110   -3.8599 H   0  0  0  0  0  0  0  0  0  0  0  0
    9.3321    4.6971   -3.1394 H   0  0  0  0  0  0  0  0  0  0  0  0
    8.2895    5.3736   -4.3968 H   0  0  0  0  0  0  0  0  0  0  0  0
    9.7532    4.3444   -6.1420 H   0  0  0  0  0  0  0  0  0  0  0  0
   10.8004    3.6910   -4.8751 H   0  0  0  0  0  0  0  0  0  0  0  0
   11.2159    6.0014   -4.0121 H   0  0  0  0  0  0  0  0  0  0  0  0
   10.1439    6.6624   -5.2503 H   0  0  0  0  0  0  0  0  0  0  0  0
   11.5928    5.6935   -7.0318 H   0  0  0  0  0  0  0  0  0  0  0  0
   12.6712    5.0339   -5.7974 H   0  0  0  0  0  0  0  0  0  0  0  0
   13.1164    7.3441   -4.9483 H   0  0  0  0  0  0  0  0  0  0  0  0
   12.0294    8.0057   -6.1748 H   0  0  0  0  0  0  0  0  0  0  0  0
   13.4275    6.9655   -7.9725 H   0  0  0  0  0  0  0  0  0  0  0  0
   14.5187    6.3115   -6.7486 H   0  0  0  0  0  0  0  0  0  0  0  0
   15.0102    8.6261   -5.9472 H   0  0  0  0  0  0  0  0  0  0  0  0
   13.9170    9.2826   -7.1710 H   0  0  0  0  0  0  0  0  0  0  0  0
   15.2850    8.2132   -8.9710 H   0  0  0  0  0  0  0  0  0  0  0  0
   16.3749    7.5481   -7.7511 H   0  0  0  0  0  0  0  0  0  0  0  0
   16.8864    9.8593   -6.9473 H   0  0  0  0  0  0  0  0  0  0  0  0
   15.7976   10.5252   -8.1685 H   0  0  0  0  0  0  0  0  0  0  0  0
   17.1664    9.4664   -9.9709 H   0  0  0  0  0  0  0  0  0  0  0  0
   18.2531    8.7912   -8.7528 H   0  0  0  0  0  0  0  0  0  0  0  0
   18.7683   11.0957   -7.9306 H   0  0  0  0  0  0  0  0  0  0  0  0
   17.6782   11.7743   -9.1442 H   0  0  0  0  0  0  0  0  0  0  0  0
   19.0423   10.7176  -10.9564 H   0  0  0  0  0  0  0  0  0  0  0  0
   20.1327   10.0444   -9.7408 H   0  0  0  0  0  0  0  0  0  0  0  0
   20.6496   12.3560   -8.9282 H   0  0  0  0  0  0  0  0  0  0  0  0
   19.5629   13.0263  -10.1490 H   0  0  0  0  0  0  0  0  0  0  0  0
   20.9218   11.9451  -11.9518 H   0  0  0  0  0  0  0  0  0  0  0  0
   22.0083   11.2767  -10.7305 H   0  0  0  0  0  0  0  0  0  0  0  0
   22.5510   13.5881   -9.9464 H   0  0  0  0  0  0  0  0  0  0  0  0
   21.4665   14.2644  -11.1677 H   0  0  0  0  0  0  0  0  0  0  0  0
   22.8148   13.1639  -12.9677 H   0  0  0  0  0  0  0  0  0  0  0  0
   23.9027   12.4975  -11.7463 H   0  0  0  0  0  0  0  0  0  0  0  0
   24.4437   14.8107  -10.9636 H   0  0  0  0  0  0  0  0  0  0  0  0
   23.3563   15.4786  -12.1851 H   0  0  0  0  0  0  0  0  0  0  0  0
   24.7171   14.4007  -13.9866 H   0  0  0  0  0  0  0  0  0  0  0  0
   25.8038   13.7310  -12.7665 H   0  0  0  0  0  0  0  0  0  0  0  0
   26.3430   16.0446  -11.9760 H   0  0  0  0  0  0  0  0  0  0  0  0
   25.2550   16.7150  -13.1946 H   0  0  0  0  0  0  0  0  0  0  0  0
   26.6173   15.6420  -15.0001 H   0  0  0  0  0  0  0  0  0  0  0  0
   27.7054   14.9729  -13.7811 H   0  0  0  0  0  0  0  0  0  0  0  0
   28.2551   17.2873  -13.0012 H   0  0  0  0  0  0  0  0  0  0  0  0
   27.1659   17.9571  -14.2190 H   0  0  0  0  0  0  0  0  0  0  0  0
   28.5222   16.8729  -16.0259 H   0  0  0  0  0  0  0  0  0  0  0  0
   29.6105   16.2058  -14.8069 H   0  0  0  0  0  0  0  0  0  0  0  0
   30.1721   18.5226  -14.0408 H   0  0  0  0  0  0  0  0  0  0  0  0
   29.0856   19.1914  -15.2616 H   0  0  0  0  0  0  0  0  0  0  0  0
   30.4419   18.0993  -17.0641 H   0  0  0  0  0  0  0  0  0  0  0  0
   31.5291   17.4347  -15.8425 H   0  0  0  0  0  0  0  0  0  0  0  0
   32.0959   19.7664  -15.0879 H   0  0  0  0  0  0  0  0  0  0  0  0
   31.0176   20.4285  -16.2992 H   0  0  0  0  0  0  0  0  0  0  0  0
   32.3829   19.3751  -18.1160 H   0  0  0  0  0  0  0  0  0  0  0  0
   33.4845   18.7052  -16.8812 H   0  0  0  0  0  0  0  0  0  0  0  0
   34.9275   21.5214  -17.9183 H   0  0  0  0  0  0  0  0  0  0  0  0
    4.1463    2.0970   -2.6167 H   0  0  0  0  0  0  0  0  0  0  0  0
    4.0066    3.8266   -1.0490 H   0  0  0  0  0  0  0  0  0  0  0  0
    5.5313    4.3436    0.6118 H   0  0  0  0  0  0  0  0  0  0  0  0
    7.6062    3.7153    0.9900 H   0  0  0  0  0  0  0  0  0  0  0  0
  1  2  1  0  0  0  0
  1 41  1  0  0  0  0
  1 42  1  0  0  0  0
  1 43  1  0  0  0  0
  2  3  1  0  0  0  0
  3  4  1  0  0  0  0
  3 40  2  0  0  0  0
  4  5  2  0  0  0  0
  4 44  1  0  0  0  0
  5  6  1  0  0  0  0
  5 45  1  0  0  0  0
  6  7  1  0  0  0  0
  6 37  2  0  0  0  0
  7  8  1  0  0  0  0
  7 46  1  0  0  0  0
  7 47  1  0  0  0  0
  8  9  1  0  0  0  0
  8 48  1  0  0  0  0
  8 49  1  0  0  0  0
  9 10  1  0  0  0  0
  9 50  1  0  0  0  0
  9 51  1  0  0  0  0
 10 11  1  0  0  0  0
 10 52  1  0  0  0  0
 10 53  1  0  0  0  0
 11 12  1  0  0  0  0
 11 54  1  0  0  0  0
 11 55  1  0  0  0  0
 12 13  1  0  0  0  0
 12 56  1  0  0  0  0
 12 57  1  0  0  0  0
 13 14  1  0  0  0  0
 13 58  1  0  0  0  0
 13 59  1  0  0  0  0
 14 15  1  0  0  0  0
 14 60  1  0  0  0  0
 14 61  1  0  0  0  0
 15 16  1  0  0  0  0
 15 62  1  0  0  0  0
 15 63  1  0  0  0  0
 16 17  1  0  0  0  0
 16 64  1  0  0  0  0
 16 65  1  0  0  0  0
 17 18  1  0  0  0  0
 17 66  1  0  0  0  0
 17 67  1  0  0  0  0
 18 19  1  0  0  0  0
 18 68  1  0  0  0  0
 18 69  1  0  0  0  0
 19 20  1  0  0  0  0
 19 70  1  0  0  0  0
 19 71  1  0  0  0  0
 20 21  1  0  0  0  0
 20 72  1  0  0  0  0
 20 73  1  0  0  0  0
 21 22  1  0  0  0  0
 21 74  1  0  0  0  0
 21 75  1  0  0  0  0
 22 23  1  0  0  0  0
 22 76  1  0  0  0  0
 22 77  1  0  0  0  0
 23 24  1  0  0  0  0
 23 78  1  0  0  0  0
 23 79  1  0  0  0  0
 24 25  1  0  0  0  0
 24 80  1  0  0  0  0
 24 81  1  0  0  0  0
 25 26  1  0  0  0  0
 25 82  1  0  0  0  0
 25 83  1  0  0  0  0
 26 27  1  0  0  0  0
 26 84  1  0  0  0  0
 26 85  1  0  0  0  0
 27 28  1  0  0  0  0
 27 86  1  0  0  0  0
 27 87  1  0  0  0  0
 28 29  1  0  0  0  0
 28 88  1  0  0  0  0
 28 89  1  0  0  0  0
 29 30  1  0  0  0  0
 29 90  1  0  0  0  0
 29 91  1  0  0  0  0
 30 31  1  0  0  0  0
 30 92  1  0  0  0  0
 30 93  1  0  0  0  0
 31 32  1  0  0  0  0
 31 94  1  0  0  0  0
 31 95  1  0  0  0  0
 32 33  1  0  0  0  0
 32 96  1  0  0  0  0
 32 97  1  0  0  0  0
 33 34  1  0  0  0  0
 33 98  1  0  0  0  0
 33 99  1  0  0  0  0
 34 35  1  0  0  0  0
 34100  1  0  0  0  0
 34101  1  0  0  0  0
 35 36  1  0  0  0  0
 36102  1  0  0  0  0
 37 38  1  0  0  0  0
 37103  1  0  0  0  0
 38 39  2  0  0  0  0
 38104  1  0  0  0  0
 39 40  1  0  0  0  0
 39105  1  0  0  0  0
 40106  1  0  0  0  0
M  END
$$$$
