
 OpenBabel04232216443D

 45 45  0  0  1  0  0  0  0  0999 V2000
    3.8014   -0.6352   -0.0101 C   0  0  0  0  0  0  0  0  0  0  0  0
    4.4423   -0.1062    1.2734 C   0  0  0  0  0  0  0  0  0  0  0  0
    3.6724    0.5932    2.1712 C   0  0  0  0  0  0  0  0  0  0  0  0
    2.1655    0.6942    2.3165 C   0  0  0  0  0  0  0  0  0  0  0  0
    1.5483    2.0682    2.0759 C   0  0  0  0  0  0  0  0  0  0  0  0
    1.3168    2.3823    0.5833 C   0  0  0  0  0  0  0  0  0  0  0  0
    4.4499    1.3795    3.1510 C   0  0  0  0  0  0  0  0  0  0  0  0
    4.7844    2.7934    3.7099 C   0  0  0  0  0  0  0  0  0  0  0  0
    6.1870    3.0763    3.0783 C   0  0  0  0  0  0  0  0  0  0  0  0
    7.5112    3.2396    3.6126 N   0  0  0  0  0  0  0  0  0  0  0  0
    8.3946    2.2948    2.9553 C   0  0  0  0  0  0  0  0  0  0  0  0
    9.3047    2.7047    2.2499 O   0  0  0  0  0  0  0  0  0  0  0  0
    8.0324    0.7203    3.1380 C   0  0  3  0  0  0  0  0  0  0  0  0
    7.8767    0.5763    4.6894 C   0  0  0  0  0  0  0  0  0  0  0  0
    7.7201   -0.7462    5.4181 C   0  0  0  0  0  0  0  0  0  0  0  0
    8.9056   -1.6732    5.3713 C   0  0  0  0  0  0  0  0  0  0  0  0
    9.8504   -1.5733    4.6071 O   0  0  0  0  0  0  0  0  0  0  0  0
    8.8198   -2.6564    6.2959 O   0  0  0  0  0  0  0  0  0  0  0  0
    7.1680    0.0019    1.9625 C   0  0  0  0  0  0  0  0  0  0  0  0
    5.9788   -0.2945    1.3189 C   0  0  0  0  0  0  0  0  0  0  0  0
    2.7208   -0.4568   -0.0641 H   0  0  0  0  0  0  0  0  0  0  0  0
    3.9633   -1.7094   -0.1423 H   0  0  0  0  0  0  0  0  0  0  0  0
    4.2260   -0.1130   -0.8801 H   0  0  0  0  0  0  0  0  0  0  0  0
    1.9559    0.4271    3.3609 H   0  0  0  0  0  0  0  0  0  0  0  0
    1.6412   -0.0666    1.7266 H   0  0  0  0  0  0  0  0  0  0  0  0
    2.1262    2.8792    2.5154 H   0  0  0  0  0  0  0  0  0  0  0  0
    0.5768    2.0909    2.5800 H   0  0  0  0  0  0  0  0  0  0  0  0
    2.2614    2.4651    0.0665 H   0  0  0  0  0  0  0  0  0  0  0  0
    0.7905    3.3421    0.5148 H   0  0  0  0  0  0  0  0  0  0  0  0
    0.7016    1.6179    0.1351 H   0  0  0  0  0  0  0  0  0  0  0  0
    4.9701    1.6655    2.2305 H   0  0  0  0  0  0  0  0  0  0  0  0
    4.9862    0.6501    3.7661 H   0  0  0  0  0  0  0  0  0  0  0  0
    4.7981    2.7591    4.8005 H   0  0  0  0  0  0  0  0  0  0  0  0
    4.0656    3.5476    3.3800 H   0  0  0  0  0  0  0  0  0  0  0  0
    6.1387    3.4222    2.0411 H   0  0  0  0  0  0  0  0  0  0  0  0
    6.3828    2.0383    2.9553 H   0  0  0  0  0  0  0  0  0  0  0  0
    7.5394    3.1791    4.6185 H   0  0  0  0  0  0  0  0  0  0  0  0
    9.0294    0.2744    2.9636 H   0  0  0  0  0  0  0  0  0  0  0  0
    7.0435    1.1964    5.0303 H   0  0  0  0  0  0  0  0  0  0  0  0
    8.7764    1.0575    5.1200 H   0  0  0  0  0  0  0  0  0  0  0  0
    6.8174   -1.2667    5.0974 H   0  0  0  0  0  0  0  0  0  0  0  0
    7.6000   -0.4743    6.4799 H   0  0  0  0  0  0  0  0  0  0  0  0
    8.0204   -2.6233    6.8544 H   0  0  0  0  0  0  0  0  0  0  0  0
    7.9782   -0.4852    1.3870 H   0  0  0  0  0  0  0  0  0  0  0  0
    6.1986   -0.9265    0.4432 H   0  0  0  0  0  0  0  0  0  0  0  0
  1  2  1  0  0  0  0
  1 21  1  0  0  0  0
  1 22  1  0  0  0  0
  1 23  1  0  0  0  0
  2  3  2  3  0  0  0
  2 20  1  0  0  0  0
  3  4  1  0  0  0  0
  3  7  1  0  0  0  0
  4  5  1  0  0  0  0
  4 24  1  0  0  0  0
  4 25  1  0  0  0  0
  5  6  1  0  0  0  0
  5 26  1  0  0  0  0
  5 27  1  0  0  0  0
  6 28  1  0  0  0  0
  6 29  1  0  0  0  0
  6 30  1  0  0  0  0
  7  8  1  0  0  0  0
  7 31  1  0  0  0  0
  7 32  1  0  0  0  0
  8  9  1  0  0  0  0
  8 33  1  0  0  0  0
  8 34  1  0  0  0  0
  9 10  1  0  0  0  0
  9 35  1  0  0  0  0
  9 36  1  0  0  0  0
 10 11  1  0  0  0  0
 10 37  1  0  0  0  0
 11 12  2  0  0  0  0
 11 13  1  0  0  0  0
 13 14  1  0  0  0  0
 13 19  1  0  0  0  0
 13 38  1  0  0  0  0
 14 15  1  0  0  0  0
 14 39  1  0  0  0  0
 14 40  1  0  0  0  0
 15 16  1  0  0  0  0
 15 41  1  0  0  0  0
 15 42  1  0  0  0  0
 16 17  2  0  0  0  0
 16 18  1  0  0  0  0
 18 43  1  0  0  0  0
 19 20  2  3  0  0  0
 19 44  1  0  0  0  0
 20 45  1  0  0  0  0
M  END
$$$$
