
 OpenBabel04232217003D

142141  0  0  0  0  0  0  0  0999 V2000
    5.4223    7.3059    3.3487 O   0  0  0  0  0  0  0  0  0  0  0  0
    5.0111    8.0905    4.1958 C   0  0  0  0  0  0  0  0  0  0  0  0
    5.8773    8.9475    5.0436 C   0  0  0  0  0  0  0  0  0  0  0  0
    7.3020    8.6575    4.6587 C   0  0  0  0  0  0  0  0  0  0  0  0
    8.1194    9.4746    5.4675 O   0  0  0  0  0  0  0  0  0  0  0  0
    9.4498    9.2170    5.1221 C   0  0  0  0  0  0  0  0  0  0  0  0
   10.2823   10.0840    5.9853 C   0  0  0  0  0  0  0  0  0  0  0  0
   11.5660    9.7486    5.5635 O   0  0  0  0  0  0  0  0  0  0  0  0
   12.3588   10.5585    6.3690 O   0  0  0  0  0  0  0  0  0  0  0  0
   13.6915   10.3030    6.0252 O   0  0  0  0  0  0  0  0  0  0  0  0
   14.4838   11.1099    6.8306 O   0  0  0  0  0  0  0  0  0  0  0  0
   15.8024   10.8471    6.4834 O   0  0  0  0  0  0  0  0  0  0  0  0
   16.5948   11.6543    7.2857 O   0  0  0  0  0  0  0  0  0  0  0  0
   17.9050   11.3866    6.9302 O   0  0  0  0  0  0  0  0  0  0  0  0
   18.6975   12.1889    7.7310 O   0  0  0  0  0  0  0  0  0  0  0  0
   20.0032   11.9158    7.3733 O   0  0  0  0  0  0  0  0  0  0  0  0
   20.7938   12.7173    8.1696 O   0  0  0  0  0  0  0  0  0  0  0  0
   22.0962   12.4404    7.8112 O   0  0  0  0  0  0  0  0  0  0  0  0
   22.8854   13.2403    8.6096 O   0  0  0  0  0  0  0  0  0  0  0  0
   24.1866   12.9646    8.2496 O   0  0  0  0  0  0  0  0  0  0  0  0
   24.9723   13.7671    9.0471 O   0  0  0  0  0  0  0  0  0  0  0  0
   26.2734   13.4944    8.6868 O   0  0  0  0  0  0  0  0  0  0  0  0
   27.0588   14.2954    9.4866 O   0  0  0  0  0  0  0  0  0  0  0  0
   28.3632   14.0216    9.1288 O   0  0  0  0  0  0  0  0  0  0  0  0
   29.1496   14.8238    9.9260 O   0  0  0  0  0  0  0  0  0  0  0  0
   30.4491   14.5511    9.5659 O   0  0  0  0  0  0  0  0  0  0  0  0
   31.2472   15.3539   10.3668 O   0  0  0  0  0  0  0  0  0  0  0  0
   32.5444   15.0788   10.0076 O   0  0  0  0  0  0  0  0  0  0  0  0
   33.3454   15.8832   10.8068 O   0  0  0  0  0  0  0  0  0  0  0  0
   34.6645   15.6286   10.4650 O   0  0  0  0  0  0  0  0  0  0  0  0
   35.4385   16.4398   11.2757 O   0  0  0  0  0  0  0  0  0  0  0  0
   36.7702   16.1991   10.9449 O   0  0  0  0  0  0  0  0  0  0  0  0
   37.5480   17.0208   11.7710 O   0  0  0  0  0  0  0  0  0  0  0  0
   38.8286   16.6975   11.3521 C   0  0  0  0  0  0  0  0  0  0  0  0
   39.6473   17.4911   12.1280 O   0  0  0  0  0  0  0  0  0  0  0  0
   40.9702   17.1750   11.6777 O   0  0  0  0  0  0  0  0  0  0  0  0
   41.7257   17.9821   12.5375 C   0  0  0  0  0  0  0  0  0  0  0  0
   41.4507   17.6236   13.8498 O   0  0  0  0  0  0  0  0  0  0  0  0
   42.2328   18.5208   14.6505 O   0  0  0  0  0  0  0  0  0  0  0  0
   41.9322   18.0772   15.9611 C   0  0  0  0  0  0  0  0  0  0  0  0
   42.2505   16.7139   16.1560 O   0  0  0  0  0  0  0  0  0  0  0  0
   43.6274   16.5005   15.8851 C   0  0  0  0  0  0  0  0  0  0  0  0
   43.8669   15.0309   16.0667 C   0  0  0  0  0  0  0  0  0  0  0  0
   45.2365   14.7767   15.8419 O   0  0  0  0  0  0  0  0  0  0  0  0
   45.5163   13.3997   16.0070 C   0  0  0  0  0  0  0  0  0  0  0  0
   46.9839   13.1882   15.7480 C   0  0  0  0  0  0  0  0  0  0  0  0
   47.6854   13.9867   16.6950 O   0  0  0  0  0  0  0  0  0  0  0  0
   49.0922   13.8515   16.5414 C   0  0  0  0  0  0  0  0  0  0  0  0
   49.7701   14.6480   17.4974 O   0  0  0  0  0  0  0  0  0  0  0  0
   49.3109   14.1228   18.7677 O   0  0  0  0  0  0  0  0  0  0  0  0
   49.9595   14.8945   19.7470 C   0  0  0  0  0  0  0  0  0  0  0  0
   49.5822   14.4726   21.0454 O   0  0  0  0  0  0  0  0  0  0  0  0
   49.9757   13.0764   21.0773 O   0  0  0  0  0  0  0  0  0  0  0  0
   49.5815   12.6172   22.3452 C   0  0  0  0  0  0  0  0  0  0  0  0
   49.9232   11.2499   22.5170 O   0  0  0  0  0  0  0  0  0  0  0  0
   51.3618   11.2206   22.3284 O   0  0  0  0  0  0  0  0  0  0  0  0
   51.7256    9.8604   22.4735 C   0  0  0  0  0  0  0  0  0  0  0  0
   53.1252    9.7009   22.3302 O   0  0  0  0  0  0  0  0  0  0  0  0
   53.8292   10.4403   23.3223 C   0  0  0  0  0  0  0  0  0  0  0  0
   55.3107   10.2341   23.1087 C   0  0  0  0  0  0  0  0  0  0  0  0
   55.9988   10.9812   24.0943 O   0  0  0  0  0  0  0  0  0  0  0  0
   57.4057   10.8263   23.9540 C   0  0  0  0  0  0  0  0  0  0  0  0
   58.0920   11.6380   25.0304 C   0  0  0  0  0  0  0  0  0  0  0  0
   59.4913   11.4750   24.8747 O   0  0  0  0  0  0  0  0  0  0  0  0
   60.2012   12.2163   25.8602 C   0  0  0  0  0  0  0  0  0  0  0  0
   61.6852   12.0093   25.6508 C   0  0  0  0  0  0  0  0  0  0  0  0
   62.3866   12.7631   26.6255 O   0  0  0  0  0  0  0  0  0  0  0  0
   63.7874   12.5819   26.4856 C   0  0  0  0  0  0  0  0  0  0  0  0
   64.5114   13.3153   27.4657 O   0  0  0  0  0  0  0  0  0  0  0  0
   64.1494   12.8903   28.7852 C   0  0  0  0  0  0  0  0  0  0  0  0
   64.9340   13.7055   29.7956 C   0  0  0  0  0  0  0  0  0  0  0  0
   64.6000   15.0855   29.6503 O   0  0  0  0  0  0  0  0  0  0  0  0
   65.3154   15.8909   30.5615 C   0  0  0  0  0  0  0  0  0  0  0  0
   64.9189   17.3342   30.3312 C   0  0  0  0  0  0  0  0  0  0  0  0
   65.6204   18.1552   31.2589 O   0  0  0  0  0  0  0  0  0  0  0  0
   65.2890   19.5267   31.0897 C   0  0  0  0  0  0  0  0  0  0  0  0
   66.0718   20.3370   32.1055 C   0  0  0  0  0  0  0  0  0  0  0  0
   65.7483   21.7146   31.9468 O   0  0  0  0  0  0  0  0  0  0  0  0
   66.4582   22.5230   32.8807 C   0  0  0  0  0  0  0  0  0  0  0  0
   66.0737   23.9720   32.6621 C   0  0  0  0  0  0  0  0  0  0  0  0
    3.9136    8.1865    4.3607 H   0  0  0  0  0  0  0  0  0  0  0  0
    5.7150    8.7244    6.1024 H   0  0  0  0  0  0  0  0  0  0  0  0
    5.6453   10.0042    4.8801 H   0  0  0  0  0  0  0  0  0  0  0  0
    7.4804    8.8915    3.6016 H   0  0  0  0  0  0  0  0  0  0  0  0
    7.5505    7.6029    4.8324 H   0  0  0  0  0  0  0  0  0  0  0  0
    9.6509    9.4474    4.0659 H   0  0  0  0  0  0  0  0  0  0  0  0
    9.7200    8.1642    5.2883 H   0  0  0  0  0  0  0  0  0  0  0  0
   10.1553    9.8634    7.0513 H   0  0  0  0  0  0  0  0  0  0  0  0
   10.0880   11.1505    5.8234 H   0  0  0  0  0  0  0  0  0  0  0  0
   38.9523   16.9400   10.2931 H   0  0  0  0  0  0  0  0  0  0  0  0
   39.0248   15.6347   11.5302 H   0  0  0  0  0  0  0  0  0  0  0  0
   41.4729   19.0307   12.3581 H   0  0  0  0  0  0  0  0  0  0  0  0
   42.7883   17.8139   12.3089 H   0  0  0  0  0  0  0  0  0  0  0  0
   40.8666   18.2323   16.1361 H   0  0  0  0  0  0  0  0  0  0  0  0
   42.5065   18.6886   16.6649 H   0  0  0  0  0  0  0  0  0  0  0  0
   44.2338   17.0871   16.5840 H   0  0  0  0  0  0  0  0  0  0  0  0
   43.9081   16.8043   14.8667 H   0  0  0  0  0  0  0  0  0  0  0  0
   43.2493   14.4624   15.3609 H   0  0  0  0  0  0  0  0  0  0  0  0
   43.5780   14.7336   17.0810 H   0  0  0  0  0  0  0  0  0  0  0  0
   44.9254   12.8093   15.2965 H   0  0  0  0  0  0  0  0  0  0  0  0
   45.2568   13.0918   17.0300 H   0  0  0  0  0  0  0  0  0  0  0  0
   47.2520   13.5168   14.7404 H   0  0  0  0  0  0  0  0  0  0  0  0
   47.2496   12.1369   15.8774 H   0  0  0  0  0  0  0  0  0  0  0  0
   49.3874   14.1867   15.5463 H   0  0  0  0  0  0  0  0  0  0  0  0
   49.3864   12.8036   16.6827 H   0  0  0  0  0  0  0  0  0  0  0  0
   49.6794   15.9487   19.6368 H   0  0  0  0  0  0  0  0  0  0  0  0
   51.0461   14.7976   19.6433 H   0  0  0  0  0  0  0  0  0  0  0  0
   48.4964   12.7094   22.4572 H   0  0  0  0  0  0  0  0  0  0  0  0
   50.0775   13.2072   23.1252 H   0  0  0  0  0  0  0  0  0  0  0  0
   51.2230    9.2752   21.6946 H   0  0  0  0  0  0  0  0  0  0  0  0
   51.4090    9.4973   23.4570 H   0  0  0  0  0  0  0  0  0  0  0  0
   53.5341   10.1109   24.3265 H   0  0  0  0  0  0  0  0  0  0  0  0
   53.5877   11.5094   23.2457 H   0  0  0  0  0  0  0  0  0  0  0  0
   55.5935   10.5723   22.1050 H   0  0  0  0  0  0  0  0  0  0  0  0
   55.5520    9.1682   23.1914 H   0  0  0  0  0  0  0  0  0  0  0  0
   57.7241   11.1693   22.9622 H   0  0  0  0  0  0  0  0  0  0  0  0
   57.6806    9.7682   24.0465 H   0  0  0  0  0  0  0  0  0  0  0  0
   57.7747   11.2935   26.0218 H   0  0  0  0  0  0  0  0  0  0  0  0
   57.8178   12.6955   24.9361 H   0  0  0  0  0  0  0  0  0  0  0  0
   59.9146   11.8805   26.8643 H   0  0  0  0  0  0  0  0  0  0  0  0
   59.9576   13.2821   25.7792 H   0  0  0  0  0  0  0  0  0  0  0  0
   61.9740   12.3430   24.6470 H   0  0  0  0  0  0  0  0  0  0  0  0
   61.9323   10.9432   25.7340 H   0  0  0  0  0  0  0  0  0  0  0  0
   64.0973   12.9456   25.4970 H   0  0  0  0  0  0  0  0  0  0  0  0
   64.0517   11.5229   26.5766 H   0  0  0  0  0  0  0  0  0  0  0  0
   64.3864   11.8273   28.8993 H   0  0  0  0  0  0  0  0  0  0  0  0
   63.0745   13.0336   28.9449 H   0  0  0  0  0  0  0  0  0  0  0  0
   66.0081   13.5667   29.6337 H   0  0  0  0  0  0  0  0  0  0  0  0
   64.6776   13.3800   30.8088 H   0  0  0  0  0  0  0  0  0  0  0  0
   66.3965   15.7695   30.4214 H   0  0  0  0  0  0  0  0  0  0  0  0
   65.0734   15.5929   31.5880 H   0  0  0  0  0  0  0  0  0  0  0  0
   63.8370   17.4523   30.4676 H   0  0  0  0  0  0  0  0  0  0  0  0
   65.1617   17.6311   29.3040 H   0  0  0  0  0  0  0  0  0  0  0  0
   64.2129   19.6768   31.2380 H   0  0  0  0  0  0  0  0  0  0  0  0
   65.5384   19.8551   30.0737 H   0  0  0  0  0  0  0  0  0  0  0  0
   67.1476   20.1818   31.9583 H   0  0  0  0  0  0  0  0  0  0  0  0
   65.8222   20.0052   33.1205 H   0  0  0  0  0  0  0  0  0  0  0  0
   67.5362   22.3981   32.7311 H   0  0  0  0  0  0  0  0  0  0  0  0
   66.1988   22.2199   33.9009 H   0  0  0  0  0  0  0  0  0  0  0  0
   66.3138   24.2862   31.6411 H   0  0  0  0  0  0  0  0  0  0  0  0
   66.6019   24.6221   33.3652 H   0  0  0  0  0  0  0  0  0  0  0  0
   64.9956   24.1104   32.7940 H   0  0  0  0  0  0  0  0  0  0  0  0
  1  2  2  0  0  0  0
  2  3  1  0  0  0  0
  2 81  1  0  0  0  0
  3  4  1  0  0  0  0
  3 82  1  0  0  0  0
  3 83  1  0  0  0  0
  4  5  1  0  0  0  0
  4 84  1  0  0  0  0
  4 85  1  0  0  0  0
  5  6  1  0  0  0  0
  6  7  1  0  0  0  0
  6 86  1  0  0  0  0
  6 87  1  0  0  0  0
  7  8  1  0  0  0  0
  7 88  1  0  0  0  0
  7 89  1  0  0  0  0
  8  9  1  0  0  0  0
  9 10  1  0  0  0  0
 10 11  1  0  0  0  0
 11 12  1  0  0  0  0
 12 13  1  0  0  0  0
 13 14  1  0  0  0  0
 14 15  1  0  0  0  0
 15 16  1  0  0  0  0
 16 17  1  0  0  0  0
 17 18  1  0  0  0  0
 18 19  1  0  0  0  0
 19 20  1  0  0  0  0
 20 21  1  0  0  0  0
 21 22  1  0  0  0  0
 22 23  1  0  0  0  0
 23 24  1  0  0  0  0
 24 25  1  0  0  0  0
 25 26  1  0  0  0  0
 26 27  1  0  0  0  0
 27 28  1  0  0  0  0
 28 29  1  0  0  0  0
 29 30  1  0  0  0  0
 30 31  1  0  0  0  0
 31 32  1  0  0  0  0
 32 33  1  0  0  0  0
 33 34  1  0  0  0  0
 34 35  1  0  0  0  0
 34 90  1  0  0  0  0
 34 91  1  0  0  0  0
 35 36  1  0  0  0  0
 36 37  1  0  0  0  0
 37 38  1  0  0  0  0
 37 92  1  0  0  0  0
 37 93  1  0  0  0  0
 38 39  1  0  0  0  0
 39 40  1  0  0  0  0
 40 41  1  0  0  0  0
 40 94  1  0  0  0  0
 40 95  1  0  0  0  0
 41 42  1  0  0  0  0
 42 43  1  0  0  0  0
 42 96  1  0  0  0  0
 42 97  1  0  0  0  0
 43 44  1  0  0  0  0
 43 98  1  0  0  0  0
 43 99  1  0  0  0  0
 44 45  1  0  0  0  0
 45 46  1  0  0  0  0
 45100  1  0  0  0  0
 45101  1  0  0  0  0
 46 47  1  0  0  0  0
 46102  1  0  0  0  0
 46103  1  0  0  0  0
 47 48  1  0  0  0  0
 48 49  1  0  0  0  0
 48104  1  0  0  0  0
 48105  1  0  0  0  0
 49 50  1  0  0  0  0
 50 51  1  0  0  0  0
 51 52  1  0  0  0  0
 51106  1  0  0  0  0
 51107  1  0  0  0  0
 52 53  1  0  0  0  0
 53 54  1  0  0  0  0
 54 55  1  0  0  0  0
 54108  1  0  0  0  0
 54109  1  0  0  0  0
 55 56  1  0  0  0  0
 56 57  1  0  0  0  0
 57 58  1  0  0  0  0
 57110  1  0  0  0  0
 57111  1  0  0  0  0
 58 59  1  0  0  0  0
 59 60  1  0  0  0  0
 59112  1  0  0  0  0
 59113  1  0  0  0  0
 60 61  1  0  0  0  0
 60114  1  0  0  0  0
 60115  1  0  0  0  0
 61 62  1  0  0  0  0
 62 63  1  0  0  0  0
 62116  1  0  0  0  0
 62117  1  0  0  0  0
 63 64  1  0  0  0  0
 63118  1  0  0  0  0
 63119  1  0  0  0  0
 64 65  1  0  0  0  0
 65 66  1  0  0  0  0
 65120  1  0  0  0  0
 65121  1  0  0  0  0
 66 67  1  0  0  0  0
 66122  1  0  0  0  0
 66123  1  0  0  0  0
 67 68  1  0  0  0  0
 68 69  1  0  0  0  0
 68124  1  0  0  0  0
 68125  1  0  0  0  0
 69 70  1  0  0  0  0
 70 71  1  0  0  0  0
 70126  1  0  0  0  0
 70127  1  0  0  0  0
 71 72  1  0  0  0  0
 71128  1  0  0  0  0
 71129  1  0  0  0  0
 72 73  1  0  0  0  0
 73 74  1  0  0  0  0
 73130  1  0  0  0  0
 73131  1  0  0  0  0
 74 75  1  0  0  0  0
 74132  1  0  0  0  0
 74133  1  0  0  0  0
 75 76  1  0  0  0  0
 76 77  1  0  0  0  0
 76134  1  0  0  0  0
 76135  1  0  0  0  0
 77 78  1  0  0  0  0
 77136  1  0  0  0  0
 77137  1  0  0  0  0
 78 79  1  0  0  0  0
 79 80  1  0  0  0  0
 79138  1  0  0  0  0
 79139  1  0  0  0  0
 80140  1  0  0  0  0
 80141  1  0  0  0  0
 80142  1  0  0  0  0
M  END
$$$$
