
 OpenBabel04232216393D

100100  0  0  0  0  0  0  0  0999 V2000
   -2.4077    2.3859   -3.0619 C   0  0  0  0  0  0  0  0  0  0  0  0
   -2.1258    1.4197   -4.1578 C   0  0  0  0  0  0  0  0  0  0  0  0
   -2.6902    0.0996   -3.6237 C   0  0  0  0  0  0  0  0  0  0  0  0
   -3.5689    0.4316   -2.4244 C   0  0  0  0  0  0  0  0  0  0  0  0
   -3.2209    1.8390   -2.1446 C   0  0  0  0  0  0  0  0  0  0  0  0
   -3.7906    2.3850   -1.0359 O   0  0  0  0  0  0  0  0  0  0  0  0
   -3.1702    3.6596   -0.8458 O   0  0  0  0  0  0  0  0  0  0  0  0
   -2.1519    3.5633    0.1762 O   0  0  0  0  0  0  0  0  0  0  0  0
   -1.6881    4.8759    0.4985 O   0  0  0  0  0  0  0  0  0  0  0  0
   -2.8204    5.7341    0.6123 O   0  0  0  0  0  0  0  0  0  0  0  0
   -2.4191    7.0655    0.3895 O   0  0  0  0  0  0  0  0  0  0  0  0
   -3.5705    7.8700    0.4692 O   0  0  0  0  0  0  0  0  0  0  0  0
   -3.1490    9.1841    0.6457 O   0  0  0  0  0  0  0  0  0  0  0  0
   -4.2822    9.9827    0.6791 O   0  0  0  0  0  0  0  0  0  0  0  0
   -3.8356   11.2949    0.7565 O   0  0  0  0  0  0  0  0  0  0  0  0
   -4.9542   12.0963    0.8203 O   0  0  0  0  0  0  0  0  0  0  0  0
   -4.4864   13.3902    0.9130 O   0  0  0  0  0  0  0  0  0  0  0  0
   -5.6051   14.1877    0.9690 O   0  0  0  0  0  0  0  0  0  0  0  0
   -5.1298   15.4729    1.0588 O   0  0  0  0  0  0  0  0  0  0  0  0
   -6.2477   16.2682    1.1168 O   0  0  0  0  0  0  0  0  0  0  0  0
   -5.7731   17.5485    1.2075 O   0  0  0  0  0  0  0  0  0  0  0  0
   -6.8903   18.3349    1.2634 O   0  0  0  0  0  0  0  0  0  0  0  0
   -6.4156   19.6158    1.3532 O   0  0  0  0  0  0  0  0  0  0  0  0
   -7.5279   20.4036    1.4106 O   0  0  0  0  0  0  0  0  0  0  0  0
   -7.0521   21.6773    1.4999 O   0  0  0  0  0  0  0  0  0  0  0  0
   -8.1757   22.4634    1.5563 O   0  0  0  0  0  0  0  0  0  0  0  0
   -7.6826   23.7409    1.6463 O   0  0  0  0  0  0  0  0  0  0  0  0
   -8.7882   24.5311    1.7034 O   0  0  0  0  0  0  0  0  0  0  0  0
   -8.3139   25.7965    1.7923 O   0  0  0  0  0  0  0  0  0  0  0  0
   -9.4379   26.5865    1.8493 O   0  0  0  0  0  0  0  0  0  0  0  0
   -8.9848   27.8646    1.9391 O   0  0  0  0  0  0  0  0  0  0  0  0
  -10.0899   28.6331    1.9947 O   0  0  0  0  0  0  0  0  0  0  0  0
   -9.6384   29.9181    2.0849 O   0  0  0  0  0  0  0  0  0  0  0  0
  -10.7445   30.6966    2.1412 O   0  0  0  0  0  0  0  0  0  0  0  0
  -10.2617   31.9670    2.2304 O   0  0  0  0  0  0  0  0  0  0  0  0
  -11.3802   32.7503    2.2870 O   0  0  0  0  0  0  0  0  0  0  0  0
  -10.8851   34.0220    2.3763 O   0  0  0  0  0  0  0  0  0  0  0  0
  -12.0087   34.8057    2.4329 O   0  0  0  0  0  0  0  0  0  0  0  0
  -11.5321   36.0804    2.5224 O   0  0  0  0  0  0  0  0  0  0  0  0
  -12.6487   36.8614    2.5788 O   0  0  0  0  0  0  0  0  0  0  0  0
  -12.1708   38.1357    2.6683 O   0  0  0  0  0  0  0  0  0  0  0  0
  -13.2872   38.9176    2.7248 O   0  0  0  0  0  0  0  0  0  0  0  0
  -12.8094   40.1917    2.8143 O   0  0  0  0  0  0  0  0  0  0  0  0
  -13.9268   40.9697    2.8705 O   0  0  0  0  0  0  0  0  0  0  0  0
  -13.4558   42.2460    2.9602 O   0  0  0  0  0  0  0  0  0  0  0  0
  -14.5778   43.0191    3.0161 O   0  0  0  0  0  0  0  0  0  0  0  0
  -14.1104   44.2965    3.1058 O   0  0  0  0  0  0  0  0  0  0  0  0
  -15.2290   45.0743    3.1620 O   0  0  0  0  0  0  0  0  0  0  0  0
  -14.7498   46.3500    3.2516 O   0  0  0  0  0  0  0  0  0  0  0  0
  -15.8659   47.1340    3.3082 O   0  0  0  0  0  0  0  0  0  0  0  0
  -15.3763   48.4064    3.3975 O   0  0  0  0  0  0  0  0  0  0  0  0
  -16.4911   49.1960    3.4546 O   0  0  0  0  0  0  0  0  0  0  0  0
  -16.0250   50.4724    3.5442 O   0  0  0  0  0  0  0  0  0  0  0  0
  -17.1264   51.2523    3.6006 O   0  0  0  0  0  0  0  0  0  0  0  0
  -16.6460   52.5443    3.6913 O   0  0  0  0  0  0  0  0  0  0  0  0
  -17.7557   53.3165    3.7471 O   0  0  0  0  0  0  0  0  0  0  0  0
  -17.2837   54.5970    3.8369 O   0  0  0  0  0  0  0  0  0  0  0  0
  -18.3880   55.3948    3.8946 O   0  0  0  0  0  0  0  0  0  0  0  0
  -17.9222   56.6672    3.9840 O   0  0  0  0  0  0  0  0  0  0  0  0
  -19.0424   57.4524    4.0408 O   0  0  0  0  0  0  0  0  0  0  0  0
  -18.5688   58.7354    4.1308 O   0  0  0  0  0  0  0  0  0  0  0  0
  -19.6874   59.5293    4.1882 O   0  0  0  0  0  0  0  0  0  0  0  0
  -19.2218   60.8180    4.2788 O   0  0  0  0  0  0  0  0  0  0  0  0
  -20.3487   61.6101    4.3358 O   0  0  0  0  0  0  0  0  0  0  0  0
  -19.8828   62.8991    4.4269 O   0  0  0  0  0  0  0  0  0  0  0  0
  -21.0058   63.7067    4.4851 O   0  0  0  0  0  0  0  0  0  0  0  0
  -20.5316   65.0009    4.5742 O   0  0  0  0  0  0  0  0  0  0  0  0
  -21.6426   65.8225    4.6343 O   0  0  0  0  0  0  0  0  0  0  0  0
  -21.1603   67.1228    4.7281 O   0  0  0  0  0  0  0  0  0  0  0  0
  -22.2690   67.9510    4.7879 O   0  0  0  0  0  0  0  0  0  0  0  0
  -21.7942   69.2627    4.8768 O   0  0  0  0  0  0  0  0  0  0  0  0
  -22.9836   69.9788    4.9284 C   0  0  0  0  0  0  0  0  0  0  0  0
  -22.4926   71.3737    5.0222 C   0  0  0  0  0  0  0  0  0  0  0  0
  -23.6915   72.2594    5.0839 C   0  0  0  0  0  0  0  0  0  0  0  0
  -23.2026   73.6775    5.1795 C   0  0  0  0  0  0  0  0  0  0  0  0
  -24.4028   74.5888    5.2429 C   0  0  0  0  0  0  0  0  0  0  0  0
  -23.9423   76.0280    5.3419 C   0  0  0  0  0  0  0  0  0  0  0  0
  -25.1415   76.9470    5.4059 C   0  0  0  0  0  0  0  0  0  0  0  0
   -2.0368    3.4025   -3.0629 H   0  0  0  0  0  0  0  0  0  0  0  0
   -1.0546    1.3377   -4.3644 H   0  0  0  0  0  0  0  0  0  0  0  0
   -2.6384    1.7331   -5.0735 H   0  0  0  0  0  0  0  0  0  0  0  0
   -1.8688   -0.5550   -3.3078 H   0  0  0  0  0  0  0  0  0  0  0  0
   -3.2601   -0.4367   -4.3885 H   0  0  0  0  0  0  0  0  0  0  0  0
   -3.3343   -0.2061   -1.5662 H   0  0  0  0  0  0  0  0  0  0  0  0
   -4.6355    0.3536   -2.6509 H   0  0  0  0  0  0  0  0  0  0  0  0
  -23.5660   69.6729    5.8068 H   0  0  0  0  0  0  0  0  0  0  0  0
  -23.5704   69.7947    4.0196 H   0  0  0  0  0  0  0  0  0  0  0  0
  -21.8543   71.5988    4.1570 H   0  0  0  0  0  0  0  0  0  0  0  0
  -21.8517   71.4800    5.9081 H   0  0  0  0  0  0  0  0  0  0  0  0
  -24.3060   71.9929    5.9531 H   0  0  0  0  0  0  0  0  0  0  0  0
  -24.3084   72.1126    4.1884 H   0  0  0  0  0  0  0  0  0  0  0  0
  -22.5780   73.9141    4.3089 H   0  0  0  0  0  0  0  0  0  0  0  0
  -22.5756   73.7943    6.0723 H   0  0  0  0  0  0  0  0  0  0  0  0
  -25.0199   74.3218    6.1100 H   0  0  0  0  0  0  0  0  0  0  0  0
  -25.0209   74.4431    4.3481 H   0  0  0  0  0  0  0  0  0  0  0  0
  -23.3224   76.2796    4.4735 H   0  0  0  0  0  0  0  0  0  0  0  0
  -23.3214   76.1581    6.2359 H   0  0  0  0  0  0  0  0  0  0  0  0
  -25.7598   76.8355    4.5094 H   0  0  0  0  0  0  0  0  0  0  0  0
  -24.8137   77.9859    5.4774 H   0  0  0  0  0  0  0  0  0  0  0  0
  -25.7588   76.7134    6.2793 H   0  0  0  0  0  0  0  0  0  0  0  0
  1  2  1  0  0  0  0
  1  5  2  0  0  0  0
  1 79  1  0  0  0  0
  2  3  1  0  0  0  0
  2 80  1  0  0  0  0
  2 81  1  0  0  0  0
  3  4  1  0  0  0  0
  3 82  1  0  0  0  0
  3 83  1  0  0  0  0
  4  5  1  0  0  0  0
  4 84  1  0  0  0  0
  4 85  1  0  0  0  0
  5  6  1  0  0  0  0
  6  7  1  0  0  0  0
  7  8  1  0  0  0  0
  8  9  1  0  0  0  0
  9 10  1  0  0  0  0
 10 11  1  0  0  0  0
 11 12  1  0  0  0  0
 12 13  1  0  0  0  0
 13 14  1  0  0  0  0
 14 15  1  0  0  0  0
 15 16  1  0  0  0  0
 16 17  1  0  0  0  0
 17 18  1  0  0  0  0
 18 19  1  0  0  0  0
 19 20  1  0  0  0  0
 20 21  1  0  0  0  0
 21 22  1  0  0  0  0
 22 23  1  0  0  0  0
 23 24  1  0  0  0  0
 24 25  1  0  0  0  0
 25 26  1  0  0  0  0
 26 27  1  0  0  0  0
 27 28  1  0  0  0  0
 28 29  1  0  0  0  0
 29 30  1  0  0  0  0
 30 31  1  0  0  0  0
 31 32  1  0  0  0  0
 32 33  1  0  0  0  0
 33 34  1  0  0  0  0
 34 35  1  0  0  0  0
 35 36  1  0  0  0  0
 36 37  1  0  0  0  0
 37 38  1  0  0  0  0
 38 39  1  0  0  0  0
 39 40  1  0  0  0  0
 40 41  1  0  0  0  0
 41 42  1  0  0  0  0
 42 43  1  0  0  0  0
 43 44  1  0  0  0  0
 44 45  1  0  0  0  0
 45 46  1  0  0  0  0
 46 47  1  0  0  0  0
 47 48  1  0  0  0  0
 48 49  1  0  0  0  0
 49 50  1  0  0  0  0
 50 51  1  0  0  0  0
 51 52  1  0  0  0  0
 52 53  1  0  0  0  0
 53 54  1  0  0  0  0
 54 55  1  0  0  0  0
 55 56  1  0  0  0  0
 56 57  1  0  0  0  0
 57 58  1  0  0  0  0
 58 59  1  0  0  0  0
 59 60  1  0  0  0  0
 60 61  1  0  0  0  0
 61 62  1  0  0  0  0
 62 63  1  0  0  0  0
 63 64  1  0  0  0  0
 64 65  1  0  0  0  0
 65 66  1  0  0  0  0
 66 67  1  0  0  0  0
 67 68  1  0  0  0  0
 68 69  1  0  0  0  0
 69 70  1  0  0  0  0
 70 71  1  0  0  0  0
 71 72  1  0  0  0  0
 72 73  1  0  0  0  0
 72 86  1  0  0  0  0
 72 87  1  0  0  0  0
 73 74  1  0  0  0  0
 73 88  1  0  0  0  0
 73 89  1  0  0  0  0
 74 75  1  0  0  0  0
 74 90  1  0  0  0  0
 74 91  1  0  0  0  0
 75 76  1  0  0  0  0
 75 92  1  0  0  0  0
 75 93  1  0  0  0  0
 76 77  1  0  0  0  0
 76 94  1  0  0  0  0
 76 95  1  0  0  0  0
 77 78  1  0  0  0  0
 77 96  1  0  0  0  0
 77 97  1  0  0  0  0
 78 98  1  0  0  0  0
 78 99  1  0  0  0  0
 78100  1  0  0  0  0
M  END
$$$$
