
 OpenBabel04232216513D

 39 40  0  0  0  0  0  0  0  0999 V2000
    2.0796    2.1274   -0.9841 C   0  0  0  0  0  0  0  0  0  0  0  0
    1.7836    1.8869    0.4905 C   0  0  0  0  0  0  0  0  0  0  0  0
    2.4230    0.6093    1.0437 C   0  0  0  0  0  0  0  0  0  0  0  0
    3.9297    0.6623    1.0536 C   0  0  0  0  0  0  0  0  0  0  0  0
    4.9273    1.2231    1.9152 C   0  0  0  0  0  0  0  0  0  0  0  0
    4.7047    2.0149    3.1294 C   0  0  0  0  0  0  0  0  0  0  0  0
    5.6688    2.4151    3.9652 C   0  0  0  0  0  0  0  0  0  0  0  0
    5.9120    0.6653    1.1862 C   0  0  0  0  0  0  0  0  0  0  0  0
    4.9149    0.0941    0.3403 C   0  0  0  0  0  0  0  0  0  0  0  0
    4.8908   -0.8775   -0.7687 C   0  0  0  0  0  0  0  0  0  0  0  0
    3.8822   -1.3848   -1.2564 O   0  0  0  0  0  0  0  0  0  0  0  0
    6.2369   -1.3478   -1.2337 C   0  0  0  0  0  0  0  0  0  0  0  0
    7.1726   -0.4275   -1.5260 C   0  0  0  0  0  0  0  0  0  0  0  0
    8.6274   -0.6514   -1.7917 C   0  0  0  0  0  0  0  0  0  0  0  0
    9.0000   -2.0564   -2.2180 C   0  0  0  0  0  0  0  0  0  0  0  0
    9.3684   -2.2970   -3.3686 O   0  0  0  0  0  0  0  0  0  0  0  0
    8.9638   -3.1505   -1.1716 C   0  0  0  0  0  0  0  0  0  0  0  0
    7.6480   -3.2590   -0.4069 C   0  0  0  0  0  0  0  0  0  0  0  0
    6.4186   -2.8453   -1.2137 C   0  0  0  0  0  0  0  0  0  0  0  0
    1.4759    2.9629   -1.3548 H   0  0  0  0  0  0  0  0  0  0  0  0
    1.8401    1.2452   -1.5867 H   0  0  0  0  0  0  0  0  0  0  0  0
    3.1315    2.3818   -1.1451 H   0  0  0  0  0  0  0  0  0  0  0  0
    0.6977    1.8021    0.6127 H   0  0  0  0  0  0  0  0  0  0  0  0
    2.1030    2.7615    1.0696 H   0  0  0  0  0  0  0  0  0  0  0  0
    2.0727   -0.2442    0.4535 H   0  0  0  0  0  0  0  0  0  0  0  0
    2.0738    0.5296    2.0813 H   0  0  0  0  0  0  0  0  0  0  0  0
    3.6720    2.2697    3.3608 H   0  0  0  0  0  0  0  0  0  0  0  0
    6.7154    2.1774    3.8004 H   0  0  0  0  0  0  0  0  0  0  0  0
    5.4187    2.9786    4.8573 H   0  0  0  0  0  0  0  0  0  0  0  0
    6.9945    0.6310    1.2467 H   0  0  0  0  0  0  0  0  0  0  0  0
    6.8900    0.6265   -1.5316 H   0  0  0  0  0  0  0  0  0  0  0  0
    9.2028   -0.3933   -0.8940 H   0  0  0  0  0  0  0  0  0  0  0  0
    8.9542    0.0333   -2.5816 H   0  0  0  0  0  0  0  0  0  0  0  0
    9.7934   -2.9921   -0.4726 H   0  0  0  0  0  0  0  0  0  0  0  0
    9.1536   -4.0983   -1.6850 H   0  0  0  0  0  0  0  0  0  0  0  0
    7.7049   -2.6629    0.5134 H   0  0  0  0  0  0  0  0  0  0  0  0
    7.5293   -4.2995   -0.0800 H   0  0  0  0  0  0  0  0  0  0  0  0
    5.5448   -3.3204   -0.7505 H   0  0  0  0  0  0  0  0  0  0  0  0
    6.4624   -3.2348   -2.2385 H   0  0  0  0  0  0  0  0  0  0  0  0
  1  2  1  0  0  0  0
  1 20  1  0  0  0  0
  1 21  1  0  0  0  0
  1 22  1  0  0  0  0
  2  3  1  0  0  0  0
  2 23  1  0  0  0  0
  2 24  1  0  0  0  0
  3  4  1  0  0  0  0
  3 25  1  0  0  0  0
  3 26  1  0  0  0  0
  4  5  1  0  0  0  0
  4  9  2  0  0  0  0
  5  6  1  0  0  0  0
  5  8  2  0  0  0  0
  6  7  2  0  0  0  0
  6 27  1  0  0  0  0
  7 28  1  0  0  0  0
  7 29  1  0  0  0  0
  8  9  1  0  0  0  0
  8 30  1  0  0  0  0
  9 10  1  0  0  0  0
 10 11  2  0  0  0  0
 10 12  1  0  0  0  0
 12 13  2  0  0  0  0
 12 19  1  0  0  0  0
 13 14  1  0  0  0  0
 13 31  1  0  0  0  0
 14 15  1  0  0  0  0
 14 32  1  0  0  0  0
 14 33  1  0  0  0  0
 15 16  2  0  0  0  0
 15 17  1  0  0  0  0
 17 18  1  0  0  0  0
 17 34  1  0  0  0  0
 17 35  1  0  0  0  0
 18 19  1  0  0  0  0
 18 36  1  0  0  0  0
 18 37  1  0  0  0  0
 19 38  1  0  0  0  0
 19 39  1  0  0  0  0
M  END
$$$$
