
 OpenBabel04232216513D

 44 44  0  0  1  0  0  0  0  0999 V2000
    3.0787   -1.7044    2.0496 C   0  0  0  0  0  0  0  0  0  0  0  0
    2.3509   -0.9687    0.9401 C   0  0  0  0  0  0  0  0  0  0  0  0
    2.8602   -1.3063   -0.4602 C   0  0  0  0  0  0  0  0  0  0  0  0
    4.3320   -1.0060   -0.8395 C   0  0  3  0  0  0  0  0  0  0  0  0
    4.5888   -1.3881   -2.3112 C   0  0  3  0  0  3  0  0  0  0  0  0
    4.3932   -2.8483   -2.6799 C   0  0  0  0  0  0  0  0  0  0  0  0
    4.7688   -3.2623   -4.1062 C   0  0  0  0  0  0  0  0  0  0  0  0
    4.4724   -4.7352   -4.3509 C   0  0  0  0  0  0  0  0  0  0  0  0
    4.6546   -0.3426   -3.3962 C   0  0  0  0  0  0  0  0  0  0  0  0
    3.2683    0.1251   -3.8400 C   0  0  0  0  0  0  0  0  0  0  0  0
    3.0593    1.6422   -3.8472 C   0  0  0  0  0  0  0  0  0  0  0  0
    3.6128    2.4284   -2.6538 C   0  0  0  0  0  0  0  0  0  0  0  0
    3.0698    1.9798   -1.2993 C   0  0  0  0  0  0  0  0  0  0  0  0
    4.1431    1.6398   -0.2683 C   0  0  0  0  0  0  0  0  0  0  0  0
    4.9632    0.3491   -0.4154 C   0  0  0  0  0  0  0  0  0  0  0  0
    2.5185   -1.6045    2.9856 H   0  0  0  0  0  0  0  0  0  0  0  0
    4.0782   -1.2940    2.2072 H   0  0  0  0  0  0  0  0  0  0  0  0
    3.1663   -2.7711    1.8235 H   0  0  0  0  0  0  0  0  0  0  0  0
    2.3605    0.1045    1.1312 H   0  0  0  0  0  0  0  0  0  0  0  0
    1.2925   -1.2587    0.9773 H   0  0  0  0  0  0  0  0  0  0  0  0
    2.1806   -0.8421   -1.1797 H   0  0  0  0  0  0  0  0  0  0  0  0
    2.6918   -2.3818   -0.5864 H   0  0  0  0  0  0  0  0  0  0  0  0
    4.9260   -1.7468   -0.2792 H   0  0  0  0  0  0  0  0  0  0  0  0
    3.3383   -3.1030   -2.5314 H   0  0  0  0  0  0  0  0  0  0  0  0
    4.9731   -3.4585   -1.9757 H   0  0  0  0  0  0  0  0  0  0  0  0
    5.8320   -3.0698   -4.2892 H   0  0  0  0  0  0  0  0  0  0  0  0
    4.1940   -2.6787   -4.8339 H   0  0  0  0  0  0  0  0  0  0  0  0
    5.0433   -5.3708   -3.6686 H   0  0  0  0  0  0  0  0  0  0  0  0
    4.7382   -5.0081   -5.3771 H   0  0  0  0  0  0  0  0  0  0  0  0
    3.4066   -4.9457   -4.2106 H   0  0  0  0  0  0  0  0  0  0  0  0
    5.1860   -0.7400   -4.2682 H   0  0  0  0  0  0  0  0  0  0  0  0
    5.2982    0.4804   -3.0874 H   0  0  0  0  0  0  0  0  0  0  0  0
    2.4782   -0.3397   -3.2428 H   0  0  0  0  0  0  0  0  0  0  0  0
    3.0898   -0.2395   -4.8608 H   0  0  0  0  0  0  0  0  0  0  0  0
    1.9807    1.8316   -3.9268 H   0  0  0  0  0  0  0  0  0  0  0  0
    3.5062    2.0524   -4.7602 H   0  0  0  0  0  0  0  0  0  0  0  0
    3.3288    3.4795   -2.8019 H   0  0  0  0  0  0  0  0  0  0  0  0
    4.7069    2.4291   -2.6652 H   0  0  0  0  0  0  0  0  0  0  0  0
    2.3386    1.1810   -1.3972 H   0  0  0  0  0  0  0  0  0  0  0  0
    2.4989    2.8229   -0.8854 H   0  0  0  0  0  0  0  0  0  0  0  0
    3.6781    1.6350    0.7220 H   0  0  0  0  0  0  0  0  0  0  0  0
    4.8557    2.4752   -0.2190 H   0  0  0  0  0  0  0  0  0  0  0  0
    5.4224    0.1826    0.5708 H   0  0  0  0  0  0  0  0  0  0  0  0
    5.8349    0.5634   -1.0506 H   0  0  0  0  0  0  0  0  0  0  0  0
  1  2  1  0  0  0  0
  1 16  1  0  0  0  0
  1 17  1  0  0  0  0
  1 18  1  0  0  0  0
  2  3  1  0  0  0  0
  2 19  1  0  0  0  0
  2 20  1  0  0  0  0
  3  4  1  0  0  0  0
  3 21  1  0  0  0  0
  3 22  1  0  0  0  0
  4  5  1  0  0  0  0
  4 15  1  0  0  0  0
  4 23  1  0  0  0  0
  5  6  1  0  0  0  0
  5  9  1  0  0  0  0
  6  7  1  0  0  0  0
  6 24  1  0  0  0  0
  6 25  1  0  0  0  0
  7  8  1  0  0  0  0
  7 26  1  0  0  0  0
  7 27  1  0  0  0  0
  8 28  1  0  0  0  0
  8 29  1  0  0  0  0
  8 30  1  0  0  0  0
  9 10  1  0  0  0  0
  9 31  1  0  0  0  0
  9 32  1  0  0  0  0
 10 11  1  0  0  0  0
 10 33  1  0  0  0  0
 10 34  1  0  0  0  0
 11 12  1  0  0  0  0
 11 35  1  0  0  0  0
 11 36  1  0  0  0  0
 12 13  1  0  0  0  0
 12 37  1  0  0  0  0
 12 38  1  0  0  0  0
 13 14  1  0  0  0  0
 13 39  1  0  0  0  0
 13 40  1  0  0  0  0
 14 15  1  0  0  0  0
 14 41  1  0  0  0  0
 14 42  1  0  0  0  0
 15 43  1  0  0  0  0
 15 44  1  0  0  0  0
M  END
$$$$
