
 OpenBabel04232216433D

 54 55  0  0  0  0  0  0  0  0999 V2000
    4.2126    2.6665   -2.0446 C   0  0  0  0  0  0  0  0  0  0  0  0
    3.5955    1.3372   -1.0869 C   0  0  0  0  0  0  0  0  0  0  0  0
    3.5139    0.0510   -1.7528 N   0  0  0  0  0  0  0  0  0  0  0  0
    4.6762   -0.1182   -2.2414 C   0  0  0  0  0  0  0  0  0  0  0  0
    4.6995   -0.1277   -3.7594 C   0  0  0  0  0  0  0  0  0  0  0  0
    3.7293    0.7516   -4.3175 N   0  0  0  0  0  0  0  0  0  0  0  0
    3.3573    0.6486   -5.6412 N   0  0  0  0  0  0  0  0  0  0  0  0
    2.6002   -0.5346   -5.8673 N   0  0  0  0  0  0  0  0  0  0  0  0
    2.1460   -0.5973   -7.2532 C   0  0  0  0  0  0  0  0  0  0  0  0
    1.4019   -1.9111   -7.5273 C   0  0  0  0  0  0  0  0  0  0  0  0
    0.9492   -2.0143   -8.9887 C   0  0  0  0  0  0  0  0  0  0  0  0
    0.2116   -3.3290   -9.2492 C   0  0  0  0  0  0  0  0  0  0  0  0
   -0.2439   -3.4439  -10.6956 C   0  0  0  0  0  0  0  0  0  0  0  0
    5.8916   -0.4917   -4.0869 N   0  0  0  0  0  0  0  0  0  0  0  0
    6.5581    0.7165   -4.4149 C   0  0  0  0  0  0  0  0  0  0  0  0
    7.1862    1.4636   -3.5229 C   0  0  0  0  0  0  0  0  0  0  0  0
    7.4054    2.7054   -4.1338 C   0  0  0  0  0  0  0  0  0  0  0  0
    8.5479    2.5915   -4.9921 C   0  0  0  0  0  0  0  0  0  0  0  0
    8.5820    3.0556   -6.2602 C   0  0  0  0  0  0  0  0  0  0  0  0
    7.7528    4.0482   -6.6064 C   0  0  0  0  0  0  0  0  0  0  0  0
    8.3493    4.7984   -7.8199 C   0  0  0  0  0  0  0  0  0  0  0  0
    6.6674    4.4593   -5.5350 C   0  0  0  0  0  0  0  0  0  0  0  0
    6.4208    5.9349   -5.7819 C   0  0  0  0  0  0  0  0  0  0  0  0
    6.2733    3.5889   -4.3124 C   0  0  0  0  0  0  0  0  0  0  0  0
    5.0142    3.3896   -3.0344 C   0  0  0  0  0  0  0  0  0  0  0  0
    3.5067    3.3733   -1.5534 H   0  0  0  0  0  0  0  0  0  0  0  0
    2.5216    1.5051   -0.9061 H   0  0  0  0  0  0  0  0  0  0  0  0
    3.9915    1.2315   -0.0617 H   0  0  0  0  0  0  0  0  0  0  0  0
    5.6041    0.1928   -1.7166 H   0  0  0  0  0  0  0  0  0  0  0  0
    3.0541    1.1694   -3.6895 H   0  0  0  0  0  0  0  0  0  0  0  0
    4.1839    0.6966   -6.2528 H   0  0  0  0  0  0  0  0  0  0  0  0
    1.7584   -0.5391   -5.2449 H   0  0  0  0  0  0  0  0  0  0  0  0
    3.0130   -0.5404   -7.9155 H   0  0  0  0  0  0  0  0  0  0  0  0
    1.4870    0.2491   -7.4881 H   0  0  0  0  0  0  0  0  0  0  0  0
    0.5227   -1.9818   -6.8719 H   0  0  0  0  0  0  0  0  0  0  0  0
    2.0508   -2.7632   -7.2878 H   0  0  0  0  0  0  0  0  0  0  0  0
    1.8190   -1.9427   -9.6535 H   0  0  0  0  0  0  0  0  0  0  0  0
    0.2900   -1.1715   -9.2296 H   0  0  0  0  0  0  0  0  0  0  0  0
   -0.6633   -3.3989   -8.5926 H   0  0  0  0  0  0  0  0  0  0  0  0
    0.8646   -4.1767   -9.0108 H   0  0  0  0  0  0  0  0  0  0  0  0
   -0.9246   -2.6282  -10.9590 H   0  0  0  0  0  0  0  0  0  0  0  0
   -0.7727   -4.3899  -10.8524 H   0  0  0  0  0  0  0  0  0  0  0  0
    0.6095   -3.4155  -11.3805 H   0  0  0  0  0  0  0  0  0  0  0  0
    6.2439    1.0894   -5.3951 H   0  0  0  0  0  0  0  0  0  0  0  0
    7.6084    1.2211   -2.5372 H   0  0  0  0  0  0  0  0  0  0  0  0
    9.3484    1.9036   -4.6864 H   0  0  0  0  0  0  0  0  0  0  0  0
    9.4120    2.7210   -6.9247 H   0  0  0  0  0  0  0  0  0  0  0  0
    9.0230    4.1249   -8.3831 H   0  0  0  0  0  0  0  0  0  0  0  0
    9.0167    5.5826   -7.4677 H   0  0  0  0  0  0  0  0  0  0  0  0
    7.6638    5.1582   -8.5738 H   0  0  0  0  0  0  0  0  0  0  0  0
    7.1257    6.3036   -6.5661 H   0  0  0  0  0  0  0  0  0  0  0  0
    6.7787    6.5293   -4.9421 H   0  0  0  0  0  0  0  0  0  0  0  0
    5.4686    6.2300   -6.2034 H   0  0  0  0  0  0  0  0  0  0  0  0
    4.7176    4.4532   -2.9360 H   0  0  0  0  0  0  0  0  0  0  0  0
  1  2  1  0  0  0  0
  1 25  2  3  0  0  0
  1 26  1  0  0  0  0
  2  3  1  0  0  0  0
  2 27  1  0  0  0  0
  2 28  1  0  0  0  0
  3  4  2  3  0  0  0
  4  5  1  0  0  0  0
  4 29  1  0  0  0  0
  5  6  1  0  0  0  0
  5 14  2  3  0  0  0
  6  7  1  0  0  0  0
  6 30  1  0  0  0  0
  7  8  1  0  0  0  0
  7 31  1  0  0  0  0
  8  9  1  0  0  0  0
  8 32  1  0  0  0  0
  9 10  1  0  0  0  0
  9 33  1  0  0  0  0
  9 34  1  0  0  0  0
 10 11  1  0  0  0  0
 10 35  1  0  0  0  0
 10 36  1  0  0  0  0
 11 12  1  0  0  0  0
 11 37  1  0  0  0  0
 11 38  1  0  0  0  0
 12 13  1  0  0  0  0
 12 39  1  0  0  0  0
 12 40  1  0  0  0  0
 13 41  1  0  0  0  0
 13 42  1  0  0  0  0
 13 43  1  0  0  0  0
 14 15  1  0  0  0  0
 15 16  2  3  0  0  0
 15 44  1  0  0  0  0
 16 17  1  0  0  0  0
 16 45  1  0  0  0  0
 17 18  1  0  0  0  0
 17 24  2  0  0  0  0
 18 19  2  0  0  0  0
 18 46  1  0  0  0  0
 19 20  1  0  0  0  0
 19 47  1  0  0  0  0
 20 21  1  0  0  0  0
 20 22  2  0  0  0  0
 21 48  1  0  0  0  0
 21 49  1  0  0  0  0
 21 50  1  0  0  0  0
 22 23  1  0  0  0  0
 22 24  1  0  0  0  0
 23 51  1  0  0  0  0
 23 52  1  0  0  0  0
 23 53  1  0  0  0  0
 24 25  1  0  0  0  0
 25 54  1  0  0  0  0
M  END
$$$$
