
 OpenBabel04232216573D

 43 44  0  0  0  0  0  0  0  0999 V2000
    7.7390    7.6301   -1.3760 C   0  0  0  0  0  0  0  0  0  0  0  0
    7.3652    6.3097   -1.7424 O   0  0  0  0  0  0  0  0  0  0  0  0
    6.7747    6.2177   -2.8879 C   0  0  0  0  0  0  0  0  0  0  0  0
    6.9305    4.8189   -3.6930 C   0  0  0  0  0  0  0  0  0  0  0  0
    6.3200    4.6358   -4.9492 C   0  0  0  0  0  0  0  0  0  0  0  0
    6.4937    3.3126   -5.6768 C   0  0  0  0  0  0  0  0  0  0  0  0
    7.1808    2.2822   -5.2462 C   0  0  0  0  0  0  0  0  0  0  0  0
    7.8388    1.2957   -4.7084 C   0  0  0  0  0  0  0  0  0  0  0  0
    9.0548    0.8190   -5.1303 N   0  0  0  0  0  0  0  0  0  0  0  0
    9.7277    1.1823   -6.3049 N   0  0  0  0  0  0  0  0  0  0  0  0
   10.5399    0.2559   -6.9410 C   0  0  0  0  0  0  0  0  0  0  0  0
   10.6445   -0.9095   -6.5646 O   0  0  0  0  0  0  0  0  0  0  0  0
   11.3162    0.7505   -8.1323 C   0  0  0  0  0  0  0  0  0  0  0  0
   11.4773    2.1256   -8.6182 C   0  0  0  0  0  0  0  0  0  0  0  0
   12.3151    2.1367   -9.6772 C   0  0  0  0  0  0  0  0  0  0  0  0
   12.7278    3.2351  -10.4106 N   0  0  0  0  0  0  0  0  0  0  0  0
   13.6014    3.1649  -11.4942 C   0  0  0  0  0  0  0  0  0  0  0  0
   14.0963    2.1174  -11.9025 O   0  0  0  0  0  0  0  0  0  0  0  0
   13.9104    4.4814  -12.1912 C   0  0  0  0  0  0  0  0  0  0  0  0
   14.8838    4.2445  -13.3555 C   0  0  0  0  0  0  0  0  0  0  0  0
   14.3073    3.3809  -14.3315 O   0  0  0  0  0  0  0  0  0  0  0  0
   12.7759    0.7210   -9.9693 C   0  0  0  0  0  0  0  0  0  0  0  0
   12.0501   -0.0626   -8.9075 C   0  0  0  0  0  0  0  0  0  0  0  0
    5.9909    7.1433   -3.5705 C   0  0  0  0  0  0  0  0  0  0  0  0
    8.2197    7.5864   -0.3931 H   0  0  0  0  0  0  0  0  0  0  0  0
    6.8745    8.2977   -1.2915 H   0  0  0  0  0  0  0  0  0  0  0  0
    8.4708    8.0342   -2.0851 H   0  0  0  0  0  0  0  0  0  0  0  0
    7.5379    4.0531   -3.1855 H   0  0  0  0  0  0  0  0  0  0  0  0
    6.0579    3.2682   -6.6697 H   0  0  0  0  0  0  0  0  0  0  0  0
    7.4928    0.8544   -3.7747 H   0  0  0  0  0  0  0  0  0  0  0  0
    9.4224   -0.0099   -4.6508 H   0  0  0  0  0  0  0  0  0  0  0  0
    9.6258    2.1452   -6.5946 H   0  0  0  0  0  0  0  0  0  0  0  0
   11.0088    2.9760   -8.1804 H   0  0  0  0  0  0  0  0  0  0  0  0
   12.3609    4.1422  -10.1490 H   0  0  0  0  0  0  0  0  0  0  0  0
   14.3700    5.1751  -11.4759 H   0  0  0  0  0  0  0  0  0  0  0  0
   12.9810    4.9129  -12.5717 H   0  0  0  0  0  0  0  0  0  0  0  0
   15.8266    3.8012  -13.0151 H   0  0  0  0  0  0  0  0  0  0  0  0
   15.1200    5.1862  -13.8578 H   0  0  0  0  0  0  0  0  0  0  0  0
   14.2370    2.5005  -13.8996 H   0  0  0  0  0  0  0  0  0  0  0  0
   13.8563    0.6218   -9.8355 H   0  0  0  0  0  0  0  0  0  0  0  0
   12.4803    0.3914  -10.9633 H   0  0  0  0  0  0  0  0  0  0  0  0
   12.1501   -1.1332   -8.7959 H   0  0  0  0  0  0  0  0  0  0  0  0
    5.3946    7.4377   -4.4271 H   0  0  0  0  0  0  0  0  0  0  0  0
  1  2  1  0  0  0  0
  1 25  1  0  0  0  0
  1 26  1  0  0  0  0
  1 27  1  0  0  0  0
  2  3  1  0  0  0  0
  3  4  1  0  0  0  0
  3 24  2  0  0  0  0
  4  5  2  0  0  0  0
  4 28  1  0  0  0  0
  5  6  1  0  0  0  0
  5 24  1  0  0  0  0
  6  7  2  0  0  0  0
  6 29  1  0  0  0  0
  7  8  2  0  0  0  0
  8  9  1  0  0  0  0
  8 30  1  0  0  0  0
  9 10  1  0  0  0  0
  9 31  1  0  0  0  0
 10 11  1  0  0  0  0
 10 32  1  0  0  0  0
 11 12  2  0  0  0  0
 11 13  1  0  0  0  0
 13 14  1  0  0  0  0
 13 23  2  0  0  0  0
 14 15  2  0  0  0  0
 14 33  1  0  0  0  0
 15 16  1  0  0  0  0
 15 22  1  0  0  0  0
 16 17  1  0  0  0  0
 16 34  1  0  0  0  0
 17 18  2  0  0  0  0
 17 19  1  0  0  0  0
 19 20  1  0  0  0  0
 19 35  1  0  0  0  0
 19 36  1  0  0  0  0
 20 21  1  0  0  0  0
 20 37  1  0  0  0  0
 20 38  1  0  0  0  0
 21 39  1  0  0  0  0
 22 23  1  0  0  0  0
 22 40  1  0  0  0  0
 22 41  1  0  0  0  0
 23 42  1  0  0  0  0
 24 43  1  0  0  0  0
M  END
$$$$
