
 OpenBabel04232217033D

145144  0  0  0  0  0  0  0  0999 V2000
   22.0679   -2.7414  -32.8053 S   0  0  0  0  0  0  0  0  0  0  0  0
   21.2565   -1.3742  -32.3229 O   0  0  0  0  0  0  0  0  0  0  0  0
   21.9466   -0.0258  -33.0080 S   0  0  0  0  0  0  0  0  0  0  0  0
   21.0154    1.3895  -31.8493 S   0  0  0  0  0  0  0  0  0  0  0  0
   21.9546    1.2188  -30.3166 C   0  0  0  0  0  0  0  0  0  0  0  0
   21.4768    2.1591  -29.3015 N   0  0  0  0  0  0  0  0  0  0  0  0
   22.1793    1.8471  -28.1158 N   0  0  0  0  0  0  0  0  0  0  0  0
   21.7830    2.6735  -27.0386 N   0  0  0  0  0  0  0  0  0  0  0  0
   22.5956    2.4032  -25.8983 N   0  0  0  0  0  0  0  0  0  0  0  0
   23.9878    2.7104  -26.1675 N   0  0  0  0  0  0  0  0  0  0  0  0
   24.1360    4.0718  -26.6832 N   0  0  0  0  0  0  0  0  0  0  0  0
   23.7133    5.0617  -25.7060 N   0  0  0  0  0  0  0  0  0  0  0  0
   24.4613    4.9449  -24.4717 N   0  0  0  0  0  0  0  0  0  0  0  0
   25.8736    5.1781  -24.6677 N   0  0  0  0  0  0  0  0  0  0  0  0
   26.1689    6.5109  -25.0726 N   0  0  0  0  0  0  0  0  0  0  0  0
   25.8319    7.4663  -24.0934 N   0  0  0  0  0  0  0  0  0  0  0  0
   26.6284    7.3180  -22.9407 N   0  0  0  0  0  0  0  0  0  0  0  0
   27.9912    7.4814  -23.2745 N   0  0  0  0  0  0  0  0  0  0  0  0
   28.1869    8.8073  -23.7510 N   0  0  0  0  0  0  0  0  0  0  0  0
   27.6371    9.7422  -22.8090 N   0  0  0  0  0  0  0  0  0  0  0  0
   28.2524    9.5289  -21.5214 N   0  0  0  0  0  0  0  0  0  0  0  0
   29.6972    9.5873  -21.6536 N   0  0  0  0  0  0  0  0  0  0  0  0
   30.1297   10.8296  -22.2372 N   0  0  0  0  0  0  0  0  0  0  0  0
   29.8697   11.9701  -21.4403 N   0  0  0  0  0  0  0  0  0  0  0  0
   30.5225   12.0048  -20.2045 N   0  0  0  0  0  0  0  0  0  0  0  0
   31.9005   12.1769  -20.3060 N   0  0  0  0  0  0  0  0  0  0  0  0
   32.2276   13.4495  -20.8107 N   0  0  0  0  0  0  0  0  0  0  0  0
   31.7012   14.4453  -19.9420 N   0  0  0  0  0  0  0  0  0  0  0  0
   32.2934   14.3002  -18.6315 N   0  0  0  0  0  0  0  0  0  0  0  0
   33.7422   14.2677  -18.7177 N   0  0  0  0  0  0  0  0  0  0  0  0
   34.2711   15.4649  -19.3252 N   0  0  0  0  0  0  0  0  0  0  0  0
   33.9627   16.6522  -18.5894 N   0  0  0  0  0  0  0  0  0  0  0  0
   34.5964   16.6978  -17.3072 N   0  0  0  0  0  0  0  0  0  0  0  0
   36.0211   16.7125  -17.4614 N   0  0  0  0  0  0  0  0  0  0  0  0
   36.4131   17.9383  -18.1061 N   0  0  0  0  0  0  0  0  0  0  0  0
   35.9428   19.0512  -17.3092 N   0  0  0  0  0  0  0  0  0  0  0  0
   36.4628   18.9103  -15.9741 N   0  0  0  0  0  0  0  0  0  0  0  0
   37.8912   18.8604  -16.0926 N   0  0  0  0  0  0  0  0  0  0  0  0
   38.2870   20.0227  -16.8697 N   0  0  0  0  0  0  0  0  0  0  0  0
   37.6904   21.1836  -16.2226 N   0  0  0  0  0  0  0  0  0  0  0  0
   38.1929   21.2770  -14.8792 N   0  0  0  0  0  0  0  0  0  0  0  0
   39.6210   21.0690  -14.8990 N   0  0  0  0  0  0  0  0  0  0  0  0
   40.2838   22.1682  -15.5466 N   0  0  0  0  0  0  0  0  0  0  0  0
   39.8580   23.3821  -14.9151 N   0  0  0  0  0  0  0  0  0  0  0  0
   40.2906   23.4095  -13.5548 N   0  0  0  0  0  0  0  0  0  0  0  0
   41.7136   23.4921  -13.4676 N   0  0  0  0  0  0  0  0  0  0  0  0
   42.1682   24.6875  -14.1419 N   0  0  0  0  0  0  0  0  0  0  0  0
   41.5623   25.8496  -13.5559 N   0  0  0  0  0  0  0  0  0  0  0  0
   41.9880   26.0038  -12.2084 N   0  0  0  0  0  0  0  0  0  0  0  0
   41.6216   27.2741  -11.6780 N   0  0  0  0  0  0  0  0  0  0  0  0
   39.9886   27.4759  -11.4352 S   0  0  0  0  0  0  0  0  0  0  0  0
   39.4209   26.0639  -10.7943 N   0  0  0  0  0  0  0  0  0  0  0  0
   37.8018   26.1206  -10.4831 S   0  0  0  0  0  0  0  0  0  0  0  0
   37.0572   26.0942  -11.9569 N   0  0  0  0  0  0  0  0  0  0  0  0
   36.8829   24.5537  -12.5287 S   0  0  0  0  0  0  0  0  0  0  0  0
   36.4026   24.7510  -14.0987 N   0  0  0  0  0  0  0  0  0  0  0  0
   34.7483   24.8545  -14.2547 S   0  0  0  0  0  0  0  0  0  0  0  0
   34.2373   26.2649  -13.5253 N   0  0  0  0  0  0  0  0  0  0  0  0
   34.7321   27.6312  -14.3232 S   0  0  0  0  0  0  0  0  0  0  0  0
   33.9203   27.7073  -15.7727 N   0  0  0  0  0  0  0  0  0  0  0  0
   34.2392   29.1137  -16.5936 S   0  0  0  0  0  0  0  0  0  0  0  0
   35.8721   29.1877  -16.8400 N   0  0  0  0  0  0  0  0  0  0  0  0
   36.4138   30.5357  -17.6249 S   0  0  0  0  0  0  0  0  0  0  0  0
   35.9541   31.9238  -16.8418 N   0  0  0  0  0  0  0  0  0  0  0  0
   36.6143   32.1436  -15.3320 S   0  0  0  0  0  0  0  0  0  0  0  0
   38.2543   32.3656  -15.3720 N   0  0  0  0  0  0  0  0  0  0  0  0
   38.7952   33.6697  -16.2220 S   0  0  0  0  0  0  0  0  0  0  0  0
   38.4135   35.0780  -15.4512 N   0  0  0  0  0  0  0  0  0  0  0  0
   39.0176   35.2864  -13.9314 S   0  0  0  0  0  0  0  0  0  0  0  0
   40.6609   35.3862  -13.9752 N   0  0  0  0  0  0  0  0  0  0  0  0
   41.2486   36.6287  -14.8813 S   0  0  0  0  0  0  0  0  0  0  0  0
   42.8838   36.5274  -14.6809 N   0  0  0  0  0  0  0  0  0  0  0  0
   43.5385   35.2466  -15.4916 S   0  0  0  0  0  0  0  0  0  0  0  0
   45.1659   35.3257  -15.2094 N   0  0  0  0  0  0  0  0  0  0  0  0
   45.8912   36.3310  -16.3156 S   0  0  0  0  0  0  0  0  0  0  0  0
   47.5102   36.2837  -16.0005 N   0  0  0  0  0  0  0  0  0  0  0  0
   48.2017   34.8478  -16.4461 S   0  0  0  0  0  0  0  0  0  0  0  0
   49.8391   35.0948  -16.4744 N   0  0  0  0  0  0  0  0  0  0  0  0
   50.4584   35.3595  -14.9621 S   0  0  0  0  0  0  0  0  0  0  0  0
   52.1012   35.1656  -15.0440 N   0  0  0  0  0  0  0  0  0  0  0  0
   52.8410   36.4208  -15.8244 S   0  0  0  0  0  0  0  0  0  0  0  0
   21.6387   -3.5764  -31.8476 H   0  0  0  0  0  0  0  0  0  0  0  0
   23.0139    1.4096  -30.5296 H   0  0  0  0  0  0  0  0  0  0  0  0
   21.8454    0.1895  -29.9533 H   0  0  0  0  0  0  0  0  0  0  0  0
   20.4828    1.9906  -29.1494 H   0  0  0  0  0  0  0  0  0  0  0  0
   23.1725    1.9996  -28.2884 H   0  0  0  0  0  0  0  0  0  0  0  0
   20.8044    2.5235  -26.8111 H   0  0  0  0  0  0  0  0  0  0  0  0
   22.4583    1.4273  -25.6012 H   0  0  0  0  0  0  0  0  0  0  0  0
   24.3858    2.0255  -26.8314 H   0  0  0  0  0  0  0  0  0  0  0  0
   23.6153    4.1817  -27.5747 H   0  0  0  0  0  0  0  0  0  0  0  0
   22.6911    5.0252  -25.5365 H   0  0  0  0  0  0  0  0  0  0  0  0
   24.2817    4.0396  -24.0015 H   0  0  0  0  0  0  0  0  0  0  0  0
   26.3161    4.5213  -25.3159 H   0  0  0  0  0  0  0  0  0  0  0  0
   25.8247    6.7763  -25.9914 H   0  0  0  0  0  0  0  0  0  0  0  0
   24.8456    7.5220  -23.8717 H   0  0  0  0  0  0  0  0  0  0  0  0
   26.4930    6.4662  -22.4186 H   0  0  0  0  0  0  0  0  0  0  0  0
   28.3253    6.8150  -23.9568 H   0  0  0  0  0  0  0  0  0  0  0  0
   27.7659    8.9761  -24.6502 H   0  0  0  0  0  0  0  0  0  0  0  0
   26.6210    9.6648  -22.7419 H   0  0  0  0  0  0  0  0  0  0  0  0
   28.0065    8.6182  -21.1223 H   0  0  0  0  0  0  0  0  0  0  0  0
   30.0590    8.8210  -22.2373 H   0  0  0  0  0  0  0  0  0  0  0  0
   29.7313   10.9974  -23.1679 H   0  0  0  0  0  0  0  0  0  0  0  0
   28.8949   12.2020  -21.3033 H   0  0  0  0  0  0  0  0  0  0  0  0
   30.3232   11.2482  -19.5702 H   0  0  0  0  0  0  0  0  0  0  0  0
   32.3340   11.4823  -20.8848 H   0  0  0  0  0  0  0  0  0  0  0  0
   31.8201   13.5700  -21.7312 H   0  0  0  0  0  0  0  0  0  0  0  0
   30.6976   14.2318  -19.8583 H   0  0  0  0  0  0  0  0  0  0  0  0
   31.9974   13.3683  -18.3025 H   0  0  0  0  0  0  0  0  0  0  0  0
   33.9492   13.4782  -19.3535 H   0  0  0  0  0  0  0  0  0  0  0  0
   33.7760   15.5589  -20.2135 H   0  0  0  0  0  0  0  0  0  0  0  0
   32.9464   16.6718  -18.4857 H   0  0  0  0  0  0  0  0  0  0  0  0
   34.3199   15.8529  -16.8002 H   0  0  0  0  0  0  0  0  0  0  0  0
   36.2230   15.9146  -18.0854 H   0  0  0  0  0  0  0  0  0  0  0  0
   35.9236   17.9307  -19.0165 H   0  0  0  0  0  0  0  0  0  0  0  0
   34.9360   18.9030  -17.2382 H   0  0  0  0  0  0  0  0  0  0  0  0
   36.1132   17.9845  -15.6797 H   0  0  0  0  0  0  0  0  0  0  0  0
   38.0489   18.0266  -16.6793 H   0  0  0  0  0  0  0  0  0  0  0  0
   37.8013   19.8990  -17.7734 H   0  0  0  0  0  0  0  0  0  0  0  0
   36.7015   20.8894  -16.1429 H   0  0  0  0  0  0  0  0  0  0  0  0
   37.8215   20.4763  -14.3683 H   0  0  0  0  0  0  0  0  0  0  0  0
   39.7922   20.2049  -15.4369 H   0  0  0  0  0  0  0  0  0  0  0  0
   39.9969   22.1790  -16.5353 H   0  0  0  0  0  0  0  0  0  0  0  0
   38.8525   23.2555  -14.8258 H   0  0  0  0  0  0  0  0  0  0  0  0
   39.9392   22.5402  -13.1361 H   0  0  0  0  0  0  0  0  0  0  0  0
   42.0905   22.6717  -13.9532 H   0  0  0  0  0  0  0  0  0  0  0  0
   41.7471   24.6039  -15.0732 H   0  0  0  0  0  0  0  0  0  0  0  0
   40.5561   25.6264  -13.5229 H   0  0  0  0  0  0  0  0  0  0  0  0
   42.9917   25.8160  -12.1708 H   0  0  0  0  0  0  0  0  0  0  0  0
   41.9597   28.0033  -12.3074 H   0  0  0  0  0  0  0  0  0  0  0  0
   39.9571   25.8221   -9.9626 H   0  0  0  0  0  0  0  0  0  0  0  0
   37.5972   26.6536  -12.6187 H   0  0  0  0  0  0  0  0  0  0  0  0
   36.7199   23.9316  -14.6288 H   0  0  0  0  0  0  0  0  0  0  0  0
   34.6181   26.2535  -12.5709 H   0  0  0  0  0  0  0  0  0  0  0  0
   32.9252   27.5384  -15.6216 H   0  0  0  0  0  0  0  0  0  0  0  0
   36.2491   28.3262  -17.2479 H   0  0  0  0  0  0  0  0  0  0  0  0
   34.9351   31.9701  -16.7789 H   0  0  0  0  0  0  0  0  0  0  0  0
   38.7553   31.5125  -15.6251 H   0  0  0  0  0  0  0  0  0  0  0  0
   37.4120   35.2701  -15.4677 H   0  0  0  0  0  0  0  0  0  0  0  0
   41.1003   34.5152  -14.2537 H   0  0  0  0  0  0  0  0  0  0  0  0
   43.1130   36.4956  -13.6898 H   0  0  0  0  0  0  0  0  0  0  0  0
   45.5699   34.3951  -15.3294 H   0  0  0  0  0  0  0  0  0  0  0  0
   47.6926   36.4927  -15.0197 H   0  0  0  0  0  0  0  0  0  0  0  0
   50.0615   35.8430  -17.1323 H   0  0  0  0  0  0  0  0  0  0  0  0
   52.3464   34.2580  -15.4398 H   0  0  0  0  0  0  0  0  0  0  0  0
   52.4171   37.4219  -15.0356 H   0  0  0  0  0  0  0  0  0  0  0  0
  1  2  1  0  0  0  0
  1 82  1  0  0  0  0
  2  3  1  0  0  0  0
  3  4  1  0  0  0  0
  4  5  1  0  0  0  0
  5  6  1  0  0  0  0
  5 83  1  0  0  0  0
  5 84  1  0  0  0  0
  6  7  1  0  0  0  0
  6 85  1  0  0  0  0
  7  8  1  0  0  0  0
  7 86  1  0  0  0  0
  8  9  1  0  0  0  0
  8 87  1  0  0  0  0
  9 10  1  0  0  0  0
  9 88  1  0  0  0  0
 10 11  1  0  0  0  0
 10 89  1  0  0  0  0
 11 12  1  0  0  0  0
 11 90  1  0  0  0  0
 12 13  1  0  0  0  0
 12 91  1  0  0  0  0
 13 14  1  0  0  0  0
 13 92  1  0  0  0  0
 14 15  1  0  0  0  0
 14 93  1  0  0  0  0
 15 16  1  0  0  0  0
 15 94  1  0  0  0  0
 16 17  1  0  0  0  0
 16 95  1  0  0  0  0
 17 18  1  0  0  0  0
 17 96  1  0  0  0  0
 18 19  1  0  0  0  0
 18 97  1  0  0  0  0
 19 20  1  0  0  0  0
 19 98  1  0  0  0  0
 20 21  1  0  0  0  0
 20 99  1  0  0  0  0
 21 22  1  0  0  0  0
 21100  1  0  0  0  0
 22 23  1  0  0  0  0
 22101  1  0  0  0  0
 23 24  1  0  0  0  0
 23102  1  0  0  0  0
 24 25  1  0  0  0  0
 24103  1  0  0  0  0
 25 26  1  0  0  0  0
 25104  1  0  0  0  0
 26 27  1  0  0  0  0
 26105  1  0  0  0  0
 27 28  1  0  0  0  0
 27106  1  0  0  0  0
 28 29  1  0  0  0  0
 28107  1  0  0  0  0
 29 30  1  0  0  0  0
 29108  1  0  0  0  0
 30 31  1  0  0  0  0
 30109  1  0  0  0  0
 31 32  1  0  0  0  0
 31110  1  0  0  0  0
 32 33  1  0  0  0  0
 32111  1  0  0  0  0
 33 34  1  0  0  0  0
 33112  1  0  0  0  0
 34 35  1  0  0  0  0
 34113  1  0  0  0  0
 35 36  1  0  0  0  0
 35114  1  0  0  0  0
 36 37  1  0  0  0  0
 36115  1  0  0  0  0
 37 38  1  0  0  0  0
 37116  1  0  0  0  0
 38 39  1  0  0  0  0
 38117  1  0  0  0  0
 39 40  1  0  0  0  0
 39118  1  0  0  0  0
 40 41  1  0  0  0  0
 40119  1  0  0  0  0
 41 42  1  0  0  0  0
 41120  1  0  0  0  0
 42 43  1  0  0  0  0
 42121  1  0  0  0  0
 43 44  1  0  0  0  0
 43122  1  0  0  0  0
 44 45  1  0  0  0  0
 44123  1  0  0  0  0
 45 46  1  0  0  0  0
 45124  1  0  0  0  0
 46 47  1  0  0  0  0
 46125  1  0  0  0  0
 47 48  1  0  0  0  0
 47126  1  0  0  0  0
 48 49  1  0  0  0  0
 48127  1  0  0  0  0
 49 50  1  0  0  0  0
 49128  1  0  0  0  0
 50 51  1  0  0  0  0
 50129  1  0  0  0  0
 51 52  1  0  0  0  0
 52 53  1  0  0  0  0
 52130  1  0  0  0  0
 53 54  1  0  0  0  0
 54 55  1  0  0  0  0
 54131  1  0  0  0  0
 55 56  1  0  0  0  0
 56 57  1  0  0  0  0
 56132  1  0  0  0  0
 57 58  1  0  0  0  0
 58 59  1  0  0  0  0
 58133  1  0  0  0  0
 59 60  1  0  0  0  0
 60 61  1  0  0  0  0
 60134  1  0  0  0  0
 61 62  1  0  0  0  0
 62 63  1  0  0  0  0
 62135  1  0  0  0  0
 63 64  1  0  0  0  0
 64 65  1  0  0  0  0
 64136  1  0  0  0  0
 65 66  1  0  0  0  0
 66 67  1  0  0  0  0
 66137  1  0  0  0  0
 67 68  1  0  0  0  0
 68 69  1  0  0  0  0
 68138  1  0  0  0  0
 69 70  1  0  0  0  0
 70 71  1  0  0  0  0
 70139  1  0  0  0  0
 71 72  1  0  0  0  0
 72 73  1  0  0  0  0
 72140  1  0  0  0  0
 73 74  1  0  0  0  0
 74 75  1  0  0  0  0
 74141  1  0  0  0  0
 75 76  1  0  0  0  0
 76 77  1  0  0  0  0
 76142  1  0  0  0  0
 77 78  1  0  0  0  0
 78 79  1  0  0  0  0
 78143  1  0  0  0  0
 79 80  1  0  0  0  0
 80 81  1  0  0  0  0
 80144  1  0  0  0  0
 81145  1  0  0  0  0
M  END
$$$$
