
 OpenBabel04232216543D

 23 23  0  0  0  0  0  0  0  0999 V2000
    0.9436    0.3277    0.2266 C   0  0  0  0  0  0  0  0  0  0  0  0
    2.4639    0.3549    0.2109 C   0  0  0  0  0  0  0  0  0  0  0  0
    2.9999    1.3118   -0.8569 C   0  0  0  0  0  0  0  0  0  0  0  0
    4.5313    1.3309   -0.8621 C   0  0  0  0  0  0  0  0  0  0  0  0
    5.0208    2.2765   -1.8718 N   0  0  0  0  0  0  0  0  0  0  0  0
    6.4640    2.3093   -1.8808 N   0  0  0  0  0  0  0  0  0  0  0  0
    7.2647    2.1377   -0.8121 N   0  0  0  0  0  0  0  0  0  0  0  0
    8.4976    2.3575   -1.2419 N   0  0  0  0  0  0  0  0  0  0  0  0
    8.5084    2.7110   -2.5670 N   0  0  0  0  0  0  0  0  0  0  0  0
    7.2562    2.6978   -2.9638 C   0  0  0  0  0  0  0  0  0  0  0  0
    6.7656    3.0270   -4.1801 N   0  0  0  0  0  0  0  0  0  0  0  0
    0.5848   -0.3719    0.9882 H   0  0  0  0  0  0  0  0  0  0  0  0
    0.5464    0.0076   -0.7419 H   0  0  0  0  0  0  0  0  0  0  0  0
    0.5355    1.3172    0.4561 H   0  0  0  0  0  0  0  0  0  0  0  0
    2.8389   -0.6582    0.0246 H   0  0  0  0  0  0  0  0  0  0  0  0
    2.8266    0.6579    1.1998 H   0  0  0  0  0  0  0  0  0  0  0  0
    2.6157    2.3214   -0.6635 H   0  0  0  0  0  0  0  0  0  0  0  0
    2.6291    1.0065   -1.8430 H   0  0  0  0  0  0  0  0  0  0  0  0
    4.9072    0.3218   -1.0713 H   0  0  0  0  0  0  0  0  0  0  0  0
    4.8782    1.6234    0.1371 H   0  0  0  0  0  0  0  0  0  0  0  0
    4.6794    3.2050   -1.6351 H   0  0  0  0  0  0  0  0  0  0  0  0
    7.3854    3.5057   -4.8238 H   0  0  0  0  0  0  0  0  0  0  0  0
    5.7774    3.2242   -4.2987 H   0  0  0  0  0  0  0  0  0  0  0  0
  1  2  1  0  0  0  0
  1 12  1  0  0  0  0
  1 13  1  0  0  0  0
  1 14  1  0  0  0  0
  2  3  1  0  0  0  0
  2 15  1  0  0  0  0
  2 16  1  0  0  0  0
  3  4  1  0  0  0  0
  3 17  1  0  0  0  0
  3 18  1  0  0  0  0
  4  5  1  0  0  0  0
  4 19  1  0  0  0  0
  4 20  1  0  0  0  0
  5  6  1  0  0  0  0
  5 21  1  0  0  0  0
  6  7  1  0  0  0  0
  6 10  1  0  0  0  0
  7  8  2  0  0  0  0
  8  9  1  0  0  0  0
  9 10  2  0  0  0  0
 10 11  1  0  0  0  0
 11 22  1  0  0  0  0
 11 23  1  0  0  0  0
M  END
$$$$
