
 OpenBabel04232216503D

 73 74  0  0  1  0  0  0  0  0999 V2000
    7.2610    0.2253   -3.6048 C   0  0  0  0  0  0  0  0  0  0  0  0
    8.1539    1.8184   -3.6214 C   0  0  3  0  0  0  0  0  0  0  0  0
    6.3509    2.3126   -3.1813 C   0  0  0  0  0  0  0  0  0  0  0  0
    5.7382    2.1337   -1.5563 C   0  0  0  0  0  0  0  0  0  0  0  0
    5.5026    3.5116   -0.9902 C   0  0  0  0  0  0  0  0  0  0  0  0
    6.9087    3.8647   -0.7342 C   0  0  0  0  0  0  0  0  0  0  0  0
    7.2197    4.6784   -1.9161 C   0  0  0  0  0  0  0  0  0  0  0  0
    8.6477    4.4823   -1.9259 C   0  0  0  0  0  0  0  0  0  0  0  0
    8.9492    5.2811   -3.1092 C   0  0  0  0  0  0  0  0  0  0  0  0
   10.3499    5.2331   -2.9540 C   0  0  0  0  0  0  0  0  0  0  0  0
   10.6781    6.2911   -3.9000 C   0  0  0  0  0  0  0  0  0  0  0  0
   12.0095    6.3496   -3.3918 C   0  0  0  0  0  0  0  0  0  0  0  0
   12.6686    7.4061   -4.1208 C   0  0  0  0  0  0  0  0  0  0  0  0
   13.9595    6.9766   -3.5758 C   0  0  0  0  0  0  0  0  0  0  0  0
   14.1051    6.5615   -2.4238 O   0  0  0  0  0  0  0  0  0  0  0  0
   15.0655    7.0756   -4.4717 C   0  0  0  0  0  0  0  0  0  0  0  0
   14.6614    6.7709   -5.7503 C   0  0  0  0  0  0  0  0  0  0  0  0
   13.4640    5.6025   -6.0291 C   0  0  0  0  0  0  0  0  0  0  0  0
   13.4689    4.3617   -5.5385 C   0  0  0  0  0  0  0  0  0  0  0  0
   15.3580    4.2970   -5.6997 C   0  0  0  0  0  0  0  0  0  0  0  0
   16.9988    5.3579   -5.7360 C   0  0  0  0  0  0  0  0  0  0  0  0
   18.5022    5.5133   -5.1577 C   0  0  0  0  0  0  0  0  0  0  0  0
   18.7028    5.2239   -3.7147 C   0  0  0  0  0  0  0  0  0  0  0  0
   17.7457    5.2904   -2.5931 C   0  0  0  0  0  0  0  0  0  0  0  0
   16.6561    6.2736   -2.7115 C   0  0  0  0  0  3  0  0  0  0  0  0
   16.2525    7.5053   -3.5639 C   0  0  0  0  0  0  0  0  0  0  0  0
   11.8247    3.2160   -5.0056 C   0  0  0  0  0  0  0  0  0  0  0  0
    9.8895    2.4515   -4.5684 C   0  0  0  0  0  0  0  0  0  0  0  0
    6.4278    0.2486   -2.8129 H   0  0  0  0  0  0  0  0  0  0  0  0
    7.6622   -0.6094   -3.0260 H   0  0  0  0  0  0  0  0  0  0  0  0
    6.5131    0.0814   -4.4226 H   0  0  0  0  0  0  0  0  0  0  0  0
    8.4742    1.6830   -2.5789 H   0  0  0  0  0  0  0  0  0  0  0  0
    5.5062    1.6039   -3.5039 H   0  0  0  0  0  0  0  0  0  0  0  0
    5.9257    3.0596   -3.8507 H   0  0  0  0  0  0  0  0  0  0  0  0
    6.4397    1.5287   -0.9477 H   0  0  0  0  0  0  0  0  0  0  0  0
    4.7913    1.5913   -1.3966 H   0  0  0  0  0  0  0  0  0  0  0  0
    4.9176    3.6862   -0.0867 H   0  0  0  0  0  0  0  0  0  0  0  0
    5.0142    4.1058   -1.7801 H   0  0  0  0  0  0  0  0  0  0  0  0
    7.5755    2.9785   -0.7383 H   0  0  0  0  0  0  0  0  0  0  0  0
    7.1630    4.3300    0.2141 H   0  0  0  0  0  0  0  0  0  0  0  0
    6.8726    5.7086   -1.8446 H   0  0  0  0  0  0  0  0  0  0  0  0
    6.8599    4.3528   -2.8937 H   0  0  0  0  0  0  0  0  0  0  0  0
    9.0243    3.4629   -2.0626 H   0  0  0  0  0  0  0  0  0  0  0  0
    9.0902    4.8402   -0.9895 H   0  0  0  0  0  0  0  0  0  0  0  0
    8.5359    6.2933   -3.0027 H   0  0  0  0  0  0  0  0  0  0  0  0
    8.6007    4.8729   -4.0715 H   0  0  0  0  0  0  0  0  0  0  0  0
   10.7530    4.2440   -3.1416 H   0  0  0  0  0  0  0  0  0  0  0  0
   10.6582    5.4361   -1.9089 H   0  0  0  0  0  0  0  0  0  0  0  0
   10.1771    7.2454   -3.7071 H   0  0  0  0  0  0  0  0  0  0  0  0
   10.5413    6.0039   -4.9452 H   0  0  0  0  0  0  0  0  0  0  0  0
   12.4829    5.3466   -3.4683 H   0  0  0  0  0  0  0  0  0  0  0  0
   12.0151    6.6153   -2.3210 H   0  0  0  0  0  0  0  0  0  0  0  0
   12.3873    8.4093   -3.8603 H   0  0  0  0  0  0  0  0  0  0  0  0
   12.4363    7.2882   -5.1802 H   0  0  0  0  0  0  0  0  0  0  0  0
   15.2847    7.0791   -6.5961 H   0  0  0  0  0  0  0  0  0  0  0  0
   12.7565    5.9626   -6.7671 H   0  0  0  0  0  0  0  0  0  0  0  0
   15.2690    4.6707   -6.8035 H   0  0  0  0  0  0  0  0  0  0  0  0
   15.7025    3.3027   -5.9407 H   0  0  0  0  0  0  0  0  0  0  0  0
   17.2296    5.4284   -6.8117 H   0  0  0  0  0  0  0  0  0  0  0  0
   16.7994    6.3913   -5.4955 H   0  0  0  0  0  0  0  0  0  0  0  0
   18.9126    6.5609   -5.2610 H   0  0  0  0  0  0  0  0  0  0  0  0
   19.3188    5.0079   -5.7255 H   0  0  0  0  0  0  0  0  0  0  0  0
   18.8371    4.1473   -3.8486 H   0  0  0  0  0  0  0  0  0  0  0  0
   19.4145    6.0033   -3.4026 H   0  0  0  0  0  0  0  0  0  0  0  0
   18.2782    5.3970   -1.6269 H   0  0  0  0  0  0  0  0  0  0  0  0
   17.3217    4.2757   -2.4894 H   0  0  0  0  0  0  0  0  0  0  0  0
   15.8255    5.6105   -2.4854 H   0  0  0  0  0  0  0  0  0  0  0  0
   17.0843    8.0584   -4.0087 H   0  0  0  0  0  0  0  0  0  0  0  0
   15.8254    8.2585   -2.8648 H   0  0  0  0  0  0  0  0  0  0  0  0
   11.2169    4.0714   -5.3746 H   0  0  0  0  0  0  0  0  0  0  0  0
   12.0647    3.1290   -3.9568 H   0  0  0  0  0  0  0  0  0  0  0  0
   10.3238    1.8777   -3.7672 H   0  0  0  0  0  0  0  0  0  0  0  0
    9.6365    1.9759   -5.4813 H   0  0  0  0  0  0  0  0  0  0  0  0
  1  2  1  0  0  0  0
  1 29  1  0  0  0  0
  1 30  1  0  0  0  0
  1 31  1  0  0  0  0
  2  3  1  0  0  0  0
  2 28  1  0  0  0  0
  2 32  1  0  0  0  0
  3  4  1  0  0  0  0
  3 33  1  0  0  0  0
  3 34  1  0  0  0  0
  4  5  1  0  0  0  0
  4 35  1  0  0  0  0
  4 36  1  0  0  0  0
  5  6  1  0  0  0  0
  5 37  1  0  0  0  0
  5 38  1  0  0  0  0
  6  7  1  0  0  0  0
  6 39  1  0  0  0  0
  6 40  1  0  0  0  0
  7  8  1  0  0  0  0
  7 41  1  0  0  0  0
  7 42  1  0  0  0  0
  8  9  1  0  0  0  0
  8 43  1  0  0  0  0
  8 44  1  0  0  0  0
  9 10  1  0  0  0  0
  9 45  1  0  0  0  0
  9 46  1  0  0  0  0
 10 11  1  0  0  0  0
 10 47  1  0  0  0  0
 10 48  1  0  0  0  0
 11 12  1  0  0  0  0
 11 49  1  0  0  0  0
 11 50  1  0  0  0  0
 12 13  1  0  0  0  0
 12 51  1  0  0  0  0
 12 52  1  0  0  0  0
 13 14  1  0  0  0  0
 13 53  1  0  0  0  0
 13 54  1  0  0  0  0
 14 15  2  0  0  0  0
 14 16  1  0  0  0  0
 16 17  2  3  0  0  0
 16 26  1  0  0  0  0
 17 18  1  0  0  0  0
 17 55  1  0  0  0  0
 18 19  2  3  0  0  0
 18 56  1  0  0  0  0
 19 20  1  0  0  0  0
 19 27  1  0  0  0  0
 20 21  1  0  0  0  0
 20 57  1  0  0  0  0
 20 58  1  0  0  0  0
 21 22  1  0  0  0  0
 21 59  1  0  0  0  0
 21 60  1  0  0  0  0
 22 23  1  0  0  0  0
 22 61  1  0  0  0  0
 22 62  1  0  0  0  0
 23 24  1  0  0  0  0
 23 63  1  0  0  0  0
 23 64  1  0  0  0  0
 24 25  1  0  0  0  0
 24 65  1  0  0  0  0
 24 66  1  0  0  0  0
 25 26  1  0  0  0  0
 25 67  1  0  0  0  0
 26 68  1  0  0  0  0
 26 69  1  0  0  0  0
 27 28  1  0  0  0  0
 27 70  1  0  0  0  0
 27 71  1  0  0  0  0
 28 72  1  0  0  0  0
 28 73  1  0  0  0  0
M  END
$$$$
