
 OpenBabel04232216543D

 61 62  0  0  1  0  0  0  0  0999 V2000
    0.7905   -0.2647    2.1029 C   0  0  0  0  0  0  0  0  0  0  0  0
    2.1765    0.2748    2.4112 C   0  0  0  0  0  0  0  0  0  0  0  0
    3.1978   -0.1576    1.3553 C   0  0  0  0  0  0  0  0  0  0  0  0
    4.6378    0.2985    1.6507 C   0  0  0  0  0  0  0  0  0  0  0  0
    5.1393   -0.2013    2.9338 N   0  0  0  0  0  0  0  0  0  0  0  0
    5.2030   -1.6598    3.1219 C   0  0  3  0  0  0  0  0  0  0  0  0
    6.6727   -2.1310    3.1044 C   0  0  0  0  0  0  0  0  0  0  0  0
    6.8275   -3.6380    3.2710 C   0  0  0  0  0  0  0  0  0  0  0  0
    4.5353   -1.9744    4.4353 C   0  0  0  0  0  0  0  0  0  0  0  0
    4.6165   -1.1593    5.5081 C   0  0  0  0  0  0  0  0  0  0  0  0
    4.0531   -1.4966    6.8646 C   0  0  0  0  0  0  0  0  0  0  0  0
    3.8280   -0.5931    7.6695 O   0  0  0  0  0  0  0  0  0  0  0  0
    3.7945   -2.9271    7.2447 C   0  0  0  0  0  0  0  0  0  0  0  0
    2.9099   -3.1409    8.2360 C   0  0  0  0  0  0  0  0  0  0  0  0
    2.5624   -4.4752    8.6618 C   0  0  0  0  0  0  0  0  0  0  0  0
    3.2934   -5.5466    8.3045 C   0  0  0  0  0  0  0  0  0  0  0  0
    2.9198   -6.9467    8.7125 C   0  0  0  0  0  0  0  0  0  0  0  0
    4.0352   -7.6387    9.4947 C   0  0  0  0  0  0  0  0  0  0  0  0
    3.6127   -9.0372    9.9397 C   0  0  0  0  0  0  0  0  0  0  0  0
    4.7380   -9.7188   10.7113 C   0  0  0  0  0  0  0  0  0  0  0  0
    4.3415  -11.1146   11.1675 C   0  0  0  0  0  0  0  0  0  0  0  0
    5.4157  -11.7068   11.8844 O   0  0  0  0  0  0  0  0  0  0  0  0
    4.5230   -5.3814    7.4466 C   0  0  0  0  0  0  0  0  0  0  0  0
    4.5301   -4.0864    6.6254 C   0  0  0  0  0  0  0  0  0  0  0  0
    5.1788    0.1755    5.2922 C   0  0  0  0  0  0  0  0  0  0  0  0
    5.3400    0.6209    4.0366 C   0  0  0  0  0  0  0  0  0  0  0  0
    0.0797    0.0583    2.8701 H   0  0  0  0  0  0  0  0  0  0  0  0
    0.7915   -1.3598    2.0858 H   0  0  0  0  0  0  0  0  0  0  0  0
    0.4341    0.0947    1.1330 H   0  0  0  0  0  0  0  0  0  0  0  0
    2.4674   -0.0879    3.4029 H   0  0  0  0  0  0  0  0  0  0  0  0
    2.1433    1.3690    2.4648 H   0  0  0  0  0  0  0  0  0  0  0  0
    2.8998    0.2509    0.3818 H   0  0  0  0  0  0  0  0  0  0  0  0
    3.1566   -1.2470    1.2423 H   0  0  0  0  0  0  0  0  0  0  0  0
    4.6787    1.3943    1.6241 H   0  0  0  0  0  0  0  0  0  0  0  0
    5.2970   -0.0586    0.8504 H   0  0  0  0  0  0  0  0  0  0  0  0
    4.6685   -2.1869    2.3254 H   0  0  0  0  0  0  0  0  0  0  0  0
    7.2498   -1.6334    3.8943 H   0  0  0  0  0  0  0  0  0  0  0  0
    7.1352   -1.8328    2.1552 H   0  0  0  0  0  0  0  0  0  0  0  0
    6.4409   -3.9811    4.2345 H   0  0  0  0  0  0  0  0  0  0  0  0
    7.8860   -3.9142    3.2289 H   0  0  0  0  0  0  0  0  0  0  0  0
    6.3011   -4.1775    2.4784 H   0  0  0  0  0  0  0  0  0  0  0  0
    3.9667   -2.8878    4.4327 H   0  0  0  0  0  0  0  0  0  0  0  0
    2.3927   -2.3171    8.7257 H   0  0  0  0  0  0  0  0  0  0  0  0
    1.6815   -4.5754    9.2909 H   0  0  0  0  0  0  0  0  0  0  0  0
    2.6861   -7.5243    7.8087 H   0  0  0  0  0  0  0  0  0  0  0  0
    2.0043   -6.9351    9.3170 H   0  0  0  0  0  0  0  0  0  0  0  0
    4.3029   -7.0357   10.3713 H   0  0  0  0  0  0  0  0  0  0  0  0
    4.9356   -7.7204    8.8734 H   0  0  0  0  0  0  0  0  0  0  0  0
    3.3481   -9.6392    9.0616 H   0  0  0  0  0  0  0  0  0  0  0  0
    2.7173   -8.9698   10.5691 H   0  0  0  0  0  0  0  0  0  0  0  0
    5.0180   -9.1163   11.5845 H   0  0  0  0  0  0  0  0  0  0  0  0
    5.6393   -9.7799   10.0885 H   0  0  0  0  0  0  0  0  0  0  0  0
    4.0956  -11.7571   10.3160 H   0  0  0  0  0  0  0  0  0  0  0  0
    3.4722  -11.0751   11.8311 H   0  0  0  0  0  0  0  0  0  0  0  0
    6.1858  -11.7321   11.2910 H   0  0  0  0  0  0  0  0  0  0  0  0
    4.6027   -6.2225    6.7440 H   0  0  0  0  0  0  0  0  0  0  0  0
    5.4144   -5.4159    8.0833 H   0  0  0  0  0  0  0  0  0  0  0  0
    4.0450   -4.3487    5.6812 H   0  0  0  0  0  0  0  0  0  0  0  0
    5.5699   -3.8155    6.4141 H   0  0  0  0  0  0  0  0  0  0  0  0
    5.3293    0.8281    6.1463 H   0  0  0  0  0  0  0  0  0  0  0  0
    5.6108    1.6498    3.8146 H   0  0  0  0  0  0  0  0  0  0  0  0
  1  2  1  0  0  0  0
  1 27  1  0  0  0  0
  1 28  1  0  0  0  0
  1 29  1  0  0  0  0
  2  3  1  0  0  0  0
  2 30  1  0  0  0  0
  2 31  1  0  0  0  0
  3  4  1  0  0  0  0
  3 32  1  0  0  0  0
  3 33  1  0  0  0  0
  4  5  1  0  0  0  0
  4 34  1  0  0  0  0
  4 35  1  0  0  0  0
  5  6  1  0  0  0  0
  5 26  1  0  0  0  0
  6  7  1  0  0  0  0
  6  9  1  0  0  0  0
  6 36  1  0  0  0  0
  7  8  1  0  0  0  0
  7 37  1  0  0  0  0
  7 38  1  0  0  0  0
  8 39  1  0  0  0  0
  8 40  1  0  0  0  0
  8 41  1  0  0  0  0
  9 10  2  0  0  0  0
  9 42  1  0  0  0  0
 10 11  1  0  0  0  0
 10 25  1  0  0  0  0
 11 12  2  0  0  0  0
 11 13  1  0  0  0  0
 13 14  2  0  0  0  0
 13 24  1  0  0  0  0
 14 15  1  0  0  0  0
 14 43  1  0  0  0  0
 15 16  2  0  0  0  0
 15 44  1  0  0  0  0
 16 17  1  0  0  0  0
 16 23  1  0  0  0  0
 17 18  1  0  0  0  0
 17 45  1  0  0  0  0
 17 46  1  0  0  0  0
 18 19  1  0  0  0  0
 18 47  1  0  0  0  0
 18 48  1  0  0  0  0
 19 20  1  0  0  0  0
 19 49  1  0  0  0  0
 19 50  1  0  0  0  0
 20 21  1  0  0  0  0
 20 51  1  0  0  0  0
 20 52  1  0  0  0  0
 21 22  1  0  0  0  0
 21 53  1  0  0  0  0
 21 54  1  0  0  0  0
 22 55  1  0  0  0  0
 23 24  1  0  0  0  0
 23 56  1  0  0  0  0
 23 57  1  0  0  0  0
 24 58  1  0  0  0  0
 24 59  1  0  0  0  0
 25 26  2  0  0  0  0
 25 60  1  0  0  0  0
 26 61  1  0  0  0  0
M  END
$$$$
