
 OpenBabel04232217023D

156155  0  0  0  0  0  0  0  0999 V2000
   46.7420   -1.7040  -35.8226 O   0  0  0  0  0  0  0  0  0  0  0  0
   46.7839   -0.3209  -36.2739 O   0  0  0  0  0  0  0  0  0  0  0  0
   45.4404    0.0327  -36.6092 C   0  0  0  0  0  0  0  0  0  0  0  0
   45.4529    1.3420  -37.4094 C   0  0  0  0  0  0  0  0  0  0  0  0
   46.3083    1.1367  -38.6574 C   0  0  0  0  0  0  0  0  0  0  0  0
   46.3426    2.2515  -39.6215 N   0  0  0  0  0  0  0  0  0  0  0  0
   47.2004    1.8902  -41.0127 S   0  0  0  0  0  0  0  0  0  0  0  0
   47.1371    3.6530  -42.0089 S   0  0  0  0  0  0  0  0  0  0  0  0
   48.3987    4.9003  -41.0304 S   0  0  0  0  0  0  0  0  0  0  0  0
   50.3254    4.2120  -40.9329 S   0  0  0  0  0  0  0  0  0  0  0  0
   50.7835    3.8774  -38.9359 S   0  0  0  0  0  0  0  0  0  0  0  0
   52.8220    4.2869  -38.6860 S   0  0  0  0  0  0  0  0  0  0  0  0
   53.0231    6.2817  -38.2738 S   0  0  0  0  0  0  0  0  0  0  0  0
   54.9692    6.8345  -37.9100 S   0  0  0  0  0  0  0  0  0  0  0  0
   56.0753    7.4076  -39.5593 S   0  0  0  0  0  0  0  0  0  0  0  0
   56.0536    9.2603  -39.9866 C   0  0  0  0  0  0  0  0  0  0  0  0
   57.3538   10.3468  -39.3059 S   0  0  0  0  0  0  0  0  0  0  0  0
   56.8074   12.1724  -39.4108 C   0  0  0  0  0  0  0  0  0  0  0  0
   55.0236   12.7085  -39.6067 S   0  0  0  0  0  0  0  0  0  0  0  0
   55.0109   14.5636  -39.0888 C   0  0  0  0  0  0  0  0  0  0  0  0
   53.4411   15.6119  -39.1721 S   0  0  0  0  0  0  0  0  0  0  0  0
   52.4667   15.8394  -37.5342 C   0  0  0  0  0  0  0  0  0  0  0  0
   53.1556   16.9026  -36.1031 S   0  0  0  0  0  0  0  0  0  0  0  0
   52.1443   16.3243  -34.6065 C   0  0  0  0  0  0  0  0  0  0  0  0
   52.9193   15.4891  -33.0334 S   0  0  0  0  0  0  0  0  0  0  0  0
   54.4400   14.4676  -33.4027 C   0  0  0  0  0  0  0  0  0  0  0  0
   54.7074   12.3598  -33.5144 S   0  0  0  0  0  0  0  0  0  0  0  0
   53.7911   11.1424  -34.8693 C   0  0  0  0  0  0  0  0  0  0  0  0
   53.7592   11.2749  -36.9097 S   0  0  0  0  0  0  0  0  0  0  0  0
   53.3848    9.7313  -37.7241 C   0  0  0  0  0  0  0  0  0  0  0  0
   52.4440    9.5888  -39.2666 S   0  0  0  0  0  0  0  0  0  0  0  0
   51.4439   11.0515  -39.3495 C   0  0  0  0  0  0  0  0  0  0  0  0
   49.4074   10.9528  -39.2601 S   0  0  0  0  0  0  0  0  0  0  0  0
   48.4090   11.2587  -37.7668 C   0  0  0  0  0  0  0  0  0  0  0  0
   46.7204   11.7817  -37.5120 S   0  0  0  0  0  0  0  0  0  0  0  0
   45.7029   10.3198  -37.7386 C   0  0  0  0  0  0  0  0  0  0  0  0
   45.8143    8.6377  -37.0313 S   0  0  0  0  0  0  0  0  0  0  0  0
   45.9831    8.6385  -35.2014 C   0  0  0  0  0  0  0  0  0  0  0  0
   46.4005    6.9042  -34.4696 S   0  0  0  0  0  0  0  0  0  0  0  0
   48.2700    6.4672  -34.5147 C   0  0  0  0  0  0  0  0  0  0  0  0
   49.2593    7.3229  -33.1614 S   0  0  0  0  0  0  0  0  0  0  0  0
   50.9276    8.0751  -33.6899 C   0  0  0  0  0  0  0  0  0  0  0  0
   51.7767    9.0815  -35.1314 S   0  0  0  0  0  0  0  0  0  0  0  0
   50.9590   10.9357  -35.7156 C   0  0  0  0  0  0  0  0  0  0  0  0
   51.2158   12.4757  -37.1078 S   0  0  0  0  0  0  0  0  0  0  0  0
   49.9131   13.5909  -38.2660 C   0  0  0  0  0  0  0  0  0  0  0  0
   50.4325   13.9625  -40.1599 S   0  0  0  0  0  0  0  0  0  0  0  0
   49.9087   12.6033  -41.5188 C   0  0  0  0  0  0  0  0  0  0  0  0
   48.1251   12.2556  -41.7459 S   0  0  0  0  0  0  0  0  0  0  0  0
   47.9355   10.4069  -42.1168 C   0  0  0  0  0  0  0  0  0  0  0  0
   48.8465    8.9384  -41.4416 S   0  0  0  0  0  0  0  0  0  0  0  0
   47.7665    8.4834  -40.0310 C   0  0  0  0  0  0  0  0  0  0  0  0
   48.1224    7.1128  -38.9045 S   0  0  0  0  0  0  0  0  0  0  0  0
   49.7964    7.3910  -38.3988 C   0  0  0  0  0  0  0  0  0  0  0  0
   50.0184    8.7859  -37.3455 S   0  0  0  0  0  0  0  0  0  0  0  0
   48.9597    8.8528  -35.8615 C   0  0  0  0  0  0  0  0  0  0  0  0
   48.8199   10.2631  -34.1550 S   0  0  0  0  0  0  0  0  0  0  0  0
   48.9315   12.1535  -34.4849 C   0  0  0  0  0  0  0  0  0  0  0  0
   50.3237   13.3634  -33.7979 S   0  0  0  0  0  0  0  0  0  0  0  0
   52.1573   13.0562  -34.6765 C   0  0  0  0  0  0  0  0  0  0  0  0
   53.7543   13.9201  -35.8691 S   0  0  0  0  0  0  0  0  0  0  0  0
   55.6829   13.1567  -36.0554 C   0  0  0  0  0  0  0  0  0  0  0  0
   56.7499   11.6128  -35.5656 S   0  0  0  0  0  0  0  0  0  0  0  0
   56.1873    9.9974  -36.1043 C   0  0  0  0  0  0  0  0  0  0  0  0
   56.1909    8.4671  -35.1898 S   0  0  0  0  0  0  0  0  0  0  0  0
   55.5259    8.6937  -33.4849 C   0  0  0  0  0  0  0  0  0  0  0  0
   54.1440    7.6178  -33.1397 S   0  0  0  0  0  0  0  0  0  0  0  0
   53.5647    8.1857  -31.5064 C   0  0  0  0  0  0  0  0  0  0  0  0
   54.3610    9.5817  -30.6913 S   0  0  0  0  0  0  0  0  0  0  0  0
   53.3343   11.0435  -31.0637 C   0  0  0  0  0  0  0  0  0  0  0  0
   54.2294   12.6268  -30.4417 S   0  0  0  0  0  0  0  0  0  0  0  0
   56.1027   12.3568  -30.7019 C   0  0  0  0  0  0  0  0  0  0  0  0
   57.1591   13.4863  -31.7269 S   0  0  0  0  0  0  0  0  0  0  0  0
   58.3400   12.4641  -32.7551 C   0  0  0  0  0  0  0  0  0  0  0  0
   58.9525   10.8220  -32.1707 S   0  0  0  0  0  0  0  0  0  0  0  0
   58.5085    9.6046  -33.5474 C   0  0  0  0  0  0  0  0  0  0  0  0
   58.9987    7.7706  -33.1274 S   0  0  0  0  0  0  0  0  0  0  0  0
   57.9202    6.3815  -34.0847 C   0  0  0  0  0  0  0  0  0  0  0  0
   58.5130    6.0031  -35.7966 S   0  0  0  0  0  0  0  0  0  0  0  0
   57.2130    4.8669  -36.4663 C   0  0  0  0  0  0  0  0  0  0  0  0
   57.3850    3.1601  -35.9192 S   0  0  0  0  0  0  0  0  0  0  0  0
   47.4705   -1.6385  -35.1886 H   0  0  0  0  0  0  0  0  0  0  0  0
   44.8684    0.1502  -35.6846 H   0  0  0  0  0  0  0  0  0  0  0  0
   44.9937   -0.7715  -37.2097 H   0  0  0  0  0  0  0  0  0  0  0  0
   45.8701    2.1438  -36.7915 H   0  0  0  0  0  0  0  0  0  0  0  0
   44.4262    1.6199  -37.6775 H   0  0  0  0  0  0  0  0  0  0  0  0
   45.9170    0.2582  -39.1831 H   0  0  0  0  0  0  0  0  0  0  0  0
   47.3401    0.9121  -38.3565 H   0  0  0  0  0  0  0  0  0  0  0  0
   46.7407    3.0855  -39.1576 H   0  0  0  0  0  0  0  0  0  0  0  0
   55.0787    9.7013  -39.9064 H   0  0  0  0  0  0  0  0  0  0  0  0
   56.3087    9.1991  -41.0416 H   0  0  0  0  0  0  0  0  0  0  0  0
   57.4110   12.6186  -40.2020 H   0  0  0  0  0  0  0  0  0  0  0  0
   57.2058   12.5864  -38.4750 H   0  0  0  0  0  0  0  0  0  0  0  0
   55.5560   14.9750  -39.9424 H   0  0  0  0  0  0  0  0  0  0  0  0
   55.6065   14.8253  -38.2190 H   0  0  0  0  0  0  0  0  0  0  0  0
   52.0739   14.8811  -37.2217 H   0  0  0  0  0  0  0  0  0  0  0  0
   51.5560   16.3827  -37.8514 H   0  0  0  0  0  0  0  0  0  0  0  0
   51.1998   15.8396  -34.8968 H   0  0  0  0  0  0  0  0  0  0  0  0
   51.7665   17.2483  -34.1495 H   0  0  0  0  0  0  0  0  0  0  0  0
   54.8560   14.5632  -32.4064 H   0  0  0  0  0  0  0  0  0  0  0  0
   55.1710   14.9976  -34.0132 H   0  0  0  0  0  0  0  0  0  0  0  0
   52.8374   11.0578  -34.4004 H   0  0  0  0  0  0  0  0  0  0  0  0
   54.2003   10.1772  -34.6810 H   0  0  0  0  0  0  0  0  0  0  0  0
   53.1317    8.9144  -37.0785 H   0  0  0  0  0  0  0  0  0  0  0  0
   54.3709    9.4690  -38.0752 H   0  0  0  0  0  0  0  0  0  0  0  0
   51.6140   11.1588  -40.4132 H   0  0  0  0  0  0  0  0  0  0  0  0
   51.9907   11.9801  -39.1379 H   0  0  0  0  0  0  0  0  0  0  0  0
   48.9239   12.0562  -37.1784 H   0  0  0  0  0  0  0  0  0  0  0  0
   48.3432   10.4583  -37.1756 H   0  0  0  0  0  0  0  0  0  0  0  0
   45.8251   10.1690  -38.8100 H   0  0  0  0  0  0  0  0  0  0  0  0
   44.6754   10.6455  -37.6115 H   0  0  0  0  0  0  0  0  0  0  0  0
   44.9930    8.8507  -34.7992 H   0  0  0  0  0  0  0  0  0  0  0  0
   46.6142    9.4150  -34.8037 H   0  0  0  0  0  0  0  0  0  0  0  0
   48.6735    6.3970  -35.5303 H   0  0  0  0  0  0  0  0  0  0  0  0
   48.2761    5.4141  -34.2042 H   0  0  0  0  0  0  0  0  0  0  0  0
   51.5627    7.1858  -33.5988 H   0  0  0  0  0  0  0  0  0  0  0  0
   51.1323    8.7361  -32.8524 H   0  0  0  0  0  0  0  0  0  0  0  0
   50.9978   11.3237  -34.7681 H   0  0  0  0  0  0  0  0  0  0  0  0
   49.9490   10.7225  -36.0522 H   0  0  0  0  0  0  0  0  0  0  0  0
   50.0666   14.5637  -37.7891 H   0  0  0  0  0  0  0  0  0  0  0  0
   48.8329   13.5081  -38.2105 H   0  0  0  0  0  0  0  0  0  0  0  0
   50.4236   11.6513  -41.5056 H   0  0  0  0  0  0  0  0  0  0  0  0
   50.3259   13.0267  -42.4373 H   0  0  0  0  0  0  0  0  0  0  0  0
   48.0132   10.3037  -43.1987 H   0  0  0  0  0  0  0  0  0  0  0  0
   46.8934   10.2223  -41.8456 H   0  0  0  0  0  0  0  0  0  0  0  0
   46.7745    8.2614  -40.4259 H   0  0  0  0  0  0  0  0  0  0  0  0
   47.6325    9.3189  -39.3706 H   0  0  0  0  0  0  0  0  0  0  0  0
   50.4132    7.5164  -39.2904 H   0  0  0  0  0  0  0  0  0  0  0  0
   50.2140    6.5336  -37.8752 H   0  0  0  0  0  0  0  0  0  0  0  0
   49.4706    8.0438  -35.4138 H   0  0  0  0  0  0  0  0  0  0  0  0
   47.9961    8.5352  -36.1316 H   0  0  0  0  0  0  0  0  0  0  0  0
   48.0179   12.5245  -34.0153 H   0  0  0  0  0  0  0  0  0  0  0  0
   48.8468   12.4271  -35.4990 H   0  0  0  0  0  0  0  0  0  0  0  0
   52.5565   13.0781  -33.6905 H   0  0  0  0  0  0  0  0  0  0  0  0
   51.7757   13.9812  -35.0834 H   0  0  0  0  0  0  0  0  0  0  0  0
   56.2331   13.9538  -35.5395 H   0  0  0  0  0  0  0  0  0  0  0  0
   55.9374   13.3414  -37.0808 H   0  0  0  0  0  0  0  0  0  0  0  0
   56.6481    9.7683  -37.0564 H   0  0  0  0  0  0  0  0  0  0  0  0
   55.1801    9.8609  -36.2683 H   0  0  0  0  0  0  0  0  0  0  0  0
   55.3531    9.7248  -33.2163 H   0  0  0  0  0  0  0  0  0  0  0  0
   56.2739    8.3150  -32.7960 H   0  0  0  0  0  0  0  0  0  0  0  0
   53.7931    7.3368  -30.8608 H   0  0  0  0  0  0  0  0  0  0  0  0
   52.4783    8.2554  -31.4806 H   0  0  0  0  0  0  0  0  0  0  0  0
   52.3695   10.9930  -30.5371 H   0  0  0  0  0  0  0  0  0  0  0  0
   53.0247   11.1046  -32.1105 H   0  0  0  0  0  0  0  0  0  0  0  0
   56.3978   11.3236  -30.7812 H   0  0  0  0  0  0  0  0  0  0  0  0
   56.4172   12.7382  -29.7331 H   0  0  0  0  0  0  0  0  0  0  0  0
   59.2291   13.1091  -32.7772 H   0  0  0  0  0  0  0  0  0  0  0  0
   58.0763   12.5184  -33.8089 H   0  0  0  0  0  0  0  0  0  0  0  0
   58.9236    9.8931  -34.5189 H   0  0  0  0  0  0  0  0  0  0  0  0
   57.4671    9.7685  -33.5106 H   0  0  0  0  0  0  0  0  0  0  0  0
   56.8409    6.4664  -33.9851 H   0  0  0  0  0  0  0  0  0  0  0  0
   58.1055    5.4649  -33.5173 H   0  0  0  0  0  0  0  0  0  0  0  0
   57.2973    4.8559  -37.5646 H   0  0  0  0  0  0  0  0  0  0  0  0
   56.1985    5.1776  -36.2164 H   0  0  0  0  0  0  0  0  0  0  0  0
   58.7045    3.1000  -36.1171 H   0  0  0  0  0  0  0  0  0  0  0  0
  1  2  1  0  0  0  0
  1 82  1  0  0  0  0
  2  3  1  0  0  0  0
  3  4  1  0  0  0  0
  3 83  1  0  0  0  0
  3 84  1  0  0  0  0
  4  5  1  0  0  0  0
  4 85  1  0  0  0  0
  4 86  1  0  0  0  0
  5  6  1  0  0  0  0
  5 87  1  0  0  0  0
  5 88  1  0  0  0  0
  6  7  1  0  0  0  0
  6 89  1  0  0  0  0
  7  8  1  0  0  0  0
  8  9  1  0  0  0  0
  9 10  1  0  0  0  0
 10 11  1  0  0  0  0
 11 12  1  0  0  0  0
 12 13  1  0  0  0  0
 13 14  1  0  0  0  0
 14 15  1  0  0  0  0
 15 16  1  0  0  0  0
 16 17  1  0  0  0  0
 16 90  1  0  0  0  0
 16 91  1  0  0  0  0
 17 18  1  0  0  0  0
 18 19  1  0  0  0  0
 18 92  1  0  0  0  0
 18 93  1  0  0  0  0
 19 20  1  0  0  0  0
 20 21  1  0  0  0  0
 20 94  1  0  0  0  0
 20 95  1  0  0  0  0
 21 22  1  0  0  0  0
 22 23  1  0  0  0  0
 22 96  1  0  0  0  0
 22 97  1  0  0  0  0
 23 24  1  0  0  0  0
 24 25  1  0  0  0  0
 24 98  1  0  0  0  0
 24 99  1  0  0  0  0
 25 26  1  0  0  0  0
 26 27  1  0  0  0  0
 26100  1  0  0  0  0
 26101  1  0  0  0  0
 27 28  1  0  0  0  0
 28 29  1  0  0  0  0
 28102  1  0  0  0  0
 28103  1  0  0  0  0
 29 30  1  0  0  0  0
 30 31  1  0  0  0  0
 30104  1  0  0  0  0
 30105  1  0  0  0  0
 31 32  1  0  0  0  0
 32 33  1  0  0  0  0
 32106  1  0  0  0  0
 32107  1  0  0  0  0
 33 34  1  0  0  0  0
 34 35  1  0  0  0  0
 34108  1  0  0  0  0
 34109  1  0  0  0  0
 35 36  1  0  0  0  0
 36 37  1  0  0  0  0
 36110  1  0  0  0  0
 36111  1  0  0  0  0
 37 38  1  0  0  0  0
 38 39  1  0  0  0  0
 38112  1  0  0  0  0
 38113  1  0  0  0  0
 39 40  1  0  0  0  0
 40 41  1  0  0  0  0
 40114  1  0  0  0  0
 40115  1  0  0  0  0
 41 42  1  0  0  0  0
 42 43  1  0  0  0  0
 42116  1  0  0  0  0
 42117  1  0  0  0  0
 43 44  1  0  0  0  0
 44 45  1  0  0  0  0
 44118  1  0  0  0  0
 44119  1  0  0  0  0
 45 46  1  0  0  0  0
 46 47  1  0  0  0  0
 46120  1  0  0  0  0
 46121  1  0  0  0  0
 47 48  1  0  0  0  0
 48 49  1  0  0  0  0
 48122  1  0  0  0  0
 48123  1  0  0  0  0
 49 50  1  0  0  0  0
 50 51  1  0  0  0  0
 50124  1  0  0  0  0
 50125  1  0  0  0  0
 51 52  1  0  0  0  0
 52 53  1  0  0  0  0
 52126  1  0  0  0  0
 52127  1  0  0  0  0
 53 54  1  0  0  0  0
 54 55  1  0  0  0  0
 54128  1  0  0  0  0
 54129  1  0  0  0  0
 55 56  1  0  0  0  0
 56 57  1  0  0  0  0
 56130  1  0  0  0  0
 56131  1  0  0  0  0
 57 58  1  0  0  0  0
 58 59  1  0  0  0  0
 58132  1  0  0  0  0
 58133  1  0  0  0  0
 59 60  1  0  0  0  0
 60 61  1  0  0  0  0
 60134  1  0  0  0  0
 60135  1  0  0  0  0
 61 62  1  0  0  0  0
 62 63  1  0  0  0  0
 62136  1  0  0  0  0
 62137  1  0  0  0  0
 63 64  1  0  0  0  0
 64 65  1  0  0  0  0
 64138  1  0  0  0  0
 64139  1  0  0  0  0
 65 66  1  0  0  0  0
 66 67  1  0  0  0  0
 66140  1  0  0  0  0
 66141  1  0  0  0  0
 67 68  1  0  0  0  0
 68 69  1  0  0  0  0
 68142  1  0  0  0  0
 68143  1  0  0  0  0
 69 70  1  0  0  0  0
 70 71  1  0  0  0  0
 70144  1  0  0  0  0
 70145  1  0  0  0  0
 71 72  1  0  0  0  0
 72 73  1  0  0  0  0
 72146  1  0  0  0  0
 72147  1  0  0  0  0
 73 74  1  0  0  0  0
 74 75  1  0  0  0  0
 74148  1  0  0  0  0
 74149  1  0  0  0  0
 75 76  1  0  0  0  0
 76 77  1  0  0  0  0
 76150  1  0  0  0  0
 76151  1  0  0  0  0
 77 78  1  0  0  0  0
 78 79  1  0  0  0  0
 78152  1  0  0  0  0
 78153  1  0  0  0  0
 79 80  1  0  0  0  0
 80 81  1  0  0  0  0
 80154  1  0  0  0  0
 80155  1  0  0  0  0
 81156  1  0  0  0  0
M  END
$$$$
