
 OpenBabel04232216423D

 19 19  0  0  0  0  0  0  0  0999 V2000
   -0.1134   -1.1424   -0.0529 C   0  0  0  0  0  0  0  0  0  0  0  0
   -1.4249   -0.7313   -0.0553 C   0  0  0  0  0  0  0  0  0  0  0  0
   -1.4156    0.6803   -0.0267 C   0  0  0  0  0  0  0  0  0  0  0  0
   -0.0966    1.1052    0.0077 C   0  0  0  0  0  0  0  0  0  0  0  0
    0.4163    2.5076    0.0934 C   0  0  0  0  0  0  0  0  0  0  0  0
    0.5814    3.1458   -1.2767 C   0  0  0  0  0  0  0  0  0  0  0  0
    0.6891   -0.0260   -0.0332 N   0  0  0  0  0  0  0  0  0  0  0  0
    2.1332   -0.1094   -0.0491 C   0  0  0  0  0  0  0  0  0  0  0  0
    0.3142   -2.1366   -0.0647 H   0  0  0  0  0  0  0  0  0  0  0  0
   -2.2925   -1.3778   -0.0694 H   0  0  0  0  0  0  0  0  0  0  0  0
   -2.2828    1.3291   -0.0142 H   0  0  0  0  0  0  0  0  0  0  0  0
    1.3616    2.5514    0.6426 H   0  0  0  0  0  0  0  0  0  0  0  0
   -0.2953    3.1064    0.6757 H   0  0  0  0  0  0  0  0  0  0  0  0
    1.3261    2.6145   -1.8781 H   0  0  0  0  0  0  0  0  0  0  0  0
    0.9093    4.1853   -1.1702 H   0  0  0  0  0  0  0  0  0  0  0  0
   -0.3629    3.1470   -1.8323 H   0  0  0  0  0  0  0  0  0  0  0  0
    2.5820    0.8829    0.0110 H   0  0  0  0  0  0  0  0  0  0  0  0
    2.4356   -0.5907   -0.9827 H   0  0  0  0  0  0  0  0  0  0  0  0
    2.4505   -0.7095    0.8072 H   0  0  0  0  0  0  0  0  0  0  0  0
  1  2  2  0  0  0  0
  1  7  1  0  0  0  0
  1  9  1  0  0  0  0
  2  3  1  0  0  0  0
  2 10  1  0  0  0  0
  3  4  2  0  0  0  0
  3 11  1  0  0  0  0
  4  5  1  0  0  0  0
  4  7  1  0  0  0  0
  5  6  1  0  0  0  0
  5 12  1  0  0  0  0
  5 13  1  0  0  0  0
  6 14  1  0  0  0  0
  6 15  1  0  0  0  0
  6 16  1  0  0  0  0
  7  8  1  0  0  0  0
  8 17  1  0  0  0  0
  8 18  1  0  0  0  0
  8 19  1  0  0  0  0
M  END
$$$$
