
 OpenBabel04232216563D

130130  0  0  0  0  0  0  0  0999 V2000
    6.8039   -0.0349    1.0797 C   0  0  0  0  0  0  0  0  0  0  0  0
    7.2508    0.4451    2.3764 N   0  0  0  0  0  0  0  0  0  0  0  0
    6.9979   -0.1659    3.5261 C   0  0  0  0  0  0  0  0  0  0  0  0
    6.2992    0.9491    3.3059 C   0  0  0  0  0  0  0  0  0  0  0  0
    5.8868    2.0840    2.7104 O   0  0  0  0  0  0  0  0  0  0  0  0
    4.7042    2.4572    3.3938 O   0  0  0  0  0  0  0  0  0  0  0  0
    3.7988    3.1107    2.4704 O   0  0  0  0  0  0  0  0  0  0  0  0
    3.0712    4.1746    3.1194 O   0  0  0  0  0  0  0  0  0  0  0  0
    3.9267    5.3043    3.4062 O   0  0  0  0  0  0  0  0  0  0  0  0
    3.3762    6.0128    4.5317 O   0  0  0  0  0  0  0  0  0  0  0  0
    4.3572    6.8538    5.1528 O   0  0  0  0  0  0  0  0  0  0  0  0
    3.7274    8.0892    5.5226 O   0  0  0  0  0  0  0  0  0  0  0  0
    4.6502    8.9228    6.2238 O   0  0  0  0  0  0  0  0  0  0  0  0
    3.9356    9.7179    7.1717 O   0  0  0  0  0  0  0  0  0  0  0  0
    4.8425   10.6088    7.8135 O   0  0  0  0  0  0  0  0  0  0  0  0
    4.1327   11.7627    8.2478 O   0  0  0  0  0  0  0  0  0  0  0  0
    5.0501   12.6681    8.8435 O   0  0  0  0  0  0  0  0  0  0  0  0
    4.3489   13.4862    9.7656 O   0  0  0  0  0  0  0  0  0  0  0  0
    5.2797   14.3221   10.4285 O   0  0  0  0  0  0  0  0  0  0  0  0
    4.5808   15.4227   10.9777 O   0  0  0  0  0  0  0  0  0  0  0  0
    5.5217   16.2935   11.5809 O   0  0  0  0  0  0  0  0  0  0  0  0
    4.7148   17.1906   12.2872 C   0  0  0  0  0  0  0  0  0  0  0  0
    5.6932   18.0976   12.9483 C   0  0  0  0  0  0  0  0  0  0  0  0
    4.9232   19.1325   13.6982 C   0  0  0  0  0  0  0  0  0  0  0  0
    5.9205   20.0348   14.3501 C   0  0  0  0  0  0  0  0  0  0  0  0
    5.1467   21.0799   15.0850 C   0  0  0  0  0  0  0  0  0  0  0  0
    6.1397   21.9888   15.7325 C   0  0  0  0  0  0  0  0  0  0  0  0
    5.3592   23.0246   16.4735 C   0  0  0  0  0  0  0  0  0  0  0  0
    6.3534   23.9267   17.1262 C   0  0  0  0  0  0  0  0  0  0  0  0
    5.5700   24.9583   17.8673 C   0  0  0  0  0  0  0  0  0  0  0  0
    6.5667   25.8533   18.5139 C   0  0  0  0  0  0  0  0  0  0  0  0
    5.8005   26.8808   19.2563 C   0  0  0  0  0  0  0  0  0  0  0  0
    6.8090   27.6444   19.8358 O   0  0  0  0  0  0  0  0  0  0  0  0
    6.0803   28.6920   20.4244 O   0  0  0  0  0  0  0  0  0  0  0  0
    6.9953   29.5586   21.0331 O   0  0  0  0  0  0  0  0  0  0  0  0
    6.2795   30.3532   21.9388 O   0  0  0  0  0  0  0  0  0  0  0  0
    7.1834   31.2536   22.5147 O   0  0  0  0  0  0  0  0  0  0  0  0
    6.4423   32.3176   23.0459 O   0  0  0  0  0  0  0  0  0  0  0  0
    7.3538   33.2393   23.5769 O   0  0  0  0  0  0  0  0  0  0  0  0
    6.6329   34.1517   24.3602 O   0  0  0  0  0  0  0  0  0  0  0  0
    7.5581   34.8426   25.1572 O   0  0  0  0  0  0  0  0  0  0  0  0
    6.8646   35.8330   25.8701 O   0  0  0  0  0  0  0  0  0  0  0  0
    7.7703   36.8790   26.1232 O   0  0  0  0  0  0  0  0  0  0  0  0
    7.0958   37.8823   26.8380 O   0  0  0  0  0  0  0  0  0  0  0  0
    8.0031   38.4220   27.7711 O   0  0  0  0  0  0  0  0  0  0  0  0
    7.3296   39.4049   28.5138 O   0  0  0  0  0  0  0  0  0  0  0  0
    8.2220   40.4714   28.7359 O   0  0  0  0  0  0  0  0  0  0  0  0
    7.5285   41.4531   29.4609 O   0  0  0  0  0  0  0  0  0  0  0  0
    8.4576   42.1631   30.2469 O   0  0  0  0  0  0  0  0  0  0  0  0
    7.6442   43.1031   30.8779 C   0  0  0  0  0  0  0  0  0  0  0  0
    8.6253   44.0115   31.5177 C   0  0  0  0  0  0  0  0  0  0  0  0
    7.8469   45.0473   32.2527 C   0  0  0  0  0  0  0  0  0  0  0  0
    8.8490   45.9482   32.8953 C   0  0  0  0  0  0  0  0  0  0  0  0
    8.0790   46.9885   33.6416 C   0  0  0  0  0  0  0  0  0  0  0  0
    9.0772   47.8931   34.2897 C   0  0  0  0  0  0  0  0  0  0  0  0
    8.3064   48.9355   35.0351 C   0  0  0  0  0  0  0  0  0  0  0  0
    9.3048   49.8401   35.6827 C   0  0  0  0  0  0  0  0  0  0  0  0
    8.5401   50.8819   36.4294 C   0  0  0  0  0  0  0  0  0  0  0  0
    9.5413   51.7832   37.0729 C   0  0  0  0  0  0  0  0  0  0  0  0
    8.7606   52.8172   37.8160 C   0  0  0  0  0  0  0  0  0  0  0  0
    9.7426   53.7270   38.4720 C   0  0  0  0  0  0  0  0  0  0  0  0
    8.9345   54.6382   39.1588 O   0  0  0  0  0  0  0  0  0  0  0  0
    9.8836   55.5300   39.7104 O   0  0  0  0  0  0  0  0  0  0  0  0
    9.2029   56.5943   40.3442 O   0  0  0  0  0  0  0  0  0  0  0  0
   10.1362   57.2588   41.1767 O   0  0  0  0  0  0  0  0  0  0  0  0
    9.4632   58.2183   41.9705 O   0  0  0  0  0  0  0  0  0  0  0  0
   10.3391   59.3228   42.1679 O   0  0  0  0  0  0  0  0  0  0  0  0
    9.6495   60.3316   42.8863 O   0  0  0  0  0  0  0  0  0  0  0  0
   10.5037   60.8821   43.8892 O   0  0  0  0  0  0  0  0  0  0  0  0
    9.7921   61.9396   44.5218 O   0  0  0  0  0  0  0  0  0  0  0  0
   10.6586   63.0266   44.8513 O   0  0  0  0  0  0  0  0  0  0  0  0
    9.9956   63.7998   45.8591 O   0  0  0  0  0  0  0  0  0  0  0  0
   10.9204   64.6218   46.5733 O   0  0  0  0  0  0  0  0  0  0  0  0
   10.3001   65.8944   46.8379 O   0  0  0  0  0  0  0  0  0  0  0  0
   11.2328   66.7632   47.4973 O   0  0  0  0  0  0  0  0  0  0  0  0
   10.6888   67.2482   48.7434 O   0  0  0  0  0  0  0  0  0  0  0  0
   11.4654   68.3857   49.1868 O   0  0  0  0  0  0  0  0  0  0  0  0
   10.6102   69.4451   49.6736 O   0  0  0  0  0  0  0  0  0  0  0  0
    9.9198   70.0993   48.5816 O   0  0  0  0  0  0  0  0  0  0  0  0
    7.3871   -0.9108    0.7780 H   0  0  0  0  0  0  0  0  0  0  0  0
    6.9605    0.7504    0.3298 H   0  0  0  0  0  0  0  0  0  0  0  0
    5.7413   -0.3073    1.0608 H   0  0  0  0  0  0  0  0  0  0  0  0
    7.7508   -0.9458    3.4307 H   0  0  0  0  0  0  0  0  0  0  0  0
    4.0962   16.6622   13.0232 H   0  0  0  0  0  0  0  0  0  0  0  0
    4.0641   17.7352   11.5922 H   0  0  0  0  0  0  0  0  0  0  0  0
    6.3505   18.5555   12.1977 H   0  0  0  0  0  0  0  0  0  0  0  0
    6.3482   17.5249   13.6185 H   0  0  0  0  0  0  0  0  0  0  0  0
    4.2736   18.6650   14.4493 H   0  0  0  0  0  0  0  0  0  0  0  0
    4.2753   19.6986   13.0156 H   0  0  0  0  0  0  0  0  0  0  0  0
    6.5679   20.5015   13.5911 H   0  0  0  0  0  0  0  0  0  0  0  0
    6.5734   19.4843   15.0385 H   0  0  0  0  0  0  0  0  0  0  0  0
    4.5037   20.6197   15.8470 H   0  0  0  0  0  0  0  0  0  0  0  0
    4.4989   21.6374   14.3973 H   0  0  0  0  0  0  0  0  0  0  0  0
    6.7881   22.4542   14.9794 H   0  0  0  0  0  0  0  0  0  0  0  0
    6.7819   21.4254   16.4199 H   0  0  0  0  0  0  0  0  0  0  0  0
    4.7092   22.5593   17.2259 H   0  0  0  0  0  0  0  0  0  0  0  0
    4.7153   23.5911   15.7882 H   0  0  0  0  0  0  0  0  0  0  0  0
    7.0025   24.3984   16.3776 H   0  0  0  0  0  0  0  0  0  0  0  0
    6.9997   23.3655   17.8132 H   0  0  0  0  0  0  0  0  0  0  0  0
    4.9227   24.4934   18.6218 H   0  0  0  0  0  0  0  0  0  0  0  0
    4.9255   25.5269   17.1850 H   0  0  0  0  0  0  0  0  0  0  0  0
    7.2246   26.3314   17.7754 H   0  0  0  0  0  0  0  0  0  0  0  0
    7.2256   25.3038   19.1992 H   0  0  0  0  0  0  0  0  0  0  0  0
    5.1657   26.4459   20.0372 H   0  0  0  0  0  0  0  0  0  0  0  0
    5.1839   27.4936   18.5856 H   0  0  0  0  0  0  0  0  0  0  0  0
    6.9993   42.6012   31.6077 H   0  0  0  0  0  0  0  0  0  0  0  0
    7.0194   43.6363   30.1482 H   0  0  0  0  0  0  0  0  0  0  0  0
    9.2786   44.4596   30.7568 H   0  0  0  0  0  0  0  0  0  0  0  0
    9.2829   43.4439   32.1891 H   0  0  0  0  0  0  0  0  0  0  0  0
    7.1993   44.5792   33.0051 H   0  0  0  0  0  0  0  0  0  0  0  0
    7.2005   45.6059   31.5638 H   0  0  0  0  0  0  0  0  0  0  0  0
    9.4944   46.4101   32.1371 H   0  0  0  0  0  0  0  0  0  0  0  0
    9.4975   45.3807   33.5755 H   0  0  0  0  0  0  0  0  0  0  0  0
    7.4325   46.5212   34.3957 H   0  0  0  0  0  0  0  0  0  0  0  0
    7.4317   47.5519   32.9575 H   0  0  0  0  0  0  0  0  0  0  0  0
    9.7249   48.3577   33.5347 H   0  0  0  0  0  0  0  0  0  0  0  0
    9.7242   47.3282   34.9731 H   0  0  0  0  0  0  0  0  0  0  0  0
    7.6594   48.4712   35.7904 H   0  0  0  0  0  0  0  0  0  0  0  0
    7.6594   49.5009   34.3522 H   0  0  0  0  0  0  0  0  0  0  0  0
    9.9529   50.3056   34.9266 H   0  0  0  0  0  0  0  0  0  0  0  0
    9.9548   49.2755   36.3650 H   0  0  0  0  0  0  0  0  0  0  0  0
    7.8923   50.4180   37.1876 H   0  0  0  0  0  0  0  0  0  0  0  0
    7.8897   51.4489   35.7480 H   0  0  0  0  0  0  0  0  0  0  0  0
   10.1863   52.2508   36.3185 H   0  0  0  0  0  0  0  0  0  0  0  0
   10.1895   51.2213   37.7574 H   0  0  0  0  0  0  0  0  0  0  0  0
    8.1033   52.3625   38.5690 H   0  0  0  0  0  0  0  0  0  0  0  0
    8.1061   53.3863   37.1438 H   0  0  0  0  0  0  0  0  0  0  0  0
   10.3688   54.2389   37.7321 H   0  0  0  0  0  0  0  0  0  0  0  0
   10.3855   53.1871   39.1760 H   0  0  0  0  0  0  0  0  0  0  0  0
    9.2119   70.4718   49.1341 H   0  0  0  0  0  0  0  0  0  0  0  0
  1  2  1  0  0  0  0
  1 80  1  0  0  0  0
  1 81  1  0  0  0  0
  1 82  1  0  0  0  0
  2  3  1  0  0  0  0
  2  4  1  0  0  0  0
  3  4  2  0  0  0  0
  3 83  1  0  0  0  0
  4  5  1  0  0  0  0
  5  6  1  0  0  0  0
  6  7  1  0  0  0  0
  7  8  1  0  0  0  0
  8  9  1  0  0  0  0
  9 10  1  0  0  0  0
 10 11  1  0  0  0  0
 11 12  1  0  0  0  0
 12 13  1  0  0  0  0
 13 14  1  0  0  0  0
 14 15  1  0  0  0  0
 15 16  1  0  0  0  0
 16 17  1  0  0  0  0
 17 18  1  0  0  0  0
 18 19  1  0  0  0  0
 19 20  1  0  0  0  0
 20 21  1  0  0  0  0
 21 22  1  0  0  0  0
 22 23  1  0  0  0  0
 22 84  1  0  0  0  0
 22 85  1  0  0  0  0
 23 24  1  0  0  0  0
 23 86  1  0  0  0  0
 23 87  1  0  0  0  0
 24 25  1  0  0  0  0
 24 88  1  0  0  0  0
 24 89  1  0  0  0  0
 25 26  1  0  0  0  0
 25 90  1  0  0  0  0
 25 91  1  0  0  0  0
 26 27  1  0  0  0  0
 26 92  1  0  0  0  0
 26 93  1  0  0  0  0
 27 28  1  0  0  0  0
 27 94  1  0  0  0  0
 27 95  1  0  0  0  0
 28 29  1  0  0  0  0
 28 96  1  0  0  0  0
 28 97  1  0  0  0  0
 29 30  1  0  0  0  0
 29 98  1  0  0  0  0
 29 99  1  0  0  0  0
 30 31  1  0  0  0  0
 30100  1  0  0  0  0
 30101  1  0  0  0  0
 31 32  1  0  0  0  0
 31102  1  0  0  0  0
 31103  1  0  0  0  0
 32 33  1  0  0  0  0
 32104  1  0  0  0  0
 32105  1  0  0  0  0
 33 34  1  0  0  0  0
 34 35  1  0  0  0  0
 35 36  1  0  0  0  0
 36 37  1  0  0  0  0
 37 38  1  0  0  0  0
 38 39  1  0  0  0  0
 39 40  1  0  0  0  0
 40 41  1  0  0  0  0
 41 42  1  0  0  0  0
 42 43  1  0  0  0  0
 43 44  1  0  0  0  0
 44 45  1  0  0  0  0
 45 46  1  0  0  0  0
 46 47  1  0  0  0  0
 47 48  1  0  0  0  0
 48 49  1  0  0  0  0
 49 50  1  0  0  0  0
 50 51  1  0  0  0  0
 50106  1  0  0  0  0
 50107  1  0  0  0  0
 51 52  1  0  0  0  0
 51108  1  0  0  0  0
 51109  1  0  0  0  0
 52 53  1  0  0  0  0
 52110  1  0  0  0  0
 52111  1  0  0  0  0
 53 54  1  0  0  0  0
 53112  1  0  0  0  0
 53113  1  0  0  0  0
 54 55  1  0  0  0  0
 54114  1  0  0  0  0
 54115  1  0  0  0  0
 55 56  1  0  0  0  0
 55116  1  0  0  0  0
 55117  1  0  0  0  0
 56 57  1  0  0  0  0
 56118  1  0  0  0  0
 56119  1  0  0  0  0
 57 58  1  0  0  0  0
 57120  1  0  0  0  0
 57121  1  0  0  0  0
 58 59  1  0  0  0  0
 58122  1  0  0  0  0
 58123  1  0  0  0  0
 59 60  1  0  0  0  0
 59124  1  0  0  0  0
 59125  1  0  0  0  0
 60 61  1  0  0  0  0
 60126  1  0  0  0  0
 60127  1  0  0  0  0
 61 62  1  0  0  0  0
 61128  1  0  0  0  0
 61129  1  0  0  0  0
 62 63  1  0  0  0  0
 63 64  1  0  0  0  0
 64 65  1  0  0  0  0
 65 66  1  0  0  0  0
 66 67  1  0  0  0  0
 67 68  1  0  0  0  0
 68 69  1  0  0  0  0
 69 70  1  0  0  0  0
 70 71  1  0  0  0  0
 71 72  1  0  0  0  0
 72 73  1  0  0  0  0
 73 74  1  0  0  0  0
 74 75  1  0  0  0  0
 75 76  1  0  0  0  0
 76 77  1  0  0  0  0
 77 78  1  0  0  0  0
 78 79  1  0  0  0  0
 79130  1  0  0  0  0
M  END
$$$$
