
 OpenBabel04232216523D

 52 53  0  0  1  0  0  0  0  0999 V2000
    2.9117    2.6845    1.4002 C   0  0  0  0  0  0  0  0  0  0  0  0
    4.1207    2.4268    0.4897 C   0  0  0  0  0  0  0  0  0  0  0  0
    5.2105    3.6052    0.1933 C   0  0  0  0  0  0  0  0  0  0  0  0
    6.5390    3.8491    1.0435 C   0  0  0  0  0  0  0  0  0  0  0  0
    6.4098    3.1748    2.2949 C   0  0  0  0  0  0  0  0  0  0  0  0
    7.0310    2.0224    2.5857 C   0  0  0  0  0  0  0  0  0  0  0  0
    7.5941    0.9883    1.6024 C   0  0  0  0  0  0  0  0  0  0  0  0
    6.6836    0.2578    0.6294 C   0  0  0  0  0  0  0  0  0  0  0  0
    7.5728    2.0308    3.9977 C   0  0  0  0  0  0  0  0  0  0  0  0
    8.9899    1.6734    3.9493 N   0  0  0  0  0  0  0  0  0  0  0  0
    9.7946    2.6554    4.6487 C   0  0  0  0  0  0  0  0  0  0  0  0
   11.2198    2.5932    4.1016 C   0  0  0  0  0  0  0  0  0  0  0  0
   11.8967    1.5703    4.0323 O   0  0  0  0  0  0  0  0  0  0  0  0
   11.7915    3.8795    3.6165 C   0  0  0  0  0  0  0  0  0  0  0  0
   11.3210    4.1338    2.3706 C   0  0  0  0  0  0  0  0  0  0  0  0
   10.1668    5.0820    2.2009 C   0  0  0  0  0  0  0  0  0  0  0  0
   10.6612    6.4073    2.8956 C   0  0  0  0  0  0  0  0  0  0  0  0
   11.6470    6.2892    4.2158 C   0  0  3  0  0  0  0  0  0  0  0  0
   11.3014    7.1918    5.2996 O   0  0  0  0  0  0  0  0  0  0  0  0
   12.0396    7.0098    6.5199 C   0  0  0  0  0  0  0  0  0  0  0  0
   11.7114    4.8677    4.7384 C   0  0  0  0  0  0  0  0  0  0  0  0
    9.1071    4.4527    1.5079 C   0  0  0  0  0  0  0  0  0  0  0  0
    7.7072    4.5812    0.8198 C   0  0  0  0  0  0  0  0  0  0  0  0
    2.1800    1.8744    1.2268 H   0  0  0  0  0  0  0  0  0  0  0  0
    2.4069    3.6247    1.1732 H   0  0  0  0  0  0  0  0  0  0  0  0
    3.1597    2.6434    2.4649 H   0  0  0  0  0  0  0  0  0  0  0  0
    3.7240    2.1330   -0.4999 H   0  0  0  0  0  0  0  0  0  0  0  0
    4.6040    1.5436    0.9075 H   0  0  0  0  0  0  0  0  0  0  0  0
    4.6413    4.5390    0.1296 H   0  0  0  0  0  0  0  0  0  0  0  0
    5.5545    3.3664   -0.8238 H   0  0  0  0  0  0  0  0  0  0  0  0
    5.9900    3.8253    3.0628 H   0  0  0  0  0  0  0  0  0  0  0  0
    8.0551    0.1850    2.1861 H   0  0  0  0  0  0  0  0  0  0  0  0
    8.4076    1.4455    1.0251 H   0  0  0  0  0  0  0  0  0  0  0  0
    5.8496   -0.2327    1.1413 H   0  0  0  0  0  0  0  0  0  0  0  0
    7.2569   -0.5302    0.1259 H   0  0  0  0  0  0  0  0  0  0  0  0
    6.3114    0.9135   -0.1595 H   0  0  0  0  0  0  0  0  0  0  0  0
    7.0196    1.3554    4.6516 H   0  0  0  0  0  0  0  0  0  0  0  0
    7.4435    3.0384    4.4291 H   0  0  0  0  0  0  0  0  0  0  0  0
    9.3003    1.7355    2.9768 H   0  0  0  0  0  0  0  0  0  0  0  0
    9.8058    2.4878    5.7301 H   0  0  0  0  0  0  0  0  0  0  0  0
    9.3945    3.6547    4.4551 H   0  0  0  0  0  0  0  0  0  0  0  0
   12.0937    4.3496    1.6233 H   0  0  0  0  0  0  0  0  0  0  0  0
    9.8695    7.1370    3.0718 H   0  0  0  0  0  0  0  0  0  0  0  0
   11.3360    6.8686    2.1560 H   0  0  0  0  0  0  0  0  0  0  0  0
   12.6659    6.5792    3.9098 H   0  0  0  0  0  0  0  0  0  0  0  0
   11.9798    7.9075    7.1380 H   0  0  0  0  0  0  0  0  0  0  0  0
   13.1000    6.7703    6.3616 H   0  0  0  0  0  0  0  0  0  0  0  0
   11.5844    6.1908    7.1181 H   0  0  0  0  0  0  0  0  0  0  0  0
   10.8548    4.7202    5.4055 H   0  0  0  0  0  0  0  0  0  0  0  0
   12.5835    4.7115    5.3872 H   0  0  0  0  0  0  0  0  0  0  0  0
    9.3891    3.4555    1.1868 H   0  0  0  0  0  0  0  0  0  0  0  0
    7.7913    5.0444   -0.1697 H   0  0  0  0  0  0  0  0  0  0  0  0
  1  2  1  0  0  0  0
  1 24  1  0  0  0  0
  1 25  1  0  0  0  0
  1 26  1  0  0  0  0
  2  3  1  0  0  0  0
  2 27  1  0  0  0  0
  2 28  1  0  0  0  0
  3  4  1  0  0  0  0
  3 29  1  0  0  0  0
  3 30  1  0  0  0  0
  4  5  1  0  0  0  0
  4 23  2  3  0  0  0
  5  6  2  3  0  0  0
  5 31  1  0  0  0  0
  6  7  1  0  0  0  0
  6  9  1  0  0  0  0
  7  8  1  0  0  0  0
  7 32  1  0  0  0  0
  7 33  1  0  0  0  0
  8 34  1  0  0  0  0
  8 35  1  0  0  0  0
  8 36  1  0  0  0  0
  9 10  1  0  0  0  0
  9 37  1  0  0  0  0
  9 38  1  0  0  0  0
 10 11  1  0  0  0  0
 10 39  1  0  0  0  0
 11 12  1  0  0  0  0
 11 40  1  0  0  0  0
 11 41  1  0  0  0  0
 12 13  2  0  0  0  0
 12 14  1  0  0  0  0
 14 15  2  0  0  0  0
 14 21  1  0  0  0  0
 15 16  1  0  0  0  0
 15 42  1  0  0  0  0
 16 17  1  0  0  0  0
 16 22  2  3  0  0  0
 17 18  1  0  0  0  0
 17 43  1  0  0  0  0
 17 44  1  0  0  0  0
 18 19  1  0  0  0  0
 18 21  1  0  0  0  0
 18 45  1  0  0  0  0
 19 20  1  0  0  0  0
 20 46  1  0  0  0  0
 20 47  1  0  0  0  0
 20 48  1  0  0  0  0
 21 49  1  0  0  0  0
 21 50  1  0  0  0  0
 22 23  1  0  0  0  0
 22 51  1  0  0  0  0
 23 52  1  0  0  0  0
M  END
$$$$
