
 OpenBabel04232217023D

142141  0  0  0  0  0  0  0  0999 V2000
   14.6833  -23.7374    5.4079 O   0  0  0  0  0  0  0  0  0  0  0  0
   16.0938  -23.3980    5.2105 O   0  0  0  0  0  0  0  0  0  0  0  0
   16.7756  -23.9093    6.3563 C   0  0  0  0  0  0  0  0  0  0  0  0
   18.2760  -23.6946    6.2374 C   0  0  0  0  0  0  0  0  0  0  0  0
   18.6169  -22.2118    6.1756 C   0  0  0  0  0  0  0  0  0  0  0  0
   20.0725  -22.0767    6.0686 N   0  0  0  0  0  0  0  0  0  0  0  0
   20.3542  -20.6819    5.9496 N   0  0  0  0  0  0  0  0  0  0  0  0
   21.7251  -20.4290    5.7039 N   0  0  0  0  0  0  0  0  0  0  0  0
   21.9370  -19.0294    5.6632 N   0  0  0  0  0  0  0  0  0  0  0  0
   21.5356  -18.3664    6.8737 N   0  0  0  0  0  0  0  0  0  0  0  0
   22.1703  -18.9530    8.0155 N   0  0  0  0  0  0  0  0  0  0  0  0
   23.5940  -18.7388    8.0123 N   0  0  0  0  0  0  0  0  0  0  0  0
   23.8877  -17.3484    7.9466 N   0  0  0  0  0  0  0  0  0  0  0  0
   23.4525  -16.6863    9.1394 N   0  0  0  0  0  0  0  0  0  0  0  0
   24.0274  -17.3072   10.2961 N   0  0  0  0  0  0  0  0  0  0  0  0
   25.4463  -17.1716   10.2108 N   0  0  0  0  0  0  0  0  0  0  0  0
   25.7646  -15.7662   10.0726 N   0  0  0  0  0  0  0  0  0  0  0  0
   25.3537  -15.0145   11.2345 N   0  0  0  0  0  0  0  0  0  0  0  0
   25.9499  -15.5407   12.4257 N   0  0  0  0  0  0  0  0  0  0  0  0
   27.3769  -15.4301   12.3701 N   0  0  0  0  0  0  0  0  0  0  0  0
   27.7073  -14.0496   12.1920 N   0  0  0  0  0  0  0  0  0  0  0  0
   27.2315  -13.3219   13.3404 N   0  0  0  0  0  0  0  0  0  0  0  0
   27.7458  -13.8798   14.5639 N   0  0  0  0  0  0  0  0  0  0  0  0
   29.1671  -13.6634   14.6802 N   0  0  0  0  0  0  0  0  0  0  0  0
   29.4995  -12.2847   14.4645 N   0  0  0  0  0  0  0  0  0  0  0  0
   29.0100  -11.5464   15.5665 N   0  0  0  0  0  0  0  0  0  0  0  0
   29.5467  -12.1375   16.7813 N   0  0  0  0  0  0  0  0  0  0  0  0
   30.9797  -12.1182   16.7408 N   0  0  0  0  0  0  0  0  0  0  0  0
   31.4270  -10.7750   16.5947 N   0  0  0  0  0  0  0  0  0  0  0  0
   30.8031   -9.9952   17.6249 N   0  0  0  0  0  0  0  0  0  0  0  0
   31.3224  -10.4986   18.8638 N   0  0  0  0  0  0  0  0  0  0  0  0
   32.7703  -10.5259   18.8076 N   0  0  0  0  0  0  0  0  0  0  0  0
   33.2858   -9.1940   18.6482 N   0  0  0  0  0  0  0  0  0  0  0  0
   32.8603   -8.3413   19.7383 N   0  0  0  0  0  0  0  0  0  0  0  0
   33.2946   -8.9363   20.9531 N   0  0  0  0  0  0  0  0  0  0  0  0
   34.7470   -8.8775   21.0173 N   0  0  0  0  0  0  0  0  0  0  0  0
   35.2425   -7.5272   20.8753 N   0  0  0  0  0  0  0  0  0  0  0  0
   34.7057   -6.6632   21.8639 N   0  0  0  0  0  0  0  0  0  0  0  0
   35.1730   -7.1130   23.1262 N   0  0  0  0  0  0  0  0  0  0  0  0
   36.6277   -7.1426   23.1399 N   0  0  0  0  0  0  0  0  0  0  0  0
   37.1685   -5.8369   22.8959 N   0  0  0  0  0  0  0  0  0  0  0  0
   36.6761   -4.9326   23.8703 N   0  0  0  0  0  0  0  0  0  0  0  0
   37.1322   -5.4283   25.1488 N   0  0  0  0  0  0  0  0  0  0  0  0
   38.5841   -5.5687   25.1595 N   0  0  0  0  0  0  0  0  0  0  0  0
   39.2445   -4.2908   24.9601 N   0  0  0  0  0  0  0  0  0  0  0  0
   38.8162   -3.3751   25.9598 N   0  0  0  0  0  0  0  0  0  0  0  0
   39.2221   -3.8367   27.2515 N   0  0  0  0  0  0  0  0  0  0  0  0
   40.6596   -3.9604   27.2797 N   0  0  0  0  0  0  0  0  0  0  0  0
   41.2468   -2.6506   27.0160 N   0  0  0  0  0  0  0  0  0  0  0  0
   40.7488   -1.7314   28.0230 N   0  0  0  0  0  0  0  0  0  0  0  0
   41.0842   -2.1674   29.3288 N   0  0  0  0  0  0  0  0  0  0  0  0
   40.4541   -1.1951   30.4880 S   0  0  0  0  0  0  0  0  0  0  0  0
   41.1345   -1.7361   31.8947 N   0  0  0  0  0  0  0  0  0  0  0  0
   40.4545   -3.1214   32.4878 S   0  0  0  0  0  0  0  0  0  0  0  0
   40.8741   -4.3414   31.4567 N   0  0  0  0  0  0  0  0  0  0  0  0
   42.4982   -4.6704   31.3635 S   0  0  0  0  0  0  0  0  0  0  0  0
   43.0506   -5.1063   32.8472 N   0  0  0  0  0  0  0  0  0  0  0  0
   42.4710   -6.5454   33.4272 S   0  0  0  0  0  0  0  0  0  0  0  0
   42.7850   -7.7228   32.3038 N   0  0  0  0  0  0  0  0  0  0  0  0
   44.3668   -8.2189   32.3706 S   0  0  0  0  0  0  0  0  0  0  0  0
   44.5495   -9.4222   31.2411 N   0  0  0  0  0  0  0  0  0  0  0  0
   43.9631  -10.8926   31.7557 S   0  0  0  0  0  0  0  0  0  0  0  0
   42.3129  -10.7864   31.9499 N   0  0  0  0  0  0  0  0  0  0  0  0
   41.5306  -10.5175   30.5035 S   0  0  0  0  0  0  0  0  0  0  0  0
   39.9127  -10.3485   30.8036 N   0  0  0  0  0  0  0  0  0  0  0  0
   39.5447   -9.2748   31.9983 S   0  0  0  0  0  0  0  0  0  0  0  0
   37.4904   -9.3835   31.9627 S   0  0  0  0  0  0  0  0  0  0  0  0
   36.9709  -11.2612   32.6426 S   0  0  0  0  0  0  0  0  0  0  0  0
   37.4067  -11.3812   34.6600 S   0  0  0  0  0  0  0  0  0  0  0  0
   36.8300  -13.2944   35.2486 S   0  0  0  0  0  0  0  0  0  0  0  0
   37.7039  -13.6844   37.0979 S   0  0  0  0  0  0  0  0  0  0  0  0
   36.9814  -15.5303   37.7650 S   0  0  0  0  0  0  0  0  0  0  0  0
   37.8368  -15.9054   39.6375 S   0  0  0  0  0  0  0  0  0  0  0  0
   37.1602  -17.7707   40.3010 S   0  0  0  0  0  0  0  0  0  0  0  0
   38.0049  -18.1276   42.1816 S   0  0  0  0  0  0  0  0  0  0  0  0
   37.3523  -20.0031   42.8229 S   0  0  0  0  0  0  0  0  0  0  0  0
   38.1699  -20.3497   44.7072 S   0  0  0  0  0  0  0  0  0  0  0  0
   37.4115  -22.1674   45.3617 S   0  0  0  0  0  0  0  0  0  0  0  0
   38.4479  -22.6754   47.0769 S   0  0  0  0  0  0  0  0  0  0  0  0
   37.5844  -24.4172   47.7718 S   0  0  0  0  0  0  0  0  0  0  0  0
   38.4034  -25.9200   46.6341 S   0  0  0  0  0  0  0  0  0  0  0  0
   14.3563  -23.3007    4.6008 H   0  0  0  0  0  0  0  0  0  0  0  0
   16.5774  -24.9841    6.4317 H   0  0  0  0  0  0  0  0  0  0  0  0
   16.3910  -23.4177    7.2567 H   0  0  0  0  0  0  0  0  0  0  0  0
   18.6477  -24.1926    5.3329 H   0  0  0  0  0  0  0  0  0  0  0  0
   18.7794  -24.1538    7.0980 H   0  0  0  0  0  0  0  0  0  0  0  0
   18.2497  -21.7074    7.0783 H   0  0  0  0  0  0  0  0  0  0  0  0
   18.1280  -21.7522    5.3063 H   0  0  0  0  0  0  0  0  0  0  0  0
   20.3626  -22.5937    5.2300 H   0  0  0  0  0  0  0  0  0  0  0  0
   20.1666  -20.2026    6.8441 H   0  0  0  0  0  0  0  0  0  0  0  0
   22.0633  -20.8823    4.8479 H   0  0  0  0  0  0  0  0  0  0  0  0
   21.4545  -18.5693    4.9023 H   0  0  0  0  0  0  0  0  0  0  0  0
   20.5131  -18.3547    6.9641 H   0  0  0  0  0  0  0  0  0  0  0  0
   22.0127  -19.9568    8.0561 H   0  0  0  0  0  0  0  0  0  0  0  0
   24.0610  -19.2355    7.2512 H   0  0  0  0  0  0  0  0  0  0  0  0
   23.4614  -16.9430    7.0966 H   0  0  0  0  0  0  0  0  0  0  0  0
   22.4465  -16.7311    9.2590 H   0  0  0  0  0  0  0  0  0  0  0  0
   23.7314  -18.2910   10.3202 H   0  0  0  0  0  0  0  0  0  0  0  0
   25.7676  -17.5886    9.3437 H   0  0  0  0  0  0  0  0  0  0  0  0
   25.2602  -15.4429    9.2286 H   0  0  0  0  0  0  0  0  0  0  0  0
   24.3428  -15.0325   11.3513 H   0  0  0  0  0  0  0  0  0  0  0  0
   25.6434  -16.5176   12.5211 H   0  0  0  0  0  0  0  0  0  0  0  0
   27.7497  -15.9137   11.5614 H   0  0  0  0  0  0  0  0  0  0  0  0
   27.2310  -13.7359   11.3339 H   0  0  0  0  0  0  0  0  0  0  0  0
   26.2182  -13.3780   13.3853 H   0  0  0  0  0  0  0  0  0  0  0  0
   27.4690  -14.8686   14.6441 H   0  0  0  0  0  0  0  0  0  0  0  0
   29.6817  -14.1884   13.9865 H   0  0  0  0  0  0  0  0  0  0  0  0
   29.0739  -11.9936   13.5757 H   0  0  0  0  0  0  0  0  0  0  0  0
   28.0036  -11.5940   15.6264 H   0  0  0  0  0  0  0  0  0  0  0  0
   29.2876  -13.1252   16.7907 H   0  0  0  0  0  0  0  0  0  0  0  0
   31.2944  -12.7295   15.9736 H   0  0  0  0  0  0  0  0  0  0  0  0
   31.0931  -10.3779   15.7313 H   0  0  0  0  0  0  0  0  0  0  0  0
   29.7984  -10.2198   17.5531 H   0  0  0  0  0  0  0  0  0  0  0  0
   31.0762  -11.4848   18.8812 H   0  0  0  0  0  0  0  0  0  0  0  0
   32.9791  -11.0516   17.9504 H   0  0  0  0  0  0  0  0  0  0  0  0
   32.9069   -8.8631   17.7548 H   0  0  0  0  0  0  0  0  0  0  0  0
   31.8449   -8.3583   19.7788 H   0  0  0  0  0  0  0  0  0  0  0  0
   32.9439   -9.9044   20.9495 H   0  0  0  0  0  0  0  0  0  0  0  0
   35.1121   -9.4552   20.2472 H   0  0  0  0  0  0  0  0  0  0  0  0
   35.0227   -7.1095   19.9800 H   0  0  0  0  0  0  0  0  0  0  0  0
   33.6881   -6.7048   21.8341 H   0  0  0  0  0  0  0  0  0  0  0  0
   34.8017   -8.0611   23.2508 H   0  0  0  0  0  0  0  0  0  0  0  0
   36.9429   -7.7591   22.3778 H   0  0  0  0  0  0  0  0  0  0  0  0
   36.8846   -5.4839   21.9907 H   0  0  0  0  0  0  0  0  0  0  0  0
   35.6515   -4.9700   23.8247 H   0  0  0  0  0  0  0  0  0  0  0  0
   36.7395   -6.3818   25.2154 H   0  0  0  0  0  0  0  0  0  0  0  0
   38.8602   -6.2098   24.4035 H   0  0  0  0  0  0  0  0  0  0  0  0
   38.9415   -3.9165   24.0681 H   0  0  0  0  0  0  0  0  0  0  0  0
   37.8013   -3.3938   25.9479 H   0  0  0  0  0  0  0  0  0  0  0  0
   38.7704   -4.7560   27.3559 H   0  0  0  0  0  0  0  0  0  0  0  0
   40.9092   -4.5829   26.5016 H   0  0  0  0  0  0  0  0  0  0  0  0
   40.8299   -2.3743   26.1088 H   0  0  0  0  0  0  0  0  0  0  0  0
   39.7234   -1.7842   27.9180 H   0  0  0  0  0  0  0  0  0  0  0  0
   42.0840   -2.3183   29.4489 H   0  0  0  0  0  0  0  0  0  0  0  0
   40.9962   -1.0135   32.5936 H   0  0  0  0  0  0  0  0  0  0  0  0
   40.6163   -4.0211   30.5187 H   0  0  0  0  0  0  0  0  0  0  0  0
   42.8592   -4.3471   33.4952 H   0  0  0  0  0  0  0  0  0  0  0  0
   42.5135   -7.3527   31.3886 H   0  0  0  0  0  0  0  0  0  0  0  0
   45.5401   -9.5068   31.0094 H   0  0  0  0  0  0  0  0  0  0  0  0
   42.0920  -10.0051   32.5746 H   0  0  0  0  0  0  0  0  0  0  0  0
   39.4471  -11.2465   30.9397 H   0  0  0  0  0  0  0  0  0  0  0  0
   37.8327  -26.9968   47.2000 H   0  0  0  0  0  0  0  0  0  0  0  0
  1  2  1  0  0  0  0
  1 82  1  0  0  0  0
  2  3  1  0  0  0  0
  3  4  1  0  0  0  0
  3 83  1  0  0  0  0
  3 84  1  0  0  0  0
  4  5  1  0  0  0  0
  4 85  1  0  0  0  0
  4 86  1  0  0  0  0
  5  6  1  0  0  0  0
  5 87  1  0  0  0  0
  5 88  1  0  0  0  0
  6  7  1  0  0  0  0
  6 89  1  0  0  0  0
  7  8  1  0  0  0  0
  7 90  1  0  0  0  0
  8  9  1  0  0  0  0
  8 91  1  0  0  0  0
  9 10  1  0  0  0  0
  9 92  1  0  0  0  0
 10 11  1  0  0  0  0
 10 93  1  0  0  0  0
 11 12  1  0  0  0  0
 11 94  1  0  0  0  0
 12 13  1  0  0  0  0
 12 95  1  0  0  0  0
 13 14  1  0  0  0  0
 13 96  1  0  0  0  0
 14 15  1  0  0  0  0
 14 97  1  0  0  0  0
 15 16  1  0  0  0  0
 15 98  1  0  0  0  0
 16 17  1  0  0  0  0
 16 99  1  0  0  0  0
 17 18  1  0  0  0  0
 17100  1  0  0  0  0
 18 19  1  0  0  0  0
 18101  1  0  0  0  0
 19 20  1  0  0  0  0
 19102  1  0  0  0  0
 20 21  1  0  0  0  0
 20103  1  0  0  0  0
 21 22  1  0  0  0  0
 21104  1  0  0  0  0
 22 23  1  0  0  0  0
 22105  1  0  0  0  0
 23 24  1  0  0  0  0
 23106  1  0  0  0  0
 24 25  1  0  0  0  0
 24107  1  0  0  0  0
 25 26  1  0  0  0  0
 25108  1  0  0  0  0
 26 27  1  0  0  0  0
 26109  1  0  0  0  0
 27 28  1  0  0  0  0
 27110  1  0  0  0  0
 28 29  1  0  0  0  0
 28111  1  0  0  0  0
 29 30  1  0  0  0  0
 29112  1  0  0  0  0
 30 31  1  0  0  0  0
 30113  1  0  0  0  0
 31 32  1  0  0  0  0
 31114  1  0  0  0  0
 32 33  1  0  0  0  0
 32115  1  0  0  0  0
 33 34  1  0  0  0  0
 33116  1  0  0  0  0
 34 35  1  0  0  0  0
 34117  1  0  0  0  0
 35 36  1  0  0  0  0
 35118  1  0  0  0  0
 36 37  1  0  0  0  0
 36119  1  0  0  0  0
 37 38  1  0  0  0  0
 37120  1  0  0  0  0
 38 39  1  0  0  0  0
 38121  1  0  0  0  0
 39 40  1  0  0  0  0
 39122  1  0  0  0  0
 40 41  1  0  0  0  0
 40123  1  0  0  0  0
 41 42  1  0  0  0  0
 41124  1  0  0  0  0
 42 43  1  0  0  0  0
 42125  1  0  0  0  0
 43 44  1  0  0  0  0
 43126  1  0  0  0  0
 44 45  1  0  0  0  0
 44127  1  0  0  0  0
 45 46  1  0  0  0  0
 45128  1  0  0  0  0
 46 47  1  0  0  0  0
 46129  1  0  0  0  0
 47 48  1  0  0  0  0
 47130  1  0  0  0  0
 48 49  1  0  0  0  0
 48131  1  0  0  0  0
 49 50  1  0  0  0  0
 49132  1  0  0  0  0
 50 51  1  0  0  0  0
 50133  1  0  0  0  0
 51 52  1  0  0  0  0
 51134  1  0  0  0  0
 52 53  1  0  0  0  0
 53 54  1  0  0  0  0
 53135  1  0  0  0  0
 54 55  1  0  0  0  0
 55 56  1  0  0  0  0
 55136  1  0  0  0  0
 56 57  1  0  0  0  0
 57 58  1  0  0  0  0
 57137  1  0  0  0  0
 58 59  1  0  0  0  0
 59 60  1  0  0  0  0
 59138  1  0  0  0  0
 60 61  1  0  0  0  0
 61 62  1  0  0  0  0
 61139  1  0  0  0  0
 62 63  1  0  0  0  0
 63 64  1  0  0  0  0
 63140  1  0  0  0  0
 64 65  1  0  0  0  0
 65 66  1  0  0  0  0
 65141  1  0  0  0  0
 66 67  1  0  0  0  0
 67 68  1  0  0  0  0
 68 69  1  0  0  0  0
 69 70  1  0  0  0  0
 70 71  1  0  0  0  0
 71 72  1  0  0  0  0
 72 73  1  0  0  0  0
 73 74  1  0  0  0  0
 74 75  1  0  0  0  0
 75 76  1  0  0  0  0
 76 77  1  0  0  0  0
 77 78  1  0  0  0  0
 78 79  1  0  0  0  0
 79 80  1  0  0  0  0
 80 81  1  0  0  0  0
 81142  1  0  0  0  0
M  END
$$$$
