
 OpenBabel04232216523D

 67 68  0  0  1  0  0  0  0  0999 V2000
   11.2699   -1.3320   -9.3776 C   0  0  0  0  0  0  0  0  0  0  0  0
   11.1108   -0.5586   -8.0845 C   0  0  0  0  0  0  0  0  0  0  0  0
   11.8585   -1.2185   -6.9179 C   0  0  0  0  0  0  0  0  0  0  0  0
   11.7199   -0.4505   -5.5907 C   0  0  3  0  0  0  0  0  0  0  0  0
   12.4972   -1.1745   -4.4729 C   0  0  0  0  0  0  0  0  0  0  0  0
   12.1284   -0.6482   -3.0975 C   0  0  0  0  0  0  0  0  0  0  0  0
   10.6189   -0.8032   -2.8194 C   0  0  3  0  0  0  0  0  0  0  0  0
   10.2094    0.0344   -1.6021 C   0  0  0  0  0  0  0  0  0  0  0  0
   10.9578   -0.3954   -0.3508 C   0  0  0  0  0  0  0  0  0  0  0  0
   10.5585    0.4401    0.8559 C   0  0  0  0  0  0  0  0  0  0  0  0
   11.3289   -0.0231    2.0852 C   0  0  0  0  0  0  0  0  0  0  0  0
   12.8367    0.1195    1.8942 C   0  0  0  0  0  0  0  0  0  0  0  0
   13.5911   -0.3564    3.1184 C   0  0  0  0  0  0  0  0  0  0  0  0
   12.9961   -0.7763    4.1037 O   0  0  0  0  0  0  0  0  0  0  0  0
   15.0477   -0.3281    3.0053 C   0  0  0  0  0  0  0  0  0  0  0  0
   16.0260   -1.0067    3.6415 C   0  0  0  0  0  0  0  0  0  0  0  0
   16.0230   -2.0865    4.7076 C   0  0  0  0  0  0  0  0  0  0  0  0
   17.2639   -2.0113    5.5808 C   0  0  0  0  0  0  0  0  0  0  0  0
   17.2707   -3.1040    6.6458 C   0  0  0  0  0  0  0  0  0  0  0  0
   18.5218   -2.9918    7.5146 C   0  0  0  0  0  0  0  0  0  0  0  0
   18.5518   -4.0772    8.5857 C   0  0  0  0  0  0  0  0  0  0  0  0
   19.7988   -3.9598    9.4452 C   0  0  0  0  0  0  0  0  0  0  0  0
   17.1222   -0.2511    2.8811 C   0  0  0  0  0  0  0  0  0  0  0  0
   15.9397    0.4698    2.2027 C   0  0  0  0  0  0  0  0  0  0  0  0
   15.7768    1.3441    1.3643 O   0  0  0  0  0  0  0  0  0  0  0  0
    9.7726   -0.4187   -4.0041 C   0  0  0  0  0  0  0  0  0  0  0  0
   10.2722   -0.2325   -5.2312 C   0  0  0  0  0  0  0  0  0  0  0  0
   10.6948   -0.8445  -10.1704 H   0  0  0  0  0  0  0  0  0  0  0  0
   10.8921   -2.3531   -9.2635 H   0  0  0  0  0  0  0  0  0  0  0  0
   12.3181   -1.3744   -9.6837 H   0  0  0  0  0  0  0  0  0  0  0  0
   10.0365   -0.5142   -7.8815 H   0  0  0  0  0  0  0  0  0  0  0  0
   11.4574    0.4721   -8.2251 H   0  0  0  0  0  0  0  0  0  0  0  0
   12.9231   -1.3042   -7.1749 H   0  0  0  0  0  0  0  0  0  0  0  0
   11.4861   -2.2428   -6.7828 H   0  0  0  0  0  0  0  0  0  0  0  0
   12.1655    0.5450   -5.7234 H   0  0  0  0  0  0  0  0  0  0  0  0
   13.5774   -1.0615   -4.6363 H   0  0  0  0  0  0  0  0  0  0  0  0
   12.2918   -2.2519   -4.4673 H   0  0  0  0  0  0  0  0  0  0  0  0
   12.4347    0.4025   -3.0087 H   0  0  0  0  0  0  0  0  0  0  0  0
   12.7020   -1.2160   -2.3535 H   0  0  0  0  0  0  0  0  0  0  0  0
   10.4069   -1.8601   -2.6071 H   0  0  0  0  0  0  0  0  0  0  0  0
    9.1323   -0.0652   -1.4240 H   0  0  0  0  0  0  0  0  0  0  0  0
   10.4026    1.0971   -1.7989 H   0  0  0  0  0  0  0  0  0  0  0  0
   12.0318   -0.2757   -0.5127 H   0  0  0  0  0  0  0  0  0  0  0  0
   10.7790   -1.4584   -0.1511 H   0  0  0  0  0  0  0  0  0  0  0  0
    9.4809    0.3491    1.0335 H   0  0  0  0  0  0  0  0  0  0  0  0
   10.7714    1.4981    0.6616 H   0  0  0  0  0  0  0  0  0  0  0  0
   11.0826   -1.0722    2.2942 H   0  0  0  0  0  0  0  0  0  0  0  0
   11.0131    0.5575    2.9603 H   0  0  0  0  0  0  0  0  0  0  0  0
   13.0878    1.1637    1.6794 H   0  0  0  0  0  0  0  0  0  0  0  0
   13.1727   -0.4990    1.0548 H   0  0  0  0  0  0  0  0  0  0  0  0
   15.9618   -3.0589    4.2017 H   0  0  0  0  0  0  0  0  0  0  0  0
   15.0942   -2.0353    5.2871 H   0  0  0  0  0  0  0  0  0  0  0  0
   17.3057   -1.0286    6.0683 H   0  0  0  0  0  0  0  0  0  0  0  0
   18.1698   -2.0955    4.9656 H   0  0  0  0  0  0  0  0  0  0  0  0
   17.2391   -4.0885    6.1648 H   0  0  0  0  0  0  0  0  0  0  0  0
   16.3744   -3.0178    7.2722 H   0  0  0  0  0  0  0  0  0  0  0  0
   18.5515   -2.0035    7.9900 H   0  0  0  0  0  0  0  0  0  0  0  0
   19.4155   -3.0717    6.8833 H   0  0  0  0  0  0  0  0  0  0  0  0
   18.5268   -5.0666    8.1143 H   0  0  0  0  0  0  0  0  0  0  0  0
   17.6627   -3.9967    9.2221 H   0  0  0  0  0  0  0  0  0  0  0  0
   20.7033   -4.0642    8.8377 H   0  0  0  0  0  0  0  0  0  0  0  0
   19.8087   -4.7427   10.2098 H   0  0  0  0  0  0  0  0  0  0  0  0
   19.8349   -2.9893    9.9502 H   0  0  0  0  0  0  0  0  0  0  0  0
   17.7339   -0.8457    2.1967 H   0  0  0  0  0  0  0  0  0  0  0  0
   17.7648    0.4020    3.4795 H   0  0  0  0  0  0  0  0  0  0  0  0
    8.7039   -0.2851   -3.8460 H   0  0  0  0  0  0  0  0  0  0  0  0
    9.5976    0.0959   -6.0148 H   0  0  0  0  0  0  0  0  0  0  0  0
  1  2  1  0  0  0  0
  1 28  1  0  0  0  0
  1 29  1  0  0  0  0
  1 30  1  0  0  0  0
  2  3  1  0  0  0  0
  2 31  1  0  0  0  0
  2 32  1  0  0  0  0
  3  4  1  0  0  0  0
  3 33  1  0  0  0  0
  3 34  1  0  0  0  0
  4  5  1  0  0  0  0
  4 27  1  0  0  0  0
  4 35  1  0  0  0  0
  5  6  1  0  0  0  0
  5 36  1  0  0  0  0
  5 37  1  0  0  0  0
  6  7  1  0  0  0  0
  6 38  1  0  0  0  0
  6 39  1  0  0  0  0
  7  8  1  0  0  0  0
  7 26  1  0  0  0  0
  7 40  1  0  0  0  0
  8  9  1  0  0  0  0
  8 41  1  0  0  0  0
  8 42  1  0  0  0  0
  9 10  1  0  0  0  0
  9 43  1  0  0  0  0
  9 44  1  0  0  0  0
 10 11  1  0  0  0  0
 10 45  1  0  0  0  0
 10 46  1  0  0  0  0
 11 12  1  0  0  0  0
 11 47  1  0  0  0  0
 11 48  1  0  0  0  0
 12 13  1  0  0  0  0
 12 49  1  0  0  0  0
 12 50  1  0  0  0  0
 13 14  2  0  0  0  0
 13 15  1  0  0  0  0
 15 16  2  0  0  0  0
 15 24  1  0  0  0  0
 16 17  1  0  0  0  0
 16 23  1  0  0  0  0
 17 18  1  0  0  0  0
 17 51  1  0  0  0  0
 17 52  1  0  0  0  0
 18 19  1  0  0  0  0
 18 53  1  0  0  0  0
 18 54  1  0  0  0  0
 19 20  1  0  0  0  0
 19 55  1  0  0  0  0
 19 56  1  0  0  0  0
 20 21  1  0  0  0  0
 20 57  1  0  0  0  0
 20 58  1  0  0  0  0
 21 22  1  0  0  0  0
 21 59  1  0  0  0  0
 21 60  1  0  0  0  0
 22 61  1  0  0  0  0
 22 62  1  0  0  0  0
 22 63  1  0  0  0  0
 23 24  1  0  0  0  0
 23 64  1  0  0  0  0
 23 65  1  0  0  0  0
 24 25  2  0  0  0  0
 26 27  2  0  0  0  0
 26 66  1  0  0  0  0
 27 67  1  0  0  0  0
M  END
$$$$
