
 OpenBabel04232216463D

 53 54  0  0  1  0  0  0  0  0999 V2000
    4.3192   -0.7984    2.2466 C   0  0  0  0  0  0  0  0  0  0  0  0
    5.4077   -1.7064    1.6364 C   0  0  0  0  0  0  0  0  0  0  0  0
    5.0202   -1.7933   -0.0906 C   0  0  0  0  0  0  0  0  0  0  0  0
    5.8121   -2.0724   -1.2555 C   0  0  0  0  0  0  0  0  0  0  0  0
    7.4598   -1.7301   -1.4653 C   0  0  3  0  0  0  0  0  0  0  0  0
    8.8554   -2.4932   -1.7552 C   0  0  0  0  0  0  0  0  0  0  0  0
    9.0039   -3.8523   -2.3994 C   0  0  0  0  0  0  0  0  0  0  0  0
   10.2700   -4.2903   -2.0828 F   0  0  0  0  0  0  0  0  0  0  0  0
    5.9983   -3.4645   -1.1672 C   0  0  0  0  0  0  0  0  0  0  0  0
    6.8573   -3.3887   -0.1307 C   0  0  0  0  0  0  0  0  0  0  0  0
    7.5562   -1.7003    0.0187 C   0  0  3  0  0  0  0  0  0  0  0  0
    7.0088   -0.0737    0.1713 C   0  0  0  0  0  0  0  0  0  0  0  0
    8.0025    1.0873    0.0096 C   0  0  0  0  0  0  0  0  0  0  0  0
    8.7191    1.3667    1.3111 C   0  0  0  0  0  0  0  0  0  0  0  0
    6.7292   -4.4730    0.8037 C   0  0  0  0  0  0  0  0  0  0  0  0
    5.3693   -4.8676    1.3919 C   0  0  0  0  0  0  0  0  0  0  0  0
    7.8368   -4.6089    1.5007 C   0  0  0  0  0  0  0  0  0  0  0  0
    7.7347   -4.0945    2.8543 C   0  0  0  0  0  0  0  0  0  0  0  0
    8.7726   -4.9770    3.5736 C   0  0  0  0  0  0  0  0  0  0  0  0
    8.2584   -5.5769    4.8691 C   0  0  0  0  0  0  0  0  0  0  0  0
    7.5087   -2.7440    2.8270 C   0  0  0  0  0  0  0  0  0  0  0  0
    8.7588   -1.9336    3.1607 C   0  0  0  0  0  0  0  0  0  0  0  0
    6.2901   -2.0471    2.5595 N   0  0  0  0  0  0  0  0  0  0  0  0
    3.5080   -1.4128    2.6359 H   0  0  0  0  0  0  0  0  0  0  0  0
    3.9291   -0.1162    1.4884 H   0  0  0  0  0  0  0  0  0  0  0  0
    4.7360   -0.1828    3.0540 H   0  0  0  0  0  0  0  0  0  0  0  0
    3.9668   -2.1077   -0.1242 H   0  0  0  0  0  0  0  0  0  0  0  0
    7.5072   -0.7974   -2.0312 H   0  0  0  0  0  0  0  0  0  0  0  0
    9.4405   -2.6128   -0.8240 H   0  0  0  0  0  0  0  0  0  0  0  0
    9.5056   -1.7791   -2.2779 H   0  0  0  0  0  0  0  0  0  0  0  0
    8.9589   -3.7912   -3.4832 H   0  0  0  0  0  0  0  0  0  0  0  0
    8.3273   -4.6129   -2.0155 H   0  0  0  0  0  0  0  0  0  0  0  0
    5.3091   -4.2579   -1.4008 H   0  0  0  0  0  0  0  0  0  0  0  0
    8.5281   -1.7323    0.5054 H   0  0  0  0  0  0  0  0  0  0  0  0
    6.4987    0.1267    1.1098 H   0  0  0  0  0  0  0  0  0  0  0  0
    6.2691    0.1742   -0.6125 H   0  0  0  0  0  0  0  0  0  0  0  0
    7.4271    1.9982   -0.2436 H   0  0  0  0  0  0  0  0  0  0  0  0
    8.6980    0.9313   -0.8186 H   0  0  0  0  0  0  0  0  0  0  0  0
    8.0084    1.4286    2.1444 H   0  0  0  0  0  0  0  0  0  0  0  0
    9.2520    2.3193    1.2625 H   0  0  0  0  0  0  0  0  0  0  0  0
    9.4382    0.5739    1.5159 H   0  0  0  0  0  0  0  0  0  0  0  0
    4.5520   -4.1870    1.1365 H   0  0  0  0  0  0  0  0  0  0  0  0
    5.3751   -4.9280    2.4904 H   0  0  0  0  0  0  0  0  0  0  0  0
    5.0927   -5.8628    1.0319 H   0  0  0  0  0  0  0  0  0  0  0  0
    8.7971   -4.3602    1.0530 H   0  0  0  0  0  0  0  0  0  0  0  0
    9.7301   -4.4713    3.7135 H   0  0  0  0  0  0  0  0  0  0  0  0
    9.0092   -5.8589    2.9501 H   0  0  0  0  0  0  0  0  0  0  0  0
    8.2478   -4.8302    5.6656 H   0  0  0  0  0  0  0  0  0  0  0  0
    8.9150   -6.4014    5.1777 H   0  0  0  0  0  0  0  0  0  0  0  0
    7.2496   -5.9902    4.7527 H   0  0  0  0  0  0  0  0  0  0  0  0
    8.6430   -0.8731    2.9478 H   0  0  0  0  0  0  0  0  0  0  0  0
    9.6010   -2.2828    2.5299 H   0  0  0  0  0  0  0  0  0  0  0  0
    9.0713   -2.0592    4.2028 H   0  0  0  0  0  0  0  0  0  0  0  0
  1  2  1  0  0  0  0
  1 24  1  0  0  0  0
  1 25  1  0  0  0  0
  1 26  1  0  0  0  0
  2  3  1  0  0  0  0
  2 23  2  0  0  0  0
  3  4  2  0  0  0  0
  3 27  1  0  0  0  0
  4  5  1  0  0  0  0
  4  9  1  0  0  0  0
  5  6  1  0  0  0  0
  5 11  1  0  0  0  0
  5 28  1  0  0  0  0
  6  7  1  0  0  0  0
  6 29  1  0  0  0  0
  6 30  1  0  0  0  0
  7  8  1  0  0  0  0
  7 31  1  0  0  0  0
  7 32  1  0  0  0  0
  9 10  2  0  0  0  0
  9 33  1  0  0  0  0
 10 11  1  0  0  0  0
 10 15  1  0  0  0  0
 11 12  1  0  0  0  0
 11 34  1  0  0  0  0
 12 13  1  0  0  0  0
 12 35  1  0  0  0  0
 12 36  1  0  0  0  0
 13 14  1  0  0  0  0
 13 37  1  0  0  0  0
 13 38  1  0  0  0  0
 14 39  1  0  0  0  0
 14 40  1  0  0  0  0
 14 41  1  0  0  0  0
 15 16  1  0  0  0  0
 15 17  2  0  0  0  0
 16 42  1  0  0  0  0
 16 43  1  0  0  0  0
 16 44  1  0  0  0  0
 17 18  1  0  0  0  0
 17 45  1  0  0  0  0
 18 19  1  0  0  0  0
 18 21  2  0  0  0  0
 19 20  1  0  0  0  0
 19 46  1  0  0  0  0
 19 47  1  0  0  0  0
 20 48  1  0  0  0  0
 20 49  1  0  0  0  0
 20 50  1  0  0  0  0
 21 22  1  0  0  0  0
 21 23  1  0  0  0  0
 22 51  1  0  0  0  0
 22 52  1  0  0  0  0
 22 53  1  0  0  0  0
M  END
$$$$
