
 OpenBabel04232216593D

186185  0  0  0  0  0  0  0  0999 V2000
   17.2465   -8.7507   -4.5690 O   0  0  0  0  0  0  0  0  0  0  0  0
   16.9986   -9.7248   -5.2326 C   0  0  0  0  0  0  0  0  0  0  0  0
   17.5243   -9.9045   -6.6520 C   0  0  0  0  0  0  0  0  0  0  0  0
   16.3663  -10.0047   -7.6334 C   0  0  0  0  0  0  0  0  0  0  0  0
   16.8024  -10.1447   -9.0808 C   0  0  0  0  0  0  0  0  0  0  0  0
   16.2444  -10.7896   -4.8153 O   0  0  0  0  0  0  0  0  0  0  0  0
   15.7835  -10.4380   -3.4724 O   0  0  0  0  0  0  0  0  0  0  0  0
   14.3317  -10.3881   -3.4528 O   0  0  0  0  0  0  0  0  0  0  0  0
   13.8469  -10.0665   -2.1405 O   0  0  0  0  0  0  0  0  0  0  0  0
   14.3477   -8.7793   -1.7552 O   0  0  0  0  0  0  0  0  0  0  0  0
   13.8595   -8.4413   -0.4546 O   0  0  0  0  0  0  0  0  0  0  0  0
   14.4305   -7.1762   -0.1894 C   0  0  0  0  0  0  0  0  0  0  0  0
   13.9207   -6.7957    1.1713 C   0  0  0  0  0  0  0  0  0  0  0  0
   14.4553   -5.4397    1.5875 C   0  0  0  0  0  0  0  0  0  0  0  0
   13.9110   -5.1084    2.9546 C   0  0  0  0  0  0  0  0  0  0  0  0
   14.3362   -6.1163    3.8590 O   0  0  0  0  0  0  0  0  0  0  0  0
   13.8422   -5.8442    5.1604 C   0  0  0  0  0  0  0  0  0  0  0  0
   14.3216   -6.9334    6.0899 C   0  0  0  0  0  0  0  0  0  0  0  0
   15.8448   -6.9536    6.0942 C   0  0  0  0  0  0  0  0  0  0  0  0
   16.3567   -8.0344    7.0225 C   0  0  0  0  0  0  0  0  0  0  0  0
   17.8741   -8.0397    7.0163 C   0  0  0  0  0  0  0  0  0  0  0  0
   18.3875   -9.1208    7.9478 C   0  0  0  0  0  0  0  0  0  0  0  0
   19.9045   -9.1277    7.9459 C   0  0  0  0  0  0  0  0  0  0  0  0
   20.4154  -10.2086    8.8799 C   0  0  0  0  0  0  0  0  0  0  0  0
   21.9324  -10.2153    8.8804 C   0  0  0  0  0  0  0  0  0  0  0  0
   22.4436  -11.2975    9.8130 C   0  0  0  0  0  0  0  0  0  0  0  0
   23.9609  -11.3022    9.8144 C   0  0  0  0  0  0  0  0  0  0  0  0
   24.4753  -12.3836   10.7462 C   0  0  0  0  0  0  0  0  0  0  0  0
   25.9940  -12.3867   10.7462 C   0  0  0  0  0  0  0  0  0  0  0  0
   26.5076  -13.4676   11.6777 C   0  0  0  0  0  0  0  0  0  0  0  0
   28.0256  -13.4839   11.6890 C   0  0  0  0  0  0  0  0  0  0  0  0
   28.5084  -14.5700   12.6250 C   0  0  0  0  0  0  0  0  0  0  0  0
   29.9288  -14.5723   12.6246 O   0  0  0  0  0  0  0  0  0  0  0  0
   30.4035  -15.5850   13.4997 C   0  0  0  0  0  0  0  0  0  0  0  0
   31.9161  -15.5677   13.4847 C   0  0  0  0  0  0  0  0  0  0  0  0
   32.4403  -16.6455   14.4162 C   0  0  0  0  0  0  0  0  0  0  0  0
   33.9563  -16.6516   14.4214 C   0  0  0  0  0  0  0  0  0  0  0  0
   34.4633  -17.7340   15.3568 C   0  0  0  0  0  0  0  0  0  0  0  0
   35.9790  -17.7395   15.3616 C   0  0  0  0  0  0  0  0  0  0  0  0
   36.4846  -18.8199   16.2952 C   0  0  0  0  0  0  0  0  0  0  0  0
   37.9977  -18.8203   16.2956 C   0  0  0  0  0  0  0  0  0  0  0  0
   38.4983  -19.8991   17.2279 C   0  0  0  0  0  0  0  0  0  0  0  0
   40.0063  -19.8904   17.2231 C   0  0  0  0  0  0  0  0  0  0  0  0
   40.4997  -20.9645   18.1539 C   0  0  0  0  0  0  0  0  0  0  0  0
   42.0005  -20.9414   18.1340 C   0  0  0  0  0  0  0  0  0  0  0  0
   42.4757  -22.0113   19.0586 C   0  0  0  0  0  0  0  0  0  0  0  0
   43.9590  -21.9878   19.0408 C   0  0  0  0  0  0  0  0  0  0  0  0
   44.2745  -23.0126   19.9261 O   0  0  0  0  0  0  0  0  0  0  0  0
   45.6756  -22.9877   19.9069 O   0  0  0  0  0  0  0  0  0  0  0  0
   46.1202  -23.9861   20.7723 O   0  0  0  0  0  0  0  0  0  0  0  0
   47.5139  -23.9536   20.7493 O   0  0  0  0  0  0  0  0  0  0  0  0
   47.9587  -24.9510   21.6137 O   0  0  0  0  0  0  0  0  0  0  0  0
   49.3497  -24.9192   21.5911 O   0  0  0  0  0  0  0  0  0  0  0  0
   49.7869  -25.9172   22.4560 O   0  0  0  0  0  0  0  0  0  0  0  0
   51.1777  -25.8906   22.4379 O   0  0  0  0  0  0  0  0  0  0  0  0
   51.6084  -26.8906   23.3045 O   0  0  0  0  0  0  0  0  0  0  0  0
   52.9994  -26.8688   23.2906 O   0  0  0  0  0  0  0  0  0  0  0  0
   53.4267  -27.8700   24.1583 O   0  0  0  0  0  0  0  0  0  0  0  0
   54.8188  -27.8509   24.1467 O   0  0  0  0  0  0  0  0  0  0  0  0
   55.2471  -28.8534   25.0155 O   0  0  0  0  0  0  0  0  0  0  0  0
   56.6415  -28.8339   25.0035 O   0  0  0  0  0  0  0  0  0  0  0  0
   57.0801  -29.8397   25.8752 O   0  0  0  0  0  0  0  0  0  0  0  0
   58.4622  -29.7190   25.7783 C   0  0  0  0  0  0  0  0  0  0  0  0
   58.9284  -30.7832   26.7006 C   0  0  0  0  0  0  0  0  0  0  0  0
   60.4198  -30.7615   26.6898 C   0  0  0  0  0  0  0  0  0  0  0  0
   60.8909  -31.8385   27.6232 C   0  0  0  0  0  0  0  0  0  0  0  0
   62.3952  -31.8278   27.6219 C   0  0  0  0  0  0  0  0  0  0  0  0
   62.8885  -32.9046   28.5552 C   0  0  0  0  0  0  0  0  0  0  0  0
   64.3995  -32.8979   28.5575 C   0  0  0  0  0  0  0  0  0  0  0  0
   64.9039  -33.9757   29.4918 C   0  0  0  0  0  0  0  0  0  0  0  0
   66.4186  -33.9718   29.4992 C   0  0  0  0  0  0  0  0  0  0  0  0
   66.9280  -35.0508   30.4345 C   0  0  0  0  0  0  0  0  0  0  0  0
   68.4453  -35.0492   30.4439 C   0  0  0  0  0  0  0  0  0  0  0  0
   68.9595  -36.1287   31.3797 C   0  0  0  0  0  0  0  0  0  0  0  0
   70.4796  -36.1284   31.3928 C   0  0  0  0  0  0  0  0  0  0  0  0
   70.9969  -37.2092   32.3298 C   0  0  0  0  0  0  0  0  0  0  0  0
   72.5195  -37.2198   32.3497 C   0  0  0  0  0  0  0  0  0  0  0  0
   73.0330  -38.2969   33.2861 C   0  0  0  0  0  0  0  0  0  0  0  0
   18.1748  -10.7875   -6.7130 H   0  0  0  0  0  0  0  0  0  0  0  0
   18.1450   -9.0290   -6.8958 H   0  0  0  0  0  0  0  0  0  0  0  0
   15.7345   -9.1158   -7.5377 H   0  0  0  0  0  0  0  0  0  0  0  0
   15.7513  -10.8670   -7.3670 H   0  0  0  0  0  0  0  0  0  0  0  0
   17.3842   -9.2774   -9.4079 H   0  0  0  0  0  0  0  0  0  0  0  0
   15.9167  -10.2192   -9.7226 H   0  0  0  0  0  0  0  0  0  0  0  0
   17.4033  -11.0473   -9.2293 H   0  0  0  0  0  0  0  0  0  0  0  0
   14.1105   -6.4516   -0.9467 H   0  0  0  0  0  0  0  0  0  0  0  0
   15.5242   -7.2472   -0.1955 H   0  0  0  0  0  0  0  0  0  0  0  0
   14.2064   -7.5744    1.8926 H   0  0  0  0  0  0  0  0  0  0  0  0
   12.8219   -6.7934    1.1631 H   0  0  0  0  0  0  0  0  0  0  0  0
   14.1546   -4.6720    0.8690 H   0  0  0  0  0  0  0  0  0  0  0  0
   15.5513   -5.4611    1.6094 H   0  0  0  0  0  0  0  0  0  0  0  0
   12.8166   -5.0892    2.9326 H   0  0  0  0  0  0  0  0  0  0  0  0
   14.2883   -4.1399    3.2858 H   0  0  0  0  0  0  0  0  0  0  0  0
   12.7511   -5.8221    5.1351 H   0  0  0  0  0  0  0  0  0  0  0  0
   14.2215   -4.8706    5.4864 H   0  0  0  0  0  0  0  0  0  0  0  0
   13.9357   -7.9053    5.7597 H   0  0  0  0  0  0  0  0  0  0  0  0
   13.9371   -6.7542    7.0982 H   0  0  0  0  0  0  0  0  0  0  0  0
   16.2274   -5.9748    6.4123 H   0  0  0  0  0  0  0  0  0  0  0  0
   16.2255   -7.1291    5.0791 H   0  0  0  0  0  0  0  0  0  0  0  0
   15.9768   -9.0113    6.7010 H   0  0  0  0  0  0  0  0  0  0  0  0
   15.9861   -7.8572    8.0389 H   0  0  0  0  0  0  0  0  0  0  0  0
   18.2540   -7.0606    7.3340 H   0  0  0  0  0  0  0  0  0  0  0  0
   18.2446   -8.2158    5.9987 H   0  0  0  0  0  0  0  0  0  0  0  0
   18.0088  -10.0995    7.6285 H   0  0  0  0  0  0  0  0  0  0  0  0
   18.0159   -8.9446    8.9648 H   0  0  0  0  0  0  0  0  0  0  0  0
   20.2836   -8.1487    8.2639 H   0  0  0  0  0  0  0  0  0  0  0  0
   20.2766   -9.3053    6.9293 H   0  0  0  0  0  0  0  0  0  0  0  0
   20.0372  -11.1876    8.5610 H   0  0  0  0  0  0  0  0  0  0  0  0
   20.0420  -10.0317    9.8961 H   0  0  0  0  0  0  0  0  0  0  0  0
   22.3104   -9.2365    9.2006 H   0  0  0  0  0  0  0  0  0  0  0  0
   22.3057  -10.3906    7.8639 H   0  0  0  0  0  0  0  0  0  0  0  0
   22.0665  -12.2763    9.4918 H   0  0  0  0  0  0  0  0  0  0  0  0
   22.0689  -11.1228   10.8291 H   0  0  0  0  0  0  0  0  0  0  0  0
   24.3369  -10.3230   10.1352 H   0  0  0  0  0  0  0  0  0  0  0  0
   24.3346  -11.4765    8.7978 H   0  0  0  0  0  0  0  0  0  0  0  0
   24.0984  -13.3628   10.4257 H   0  0  0  0  0  0  0  0  0  0  0  0
   24.1007  -12.2096   11.7626 H   0  0  0  0  0  0  0  0  0  0  0  0
   26.3692  -11.4075   11.0676 H   0  0  0  0  0  0  0  0  0  0  0  0
   26.3669  -12.5615    9.7297 H   0  0  0  0  0  0  0  0  0  0  0  0
   26.1274  -14.4457   11.3568 H   0  0  0  0  0  0  0  0  0  0  0  0
   26.1297  -13.2932   12.6930 H   0  0  0  0  0  0  0  0  0  0  0  0
   28.4224  -12.5122   12.0083 H   0  0  0  0  0  0  0  0  0  0  0  0
   28.4200  -13.6578   10.6802 H   0  0  0  0  0  0  0  0  0  0  0  0
   28.1404  -15.5470   12.2897 H   0  0  0  0  0  0  0  0  0  0  0  0
   28.1427  -14.3811   13.6413 H   0  0  0  0  0  0  0  0  0  0  0  0
   30.0349  -16.5616   13.1641 H   0  0  0  0  0  0  0  0  0  0  0  0
   30.0350  -15.3945   14.5146 H   0  0  0  0  0  0  0  0  0  0  0  0
   32.2816  -14.5793   13.7896 H   0  0  0  0  0  0  0  0  0  0  0  0
   32.2816  -15.7261   12.4626 H   0  0  0  0  0  0  0  0  0  0  0  0
   32.0664  -17.6270   14.0982 H   0  0  0  0  0  0  0  0  0  0  0  0
   32.0664  -16.4732   15.4333 H   0  0  0  0  0  0  0  0  0  0  0  0
   34.3334  -15.6735   14.7437 H   0  0  0  0  0  0  0  0  0  0  0  0
   34.3334  -16.8287   13.4069 H   0  0  0  0  0  0  0  0  0  0  0  0
   34.0878  -18.7140   15.0369 H   0  0  0  0  0  0  0  0  0  0  0  0
   34.0878  -17.5595   16.3728 H   0  0  0  0  0  0  0  0  0  0  0  0
   36.3571  -16.7613   15.6835 H   0  0  0  0  0  0  0  0  0  0  0  0
   36.3571  -17.9162   14.3471 H   0  0  0  0  0  0  0  0  0  0  0  0
   36.1112  -19.8006   15.9755 H   0  0  0  0  0  0  0  0  0  0  0  0
   36.1112  -18.6456   17.3119 H   0  0  0  0  0  0  0  0  0  0  0  0
   38.3770  -17.8427   16.6181 H   0  0  0  0  0  0  0  0  0  0  0  0
   38.3771  -18.9977   15.2816 H   0  0  0  0  0  0  0  0  0  0  0  0
   38.1290  -20.8815   16.9083 H   0  0  0  0  0  0  0  0  0  0  0  0
   38.1267  -19.7268   18.2457 H   0  0  0  0  0  0  0  0  0  0  0  0
   40.3862  -18.9133   17.5465 H   0  0  0  0  0  0  0  0  0  0  0  0
   40.3884  -20.0700   16.2104 H   0  0  0  0  0  0  0  0  0  0  0  0
   40.1347  -21.9502   17.8388 H   0  0  0  0  0  0  0  0  0  0  0  0
   40.1347  -20.7927   19.1745 H   0  0  0  0  0  0  0  0  0  0  0  0
   42.3833  -19.9665   18.4605 H   0  0  0  0  0  0  0  0  0  0  0  0
   42.3834  -21.1233   17.1221 H   0  0  0  0  0  0  0  0  0  0  0  0
   42.1178  -23.0050   18.7568 H   0  0  0  0  0  0  0  0  0  0  0  0
   42.1156  -21.8583   20.0850 H   0  0  0  0  0  0  0  0  0  0  0  0
   44.3696  -21.0372   19.4037 H   0  0  0  0  0  0  0  0  0  0  0  0
   44.3719  -22.2075   18.0483 H   0  0  0  0  0  0  0  0  0  0  0  0
   58.7762  -28.7173   26.0976 H   0  0  0  0  0  0  0  0  0  0  0  0
   58.7834  -29.8883   24.7429 H   0  0  0  0  0  0  0  0  0  0  0  0
   58.5284  -31.7540   26.3779 H   0  0  0  0  0  0  0  0  0  0  0  0
   58.5214  -30.6066   27.7054 H   0  0  0  0  0  0  0  0  0  0  0  0
   60.7827  -29.7769   27.0099 H   0  0  0  0  0  0  0  0  0  0  0  0
   60.7899  -30.9337   25.6714 H   0  0  0  0  0  0  0  0  0  0  0  0
   60.5083  -32.8136   27.2958 H   0  0  0  0  0  0  0  0  0  0  0  0
   60.5012  -31.6577   28.6330 H   0  0  0  0  0  0  0  0  0  0  0  0
   62.7615  -30.8443   27.9417 H   0  0  0  0  0  0  0  0  0  0  0  0
   62.7686  -31.9999   26.6048 H   0  0  0  0  0  0  0  0  0  0  0  0
   62.5114  -33.8823   28.2306 H   0  0  0  0  0  0  0  0  0  0  0  0
   62.5042  -32.7268   29.5673 H   0  0  0  0  0  0  0  0  0  0  0  0
   64.7681  -31.9154   28.8777 H   0  0  0  0  0  0  0  0  0  0  0  0
   64.7752  -33.0705   27.5413 H   0  0  0  0  0  0  0  0  0  0  0  0
   64.5304  -34.9550   29.1679 H   0  0  0  0  0  0  0  0  0  0  0  0
   64.5210  -33.8006   30.5048 H   0  0  0  0  0  0  0  0  0  0  0  0
   66.7875  -32.9900   29.8208 H   0  0  0  0  0  0  0  0  0  0  0  0
   66.7970  -34.1443   28.4840 H   0  0  0  0  0  0  0  0  0  0  0  0
   66.5553  -36.0306   30.1112 H   0  0  0  0  0  0  0  0  0  0  0  0
   66.5458  -34.8763   31.4478 H   0  0  0  0  0  0  0  0  0  0  0  0
   68.8142  -34.0675   30.7654 H   0  0  0  0  0  0  0  0  0  0  0  0
   68.8237  -35.2217   29.4288 H   0  0  0  0  0  0  0  0  0  0  0  0
   68.5876  -37.1086   31.0558 H   0  0  0  0  0  0  0  0  0  0  0  0
   68.5758  -35.9553   32.3927 H   0  0  0  0  0  0  0  0  0  0  0  0
   70.8467  -35.1462   31.7149 H   0  0  0  0  0  0  0  0  0  0  0  0
   70.8585  -36.2997   30.3778 H   0  0  0  0  0  0  0  0  0  0  0  0
   70.6212  -38.1877   32.0060 H   0  0  0  0  0  0  0  0  0  0  0  0
   70.6117  -37.0340   33.3419 H   0  0  0  0  0  0  0  0  0  0  0  0
   72.8951  -36.2421   32.6736 H   0  0  0  0  0  0  0  0  0  0  0  0
   72.9045  -37.3980   31.3389 H   0  0  0  0  0  0  0  0  0  0  0  0
   72.6788  -38.1240   34.3074 H   0  0  0  0  0  0  0  0  0  0  0  0
   74.1262  -38.3002   33.2967 H   0  0  0  0  0  0  0  0  0  0  0  0
   72.6883  -39.2854   32.9663 H   0  0  0  0  0  0  0  0  0  0  0  0
  1  2  2  0  0  0  0
  2  3  1  0  0  0  0
  2  6  1  0  0  0  0
  3  4  1  0  0  0  0
  3 79  1  0  0  0  0
  3 80  1  0  0  0  0
  4  5  1  0  0  0  0
  4 81  1  0  0  0  0
  4 82  1  0  0  0  0
  5 83  1  0  0  0  0
  5 84  1  0  0  0  0
  5 85  1  0  0  0  0
  6  7  1  0  0  0  0
  7  8  1  0  0  0  0
  8  9  1  0  0  0  0
  9 10  1  0  0  0  0
 10 11  1  0  0  0  0
 11 12  1  0  0  0  0
 12 13  1  0  0  0  0
 12 86  1  0  0  0  0
 12 87  1  0  0  0  0
 13 14  1  0  0  0  0
 13 88  1  0  0  0  0
 13 89  1  0  0  0  0
 14 15  1  0  0  0  0
 14 90  1  0  0  0  0
 14 91  1  0  0  0  0
 15 16  1  0  0  0  0
 15 92  1  0  0  0  0
 15 93  1  0  0  0  0
 16 17  1  0  0  0  0
 17 18  1  0  0  0  0
 17 94  1  0  0  0  0
 17 95  1  0  0  0  0
 18 19  1  0  0  0  0
 18 96  1  0  0  0  0
 18 97  1  0  0  0  0
 19 20  1  0  0  0  0
 19 98  1  0  0  0  0
 19 99  1  0  0  0  0
 20 21  1  0  0  0  0
 20100  1  0  0  0  0
 20101  1  0  0  0  0
 21 22  1  0  0  0  0
 21102  1  0  0  0  0
 21103  1  0  0  0  0
 22 23  1  0  0  0  0
 22104  1  0  0  0  0
 22105  1  0  0  0  0
 23 24  1  0  0  0  0
 23106  1  0  0  0  0
 23107  1  0  0  0  0
 24 25  1  0  0  0  0
 24108  1  0  0  0  0
 24109  1  0  0  0  0
 25 26  1  0  0  0  0
 25110  1  0  0  0  0
 25111  1  0  0  0  0
 26 27  1  0  0  0  0
 26112  1  0  0  0  0
 26113  1  0  0  0  0
 27 28  1  0  0  0  0
 27114  1  0  0  0  0
 27115  1  0  0  0  0
 28 29  1  0  0  0  0
 28116  1  0  0  0  0
 28117  1  0  0  0  0
 29 30  1  0  0  0  0
 29118  1  0  0  0  0
 29119  1  0  0  0  0
 30 31  1  0  0  0  0
 30120  1  0  0  0  0
 30121  1  0  0  0  0
 31 32  1  0  0  0  0
 31122  1  0  0  0  0
 31123  1  0  0  0  0
 32 33  1  0  0  0  0
 32124  1  0  0  0  0
 32125  1  0  0  0  0
 33 34  1  0  0  0  0
 34 35  1  0  0  0  0
 34126  1  0  0  0  0
 34127  1  0  0  0  0
 35 36  1  0  0  0  0
 35128  1  0  0  0  0
 35129  1  0  0  0  0
 36 37  1  0  0  0  0
 36130  1  0  0  0  0
 36131  1  0  0  0  0
 37 38  1  0  0  0  0
 37132  1  0  0  0  0
 37133  1  0  0  0  0
 38 39  1  0  0  0  0
 38134  1  0  0  0  0
 38135  1  0  0  0  0
 39 40  1  0  0  0  0
 39136  1  0  0  0  0
 39137  1  0  0  0  0
 40 41  1  0  0  0  0
 40138  1  0  0  0  0
 40139  1  0  0  0  0
 41 42  1  0  0  0  0
 41140  1  0  0  0  0
 41141  1  0  0  0  0
 42 43  1  0  0  0  0
 42142  1  0  0  0  0
 42143  1  0  0  0  0
 43 44  1  0  0  0  0
 43144  1  0  0  0  0
 43145  1  0  0  0  0
 44 45  1  0  0  0  0
 44146  1  0  0  0  0
 44147  1  0  0  0  0
 45 46  1  0  0  0  0
 45148  1  0  0  0  0
 45149  1  0  0  0  0
 46 47  1  0  0  0  0
 46150  1  0  0  0  0
 46151  1  0  0  0  0
 47 48  1  0  0  0  0
 47152  1  0  0  0  0
 47153  1  0  0  0  0
 48 49  1  0  0  0  0
 49 50  1  0  0  0  0
 50 51  1  0  0  0  0
 51 52  1  0  0  0  0
 52 53  1  0  0  0  0
 53 54  1  0  0  0  0
 54 55  1  0  0  0  0
 55 56  1  0  0  0  0
 56 57  1  0  0  0  0
 57 58  1  0  0  0  0
 58 59  1  0  0  0  0
 59 60  1  0  0  0  0
 60 61  1  0  0  0  0
 61 62  1  0  0  0  0
 62 63  1  0  0  0  0
 63 64  1  0  0  0  0
 63154  1  0  0  0  0
 63155  1  0  0  0  0
 64 65  1  0  0  0  0
 64156  1  0  0  0  0
 64157  1  0  0  0  0
 65 66  1  0  0  0  0
 65158  1  0  0  0  0
 65159  1  0  0  0  0
 66 67  1  0  0  0  0
 66160  1  0  0  0  0
 66161  1  0  0  0  0
 67 68  1  0  0  0  0
 67162  1  0  0  0  0
 67163  1  0  0  0  0
 68 69  1  0  0  0  0
 68164  1  0  0  0  0
 68165  1  0  0  0  0
 69 70  1  0  0  0  0
 69166  1  0  0  0  0
 69167  1  0  0  0  0
 70 71  1  0  0  0  0
 70168  1  0  0  0  0
 70169  1  0  0  0  0
 71 72  1  0  0  0  0
 71170  1  0  0  0  0
 71171  1  0  0  0  0
 72 73  1  0  0  0  0
 72172  1  0  0  0  0
 72173  1  0  0  0  0
 73 74  1  0  0  0  0
 73174  1  0  0  0  0
 73175  1  0  0  0  0
 74 75  1  0  0  0  0
 74176  1  0  0  0  0
 74177  1  0  0  0  0
 75 76  1  0  0  0  0
 75178  1  0  0  0  0
 75179  1  0  0  0  0
 76 77  1  0  0  0  0
 76180  1  0  0  0  0
 76181  1  0  0  0  0
 77 78  1  0  0  0  0
 77182  1  0  0  0  0
 77183  1  0  0  0  0
 78184  1  0  0  0  0
 78185  1  0  0  0  0
 78186  1  0  0  0  0
M  END
$$$$
