
 OpenBabel04232216463D

 49 50  0  0  1  0  0  0  0  0999 V2000
   12.7276    1.4477   -2.4892 C   0  0  0  0  0  0  0  0  0  0  0  0
   12.1965    1.3500   -1.0833 C   0  0  0  0  0  0  0  0  0  0  0  0
   11.9808   -0.0292   -0.5777 C   0  0  0  0  0  0  0  0  0  0  0  0
   10.6715   -0.2491   -0.3183 C   0  0  0  0  0  0  0  0  0  0  0  0
   10.2849   -0.5866    1.1344 C   0  0  3  0  0  0  0  0  0  0  0  0
   11.5051   -0.9627    2.0373 C   0  0  0  0  0  0  0  0  0  0  0  0
   11.2556   -1.2676    3.5057 C   0  0  0  0  0  0  0  0  0  0  0  0
   10.5362   -2.5904    3.7102 C   0  0  0  0  0  0  0  0  0  0  0  0
   10.4441   -2.9110    5.2010 C   0  0  0  0  0  0  0  0  0  0  0  0
    9.6942   -4.2186    5.4335 C   0  0  0  0  0  0  0  0  0  0  0  0
    9.5670   -4.5170    6.9160 C   0  0  0  0  0  0  0  0  0  0  0  0
    9.7356    0.1531   -1.2539 N   0  0  0  0  0  0  0  0  0  0  0  0
    8.4716    0.3775   -1.0663 C   0  0  0  0  0  0  0  0  0  0  0  0
    7.7180    0.9190   -2.2644 C   0  0  0  0  0  0  0  0  0  0  0  0
    7.5984    0.2284    0.1429 C   0  0  0  0  0  0  0  0  0  0  0  0
    8.0301    0.4290    1.3970 C   0  0  0  0  0  0  0  0  0  0  0  0
    7.0776    0.4854    2.5576 C   0  0  0  0  0  0  0  0  0  0  0  0
    9.4572    0.6174    1.6126 C   0  0  0  0  0  0  0  0  0  0  0  0
    9.9245    1.8639    1.8351 C   0  0  0  0  0  0  0  0  0  0  0  0
   11.3710    2.1568    1.8951 C   0  0  0  0  0  0  0  0  0  0  0  0
   12.3034    2.2980    1.0101 N   0  0  0  0  0  0  0  0  0  0  0  0
   12.0671    2.4331   -0.3640 N   0  0  0  0  0  0  0  0  0  0  0  0
   13.7355    1.0099   -2.4907 H   0  0  0  0  0  0  0  0  0  0  0  0
   12.8146    2.4884   -2.8075 H   0  0  0  0  0  0  0  0  0  0  0  0
   12.1069    0.8862   -3.1889 H   0  0  0  0  0  0  0  0  0  0  0  0
   12.8111   -0.3285    0.0473 H   0  0  0  0  0  0  0  0  0  0  0  0
    9.6556   -1.4867    1.0983 H   0  0  0  0  0  0  0  0  0  0  0  0
   12.2524   -0.1644    2.0402 H   0  0  0  0  0  0  0  0  0  0  0  0
   12.0097   -1.8317    1.5907 H   0  0  0  0  0  0  0  0  0  0  0  0
   10.7237   -0.4438    3.9925 H   0  0  0  0  0  0  0  0  0  0  0  0
   12.2380   -1.3319    3.9948 H   0  0  0  0  0  0  0  0  0  0  0  0
   11.0704   -3.3913    3.1956 H   0  0  0  0  0  0  0  0  0  0  0  0
    9.5271   -2.5342    3.2781 H   0  0  0  0  0  0  0  0  0  0  0  0
    9.9377   -2.0919    5.7254 H   0  0  0  0  0  0  0  0  0  0  0  0
   11.4539   -2.9870    5.6230 H   0  0  0  0  0  0  0  0  0  0  0  0
   10.2219   -5.0417    4.9384 H   0  0  0  0  0  0  0  0  0  0  0  0
    8.6947   -4.1566    4.9877 H   0  0  0  0  0  0  0  0  0  0  0  0
   10.5524   -4.5950    7.3863 H   0  0  0  0  0  0  0  0  0  0  0  0
    9.0395   -5.4633    7.0668 H   0  0  0  0  0  0  0  0  0  0  0  0
    9.0052   -3.7274    7.4252 H   0  0  0  0  0  0  0  0  0  0  0  0
    8.4035    1.2044   -3.0686 H   0  0  0  0  0  0  0  0  0  0  0  0
    7.1554    1.8161   -1.9678 H   0  0  0  0  0  0  0  0  0  0  0  0
    7.0150    0.1696   -2.6376 H   0  0  0  0  0  0  0  0  0  0  0  0
    6.5383    0.0918   -0.0605 H   0  0  0  0  0  0  0  0  0  0  0  0
    6.0405    0.3406    2.2367 H   0  0  0  0  0  0  0  0  0  0  0  0
    7.1244    1.4643    3.0489 H   0  0  0  0  0  0  0  0  0  0  0  0
    7.3042   -0.2912    3.2981 H   0  0  0  0  0  0  0  0  0  0  0  0
    9.2678    2.7017    2.0527 H   0  0  0  0  0  0  0  0  0  0  0  0
   11.7258    2.2205    2.9375 H   0  0  0  0  0  0  0  0  0  0  0  0
  1  2  1  0  0  0  0
  1 23  1  0  0  0  0
  1 24  1  0  0  0  0
  1 25  1  0  0  0  0
  2  3  1  0  0  0  0
  2 22  2  3  0  0  0
  3  4  2  3  0  0  0
  3 26  1  0  0  0  0
  4  5  1  0  0  0  0
  4 12  1  0  0  0  0
  5  6  1  0  0  0  0
  5 18  1  0  0  0  0
  5 27  1  0  0  0  0
  6  7  1  0  0  0  0
  6 28  1  0  0  0  0
  6 29  1  0  0  0  0
  7  8  1  0  0  0  0
  7 30  1  0  0  0  0
  7 31  1  0  0  0  0
  8  9  1  0  0  0  0
  8 32  1  0  0  0  0
  8 33  1  0  0  0  0
  9 10  1  0  0  0  0
  9 34  1  0  0  0  0
  9 35  1  0  0  0  0
 10 11  1  0  0  0  0
 10 36  1  0  0  0  0
 10 37  1  0  0  0  0
 11 38  1  0  0  0  0
 11 39  1  0  0  0  0
 11 40  1  0  0  0  0
 12 13  2  0  0  0  0
 13 14  1  0  0  0  0
 13 15  1  0  0  0  0
 14 41  1  0  0  0  0
 14 42  1  0  0  0  0
 14 43  1  0  0  0  0
 15 16  2  0  0  0  0
 15 44  1  0  0  0  0
 16 17  1  0  0  0  0
 16 18  1  0  0  0  0
 17 45  1  0  0  0  0
 17 46  1  0  0  0  0
 17 47  1  0  0  0  0
 18 19  2  3  0  0  0
 19 20  1  0  0  0  0
 19 48  1  0  0  0  0
 20 21  2  3  0  0  0
 20 49  1  0  0  0  0
 21 22  1  0  0  0  0
M  END
$$$$
