
 OpenBabel04232216583D

 86 85  0  0  0  0  0  0  0  0999 V2000
   10.3735   10.3760    8.6453 N   0  0  0  0  0  0  0  0  0  0  0  0
   11.7835   10.2301    8.6200 N   0  0  0  0  0  0  0  0  0  0  0  0
   12.1643    9.2333    7.6706 N   0  0  0  0  0  0  0  0  0  0  0  0
   11.7415    9.5732    6.3392 N   0  0  0  0  0  0  0  0  0  0  0  0
   12.2888   10.8410    5.9542 N   0  0  0  0  0  0  0  0  0  0  0  0
   13.7247   10.7436    5.9334 N   0  0  0  0  0  0  0  0  0  0  0  0
   14.1380    9.7166    5.0115 N   0  0  0  0  0  0  0  0  0  0  0  0
   13.6728   10.0272    3.6797 N   0  0  0  0  0  0  0  0  0  0  0  0
   14.2014   11.2874    3.2775 N   0  0  0  0  0  0  0  0  0  0  0  0
   15.6268   11.2194    3.2908 N   0  0  0  0  0  0  0  0  0  0  0  0
   16.0555   10.1710    2.4120 N   0  0  0  0  0  0  0  0  0  0  0  0
   15.6051   10.4723    1.0802 N   0  0  0  0  0  0  0  0  0  0  0  0
   16.1121   11.7386    0.6555 N   0  0  0  0  0  0  0  0  0  0  0  0
   17.5490   11.7113    0.6108 N   0  0  0  0  0  0  0  0  0  0  0  0
   17.9898   10.6649   -0.2431 N   0  0  0  0  0  0  0  0  0  0  0  0
   17.5223   10.9250   -1.5683 N   0  0  0  0  0  0  0  0  0  0  0  0
   18.0004   12.1984   -1.9862 N   0  0  0  0  0  0  0  0  0  0  0  0
   19.4317   12.1833   -1.9660 N   0  0  0  0  0  0  0  0  0  0  0  0
   19.9227   11.1604   -2.8589 N   0  0  0  0  0  0  0  0  0  0  0  0
   19.4267   11.3957   -4.1700 N   0  0  0  0  0  0  0  0  0  0  0  0
   19.9023   12.6613   -4.6239 N   0  0  0  0  0  0  0  0  0  0  0  0
   21.3436   12.6743   -4.6370 N   0  0  0  0  0  0  0  0  0  0  0  0
   21.8297   11.6327   -5.4816 N   0  0  0  0  0  0  0  0  0  0  0  0
   21.3471   11.8459   -6.8086 N   0  0  0  0  0  0  0  0  0  0  0  0
   21.8077   13.1184   -7.2961 N   0  0  0  0  0  0  0  0  0  0  0  0
   23.2351   13.1609   -7.2791 N   0  0  0  0  0  0  0  0  0  0  0  0
   23.7479   12.1198   -8.1054 N   0  0  0  0  0  0  0  0  0  0  0  0
   23.2574   12.3052   -9.4424 N   0  0  0  0  0  0  0  0  0  0  0  0
   23.6950   13.5858   -9.9352 N   0  0  0  0  0  0  0  0  0  0  0  0
   25.1278   13.6507   -9.9222 N   0  0  0  0  0  0  0  0  0  0  0  0
   25.6664   12.6169  -10.7474 N   0  0  0  0  0  0  0  0  0  0  0  0
   25.1798   12.7700  -12.0797 N   0  0  0  0  0  0  0  0  0  0  0  0
   25.5821   14.0602  -12.5649 N   0  0  0  0  0  0  0  0  0  0  0  0
   27.0231   14.1373  -12.5464 N   0  0  0  0  0  0  0  0  0  0  0  0
   27.5774   13.0586  -13.3745 N   0  0  0  0  0  0  0  0  0  0  0  0
   27.0803   13.2349  -14.7465 C   0  0  0  0  0  0  0  0  0  0  0  0
   27.4884   14.5308  -15.2804 N   0  0  0  0  0  0  0  0  0  0  0  0
   28.9457   14.6169  -15.2498 C   0  0  0  0  0  0  0  0  0  0  0  0
   29.3952   15.9659  -15.7914 C   0  0  0  0  0  0  0  0  0  0  0  0
   30.9099   16.0537  -15.7820 C   0  0  0  0  0  0  0  0  0  0  0  0
   10.0939   11.0803    9.3216 H   0  0  0  0  0  0  0  0  0  0  0  0
    9.9505    9.4845    8.9016 H   0  0  0  0  0  0  0  0  0  0  0  0
   12.1576   10.0192    9.5497 H   0  0  0  0  0  0  0  0  0  0  0  0
   11.8234    8.2978    7.9301 H   0  0  0  0  0  0  0  0  0  0  0  0
   10.7215    9.6377    6.2817 H   0  0  0  0  0  0  0  0  0  0  0  0
   11.9881   11.5645    6.6182 H   0  0  0  0  0  0  0  0  0  0  0  0
   14.0460   10.4936    6.8775 H   0  0  0  0  0  0  0  0  0  0  0  0
   13.7406    8.8150    5.2999 H   0  0  0  0  0  0  0  0  0  0  0  0
   12.6415   10.0761    3.7044 H   0  0  0  0  0  0  0  0  0  0  0  0
   13.9177   12.0033    3.9481 H   0  0  0  0  0  0  0  0  0  0  0  0
   15.9286   10.9981    4.2425 H   0  0  0  0  0  0  0  0  0  0  0  0
   15.6225    9.2962    2.7272 H   0  0  0  0  0  0  0  0  0  0  0  0
   14.5929   10.5659    1.0915 H   0  0  0  0  0  0  0  0  0  0  0  0
   15.7814   12.4650    1.3018 H   0  0  0  0  0  0  0  0  0  0  0  0
   17.8885   11.4856    1.5418 H   0  0  0  0  0  0  0  0  0  0  0  0
   17.5962    9.7817    0.0917 H   0  0  0  0  0  0  0  0  0  0  0  0
   16.5062   10.9917   -1.5185 H   0  0  0  0  0  0  0  0  0  0  0  0
   17.6579   12.8906   -1.3072 H   0  0  0  0  0  0  0  0  0  0  0  0
   19.7193   11.9656   -1.0030 H   0  0  0  0  0  0  0  0  0  0  0  0
   19.5232   10.2729   -2.5643 H   0  0  0  0  0  0  0  0  0  0  0  0
   18.3997   11.3961   -4.1132 H   0  0  0  0  0  0  0  0  0  0  0  0
   19.5743   13.3753   -3.9679 H   0  0  0  0  0  0  0  0  0  0  0  0
   21.6775   12.4573   -3.7021 H   0  0  0  0  0  0  0  0  0  0  0  0
   21.4563   10.7505   -5.1068 H   0  0  0  0  0  0  0  0  0  0  0  0
   20.3218   11.8577   -6.7688 H   0  0  0  0  0  0  0  0  0  0  0  0
   21.4955   13.8374   -6.6498 H   0  0  0  0  0  0  0  0  0  0  0  0
   23.5243   12.9788   -6.3193 H   0  0  0  0  0  0  0  0  0  0  0  0
   23.3765   11.2434   -7.7212 H   0  0  0  0  0  0  0  0  0  0  0  0
   22.2291   12.3114   -9.3754 H   0  0  0  0  0  0  0  0  0  0  0  0
   23.3429   14.2950   -9.2869 H   0  0  0  0  0  0  0  0  0  0  0  0
   25.4335   13.4688   -8.9666 H   0  0  0  0  0  0  0  0  0  0  0  0
   25.2996   11.7437  -10.3832 H   0  0  0  0  0  0  0  0  0  0  0  0
   24.1581   12.7622  -12.0018 H   0  0  0  0  0  0  0  0  0  0  0  0
   25.1704   14.7356  -11.9025 H   0  0  0  0  0  0  0  0  0  0  0  0
   27.2993   13.9742  -11.5652 H   0  0  0  0  0  0  0  0  0  0  0  0
   27.1938   12.1870  -12.9987 H   0  0  0  0  0  0  0  0  0  0  0  0
   25.9854   13.1598  -14.7891 H   0  0  0  0  0  0  0  0  0  0  0  0
   27.4559   12.4251  -15.3725 H   0  0  0  0  0  0  0  0  0  0  0  0
   27.0949   15.2502  -14.6644 H   0  0  0  0  0  0  0  0  0  0  0  0
   29.3773   13.8180  -15.8667 H   0  0  0  0  0  0  0  0  0  0  0  0
   29.3395   14.5062  -14.2332 H   0  0  0  0  0  0  0  0  0  0  0  0
   28.9772   16.7758  -15.1806 H   0  0  0  0  0  0  0  0  0  0  0  0
   29.0322   16.0928  -16.8170 H   0  0  0  0  0  0  0  0  0  0  0  0
   31.2917   15.9422  -14.7626 H   0  0  0  0  0  0  0  0  0  0  0  0
   31.2336   17.0213  -16.1727 H   0  0  0  0  0  0  0  0  0  0  0  0
   31.3427   15.2634  -16.4041 H   0  0  0  0  0  0  0  0  0  0  0  0
  1  2  1  0  0  0  0
  1 41  1  0  0  0  0
  1 42  1  0  0  0  0
  2  3  1  0  0  0  0
  2 43  1  0  0  0  0
  3  4  1  0  0  0  0
  3 44  1  0  0  0  0
  4  5  1  0  0  0  0
  4 45  1  0  0  0  0
  5  6  1  0  0  0  0
  5 46  1  0  0  0  0
  6  7  1  0  0  0  0
  6 47  1  0  0  0  0
  7  8  1  0  0  0  0
  7 48  1  0  0  0  0
  8  9  1  0  0  0  0
  8 49  1  0  0  0  0
  9 10  1  0  0  0  0
  9 50  1  0  0  0  0
 10 11  1  0  0  0  0
 10 51  1  0  0  0  0
 11 12  1  0  0  0  0
 11 52  1  0  0  0  0
 12 13  1  0  0  0  0
 12 53  1  0  0  0  0
 13 14  1  0  0  0  0
 13 54  1  0  0  0  0
 14 15  1  0  0  0  0
 14 55  1  0  0  0  0
 15 16  1  0  0  0  0
 15 56  1  0  0  0  0
 16 17  1  0  0  0  0
 16 57  1  0  0  0  0
 17 18  1  0  0  0  0
 17 58  1  0  0  0  0
 18 19  1  0  0  0  0
 18 59  1  0  0  0  0
 19 20  1  0  0  0  0
 19 60  1  0  0  0  0
 20 21  1  0  0  0  0
 20 61  1  0  0  0  0
 21 22  1  0  0  0  0
 21 62  1  0  0  0  0
 22 23  1  0  0  0  0
 22 63  1  0  0  0  0
 23 24  1  0  0  0  0
 23 64  1  0  0  0  0
 24 25  1  0  0  0  0
 24 65  1  0  0  0  0
 25 26  1  0  0  0  0
 25 66  1  0  0  0  0
 26 27  1  0  0  0  0
 26 67  1  0  0  0  0
 27 28  1  0  0  0  0
 27 68  1  0  0  0  0
 28 29  1  0  0  0  0
 28 69  1  0  0  0  0
 29 30  1  0  0  0  0
 29 70  1  0  0  0  0
 30 31  1  0  0  0  0
 30 71  1  0  0  0  0
 31 32  1  0  0  0  0
 31 72  1  0  0  0  0
 32 33  1  0  0  0  0
 32 73  1  0  0  0  0
 33 34  1  0  0  0  0
 33 74  1  0  0  0  0
 34 35  1  0  0  0  0
 34 75  1  0  0  0  0
 35 36  1  0  0  0  0
 35 76  1  0  0  0  0
 36 37  1  0  0  0  0
 36 77  1  0  0  0  0
 36 78  1  0  0  0  0
 37 38  1  0  0  0  0
 37 79  1  0  0  0  0
 38 39  1  0  0  0  0
 38 80  1  0  0  0  0
 38 81  1  0  0  0  0
 39 40  1  0  0  0  0
 39 82  1  0  0  0  0
 39 83  1  0  0  0  0
 40 84  1  0  0  0  0
 40 85  1  0  0  0  0
 40 86  1  0  0  0  0
M  END
$$$$
