
 OpenBabel04232216583D

240239  0  0  0  0  0  0  0  0999 V2000
    0.9252   -0.0433    0.0471 N   0  0  0  0  0  0  0  0  0  0  0  0
    2.3840   -0.0459    0.0534 C   0  0  0  0  0  0  0  0  0  0  0  0
    2.8982    0.9083    1.1188 C   0  0  0  0  0  0  0  0  0  0  0  0
    4.4213    0.9096    1.1238 C   0  0  0  0  0  0  0  0  0  0  0  0
    4.8935    1.8317    2.1562 N   0  0  0  0  0  0  0  0  0  0  0  0
    6.3138    1.8257    2.1460 N   0  0  0  0  0  0  0  0  0  0  0  0
    6.8038    2.7028    3.1424 N   0  0  0  0  0  0  0  0  0  0  0  0
    8.2277    2.6984    3.1419 N   0  0  0  0  0  0  0  0  0  0  0  0
    8.6893    3.6223    4.1725 C   0  0  0  0  0  0  0  0  0  0  0  0
   10.2135    3.6297    4.1806 C   0  0  0  0  0  0  0  0  0  0  0  0
   10.7309    4.5835    5.2478 C   0  0  0  0  0  0  0  0  0  0  0  0
   12.2502    4.5881    5.2562 C   0  0  0  0  0  0  0  0  0  0  0  0
   12.7627    5.5423    6.3201 C   0  0  0  0  0  0  0  0  0  0  0  0
   14.2803    5.5465    6.3247 C   0  0  0  0  0  0  0  0  0  0  0  0
   14.7912    6.5003    7.3880 C   0  0  0  0  0  0  0  0  0  0  0  0
   16.3080    6.5053    7.3906 C   0  0  0  0  0  0  0  0  0  0  0  0
   16.8183    7.4575    8.4551 C   0  0  0  0  0  0  0  0  0  0  0  0
   18.3349    7.4609    8.4590 C   0  0  0  0  0  0  0  0  0  0  0  0
   18.8451    8.4144    9.5221 C   0  0  0  0  0  0  0  0  0  0  0  0
   20.3617    8.4161    9.5270 C   0  0  0  0  0  0  0  0  0  0  0  0
   20.8717    9.3684   10.5915 C   0  0  0  0  0  0  0  0  0  0  0  0
   22.3884    9.3716   10.5951 C   0  0  0  0  0  0  0  0  0  0  0  0
   22.8985   10.3253   11.6584 C   0  0  0  0  0  0  0  0  0  0  0  0
   24.4151   10.3299   11.6607 C   0  0  0  0  0  0  0  0  0  0  0  0
   24.9251   11.2837   12.7238 C   0  0  0  0  0  0  0  0  0  0  0  0
   26.4418   11.2870   12.7273 C   0  0  0  0  0  0  0  0  0  0  0  0
   26.9518   12.2406   13.7906 C   0  0  0  0  0  0  0  0  0  0  0  0
   28.4684   12.2438   13.7941 C   0  0  0  0  0  0  0  0  0  0  0  0
   28.9785   13.1975   14.8574 C   0  0  0  0  0  0  0  0  0  0  0  0
   30.4951   13.2007   14.8609 C   0  0  0  0  0  0  0  0  0  0  0  0
   31.0051   14.1544   15.9241 C   0  0  0  0  0  0  0  0  0  0  0  0
   32.5217   14.1575   15.9278 C   0  0  0  0  0  0  0  0  0  0  0  0
   33.0318   15.1112   16.9910 C   0  0  0  0  0  0  0  0  0  0  0  0
   34.5484   15.1130   16.9958 C   0  0  0  0  0  0  0  0  0  0  0  0
   35.0585   16.0668   18.0590 C   0  0  0  0  0  0  0  0  0  0  0  0
   36.5751   16.0698   18.0627 C   0  0  0  0  0  0  0  0  0  0  0  0
   37.0851   17.0249   19.1246 C   0  0  0  0  0  0  0  0  0  0  0  0
   38.6017   17.0268   19.1294 C   0  0  0  0  0  0  0  0  0  0  0  0
   39.1118   17.9805   20.1926 C   0  0  0  0  0  0  0  0  0  0  0  0
   40.6284   17.9836   20.1962 C   0  0  0  0  0  0  0  0  0  0  0  0
   41.1384   18.9359   21.2608 C   0  0  0  0  0  0  0  0  0  0  0  0
   42.6551   18.9391   21.2644 C   0  0  0  0  0  0  0  0  0  0  0  0
   43.1651   19.8912   22.3289 C   0  0  0  0  0  0  0  0  0  0  0  0
   44.6817   19.8944   22.3325 C   0  0  0  0  0  0  0  0  0  0  0  0
   45.1918   20.8466   23.3971 C   0  0  0  0  0  0  0  0  0  0  0  0
   46.7084   20.8498   23.4007 C   0  0  0  0  0  0  0  0  0  0  0  0
   47.2184   21.8019   24.4653 C   0  0  0  0  0  0  0  0  0  0  0  0
   48.7350   21.8052   24.4688 C   0  0  0  0  0  0  0  0  0  0  0  0
   49.2451   22.7574   25.5334 C   0  0  0  0  0  0  0  0  0  0  0  0
   50.7617   22.7619   25.5358 C   0  0  0  0  0  0  0  0  0  0  0  0
   51.2717   23.7142   26.6003 C   0  0  0  0  0  0  0  0  0  0  0  0
   52.7884   23.7175   26.6037 C   0  0  0  0  0  0  0  0  0  0  0  0
   53.2984   24.6712   27.6669 C   0  0  0  0  0  0  0  0  0  0  0  0
   54.8150   24.6758   27.6692 C   0  0  0  0  0  0  0  0  0  0  0  0
   55.3251   25.6309   28.7312 C   0  0  0  0  0  0  0  0  0  0  0  0
   56.8417   25.6343   28.7346 C   0  0  0  0  0  0  0  0  0  0  0  0
   57.3517   26.5880   29.7979 C   0  0  0  0  0  0  0  0  0  0  0  0
   58.8683   26.5926   29.8001 C   0  0  0  0  0  0  0  0  0  0  0  0
   59.3784   27.5463   30.8633 C   0  0  0  0  0  0  0  0  0  0  0  0
   60.8950   27.5525   30.8643 C   0  0  0  0  0  0  0  0  0  0  0  0
   61.4050   28.5062   31.9275 C   0  0  0  0  0  0  0  0  0  0  0  0
   62.9216   28.5125   31.9283 C   0  0  0  0  0  0  0  0  0  0  0  0
   63.4317   29.4662   32.9915 C   0  0  0  0  0  0  0  0  0  0  0  0
   64.9483   29.4724   32.9924 C   0  0  0  0  0  0  0  0  0  0  0  0
   65.4583   30.4261   34.0556 C   0  0  0  0  0  0  0  0  0  0  0  0
   66.9749   30.4323   34.0565 C   0  0  0  0  0  0  0  0  0  0  0  0
   67.4850   31.3861   35.1196 C   0  0  0  0  0  0  0  0  0  0  0  0
   69.0016   31.3922   35.1206 C   0  0  0  0  0  0  0  0  0  0  0  0
   69.5116   32.3459   36.1838 C   0  0  0  0  0  0  0  0  0  0  0  0
   71.0282   32.3507   36.1860 C   0  0  0  0  0  0  0  0  0  0  0  0
   71.5383   33.3043   37.2492 C   0  0  0  0  0  0  0  0  0  0  0  0
   73.0550   33.3090   37.2514 C   0  0  0  0  0  0  0  0  0  0  0  0
   73.5651   34.2627   38.3146 C   0  0  0  0  0  0  0  0  0  0  0  0
   75.0819   34.2679   38.3174 C   0  0  0  0  0  0  0  0  0  0  0  0
   75.5922   35.2213   39.3804 C   0  0  0  0  0  0  0  0  0  0  0  0
   77.1091   35.2249   39.3843 C   0  0  0  0  0  0  0  0  0  0  0  0
   77.6210   36.1786   40.4476 C   0  0  0  0  0  0  0  0  0  0  0  0
   79.1396   36.1824   40.4519 C   0  0  0  0  0  0  0  0  0  0  0  0
   79.6531   37.1344   41.5160 C   0  0  0  0  0  0  0  0  0  0  0  0
   81.1733   37.1437   41.5294 C   0  0  0  0  0  0  0  0  0  0  0  0
   81.6834   38.0947   42.5929 C   0  0  0  0  0  0  0  0  0  0  0  0
    0.5878   -0.6570   -0.6928 H   0  0  0  0  0  0  0  0  0  0  0  0
    0.5862    0.8916   -0.1788 H   0  0  0  0  0  0  0  0  0  0  0  0
    2.7522    0.2476   -0.9358 H   0  0  0  0  0  0  0  0  0  0  0  0
    2.7362   -1.0640    0.2517 H   0  0  0  0  0  0  0  0  0  0  0  0
    2.5194    0.6043    2.1032 H   0  0  0  0  0  0  0  0  0  0  0  0
    2.5270    1.9228    0.9238 H   0  0  0  0  0  0  0  0  0  0  0  0
    4.7901    1.2201    0.1382 H   0  0  0  0  0  0  0  0  0  0  0  0
    4.7916   -0.1053    1.3204 H   0  0  0  0  0  0  0  0  0  0  0  0
    4.5477    1.5053    3.0574 H   0  0  0  0  0  0  0  0  0  0  0  0
    6.6326    2.1495    1.2350 H   0  0  0  0  0  0  0  0  0  0  0  0
    6.4571    2.3812    4.0510 H   0  0  0  0  0  0  0  0  0  0  0  0
    8.5515    3.0173    2.2280 H   0  0  0  0  0  0  0  0  0  0  0  0
    8.3293    3.3066    5.1603 H   0  0  0  0  0  0  0  0  0  0  0  0
    8.3199    4.6382    3.9848 H   0  0  0  0  0  0  0  0  0  0  0  0
   10.5970    3.9368    3.1993 H   0  0  0  0  0  0  0  0  0  0  0  0
   10.5948    2.6194    4.3774 H   0  0  0  0  0  0  0  0  0  0  0  0
   10.3566    4.2815    6.2338 H   0  0  0  0  0  0  0  0  0  0  0  0
   10.3590    5.5973    5.0553 H   0  0  0  0  0  0  0  0  0  0  0  0
   12.6287    4.8912    4.2722 H   0  0  0  0  0  0  0  0  0  0  0  0
   12.6264    3.5765    5.4525 H   0  0  0  0  0  0  0  0  0  0  0  0
   12.3883    5.2398    7.3057 H   0  0  0  0  0  0  0  0  0  0  0  0
   12.3884    6.5550    6.1260 H   0  0  0  0  0  0  0  0  0  0  0  0
   14.6563    5.8499    5.3399 H   0  0  0  0  0  0  0  0  0  0  0  0
   14.6564    4.5347    6.5197 H   0  0  0  0  0  0  0  0  0  0  0  0
   14.4172    6.1965    8.3735 H   0  0  0  0  0  0  0  0  0  0  0  0
   14.4150    7.5124    7.1944 H   0  0  0  0  0  0  0  0  0  0  0  0
   16.6824    6.8107    6.4058 H   0  0  0  0  0  0  0  0  0  0  0  0
   16.6848    5.4932    7.5832 H   0  0  0  0  0  0  0  0  0  0  0  0
   16.4431    7.1531    9.4399 H   0  0  0  0  0  0  0  0  0  0  0  0
   16.4429    8.4700    8.2619 H   0  0  0  0  0  0  0  0  0  0  0  0
   18.7105    7.7640    7.4739 H   0  0  0  0  0  0  0  0  0  0  0  0
   18.7103    6.4487    8.6535 H   0  0  0  0  0  0  0  0  0  0  0  0
   18.4685    8.1122   10.5071 H   0  0  0  0  0  0  0  0  0  0  0  0
   18.4709    9.4268    9.3266 H   0  0  0  0  0  0  0  0  0  0  0  0
   20.7383    8.7198    8.5424 H   0  0  0  0  0  0  0  0  0  0  0  0
   20.7362    7.4034    9.7210 H   0  0  0  0  0  0  0  0  0  0  0  0
   20.4963    9.0640   11.5764 H   0  0  0  0  0  0  0  0  0  0  0  0
   20.4963   10.3809   10.3983 H   0  0  0  0  0  0  0  0  0  0  0  0
   22.7639    9.6747    9.6099 H   0  0  0  0  0  0  0  0  0  0  0  0
   22.7639    8.3593   10.7897 H   0  0  0  0  0  0  0  0  0  0  0  0
   22.5240   10.0214   12.6438 H   0  0  0  0  0  0  0  0  0  0  0  0
   22.5219   11.3373   11.4646 H   0  0  0  0  0  0  0  0  0  0  0  0
   24.7894   10.6339   10.6753 H   0  0  0  0  0  0  0  0  0  0  0  0
   24.7918    9.3178   11.8544 H   0  0  0  0  0  0  0  0  0  0  0  0
   24.5497   10.9806   13.7091 H   0  0  0  0  0  0  0  0  0  0  0  0
   24.5496   12.2959   12.5292 H   0  0  0  0  0  0  0  0  0  0  0  0
   26.8173   11.5900   11.7420 H   0  0  0  0  0  0  0  0  0  0  0  0
   26.8172   10.2747   12.9220 H   0  0  0  0  0  0  0  0  0  0  0  0
   26.5763   11.9375   14.7758 H   0  0  0  0  0  0  0  0  0  0  0  0
   26.5763   13.2529   13.5960 H   0  0  0  0  0  0  0  0  0  0  0  0
   28.8439   12.5469   12.8089 H   0  0  0  0  0  0  0  0  0  0  0  0
   28.8439   11.2315   13.9888 H   0  0  0  0  0  0  0  0  0  0  0  0
   28.6030   12.8944   15.8426 H   0  0  0  0  0  0  0  0  0  0  0  0
   28.6030   14.2098   14.6628 H   0  0  0  0  0  0  0  0  0  0  0  0
   30.8706   13.5037   13.8757 H   0  0  0  0  0  0  0  0  0  0  0  0
   30.8706   12.1884   15.0556 H   0  0  0  0  0  0  0  0  0  0  0  0
   30.6296   13.8513   16.9093 H   0  0  0  0  0  0  0  0  0  0  0  0
   30.6296   15.1667   15.7295 H   0  0  0  0  0  0  0  0  0  0  0  0
   32.8973   14.4606   14.9426 H   0  0  0  0  0  0  0  0  0  0  0  0
   32.8972   13.1452   16.1223 H   0  0  0  0  0  0  0  0  0  0  0  0
   32.6551   14.8090   17.9761 H   0  0  0  0  0  0  0  0  0  0  0  0
   32.6575   16.1237   16.7955 H   0  0  0  0  0  0  0  0  0  0  0  0
   34.9250   15.4152   16.0107 H   0  0  0  0  0  0  0  0  0  0  0  0
   34.9228   14.1005   17.1913 H   0  0  0  0  0  0  0  0  0  0  0  0
   34.6830   15.7636   19.0442 H   0  0  0  0  0  0  0  0  0  0  0  0
   34.6829   17.0791   17.8644 H   0  0  0  0  0  0  0  0  0  0  0  0
   36.9507   16.3716   17.0771 H   0  0  0  0  0  0  0  0  0  0  0  0
   36.9504   15.0578   18.2586 H   0  0  0  0  0  0  0  0  0  0  0  0
   36.7084   16.7241   20.1102 H   0  0  0  0  0  0  0  0  0  0  0  0
   36.7108   18.0371   18.9277 H   0  0  0  0  0  0  0  0  0  0  0  0
   38.9784   17.3290   18.1442 H   0  0  0  0  0  0  0  0  0  0  0  0
   38.9761   16.0144   19.3249 H   0  0  0  0  0  0  0  0  0  0  0  0
   38.7362   17.6773   21.1777 H   0  0  0  0  0  0  0  0  0  0  0  0
   38.7363   18.9929   19.9981 H   0  0  0  0  0  0  0  0  0  0  0  0
   41.0039   18.2881   19.2114 H   0  0  0  0  0  0  0  0  0  0  0  0
   41.0039   16.9711   20.3895 H   0  0  0  0  0  0  0  0  0  0  0  0
   40.7630   18.6314   22.2456 H   0  0  0  0  0  0  0  0  0  0  0  0
   40.7629   19.9484   21.0676 H   0  0  0  0  0  0  0  0  0  0  0  0
   43.0306   19.2435   20.2795 H   0  0  0  0  0  0  0  0  0  0  0  0
   43.0305   17.9265   21.4576 H   0  0  0  0  0  0  0  0  0  0  0  0
   42.7896   19.5867   23.3138 H   0  0  0  0  0  0  0  0  0  0  0  0
   42.7896   20.9038   22.1358 H   0  0  0  0  0  0  0  0  0  0  0  0
   45.0572   20.1989   21.3477 H   0  0  0  0  0  0  0  0  0  0  0  0
   45.0572   18.8819   22.5257 H   0  0  0  0  0  0  0  0  0  0  0  0
   44.8162   20.5421   24.3819 H   0  0  0  0  0  0  0  0  0  0  0  0
   44.8163   21.8591   23.2039 H   0  0  0  0  0  0  0  0  0  0  0  0
   47.0839   21.1543   22.4159 H   0  0  0  0  0  0  0  0  0  0  0  0
   47.0839   19.8372   23.5938 H   0  0  0  0  0  0  0  0  0  0  0  0
   46.8429   21.4975   25.4501 H   0  0  0  0  0  0  0  0  0  0  0  0
   46.8429   22.8145   24.2720 H   0  0  0  0  0  0  0  0  0  0  0  0
   49.1105   22.1097   23.4840 H   0  0  0  0  0  0  0  0  0  0  0  0
   49.1106   20.7927   24.6620 H   0  0  0  0  0  0  0  0  0  0  0  0
   48.8707   22.4521   26.5183 H   0  0  0  0  0  0  0  0  0  0  0  0
   48.8685   23.7697   25.3410 H   0  0  0  0  0  0  0  0  0  0  0  0
   51.1360   23.0674   24.5509 H   0  0  0  0  0  0  0  0  0  0  0  0
   51.1384   21.7496   25.7280 H   0  0  0  0  0  0  0  0  0  0  0  0
   50.8963   23.4099   27.5852 H   0  0  0  0  0  0  0  0  0  0  0  0
   50.8962   24.7266   26.4069 H   0  0  0  0  0  0  0  0  0  0  0  0
   53.1638   24.0206   25.6185 H   0  0  0  0  0  0  0  0  0  0  0  0
   53.1639   22.7052   26.7983 H   0  0  0  0  0  0  0  0  0  0  0  0
   52.9240   24.3673   28.6524 H   0  0  0  0  0  0  0  0  0  0  0  0
   52.9218   25.6832   27.4731 H   0  0  0  0  0  0  0  0  0  0  0  0
   55.1894   24.9785   26.6834 H   0  0  0  0  0  0  0  0  0  0  0  0
   55.1916   23.6640   27.8643 H   0  0  0  0  0  0  0  0  0  0  0  0
   54.9495   25.3293   29.7169 H   0  0  0  0  0  0  0  0  0  0  0  0
   54.9497   26.6428   28.5351 H   0  0  0  0  0  0  0  0  0  0  0  0
   57.2171   25.9373   27.7493 H   0  0  0  0  0  0  0  0  0  0  0  0
   57.2173   24.6221   28.9293 H   0  0  0  0  0  0  0  0  0  0  0  0
   56.9773   26.2841   30.7833 H   0  0  0  0  0  0  0  0  0  0  0  0
   56.9751   27.6000   29.6040 H   0  0  0  0  0  0  0  0  0  0  0  0
   59.2426   26.8966   28.8147 H   0  0  0  0  0  0  0  0  0  0  0  0
   59.2451   25.5806   29.9939 H   0  0  0  0  0  0  0  0  0  0  0  0
   59.0051   27.2416   31.8489 H   0  0  0  0  0  0  0  0  0  0  0  0
   59.0006   28.5581   30.6703 H   0  0  0  0  0  0  0  0  0  0  0  0
   61.2681   27.8573   29.8787 H   0  0  0  0  0  0  0  0  0  0  0  0
   61.2729   26.5408   31.0572 H   0  0  0  0  0  0  0  0  0  0  0  0
   61.0319   28.2015   32.9131 H   0  0  0  0  0  0  0  0  0  0  0  0
   61.0272   29.5179   31.7344 H   0  0  0  0  0  0  0  0  0  0  0  0
   63.2948   28.8172   30.9427 H   0  0  0  0  0  0  0  0  0  0  0  0
   63.2995   27.5008   32.1213 H   0  0  0  0  0  0  0  0  0  0  0  0
   63.0585   29.1614   33.9771 H   0  0  0  0  0  0  0  0  0  0  0  0
   63.0538   30.4779   32.7985 H   0  0  0  0  0  0  0  0  0  0  0  0
   65.3215   29.7771   32.0068 H   0  0  0  0  0  0  0  0  0  0  0  0
   65.3261   28.4607   33.1854 H   0  0  0  0  0  0  0  0  0  0  0  0
   65.0852   30.1213   35.0412 H   0  0  0  0  0  0  0  0  0  0  0  0
   65.0805   31.4378   33.8626 H   0  0  0  0  0  0  0  0  0  0  0  0
   67.3481   30.7370   33.0708 H   0  0  0  0  0  0  0  0  0  0  0  0
   67.3528   29.4206   34.2495 H   0  0  0  0  0  0  0  0  0  0  0  0
   67.1119   31.0812   36.1052 H   0  0  0  0  0  0  0  0  0  0  0  0
   67.1071   32.3978   34.9267 H   0  0  0  0  0  0  0  0  0  0  0  0
   69.3748   31.6969   34.1350 H   0  0  0  0  0  0  0  0  0  0  0  0
   69.3794   30.3805   35.3136 H   0  0  0  0  0  0  0  0  0  0  0  0
   69.1374   32.0419   37.1693 H   0  0  0  0  0  0  0  0  0  0  0  0
   69.1349   33.3579   35.9900 H   0  0  0  0  0  0  0  0  0  0  0  0
   71.4026   32.6545   35.2005 H   0  0  0  0  0  0  0  0  0  0  0  0
   71.4049   31.3387   36.3799 H   0  0  0  0  0  0  0  0  0  0  0  0
   71.1640   33.0003   38.2346 H   0  0  0  0  0  0  0  0  0  0  0  0
   71.1616   34.3163   37.0555 H   0  0  0  0  0  0  0  0  0  0  0  0
   73.4293   33.6129   36.2660 H   0  0  0  0  0  0  0  0  0  0  0  0
   73.4316   32.2970   37.4453 H   0  0  0  0  0  0  0  0  0  0  0  0
   73.1908   33.9587   39.3000 H   0  0  0  0  0  0  0  0  0  0  0  0
   73.1884   35.2746   38.1209 H   0  0  0  0  0  0  0  0  0  0  0  0
   75.4559   34.5714   37.3318 H   0  0  0  0  0  0  0  0  0  0  0  0
   75.4581   33.2556   38.5109 H   0  0  0  0  0  0  0  0  0  0  0  0
   75.2165   34.9179   40.3653 H   0  0  0  0  0  0  0  0  0  0  0  0
   75.2164   36.2332   39.1855 H   0  0  0  0  0  0  0  0  0  0  0  0
   77.4840   35.5276   38.3988 H   0  0  0  0  0  0  0  0  0  0  0  0
   77.4839   34.2124   39.5787 H   0  0  0  0  0  0  0  0  0  0  0  0
   77.2442   35.8752   41.4323 H   0  0  0  0  0  0  0  0  0  0  0  0
   77.2443   37.1904   40.2527 H   0  0  0  0  0  0  0  0  0  0  0  0
   79.5127   36.4862   39.4664 H   0  0  0  0  0  0  0  0  0  0  0  0
   79.5127   35.1692   40.6445 H   0  0  0  0  0  0  0  0  0  0  0  0
   79.2741   36.8313   42.4996 H   0  0  0  0  0  0  0  0  0  0  0  0
   79.2761   38.1458   41.3224 H   0  0  0  0  0  0  0  0  0  0  0  0
   81.5547   37.4497   40.5485 H   0  0  0  0  0  0  0  0  0  0  0  0
   81.5523   36.1342   41.7264 H   0  0  0  0  0  0  0  0  0  0  0  0
   81.3322   39.1138   42.4004 H   0  0  0  0  0  0  0  0  0  0  0  0
   82.7771   38.1022   42.6034 H   0  0  0  0  0  0  0  0  0  0  0  0
   81.3299   37.7918   43.5840 H   0  0  0  0  0  0  0  0  0  0  0  0
  1  2  1  0  0  0  0
  1 82  1  0  0  0  0
  1 83  1  0  0  0  0
  2  3  1  0  0  0  0
  2 84  1  0  0  0  0
  2 85  1  0  0  0  0
  3  4  1  0  0  0  0
  3 86  1  0  0  0  0
  3 87  1  0  0  0  0
  4  5  1  0  0  0  0
  4 88  1  0  0  0  0
  4 89  1  0  0  0  0
  5  6  1  0  0  0  0
  5 90  1  0  0  0  0
  6  7  1  0  0  0  0
  6 91  1  0  0  0  0
  7  8  1  0  0  0  0
  7 92  1  0  0  0  0
  8  9  1  0  0  0  0
  8 93  1  0  0  0  0
  9 10  1  0  0  0  0
  9 94  1  0  0  0  0
  9 95  1  0  0  0  0
 10 11  1  0  0  0  0
 10 96  1  0  0  0  0
 10 97  1  0  0  0  0
 11 12  1  0  0  0  0
 11 98  1  0  0  0  0
 11 99  1  0  0  0  0
 12 13  1  0  0  0  0
 12100  1  0  0  0  0
 12101  1  0  0  0  0
 13 14  1  0  0  0  0
 13102  1  0  0  0  0
 13103  1  0  0  0  0
 14 15  1  0  0  0  0
 14104  1  0  0  0  0
 14105  1  0  0  0  0
 15 16  1  0  0  0  0
 15106  1  0  0  0  0
 15107  1  0  0  0  0
 16 17  1  0  0  0  0
 16108  1  0  0  0  0
 16109  1  0  0  0  0
 17 18  1  0  0  0  0
 17110  1  0  0  0  0
 17111  1  0  0  0  0
 18 19  1  0  0  0  0
 18112  1  0  0  0  0
 18113  1  0  0  0  0
 19 20  1  0  0  0  0
 19114  1  0  0  0  0
 19115  1  0  0  0  0
 20 21  1  0  0  0  0
 20116  1  0  0  0  0
 20117  1  0  0  0  0
 21 22  1  0  0  0  0
 21118  1  0  0  0  0
 21119  1  0  0  0  0
 22 23  1  0  0  0  0
 22120  1  0  0  0  0
 22121  1  0  0  0  0
 23 24  1  0  0  0  0
 23122  1  0  0  0  0
 23123  1  0  0  0  0
 24 25  1  0  0  0  0
 24124  1  0  0  0  0
 24125  1  0  0  0  0
 25 26  1  0  0  0  0
 25126  1  0  0  0  0
 25127  1  0  0  0  0
 26 27  1  0  0  0  0
 26128  1  0  0  0  0
 26129  1  0  0  0  0
 27 28  1  0  0  0  0
 27130  1  0  0  0  0
 27131  1  0  0  0  0
 28 29  1  0  0  0  0
 28132  1  0  0  0  0
 28133  1  0  0  0  0
 29 30  1  0  0  0  0
 29134  1  0  0  0  0
 29135  1  0  0  0  0
 30 31  1  0  0  0  0
 30136  1  0  0  0  0
 30137  1  0  0  0  0
 31 32  1  0  0  0  0
 31138  1  0  0  0  0
 31139  1  0  0  0  0
 32 33  1  0  0  0  0
 32140  1  0  0  0  0
 32141  1  0  0  0  0
 33 34  1  0  0  0  0
 33142  1  0  0  0  0
 33143  1  0  0  0  0
 34 35  1  0  0  0  0
 34144  1  0  0  0  0
 34145  1  0  0  0  0
 35 36  1  0  0  0  0
 35146  1  0  0  0  0
 35147  1  0  0  0  0
 36 37  1  0  0  0  0
 36148  1  0  0  0  0
 36149  1  0  0  0  0
 37 38  1  0  0  0  0
 37150  1  0  0  0  0
 37151  1  0  0  0  0
 38 39  1  0  0  0  0
 38152  1  0  0  0  0
 38153  1  0  0  0  0
 39 40  1  0  0  0  0
 39154  1  0  0  0  0
 39155  1  0  0  0  0
 40 41  1  0  0  0  0
 40156  1  0  0  0  0
 40157  1  0  0  0  0
 41 42  1  0  0  0  0
 41158  1  0  0  0  0
 41159  1  0  0  0  0
 42 43  1  0  0  0  0
 42160  1  0  0  0  0
 42161  1  0  0  0  0
 43 44  1  0  0  0  0
 43162  1  0  0  0  0
 43163  1  0  0  0  0
 44 45  1  0  0  0  0
 44164  1  0  0  0  0
 44165  1  0  0  0  0
 45 46  1  0  0  0  0
 45166  1  0  0  0  0
 45167  1  0  0  0  0
 46 47  1  0  0  0  0
 46168  1  0  0  0  0
 46169  1  0  0  0  0
 47 48  1  0  0  0  0
 47170  1  0  0  0  0
 47171  1  0  0  0  0
 48 49  1  0  0  0  0
 48172  1  0  0  0  0
 48173  1  0  0  0  0
 49 50  1  0  0  0  0
 49174  1  0  0  0  0
 49175  1  0  0  0  0
 50 51  1  0  0  0  0
 50176  1  0  0  0  0
 50177  1  0  0  0  0
 51 52  1  0  0  0  0
 51178  1  0  0  0  0
 51179  1  0  0  0  0
 52 53  1  0  0  0  0
 52180  1  0  0  0  0
 52181  1  0  0  0  0
 53 54  1  0  0  0  0
 53182  1  0  0  0  0
 53183  1  0  0  0  0
 54 55  1  0  0  0  0
 54184  1  0  0  0  0
 54185  1  0  0  0  0
 55 56  1  0  0  0  0
 55186  1  0  0  0  0
 55187  1  0  0  0  0
 56 57  1  0  0  0  0
 56188  1  0  0  0  0
 56189  1  0  0  0  0
 57 58  1  0  0  0  0
 57190  1  0  0  0  0
 57191  1  0  0  0  0
 58 59  1  0  0  0  0
 58192  1  0  0  0  0
 58193  1  0  0  0  0
 59 60  1  0  0  0  0
 59194  1  0  0  0  0
 59195  1  0  0  0  0
 60 61  1  0  0  0  0
 60196  1  0  0  0  0
 60197  1  0  0  0  0
 61 62  1  0  0  0  0
 61198  1  0  0  0  0
 61199  1  0  0  0  0
 62 63  1  0  0  0  0
 62200  1  0  0  0  0
 62201  1  0  0  0  0
 63 64  1  0  0  0  0
 63202  1  0  0  0  0
 63203  1  0  0  0  0
 64 65  1  0  0  0  0
 64204  1  0  0  0  0
 64205  1  0  0  0  0
 65 66  1  0  0  0  0
 65206  1  0  0  0  0
 65207  1  0  0  0  0
 66 67  1  0  0  0  0
 66208  1  0  0  0  0
 66209  1  0  0  0  0
 67 68  1  0  0  0  0
 67210  1  0  0  0  0
 67211  1  0  0  0  0
 68 69  1  0  0  0  0
 68212  1  0  0  0  0
 68213  1  0  0  0  0
 69 70  1  0  0  0  0
 69214  1  0  0  0  0
 69215  1  0  0  0  0
 70 71  1  0  0  0  0
 70216  1  0  0  0  0
 70217  1  0  0  0  0
 71 72  1  0  0  0  0
 71218  1  0  0  0  0
 71219  1  0  0  0  0
 72 73  1  0  0  0  0
 72220  1  0  0  0  0
 72221  1  0  0  0  0
 73 74  1  0  0  0  0
 73222  1  0  0  0  0
 73223  1  0  0  0  0
 74 75  1  0  0  0  0
 74224  1  0  0  0  0
 74225  1  0  0  0  0
 75 76  1  0  0  0  0
 75226  1  0  0  0  0
 75227  1  0  0  0  0
 76 77  1  0  0  0  0
 76228  1  0  0  0  0
 76229  1  0  0  0  0
 77 78  1  0  0  0  0
 77230  1  0  0  0  0
 77231  1  0  0  0  0
 78 79  1  0  0  0  0
 78232  1  0  0  0  0
 78233  1  0  0  0  0
 79 80  1  0  0  0  0
 79234  1  0  0  0  0
 79235  1  0  0  0  0
 80 81  1  0  0  0  0
 80236  1  0  0  0  0
 80237  1  0  0  0  0
 81238  1  0  0  0  0
 81239  1  0  0  0  0
 81240  1  0  0  0  0
M  END
$$$$
