
 OpenBabel04232216573D

 39 38  0  0  0  0  0  0  0  0999 V2000
    1.0362   -0.1562    0.0534 C   0  0  0  0  0  0  0  0  0  0  0  0
    2.4907   -0.0800    0.0657 N   0  0  0  0  0  0  0  0  0  0  0  0
    2.9263    1.1434    0.6965 C   0  0  0  0  0  0  0  0  0  0  0  0
    4.3707    1.1379    0.6666 N   0  0  0  0  0  0  0  0  0  0  0  0
    4.8657    2.3472    1.2930 C   0  0  0  0  0  0  0  0  0  0  0  0
    6.3230    2.3284    1.2568 N   0  0  0  0  0  0  0  0  0  0  0  0
    6.8055    3.5226    1.8775 N   0  0  0  0  0  0  0  0  0  0  0  0
    8.2279    3.5227    1.8449 N   0  0  0  0  0  0  0  0  0  0  0  0
    8.7121    4.7536    2.4817 C   0  0  0  0  0  0  0  0  0  0  0  0
   10.2401    4.7831    2.4659 C   0  0  0  0  0  0  0  0  0  0  0  0
   10.7712    6.0570    3.1266 C   0  0  0  0  0  0  0  0  0  0  0  0
   12.2990    6.0905    3.1123 C   0  0  0  0  0  0  0  0  0  0  0  0
   12.8350    7.3607    3.7706 C   0  0  0  0  0  0  0  0  0  0  0  0
   14.3547    7.3899    3.7543 C   0  0  0  0  0  0  0  0  0  0  0  0
    0.7179   -1.0883   -0.4220 H   0  0  0  0  0  0  0  0  0  0  0  0
    0.5956    0.6758   -0.5064 H   0  0  0  0  0  0  0  0  0  0  0  0
    0.6319   -0.1512    1.0714 H   0  0  0  0  0  0  0  0  0  0  0  0
    2.8469   -0.1196   -0.8836 H   0  0  0  0  0  0  0  0  0  0  0  0
    2.5702    1.1763    1.7329 H   0  0  0  0  0  0  0  0  0  0  0  0
    2.5315    2.0144    0.1591 H   0  0  0  0  0  0  0  0  0  0  0  0
    4.6948    1.0896   -0.2896 H   0  0  0  0  0  0  0  0  0  0  0  0
    4.5278    2.3852    2.3364 H   0  0  0  0  0  0  0  0  0  0  0  0
    4.4861    3.2342    0.7694 H   0  0  0  0  0  0  0  0  0  0  0  0
    6.6244    2.2706    0.2884 H   0  0  0  0  0  0  0  0  0  0  0  0
    6.4885    3.5479    2.8580 H   0  0  0  0  0  0  0  0  0  0  0  0
    8.5710    3.4840    0.8854 H   0  0  0  0  0  0  0  0  0  0  0  0
    8.3644    4.8004    3.5219 H   0  0  0  0  0  0  0  0  0  0  0  0
    8.3215    5.6348    1.9562 H   0  0  0  0  0  0  0  0  0  0  0  0
   10.6040    4.7292    1.4322 H   0  0  0  0  0  0  0  0  0  0  0  0
   10.6336    3.9058    2.9948 H   0  0  0  0  0  0  0  0  0  0  0  0
   10.4113    6.1130    4.1615 H   0  0  0  0  0  0  0  0  0  0  0  0
   10.3786    6.9357    2.6002 H   0  0  0  0  0  0  0  0  0  0  0  0
   12.6571    6.0341    2.0772 H   0  0  0  0  0  0  0  0  0  0  0  0
   12.6903    5.2110    3.6380 H   0  0  0  0  0  0  0  0  0  0  0  0
   12.4840    7.4208    4.8074 H   0  0  0  0  0  0  0  0  0  0  0  0
   12.4515    8.2435    3.2461 H   0  0  0  0  0  0  0  0  0  0  0  0
   14.7684    6.5347    4.2983 H   0  0  0  0  0  0  0  0  0  0  0  0
   14.7223    8.3051    4.2283 H   0  0  0  0  0  0  0  0  0  0  0  0
   14.7355    7.3610    2.7283 H   0  0  0  0  0  0  0  0  0  0  0  0
  1  2  1  0  0  0  0
  1 15  1  0  0  0  0
  1 16  1  0  0  0  0
  1 17  1  0  0  0  0
  2  3  1  0  0  0  0
  2 18  1  0  0  0  0
  3  4  1  0  0  0  0
  3 19  1  0  0  0  0
  3 20  1  0  0  0  0
  4  5  1  0  0  0  0
  4 21  1  0  0  0  0
  5  6  1  0  0  0  0
  5 22  1  0  0  0  0
  5 23  1  0  0  0  0
  6  7  1  0  0  0  0
  6 24  1  0  0  0  0
  7  8  1  0  0  0  0
  7 25  1  0  0  0  0
  8  9  1  0  0  0  0
  8 26  1  0  0  0  0
  9 10  1  0  0  0  0
  9 27  1  0  0  0  0
  9 28  1  0  0  0  0
 10 11  1  0  0  0  0
 10 29  1  0  0  0  0
 10 30  1  0  0  0  0
 11 12  1  0  0  0  0
 11 31  1  0  0  0  0
 11 32  1  0  0  0  0
 12 13  1  0  0  0  0
 12 33  1  0  0  0  0
 12 34  1  0  0  0  0
 13 14  1  0  0  0  0
 13 35  1  0  0  0  0
 13 36  1  0  0  0  0
 14 37  1  0  0  0  0
 14 38  1  0  0  0  0
 14 39  1  0  0  0  0
M  END
$$$$
