
 OpenBabel04232216463D

 48 50  0  0  1  0  0  0  0  0999 V2000
    4.9221    0.0164   -2.5686 C   0  0  0  0  0  0  0  0  0  0  0  0
    5.9301    1.1748   -2.2895 C   0  0  0  0  0  0  0  0  0  0  0  0
    5.2375    2.1178   -1.3845 C   0  0  0  0  0  0  0  0  0  0  0  0
    5.0680    1.8158   -0.0801 C   0  0  0  0  0  0  0  0  0  0  0  0
    5.2892    0.5087    0.6561 C   0  0  0  0  0  0  0  0  0  0  0  0
    4.9692    2.8934    0.7884 N   0  0  0  0  0  0  0  0  0  0  0  0
    6.2025    3.2505    0.9830 C   0  0  0  0  0  0  0  0  0  0  0  0
    6.9438    4.0344   -0.0419 C   0  0  0  0  0  0  0  0  0  0  0  0
    8.2477    3.3446   -0.4148 C   0  0  3  0  0  0  0  0  0  0  0  0
    8.6125    1.8261   -0.0849 C   0  0  0  0  0  0  0  0  0  0  0  0
   10.0762    1.3263   -0.3049 C   0  0  0  0  0  0  0  0  0  0  0  0
   11.0513    2.4210    0.0619 C   0  0  0  0  0  0  0  0  0  0  0  0
   10.6009    3.6775   -0.6663 C   0  0  3  0  0  0  0  0  0  0  0  0
    9.3597    4.2500   -0.0238 C   0  0  0  0  0  0  0  0  0  0  0  0
   11.6730    4.7684   -0.5015 C   0  0  0  0  0  0  0  0  0  0  0  0
   11.9703    5.3079    0.5247 O   0  0  0  0  0  0  0  0  0  0  0  0
   12.2490    5.0372   -1.8033 C   0  0  0  0  0  0  0  0  0  0  0  0
   11.6894    4.1480   -2.6544 C   0  0  0  0  0  0  0  0  0  0  0  0
   12.6183    3.7569   -3.7553 C   0  0  0  0  0  0  0  0  0  0  0  0
   10.5039    3.4224   -2.1782 N   0  0  0  0  0  0  0  0  0  0  0  0
    9.4289    2.7677   -3.0679 C   0  0  0  0  0  0  0  0  0  0  0  0
    8.2283    2.0353   -3.2834 C   0  0  0  0  0  0  0  0  0  0  0  0
    7.1231    1.1710   -2.8822 N   0  0  0  0  0  0  0  0  0  0  0  0
    3.9764    0.4487   -2.9611 H   0  0  0  0  0  0  0  0  0  0  0  0
    4.5898   -0.4738   -1.6346 H   0  0  0  0  0  0  0  0  0  0  0  0
    5.2636   -0.7445   -3.2504 H   0  0  0  0  0  0  0  0  0  0  0  0
    4.9202    3.0653   -1.7847 H   0  0  0  0  0  0  0  0  0  0  0  0
    4.3486    0.0226    0.9282 H   0  0  0  0  0  0  0  0  0  0  0  0
    5.8485    0.6521    1.5895 H   0  0  0  0  0  0  0  0  0  0  0  0
    5.8910   -0.1915    0.0603 H   0  0  0  0  0  0  0  0  0  0  0  0
    6.8200    2.7136    1.7214 H   0  0  0  0  0  0  0  0  0  0  0  0
    7.0564    5.0711    0.2820 H   0  0  0  0  0  0  0  0  0  0  0  0
    6.3616    4.1541   -0.9650 H   0  0  0  0  0  0  0  0  0  0  0  0
    8.1770    3.4765   -1.4808 H   0  0  0  0  0  0  0  0  0  0  0  0
    7.9727    1.1372   -0.6326 H   0  0  0  0  0  0  0  0  0  0  0  0
    8.4293    1.6403    0.9718 H   0  0  0  0  0  0  0  0  0  0  0  0
   10.2704    1.0098   -1.3390 H   0  0  0  0  0  0  0  0  0  0  0  0
   10.2760    0.4264    0.2903 H   0  0  0  0  0  0  0  0  0  0  0  0
   12.0898    2.1450   -0.1886 H   0  0  0  0  0  0  0  0  0  0  0  0
   11.0422    2.5656    1.1508 H   0  0  0  0  0  0  0  0  0  0  0  0
    9.1945    5.2765   -0.3599 H   0  0  0  0  0  0  0  0  0  0  0  0
    9.4516    4.2853    1.0701 H   0  0  0  0  0  0  0  0  0  0  0  0
   13.1553    5.6062   -1.8716 H   0  0  0  0  0  0  0  0  0  0  0  0
   13.6500    4.0702   -3.4917 H   0  0  0  0  0  0  0  0  0  0  0  0
   12.3928    4.2394   -4.7032 H   0  0  0  0  0  0  0  0  0  0  0  0
   12.6928    2.6676   -3.8478 H   0  0  0  0  0  0  0  0  0  0  0  0
    9.8436    3.0322   -4.0478 H   0  0  0  0  0  0  0  0  0  0  0  0
    8.1224    1.9633   -4.3759 H   0  0  0  0  0  0  0  0  0  0  0  0
  1  2  1  0  0  0  0
  1 24  1  0  0  0  0
  1 25  1  0  0  0  0
  1 26  1  0  0  0  0
  2  3  1  0  0  0  0
  2 23  2  3  0  0  0
  3  4  2  3  0  0  0
  3 27  1  0  0  0  0
  4  5  1  0  0  0  0
  4  6  1  0  0  0  0
  5 28  1  0  0  0  0
  5 29  1  0  0  0  0
  5 30  1  0  0  0  0
  6  7  2  3  0  0  0
  7  8  1  0  0  0  0
  7 31  1  0  0  0  0
  8  9  1  0  0  0  0
  8 32  1  0  0  0  0
  8 33  1  0  0  0  0
  9 10  1  0  0  0  0
  9 14  1  0  0  0  0
  9 34  1  0  0  0  0
 10 11  1  0  0  0  0
 10 35  1  0  0  0  0
 10 36  1  0  0  0  0
 11 12  1  0  0  0  0
 11 37  1  0  0  0  0
 11 38  1  0  0  0  0
 12 13  1  0  0  0  0
 12 39  1  0  0  0  0
 12 40  1  0  0  0  0
 13 14  1  0  0  0  0
 13 15  1  0  0  0  0
 13 20  1  0  0  0  0
 14 41  1  0  0  0  0
 14 42  1  0  0  0  0
 15 16  2  0  0  0  0
 15 17  1  0  0  0  0
 17 18  2  0  0  0  0
 17 43  1  0  0  0  0
 18 19  1  0  0  0  0
 18 20  1  0  0  0  0
 19 44  1  0  0  0  0
 19 45  1  0  0  0  0
 19 46  1  0  0  0  0
 20 21  1  0  0  0  0
 21 22  2  3  0  0  0
 21 47  1  0  0  0  0
 22 23  1  0  0  0  0
 22 48  1  0  0  0  0
M  END
$$$$
