
 OpenBabel04232216573D

 95 94  0  0  0  0  0  0  0  0999 V2000
   10.2045    5.0955   -4.4920 C   0  0  0  0  0  0  0  0  0  0  0  0
    9.4590    4.4665   -2.9670 S   0  0  0  0  0  0  0  0  0  0  0  0
   10.1946    5.5905   -1.7228 C   0  0  0  0  0  0  0  0  0  0  0  0
    9.6268    5.1489   -0.3396 C   0  0  0  0  0  0  0  0  0  0  0  0
   10.1938    6.0462    0.7908 C   0  0  0  0  0  0  0  0  0  0  0  0
    9.6250    5.6080    2.1660 C   0  0  0  0  0  0  0  0  0  0  0  0
   10.1852    6.4691    3.2967 C   0  0  0  0  0  0  0  0  0  0  0  0
    9.5451    5.9673    4.9354 S   0  0  0  0  0  0  0  0  0  0  0  0
   10.1511    4.0189    5.2079 S   0  0  0  0  0  0  0  0  0  0  0  0
   12.2156    4.0157    5.1995 S   0  0  0  0  0  0  0  0  0  0  0  0
   12.8837    5.1514    6.7958 S   0  0  0  0  0  0  0  0  0  0  0  0
   14.9754    5.1475    6.7423 S   0  0  0  0  0  0  0  0  0  0  0  0
   15.6615    6.3516    8.3201 S   0  0  0  0  0  0  0  0  0  0  0  0
   17.7662    6.3402    8.3061 S   0  0  0  0  0  0  0  0  0  0  0  0
   18.4549    7.5491    9.8893 S   0  0  0  0  0  0  0  0  0  0  0  0
   20.5632    7.5407    9.8783 S   0  0  0  0  0  0  0  0  0  0  0  0
   21.2533    8.7500   11.4624 S   0  0  0  0  0  0  0  0  0  0  0  0
   23.3625    8.7419   11.4518 S   0  0  0  0  0  0  0  0  0  0  0  0
   24.0530    9.9513   13.0360 S   0  0  0  0  0  0  0  0  0  0  0  0
   26.1624    9.9432   13.0254 S   0  0  0  0  0  0  0  0  0  0  0  0
   26.8530   11.1527   14.6097 S   0  0  0  0  0  0  0  0  0  0  0  0
   28.9623   11.1446   14.5991 S   0  0  0  0  0  0  0  0  0  0  0  0
   29.6530   12.3541   16.1834 S   0  0  0  0  0  0  0  0  0  0  0  0
   31.7623   12.3460   16.1729 S   0  0  0  0  0  0  0  0  0  0  0  0
   32.4530   13.5555   17.7571 S   0  0  0  0  0  0  0  0  0  0  0  0
   34.5623   13.5474   17.7466 S   0  0  0  0  0  0  0  0  0  0  0  0
   35.2529   14.7569   19.3309 S   0  0  0  0  0  0  0  0  0  0  0  0
   37.3623   14.7488   19.3204 S   0  0  0  0  0  0  0  0  0  0  0  0
   38.0529   15.9583   20.9046 S   0  0  0  0  0  0  0  0  0  0  0  0
   40.1623   15.9502   20.8941 S   0  0  0  0  0  0  0  0  0  0  0  0
   40.8529   17.1597   22.4784 S   0  0  0  0  0  0  0  0  0  0  0  0
   42.9623   17.1516   22.4678 S   0  0  0  0  0  0  0  0  0  0  0  0
   43.6529   18.3611   24.0521 S   0  0  0  0  0  0  0  0  0  0  0  0
   45.7623   18.3530   24.0416 S   0  0  0  0  0  0  0  0  0  0  0  0
   46.4529   19.5625   25.6258 S   0  0  0  0  0  0  0  0  0  0  0  0
   48.5623   19.5544   25.6153 S   0  0  0  0  0  0  0  0  0  0  0  0
   49.2529   20.7639   27.1996 S   0  0  0  0  0  0  0  0  0  0  0  0
   51.3623   20.7558   27.1890 S   0  0  0  0  0  0  0  0  0  0  0  0
   52.0529   21.9653   28.7733 S   0  0  0  0  0  0  0  0  0  0  0  0
   54.1623   21.9572   28.7628 S   0  0  0  0  0  0  0  0  0  0  0  0
   54.8529   23.1667   30.3470 S   0  0  0  0  0  0  0  0  0  0  0  0
   56.9623   23.1587   30.3365 S   0  0  0  0  0  0  0  0  0  0  0  0
   57.6529   24.3681   31.9208 S   0  0  0  0  0  0  0  0  0  0  0  0
   59.7623   24.3601   31.9102 S   0  0  0  0  0  0  0  0  0  0  0  0
   60.4529   25.5695   33.4945 S   0  0  0  0  0  0  0  0  0  0  0  0
   62.5622   25.5615   33.4840 S   0  0  0  0  0  0  0  0  0  0  0  0
   63.2529   26.7709   35.0682 S   0  0  0  0  0  0  0  0  0  0  0  0
   65.3622   26.7629   35.0577 S   0  0  0  0  0  0  0  0  0  0  0  0
   66.0529   27.9723   36.6420 S   0  0  0  0  0  0  0  0  0  0  0  0
   68.1622   27.9643   36.6314 S   0  0  0  0  0  0  0  0  0  0  0  0
   68.8529   29.1737   38.2157 S   0  0  0  0  0  0  0  0  0  0  0  0
   70.9622   29.1657   38.2052 S   0  0  0  0  0  0  0  0  0  0  0  0
   71.6528   30.3751   39.7894 S   0  0  0  0  0  0  0  0  0  0  0  0
   73.7622   30.3671   39.7789 S   0  0  0  0  0  0  0  0  0  0  0  0
   74.4528   31.5765   41.3632 S   0  0  0  0  0  0  0  0  0  0  0  0
   76.5622   31.5685   41.3526 S   0  0  0  0  0  0  0  0  0  0  0  0
   77.2528   32.7779   42.9369 S   0  0  0  0  0  0  0  0  0  0  0  0
   79.3622   32.7699   42.9264 S   0  0  0  0  0  0  0  0  0  0  0  0
   80.0528   33.9793   44.5106 S   0  0  0  0  0  0  0  0  0  0  0  0
   82.1622   33.9713   44.5001 S   0  0  0  0  0  0  0  0  0  0  0  0
   82.8528   35.1807   46.0844 S   0  0  0  0  0  0  0  0  0  0  0  0
   84.9622   35.1727   46.0738 S   0  0  0  0  0  0  0  0  0  0  0  0
   85.6528   36.3821   47.6581 S   0  0  0  0  0  0  0  0  0  0  0  0
   87.7622   36.3741   47.6476 S   0  0  0  0  0  0  0  0  0  0  0  0
   88.4528   37.5835   49.2318 S   0  0  0  0  0  0  0  0  0  0  0  0
   90.5622   37.5755   49.2213 S   0  0  0  0  0  0  0  0  0  0  0  0
   91.2528   38.7849   50.8056 S   0  0  0  0  0  0  0  0  0  0  0  0
   93.3622   38.7769   50.7950 S   0  0  0  0  0  0  0  0  0  0  0  0
   94.0528   39.9863   52.3793 S   0  0  0  0  0  0  0  0  0  0  0  0
   96.1621   39.9783   52.3687 S   0  0  0  0  0  0  0  0  0  0  0  0
   96.8526   41.1877   53.9530 S   0  0  0  0  0  0  0  0  0  0  0  0
   98.9618   41.1796   53.9423 S   0  0  0  0  0  0  0  0  0  0  0  0
   99.6518   42.3888   55.5263 S   0  0  0  0  0  0  0  0  0  0  0  0
  101.7599   42.3802   55.5151 S   0  0  0  0  0  0  0  0  0  0  0  0
  102.4480   43.5887   57.0978 S   0  0  0  0  0  0  0  0  0  0  0  0
  104.5517   43.5773   57.0839 S   0  0  0  0  0  0  0  0  0  0  0  0
  105.2323   44.7827   58.6621 S   0  0  0  0  0  0  0  0  0  0  0  0
  107.3213   44.7824   58.6156 S   0  0  0  0  0  0  0  0  0  0  0  0
  107.9970   45.9067   60.2278 S   0  0  0  0  0  0  0  0  0  0  0  0
  110.0686   45.9293   60.1434 S   0  0  0  0  0  0  0  0  0  0  0  0
  110.6720   43.9936   60.4866 S   0  0  0  0  0  0  0  0  0  0  0  0
    9.8193    4.4718   -5.3352 H   0  0  0  0  0  0  0  0  0  0  0  0
   11.2847    4.9955   -4.4823 H   0  0  0  0  0  0  0  0  0  0  0  0
    9.9128    6.1217   -4.6885 H   0  0  0  0  0  0  0  0  0  0  0  0
    9.9070    6.6174   -1.9418 H   0  0  0  0  0  0  0  0  0  0  0  0
   11.2788    5.4935   -1.7375 H   0  0  0  0  0  0  0  0  0  0  0  0
    9.9010    4.1191   -0.1437 H   0  0  0  0  0  0  0  0  0  0  0  0
    8.5465    5.2288   -0.3454 H   0  0  0  0  0  0  0  0  0  0  0  0
    9.9195    7.0748    0.6114 H   0  0  0  0  0  0  0  0  0  0  0  0
   11.2700    5.9681    0.8124 H   0  0  0  0  0  0  0  0  0  0  0  0
    9.8926    4.5552    2.3311 H   0  0  0  0  0  0  0  0  0  0  0  0
    8.5345    5.6759    2.1500 H   0  0  0  0  0  0  0  0  0  0  0  0
    9.9147    7.5244    3.1388 H   0  0  0  0  0  0  0  0  0  0  0  0
   11.2728    6.4225    3.3340 H   0  0  0  0  0  0  0  0  0  0  0  0
  112.0130   44.1054   60.4322 H   0  0  0  0  0  0  0  0  0  0  0  0
  1  2  1  0  0  0  0
  1 82  1  0  0  0  0
  1 83  1  0  0  0  0
  1 84  1  0  0  0  0
  2  3  1  0  0  0  0
  3  4  1  0  0  0  0
  3 85  1  0  0  0  0
  3 86  1  0  0  0  0
  4  5  1  0  0  0  0
  4 87  1  0  0  0  0
  4 88  1  0  0  0  0
  5  6  1  0  0  0  0
  5 89  1  0  0  0  0
  5 90  1  0  0  0  0
  6  7  1  0  0  0  0
  6 91  1  0  0  0  0
  6 92  1  0  0  0  0
  7  8  1  0  0  0  0
  7 93  1  0  0  0  0
  7 94  1  0  0  0  0
  8  9  1  0  0  0  0
  9 10  1  0  0  0  0
 10 11  1  0  0  0  0
 11 12  1  0  0  0  0
 12 13  1  0  0  0  0
 13 14  1  0  0  0  0
 14 15  1  0  0  0  0
 15 16  1  0  0  0  0
 16 17  1  0  0  0  0
 17 18  1  0  0  0  0
 18 19  1  0  0  0  0
 19 20  1  0  0  0  0
 20 21  1  0  0  0  0
 21 22  1  0  0  0  0
 22 23  1  0  0  0  0
 23 24  1  0  0  0  0
 24 25  1  0  0  0  0
 25 26  1  0  0  0  0
 26 27  1  0  0  0  0
 27 28  1  0  0  0  0
 28 29  1  0  0  0  0
 29 30  1  0  0  0  0
 30 31  1  0  0  0  0
 31 32  1  0  0  0  0
 32 33  1  0  0  0  0
 33 34  1  0  0  0  0
 34 35  1  0  0  0  0
 35 36  1  0  0  0  0
 36 37  1  0  0  0  0
 37 38  1  0  0  0  0
 38 39  1  0  0  0  0
 39 40  1  0  0  0  0
 40 41  1  0  0  0  0
 41 42  1  0  0  0  0
 42 43  1  0  0  0  0
 43 44  1  0  0  0  0
 44 45  1  0  0  0  0
 45 46  1  0  0  0  0
 46 47  1  0  0  0  0
 47 48  1  0  0  0  0
 48 49  1  0  0  0  0
 49 50  1  0  0  0  0
 50 51  1  0  0  0  0
 51 52  1  0  0  0  0
 52 53  1  0  0  0  0
 53 54  1  0  0  0  0
 54 55  1  0  0  0  0
 55 56  1  0  0  0  0
 56 57  1  0  0  0  0
 57 58  1  0  0  0  0
 58 59  1  0  0  0  0
 59 60  1  0  0  0  0
 60 61  1  0  0  0  0
 61 62  1  0  0  0  0
 62 63  1  0  0  0  0
 63 64  1  0  0  0  0
 64 65  1  0  0  0  0
 65 66  1  0  0  0  0
 66 67  1  0  0  0  0
 67 68  1  0  0  0  0
 68 69  1  0  0  0  0
 69 70  1  0  0  0  0
 70 71  1  0  0  0  0
 71 72  1  0  0  0  0
 72 73  1  0  0  0  0
 73 74  1  0  0  0  0
 74 75  1  0  0  0  0
 75 76  1  0  0  0  0
 76 77  1  0  0  0  0
 77 78  1  0  0  0  0
 78 79  1  0  0  0  0
 79 80  1  0  0  0  0
 80 81  1  0  0  0  0
 81 95  1  0  0  0  0
M  END
$$$$
