
 OpenBabel04232216583D

 92 91  0  0  0  0  0  0  0  0999 V2000
   15.6314  -11.1158   -5.2230 N   0  0  0  0  0  0  0  0  0  0  0  0
   14.8998  -12.0500   -4.5652 N   0  0  0  0  0  0  0  0  0  0  0  0
   13.9746  -11.4447   -3.9945 N   0  0  0  0  0  0  0  0  0  0  0  0
   13.1565  -12.2765   -3.2875 N   0  0  0  0  0  0  0  0  0  0  0  0
   13.5307  -12.7854   -2.0104 N   0  0  0  0  0  0  0  0  0  0  0  0
   14.9338  -12.8917   -1.7862 N   0  0  0  0  0  0  0  0  0  0  0  0
   15.4466  -11.6188   -1.3844 N   0  0  0  0  0  0  0  0  0  0  0  0
   16.8023  -11.6512   -0.9032 N   0  0  0  0  0  0  0  0  0  0  0  0
   17.7578  -12.0700   -1.9078 N   0  0  0  0  0  0  0  0  0  0  0  0
   17.4615  -11.5203   -3.1957 N   0  0  0  0  0  0  0  0  0  0  0  0
   17.8674  -10.1721   -3.3700 N   0  0  0  0  0  0  0  0  0  0  0  0
   19.2592   -9.9996   -3.3281 N   0  0  0  0  0  0  0  0  0  0  0  0
   19.8579  -10.5416   -4.4875 N   0  0  0  0  0  0  0  0  0  0  0  0
   19.5463   -9.7401   -5.6641 N   0  0  0  0  0  0  0  0  0  0  0  0
   19.9921   -8.3796   -5.5523 N   0  0  0  0  0  0  0  0  0  0  0  0
   21.3552   -8.4171   -5.2006 N   0  0  0  0  0  0  0  0  0  0  0  0
   22.0515   -8.9798   -6.3377 N   0  0  0  0  0  0  0  0  0  0  0  0
   21.6020   -8.3271   -7.5598 N   0  0  0  0  0  0  0  0  0  0  0  0
   21.9274   -6.9296   -7.5244 N   0  0  0  0  0  0  0  0  0  0  0  0
   23.3354   -6.8048   -7.3134 N   0  0  0  0  0  0  0  0  0  0  0  0
   24.0466   -7.4739   -8.3625 N   0  0  0  0  0  0  0  0  0  0  0  0
   23.7565   -6.8497   -9.6127 N   0  0  0  0  0  0  0  0  0  0  0  0
   24.1184   -5.4663   -9.5777 N   0  0  0  0  0  0  0  0  0  0  0  0
   25.5131   -5.3522   -9.2958 N   0  0  0  0  0  0  0  0  0  0  0  0
   26.2435   -6.0063  -10.3440 N   0  0  0  0  0  0  0  0  0  0  0  0
   25.8719   -5.4048  -11.5980 N   0  0  0  0  0  0  0  0  0  0  0  0
   26.1477   -3.9917  -11.5448 N   0  0  0  0  0  0  0  0  0  0  0  0
   27.5517   -3.7963  -11.3063 N   0  0  0  0  0  0  0  0  0  0  0  0
   28.2988   -4.4718  -12.3287 N   0  0  0  0  0  0  0  0  0  0  0  0
   28.0300   -3.8658  -13.6015 N   0  0  0  0  0  0  0  0  0  0  0  0
   28.2835   -2.4503  -13.5073 N   0  0  0  0  0  0  0  0  0  0  0  0
   29.6864   -2.2575  -13.2444 N   0  0  0  0  0  0  0  0  0  0  0  0
   30.4598   -2.8789  -14.3029 N   0  0  0  0  0  0  0  0  0  0  0  0
   30.0702   -2.3061  -15.5741 N   0  0  0  0  0  0  0  0  0  0  0  0
   30.3390   -0.8876  -15.5727 N   0  0  0  0  0  0  0  0  0  0  0  0
   31.7228   -0.6367  -15.2617 N   0  0  0  0  0  0  0  0  0  0  0  0
   32.5594   -1.2219  -16.2822 N   0  0  0  0  0  0  0  0  0  0  0  0
   32.1899   -0.7066  -17.5827 N   0  0  0  0  0  0  0  0  0  0  0  0
   32.3335    0.7177  -17.5806 N   0  0  0  0  0  0  0  0  0  0  0  0
   33.7184    1.0037  -17.3034 N   0  0  0  0  0  0  0  0  0  0  0  0
   34.5760    0.3288  -18.2633 N   0  0  0  0  0  0  0  0  0  0  0  0
   34.4052    0.8511  -19.5915 N   0  0  0  0  0  0  0  0  0  0  0  0
   34.6165    2.2806  -19.6073 N   0  0  0  0  0  0  0  0  0  0  0  0
   36.0114    2.5627  -19.2884 C   0  0  0  0  0  0  0  0  0  0  0  0
   36.2130    4.0697  -19.2818 C   0  0  0  0  0  0  0  0  0  0  0  0
   16.6188  -11.3492   -5.2600 H   0  0  0  0  0  0  0  0  0  0  0  0
   15.5013  -10.2183   -4.7662 H   0  0  0  0  0  0  0  0  0  0  0  0
   12.2816  -11.7686   -3.1898 H   0  0  0  0  0  0  0  0  0  0  0  0
   13.1175  -13.7232   -1.9685 H   0  0  0  0  0  0  0  0  0  0  0  0
   15.3459  -13.2060   -2.6752 H   0  0  0  0  0  0  0  0  0  0  0  0
   14.8012  -11.1691   -0.7247 H   0  0  0  0  0  0  0  0  0  0  0  0
   16.8854  -12.2751   -0.1073 H   0  0  0  0  0  0  0  0  0  0  0  0
   17.6345  -13.0662   -2.0431 H   0  0  0  0  0  0  0  0  0  0  0  0
   16.4394  -11.5820   -3.3276 H   0  0  0  0  0  0  0  0  0  0  0  0
   17.4391   -9.5627   -2.6857 H   0  0  0  0  0  0  0  0  0  0  0  0
   19.6577  -10.3862   -2.4658 H   0  0  0  0  0  0  0  0  0  0  0  0
   19.5415  -11.5120   -4.6102 H   0  0  0  0  0  0  0  0  0  0  0  0
   18.5349   -9.6893   -5.7479 H   0  0  0  0  0  0  0  0  0  0  0  0
   19.4671   -7.9281   -4.8152 H   0  0  0  0  0  0  0  0  0  0  0  0
   21.4263   -9.0571   -4.3963 H   0  0  0  0  0  0  0  0  0  0  0  0
   21.6899   -9.9271   -6.4375 H   0  0  0  0  0  0  0  0  0  0  0  0
   20.5792   -8.4177   -7.5182 H   0  0  0  0  0  0  0  0  0  0  0  0
   21.4247   -6.5383   -6.7150 H   0  0  0  0  0  0  0  0  0  0  0  0
   23.5745   -7.3457   -6.4916 H   0  0  0  0  0  0  0  0  0  0  0  0
   23.6777   -8.4358   -8.3532 H   0  0  0  0  0  0  0  0  0  0  0  0
   22.7473   -6.8544   -9.6964 H   0  0  0  0  0  0  0  0  0  0  0  0
   23.5719   -5.0339   -8.8270 H   0  0  0  0  0  0  0  0  0  0  0  0
   25.6653   -5.9191   -8.4637 H   0  0  0  0  0  0  0  0  0  0  0  0
   25.8713   -6.9659  -10.3257 H   0  0  0  0  0  0  0  0  0  0  0  0
   24.8530   -5.4743  -11.6051 H   0  0  0  0  0  0  0  0  0  0  0  0
   25.6249   -3.6916  -10.7089 H   0  0  0  0  0  0  0  0  0  0  0  0
   27.7379   -4.3338  -10.4626 H   0  0  0  0  0  0  0  0  0  0  0  0
   27.9089   -5.4266  -12.3031 H   0  0  0  0  0  0  0  0  0  0  0  0
   27.0312   -3.9776  -13.7713 H   0  0  0  0  0  0  0  0  0  0  0  0
   27.7484   -2.1443  -12.6762 H   0  0  0  0  0  0  0  0  0  0  0  0
   29.8665   -2.7659  -12.3642 H   0  0  0  0  0  0  0  0  0  0  0  0
   30.1699   -3.8545  -14.3279 H   0  0  0  0  0  0  0  0  0  0  0  0
   29.0419   -2.4163  -15.5818 H   0  0  0  0  0  0  0  0  0  0  0  0
   29.7423   -0.5488  -14.8003 H   0  0  0  0  0  0  0  0  0  0  0  0
   31.9203   -1.0932  -14.3562 H   0  0  0  0  0  0  0  0  0  0  0  0
   32.3591   -2.2241  -16.2840 H   0  0  0  0  0  0  0  0  0  0  0  0
   31.1933   -0.8841  -17.6804 H   0  0  0  0  0  0  0  0  0  0  0  0
   31.7683    0.9955  -16.7692 H   0  0  0  0  0  0  0  0  0  0  0  0
   33.8725    0.5114  -16.4092 H   0  0  0  0  0  0  0  0  0  0  0  0
   34.2932   -0.6652  -18.2427 H   0  0  0  0  0  0  0  0  0  0  0  0
   33.4331    0.6476  -19.8613 H   0  0  0  0  0  0  0  0  0  0  0  0
   34.0448    2.6651  -18.8485 H   0  0  0  0  0  0  0  0  0  0  0  0
   36.6739    2.1077  -20.0326 H   0  0  0  0  0  0  0  0  0  0  0  0
   36.2972    2.1844  -18.2994 H   0  0  0  0  0  0  0  0  0  0  0  0
   35.9689    4.5064  -20.2557 H   0  0  0  0  0  0  0  0  0  0  0  0
   37.2561    4.3051  -19.0521 H   0  0  0  0  0  0  0  0  0  0  0  0
   35.5844    4.5495  -18.5229 H   0  0  0  0  0  0  0  0  0  0  0  0
  1  2  1  0  0  0  0
  1 46  1  0  0  0  0
  1 47  1  0  0  0  0
  2  3  2  3  0  0  0
  3  4  1  0  0  0  0
  4  5  1  0  0  0  0
  4 48  1  0  0  0  0
  5  6  1  0  0  0  0
  5 49  1  0  0  0  0
  6  7  1  0  0  0  0
  6 50  1  0  0  0  0
  7  8  1  0  0  0  0
  7 51  1  0  0  0  0
  8  9  1  0  0  0  0
  8 52  1  0  0  0  0
  9 10  1  0  0  0  0
  9 53  1  0  0  0  0
 10 11  1  0  0  0  0
 10 54  1  0  0  0  0
 11 12  1  0  0  0  0
 11 55  1  0  0  0  0
 12 13  1  0  0  0  0
 12 56  1  0  0  0  0
 13 14  1  0  0  0  0
 13 57  1  0  0  0  0
 14 15  1  0  0  0  0
 14 58  1  0  0  0  0
 15 16  1  0  0  0  0
 15 59  1  0  0  0  0
 16 17  1  0  0  0  0
 16 60  1  0  0  0  0
 17 18  1  0  0  0  0
 17 61  1  0  0  0  0
 18 19  1  0  0  0  0
 18 62  1  0  0  0  0
 19 20  1  0  0  0  0
 19 63  1  0  0  0  0
 20 21  1  0  0  0  0
 20 64  1  0  0  0  0
 21 22  1  0  0  0  0
 21 65  1  0  0  0  0
 22 23  1  0  0  0  0
 22 66  1  0  0  0  0
 23 24  1  0  0  0  0
 23 67  1  0  0  0  0
 24 25  1  0  0  0  0
 24 68  1  0  0  0  0
 25 26  1  0  0  0  0
 25 69  1  0  0  0  0
 26 27  1  0  0  0  0
 26 70  1  0  0  0  0
 27 28  1  0  0  0  0
 27 71  1  0  0  0  0
 28 29  1  0  0  0  0
 28 72  1  0  0  0  0
 29 30  1  0  0  0  0
 29 73  1  0  0  0  0
 30 31  1  0  0  0  0
 30 74  1  0  0  0  0
 31 32  1  0  0  0  0
 31 75  1  0  0  0  0
 32 33  1  0  0  0  0
 32 76  1  0  0  0  0
 33 34  1  0  0  0  0
 33 77  1  0  0  0  0
 34 35  1  0  0  0  0
 34 78  1  0  0  0  0
 35 36  1  0  0  0  0
 35 79  1  0  0  0  0
 36 37  1  0  0  0  0
 36 80  1  0  0  0  0
 37 38  1  0  0  0  0
 37 81  1  0  0  0  0
 38 39  1  0  0  0  0
 38 82  1  0  0  0  0
 39 40  1  0  0  0  0
 39 83  1  0  0  0  0
 40 41  1  0  0  0  0
 40 84  1  0  0  0  0
 41 42  1  0  0  0  0
 41 85  1  0  0  0  0
 42 43  1  0  0  0  0
 42 86  1  0  0  0  0
 43 44  1  0  0  0  0
 43 87  1  0  0  0  0
 44 45  1  0  0  0  0
 44 88  1  0  0  0  0
 44 89  1  0  0  0  0
 45 90  1  0  0  0  0
 45 91  1  0  0  0  0
 45 92  1  0  0  0  0
M  END
$$$$
