
 OpenBabel04232216573D

 64 65  0  0  0  0  0  0  0  0999 V2000
    2.2691   -1.7047   -0.1028 C   0  0  0  0  0  0  0  0  0  0  0  0
    3.0214   -0.5333   -0.4208 O   0  0  0  0  0  0  0  0  0  0  0  0
    3.6956    0.0425    0.6261 C   0  0  0  0  0  0  0  0  0  0  0  0
    4.0824    1.4158    0.4254 C   0  0  0  0  0  0  0  0  0  0  0  0
    3.6199    2.3631    1.2657 C   0  0  0  0  0  0  0  0  0  0  0  0
    2.3841    2.1994    2.1734 C   0  0  0  0  0  0  0  0  0  0  0  0
    1.5358    3.3139    1.4594 C   0  0  0  0  0  0  0  0  0  0  0  0
    0.1153    3.8235    1.6281 C   0  0  0  0  0  0  0  0  0  0  0  0
   -0.1588    4.9491    0.5568 C   0  0  0  0  0  0  0  0  0  0  0  0
   -1.5646    5.5262    0.7310 C   0  0  0  0  0  0  0  0  0  0  0  0
   -1.9890    6.6433   -0.2416 C   0  0  0  0  0  0  0  0  0  0  0  0
   -3.3524    7.0345    0.1506 N   0  0  0  0  0  0  0  0  0  0  0  0
   -3.9187    8.1053   -0.6727 C   0  0  0  0  0  0  0  0  0  0  0  0
   -5.3293    8.3821   -0.1788 C   0  0  0  0  0  0  0  0  0  0  0  0
   -5.6964    9.4678    0.2644 O   0  0  0  0  0  0  0  0  0  0  0  0
    2.1705    1.1814    3.1394 C   0  0  0  0  0  0  0  0  0  0  0  0
    3.5874    1.1525    3.6097 C   0  0  0  0  0  0  0  0  0  0  0  0
    4.4431    0.3390    2.9890 C   0  0  0  0  0  0  0  0  0  0  0  0
    5.8106    0.2139    3.5517 C   0  0  0  0  0  0  0  0  0  0  0  0
    6.1762   -1.2092    3.2951 C   0  0  0  0  0  0  0  0  0  0  0  0
    6.7443   -1.9503    4.4593 C   0  0  0  0  0  0  0  0  0  0  0  0
    6.2063   -3.3645    4.2728 C   0  0  0  0  0  0  0  0  0  0  0  0
    4.9141   -3.5412    5.0967 C   0  0  0  0  0  0  0  0  0  0  0  0
    3.5055   -2.9674    4.5640 C   0  0  0  0  0  0  0  0  0  0  0  0
    2.7791   -1.5301    4.9378 C   0  0  0  0  0  0  0  0  0  0  0  0
    1.9953   -0.0572    4.2692 C   0  0  0  0  0  0  0  0  0  0  0  0
    3.9316   -0.4723    1.8438 C   0  0  0  0  0  0  0  0  0  0  0  0
    1.6512   -1.9631   -0.9677 H   0  0  0  0  0  0  0  0  0  0  0  0
    1.5923   -1.5385    0.7452 H   0  0  0  0  0  0  0  0  0  0  0  0
    2.9403   -2.5452    0.0993 H   0  0  0  0  0  0  0  0  0  0  0  0
    4.8603    1.6136   -0.2994 H   0  0  0  0  0  0  0  0  0  0  0  0
    4.0440    3.3617    1.1849 H   0  0  0  0  0  0  0  0  0  0  0  0
    1.5862    3.0619    0.3790 H   0  0  0  0  0  0  0  0  0  0  0  0
    2.1402    4.2247    1.5798 H   0  0  0  0  0  0  0  0  0  0  0  0
   -0.0031    4.2480    2.6286 H   0  0  0  0  0  0  0  0  0  0  0  0
   -0.6030    3.0119    1.4912 H   0  0  0  0  0  0  0  0  0  0  0  0
   -0.0459    4.5438   -0.4588 H   0  0  0  0  0  0  0  0  0  0  0  0
    0.5848    5.7541    0.6492 H   0  0  0  0  0  0  0  0  0  0  0  0
   -1.6365    5.9124    1.7544 H   0  0  0  0  0  0  0  0  0  0  0  0
   -2.2784    4.6996    0.6390 H   0  0  0  0  0  0  0  0  0  0  0  0
   -1.9786    6.2796   -1.2761 H   0  0  0  0  0  0  0  0  0  0  0  0
   -1.3093    7.5012   -0.1717 H   0  0  0  0  0  0  0  0  0  0  0  0
   -3.3300    7.3524    1.1223 H   0  0  0  0  0  0  0  0  0  0  0  0
   -3.9942    7.8105   -1.7238 H   0  0  0  0  0  0  0  0  0  0  0  0
   -3.3342    9.0271   -0.5913 H   0  0  0  0  0  0  0  0  0  0  0  0
   -6.0351    7.5357   -0.2495 H   0  0  0  0  0  0  0  0  0  0  0  0
    3.8433    1.7760    4.4653 H   0  0  0  0  0  0  0  0  0  0  0  0
    5.7892    0.4450    4.6273 H   0  0  0  0  0  0  0  0  0  0  0  0
    6.5128    0.9126    3.0881 H   0  0  0  0  0  0  0  0  0  0  0  0
    6.7672   -1.3124    2.3820 H   0  0  0  0  0  0  0  0  0  0  0  0
    5.2592   -1.7561    3.0926 H   0  0  0  0  0  0  0  0  0  0  0  0
    6.4016   -1.5425    5.4183 H   0  0  0  0  0  0  0  0  0  0  0  0
    7.8341   -1.8876    4.4390 H   0  0  0  0  0  0  0  0  0  0  0  0
    6.9904   -4.0728    4.5637 H   0  0  0  0  0  0  0  0  0  0  0  0
    5.9978   -3.6074    3.2171 H   0  0  0  0  0  0  0  0  0  0  0  0
    5.1025   -3.2484    6.1369 H   0  0  0  0  0  0  0  0  0  0  0  0
    4.8125   -4.6415    5.1418 H   0  0  0  0  0  0  0  0  0  0  0  0
    3.3098   -3.3154    3.5470 H   0  0  0  0  0  0  0  0  0  0  0  0
    2.8847   -3.6597    5.1759 H   0  0  0  0  0  0  0  0  0  0  0  0
    1.7965   -2.0091    5.1273 H   0  0  0  0  0  0  0  0  0  0  0  0
    3.1123   -1.2792    5.9522 H   0  0  0  0  0  0  0  0  0  0  0  0
    1.8922    0.4990    5.2323 H   0  0  0  0  0  0  0  0  0  0  0  0
    0.9772   -0.4187    4.0729 H   0  0  0  0  0  0  0  0  0  0  0  0
    3.5663   -1.4601    2.0912 H   0  0  0  0  0  0  0  0  0  0  0  0
  1  2  1  0  0  0  0
  1 28  1  0  0  0  0
  1 29  1  0  0  0  0
  1 30  1  0  0  0  0
  2  3  1  0  0  0  0
  3  4  1  0  0  0  0
  3 27  2  0  0  0  0
  4  5  2  0  0  0  0
  4 31  1  0  0  0  0
  5  6  1  0  0  0  0
  5 32  1  0  0  0  0
  6  7  1  0  0  0  0
  6 16  2  0  0  0  0
  7  8  1  0  0  0  0
  7 33  1  0  0  0  0
  7 34  1  0  0  0  0
  8  9  1  0  0  0  0
  8 35  1  0  0  0  0
  8 36  1  0  0  0  0
  9 10  1  0  0  0  0
  9 37  1  0  0  0  0
  9 38  1  0  0  0  0
 10 11  1  0  0  0  0
 10 39  1  0  0  0  0
 10 40  1  0  0  0  0
 11 12  1  0  0  0  0
 11 41  1  0  0  0  0
 11 42  1  0  0  0  0
 12 13  1  0  0  0  0
 12 43  1  0  0  0  0
 13 14  1  0  0  0  0
 13 44  1  0  0  0  0
 13 45  1  0  0  0  0
 14 15  2  0  0  0  0
 14 46  1  0  0  0  0
 16 17  1  0  0  0  0
 16 26  1  0  0  0  0
 17 18  2  0  0  0  0
 17 47  1  0  0  0  0
 18 19  1  0  0  0  0
 18 27  1  0  0  0  0
 19 20  1  0  0  0  0
 19 48  1  0  0  0  0
 19 49  1  0  0  0  0
 20 21  1  0  0  0  0
 20 50  1  0  0  0  0
 20 51  1  0  0  0  0
 21 22  1  0  0  0  0
 21 52  1  0  0  0  0
 21 53  1  0  0  0  0
 22 23  1  0  0  0  0
 22 54  1  0  0  0  0
 22 55  1  0  0  0  0
 23 24  1  0  0  0  0
 23 56  1  0  0  0  0
 23 57  1  0  0  0  0
 24 25  1  0  0  0  0
 24 58  1  0  0  0  0
 24 59  1  0  0  0  0
 25 26  1  0  0  0  0
 25 60  1  0  0  0  0
 25 61  1  0  0  0  0
 26 62  1  0  0  0  0
 26 63  1  0  0  0  0
 27 64  1  0  0  0  0
M  END
$$$$
