
 OpenBabel04232216423D

 24 24  0  0  0  0  0  0  0  0999 V2000
    1.1127    0.5807    0.0668 C   0  0  0  0  0  0  0  0  0  0  0  0
    2.2477   -0.2784    0.1887 C   0  0  0  0  0  0  0  0  0  0  0  0
    1.4330   -1.3279    0.4013 C   0  0  0  0  0  0  0  0  0  0  0  0
    0.3010   -0.4477    0.3787 C   0  0  0  0  0  0  0  0  0  0  0  0
   -1.1945   -0.6258    0.5498 C   0  0  0  0  0  0  0  0  0  0  0  0
   -1.5607   -1.2053    1.9255 C   0  0  0  0  0  0  0  0  0  0  0  0
   -3.0237   -1.3098    2.0281 N   0  0  0  0  0  0  0  0  0  0  0  0
   -3.4471   -1.7990    3.3467 C   0  0  0  0  0  0  0  0  0  0  0  0
   -4.9866   -1.8667    3.4280 C   0  0  0  0  0  0  0  0  0  0  0  0
   -5.5739   -2.6484    2.3306 N   0  0  0  0  0  0  0  0  0  0  0  0
    0.9772    1.6331   -0.1567 H   0  0  0  0  0  0  0  0  0  0  0  0
    3.3183   -0.1309    0.1021 H   0  0  0  0  0  0  0  0  0  0  0  0
    1.5656   -2.3916    0.5585 H   0  0  0  0  0  0  0  0  0  0  0  0
   -1.5302   -1.3639   -0.1906 H   0  0  0  0  0  0  0  0  0  0  0  0
   -1.7109    0.3244    0.3772 H   0  0  0  0  0  0  0  0  0  0  0  0
   -1.1716   -0.5492    2.7136 H   0  0  0  0  0  0  0  0  0  0  0  0
   -1.1020   -2.1948    2.0564 H   0  0  0  0  0  0  0  0  0  0  0  0
   -3.3520   -1.9839    1.3367 H   0  0  0  0  0  0  0  0  0  0  0  0
   -3.0839   -1.1345    4.1389 H   0  0  0  0  0  0  0  0  0  0  0  0
   -3.0334   -2.7994    3.5252 H   0  0  0  0  0  0  0  0  0  0  0  0
   -5.4023   -0.8528    3.3942 H   0  0  0  0  0  0  0  0  0  0  0  0
   -5.2821   -2.3112    4.3842 H   0  0  0  0  0  0  0  0  0  0  0  0
   -5.4185   -2.1310    1.4648 H   0  0  0  0  0  0  0  0  0  0  0  0
   -6.5861   -2.6691    2.4525 H   0  0  0  0  0  0  0  0  0  0  0  0
  1  2  1  0  0  0  0
  1  4  2  0  0  0  0
  1 11  1  0  0  0  0
  2  3  2  0  0  0  0
  2 12  1  0  0  0  0
  3  4  1  0  0  0  0
  3 13  1  0  0  0  0
  4  5  1  0  0  0  0
  5  6  1  0  0  0  0
  5 14  1  0  0  0  0
  5 15  1  0  0  0  0
  6  7  1  0  0  0  0
  6 16  1  0  0  0  0
  6 17  1  0  0  0  0
  7  8  1  0  0  0  0
  7 18  1  0  0  0  0
  8  9  1  0  0  0  0
  8 19  1  0  0  0  0
  8 20  1  0  0  0  0
  9 10  1  0  0  0  0
  9 21  1  0  0  0  0
  9 22  1  0  0  0  0
 10 23  1  0  0  0  0
 10 24  1  0  0  0  0
M  END
$$$$
