
 OpenBabel04232216423D

 45 47  0  0  0  0  0  0  0  0999 V2000
    0.9534    1.6126   -0.8797 C   0  0  0  0  0  0  0  0  0  0  0  0
    1.2863    0.3841   -1.5395 C   0  0  0  0  0  0  0  0  0  0  0  0
    1.2536   -0.9128   -1.2178 C   0  0  0  0  0  0  0  0  0  0  0  0
    0.8720   -1.7038   -0.0638 C   0  0  0  0  0  0  0  0  0  0  0  0
    1.3846   -3.0308   -0.0560 N   0  0  0  0  0  0  0  0  0  0  0  0
    0.5672   -4.2489   -0.2817 C   0  0  0  0  0  0  0  0  0  0  0  0
   -0.9354   -4.0925   -0.4571 C   0  0  0  0  0  0  0  0  0  0  0  0
    2.8371   -3.3198   -0.2548 C   0  0  0  0  0  0  0  0  0  0  0  0
    3.6762   -2.8420    0.9200 C   0  0  0  0  0  0  0  0  0  0  0  0
    5.0993   -3.3230    0.7368 C   0  0  0  0  0  0  0  0  0  0  0  0
    5.3934   -4.5864    0.5717 N   0  0  0  0  0  0  0  0  0  0  0  0
    6.7772   -4.6720    0.5582 C   0  0  0  0  0  0  0  0  0  0  0  0
    7.4060   -5.7167    0.4575 O   0  0  0  0  0  0  0  0  0  0  0  0
    7.3243   -3.3982    0.7211 N   0  0  0  0  0  0  0  0  0  0  0  0
    8.6412   -3.1664    1.0318 C   0  0  0  0  0  0  0  0  0  0  0  0
    9.2741   -2.0074    1.2399 C   0  0  0  0  0  0  0  0  0  0  0  0
    8.7881   -0.6748    1.0050 C   0  0  0  0  0  0  0  0  0  0  0  0
    7.5195   -0.2975    0.8241 C   0  0  0  0  0  0  0  0  0  0  0  0
    6.3486   -1.1380    0.8660 C   0  0  0  0  0  0  0  0  0  0  0  0
    6.3133   -2.4720    0.7873 C   0  0  0  0  0  0  0  0  0  0  0  0
    0.0507   -1.3339    0.9328 C   0  0  0  0  0  0  0  0  0  0  0  0
   -0.7462   -0.1809    1.2596 C   0  0  0  0  0  0  0  0  0  0  0  0
   -0.7220    1.1169    0.9556 C   0  0  0  0  0  0  0  0  0  0  0  0
    0.1301    1.9105    0.1239 C   0  0  0  0  0  0  0  0  0  0  0  0
    1.4088    2.4771   -1.3719 H   0  0  0  0  0  0  0  0  0  0  0  0
    1.7053    0.5883   -2.5285 H   0  0  0  0  0  0  0  0  0  0  0  0
    1.6189   -1.5522   -2.0246 H   0  0  0  0  0  0  0  0  0  0  0  0
    0.7455   -4.9431    0.5497 H   0  0  0  0  0  0  0  0  0  0  0  0
    0.9307   -4.7475   -1.1903 H   0  0  0  0  0  0  0  0  0  0  0  0
   -1.4250   -3.7348    0.4520 H   0  0  0  0  0  0  0  0  0  0  0  0
   -1.3737   -5.0741   -0.6865 H   0  0  0  0  0  0  0  0  0  0  0  0
   -1.1836   -3.4256   -1.2873 H   0  0  0  0  0  0  0  0  0  0  0  0
    3.1951   -2.8796   -1.1915 H   0  0  0  0  0  0  0  0  0  0  0  0
    2.9710   -4.4017   -0.3599 H   0  0  0  0  0  0  0  0  0  0  0  0
    3.3120   -3.2883    1.8586 H   0  0  0  0  0  0  0  0  0  0  0  0
    3.6270   -1.7619    1.0398 H   0  0  0  0  0  0  0  0  0  0  0  0
    9.2194   -4.0821    1.1627 H   0  0  0  0  0  0  0  0  0  0  0  0
   10.3131   -2.0570    1.5659 H   0  0  0  0  0  0  0  0  0  0  0  0
    9.5653    0.0868    0.9456 H   0  0  0  0  0  0  0  0  0  0  0  0
    7.3272    0.7547    0.6165 H   0  0  0  0  0  0  0  0  0  0  0  0
    5.4194   -0.5738    0.9091 H   0  0  0  0  0  0  0  0  0  0  0  0
   -0.1260   -2.1139    1.6768 H   0  0  0  0  0  0  0  0  0  0  0  0
   -1.5178   -0.4411    1.9906 H   0  0  0  0  0  0  0  0  0  0  0  0
   -1.4620    1.7310    1.4681 H   0  0  0  0  0  0  0  0  0  0  0  0
    0.0211    2.9804    0.3330 H   0  0  0  0  0  0  0  0  0  0  0  0
  1  2  1  0  0  0  0
  1 24  2  0  0  0  0
  1 25  1  0  0  0  0
  2  3  2  0  0  0  0
  2 26  1  0  0  0  0
  3  4  1  0  0  0  0
  3 27  1  0  0  0  0
  4  5  1  0  0  0  0
  4 21  2  0  0  0  0
  5  6  1  0  0  0  0
  5  8  1  0  0  0  0
  6  7  1  0  0  0  0
  6 28  1  0  0  0  0
  6 29  1  0  0  0  0
  7 30  1  0  0  0  0
  7 31  1  0  0  0  0
  7 32  1  0  0  0  0
  8  9  1  0  0  0  0
  8 33  1  0  0  0  0
  8 34  1  0  0  0  0
  9 10  1  0  0  0  0
  9 35  1  0  0  0  0
  9 36  1  0  0  0  0
 10 11  2  0  0  0  0
 10 20  1  0  0  0  0
 11 12  1  0  0  0  0
 12 13  2  0  0  0  0
 12 14  1  0  0  0  0
 14 15  1  0  0  0  0
 14 20  1  0  0  0  0
 15 16  2  0  0  0  0
 15 37  1  0  0  0  0
 16 17  1  0  0  0  0
 16 38  1  0  0  0  0
 17 18  2  0  0  0  0
 17 39  1  0  0  0  0
 18 19  1  0  0  0  0
 18 40  1  0  0  0  0
 19 20  2  0  0  0  0
 19 41  1  0  0  0  0
 21 22  1  0  0  0  0
 21 42  1  0  0  0  0
 22 23  2  0  0  0  0
 22 43  1  0  0  0  0
 23 24  1  0  0  0  0
 23 44  1  0  0  0  0
 24 45  1  0  0  0  0
M  END
$$$$
