
 OpenBabel04232216443D

 70 71  0  0  0  0  0  0  0  0999 V2000
    1.6705    2.3453   -0.1993 C   0  0  0  0  0  0  0  0  0  0  0  0
    3.1181    2.0318    0.2218 C   0  0  0  0  0  0  0  0  0  0  0  0
    3.4909    0.5394    0.5135 C   0  0  0  0  0  0  0  0  0  0  0  0
    2.3110   -0.2039    1.3164 C   0  0  0  0  0  0  0  0  0  0  0  0
    1.9611   -0.5181    2.8387 C   0  0  0  0  0  0  0  0  0  0  0  0
    2.0913    0.4711    4.0235 C   0  0  0  0  0  0  0  0  0  0  0  0
    1.9976   -0.3012    5.3680 C   0  0  0  0  0  0  0  0  0  0  0  0
    2.0800    0.4923    6.6827 C   0  0  0  0  0  0  0  0  0  0  0  0
    0.9009    1.4346    6.8779 C   0  0  0  0  0  0  0  0  0  0  0  0
    0.9272    2.1038    8.2403 C   0  0  0  0  0  0  0  0  0  0  0  0
    4.6737    0.0076   -0.0041 C   0  0  0  0  0  0  0  0  0  0  0  0
    5.5186   -1.2706    0.1146 C   0  0  0  0  0  0  0  0  0  0  0  0
    5.2750   -2.5123   -0.4010 C   0  0  0  0  0  0  0  0  0  0  0  0
    6.3059   -3.5055   -0.0109 C   0  0  0  0  0  0  0  0  0  0  0  0
    7.3019   -2.8907    0.6378 C   0  0  0  0  0  0  0  0  0  0  0  0
    6.8774   -1.5066    0.8262 C   0  0  0  0  0  0  0  0  0  0  0  0
    7.4075   -0.9519    1.9105 C   0  0  0  0  0  0  0  0  0  0  0  0
    6.7564    0.0057    2.7489 C   0  0  0  0  0  0  0  0  0  0  0  0
    5.3063   -0.3308    3.0817 C   0  0  0  0  0  0  0  0  0  0  0  0
    4.8057   -1.7976    2.8647 C   0  0  0  0  0  0  0  0  0  0  0  0
    4.5335   -2.7476    3.9856 C   0  0  0  0  0  0  0  0  0  0  0  0
    7.4331    1.1569    2.9216 C   0  0  0  0  0  0  0  0  0  0  0  0
    6.7758    2.4186    3.0524 C   0  0  0  0  0  0  0  0  0  0  0  0
    7.3572    3.6238    3.2103 C   0  0  0  0  0  0  0  0  0  0  0  0
    6.4907    4.7296    2.9244 C   0  0  0  0  0  0  0  0  0  0  0  0
    6.5548    6.0655    2.9466 C   0  0  0  0  0  0  0  0  0  0  0  0
    5.2631    6.5081    2.3436 C   0  0  0  0  0  0  0  0  0  0  0  0
    4.9981    5.9897    1.1826 N   0  0  0  0  0  0  0  0  0  0  0  0
    3.7093    5.6367    0.8908 C   0  0  0  0  0  0  0  0  0  0  0  0
    3.4804    4.5197    0.1560 C   0  0  0  0  0  0  0  0  0  0  0  0
    3.9413    3.1104    0.3643 C   0  0  0  0  0  0  0  0  0  0  0  0
    0.9561    1.5300   -0.1684 H   0  0  0  0  0  0  0  0  0  0  0  0
    1.6496    2.6879   -1.2416 H   0  0  0  0  0  0  0  0  0  0  0  0
    1.2483    3.1322    0.4376 H   0  0  0  0  0  0  0  0  0  0  0  0
    2.1715   -1.1579    0.7860 H   0  0  0  0  0  0  0  0  0  0  0  0
    1.3940    0.3213    1.0717 H   0  0  0  0  0  0  0  0  0  0  0  0
    2.3675   -1.4827    3.1376 H   0  0  0  0  0  0  0  0  0  0  0  0
    0.8867   -0.7678    2.8231 H   0  0  0  0  0  0  0  0  0  0  0  0
    1.2692    1.1913    3.9766 H   0  0  0  0  0  0  0  0  0  0  0  0
    3.0251    1.0345    3.9852 H   0  0  0  0  0  0  0  0  0  0  0  0
    2.8339   -0.9982    5.4290 H   0  0  0  0  0  0  0  0  0  0  0  0
    1.0924   -0.9266    5.3892 H   0  0  0  0  0  0  0  0  0  0  0  0
    3.0293    1.0400    6.7315 H   0  0  0  0  0  0  0  0  0  0  0  0
    2.1027   -0.2284    7.5141 H   0  0  0  0  0  0  0  0  0  0  0  0
   -0.0342    0.8730    6.7715 H   0  0  0  0  0  0  0  0  0  0  0  0
    0.9178    2.1982    6.0983 H   0  0  0  0  0  0  0  0  0  0  0  0
    0.8364    1.3676    9.0452 H   0  0  0  0  0  0  0  0  0  0  0  0
    0.0893    2.8016    8.3233 H   0  0  0  0  0  0  0  0  0  0  0  0
    1.8566    2.6651    8.3850 H   0  0  0  0  0  0  0  0  0  0  0  0
    5.2515    0.6856   -0.6441 H   0  0  0  0  0  0  0  0  0  0  0  0
    4.4267   -2.8402   -0.9800 H   0  0  0  0  0  0  0  0  0  0  0  0
    6.1807   -4.5749   -0.0157 H   0  0  0  0  0  0  0  0  0  0  0  0
    8.0389   -3.4144    1.2520 H   0  0  0  0  0  0  0  0  0  0  0  0
    8.3262   -1.3773    2.3909 H   0  0  0  0  0  0  0  0  0  0  0  0
    4.7604    0.3081    2.3997 H   0  0  0  0  0  0  0  0  0  0  0  0
    5.0028    0.0542    4.0528 H   0  0  0  0  0  0  0  0  0  0  0  0
    5.4924   -2.4186    2.3226 H   0  0  0  0  0  0  0  0  0  0  0  0
    3.9434   -1.8066    2.1851 H   0  0  0  0  0  0  0  0  0  0  0  0
    5.4366   -3.2382    4.3147 H   0  0  0  0  0  0  0  0  0  0  0  0
    3.8302   -3.5295    3.6350 H   0  0  0  0  0  0  0  0  0  0  0  0
    4.1345   -2.2944    4.8928 H   0  0  0  0  0  0  0  0  0  0  0  0
    8.4893    1.2189    2.6628 H   0  0  0  0  0  0  0  0  0  0  0  0
    5.7180    2.3684    2.7845 H   0  0  0  0  0  0  0  0  0  0  0  0
    8.4093    3.7722    3.4086 H   0  0  0  0  0  0  0  0  0  0  0  0
    5.5575    4.3276    2.5224 H   0  0  0  0  0  0  0  0  0  0  0  0
    7.3446    6.7169    3.2790 H   0  0  0  0  0  0  0  0  0  0  0  0
    4.5360    6.9434    3.0528 H   0  0  0  0  0  0  0  0  0  0  0  0
    3.0805    6.5095    0.6953 H   0  0  0  0  0  0  0  0  0  0  0  0
    3.6906    4.7635   -0.8948 H   0  0  0  0  0  0  0  0  0  0  0  0
    4.9796    2.9994    0.6277 H   0  0  0  0  0  0  0  0  0  0  0  0
  1  2  1  0  0  0  0
  1 32  1  0  0  0  0
  1 33  1  0  0  0  0
  1 34  1  0  0  0  0
  2  3  1  0  0  0  0
  2 31  2  3  0  0  0
  3  4  1  0  0  0  0
  3 11  2  3  0  0  0
  4  5  1  0  0  0  0
  4 35  1  0  0  0  0
  4 36  1  0  0  0  0
  5  6  1  0  0  0  0
  5 37  1  0  0  0  0
  5 38  1  0  0  0  0
  6  7  1  0  0  0  0
  6 39  1  0  0  0  0
  6 40  1  0  0  0  0
  7  8  1  0  0  0  0
  7 41  1  0  0  0  0
  7 42  1  0  0  0  0
  8  9  1  0  0  0  0
  8 43  1  0  0  0  0
  8 44  1  0  0  0  0
  9 10  1  0  0  0  0
  9 45  1  0  0  0  0
  9 46  1  0  0  0  0
 10 47  1  0  0  0  0
 10 48  1  0  0  0  0
 10 49  1  0  0  0  0
 11 12  1  0  0  0  0
 11 50  1  0  0  0  0
 12 13  2  0  0  0  0
 12 16  1  0  0  0  0
 13 14  1  0  0  0  0
 13 51  1  0  0  0  0
 14 15  2  0  0  0  0
 14 52  1  0  0  0  0
 15 16  1  0  0  0  0
 15 53  1  0  0  0  0
 16 17  2  3  0  0  0
 17 18  1  0  0  0  0
 17 54  1  0  0  0  0
 18 19  1  0  0  0  0
 18 22  2  3  0  0  0
 19 20  1  0  0  0  0
 19 55  1  0  0  0  0
 19 56  1  0  0  0  0
 20 21  1  0  0  0  0
 20 57  1  0  0  0  0
 20 58  1  0  0  0  0
 21 59  1  0  0  0  0
 21 60  1  0  0  0  0
 21 61  1  0  0  0  0
 22 23  1  0  0  0  0
 22 62  1  0  0  0  0
 23 24  2  3  0  0  0
 23 63  1  0  0  0  0
 24 25  1  0  0  0  0
 24 64  1  0  0  0  0
 25 26  2  3  0  0  0
 25 65  1  0  0  0  0
 26 27  1  0  0  0  0
 26 66  1  0  0  0  0
 27 28  2  3  0  0  0
 27 67  1  0  0  0  0
 28 29  1  0  0  0  0
 29 30  2  3  0  0  0
 29 68  1  0  0  0  0
 30 31  1  0  0  0  0
 30 69  1  0  0  0  0
 31 70  1  0  0  0  0
M  END
$$$$
