
 OpenBabel04232216473D

 73 74  0  0  1  0  0  0  0  0999 V2000
    5.0177   -0.1284   -2.3504 C   0  0  0  0  0  0  0  0  0  0  0  0
    6.7385   -0.2071   -2.9532 C   0  0  0  0  0  0  0  0  0  0  0  0
    7.5724   -0.0770   -1.9154 C   0  0  0  0  0  0  0  0  0  0  0  0
    8.6459    1.1970   -1.9305 C   0  0  3  0  0  0  0  0  0  0  0  0
    8.6655    1.1625   -0.2390 C   0  0  0  0  0  0  0  0  0  0  0  0
    7.3860    2.1337   -2.1293 C   0  0  0  0  0  0  0  0  0  0  0  0
    7.7329    3.4039   -1.5053 C   0  0  0  0  0  0  0  0  0  0  0  0
    7.5909    4.2110   -2.7210 C   0  0  3  0  0  0  0  0  0  0  0  0
    6.3660    4.9898   -2.4973 C   0  0  0  0  0  0  0  0  0  0  0  0
    5.6972    5.4404   -3.7641 C   0  0  0  0  0  0  0  0  0  0  0  0
    4.7509    6.4845   -3.2334 C   0  0  0  0  0  0  0  0  0  0  0  0
    8.9322    4.7431   -2.7303 C   0  0  0  0  0  0  0  0  0  0  0  0
    9.4234    4.6017   -3.9313 C   0  0  0  0  0  0  0  0  0  0  0  0
   10.8537    4.5316   -4.0210 C   0  0  0  0  0  0  0  0  0  0  0  0
   10.8605    4.6516   -5.4927 C   0  0  0  0  0  0  0  0  0  0  0  0
   12.2636    4.6409   -5.8415 C   0  0  0  0  0  0  0  0  0  0  0  0
   12.4840    5.9148   -6.5019 C   0  0  0  0  0  0  0  0  0  0  0  0
   13.9144    6.1884   -6.3255 C   0  0  0  0  0  0  0  0  0  0  0  0
   14.2440    6.8359   -7.6342 C   0  0  0  0  0  0  0  0  0  0  0  0
   15.6633    6.5831   -7.7207 C   0  0  0  0  0  0  0  0  0  0  0  0
   16.5280    7.1985   -8.7553 C   0  0  0  0  0  0  0  0  0  0  0  0
   17.7268    6.3769   -8.2232 C   0  0  0  0  0  0  0  0  0  0  0  0
   17.6518    5.0481   -8.3984 N   0  0  0  0  0  0  0  0  0  0  0  0
   17.1581    4.1116   -7.2601 C   0  0  0  0  0  0  0  0  0  0  0  0
   15.7882    3.5119   -7.0769 C   0  0  0  0  0  0  0  0  0  0  0  0
   14.3307    2.5845   -6.1795 C   0  0  0  0  0  0  0  0  0  0  0  0
   13.2295    2.2115   -4.9238 C   0  0  0  0  0  0  0  0  0  0  0  0
   11.5535    1.6136   -4.7341 N   0  0  0  0  0  0  0  0  0  0  0  0
   10.3002    0.9765   -3.5156 S   0  0  3  0  0  0  0  0  0  0  0  0
    8.7311    0.5669   -4.5709 N   0  0  0  0  0  0  0  0  0  0  0  0
    7.3994    0.1900   -4.2061 N   0  0  0  0  0  0  0  0  0  0  0  0
    4.6170    0.8905   -2.1059 H   0  0  0  0  0  0  0  0  0  0  0  0
    4.9241   -0.5782   -1.3158 H   0  0  0  0  0  0  0  0  0  0  0  0
    4.1874   -0.6602   -2.8582 H   0  0  0  0  0  0  0  0  0  0  0  0
    6.9209   -0.0796   -1.0059 H   0  0  0  0  0  0  0  0  0  0  0  0
    7.6931    1.6672    0.0775 H   0  0  0  0  0  0  0  0  0  0  0  0
    9.3137    1.7809    0.3688 H   0  0  0  0  0  0  0  0  0  0  0  0
    8.3546    0.2211    0.2741 H   0  0  0  0  0  0  0  0  0  0  0  0
    6.4910    1.9199   -1.4929 H   0  0  0  0  0  0  0  0  0  0  0  0
    6.8298    2.1158   -3.0873 H   0  0  0  0  0  0  0  0  0  0  0  0
    8.7244    3.3069   -1.0486 H   0  0  0  0  0  0  0  0  0  0  0  0
    7.1117    3.7358   -0.6705 H   0  0  0  0  0  0  0  0  0  0  0  0
    7.4259    3.6377   -3.6603 H   0  0  0  0  0  0  0  0  0  0  0  0
    6.6551    5.8052   -1.8366 H   0  0  0  0  0  0  0  0  0  0  0  0
    5.6197    4.3638   -1.9815 H   0  0  0  0  0  0  0  0  0  0  0  0
    5.1548    4.6102   -4.2452 H   0  0  0  0  0  0  0  0  0  0  0  0
    6.4154    5.8285   -4.4925 H   0  0  0  0  0  0  0  0  0  0  0  0
    4.0128    6.0020   -2.5797 H   0  0  0  0  0  0  0  0  0  0  0  0
    4.2546    7.0242   -4.0296 H   0  0  0  0  0  0  0  0  0  0  0  0
    5.3129    7.1946   -2.6129 H   0  0  0  0  0  0  0  0  0  0  0  0
    9.6828    4.6086   -1.9420 H   0  0  0  0  0  0  0  0  0  0  0  0
    8.7893    4.3574   -4.7892 H   0  0  0  0  0  0  0  0  0  0  0  0
   11.2807    3.6152   -3.6130 H   0  0  0  0  0  0  0  0  0  0  0  0
   11.3309    5.3399   -3.4571 H   0  0  0  0  0  0  0  0  0  0  0  0
   10.3459    5.5834   -5.7836 H   0  0  0  0  0  0  0  0  0  0  0  0
   10.3523    3.8316   -6.0179 H   0  0  0  0  0  0  0  0  0  0  0  0
   12.4240    3.8283   -6.5508 H   0  0  0  0  0  0  0  0  0  0  0  0
   12.9059    4.5466   -4.9550 H   0  0  0  0  0  0  0  0  0  0  0  0
   11.9317    6.7821   -6.1114 H   0  0  0  0  0  0  0  0  0  0  0  0
   12.1624    5.7552   -7.5400 H   0  0  0  0  0  0  0  0  0  0  0  0
   14.4768    5.2646   -6.1417 H   0  0  0  0  0  0  0  0  0  0  0  0
   14.1452    6.7926   -5.4393 H   0  0  0  0  0  0  0  0  0  0  0  0
   13.9337    7.8687   -7.6617 H   0  0  0  0  0  0  0  0  0  0  0  0
   13.7945    6.2738   -8.4688 H   0  0  0  0  0  0  0  0  0  0  0  0
   15.5936    5.5669   -8.0891 H   0  0  0  0  0  0  0  0  0  0  0  0
   16.1362    6.5687   -6.7183 H   0  0  0  0  0  0  0  0  0  0  0  0
   16.4573    8.2912   -8.6573 H   0  0  0  0  0  0  0  0  0  0  0  0
   16.2361    6.8825   -9.7586 H   0  0  0  0  0  0  0  0  0  0  0  0
   18.2247    6.9353   -7.3785 H   0  0  0  0  0  0  0  0  0  0  0  0
   18.0857    4.0538   -6.6260 H   0  0  0  0  0  0  0  0  0  0  0  0
   15.4343    3.5522   -8.2110 H   0  0  0  0  0  0  0  0  0  0  0  0
   15.3092    2.9310   -5.3768 H   0  0  0  0  0  0  0  0  0  0  0  0
   13.7699    2.5490   -3.9649 H   0  0  0  0  0  0  0  0  0  0  0  0
  1  2  1  0  0  0  0
  1 32  1  0  0  0  0
  1 33  1  0  0  0  0
  1 34  1  0  0  0  0
  2  3  2  0  0  0  0
  2 31  1  0  0  0  0
  3  4  1  0  0  0  0
  3 35  1  0  0  0  0
  4  5  1  0  0  0  0
  4  6  1  0  0  0  0
  4 29  1  0  0  0  0
  5 36  1  0  0  0  0
  5 37  1  0  0  0  0
  5 38  1  0  0  0  0
  6  7  1  0  0  0  0
  6 39  1  0  0  0  0
  6 40  1  0  0  0  0
  7  8  1  0  0  0  0
  7 41  1  0  0  0  0
  7 42  1  0  0  0  0
  8  9  1  0  0  0  0
  8 12  1  0  0  0  0
  8 43  1  0  0  0  0
  9 10  1  0  0  0  0
  9 44  1  0  0  0  0
  9 45  1  0  0  0  0
 10 11  1  0  0  0  0
 10 46  1  0  0  0  0
 10 47  1  0  0  0  0
 11 48  1  0  0  0  0
 11 49  1  0  0  0  0
 11 50  1  0  0  0  0
 12 13  2  3  0  0  0
 12 51  1  0  0  0  0
 13 14  1  0  0  0  0
 13 52  1  0  0  0  0
 14 15  1  0  0  0  0
 14 53  1  0  0  0  0
 14 54  1  0  0  0  0
 15 16  1  0  0  0  0
 15 55  1  0  0  0  0
 15 56  1  0  0  0  0
 16 17  1  0  0  0  0
 16 57  1  0  0  0  0
 16 58  1  0  0  0  0
 17 18  1  0  0  0  0
 17 59  1  0  0  0  0
 17 60  1  0  0  0  0
 18 19  1  0  0  0  0
 18 61  1  0  0  0  0
 18 62  1  0  0  0  0
 19 20  1  0  0  0  0
 19 63  1  0  0  0  0
 19 64  1  0  0  0  0
 20 21  1  0  0  0  0
 20 65  1  0  0  0  0
 20 66  1  0  0  0  0
 21 22  1  0  0  0  0
 21 67  1  0  0  0  0
 21 68  1  0  0  0  0
 22 23  2  3  0  0  0
 22 69  1  0  0  0  0
 23 24  1  0  0  0  0
 24 25  2  3  0  0  0
 24 70  1  0  0  0  0
 25 26  1  0  0  0  0
 25 71  1  0  0  0  0
 26 27  2  3  0  0  0
 26 72  1  0  0  0  0
 27 28  1  0  0  0  0
 27 73  1  0  0  0  0
 28 29  2  3  0  0  0
 29 30  1  0  0  0  0
 30 31  2  0  0  0  0
M  END
$$$$
