
 OpenBabel04232216513D

 54 55  0  0  1  0  0  0  0  0999 V2000
    3.6270    1.9900   -1.3234 C   0  0  0  0  0  0  0  0  0  0  0  0
    4.1816    2.4197   -2.8745 C   0  0  0  0  0  0  0  0  0  0  0  0
    5.5295    1.5823   -3.7612 C   0  0  3  0  0  0  0  0  0  0  0  0
    5.7729    0.6211   -2.5660 C   0  0  0  0  0  0  0  0  0  0  0  0
    6.3118   -0.7617   -2.7257 C   0  0  0  0  0  0  0  0  0  0  0  0
    7.7600   -0.6893   -2.2947 C   0  0  0  0  0  0  0  0  0  0  0  0
    8.4564    0.0403   -3.3912 C   0  0  0  0  0  0  0  0  0  0  0  0
    9.8362   -0.4901   -3.7224 C   0  0  0  0  0  0  0  0  0  0  0  0
    9.7086   -0.9311   -5.1733 C   0  0  0  0  0  0  0  0  0  0  0  0
    9.7145    0.0638   -6.0539 C   0  0  0  0  0  0  0  0  0  0  0  0
    8.3936    0.5144   -6.5991 C   0  0  0  0  0  0  0  0  0  0  0  0
    8.1329    1.7997   -6.3714 C   0  0  0  0  0  0  0  0  0  0  0  0
    9.4117    2.6224   -7.3507 C   0  0  0  0  0  0  0  0  0  0  0  0
    9.5654    3.8431   -7.1368 O   0  0  0  0  0  0  0  0  0  0  0  0
   10.8001    2.0281   -8.5255 C   0  0  0  0  0  0  0  0  0  0  0  0
   11.0845    0.8335   -9.0981 C   0  0  0  0  0  0  0  0  0  0  0  0
   12.4300    0.2976   -9.8583 C   0  0  0  0  0  0  0  0  0  0  0  0
   13.1811    0.8227  -11.1279 C   0  0  0  0  0  0  0  0  0  0  0  0
   13.8453    2.1640  -10.9198 C   0  0  0  0  0  0  0  0  0  0  0  0
   12.8236    3.1967  -10.3710 C   0  0  0  0  0  0  0  0  0  0  0  0
   12.0351    3.0689   -8.9119 C   0  0  0  0  0  0  0  0  0  0  0  0
    6.8611    2.2927   -5.0385 C   0  0  0  0  0  0  0  0  0  0  0  0
    2.6113    2.3879   -1.1382 H   0  0  0  0  0  0  0  0  0  0  0  0
    4.2477    2.3772   -0.5013 H   0  0  0  0  0  0  0  0  0  0  0  0
    3.4755    0.9138   -1.1175 H   0  0  0  0  0  0  0  0  0  0  0  0
    4.2849    3.5045   -2.8523 H   0  0  0  0  0  0  0  0  0  0  0  0
    3.2805    2.1534   -3.4465 H   0  0  0  0  0  0  0  0  0  0  0  0
    4.9273    1.0103   -4.4768 H   0  0  0  0  0  0  0  0  0  0  0  0
    4.7756    0.3001   -2.2499 H   0  0  0  0  0  0  0  0  0  0  0  0
    6.1743    1.1570   -1.6865 H   0  0  0  0  0  0  0  0  0  0  0  0
    6.1379   -1.0967   -3.7530 H   0  0  0  0  0  0  0  0  0  0  0  0
    5.7809   -1.4714   -2.0791 H   0  0  0  0  0  0  0  0  0  0  0  0
    8.1349   -1.7020   -2.1317 H   0  0  0  0  0  0  0  0  0  0  0  0
    7.8753   -0.1310   -1.3640 H   0  0  0  0  0  0  0  0  0  0  0  0
    8.4755    1.1284   -3.2137 H   0  0  0  0  0  0  0  0  0  0  0  0
    7.8067   -0.0614   -4.2787 H   0  0  0  0  0  0  0  0  0  0  0  0
   10.1276   -1.3185   -3.0718 H   0  0  0  0  0  0  0  0  0  0  0  0
   10.5625    0.3197   -3.5895 H   0  0  0  0  0  0  0  0  0  0  0  0
    9.0204   -1.7671   -5.3014 H   0  0  0  0  0  0  0  0  0  0  0  0
   10.3697    0.8887   -5.7982 H   0  0  0  0  0  0  0  0  0  0  0  0
    8.4945    0.2574   -7.6711 H   0  0  0  0  0  0  0  0  0  0  0  0
   10.4160   -0.0108   -8.9409 H   0  0  0  0  0  0  0  0  0  0  0  0
   12.2178   -0.7459  -10.1379 H   0  0  0  0  0  0  0  0  0  0  0  0
   13.2195    0.2144   -9.0966 H   0  0  0  0  0  0  0  0  0  0  0  0
   12.5584    0.8438  -12.0311 H   0  0  0  0  0  0  0  0  0  0  0  0
   14.0010    0.1163  -11.4010 H   0  0  0  0  0  0  0  0  0  0  0  0
   14.2427    2.5034  -11.8930 H   0  0  0  0  0  0  0  0  0  0  0  0
   14.7526    2.0750  -10.3059 H   0  0  0  0  0  0  0  0  0  0  0  0
   12.0975    3.3559  -11.1753 H   0  0  0  0  0  0  0  0  0  0  0  0
   13.4287    4.1209  -10.3325 H   0  0  0  0  0  0  0  0  0  0  0  0
   11.6900    4.0874   -8.7386 H   0  0  0  0  0  0  0  0  0  0  0  0
   12.8615    2.8748   -8.2019 H   0  0  0  0  0  0  0  0  0  0  0  0
    6.0938    2.7596   -5.7017 H   0  0  0  0  0  0  0  0  0  0  0  0
    7.2959    3.1133   -4.4576 H   0  0  0  0  0  0  0  0  0  0  0  0
  1  2  1  0  0  0  0
  1 23  1  0  0  0  0
  1 24  1  0  0  0  0
  1 25  1  0  0  0  0
  2  3  1  0  0  0  0
  2 26  1  0  0  0  0
  2 27  1  0  0  0  0
  3  4  1  0  0  0  0
  3 22  1  0  0  0  0
  3 28  1  0  0  0  0
  4  5  1  0  0  0  0
  4 29  1  0  0  0  0
  4 30  1  0  0  0  0
  5  6  1  0  0  0  0
  5 31  1  0  0  0  0
  5 32  1  0  0  0  0
  6  7  1  0  0  0  0
  6 33  1  0  0  0  0
  6 34  1  0  0  0  0
  7  8  1  0  0  0  0
  7 35  1  0  0  0  0
  7 36  1  0  0  0  0
  8  9  1  0  0  0  0
  8 37  1  0  0  0  0
  8 38  1  0  0  0  0
  9 10  2  3  0  0  0
  9 39  1  0  0  0  0
 10 11  1  0  0  0  0
 10 40  1  0  0  0  0
 11 12  2  3  0  0  0
 11 41  1  0  0  0  0
 12 13  1  0  0  0  0
 12 22  1  0  0  0  0
 13 14  2  0  0  0  0
 13 15  1  0  0  0  0
 15 16  2  0  0  0  0
 15 21  1  0  0  0  0
 16 17  1  0  0  0  0
 16 42  1  0  0  0  0
 17 18  1  0  0  0  0
 17 43  1  0  0  0  0
 17 44  1  0  0  0  0
 18 19  1  0  0  0  0
 18 45  1  0  0  0  0
 18 46  1  0  0  0  0
 19 20  1  0  0  0  0
 19 47  1  0  0  0  0
 19 48  1  0  0  0  0
 20 21  1  0  0  0  0
 20 49  1  0  0  0  0
 20 50  1  0  0  0  0
 21 51  1  0  0  0  0
 21 52  1  0  0  0  0
 22 53  1  0  0  0  0
 22 54  1  0  0  0  0
M  END
$$$$
