
 OpenBabel04232216433D

 42 42  0  0  0  0  0  0  0  0999 V2000
    3.1127   -0.2072   -0.7248 C   0  0  0  0  0  0  0  0  0  0  0  0
    3.7378    0.4252   -1.9882 C   0  0  0  0  0  0  0  0  0  0  0  0
    2.5854    0.9148   -2.8534 C   0  0  0  0  0  0  0  0  0  0  0  0
    4.8923    1.4504   -1.7368 C   0  0  0  0  0  0  0  0  0  0  0  0
    5.2094    1.7626   -0.3039 C   0  0  0  0  0  0  0  0  0  0  0  0
    6.3110    0.9083    0.2474 C   0  0  0  0  0  0  0  0  0  0  0  0
    4.7461    3.0109   -0.0115 C   0  0  0  0  0  0  0  0  0  0  0  0
    3.4067    3.4853   -0.5319 C   0  0  0  0  0  0  0  0  0  0  0  0
    5.7010    4.0313    0.4206 C   0  0  0  0  0  0  0  0  0  0  0  0
    5.9411    5.0928   -0.3924 C   0  0  0  0  0  0  0  0  0  0  0  0
    4.9607    5.9303   -1.1945 C   0  0  0  0  0  0  0  0  0  0  0  0
    7.2799    5.1143   -0.9880 C   0  0  0  0  0  0  0  0  0  0  0  0
    7.2737    4.8038   -2.3090 C   0  0  0  0  0  0  0  0  0  0  0  0
    7.7347    5.9002   -3.2419 C   0  0  0  0  0  0  0  0  0  0  0  0
    7.6777    3.3629   -2.5383 C   0  0  0  0  0  0  0  0  0  0  0  0
    9.1953    3.2179   -2.7141 C   0  0  0  0  0  0  0  0  0  0  0  0
    7.0033    2.2427   -2.5342 N   0  0  0  0  0  0  0  0  0  0  0  0
    5.5734    2.0467   -2.7253 N   0  0  0  0  0  0  0  0  0  0  0  0
    2.4264   -1.0212   -1.0031 H   0  0  0  0  0  0  0  0  0  0  0  0
    2.5199    0.5064   -0.1418 H   0  0  0  0  0  0  0  0  0  0  0  0
    3.8547   -0.6500   -0.0519 H   0  0  0  0  0  0  0  0  0  0  0  0
    4.2323   -0.3889   -2.5260 H   0  0  0  0  0  0  0  0  0  0  0  0
    1.8805    1.5366   -2.2875 H   0  0  0  0  0  0  0  0  0  0  0  0
    2.0073    0.0512   -3.2107 H   0  0  0  0  0  0  0  0  0  0  0  0
    2.9223    1.4776   -3.7224 H   0  0  0  0  0  0  0  0  0  0  0  0
    5.8653    0.0551    0.7649 H   0  0  0  0  0  0  0  0  0  0  0  0
    6.9486    1.4246    0.9778 H   0  0  0  0  0  0  0  0  0  0  0  0
    6.9494    0.4919   -0.5347 H   0  0  0  0  0  0  0  0  0  0  0  0
    2.6463    2.7094   -0.4236 H   0  0  0  0  0  0  0  0  0  0  0  0
    3.4506    3.7696   -1.5873 H   0  0  0  0  0  0  0  0  0  0  0  0
    3.0362    4.3266    0.0615 H   0  0  0  0  0  0  0  0  0  0  0  0
    6.5661    3.5802    0.9137 H   0  0  0  0  0  0  0  0  0  0  0  0
    4.0079    6.0652   -0.6834 H   0  0  0  0  0  0  0  0  0  0  0  0
    4.7723    5.5034   -2.1880 H   0  0  0  0  0  0  0  0  0  0  0  0
    5.3678    6.9368   -1.3475 H   0  0  0  0  0  0  0  0  0  0  0  0
    7.9734    4.5452   -0.3568 H   0  0  0  0  0  0  0  0  0  0  0  0
    6.8788    6.3766   -3.7260 H   0  0  0  0  0  0  0  0  0  0  0  0
    8.4236    5.5515   -4.0184 H   0  0  0  0  0  0  0  0  0  0  0  0
    8.2635    6.6868   -2.6943 H   0  0  0  0  0  0  0  0  0  0  0  0
    9.5497    2.2898   -2.2607 H   0  0  0  0  0  0  0  0  0  0  0  0
    9.7375    4.0495   -2.2442 H   0  0  0  0  0  0  0  0  0  0  0  0
    9.4403    3.2180   -3.7838 H   0  0  0  0  0  0  0  0  0  0  0  0
  1  2  1  0  0  0  0
  1 19  1  0  0  0  0
  1 20  1  0  0  0  0
  1 21  1  0  0  0  0
  2  3  1  0  0  0  0
  2  4  1  0  0  0  0
  2 22  1  0  0  0  0
  3 23  1  0  0  0  0
  3 24  1  0  0  0  0
  3 25  1  0  0  0  0
  4  5  1  0  0  0  0
  4 18  2  0  0  0  0
  5  6  1  0  0  0  0
  5  7  2  0  0  0  0
  6 26  1  0  0  0  0
  6 27  1  0  0  0  0
  6 28  1  0  0  0  0
  7  8  1  0  0  0  0
  7  9  1  0  0  0  0
  8 29  1  0  0  0  0
  8 30  1  0  0  0  0
  8 31  1  0  0  0  0
  9 10  2  0  0  0  0
  9 32  1  0  0  0  0
 10 11  1  0  0  0  0
 10 12  1  0  0  0  0
 11 33  1  0  0  0  0
 11 34  1  0  0  0  0
 11 35  1  0  0  0  0
 12 13  2  0  0  0  0
 12 36  1  0  0  0  0
 13 14  1  0  0  0  0
 13 15  1  0  0  0  0
 14 37  1  0  0  0  0
 14 38  1  0  0  0  0
 14 39  1  0  0  0  0
 15 16  1  0  0  0  0
 15 17  2  0  0  0  0
 16 40  1  0  0  0  0
 16 41  1  0  0  0  0
 16 42  1  0  0  0  0
 17 18  1  0  0  0  0
M  END
$$$$
