
 OpenBabel04232216553D

183182  0  0  0  0  0  0  0  0999 V2000
   18.0885   27.2650   11.8493 C   0  0  0  0  0  0  0  0  0  0  0  0
   19.5802   27.3606   12.0673 C   0  0  0  0  0  0  0  0  0  0  0  0
   20.2706   26.0996   11.5709 C   0  0  0  0  0  0  0  0  0  0  0  0
   21.7808   26.1781   11.7892 C   0  0  0  0  0  0  0  0  0  0  0  0
   22.4281   24.9535   11.3062 N   0  0  0  0  0  0  0  0  0  0  0  0
   23.7943   25.0855   11.5077 N   0  0  0  0  0  0  0  0  0  0  0  0
   24.4318   23.9125   11.0333 N   0  0  0  0  0  0  0  0  0  0  0  0
   25.8300   23.9896   11.2577 N   0  0  0  0  0  0  0  0  0  0  0  0
   26.1125   24.1488   12.6288 N   0  0  0  0  0  0  0  0  0  0  0  0
   25.6099   23.0282   13.3714 N   0  0  0  0  0  0  0  0  0  0  0  0
   26.2168   21.8276   12.9063 N   0  0  0  0  0  0  0  0  0  0  0  0
   27.6219   21.9272   13.0731 N   0  0  0  0  0  0  0  0  0  0  0  0
   27.9366   22.1014   14.4781 N   0  0  0  0  0  0  0  0  0  0  0  0
   27.4320   20.9969   15.2348 N   0  0  0  0  0  0  0  0  0  0  0  0
   28.0141   19.7930   14.7670 N   0  0  0  0  0  0  0  0  0  0  0  0
   29.4356   19.8839   14.9154 N   0  0  0  0  0  0  0  0  0  0  0  0
   29.7761   20.0771   16.3223 N   0  0  0  0  0  0  0  0  0  0  0  0
   29.2513   19.0057   17.0846 N   0  0  0  0  0  0  0  0  0  0  0  0
   29.8385   17.7812   16.6353 N   0  0  0  0  0  0  0  0  0  0  0  0
   31.2581   17.8728   16.7565 N   0  0  0  0  0  0  0  0  0  0  0  0
   31.6048   18.0741   18.1386 N   0  0  0  0  0  0  0  0  0  0  0  0
   31.0926   17.0175   18.9270 N   0  0  0  0  0  0  0  0  0  0  0  0
   31.6656   15.7908   18.4849 N   0  0  0  0  0  0  0  0  0  0  0  0
   33.1001   15.8562   18.5988 N   0  0  0  0  0  0  0  0  0  0  0  0
   33.4675   16.0951   19.9660 N   0  0  0  0  0  0  0  0  0  0  0  0
   32.9884   15.0266   20.7857 N   0  0  0  0  0  0  0  0  0  0  0  0
   33.5287   13.7824   20.3388 N   0  0  0  0  0  0  0  0  0  0  0  0
   34.9508   13.8390   20.4218 N   0  0  0  0  0  0  0  0  0  0  0  0
   35.3540   14.0754   21.7865 N   0  0  0  0  0  0  0  0  0  0  0  0
   34.8428   13.0468   22.6262 N   0  0  0  0  0  0  0  0  0  0  0  0
   35.3875   11.7925   22.2030 N   0  0  0  0  0  0  0  0  0  0  0  0
   36.8099   11.8464   22.2464 N   0  0  0  0  0  0  0  0  0  0  0  0
   37.2283   12.0991   23.5954 N   0  0  0  0  0  0  0  0  0  0  0  0
   36.7305   11.0638   24.4571 N   0  0  0  0  0  0  0  0  0  0  0  0
   37.2437    9.8135   24.0174 N   0  0  0  0  0  0  0  0  0  0  0  0
   38.6751    9.8483   24.0709 N   0  0  0  0  0  0  0  0  0  0  0  0
   39.1287   10.1111   25.4097 N   0  0  0  0  0  0  0  0  0  0  0  0
   38.6490    9.0964   26.2891 N   0  0  0  0  0  0  0  0  0  0  0  0
   39.1415    7.8306   25.8625 N   0  0  0  0  0  0  0  0  0  0  0  0
   40.5690    7.8483   25.8808 N   0  0  0  0  0  0  0  0  0  0  0  0
   41.0314    8.1396   27.2023 N   0  0  0  0  0  0  0  0  0  0  0  0
   40.5494    7.1347   28.0923 N   0  0  0  0  0  0  0  0  0  0  0  0
   41.0286    5.8468   27.6692 N   0  0  0  0  0  0  0  0  0  0  0  0
   42.4527    5.8727   27.6530 N   0  0  0  0  0  0  0  0  0  0  0  0
   42.9396    6.1500   28.9832 N   0  0  0  0  0  0  0  0  0  0  0  0
   42.4484    5.1628   29.8839 N   0  0  0  0  0  0  0  0  0  0  0  0
   42.9299    3.8631   29.4830 N   0  0  0  0  0  0  0  0  0  0  0  0
   44.3510    3.8675   29.4572 N   0  0  0  0  0  0  0  0  0  0  0  0
   44.8609    4.1536   30.7765 N   0  0  0  0  0  0  0  0  0  0  0  0
   44.3635    3.1844   31.6911 N   0  0  0  0  0  0  0  0  0  0  0  0
   44.8177    1.8762   31.2849 N   0  0  0  0  0  0  0  0  0  0  0  0
   46.2504    1.8674   31.2435 N   0  0  0  0  0  0  0  0  0  0  0  0
   46.7738    2.1595   32.5568 N   0  0  0  0  0  0  0  0  0  0  0  0
   46.2846    1.2036   33.4907 N   0  0  0  0  0  0  0  0  0  0  0  0
   46.7240   -0.1146   33.1007 N   0  0  0  0  0  0  0  0  0  0  0  0
   48.1557   -0.1514   33.0482 N   0  0  0  0  0  0  0  0  0  0  0  0
   48.6964    0.1572   34.3340 N   0  0  0  0  0  0  0  0  0  0  0  0
   48.2312   -0.7896   35.2826 N   0  0  0  0  0  0  0  0  0  0  0  0
   48.6283   -2.0833   34.8972 N   0  0  0  0  0  0  0  0  0  0  0  0
   50.0436   -2.1562   34.8331 N   0  0  0  0  0  0  0  0  0  0  0  0
   50.5972   -1.8345   36.0954 N   0  0  0  0  0  0  0  0  0  0  0  0
   50.1228   -2.7577   37.0649 N   0  0  0  0  0  0  0  0  0  0  0  0
   50.5030   -4.0892   36.6905 N   0  0  0  0  0  0  0  0  0  0  0  0
   51.9393   -4.1677   36.6047 N   0  0  0  0  0  0  0  0  0  0  0  0
   52.5240   -3.8496   37.8795 N   0  0  0  0  0  0  0  0  0  0  0  0
   52.0466   -4.7685   38.8857 N   0  0  0  0  0  0  0  0  0  0  0  0
   52.4302   -6.1213   38.4719 C   0  0  0  0  0  0  0  0  0  0  0  0
   51.9317   -7.1071   39.4976 C   0  0  0  0  0  0  0  0  0  0  0  0
   52.3235   -8.5157   39.1030 C   0  0  0  0  0  0  0  0  0  0  0  0
   51.8294   -9.5069   40.1337 C   0  0  0  0  0  0  0  0  0  0  0  0
   52.2213  -10.9140   39.7401 C   0  0  0  0  0  0  0  0  0  0  0  0
   51.7269  -11.9041   40.7710 C   0  0  0  0  0  0  0  0  0  0  0  0
   52.1188  -13.3108   40.3773 C   0  0  0  0  0  0  0  0  0  0  0  0
   51.6243  -14.3009   41.4082 C   0  0  0  0  0  0  0  0  0  0  0  0
   52.0163  -15.7076   41.0145 C   0  0  0  0  0  0  0  0  0  0  0  0
   51.5235  -16.6975   42.0465 C   0  0  0  0  0  0  0  0  0  0  0  0
   51.9155  -18.1042   41.6528 C   0  0  0  0  0  0  0  0  0  0  0  0
   51.4227  -19.0939   42.6848 C   0  0  0  0  0  0  0  0  0  0  0  0
   51.8161  -20.5004   42.2925 C   0  0  0  0  0  0  0  0  0  0  0  0
   51.3216  -21.4919   43.3237 C   0  0  0  0  0  0  0  0  0  0  0  0
   51.7164  -22.8928   42.9280 C   0  0  0  0  0  0  0  0  0  0  0  0
   17.5937   28.1704   12.2060 H   0  0  0  0  0  0  0  0  0  0  0  0
   17.6826   26.4071   12.3910 H   0  0  0  0  0  0  0  0  0  0  0  0
   17.8700   27.1421   10.7856 H   0  0  0  0  0  0  0  0  0  0  0  0
   19.7821   27.4965   13.1331 H   0  0  0  0  0  0  0  0  0  0  0  0
   19.9693   28.2301   11.5307 H   0  0  0  0  0  0  0  0  0  0  0  0
   20.0529   25.9719   10.5054 H   0  0  0  0  0  0  0  0  0  0  0  0
   19.8641   25.2367   12.1077 H   0  0  0  0  0  0  0  0  0  0  0  0
   21.9614   26.3268   12.8576 H   0  0  0  0  0  0  0  0  0  0  0  0
   22.1527   27.0605   11.2510 H   0  0  0  0  0  0  0  0  0  0  0  0
   22.1906   24.8711   10.3091 H   0  0  0  0  0  0  0  0  0  0  0  0
   23.9576   25.2103   12.5116 H   0  0  0  0  0  0  0  0  0  0  0  0
   24.2358   23.7838   10.0394 H   0  0  0  0  0  0  0  0  0  0  0  0
   26.2188   24.7861   10.7599 H   0  0  0  0  0  0  0  0  0  0  0  0
   25.6942   24.9906   12.9919 H   0  0  0  0  0  0  0  0  0  0  0  0
   24.5925   22.9703   13.2391 H   0  0  0  0  0  0  0  0  0  0  0  0
   26.0037   21.7035   11.9052 H   0  0  0  0  0  0  0  0  0  0  0  0
   27.9766   22.7262   12.5367 H   0  0  0  0  0  0  0  0  0  0  0  0
   27.4775   22.9545   14.8060 H   0  0  0  0  0  0  0  0  0  0  0  0
   26.4189   20.9396   15.1109 H   0  0  0  0  0  0  0  0  0  0  0  0
   27.7693   19.6667   13.7790 H   0  0  0  0  0  0  0  0  0  0  0  0
   29.7680   20.6837   14.3643 H   0  0  0  0  0  0  0  0  0  0  0  0
   29.3258   20.9476   16.6349 H   0  0  0  0  0  0  0  0  0  0  0  0
   28.2370   18.9541   16.9914 H   0  0  0  0  0  0  0  0  0  0  0  0
   29.5930   17.6379   15.6513 H   0  0  0  0  0  0  0  0  0  0  0  0
   31.6094   18.6617   16.2068 H   0  0  0  0  0  0  0  0  0  0  0  0
   31.1969   18.9558   18.4635 H   0  0  0  0  0  0  0  0  0  0  0  0
   30.0742   16.9679   18.8536 H   0  0  0  0  0  0  0  0  0  0  0  0
   31.4327   15.6309   17.5091 H   0  0  0  0  0  0  0  0  0  0  0  0
   33.4547   16.6291   18.0316 H   0  0  0  0  0  0  0  0  0  0  0  0
   33.0643   16.9962   20.2617 H   0  0  0  0  0  0  0  0  0  0  0  0
   31.9691   14.9740   20.7208 H   0  0  0  0  0  0  0  0  0  0  0  0
   33.2433   13.6133   19.3670 H   0  0  0  0  0  0  0  0  0  0  0  0
   35.3098   14.5949   19.8497 H   0  0  0  0  0  0  0  0  0  0  0  0
   34.9529   14.9564   22.1005 H   0  0  0  0  0  0  0  0  0  0  0  0
   33.8170   13.0483   22.5636 H   0  0  0  0  0  0  0  0  0  0  0  0
   35.0975   11.6176   21.2345 H   0  0  0  0  0  0  0  0  0  0  0  0
   37.1467   12.5985   21.6308 H   0  0  0  0  0  0  0  0  0  0  0  0
   36.8411   12.9866   23.9057 H   0  0  0  0  0  0  0  0  0  0  0  0
   35.7051   11.0593   24.3962 H   0  0  0  0  0  0  0  0  0  0  0  0
   36.9605    9.6129   23.0598 H   0  0  0  0  0  0  0  0  0  0  0  0
   39.0267   10.5836   23.4438 H   0  0  0  0  0  0  0  0  0  0  0  0
   38.7636   11.0104   25.7220 H   0  0  0  0  0  0  0  0  0  0  0  0
   37.6166    9.0976   26.2610 H   0  0  0  0  0  0  0  0  0  0  0  0
   38.7988    7.6572   24.8981 H   0  0  0  0  0  0  0  0  0  0  0  0
   40.8918    8.5918   25.2534 H   0  0  0  0  0  0  0  0  0  0  0  0
   40.6619    9.0603   27.4744 H   0  0  0  0  0  0  0  0  0  0  0  0
   39.5342    7.1209   28.0712 H   0  0  0  0  0  0  0  0  0  0  0  0
   40.6803    5.6696   26.7161 H   0  0  0  0  0  0  0  0  0  0  0  0
   42.7785    6.5899   26.9952 H   0  0  0  0  0  0  0  0  0  0  0  0
   42.5967    7.0619   29.2915 H   0  0  0  0  0  0  0  0  0  0  0  0
   41.4279    5.1573   29.8893 H   0  0  0  0  0  0  0  0  0  0  0  0
   42.5833    3.6471   28.5457 H   0  0  0  0  0  0  0  0  0  0  0  0
   44.7095    4.5706   28.8208 H   0  0  0  0  0  0  0  0  0  0  0  0
   44.5288    5.0757   31.0671 H   0  0  0  0  0  0  0  0  0  0  0  0
   43.3410    3.2103   31.7096 H   0  0  0  0  0  0  0  0  0  0  0  0
   44.4436    1.6720   30.3461 H   0  0  0  0  0  0  0  0  0  0  0  0
   46.6088    2.5640   30.5834 H   0  0  0  0  0  0  0  0  0  0  0  0
   46.4551    3.0824   32.8529 H   0  0  0  0  0  0  0  0  0  0  0  0
   45.2641    1.2373   33.5328 H   0  0  0  0  0  0  0  0  0  0  0  0
   46.3460   -0.3379   32.1749 H   0  0  0  0  0  0  0  0  0  0  0  0
   48.5145    0.5303   32.3889 H   0  0  0  0  0  0  0  0  0  0  0  0
   48.3959    1.0795   34.6295 H   0  0  0  0  0  0  0  0  0  0  0  0
   47.2174   -0.7689   35.3287 H   0  0  0  0  0  0  0  0  0  0  0  0
   48.2550   -2.3188   33.9867 H   0  0  0  0  0  0  0  0  0  0  0  0
   50.3781   -1.4773   34.1470 H   0  0  0  0  0  0  0  0  0  0  0  0
   50.3068   -0.8871   36.3557 H   0  0  0  0  0  0  0  0  0  0  0  0
   49.1004   -2.6940   37.1185 H   0  0  0  0  0  0  0  0  0  0  0  0
   50.0877   -4.3026   35.7760 H   0  0  0  0  0  0  0  0  0  0  0  0
   52.2623   -3.5013   35.8953 H   0  0  0  0  0  0  0  0  0  0  0  0
   52.2445   -2.8919   38.1381 H   0  0  0  0  0  0  0  0  0  0  0  0
   51.0221   -4.7169   38.9287 H   0  0  0  0  0  0  0  0  0  0  0  0
   53.5172   -6.1871   38.3884 H   0  0  0  0  0  0  0  0  0  0  0  0
   51.9946   -6.3735   37.4945 H   0  0  0  0  0  0  0  0  0  0  0  0
   50.8422   -7.0426   39.5787 H   0  0  0  0  0  0  0  0  0  0  0  0
   52.3635   -6.8688   40.4734 H   0  0  0  0  0  0  0  0  0  0  0  0
   53.4126   -8.5852   39.0217 H   0  0  0  0  0  0  0  0  0  0  0  0
   51.8927   -8.7581   38.1267 H   0  0  0  0  0  0  0  0  0  0  0  0
   50.7404   -9.4391   40.2150 H   0  0  0  0  0  0  0  0  0  0  0  0
   52.2604   -9.2662   41.1101 H   0  0  0  0  0  0  0  0  0  0  0  0
   53.3102  -10.9822   39.6589 H   0  0  0  0  0  0  0  0  0  0  0  0
   51.7903  -11.1552   38.7638 H   0  0  0  0  0  0  0  0  0  0  0  0
   50.6379  -11.8360   40.8522 H   0  0  0  0  0  0  0  0  0  0  0  0
   52.1579  -11.6630   41.7473 H   0  0  0  0  0  0  0  0  0  0  0  0
   53.2077  -13.3790   40.2961 H   0  0  0  0  0  0  0  0  0  0  0  0
   51.6878  -13.5520   39.4010 H   0  0  0  0  0  0  0  0  0  0  0  0
   50.5354  -14.2327   41.4894 H   0  0  0  0  0  0  0  0  0  0  0  0
   52.0553  -14.0598   42.3845 H   0  0  0  0  0  0  0  0  0  0  0  0
   53.1051  -15.7754   40.9319 H   0  0  0  0  0  0  0  0  0  0  0  0
   51.5841  -15.9492   40.0389 H   0  0  0  0  0  0  0  0  0  0  0  0
   50.4347  -16.6297   42.1290 H   0  0  0  0  0  0  0  0  0  0  0  0
   51.9557  -16.4558   43.0221 H   0  0  0  0  0  0  0  0  0  0  0  0
   53.0043  -18.1720   41.5702 H   0  0  0  0  0  0  0  0  0  0  0  0
   51.4833  -18.3458   40.6771 H   0  0  0  0  0  0  0  0  0  0  0  0
   50.3337  -19.0272   42.7662 H   0  0  0  0  0  0  0  0  0  0  0  0
   51.8538  -18.8515   43.6606 H   0  0  0  0  0  0  0  0  0  0  0  0
   52.9053  -20.5675   42.2119 H   0  0  0  0  0  0  0  0  0  0  0  0
   51.3865  -20.7424   41.3156 H   0  0  0  0  0  0  0  0  0  0  0  0
   50.2332  -21.4279   43.4033 H   0  0  0  0  0  0  0  0  0  0  0  0
   51.7522  -21.2530   44.2998 H   0  0  0  0  0  0  0  0  0  0  0  0
   51.2823  -23.1469   41.9578 H   0  0  0  0  0  0  0  0  0  0  0  0
   51.3610  -23.6093   43.6700 H   0  0  0  0  0  0  0  0  0  0  0  0
   52.8040  -22.9717   42.8559 H   0  0  0  0  0  0  0  0  0  0  0  0
  1  2  1  0  0  0  0
  1 82  1  0  0  0  0
  1 83  1  0  0  0  0
  1 84  1  0  0  0  0
  2  3  1  0  0  0  0
  2 85  1  0  0  0  0
  2 86  1  0  0  0  0
  3  4  1  0  0  0  0
  3 87  1  0  0  0  0
  3 88  1  0  0  0  0
  4  5  1  0  0  0  0
  4 89  1  0  0  0  0
  4 90  1  0  0  0  0
  5  6  1  0  0  0  0
  5 91  1  0  0  0  0
  6  7  1  0  0  0  0
  6 92  1  0  0  0  0
  7  8  1  0  0  0  0
  7 93  1  0  0  0  0
  8  9  1  0  0  0  0
  8 94  1  0  0  0  0
  9 10  1  0  0  0  0
  9 95  1  0  0  0  0
 10 11  1  0  0  0  0
 10 96  1  0  0  0  0
 11 12  1  0  0  0  0
 11 97  1  0  0  0  0
 12 13  1  0  0  0  0
 12 98  1  0  0  0  0
 13 14  1  0  0  0  0
 13 99  1  0  0  0  0
 14 15  1  0  0  0  0
 14100  1  0  0  0  0
 15 16  1  0  0  0  0
 15101  1  0  0  0  0
 16 17  1  0  0  0  0
 16102  1  0  0  0  0
 17 18  1  0  0  0  0
 17103  1  0  0  0  0
 18 19  1  0  0  0  0
 18104  1  0  0  0  0
 19 20  1  0  0  0  0
 19105  1  0  0  0  0
 20 21  1  0  0  0  0
 20106  1  0  0  0  0
 21 22  1  0  0  0  0
 21107  1  0  0  0  0
 22 23  1  0  0  0  0
 22108  1  0  0  0  0
 23 24  1  0  0  0  0
 23109  1  0  0  0  0
 24 25  1  0  0  0  0
 24110  1  0  0  0  0
 25 26  1  0  0  0  0
 25111  1  0  0  0  0
 26 27  1  0  0  0  0
 26112  1  0  0  0  0
 27 28  1  0  0  0  0
 27113  1  0  0  0  0
 28 29  1  0  0  0  0
 28114  1  0  0  0  0
 29 30  1  0  0  0  0
 29115  1  0  0  0  0
 30 31  1  0  0  0  0
 30116  1  0  0  0  0
 31 32  1  0  0  0  0
 31117  1  0  0  0  0
 32 33  1  0  0  0  0
 32118  1  0  0  0  0
 33 34  1  0  0  0  0
 33119  1  0  0  0  0
 34 35  1  0  0  0  0
 34120  1  0  0  0  0
 35 36  1  0  0  0  0
 35121  1  0  0  0  0
 36 37  1  0  0  0  0
 36122  1  0  0  0  0
 37 38  1  0  0  0  0
 37123  1  0  0  0  0
 38 39  1  0  0  0  0
 38124  1  0  0  0  0
 39 40  1  0  0  0  0
 39125  1  0  0  0  0
 40 41  1  0  0  0  0
 40126  1  0  0  0  0
 41 42  1  0  0  0  0
 41127  1  0  0  0  0
 42 43  1  0  0  0  0
 42128  1  0  0  0  0
 43 44  1  0  0  0  0
 43129  1  0  0  0  0
 44 45  1  0  0  0  0
 44130  1  0  0  0  0
 45 46  1  0  0  0  0
 45131  1  0  0  0  0
 46 47  1  0  0  0  0
 46132  1  0  0  0  0
 47 48  1  0  0  0  0
 47133  1  0  0  0  0
 48 49  1  0  0  0  0
 48134  1  0  0  0  0
 49 50  1  0  0  0  0
 49135  1  0  0  0  0
 50 51  1  0  0  0  0
 50136  1  0  0  0  0
 51 52  1  0  0  0  0
 51137  1  0  0  0  0
 52 53  1  0  0  0  0
 52138  1  0  0  0  0
 53 54  1  0  0  0  0
 53139  1  0  0  0  0
 54 55  1  0  0  0  0
 54140  1  0  0  0  0
 55 56  1  0  0  0  0
 55141  1  0  0  0  0
 56 57  1  0  0  0  0
 56142  1  0  0  0  0
 57 58  1  0  0  0  0
 57143  1  0  0  0  0
 58 59  1  0  0  0  0
 58144  1  0  0  0  0
 59 60  1  0  0  0  0
 59145  1  0  0  0  0
 60 61  1  0  0  0  0
 60146  1  0  0  0  0
 61 62  1  0  0  0  0
 61147  1  0  0  0  0
 62 63  1  0  0  0  0
 62148  1  0  0  0  0
 63 64  1  0  0  0  0
 63149  1  0  0  0  0
 64 65  1  0  0  0  0
 64150  1  0  0  0  0
 65 66  1  0  0  0  0
 65151  1  0  0  0  0
 66 67  1  0  0  0  0
 66152  1  0  0  0  0
 67 68  1  0  0  0  0
 67153  1  0  0  0  0
 67154  1  0  0  0  0
 68 69  1  0  0  0  0
 68155  1  0  0  0  0
 68156  1  0  0  0  0
 69 70  1  0  0  0  0
 69157  1  0  0  0  0
 69158  1  0  0  0  0
 70 71  1  0  0  0  0
 70159  1  0  0  0  0
 70160  1  0  0  0  0
 71 72  1  0  0  0  0
 71161  1  0  0  0  0
 71162  1  0  0  0  0
 72 73  1  0  0  0  0
 72163  1  0  0  0  0
 72164  1  0  0  0  0
 73 74  1  0  0  0  0
 73165  1  0  0  0  0
 73166  1  0  0  0  0
 74 75  1  0  0  0  0
 74167  1  0  0  0  0
 74168  1  0  0  0  0
 75 76  1  0  0  0  0
 75169  1  0  0  0  0
 75170  1  0  0  0  0
 76 77  1  0  0  0  0
 76171  1  0  0  0  0
 76172  1  0  0  0  0
 77 78  1  0  0  0  0
 77173  1  0  0  0  0
 77174  1  0  0  0  0
 78 79  1  0  0  0  0
 78175  1  0  0  0  0
 78176  1  0  0  0  0
 79 80  1  0  0  0  0
 79177  1  0  0  0  0
 79178  1  0  0  0  0
 80 81  1  0  0  0  0
 80179  1  0  0  0  0
 80180  1  0  0  0  0
 81181  1  0  0  0  0
 81182  1  0  0  0  0
 81183  1  0  0  0  0
M  END
$$$$
