
 OpenBabel04232217033D

 96 95  0  0  0  0  0  0  0  0999 V2000
    5.1606  -10.7830    3.2188 S   0  0  0  0  0  0  0  0  0  0  0  0
    6.8230  -10.7877    3.1713 O   0  0  0  0  0  0  0  0  0  0  0  0
    7.4110  -11.3371    4.3580 C   0  0  0  0  0  0  0  0  0  0  0  0
    8.9388  -11.3137    4.2610 C   0  0  0  0  0  0  0  0  0  0  0  0
    9.5897  -11.8877    5.5306 C   0  0  0  0  0  0  0  0  0  0  0  0
   11.1350  -11.8896    5.5106 C   0  0  0  0  0  0  0  0  0  0  0  0
   11.7878  -10.1850    5.3542 S   0  0  0  0  0  0  0  0  0  0  0  0
   13.4627  -10.3904    5.3441 N   0  0  0  0  0  0  0  0  0  0  0  0
   14.0617   -9.0876    5.2172 N   0  0  0  0  0  0  0  0  0  0  0  0
   15.4822   -9.1594    5.2275 N   0  0  0  0  0  0  0  0  0  0  0  0
   16.0016   -7.8381    5.0869 N   0  0  0  0  0  0  0  0  0  0  0  0
   15.5940   -6.9697    6.1606 N   0  0  0  0  0  0  0  0  0  0  0  0
   16.2818   -5.4604    5.9767 S   0  0  0  0  0  0  0  0  0  0  0  0
   15.5694   -4.4560    7.6306 S   0  0  0  0  0  0  0  0  0  0  0  0
   16.2951   -5.3855    9.3368 S   0  0  0  0  0  0  0  0  0  0  0  0
   18.3713   -5.3153    9.3558 S   0  0  0  0  0  0  0  0  0  0  0  0
   19.0342   -6.3134   11.0847 S   0  0  0  0  0  0  0  0  0  0  0  0
   21.1424   -6.3142   11.0874 S   0  0  0  0  0  0  0  0  0  0  0  0
   21.8302   -7.2879   12.8303 S   0  0  0  0  0  0  0  0  0  0  0  0
   23.9422   -7.2838   12.8222 S   0  0  0  0  0  0  0  0  0  0  0  0
   24.6349   -8.2573   14.5626 S   0  0  0  0  0  0  0  0  0  0  0  0
   26.7457   -8.2511   14.5515 S   0  0  0  0  0  0  0  0  0  0  0  0
   27.4378   -9.2243   16.2915 S   0  0  0  0  0  0  0  0  0  0  0  0
   29.5477   -9.2180   16.2802 S   0  0  0  0  0  0  0  0  0  0  0  0
   30.2388  -10.1912   18.0200 S   0  0  0  0  0  0  0  0  0  0  0  0
   32.3484  -10.1848   18.0086 S   0  0  0  0  0  0  0  0  0  0  0  0
   33.0392  -11.1579   19.7482 S   0  0  0  0  0  0  0  0  0  0  0  0
   35.1486  -11.1514   19.7367 S   0  0  0  0  0  0  0  0  0  0  0  0
   35.8393  -12.1245   21.4762 S   0  0  0  0  0  0  0  0  0  0  0  0
   37.9487  -12.1180   21.4647 S   0  0  0  0  0  0  0  0  0  0  0  0
   38.6393  -13.0910   23.2042 S   0  0  0  0  0  0  0  0  0  0  0  0
   40.7487  -13.0845   23.1926 S   0  0  0  0  0  0  0  0  0  0  0  0
   41.4393  -14.0576   24.9322 S   0  0  0  0  0  0  0  0  0  0  0  0
   43.5487  -14.0511   24.9206 S   0  0  0  0  0  0  0  0  0  0  0  0
   44.2393  -15.0241   26.6601 S   0  0  0  0  0  0  0  0  0  0  0  0
   46.3487  -15.0176   26.6485 S   0  0  0  0  0  0  0  0  0  0  0  0
   47.0393  -15.9906   28.3881 S   0  0  0  0  0  0  0  0  0  0  0  0
   49.1486  -15.9842   28.3765 S   0  0  0  0  0  0  0  0  0  0  0  0
   49.8393  -16.9572   30.1160 S   0  0  0  0  0  0  0  0  0  0  0  0
   51.9486  -16.9507   30.1044 S   0  0  0  0  0  0  0  0  0  0  0  0
   52.6393  -17.9237   31.8440 S   0  0  0  0  0  0  0  0  0  0  0  0
   54.7486  -17.9172   31.8324 S   0  0  0  0  0  0  0  0  0  0  0  0
   55.4393  -18.8902   33.5719 S   0  0  0  0  0  0  0  0  0  0  0  0
   57.5486  -18.8838   33.5603 S   0  0  0  0  0  0  0  0  0  0  0  0
   58.2392  -19.8568   35.2999 S   0  0  0  0  0  0  0  0  0  0  0  0
   60.3486  -19.8503   35.2883 S   0  0  0  0  0  0  0  0  0  0  0  0
   61.0392  -20.8233   37.0278 S   0  0  0  0  0  0  0  0  0  0  0  0
   63.1486  -20.8169   37.0162 S   0  0  0  0  0  0  0  0  0  0  0  0
   63.8392  -21.7899   38.7558 S   0  0  0  0  0  0  0  0  0  0  0  0
   65.9486  -21.7834   38.7442 S   0  0  0  0  0  0  0  0  0  0  0  0
   66.6392  -22.7564   40.4837 S   0  0  0  0  0  0  0  0  0  0  0  0
   68.7486  -22.7499   40.4722 S   0  0  0  0  0  0  0  0  0  0  0  0
   69.4392  -23.7229   42.2117 S   0  0  0  0  0  0  0  0  0  0  0  0
   71.5486  -23.7165   42.2001 S   0  0  0  0  0  0  0  0  0  0  0  0
   72.2392  -24.6895   43.9396 S   0  0  0  0  0  0  0  0  0  0  0  0
   74.3486  -24.6830   43.9281 S   0  0  0  0  0  0  0  0  0  0  0  0
   75.0392  -25.6560   45.6676 S   0  0  0  0  0  0  0  0  0  0  0  0
   77.1486  -25.6495   45.6560 S   0  0  0  0  0  0  0  0  0  0  0  0
   77.8392  -26.6226   47.3955 S   0  0  0  0  0  0  0  0  0  0  0  0
   79.9486  -26.6161   47.3840 S   0  0  0  0  0  0  0  0  0  0  0  0
   80.6392  -27.5891   49.1235 S   0  0  0  0  0  0  0  0  0  0  0  0
   82.7486  -27.5826   49.1119 S   0  0  0  0  0  0  0  0  0  0  0  0
   83.4392  -28.5556   50.8514 S   0  0  0  0  0  0  0  0  0  0  0  0
   85.5485  -28.5492   50.8398 S   0  0  0  0  0  0  0  0  0  0  0  0
   86.2391  -29.5222   52.5793 S   0  0  0  0  0  0  0  0  0  0  0  0
   88.3485  -29.5157   52.5678 S   0  0  0  0  0  0  0  0  0  0  0  0
   89.0390  -30.4886   54.3072 S   0  0  0  0  0  0  0  0  0  0  0  0
   91.1482  -30.4821   54.2955 S   0  0  0  0  0  0  0  0  0  0  0  0
   91.8384  -31.4550   56.0348 S   0  0  0  0  0  0  0  0  0  0  0  0
   93.9471  -31.4483   56.0228 S   0  0  0  0  0  0  0  0  0  0  0  0
   94.6364  -32.4209   57.7617 S   0  0  0  0  0  0  0  0  0  0  0  0
   96.7437  -32.4137   57.7487 S   0  0  0  0  0  0  0  0  0  0  0  0
   97.4306  -33.3856   59.4863 S   0  0  0  0  0  0  0  0  0  0  0  0
   99.5346  -33.3768   59.4705 S   0  0  0  0  0  0  0  0  0  0  0  0
  100.2166  -34.3470   61.2048 S   0  0  0  0  0  0  0  0  0  0  0  0
  102.3132  -34.3341   61.1829 S   0  0  0  0  0  0  0  0  0  0  0  0
  102.9821  -35.3017   62.9119 S   0  0  0  0  0  0  0  0  0  0  0  0
  105.0635  -35.3042   62.8633 S   0  0  0  0  0  0  0  0  0  0  0  0
  105.7201  -36.2029   64.6142 S   0  0  0  0  0  0  0  0  0  0  0  0
  107.7868  -36.2268   64.5363 S   0  0  0  0  0  0  0  0  0  0  0  0
  108.3676  -34.2523   64.5809 S   0  0  0  0  0  0  0  0  0  0  0  0
    4.9223  -10.2330    2.0143 H   0  0  0  0  0  0  0  0  0  0  0  0
    7.0692  -12.3680    4.4864 H   0  0  0  0  0  0  0  0  0  0  0  0
    7.0940  -10.7411    5.2218 H   0  0  0  0  0  0  0  0  0  0  0  0
    9.2631  -10.2804    4.0914 H   0  0  0  0  0  0  0  0  0  0  0  0
    9.2619  -11.8805    3.3777 H   0  0  0  0  0  0  0  0  0  0  0  0
    9.2258  -12.9161    5.6690 H   0  0  0  0  0  0  0  0  0  0  0  0
    9.2320  -11.3226    6.4022 H   0  0  0  0  0  0  0  0  0  0  0  0
   11.4866  -12.5093    4.6802 H   0  0  0  0  0  0  0  0  0  0  0  0
   11.4991  -12.3442    6.4421 H   0  0  0  0  0  0  0  0  0  0  0  0
   13.7560  -10.9165    4.5582 H   0  0  0  0  0  0  0  0  0  0  0  0
   13.8278   -8.4845    5.9860 H   0  0  0  0  0  0  0  0  0  0  0  0
   15.8043   -9.7108    4.4301 H   0  0  0  0  0  0  0  0  0  0  0  0
   15.6638   -7.4592    4.1979 H   0  0  0  0  0  0  0  0  0  0  0  0
   15.9385   -7.4092    7.0080 H   0  0  0  0  0  0  0  0  0  0  0  0
  109.7065  -34.3751   64.5397 H   0  0  0  0  0  0  0  0  0  0  0  0
  1  2  1  0  0  0  0
  1 82  1  0  0  0  0
  2  3  1  0  0  0  0
  3  4  1  0  0  0  0
  3 83  1  0  0  0  0
  3 84  1  0  0  0  0
  4  5  1  0  0  0  0
  4 85  1  0  0  0  0
  4 86  1  0  0  0  0
  5  6  1  0  0  0  0
  5 87  1  0  0  0  0
  5 88  1  0  0  0  0
  6  7  1  0  0  0  0
  6 89  1  0  0  0  0
  6 90  1  0  0  0  0
  7  8  1  0  0  0  0
  8  9  1  0  0  0  0
  8 91  1  0  0  0  0
  9 10  1  0  0  0  0
  9 92  1  0  0  0  0
 10 11  1  0  0  0  0
 10 93  1  0  0  0  0
 11 12  1  0  0  0  0
 11 94  1  0  0  0  0
 12 13  1  0  0  0  0
 12 95  1  0  0  0  0
 13 14  1  0  0  0  0
 14 15  1  0  0  0  0
 15 16  1  0  0  0  0
 16 17  1  0  0  0  0
 17 18  1  0  0  0  0
 18 19  1  0  0  0  0
 19 20  1  0  0  0  0
 20 21  1  0  0  0  0
 21 22  1  0  0  0  0
 22 23  1  0  0  0  0
 23 24  1  0  0  0  0
 24 25  1  0  0  0  0
 25 26  1  0  0  0  0
 26 27  1  0  0  0  0
 27 28  1  0  0  0  0
 28 29  1  0  0  0  0
 29 30  1  0  0  0  0
 30 31  1  0  0  0  0
 31 32  1  0  0  0  0
 32 33  1  0  0  0  0
 33 34  1  0  0  0  0
 34 35  1  0  0  0  0
 35 36  1  0  0  0  0
 36 37  1  0  0  0  0
 37 38  1  0  0  0  0
 38 39  1  0  0  0  0
 39 40  1  0  0  0  0
 40 41  1  0  0  0  0
 41 42  1  0  0  0  0
 42 43  1  0  0  0  0
 43 44  1  0  0  0  0
 44 45  1  0  0  0  0
 45 46  1  0  0  0  0
 46 47  1  0  0  0  0
 47 48  1  0  0  0  0
 48 49  1  0  0  0  0
 49 50  1  0  0  0  0
 50 51  1  0  0  0  0
 51 52  1  0  0  0  0
 52 53  1  0  0  0  0
 53 54  1  0  0  0  0
 54 55  1  0  0  0  0
 55 56  1  0  0  0  0
 56 57  1  0  0  0  0
 57 58  1  0  0  0  0
 58 59  1  0  0  0  0
 59 60  1  0  0  0  0
 60 61  1  0  0  0  0
 61 62  1  0  0  0  0
 62 63  1  0  0  0  0
 63 64  1  0  0  0  0
 64 65  1  0  0  0  0
 65 66  1  0  0  0  0
 66 67  1  0  0  0  0
 67 68  1  0  0  0  0
 68 69  1  0  0  0  0
 69 70  1  0  0  0  0
 70 71  1  0  0  0  0
 71 72  1  0  0  0  0
 72 73  1  0  0  0  0
 73 74  1  0  0  0  0
 74 75  1  0  0  0  0
 75 76  1  0  0  0  0
 76 77  1  0  0  0  0
 77 78  1  0  0  0  0
 78 79  1  0  0  0  0
 79 80  1  0  0  0  0
 80 81  1  0  0  0  0
 81 96  1  0  0  0  0
M  END
$$$$
