
 OpenBabel04232216433D

 23 23  0  0  0  0  0  0  0  0999 V2000
    4.3780   -2.2973    0.4149 C   0  0  0  0  0  0  0  0  0  0  0  0
    4.3155   -0.9858   -0.1676 C   0  0  0  0  0  0  0  0  0  0  0  0
    3.7841   -0.8332   -1.3958 C   0  0  0  0  0  0  0  0  0  0  0  0
    4.4429    0.0956   -2.3188 C   0  0  0  0  0  0  0  0  0  0  0  0
    5.2956   -0.5283   -3.1765 C   0  0  0  0  0  0  0  0  0  0  0  0
    6.6773   -0.5882   -2.6579 C   0  0  0  0  0  0  0  0  0  0  0  0
    7.0065   -1.7891   -2.1619 C   0  0  0  0  0  0  0  0  0  0  0  0
    7.4153   -1.9532   -0.7660 C   0  0  0  0  0  0  0  0  0  0  0  0
    6.8338   -2.9663   -0.0781 C   0  0  0  0  0  0  0  0  0  0  0  0
    7.6153   -4.2570   -0.0449 C   0  0  0  0  0  0  0  0  0  0  0  0
    5.4474   -3.1225    0.3752 C   0  0  0  0  0  0  0  0  0  0  0  0
    3.4439   -2.6553    0.8653 H   0  0  0  0  0  0  0  0  0  0  0  0
    5.0128   -0.2603    0.2541 H   0  0  0  0  0  0  0  0  0  0  0  0
    3.1964   -1.6308   -1.8423 H   0  0  0  0  0  0  0  0  0  0  0  0
    4.8085    0.9896   -1.8132 H   0  0  0  0  0  0  0  0  0  0  0  0
    4.9719   -1.4875   -3.5935 H   0  0  0  0  0  0  0  0  0  0  0  0
    7.0394    0.3204   -2.1801 H   0  0  0  0  0  0  0  0  0  0  0  0
    6.5914   -2.6972   -2.5978 H   0  0  0  0  0  0  0  0  0  0  0  0
    8.5033   -1.8881   -0.7413 H   0  0  0  0  0  0  0  0  0  0  0  0
    7.0269   -5.0715   -0.4522 H   0  0  0  0  0  0  0  0  0  0  0  0
    7.9222   -4.5102    0.9902 H   0  0  0  0  0  0  0  0  0  0  0  0
    8.5233   -4.2014   -0.6676 H   0  0  0  0  0  0  0  0  0  0  0  0
    5.2624   -4.0984    0.8372 H   0  0  0  0  0  0  0  0  0  0  0  0
  1  2  1  0  0  0  0
  1 11  2  0  0  0  0
  1 12  1  0  0  0  0
  2  3  2  0  0  0  0
  2 13  1  0  0  0  0
  3  4  1  0  0  0  0
  3 14  1  0  0  0  0
  4  5  2  0  0  0  0
  4 15  1  0  0  0  0
  5  6  1  0  0  0  0
  5 16  1  0  0  0  0
  6  7  2  0  0  0  0
  6 17  1  0  0  0  0
  7  8  1  0  0  0  0
  7 18  1  0  0  0  0
  8  9  2  0  0  0  0
  8 19  1  0  0  0  0
  9 10  1  0  0  0  0
  9 11  1  0  0  0  0
 10 20  1  0  0  0  0
 10 21  1  0  0  0  0
 10 22  1  0  0  0  0
 11 23  1  0  0  0  0
M  END
$$$$
