
 OpenBabel04232216543D

 56 57  0  0  1  0  0  0  0  0999 V2000
    5.6527   -0.5268   -3.5887 C   0  0  0  0  0  0  0  0  0  0  0  0
    4.9667   -1.2729   -2.4558 C   0  0  0  0  0  0  0  0  0  0  0  0
    5.1467   -0.5338   -1.1274 C   0  0  0  0  0  0  0  0  0  0  0  0
    4.5081   -1.2501    0.0632 C   0  0  0  0  0  0  0  0  0  0  0  0
    5.0507   -2.5986    0.2738 N   0  0  0  0  0  0  0  0  0  0  0  0
    6.4898   -2.7358    0.6021 C   0  0  3  0  0  0  0  0  0  0  0  0
    6.7708   -2.2181    2.0095 C   0  0  0  0  0  0  0  0  0  0  0  0
    6.9450   -4.1733    0.4594 C   0  0  0  0  0  0  0  0  0  0  0  0
    6.1325   -5.1966    0.1506 C   0  0  0  0  0  0  0  0  0  0  0  0
    4.7168   -4.9874   -0.0018 C   0  0  0  0  0  0  0  0  0  0  0  0
    3.6992   -6.0309   -0.3357 C   0  0  0  0  0  0  0  0  0  0  0  0
    2.6985   -5.7002   -0.9740 O   0  0  0  0  0  0  0  0  0  0  0  0
    3.8135   -7.4412    0.1910 C   0  0  0  0  0  0  0  0  0  0  0  0
    3.0114   -8.3581   -0.3874 C   0  0  0  0  0  0  0  0  0  0  0  0
    2.5280   -8.3361   -1.8125 C   0  0  0  0  0  0  0  0  0  0  0  0
    2.3854   -9.7372   -2.4284 C   0  0  0  0  0  0  0  0  0  0  0  0
    3.6468  -10.6158   -2.5548 C   0  0  0  0  0  0  0  0  0  0  0  0
    4.3660  -10.9884   -1.2518 C   0  0  0  0  0  0  0  0  0  0  0  0
    5.5269  -10.0395   -0.9086 C   0  0  0  0  0  0  0  0  0  0  0  0
    5.8239   -9.9990    0.5994 C   0  0  0  0  0  0  0  0  0  0  0  0
    5.9074   -8.5880    1.2093 C   0  0  0  0  0  0  0  0  0  0  0  0
    4.5801   -7.8144    1.4379 C   0  0  0  0  0  0  0  0  0  0  0  0
    4.2600   -3.7224    0.0390 C   0  0  0  0  0  0  0  0  0  0  0  0
    5.5059   -1.0534   -4.5355 H   0  0  0  0  0  0  0  0  0  0  0  0
    6.7302   -0.4503   -3.4060 H   0  0  0  0  0  0  0  0  0  0  0  0
    5.2497    0.4852   -3.6928 H   0  0  0  0  0  0  0  0  0  0  0  0
    5.3898   -2.2816   -2.3981 H   0  0  0  0  0  0  0  0  0  0  0  0
    3.8994   -1.3797   -2.6809 H   0  0  0  0  0  0  0  0  0  0  0  0
    4.6949    0.4633   -1.2107 H   0  0  0  0  0  0  0  0  0  0  0  0
    6.2137   -0.3663   -0.9411 H   0  0  0  0  0  0  0  0  0  0  0  0
    3.4230   -1.2917   -0.0927 H   0  0  0  0  0  0  0  0  0  0  0  0
    4.6513   -0.6513    0.9702 H   0  0  0  0  0  0  0  0  0  0  0  0
    7.0818   -2.1608   -0.1147 H   0  0  0  0  0  0  0  0  0  0  0  0
    6.1393   -2.7127    2.7548 H   0  0  0  0  0  0  0  0  0  0  0  0
    6.5819   -1.1415    2.0752 H   0  0  0  0  0  0  0  0  0  0  0  0
    7.8185   -2.3803    2.2862 H   0  0  0  0  0  0  0  0  0  0  0  0
    8.0117   -4.3554    0.5555 H   0  0  0  0  0  0  0  0  0  0  0  0
    6.5499   -6.1686   -0.0487 H   0  0  0  0  0  0  0  0  0  0  0  0
    2.8246   -9.2829    0.1483 H   0  0  0  0  0  0  0  0  0  0  0  0
    3.2242   -7.7662   -2.4413 H   0  0  0  0  0  0  0  0  0  0  0  0
    1.5508   -7.8415   -1.8582 H   0  0  0  0  0  0  0  0  0  0  0  0
    1.9863   -9.6033   -3.4443 H   0  0  0  0  0  0  0  0  0  0  0  0
    1.6167  -10.2920   -1.8760 H   0  0  0  0  0  0  0  0  0  0  0  0
    4.3492  -10.1673   -3.2642 H   0  0  0  0  0  0  0  0  0  0  0  0
    3.3122  -11.5570   -3.0131 H   0  0  0  0  0  0  0  0  0  0  0  0
    4.7857  -11.9929   -1.3554 H   0  0  0  0  0  0  0  0  0  0  0  0
    3.6380  -11.0734   -0.4327 H   0  0  0  0  0  0  0  0  0  0  0  0
    5.3676   -9.0369   -1.3131 H   0  0  0  0  0  0  0  0  0  0  0  0
    6.4199  -10.4048   -1.4365 H   0  0  0  0  0  0  0  0  0  0  0  0
    6.8071  -10.4696    0.7437 H   0  0  0  0  0  0  0  0  0  0  0  0
    5.1171  -10.6030    1.1758 H   0  0  0  0  0  0  0  0  0  0  0  0
    6.6115   -8.0102    0.6100 H   0  0  0  0  0  0  0  0  0  0  0  0
    6.3825   -8.6924    2.1947 H   0  0  0  0  0  0  0  0  0  0  0  0
    4.7893   -6.9201    2.0333 H   0  0  0  0  0  0  0  0  0  0  0  0
    3.9405   -8.4362    2.0820 H   0  0  0  0  0  0  0  0  0  0  0  0
    3.2105   -3.4949   -0.1384 H   0  0  0  0  0  0  0  0  0  0  0  0
  1  2  1  0  0  0  0
  1 24  1  0  0  0  0
  1 25  1  0  0  0  0
  1 26  1  0  0  0  0
  2  3  1  0  0  0  0
  2 27  1  0  0  0  0
  2 28  1  0  0  0  0
  3  4  1  0  0  0  0
  3 29  1  0  0  0  0
  3 30  1  0  0  0  0
  4  5  1  0  0  0  0
  4 31  1  0  0  0  0
  4 32  1  0  0  0  0
  5  6  1  0  0  0  0
  5 23  1  0  0  0  0
  6  7  1  0  0  0  0
  6  8  1  0  0  0  0
  6 33  1  0  0  0  0
  7 34  1  0  0  0  0
  7 35  1  0  0  0  0
  7 36  1  0  0  0  0
  8  9  2  0  0  0  0
  8 37  1  0  0  0  0
  9 10  1  0  0  0  0
  9 38  1  0  0  0  0
 10 11  1  0  0  0  0
 10 23  2  0  0  0  0
 11 12  2  0  0  0  0
 11 13  1  0  0  0  0
 13 14  2  3  0  0  0
 13 22  1  0  0  0  0
 14 15  1  0  0  0  0
 14 39  1  0  0  0  0
 15 16  1  0  0  0  0
 15 40  1  0  0  0  0
 15 41  1  0  0  0  0
 16 17  1  0  0  0  0
 16 42  1  0  0  0  0
 16 43  1  0  0  0  0
 17 18  1  0  0  0  0
 17 44  1  0  0  0  0
 17 45  1  0  0  0  0
 18 19  1  0  0  0  0
 18 46  1  0  0  0  0
 18 47  1  0  0  0  0
 19 20  1  0  0  0  0
 19 48  1  0  0  0  0
 19 49  1  0  0  0  0
 20 21  1  0  0  0  0
 20 50  1  0  0  0  0
 20 51  1  0  0  0  0
 21 22  1  0  0  0  0
 21 52  1  0  0  0  0
 21 53  1  0  0  0  0
 22 54  1  0  0  0  0
 22 55  1  0  0  0  0
 23 56  1  0  0  0  0
M  END
$$$$
