
 OpenBabel04232216443D

 52 54  0  0  0  0  0  0  0  0999 V2000
    1.5591    0.0883    0.5450 C   0  0  0  0  0  0  0  0  0  0  0  0
    3.0261   -0.2839    0.3412 C   0  0  0  0  0  0  0  0  0  0  0  0
    3.2442   -1.3864   -0.6421 C   0  0  0  0  0  0  0  0  0  0  0  0
    2.2919   -1.4986   -1.8194 C   0  0  0  0  0  0  0  0  0  0  0  0
    4.2780   -2.2240   -0.5056 C   0  0  0  0  0  0  0  0  0  0  0  0
    5.1184   -2.6997   -1.6005 C   0  0  0  0  0  0  0  0  0  0  0  0
    4.5018   -3.5410   -2.6730 C   0  0  0  0  0  0  0  0  0  0  0  0
    6.4218   -2.3139   -1.6207 C   0  0  0  0  0  0  0  0  0  0  0  0
    7.4938   -2.8954   -2.4352 C   0  0  0  0  0  0  0  0  0  0  0  0
    7.4409   -3.9020   -3.5399 C   0  0  0  0  0  0  0  0  0  0  0  0
    8.6512   -2.3826   -1.9644 C   0  0  0  0  0  0  0  0  0  0  0  0
   10.0117   -2.7434   -2.4883 C   0  0  0  0  0  0  0  0  0  0  0  0
    8.3743   -1.3470   -0.9371 C   0  0  0  0  0  0  0  0  0  0  0  0
    9.5150   -0.5383   -0.4125 C   0  0  0  0  0  0  0  0  0  0  0  0
    7.0274   -1.2148   -0.7567 C   0  0  0  0  0  0  0  0  0  0  0  0
    6.2447   -0.0052   -0.2796 C   0  0  0  0  0  0  0  0  0  0  0  0
    5.9202    0.8941   -1.4443 C   0  0  0  0  0  0  0  0  0  0  0  0
    5.5159    0.0925    0.8710 C   0  0  0  0  0  0  0  0  0  0  0  0
    4.0329    0.4226    0.9685 C   0  0  0  0  0  0  0  0  0  0  0  0
    3.6663    1.6454    1.8056 C   0  0  0  0  0  0  0  0  0  0  0  0
    3.0074    1.4234    3.1763 C   0  0  0  0  0  0  0  0  0  0  0  0
    2.7621    0.3379    4.0640 C   0  0  0  0  0  0  0  0  0  0  0  0
    2.0781    1.1495    4.9019 C   0  0  0  0  0  0  0  0  0  0  0  0
    2.3108    2.2418    4.0082 C   0  0  0  0  0  0  0  0  0  0  0  0
    0.8569   -0.6640    0.1722 H   0  0  0  0  0  0  0  0  0  0  0  0
    1.3331    1.0329    0.0378 H   0  0  0  0  0  0  0  0  0  0  0  0
    1.2960    0.1767    1.6021 H   0  0  0  0  0  0  0  0  0  0  0  0
    1.3946   -0.8802   -1.7695 H   0  0  0  0  0  0  0  0  0  0  0  0
    1.9036   -2.5267   -1.8641 H   0  0  0  0  0  0  0  0  0  0  0  0
    2.7918   -1.2531   -2.7591 H   0  0  0  0  0  0  0  0  0  0  0  0
    4.8044   -2.2390    0.4501 H   0  0  0  0  0  0  0  0  0  0  0  0
    3.4194   -3.6155   -2.6344 H   0  0  0  0  0  0  0  0  0  0  0  0
    4.8728   -4.5661   -2.6250 H   0  0  0  0  0  0  0  0  0  0  0  0
    4.7175   -3.0930   -3.6537 H   0  0  0  0  0  0  0  0  0  0  0  0
    6.4633   -4.0943   -3.9679 H   0  0  0  0  0  0  0  0  0  0  0  0
    7.8405   -4.8618   -3.1976 H   0  0  0  0  0  0  0  0  0  0  0  0
    8.0411   -3.5623   -4.3924 H   0  0  0  0  0  0  0  0  0  0  0  0
    9.9741   -3.5179   -3.2644 H   0  0  0  0  0  0  0  0  0  0  0  0
   10.6480   -3.1457   -1.6942 H   0  0  0  0  0  0  0  0  0  0  0  0
   10.5032   -1.8789   -2.9458 H   0  0  0  0  0  0  0  0  0  0  0  0
   10.4851   -0.9052   -0.7789 H   0  0  0  0  0  0  0  0  0  0  0  0
    9.5732   -0.6128    0.6784 H   0  0  0  0  0  0  0  0  0  0  0  0
    9.4458    0.5065   -0.7144 H   0  0  0  0  0  0  0  0  0  0  0  0
    6.7450    0.9130   -2.1663 H   0  0  0  0  0  0  0  0  0  0  0  0
    5.7943    1.9259   -1.0981 H   0  0  0  0  0  0  0  0  0  0  0  0
    5.0143    0.5709   -1.9596 H   0  0  0  0  0  0  0  0  0  0  0  0
    5.9138   -0.3035    1.8039 H   0  0  0  0  0  0  0  0  0  0  0  0
    2.9878    2.3016    1.2386 H   0  0  0  0  0  0  0  0  0  0  0  0
    4.5190    2.3124    1.9468 H   0  0  0  0  0  0  0  0  0  0  0  0
    3.0090   -0.7247    4.0754 H   0  0  0  0  0  0  0  0  0  0  0  0
    1.5439    1.0415    5.8397 H   0  0  0  0  0  0  0  0  0  0  0  0
    2.0030    3.2822    4.0078 H   0  0  0  0  0  0  0  0  0  0  0  0
  1  2  1  0  0  0  0
  1 25  1  0  0  0  0
  1 26  1  0  0  0  0
  1 27  1  0  0  0  0
  2  3  1  0  0  0  0
  2 19  2  3  0  0  0
  3  4  1  0  0  0  0
  3  5  2  3  0  0  0
  4 28  1  0  0  0  0
  4 29  1  0  0  0  0
  4 30  1  0  0  0  0
  5  6  1  0  0  0  0
  5 31  1  0  0  0  0
  6  7  1  0  0  0  0
  6  8  2  3  0  0  0
  7 32  1  0  0  0  0
  7 33  1  0  0  0  0
  7 34  1  0  0  0  0
  8  9  1  0  0  0  0
  8 15  1  0  0  0  0
  9 10  1  0  0  0  0
  9 11  2  0  0  0  0
 10 35  1  0  0  0  0
 10 36  1  0  0  0  0
 10 37  1  0  0  0  0
 11 12  1  0  0  0  0
 11 13  1  0  0  0  0
 12 38  1  0  0  0  0
 12 39  1  0  0  0  0
 12 40  1  0  0  0  0
 13 14  1  0  0  0  0
 13 15  2  0  0  0  0
 14 41  1  0  0  0  0
 14 42  1  0  0  0  0
 14 43  1  0  0  0  0
 15 16  1  0  0  0  0
 16 17  1  0  0  0  0
 16 18  2  3  0  0  0
 17 44  1  0  0  0  0
 17 45  1  0  0  0  0
 17 46  1  0  0  0  0
 18 19  1  0  0  0  0
 18 47  1  0  0  0  0
 19 20  1  0  0  0  0
 20 21  1  0  0  0  0
 20 48  1  0  0  0  0
 20 49  1  0  0  0  0
 21 22  1  0  0  0  0
 21 24  2  0  0  0  0
 22 23  2  0  0  0  0
 22 50  1  0  0  0  0
 23 24  1  0  0  0  0
 23 51  1  0  0  0  0
 24 52  1  0  0  0  0
M  END
$$$$
