
 OpenBabel04232216533D

161160  0  0  0  0  0  0  0  0999 V2000
    0.9077   -0.0289    0.0988 C   0  0  0  0  0  0  0  0  0  0  0  0
    2.4247   -0.0316    0.0887 C   0  0  0  0  0  0  0  0  0  0  0  0
    2.9551   -1.2760    0.7929 C   0  0  0  0  0  0  0  0  0  0  0  0
    4.4789   -1.2845    0.7883 C   0  0  0  0  0  0  0  0  0  0  0  0
    4.9930   -2.5314    1.4941 C   0  0  0  0  0  0  0  0  0  0  0  0
    6.5132   -2.5425    1.4910 C   0  0  0  0  0  0  0  0  0  0  0  0
    7.0246   -3.7861    2.1972 C   0  0  0  0  0  0  0  0  0  0  0  0
    8.5430   -3.7981    2.1923 C   0  0  0  0  0  0  0  0  0  0  0  0
    9.0527   -5.0397    2.8976 C   0  0  0  0  0  0  0  0  0  0  0  0
   10.5726   -5.0478    2.8925 C   0  0  0  0  0  0  0  0  0  0  0  0
   11.0816   -6.2923    3.5953 C   0  0  0  0  0  0  0  0  0  0  0  0
   12.5985   -6.3021    3.5905 C   0  0  0  0  0  0  0  0  0  0  0  0
   13.1102   -7.5408    4.2969 C   0  0  0  0  0  0  0  0  0  0  0  0
   14.6212   -7.5610    4.2880 C   0  0  0  0  0  0  0  0  0  0  0  0
   15.1372   -8.7895    4.9943 C   0  0  0  0  0  0  0  0  0  0  0  0
   16.6506   -8.8007    4.9935 C   0  0  0  0  0  0  0  0  0  0  0  0
   17.1609  -10.0419    5.6960 C   0  0  0  0  0  0  0  0  0  0  0  0
   18.6776  -10.0487    5.6951 C   0  0  0  0  0  0  0  0  0  0  0  0
   19.1872  -11.2926    6.3973 C   0  0  0  0  0  0  0  0  0  0  0  0
   20.7038  -11.2980    6.3970 C   0  0  0  0  0  0  0  0  0  0  0  0
   21.2134  -12.5425    7.0982 C   0  0  0  0  0  0  0  0  0  0  0  0
   22.7297  -12.5470    7.1002 C   0  0  0  0  0  0  0  0  0  0  0  0
   23.2418  -13.7899    7.8013 C   0  0  0  0  0  0  0  0  0  0  0  0
   24.7546  -13.7991    7.8034 C   0  0  0  0  0  0  0  0  0  0  0  0
   25.2769  -15.0265    8.4996 C   0  0  0  0  0  0  0  0  0  0  0  0
   26.7804  -15.0487    8.5075 C   0  0  0  0  0  0  0  0  0  0  0  0
   27.2978  -16.2843    9.2062 C   0  0  0  0  0  0  0  0  0  0  0  0
   28.8100  -16.2949    9.2118 C   0  0  0  0  0  0  0  0  0  0  0  0
   29.3246  -17.5351    9.9114 C   0  0  0  0  0  0  0  0  0  0  0  0
   30.8378  -17.5471    9.9182 C   0  0  0  0  0  0  0  0  0  0  0  0
   31.3581  -18.7820   10.6143 C   0  0  0  0  0  0  0  0  0  0  0  0
   32.8683  -18.7986   10.6249 C   0  0  0  0  0  0  0  0  0  0  0  0
   33.3920  -20.0385   11.3237 C   0  0  0  0  0  0  0  0  0  0  0  0
   34.9050  -20.0487   11.3319 C   0  0  0  0  0  0  0  0  0  0  0  0
   35.4319  -21.2932   12.0338 C   0  0  0  0  0  0  0  0  0  0  0  0
   36.9546  -21.3133   12.0450 C   0  0  0  0  0  0  0  0  0  0  0  0
   37.4847  -22.5590   12.7452 C   0  0  0  0  0  0  0  0  0  0  0  0
   39.0115  -22.5848   12.7590 C   0  0  0  0  0  0  0  0  0  0  0  0
   39.5599  -23.8135   13.4625 C   0  0  0  0  0  0  0  0  0  0  0  0
   41.3965  -23.8315   13.4978 S   0  0  0  0  0  0  0  0  0  0  0  0
   41.9590  -22.1446   14.5336 S   0  0  0  0  0  0  0  0  0  0  0  0
   41.1748  -22.3138   16.4340 S   0  0  0  0  0  0  0  0  0  0  0  0
   42.0119  -23.9715   17.3430 S   0  0  0  0  0  0  0  0  0  0  0  0
   41.1763  -24.1235   19.2515 S   0  0  0  0  0  0  0  0  0  0  0  0
   41.9731  -25.8342   20.1635 S   0  0  0  0  0  0  0  0  0  0  0  0
   41.1663  -25.9909   22.0976 S   0  0  0  0  0  0  0  0  0  0  0  0
   41.9664  -27.7089   23.0124 S   0  0  0  0  0  0  0  0  0  0  0  0
   41.1624  -27.8736   24.9516 S   0  0  0  0  0  0  0  0  0  0  0  0
   41.9636  -29.5938   25.8677 S   0  0  0  0  0  0  0  0  0  0  0  0
   41.1601  -29.7607   27.8093 S   0  0  0  0  0  0  0  0  0  0  0  0
   41.9611  -31.4818   28.7270 S   0  0  0  0  0  0  0  0  0  0  0  0
   41.1575  -31.6493   30.6695 S   0  0  0  0  0  0  0  0  0  0  0  0
   41.9584  -33.3707   31.5880 S   0  0  0  0  0  0  0  0  0  0  0  0
   41.1548  -33.5384   33.5310 S   0  0  0  0  0  0  0  0  0  0  0  0
   41.9557  -35.2599   34.4496 S   0  0  0  0  0  0  0  0  0  0  0  0
   41.1521  -35.4277   36.3927 S   0  0  0  0  0  0  0  0  0  0  0  0
   41.9530  -37.1493   37.3114 S   0  0  0  0  0  0  0  0  0  0  0  0
   41.1494  -37.3171   39.2545 S   0  0  0  0  0  0  0  0  0  0  0  0
   41.9504  -39.0387   40.1733 S   0  0  0  0  0  0  0  0  0  0  0  0
   41.1467  -39.2065   42.1164 S   0  0  0  0  0  0  0  0  0  0  0  0
   41.9477  -40.9281   43.0351 S   0  0  0  0  0  0  0  0  0  0  0  0
   41.1440  -41.0959   44.9782 S   0  0  0  0  0  0  0  0  0  0  0  0
   41.9450  -42.8175   45.8969 S   0  0  0  0  0  0  0  0  0  0  0  0
   41.1413  -42.9852   47.8400 S   0  0  0  0  0  0  0  0  0  0  0  0
   41.9423  -44.7068   48.7588 S   0  0  0  0  0  0  0  0  0  0  0  0
   41.1386  -44.8746   50.7018 S   0  0  0  0  0  0  0  0  0  0  0  0
   41.9396  -46.5961   51.6205 S   0  0  0  0  0  0  0  0  0  0  0  0
   41.1359  -46.7638   53.5633 S   0  0  0  0  0  0  0  0  0  0  0  0
   41.9369  -48.4852   54.4817 S   0  0  0  0  0  0  0  0  0  0  0  0
   41.1332  -48.6525   56.4241 S   0  0  0  0  0  0  0  0  0  0  0  0
   41.9343  -50.3733   57.3414 S   0  0  0  0  0  0  0  0  0  0  0  0
   41.1306  -50.5394   59.2822 S   0  0  0  0  0  0  0  0  0  0  0  0
   41.9317  -52.2587   60.1971 S   0  0  0  0  0  0  0  0  0  0  0  0
   41.1274  -52.4217   62.1342 S   0  0  0  0  0  0  0  0  0  0  0  0
   41.9283  -54.1374   63.0440 S   0  0  0  0  0  0  0  0  0  0  0  0
   41.1230  -54.2929   64.9733 S   0  0  0  0  0  0  0  0  0  0  0  0
   41.9252  -56.0023   65.8699 S   0  0  0  0  0  0  0  0  0  0  0  0
   41.0963  -56.1584   67.7717 S   0  0  0  0  0  0  0  0  0  0  0  0
   41.9506  -57.8131   68.6832 S   0  0  0  0  0  0  0  0  0  0  0  0
   41.0925  -57.9709   70.5586 S   0  0  0  0  0  0  0  0  0  0  0  0
   41.7054  -56.3034   71.5904 S   0  0  0  0  0  0  0  0  0  0  0  0
    0.5282    0.8643   -0.4067 H   0  0  0  0  0  0  0  0  0  0  0  0
    0.5243   -0.0286    1.1219 H   0  0  0  0  0  0  0  0  0  0  0  0
    0.5125   -0.9059   -0.4193 H   0  0  0  0  0  0  0  0  0  0  0  0
    2.7980    0.8682    0.5893 H   0  0  0  0  0  0  0  0  0  0  0  0
    2.7863   -0.0050   -0.9447 H   0  0  0  0  0  0  0  0  0  0  0  0
    2.5808   -2.1750    0.2916 H   0  0  0  0  0  0  0  0  0  0  0  0
    2.5903   -1.3031    1.8253 H   0  0  0  0  0  0  0  0  0  0  0  0
    4.8595   -0.3900    1.2928 H   0  0  0  0  0  0  0  0  0  0  0  0
    4.8500   -1.2625   -0.2419 H   0  0  0  0  0  0  0  0  0  0  0  0
    4.6149   -3.4291    0.9915 H   0  0  0  0  0  0  0  0  0  0  0  0
    4.6243   -2.5566    2.5260 H   0  0  0  0  0  0  0  0  0  0  0  0
    6.8946   -1.6460    1.9937 H   0  0  0  0  0  0  0  0  0  0  0  0
    6.8850   -2.5208    0.4599 H   0  0  0  0  0  0  0  0  0  0  0  0
    6.6436   -4.6848    1.6966 H   0  0  0  0  0  0  0  0  0  0  0  0
    6.6554   -3.8091    3.2299 H   0  0  0  0  0  0  0  0  0  0  0  0
    8.9247   -2.8993    2.6932 H   0  0  0  0  0  0  0  0  0  0  0  0
    8.9129   -3.7752    1.1594 H   0  0  0  0  0  0  0  0  0  0  0  0
    8.6734   -5.9379    2.3958 H   0  0  0  0  0  0  0  0  0  0  0  0
    8.6833   -5.0630    3.9295 H   0  0  0  0  0  0  0  0  0  0  0  0
   10.9517   -4.1516    3.3959 H   0  0  0  0  0  0  0  0  0  0  0  0
   10.9418   -5.0241    1.8614 H   0  0  0  0  0  0  0  0  0  0  0  0
   10.7017   -7.1886    3.0934 H   0  0  0  0  0  0  0  0  0  0  0  0
   10.7124   -6.3167    4.6287 H   0  0  0  0  0  0  0  0  0  0  0  0
   12.9815   -5.4027    4.0914 H   0  0  0  0  0  0  0  0  0  0  0  0
   12.9699   -6.2791    2.5580 H   0  0  0  0  0  0  0  0  0  0  0  0
   12.7246   -8.4428    3.7961 H   0  0  0  0  0  0  0  0  0  0  0  0
   12.7389   -7.5636    5.3292 H   0  0  0  0  0  0  0  0  0  0  0  0
   15.0088   -6.6493    4.7905 H   0  0  0  0  0  0  0  0  0  0  0  0
   14.9945   -7.5315    3.2557 H   0  0  0  0  0  0  0  0  0  0  0  0
   14.7554   -9.6927    4.4937 H   0  0  0  0  0  0  0  0  0  0  0  0
   14.7617   -8.8166    6.0288 H   0  0  0  0  0  0  0  0  0  0  0  0
   17.0295   -7.9018    5.4976 H   0  0  0  0  0  0  0  0  0  0  0  0
   17.0239   -8.7736    3.9614 H   0  0  0  0  0  0  0  0  0  0  0  0
   16.7830  -10.9399    5.1913 H   0  0  0  0  0  0  0  0  0  0  0  0
   16.7881  -10.0691    6.7277 H   0  0  0  0  0  0  0  0  0  0  0  0
   19.0559   -9.1518    6.2013 H   0  0  0  0  0  0  0  0  0  0  0  0
   19.0512  -10.0212    4.6640 H   0  0  0  0  0  0  0  0  0  0  0  0
   18.8101  -12.1893    5.8900 H   0  0  0  0  0  0  0  0  0  0  0  0
   18.8128  -11.3208    7.4276 H   0  0  0  0  0  0  0  0  0  0  0  0
   21.0809  -10.4016    6.9053 H   0  0  0  0  0  0  0  0  0  0  0  0
   21.0784  -11.2687    5.3669 H   0  0  0  0  0  0  0  0  0  0  0  0
   20.8372  -13.4389    6.5889 H   0  0  0  0  0  0  0  0  0  0  0  0
   20.8377  -12.5727    8.1278 H   0  0  0  0  0  0  0  0  0  0  0  0
   23.1058  -11.6501    7.6073 H   0  0  0  0  0  0  0  0  0  0  0  0
   23.1053  -12.5179    6.0692 H   0  0  0  0  0  0  0  0  0  0  0  0
   22.8640  -14.6878    7.2947 H   0  0  0  0  0  0  0  0  0  0  0  0
   22.8662  -13.8188    8.8324 H   0  0  0  0  0  0  0  0  0  0  0  0
   25.1331  -12.8959    8.3075 H   0  0  0  0  0  0  0  0  0  0  0  0
   25.1316  -13.7652    6.7695 H   0  0  0  0  0  0  0  0  0  0  0  0
   24.8931  -15.9361    7.9932 H   0  0  0  0  0  0  0  0  0  0  0  0
   24.8934  -15.0663    9.5351 H   0  0  0  0  0  0  0  0  0  0  0  0
   27.1631  -14.1438    9.0136 H   0  0  0  0  0  0  0  0  0  0  0  0
   27.1617  -15.0142    7.4730 H   0  0  0  0  0  0  0  0  0  0  0  0
   26.9184  -17.1846    8.6991 H   0  0  0  0  0  0  0  0  0  0  0  0
   26.9185  -16.3159   10.2385 H   0  0  0  0  0  0  0  0  0  0  0  0
   29.1887  -15.3959    9.7191 H   0  0  0  0  0  0  0  0  0  0  0  0
   29.1887  -16.2641    8.1800 H   0  0  0  0  0  0  0  0  0  0  0  0
   28.9462  -18.4352    9.4044 H   0  0  0  0  0  0  0  0  0  0  0  0
   28.9462  -17.5666   10.9441 H   0  0  0  0  0  0  0  0  0  0  0  0
   31.2165  -16.6445   10.4242 H   0  0  0  0  0  0  0  0  0  0  0  0
   31.2164  -17.5134    8.8840 H   0  0  0  0  0  0  0  0  0  0  0  0
   30.9754  -19.6862   10.1083 H   0  0  0  0  0  0  0  0  0  0  0  0
   30.9747  -18.8167   11.6505 H   0  0  0  0  0  0  0  0  0  0  0  0
   33.2482  -17.8974   11.1292 H   0  0  0  0  0  0  0  0  0  0  0  0
   33.2472  -18.7639    9.5923 H   0  0  0  0  0  0  0  0  0  0  0  0
   33.0140  -20.9360   10.8145 H   0  0  0  0  0  0  0  0  0  0  0  0
   33.0109  -20.0694   12.3546 H   0  0  0  0  0  0  0  0  0  0  0  0
   35.2821  -19.1493   11.8397 H   0  0  0  0  0  0  0  0  0  0  0  0
   35.2843  -20.0165   10.3004 H   0  0  0  0  0  0  0  0  0  0  0  0
   35.0494  -22.1890   11.5257 H   0  0  0  0  0  0  0  0  0  0  0  0
   35.0494  -21.3217   13.0633 H   0  0  0  0  0  0  0  0  0  0  0  0
   37.3264  -20.4126   12.5511 H   0  0  0  0  0  0  0  0  0  0  0  0
   37.3265  -21.2777   11.0127 H   0  0  0  0  0  0  0  0  0  0  0  0
   37.1074  -23.4560   12.2359 H   0  0  0  0  0  0  0  0  0  0  0  0
   37.1052  -22.5907   13.7755 H   0  0  0  0  0  0  0  0  0  0  0  0
   39.3605  -21.6646   13.2575 H   0  0  0  0  0  0  0  0  0  0  0  0
   39.3867  -22.5477   11.7249 H   0  0  0  0  0  0  0  0  0  0  0  0
   39.2304  -24.7213   12.9568 H   0  0  0  0  0  0  0  0  0  0  0  0
   39.2138  -23.8668   14.4941 H   0  0  0  0  0  0  0  0  0  0  0  0
   41.1145  -56.5031   72.7814 H   0  0  0  0  0  0  0  0  0  0  0  0
  1  2  1  0  0  0  0
  1 82  1  0  0  0  0
  1 83  1  0  0  0  0
  1 84  1  0  0  0  0
  2  3  1  0  0  0  0
  2 85  1  0  0  0  0
  2 86  1  0  0  0  0
  3  4  1  0  0  0  0
  3 87  1  0  0  0  0
  3 88  1  0  0  0  0
  4  5  1  0  0  0  0
  4 89  1  0  0  0  0
  4 90  1  0  0  0  0
  5  6  1  0  0  0  0
  5 91  1  0  0  0  0
  5 92  1  0  0  0  0
  6  7  1  0  0  0  0
  6 93  1  0  0  0  0
  6 94  1  0  0  0  0
  7  8  1  0  0  0  0
  7 95  1  0  0  0  0
  7 96  1  0  0  0  0
  8  9  1  0  0  0  0
  8 97  1  0  0  0  0
  8 98  1  0  0  0  0
  9 10  1  0  0  0  0
  9 99  1  0  0  0  0
  9100  1  0  0  0  0
 10 11  1  0  0  0  0
 10101  1  0  0  0  0
 10102  1  0  0  0  0
 11 12  1  0  0  0  0
 11103  1  0  0  0  0
 11104  1  0  0  0  0
 12 13  1  0  0  0  0
 12105  1  0  0  0  0
 12106  1  0  0  0  0
 13 14  1  0  0  0  0
 13107  1  0  0  0  0
 13108  1  0  0  0  0
 14 15  1  0  0  0  0
 14109  1  0  0  0  0
 14110  1  0  0  0  0
 15 16  1  0  0  0  0
 15111  1  0  0  0  0
 15112  1  0  0  0  0
 16 17  1  0  0  0  0
 16113  1  0  0  0  0
 16114  1  0  0  0  0
 17 18  1  0  0  0  0
 17115  1  0  0  0  0
 17116  1  0  0  0  0
 18 19  1  0  0  0  0
 18117  1  0  0  0  0
 18118  1  0  0  0  0
 19 20  1  0  0  0  0
 19119  1  0  0  0  0
 19120  1  0  0  0  0
 20 21  1  0  0  0  0
 20121  1  0  0  0  0
 20122  1  0  0  0  0
 21 22  1  0  0  0  0
 21123  1  0  0  0  0
 21124  1  0  0  0  0
 22 23  1  0  0  0  0
 22125  1  0  0  0  0
 22126  1  0  0  0  0
 23 24  1  0  0  0  0
 23127  1  0  0  0  0
 23128  1  0  0  0  0
 24 25  1  0  0  0  0
 24129  1  0  0  0  0
 24130  1  0  0  0  0
 25 26  1  0  0  0  0
 25131  1  0  0  0  0
 25132  1  0  0  0  0
 26 27  1  0  0  0  0
 26133  1  0  0  0  0
 26134  1  0  0  0  0
 27 28  1  0  0  0  0
 27135  1  0  0  0  0
 27136  1  0  0  0  0
 28 29  1  0  0  0  0
 28137  1  0  0  0  0
 28138  1  0  0  0  0
 29 30  1  0  0  0  0
 29139  1  0  0  0  0
 29140  1  0  0  0  0
 30 31  1  0  0  0  0
 30141  1  0  0  0  0
 30142  1  0  0  0  0
 31 32  1  0  0  0  0
 31143  1  0  0  0  0
 31144  1  0  0  0  0
 32 33  1  0  0  0  0
 32145  1  0  0  0  0
 32146  1  0  0  0  0
 33 34  1  0  0  0  0
 33147  1  0  0  0  0
 33148  1  0  0  0  0
 34 35  1  0  0  0  0
 34149  1  0  0  0  0
 34150  1  0  0  0  0
 35 36  1  0  0  0  0
 35151  1  0  0  0  0
 35152  1  0  0  0  0
 36 37  1  0  0  0  0
 36153  1  0  0  0  0
 36154  1  0  0  0  0
 37 38  1  0  0  0  0
 37155  1  0  0  0  0
 37156  1  0  0  0  0
 38 39  1  0  0  0  0
 38157  1  0  0  0  0
 38158  1  0  0  0  0
 39 40  1  0  0  0  0
 39159  1  0  0  0  0
 39160  1  0  0  0  0
 40 41  1  0  0  0  0
 41 42  1  0  0  0  0
 42 43  1  0  0  0  0
 43 44  1  0  0  0  0
 44 45  1  0  0  0  0
 45 46  1  0  0  0  0
 46 47  1  0  0  0  0
 47 48  1  0  0  0  0
 48 49  1  0  0  0  0
 49 50  1  0  0  0  0
 50 51  1  0  0  0  0
 51 52  1  0  0  0  0
 52 53  1  0  0  0  0
 53 54  1  0  0  0  0
 54 55  1  0  0  0  0
 55 56  1  0  0  0  0
 56 57  1  0  0  0  0
 57 58  1  0  0  0  0
 58 59  1  0  0  0  0
 59 60  1  0  0  0  0
 60 61  1  0  0  0  0
 61 62  1  0  0  0  0
 62 63  1  0  0  0  0
 63 64  1  0  0  0  0
 64 65  1  0  0  0  0
 65 66  1  0  0  0  0
 66 67  1  0  0  0  0
 67 68  1  0  0  0  0
 68 69  1  0  0  0  0
 69 70  1  0  0  0  0
 70 71  1  0  0  0  0
 71 72  1  0  0  0  0
 72 73  1  0  0  0  0
 73 74  1  0  0  0  0
 74 75  1  0  0  0  0
 75 76  1  0  0  0  0
 76 77  1  0  0  0  0
 77 78  1  0  0  0  0
 78 79  1  0  0  0  0
 79 80  1  0  0  0  0
 80 81  1  0  0  0  0
 81161  1  0  0  0  0
M  END
$$$$
