
 OpenBabel04232216533D

 99 98  0  0  0  0  0  0  0  0999 V2000
    1.0695    0.0049   -0.0510 C   0  0  0  0  0  0  0  0  0  0  0  0
    2.5839   -0.0039   -0.0592 C   0  0  0  0  0  0  0  0  0  0  0  0
    3.0988   -1.3237   -0.6085 C   0  0  0  0  0  0  0  0  0  0  0  0
    4.6158   -1.3265   -0.6122 C   0  0  0  0  0  0  0  0  0  0  0  0
    5.1213   -2.6429   -1.1601 C   0  0  0  0  0  0  0  0  0  0  0  0
    6.6306   -2.6504   -1.1655 C   0  0  0  0  0  0  0  0  0  0  0  0
    7.0950   -3.9702   -1.7126 C   0  0  0  0  0  0  0  0  0  0  0  0
    8.4936   -3.9343   -1.6979 O   0  0  0  0  0  0  0  0  0  0  0  0
    8.9756   -5.1451   -2.1998 C   0  0  0  0  0  0  0  0  0  0  0  0
   10.3534   -5.0326   -2.1557 O   0  0  0  0  0  0  0  0  0  0  0  0
   10.7573   -6.2746   -2.6681 O   0  0  0  0  0  0  0  0  0  0  0  0
   12.1451   -6.2656   -2.6639 O   0  0  0  0  0  0  0  0  0  0  0  0
   12.5683   -7.4820   -3.1684 O   0  0  0  0  0  0  0  0  0  0  0  0
   13.9507   -7.4342   -3.1486 O   0  0  0  0  0  0  0  0  0  0  0  0
   14.3786   -8.6422   -3.6491 O   0  0  0  0  0  0  0  0  0  0  0  0
   15.7550   -8.5995   -3.6314 O   0  0  0  0  0  0  0  0  0  0  0  0
   16.1478   -9.8157   -4.1354 O   0  0  0  0  0  0  0  0  0  0  0  0
   17.5150   -9.7804   -4.1208 O   0  0  0  0  0  0  0  0  0  0  0  0
   17.9112  -10.9897   -4.6219 O   0  0  0  0  0  0  0  0  0  0  0  0
   19.2761  -10.9316   -4.5979 O   0  0  0  0  0  0  0  0  0  0  0  0
   19.6838  -12.1328   -5.0956 O   0  0  0  0  0  0  0  0  0  0  0  0
   21.0461  -12.0691   -5.0693 O   0  0  0  0  0  0  0  0  0  0  0  0
   21.4430  -13.2737   -5.5684 O   0  0  0  0  0  0  0  0  0  0  0  0
   22.8033  -13.2244   -5.5480 O   0  0  0  0  0  0  0  0  0  0  0  0
   23.1950  -14.4305   -6.0478 O   0  0  0  0  0  0  0  0  0  0  0  0
   24.5552  -14.3748   -6.0248 O   0  0  0  0  0  0  0  0  0  0  0  0
   24.9561  -15.5767   -6.5228 O   0  0  0  0  0  0  0  0  0  0  0  0
   26.3136  -15.5188   -6.4988 O   0  0  0  0  0  0  0  0  0  0  0  0
   26.7180  -16.7323   -7.0017 O   0  0  0  0  0  0  0  0  0  0  0  0
   28.0799  -16.6759   -6.9783 O   0  0  0  0  0  0  0  0  0  0  0  0
   28.4816  -17.8812   -7.4778 O   0  0  0  0  0  0  0  0  0  0  0  0
   29.8446  -17.8277   -7.4556 O   0  0  0  0  0  0  0  0  0  0  0  0
   30.2444  -19.0328   -7.9550 O   0  0  0  0  0  0  0  0  0  0  0  0
   31.6096  -18.9805   -7.9334 O   0  0  0  0  0  0  0  0  0  0  0  0
   32.0050  -20.1828   -8.4316 O   0  0  0  0  0  0  0  0  0  0  0  0
   33.3723  -20.1299   -8.4097 O   0  0  0  0  0  0  0  0  0  0  0  0
   33.7678  -21.3340   -8.9087 O   0  0  0  0  0  0  0  0  0  0  0  0
   35.1293  -21.2781   -8.8855 O   0  0  0  0  0  0  0  0  0  0  0  0
   35.5266  -22.4828   -9.3847 O   0  0  0  0  0  0  0  0  0  0  0  0
   36.8874  -22.4277   -9.3619 O   0  0  0  0  0  0  0  0  0  0  0  0
   37.2845  -23.6541   -9.8701 O   0  0  0  0  0  0  0  0  0  0  0  0
   38.6474  -23.5752   -9.8374 O   0  0  0  0  0  0  0  0  0  0  0  0
   39.0454  -24.7818  -10.3374 O   0  0  0  0  0  0  0  0  0  0  0  0
   40.4073  -24.7271  -10.3148 O   0  0  0  0  0  0  0  0  0  0  0  0
   40.8054  -25.9315  -10.8139 O   0  0  0  0  0  0  0  0  0  0  0  0
   42.1673  -25.8768  -10.7912 O   0  0  0  0  0  0  0  0  0  0  0  0
   42.5654  -27.0812  -11.2903 O   0  0  0  0  0  0  0  0  0  0  0  0
   43.9272  -27.0265  -11.2677 O   0  0  0  0  0  0  0  0  0  0  0  0
   44.3254  -28.2309  -11.7668 O   0  0  0  0  0  0  0  0  0  0  0  0
   45.6872  -28.1762  -11.7441 O   0  0  0  0  0  0  0  0  0  0  0  0
   46.0854  -29.3806  -12.2432 O   0  0  0  0  0  0  0  0  0  0  0  0
   47.4472  -29.3259  -12.2205 O   0  0  0  0  0  0  0  0  0  0  0  0
   47.8454  -30.5303  -12.7196 O   0  0  0  0  0  0  0  0  0  0  0  0
   49.2072  -30.4756  -12.6970 O   0  0  0  0  0  0  0  0  0  0  0  0
   49.6054  -31.6800  -13.1961 O   0  0  0  0  0  0  0  0  0  0  0  0
   50.9672  -31.6253  -13.1734 O   0  0  0  0  0  0  0  0  0  0  0  0
   51.3654  -32.8297  -13.6725 O   0  0  0  0  0  0  0  0  0  0  0  0
   52.7272  -32.7750  -13.6499 O   0  0  0  0  0  0  0  0  0  0  0  0
   53.1254  -33.9794  -14.1490 O   0  0  0  0  0  0  0  0  0  0  0  0
   54.4872  -33.9247  -14.1263 O   0  0  0  0  0  0  0  0  0  0  0  0
   54.8854  -35.1291  -14.6254 O   0  0  0  0  0  0  0  0  0  0  0  0
   56.2473  -35.0745  -14.6028 O   0  0  0  0  0  0  0  0  0  0  0  0
   56.6456  -36.2789  -15.1019 O   0  0  0  0  0  0  0  0  0  0  0  0
   58.0077  -36.2244  -15.0793 O   0  0  0  0  0  0  0  0  0  0  0  0
   58.4062  -37.4290  -15.5785 O   0  0  0  0  0  0  0  0  0  0  0  0
   59.7685  -37.3746  -15.5559 O   0  0  0  0  0  0  0  0  0  0  0  0
   60.1674  -38.5793  -16.0552 O   0  0  0  0  0  0  0  0  0  0  0  0
   61.5302  -38.5255  -16.0329 O   0  0  0  0  0  0  0  0  0  0  0  0
   61.9299  -39.7306  -16.5323 O   0  0  0  0  0  0  0  0  0  0  0  0
   63.2938  -39.6778  -16.5104 O   0  0  0  0  0  0  0  0  0  0  0  0
   63.6952  -40.8842  -17.0103 O   0  0  0  0  0  0  0  0  0  0  0  0
   65.0615  -40.8341  -16.9896 O   0  0  0  0  0  0  0  0  0  0  0  0
   65.4680  -42.0426  -17.4904 O   0  0  0  0  0  0  0  0  0  0  0  0
   66.8385  -41.9932  -17.4699 O   0  0  0  0  0  0  0  0  0  0  0  0
   67.2597  -43.2018  -17.9707 O   0  0  0  0  0  0  0  0  0  0  0  0
   68.6387  -43.1523  -17.9502 O   0  0  0  0  0  0  0  0  0  0  0  0
   69.0697  -44.3662  -18.4533 O   0  0  0  0  0  0  0  0  0  0  0  0
   70.4608  -44.3408  -18.4427 O   0  0  0  0  0  0  0  0  0  0  0  0
   70.8838  -45.5731  -18.9534 O   0  0  0  0  0  0  0  0  0  0  0  0
   72.2913  -45.5897  -18.9603 O   0  0  0  0  0  0  0  0  0  0  0  0
   72.7183  -46.8439  -19.4800 O   0  0  0  0  0  0  0  0  0  0  0  0
    0.6985    0.9539    0.3439 H   0  0  0  0  0  0  0  0  0  0  0  0
    0.6827   -0.8071    0.5728 H   0  0  0  0  0  0  0  0  0  0  0  0
    0.6777   -0.1276   -1.0645 H   0  0  0  0  0  0  0  0  0  0  0  0
    2.9620    0.1468    0.9587 H   0  0  0  0  0  0  0  0  0  0  0  0
    2.9572    0.8241   -0.6732 H   0  0  0  0  0  0  0  0  0  0  0  0
    2.7254   -1.4782   -1.6287 H   0  0  0  0  0  0  0  0  0  0  0  0
    2.7280   -2.1562    0.0026 H   0  0  0  0  0  0  0  0  0  0  0  0
    4.9949   -1.1779    0.4061 H   0  0  0  0  0  0  0  0  0  0  0  0
    4.9923   -0.4995   -1.2261 H   0  0  0  0  0  0  0  0  0  0  0  0
    4.7477   -2.7966   -2.1803 H   0  0  0  0  0  0  0  0  0  0  0  0
    4.7502   -3.4748   -0.5482 H   0  0  0  0  0  0  0  0  0  0  0  0
    7.0327   -2.5015   -0.1551 H   0  0  0  0  0  0  0  0  0  0  0  0
    7.0302   -1.8305   -1.7760 H   0  0  0  0  0  0  0  0  0  0  0  0
    6.7486   -4.1141   -2.7417 H   0  0  0  0  0  0  0  0  0  0  0  0
    6.7489   -4.8000   -1.0870 H   0  0  0  0  0  0  0  0  0  0  0  0
    8.6590   -5.3096   -3.2391 H   0  0  0  0  0  0  0  0  0  0  0  0
    8.6615   -5.9963   -1.5798 H   0  0  0  0  0  0  0  0  0  0  0  0
   73.6547  -46.6293  -19.3911 H   0  0  0  0  0  0  0  0  0  0  0  0
  1  2  1  0  0  0  0
  1 82  1  0  0  0  0
  1 83  1  0  0  0  0
  1 84  1  0  0  0  0
  2  3  1  0  0  0  0
  2 85  1  0  0  0  0
  2 86  1  0  0  0  0
  3  4  1  0  0  0  0
  3 87  1  0  0  0  0
  3 88  1  0  0  0  0
  4  5  1  0  0  0  0
  4 89  1  0  0  0  0
  4 90  1  0  0  0  0
  5  6  1  0  0  0  0
  5 91  1  0  0  0  0
  5 92  1  0  0  0  0
  6  7  1  0  0  0  0
  6 93  1  0  0  0  0
  6 94  1  0  0  0  0
  7  8  1  0  0  0  0
  7 95  1  0  0  0  0
  7 96  1  0  0  0  0
  8  9  1  0  0  0  0
  9 10  1  0  0  0  0
  9 97  1  0  0  0  0
  9 98  1  0  0  0  0
 10 11  1  0  0  0  0
 11 12  1  0  0  0  0
 12 13  1  0  0  0  0
 13 14  1  0  0  0  0
 14 15  1  0  0  0  0
 15 16  1  0  0  0  0
 16 17  1  0  0  0  0
 17 18  1  0  0  0  0
 18 19  1  0  0  0  0
 19 20  1  0  0  0  0
 20 21  1  0  0  0  0
 21 22  1  0  0  0  0
 22 23  1  0  0  0  0
 23 24  1  0  0  0  0
 24 25  1  0  0  0  0
 25 26  1  0  0  0  0
 26 27  1  0  0  0  0
 27 28  1  0  0  0  0
 28 29  1  0  0  0  0
 29 30  1  0  0  0  0
 30 31  1  0  0  0  0
 31 32  1  0  0  0  0
 32 33  1  0  0  0  0
 33 34  1  0  0  0  0
 34 35  1  0  0  0  0
 35 36  1  0  0  0  0
 36 37  1  0  0  0  0
 37 38  1  0  0  0  0
 38 39  1  0  0  0  0
 39 40  1  0  0  0  0
 40 41  1  0  0  0  0
 41 42  1  0  0  0  0
 42 43  1  0  0  0  0
 43 44  1  0  0  0  0
 44 45  1  0  0  0  0
 45 46  1  0  0  0  0
 46 47  1  0  0  0  0
 47 48  1  0  0  0  0
 48 49  1  0  0  0  0
 49 50  1  0  0  0  0
 50 51  1  0  0  0  0
 51 52  1  0  0  0  0
 52 53  1  0  0  0  0
 53 54  1  0  0  0  0
 54 55  1  0  0  0  0
 55 56  1  0  0  0  0
 56 57  1  0  0  0  0
 57 58  1  0  0  0  0
 58 59  1  0  0  0  0
 59 60  1  0  0  0  0
 60 61  1  0  0  0  0
 61 62  1  0  0  0  0
 62 63  1  0  0  0  0
 63 64  1  0  0  0  0
 64 65  1  0  0  0  0
 65 66  1  0  0  0  0
 66 67  1  0  0  0  0
 67 68  1  0  0  0  0
 68 69  1  0  0  0  0
 69 70  1  0  0  0  0
 70 71  1  0  0  0  0
 71 72  1  0  0  0  0
 72 73  1  0  0  0  0
 73 74  1  0  0  0  0
 74 75  1  0  0  0  0
 75 76  1  0  0  0  0
 76 77  1  0  0  0  0
 77 78  1  0  0  0  0
 78 79  1  0  0  0  0
 79 80  1  0  0  0  0
 80 81  1  0  0  0  0
 81 99  1  0  0  0  0
M  END
$$$$
