
 OpenBabel04232216453D

 51 52  0  0  0  0  0  0  0  0999 V2000
    2.0189    1.3357    1.7274 C   0  0  0  0  0  0  0  0  0  0  0  0
    2.8674    0.6937    0.6996 C   0  0  0  0  0  0  0  0  0  0  0  0
    2.7646    0.7652   -0.7079 C   0  0  0  0  0  0  0  0  0  0  0  0
    3.7858   -0.0197   -1.1934 C   0  0  0  0  0  0  0  0  0  0  0  0
    4.1726   -0.3736   -2.5826 C   0  0  0  0  0  0  0  0  0  0  0  0
    4.4268   -0.4973   -0.0824 N   0  0  0  0  0  0  0  0  0  0  0  0
    5.5394   -1.4192   -0.0288 C   0  0  0  0  0  0  0  0  0  0  0  0
    5.0533   -2.8626   -0.0078 C   0  0  0  0  0  0  0  0  0  0  0  0
    6.2533   -3.7920   -0.0832 C   0  0  0  0  0  0  0  0  0  0  0  0
    5.8305   -5.2527   -0.0329 C   0  0  0  0  0  0  0  0  0  0  0  0
    6.9822   -6.3503   -0.0076 C   0  0  0  0  0  0  0  0  0  0  0  0
    6.8315   -7.8975    0.6475 C   0  0  0  0  0  0  0  0  0  0  0  0
    5.5082   -8.4350    1.3786 C   0  0  0  0  0  0  0  0  0  0  0  0
    4.3743   -7.4398    1.4732 C   0  0  0  0  0  0  0  0  0  0  0  0
    3.0467   -7.8446    2.0932 C   0  0  0  0  0  0  0  0  0  0  0  0
    2.0863   -6.6418    1.9837 C   0  0  0  0  0  0  0  0  0  0  0  0
    8.0070   -8.6566    0.5432 C   0  0  0  0  0  0  0  0  0  0  0  0
    8.5299   -9.9618    0.9790 C   0  0  0  0  0  0  0  0  0  0  0  0
    9.8059  -10.6668    0.7230 C   0  0  0  0  0  0  0  0  0  0  0  0
    8.2093   -6.0327   -0.6278 C   0  0  0  0  0  0  0  0  0  0  0  0
    8.3027   -4.8212   -1.1685 F   0  0  0  0  0  0  0  0  0  0  0  0
    3.8731   -0.0821    1.0752 N   0  0  0  0  0  0  0  0  0  0  0  0
    1.2533    1.9690    1.2688 H   0  0  0  0  0  0  0  0  0  0  0  0
    2.6286    1.9604    2.3878 H   0  0  0  0  0  0  0  0  0  0  0  0
    1.5144    0.5788    2.3375 H   0  0  0  0  0  0  0  0  0  0  0  0
    2.0338    1.3098   -1.2878 H   0  0  0  0  0  0  0  0  0  0  0  0
    3.5338    0.1360   -3.3097 H   0  0  0  0  0  0  0  0  0  0  0  0
    4.0789   -1.4524   -2.7548 H   0  0  0  0  0  0  0  0  0  0  0  0
    5.2073   -0.0799   -2.7806 H   0  0  0  0  0  0  0  0  0  0  0  0
    6.1240   -1.1928    0.8703 H   0  0  0  0  0  0  0  0  0  0  0  0
    6.1822   -1.2232   -0.8937 H   0  0  0  0  0  0  0  0  0  0  0  0
    4.3893   -3.0566   -0.8595 H   0  0  0  0  0  0  0  0  0  0  0  0
    4.4684   -3.0563    0.8993 H   0  0  0  0  0  0  0  0  0  0  0  0
    6.9412   -3.5817    0.7456 H   0  0  0  0  0  0  0  0  0  0  0  0
    6.7631   -3.5504   -1.0187 H   0  0  0  0  0  0  0  0  0  0  0  0
    5.2323   -5.4763   -0.9274 H   0  0  0  0  0  0  0  0  0  0  0  0
    5.1585   -5.3498    0.8035 H   0  0  0  0  0  0  0  0  0  0  0  0
    5.8125   -8.7938    2.3712 H   0  0  0  0  0  0  0  0  0  0  0  0
    5.2071   -9.3578    0.8692 H   0  0  0  0  0  0  0  0  0  0  0  0
    4.1402   -7.0967    0.4597 H   0  0  0  0  0  0  0  0  0  0  0  0
    4.7374   -6.6145    2.0941 H   0  0  0  0  0  0  0  0  0  0  0  0
    3.1851   -8.1094    3.1479 H   0  0  0  0  0  0  0  0  0  0  0  0
    2.6205   -8.7066    1.5703 H   0  0  0  0  0  0  0  0  0  0  0  0
    2.5143   -5.7681    2.4842 H   0  0  0  0  0  0  0  0  0  0  0  0
    1.1321   -6.8820    2.4529 H   0  0  0  0  0  0  0  0  0  0  0  0
    1.9158   -6.3855    0.9375 H   0  0  0  0  0  0  0  0  0  0  0  0
    7.7235  -10.6629    0.6904 H   0  0  0  0  0  0  0  0  0  0  0  0
    8.3500   -9.9846    2.0685 H   0  0  0  0  0  0  0  0  0  0  0  0
    9.9840  -10.8176   -0.3427 H   0  0  0  0  0  0  0  0  0  0  0  0
    9.7248  -11.6688    1.1784 H   0  0  0  0  0  0  0  0  0  0  0  0
   10.6513  -10.1682    1.1973 H   0  0  0  0  0  0  0  0  0  0  0  0
  1  2  1  0  0  0  0
  1 23  1  0  0  0  0
  1 24  1  0  0  0  0
  1 25  1  0  0  0  0
  2  3  1  0  0  0  0
  2 22  2  0  0  0  0
  3  4  2  0  0  0  0
  3 26  1  0  0  0  0
  4  5  1  0  0  0  0
  4  6  1  0  0  0  0
  5 27  1  0  0  0  0
  5 28  1  0  0  0  0
  5 29  1  0  0  0  0
  6  7  1  0  0  0  0
  6 22  1  0  0  0  0
  7  8  1  0  0  0  0
  7 30  1  0  0  0  0
  7 31  1  0  0  0  0
  8  9  1  0  0  0  0
  8 32  1  0  0  0  0
  8 33  1  0  0  0  0
  9 10  1  0  0  0  0
  9 34  1  0  0  0  0
  9 35  1  0  0  0  0
 10 11  1  0  0  0  0
 10 36  1  0  0  0  0
 10 37  1  0  0  0  0
 11 12  1  0  0  0  0
 11 20  2  0  0  0  0
 12 13  1  0  0  0  0
 12 17  2  0  0  0  0
 13 14  1  0  0  0  0
 13 38  1  0  0  0  0
 13 39  1  0  0  0  0
 14 15  1  0  0  0  0
 14 40  1  0  0  0  0
 14 41  1  0  0  0  0
 15 16  1  0  0  0  0
 15 42  1  0  0  0  0
 15 43  1  0  0  0  0
 16 44  1  0  0  0  0
 16 45  1  0  0  0  0
 16 46  1  0  0  0  0
 17 18  1  0  0  0  0
 17 20  1  0  0  0  0
 18 19  1  0  0  0  0
 18 47  1  0  0  0  0
 18 48  1  0  0  0  0
 19 49  1  0  0  0  0
 19 50  1  0  0  0  0
 19 51  1  0  0  0  0
 20 21  1  0  0  0  0
M  END
$$$$
