
 OpenBabel04232217033D

127126  0  0  0  0  0  0  0  0999 V2000
   45.8606  -22.0876   28.0641 S   0  0  0  0  0  0  0  0  0  0  0  0
   45.6693  -21.4485   29.5885 O   0  0  0  0  0  0  0  0  0  0  0  0
   46.2626  -19.8976   29.6677 S   0  0  0  0  0  0  0  0  0  0  0  0
   47.8388  -20.2770   30.0119 N   0  0  0  0  0  0  0  0  0  0  0  0
   48.6357  -19.1048   30.0131 N   0  0  0  0  0  0  0  0  0  0  0  0
   50.0131  -19.4153   30.1800 N   0  0  0  0  0  0  0  0  0  0  0  0
   50.6012  -20.0639   29.0482 N   0  0  0  0  0  0  0  0  0  0  0  0
   50.3836  -19.3497   27.8235 N   0  0  0  0  0  0  0  0  0  0  0  0
   51.0425  -18.0763   27.8357 N   0  0  0  0  0  0  0  0  0  0  0  0
   52.4585  -18.2099   27.9673 N   0  0  0  0  0  0  0  0  0  0  0  0
   53.0466  -18.8385   26.8239 N   0  0  0  0  0  0  0  0  0  0  0  0
   52.8362  -18.0644   25.6282 N   0  0  0  0  0  0  0  0  0  0  0  0
   53.4709  -16.7808   25.7076 N   0  0  0  0  0  0  0  0  0  0  0  0
   54.8806  -16.9364   25.8799 N   0  0  0  0  0  0  0  0  0  0  0  0
   55.6994  -15.5281   25.6963 S   0  0  0  0  0  0  0  0  0  0  0  0
   55.0876  -14.5554   26.8822 N   0  0  0  0  0  0  0  0  0  0  0  0
   55.7187  -13.0303   26.8677 S   0  0  0  0  0  0  0  0  0  0  0  0
   55.3718  -12.3434   25.3974 N   0  0  0  0  0  0  0  0  0  0  0  0
   53.7457  -12.2435   25.1203 S   0  0  0  0  0  0  0  0  0  0  0  0
   53.5614  -11.4362   23.6951 N   0  0  0  0  0  0  0  0  0  0  0  0
   54.1409  -12.2042   22.3521 S   0  0  0  0  0  0  0  0  0  0  0  0
   53.4847  -13.7149   22.2341 N   0  0  0  0  0  0  0  0  0  0  0  0
   51.8666  -13.7828   21.9137 S   0  0  0  0  0  0  0  0  0  0  0  0
   51.5240  -12.9447   20.5334 N   0  0  0  0  0  0  0  0  0  0  0  0
   52.1091  -13.5832   19.1286 S   0  0  0  0  0  0  0  0  0  0  0  0
   51.5501  -15.1222   18.9247 N   0  0  0  0  0  0  0  0  0  0  0  0
   49.9203  -15.2839   18.7402 S   0  0  0  0  0  0  0  0  0  0  0  0
   49.4368  -14.4816   17.3775 N   0  0  0  0  0  0  0  0  0  0  0  0
   50.0071  -15.0996   15.9503 S   0  0  0  0  0  0  0  0  0  0  0  0
   49.4330  -16.6349   15.7575 N   0  0  0  0  0  0  0  0  0  0  0  0
   47.8206  -16.7118   15.4210 S   0  0  0  0  0  0  0  0  0  0  0  0
   47.1128  -16.6906   16.9139 N   0  0  0  0  0  0  0  0  0  0  0  0
   45.4665  -16.7455   16.8527 S   0  0  0  0  0  0  0  0  0  0  0  0
   45.0115  -18.2911   16.4854 N   0  0  0  0  0  0  0  0  0  0  0  0
   45.4539  -19.4429   17.5768 S   0  0  0  0  0  0  0  0  0  0  0  0
   44.8364  -19.0810   19.0642 N   0  0  0  0  0  0  0  0  0  0  0  0
   43.2210  -19.3845   19.2285 S   0  0  0  0  0  0  0  0  0  0  0  0
   42.9576  -20.9840   18.9291 N   0  0  0  0  0  0  0  0  0  0  0  0
   43.3833  -21.9863   20.1697 S   0  0  0  0  0  0  0  0  0  0  0  0
   44.9999  -22.2175   19.9770 N   0  0  0  0  0  0  0  0  0  0  0  0
   45.5467  -23.5216   20.8304 S   0  0  0  0  0  0  0  0  0  0  0  0
   47.1719  -23.2537   21.0066 N   0  0  0  0  0  0  0  0  0  0  0  0
   48.0506  -23.7112   19.6745 S   0  0  0  0  0  0  0  0  0  0  0  0
   47.7803  -22.5703   18.5001 N   0  0  0  0  0  0  0  0  0  0  0  0
   48.3468  -21.0648   18.8922 S   0  0  0  0  0  0  0  0  0  0  0  0
   49.9794  -21.1424   18.9135 N   0  0  0  0  0  0  0  0  0  0  0  0
   50.6470  -21.0960   17.4119 S   0  0  0  0  0  0  0  0  0  0  0  0
   52.2677  -21.1945   17.7102 N   0  0  0  0  0  0  0  0  0  0  0  0
   52.9505  -19.7101   17.9834 S   0  0  0  0  0  0  0  0  0  0  0  0
   52.3233  -19.1251   19.4037 N   0  0  0  0  0  0  0  0  0  0  0  0
   52.7703  -19.9676   20.7558 S   0  0  0  0  0  0  0  0  0  0  0  0
   54.4152  -20.0277   20.8105 N   0  0  0  0  0  0  0  0  0  0  0  0
   55.1250  -18.6104   21.2752 S   0  0  0  0  0  0  0  0  0  0  0  0
   54.8635  -18.3981   22.8952 N   0  0  0  0  0  0  0  0  0  0  0  0
   55.1712  -19.7549   23.7779 S   0  0  0  0  0  0  0  0  0  0  0  0
   56.6712  -19.5630   24.4305 N   0  0  0  0  0  0  0  0  0  0  0  0
   56.7334  -20.0606   26.0076 S   0  0  0  0  0  0  0  0  0  0  0  0
   56.0790  -21.5827   26.0440 N   0  0  0  0  0  0  0  0  0  0  0  0
   56.6551  -22.4870   27.2845 S   0  0  0  0  0  0  0  0  0  0  0  0
   55.9338  -21.8889   28.6426 N   0  0  0  0  0  0  0  0  0  0  0  0
   55.8855  -23.0089   29.8571 S   0  0  0  0  0  0  0  0  0  0  0  0
   57.4537  -23.2224   30.3311 N   0  0  0  0  0  0  0  0  0  0  0  0
   57.5578  -23.8688   31.8425 S   0  0  0  0  0  0  0  0  0  0  0  0
   57.1510  -25.4555   31.6723 N   0  0  0  0  0  0  0  0  0  0  0  0
   57.1537  -26.2274   33.1297 S   0  0  0  0  0  0  0  0  0  0  0  0
   56.7772  -27.7988   32.7827 N   0  0  0  0  0  0  0  0  0  0  0  0
   55.1445  -28.0592   32.6488 S   0  0  0  0  0  0  0  0  0  0  0  0
   54.6362  -27.3132   31.2552 N   0  0  0  0  0  0  0  0  0  0  0  0
   55.3045  -27.9556   29.8843 S   0  0  0  0  0  0  0  0  0  0  0  0
   54.6561  -29.4549   29.6979 N   0  0  0  0  0  0  0  0  0  0  0  0
   55.4593  -30.2756   28.5115 S   0  0  0  0  0  0  0  0  0  0  0  0
   54.5895  -31.6591   28.2793 N   0  0  0  0  0  0  0  0  0  0  0  0
   54.9486  -32.8375   29.3890 S   0  0  0  0  0  0  0  0  0  0  0  0
   54.2799  -32.3689   30.8343 N   0  0  0  0  0  0  0  0  0  0  0  0
   52.6292  -32.2495   30.7861 S   0  0  0  0  0  0  0  0  0  0  0  0
   52.0448  -33.7845   30.6381 N   0  0  0  0  0  0  0  0  0  0  0  0
   50.4027  -33.7715   30.8214 S   0  0  0  0  0  0  0  0  0  0  0  0
   49.8880  -35.2829   30.4171 N   0  0  0  0  0  0  0  0  0  0  0  0
   50.3316  -36.4087   31.5405 S   0  0  0  0  0  0  0  0  0  0  0  0
   49.4872  -37.7709   31.1605 N   0  0  0  0  0  0  0  0  0  0  0  0
   50.0309  -38.4739   29.7664 S   0  0  0  0  0  0  0  0  0  0  0  0
   45.4965  -23.3462   28.3516 H   0  0  0  0  0  0  0  0  0  0  0  0
   48.1641  -20.9007   29.2724 H   0  0  0  0  0  0  0  0  0  0  0  0
   48.3191  -18.4637   30.7502 H   0  0  0  0  0  0  0  0  0  0  0  0
   50.1822  -19.9461   31.0403 H   0  0  0  0  0  0  0  0  0  0  0  0
   50.2860  -21.0325   28.9541 H   0  0  0  0  0  0  0  0  0  0  0  0
   49.3747  -19.1867   27.7135 H   0  0  0  0  0  0  0  0  0  0  0  0
   50.6854  -17.5430   28.6375 H   0  0  0  0  0  0  0  0  0  0  0  0
   52.6514  -18.7776   28.8011 H   0  0  0  0  0  0  0  0  0  0  0  0
   52.6243  -19.7662   26.7048 H   0  0  0  0  0  0  0  0  0  0  0  0
   51.8221  -17.9280   25.5458 H   0  0  0  0  0  0  0  0  0  0  0  0
   53.0991  -16.2981   26.5333 H   0  0  0  0  0  0  0  0  0  0  0  0
   55.1996  -17.6859   25.2644 H   0  0  0  0  0  0  0  0  0  0  0  0
   55.2215  -15.0004   27.7932 H   0  0  0  0  0  0  0  0  0  0  0  0
   55.8125  -12.8986   24.6624 H   0  0  0  0  0  0  0  0  0  0  0  0
   53.9791  -10.5093   23.7787 H   0  0  0  0  0  0  0  0  0  0  0  0
   53.6870  -14.2470   23.0827 H   0  0  0  0  0  0  0  0  0  0  0  0
   51.8478  -11.9841   20.6406 H   0  0  0  0  0  0  0  0  0  0  0  0
   51.8834  -15.7068   19.6915 H   0  0  0  0  0  0  0  0  0  0  0  0
   49.7101  -13.5015   17.4576 H   0  0  0  0  0  0  0  0  0  0  0  0
   49.6871  -17.2259   16.5461 H   0  0  0  0  0  0  0  0  0  0  0  0
   47.4106  -15.8249   17.3716 H   0  0  0  0  0  0  0  0  0  0  0  0
   45.3869  -18.5382   15.5694 H   0  0  0  0  0  0  0  0  0  0  0  0
   45.0431  -18.1095   19.2932 H   0  0  0  0  0  0  0  0  0  0  0  0
   43.4017  -21.2696   18.0624 H   0  0  0  0  0  0  0  0  0  0  0  0
   45.4973  -21.3735   20.2654 H   0  0  0  0  0  0  0  0  0  0  0  0
   47.5134  -23.7823   21.8123 H   0  0  0  0  0  0  0  0  0  0  0  0
   46.7814  -22.5166   18.3216 H   0  0  0  0  0  0  0  0  0  0  0  0
   50.2837  -21.9897   19.4056 H   0  0  0  0  0  0  0  0  0  0  0  0
   52.7305  -21.6362   16.9190 H   0  0  0  0  0  0  0  0  0  0  0  0
   51.3037  -19.1542   19.3315 H   0  0  0  0  0  0  0  0  0  0  0  0
   54.7858  -20.3496   19.9201 H   0  0  0  0  0  0  0  0  0  0  0  0
   53.8969  -18.1020   23.0576 H   0  0  0  0  0  0  0  0  0  0  0  0
   56.9714  -18.5916   24.3474 H   0  0  0  0  0  0  0  0  0  0  0  0
   56.2634  -22.0323   25.1461 H   0  0  0  0  0  0  0  0  0  0  0  0
   54.9959  -21.5705   28.4151 H   0  0  0  0  0  0  0  0  0  0  0  0
   57.9338  -22.3208   30.2949 H   0  0  0  0  0  0  0  0  0  0  0  0
   57.7553  -25.9259   30.9980 H   0  0  0  0  0  0  0  0  0  0  0  0
   57.1433  -28.4056   33.5162 H   0  0  0  0  0  0  0  0  0  0  0  0
   54.9116  -26.3296   31.3194 H   0  0  0  0  0  0  0  0  0  0  0  0
   53.6583  -29.4001   29.4968 H   0  0  0  0  0  0  0  0  0  0  0  0
   54.7752  -32.0256   27.3461 H   0  0  0  0  0  0  0  0  0  0  0  0
   54.6685  -31.4511   31.0678 H   0  0  0  0  0  0  0  0  0  0  0  0
   52.4702  -34.3815   31.3463 H   0  0  0  0  0  0  0  0  0  0  0  0
   50.2249  -35.5436   29.4904 H   0  0  0  0  0  0  0  0  0  0  0  0
   48.4866  -37.5762   31.1267 H   0  0  0  0  0  0  0  0  0  0  0  0
   51.2983  -38.7102   30.1420 H   0  0  0  0  0  0  0  0  0  0  0  0
  1  2  1  0  0  0  0
  1 82  1  0  0  0  0
  2  3  1  0  0  0  0
  3  4  1  0  0  0  0
  4  5  1  0  0  0  0
  4 83  1  0  0  0  0
  5  6  1  0  0  0  0
  5 84  1  0  0  0  0
  6  7  1  0  0  0  0
  6 85  1  0  0  0  0
  7  8  1  0  0  0  0
  7 86  1  0  0  0  0
  8  9  1  0  0  0  0
  8 87  1  0  0  0  0
  9 10  1  0  0  0  0
  9 88  1  0  0  0  0
 10 11  1  0  0  0  0
 10 89  1  0  0  0  0
 11 12  1  0  0  0  0
 11 90  1  0  0  0  0
 12 13  1  0  0  0  0
 12 91  1  0  0  0  0
 13 14  1  0  0  0  0
 13 92  1  0  0  0  0
 14 15  1  0  0  0  0
 14 93  1  0  0  0  0
 15 16  1  0  0  0  0
 16 17  1  0  0  0  0
 16 94  1  0  0  0  0
 17 18  1  0  0  0  0
 18 19  1  0  0  0  0
 18 95  1  0  0  0  0
 19 20  1  0  0  0  0
 20 21  1  0  0  0  0
 20 96  1  0  0  0  0
 21 22  1  0  0  0  0
 22 23  1  0  0  0  0
 22 97  1  0  0  0  0
 23 24  1  0  0  0  0
 24 25  1  0  0  0  0
 24 98  1  0  0  0  0
 25 26  1  0  0  0  0
 26 27  1  0  0  0  0
 26 99  1  0  0  0  0
 27 28  1  0  0  0  0
 28 29  1  0  0  0  0
 28100  1  0  0  0  0
 29 30  1  0  0  0  0
 30 31  1  0  0  0  0
 30101  1  0  0  0  0
 31 32  1  0  0  0  0
 32 33  1  0  0  0  0
 32102  1  0  0  0  0
 33 34  1  0  0  0  0
 34 35  1  0  0  0  0
 34103  1  0  0  0  0
 35 36  1  0  0  0  0
 36 37  1  0  0  0  0
 36104  1  0  0  0  0
 37 38  1  0  0  0  0
 38 39  1  0  0  0  0
 38105  1  0  0  0  0
 39 40  1  0  0  0  0
 40 41  1  0  0  0  0
 40106  1  0  0  0  0
 41 42  1  0  0  0  0
 42 43  1  0  0  0  0
 42107  1  0  0  0  0
 43 44  1  0  0  0  0
 44 45  1  0  0  0  0
 44108  1  0  0  0  0
 45 46  1  0  0  0  0
 46 47  1  0  0  0  0
 46109  1  0  0  0  0
 47 48  1  0  0  0  0
 48 49  1  0  0  0  0
 48110  1  0  0  0  0
 49 50  1  0  0  0  0
 50 51  1  0  0  0  0
 50111  1  0  0  0  0
 51 52  1  0  0  0  0
 52 53  1  0  0  0  0
 52112  1  0  0  0  0
 53 54  1  0  0  0  0
 54 55  1  0  0  0  0
 54113  1  0  0  0  0
 55 56  1  0  0  0  0
 56 57  1  0  0  0  0
 56114  1  0  0  0  0
 57 58  1  0  0  0  0
 58 59  1  0  0  0  0
 58115  1  0  0  0  0
 59 60  1  0  0  0  0
 60 61  1  0  0  0  0
 60116  1  0  0  0  0
 61 62  1  0  0  0  0
 62 63  1  0  0  0  0
 62117  1  0  0  0  0
 63 64  1  0  0  0  0
 64 65  1  0  0  0  0
 64118  1  0  0  0  0
 65 66  1  0  0  0  0
 66 67  1  0  0  0  0
 66119  1  0  0  0  0
 67 68  1  0  0  0  0
 68 69  1  0  0  0  0
 68120  1  0  0  0  0
 69 70  1  0  0  0  0
 70 71  1  0  0  0  0
 70121  1  0  0  0  0
 71 72  1  0  0  0  0
 72 73  1  0  0  0  0
 72122  1  0  0  0  0
 73 74  1  0  0  0  0
 74 75  1  0  0  0  0
 74123  1  0  0  0  0
 75 76  1  0  0  0  0
 76 77  1  0  0  0  0
 76124  1  0  0  0  0
 77 78  1  0  0  0  0
 78 79  1  0  0  0  0
 78125  1  0  0  0  0
 79 80  1  0  0  0  0
 80 81  1  0  0  0  0
 80126  1  0  0  0  0
 81127  1  0  0  0  0
M  END
$$$$
