
 OpenBabel04232216493D

 62 63  0  0  1  0  0  0  0  0999 V2000
    0.9782   -0.0634    0.3159 C   0  0  0  0  0  0  0  0  0  0  0  0
    2.5041   -0.0059    0.2028 C   0  0  3  0  0  0  0  0  0  0  0  0
    3.0234   -1.3556   -0.3180 C   0  0  0  0  0  0  0  0  0  0  0  0
    4.5418   -1.4577   -0.4616 C   0  0  0  0  0  0  0  0  0  0  0  0
    5.0781   -0.6496   -1.6476 C   0  0  0  0  0  0  0  0  0  0  0  0
    5.4165    0.8155   -1.3259 C   0  0  3  0  0  0  0  0  0  0  0  0
    6.7726    0.8711   -0.5922 C   0  0  0  0  0  0  0  0  0  0  0  0
    7.2225    2.2856   -0.2505 C   0  0  0  0  0  0  0  0  0  0  0  0
    8.5746    2.2682    0.4381 C   0  0  0  0  0  0  0  0  0  0  0  0
    8.9736    3.6892    0.7980 C   0  0  0  0  0  0  0  0  0  0  0  0
   10.3124    3.6771    1.5068 C   0  0  0  0  0  0  0  0  0  0  0  0
   10.7510    5.0966    1.8282 C   0  0  0  0  0  0  0  0  0  0  0  0
   12.1183    5.0952    2.4744 C   0  0  0  0  0  0  0  0  0  0  0  0
   12.7099    4.0277    2.6490 O   0  0  0  0  0  0  0  0  0  0  0  0
   12.7203    6.4104    2.9141 C   0  0  0  0  0  0  0  0  0  0  0  0
   13.7140    6.4429    3.8445 C   0  0  0  0  0  0  0  0  0  0  0  0
   14.3049    5.1696    4.4580 C   0  0  0  0  0  0  0  0  0  0  0  0
   15.4215    5.3036    5.4885 C   0  0  0  0  0  0  0  0  0  0  0  0
   14.3141    7.7485    4.3299 C   0  0  0  0  0  0  0  0  0  0  0  0
   13.4279    8.9548    4.0757 C   0  0  0  0  0  0  0  0  0  0  0  0
   12.9705    8.9788    2.6391 C   0  0  0  0  0  0  0  0  0  0  0  0
   12.2418    7.7028    2.3048 C   0  0  0  0  0  0  0  0  0  0  0  0
   11.3227    7.7444    1.4914 O   0  0  0  0  0  0  0  0  0  0  0  0
    4.3302    1.5481   -0.5866 C   0  0  0  0  0  3  0  0  0  0  0  0
    2.8917    1.1811   -0.6899 C   0  0  0  0  0  0  0  0  0  0  0  0
    0.6601   -0.9082    0.9362 H   0  0  0  0  0  0  0  0  0  0  0  0
    0.5132   -0.1683   -0.6716 H   0  0  0  0  0  0  0  0  0  0  0  0
    0.5896    0.8523    0.7753 H   0  0  0  0  0  0  0  0  0  0  0  0
    2.9077    0.1539    1.2126 H   0  0  0  0  0  0  0  0  0  0  0  0
    2.5537   -1.5888   -1.2832 H   0  0  0  0  0  0  0  0  0  0  0  0
    2.6998   -2.1425    0.3752 H   0  0  0  0  0  0  0  0  0  0  0  0
    4.7882   -2.5111   -0.6342 H   0  0  0  0  0  0  0  0  0  0  0  0
    5.0319   -1.1797    0.4786 H   0  0  0  0  0  0  0  0  0  0  0  0
    4.3608   -0.6866   -2.4771 H   0  0  0  0  0  0  0  0  0  0  0  0
    5.9828   -1.1459   -2.0233 H   0  0  0  0  0  0  0  0  0  0  0  0
    5.5512    1.3342   -2.2847 H   0  0  0  0  0  0  0  0  0  0  0  0
    7.5381    0.4108   -1.2338 H   0  0  0  0  0  0  0  0  0  0  0  0
    6.7415    0.2744    0.3272 H   0  0  0  0  0  0  0  0  0  0  0  0
    6.5111    2.7621    0.4313 H   0  0  0  0  0  0  0  0  0  0  0  0
    7.2693    2.8955   -1.1605 H   0  0  0  0  0  0  0  0  0  0  0  0
    9.3294    1.8165   -0.2163 H   0  0  0  0  0  0  0  0  0  0  0  0
    8.5231    1.6572    1.3481 H   0  0  0  0  0  0  0  0  0  0  0  0
    8.2141    4.1453    1.4451 H   0  0  0  0  0  0  0  0  0  0  0  0
    9.0331    4.3000   -0.1114 H   0  0  0  0  0  0  0  0  0  0  0  0
   11.0606    3.1977    0.8622 H   0  0  0  0  0  0  0  0  0  0  0  0
   10.2499    3.0797    2.4246 H   0  0  0  0  0  0  0  0  0  0  0  0
   10.0312    5.5716    2.5038 H   0  0  0  0  0  0  0  0  0  0  0  0
   10.8011    5.6400    0.8813 H   0  0  0  0  0  0  0  0  0  0  0  0
   14.7278    4.5609    3.6497 H   0  0  0  0  0  0  0  0  0  0  0  0
   13.4974    4.6024    4.9371 H   0  0  0  0  0  0  0  0  0  0  0  0
   16.2795    5.8437    5.0772 H   0  0  0  0  0  0  0  0  0  0  0  0
   15.7675    4.3073    5.7862 H   0  0  0  0  0  0  0  0  0  0  0  0
   15.0749    5.8121    6.3927 H   0  0  0  0  0  0  0  0  0  0  0  0
   15.2872    7.8851    3.8463 H   0  0  0  0  0  0  0  0  0  0  0  0
   14.4849    7.7141    5.4124 H   0  0  0  0  0  0  0  0  0  0  0  0
   13.9714    9.8755    4.3153 H   0  0  0  0  0  0  0  0  0  0  0  0
   12.5547    8.9132    4.7400 H   0  0  0  0  0  0  0  0  0  0  0  0
   13.8082    9.0958    1.9441 H   0  0  0  0  0  0  0  0  0  0  0  0
   12.2809    9.8169    2.4932 H   0  0  0  0  0  0  0  0  0  0  0  0
    4.5289    2.5533   -0.2244 H   0  0  0  0  0  0  0  0  0  0  0  0
    2.6240    0.9967   -1.7362 H   0  0  0  0  0  0  0  0  0  0  0  0
    2.3151    2.0632   -0.3801 H   0  0  0  0  0  0  0  0  0  0  0  0
  1  2  1  0  0  0  0
  1 26  1  0  0  0  0
  1 27  1  0  0  0  0
  1 28  1  0  0  0  0
  2  3  1  0  0  0  0
  2 25  1  0  0  0  0
  2 29  1  0  0  0  0
  3  4  1  0  0  0  0
  3 30  1  0  0  0  0
  3 31  1  0  0  0  0
  4  5  1  0  0  0  0
  4 32  1  0  0  0  0
  4 33  1  0  0  0  0
  5  6  1  0  0  0  0
  5 34  1  0  0  0  0
  5 35  1  0  0  0  0
  6  7  1  0  0  0  0
  6 24  1  0  0  0  0
  6 36  1  0  0  0  0
  7  8  1  0  0  0  0
  7 37  1  0  0  0  0
  7 38  1  0  0  0  0
  8  9  1  0  0  0  0
  8 39  1  0  0  0  0
  8 40  1  0  0  0  0
  9 10  1  0  0  0  0
  9 41  1  0  0  0  0
  9 42  1  0  0  0  0
 10 11  1  0  0  0  0
 10 43  1  0  0  0  0
 10 44  1  0  0  0  0
 11 12  1  0  0  0  0
 11 45  1  0  0  0  0
 11 46  1  0  0  0  0
 12 13  1  0  0  0  0
 12 47  1  0  0  0  0
 12 48  1  0  0  0  0
 13 14  2  0  0  0  0
 13 15  1  0  0  0  0
 15 16  2  0  0  0  0
 15 22  1  0  0  0  0
 16 17  1  0  0  0  0
 16 19  1  0  0  0  0
 17 18  1  0  0  0  0
 17 49  1  0  0  0  0
 17 50  1  0  0  0  0
 18 51  1  0  0  0  0
 18 52  1  0  0  0  0
 18 53  1  0  0  0  0
 19 20  1  0  0  0  0
 19 54  1  0  0  0  0
 19 55  1  0  0  0  0
 20 21  1  0  0  0  0
 20 56  1  0  0  0  0
 20 57  1  0  0  0  0
 21 22  1  0  0  0  0
 21 58  1  0  0  0  0
 21 59  1  0  0  0  0
 22 23  2  0  0  0  0
 24 25  1  0  0  0  0
 24 60  1  0  0  0  0
 25 61  1  0  0  0  0
 25 62  1  0  0  0  0
M  END
$$$$
