
 OpenBabel04232217023D

 69 69  0  0  0  0  0  0  0  0999 V2000
    9.3932    2.2541    9.9401 O   0  0  0  0  0  0  0  0  0  0  0  0
   10.9978    2.9705   10.7918 O   0  0  0  0  0  0  0  0  0  0  0  0
   12.6249    2.0388   11.1896 C   0  0  0  0  0  0  0  0  0  0  0  0
   11.6477    1.3263    9.6666 C   0  0  0  0  0  0  0  0  0  0  0  0
   10.2967    1.0228    8.1479 C   0  0  0  0  0  0  0  0  0  0  0  0
    9.1337    1.0463    6.8523 C   0  0  0  0  0  0  0  0  0  0  0  0
    8.6022   -0.0115    5.6453 N   0  0  0  0  0  0  0  0  0  0  0  0
    9.3135    0.2474    4.1973 C   0  0  0  0  0  0  0  0  0  0  0  0
   10.6865    0.2465    4.8727 C   0  0  0  0  0  0  0  0  0  0  0  0
   11.3661    1.3985    4.9278 C   0  0  0  0  0  0  0  0  0  0  0  0
   11.9518    1.9271    6.1241 C   0  0  0  0  0  0  0  0  0  0  0  0
   13.1543    1.7131    6.6021 C   0  0  0  0  0  0  0  0  0  0  0  0
   13.4662    1.9724    7.9769 C   0  0  0  0  0  0  0  0  0  0  0  0
   14.6625    1.7771    8.4382 C   0  0  0  0  0  0  0  0  0  0  0  0
   15.1732    2.1953    9.6347 N   0  0  0  0  0  0  0  0  0  0  0  0
   16.3766    2.4568   10.1869 N   0  0  0  0  0  0  0  0  0  0  0  0
   16.5463    2.6386   11.4962 N   0  0  0  0  0  0  0  0  0  0  0  0
   17.9299    2.7522   11.6137 N   0  0  0  0  0  0  0  0  0  0  0  0
   18.3174    2.8304   12.9197 N   0  0  0  0  0  0  0  0  0  0  0  0
   19.6743    3.1623   13.0626 N   0  0  0  0  0  0  0  0  0  0  0  0
   19.9053    3.3803   14.4245 N   0  0  0  0  0  0  0  0  0  0  0  0
   21.1958    3.7085   14.8047 N   0  0  0  0  0  0  0  0  0  0  0  0
   21.3148    4.3843   15.9853 N   0  0  0  0  0  0  0  0  0  0  0  0
   22.5401    4.4729   16.5517 C   0  0  0  0  0  0  0  0  0  0  0  0
   22.6160    5.2923   17.5947 C   0  0  0  0  0  0  0  0  0  0  0  0
   23.7527    5.6066   18.3417 C   0  0  0  0  0  0  0  0  0  0  0  0
   23.5884    6.0190   19.6240 C   0  0  0  0  0  0  0  0  0  0  0  0
   24.4238    5.0639   20.3145 C   0  0  0  0  0  0  0  0  0  0  0  0
   23.2741    4.0933   20.5129 C   0  0  0  0  0  0  0  0  0  0  0  0
   22.0102    3.3434   19.1837 C   0  0  0  0  0  0  0  0  0  0  0  0
   20.3707    3.1101   18.3402 C   0  0  0  0  0  0  0  0  0  0  0  0
   18.7330    2.6994   16.9965 C   0  0  0  0  0  0  0  0  0  0  0  0
   17.3166    2.6756   15.5113 C   0  0  0  0  0  0  0  0  0  0  0  0
   15.7376    2.5017   14.0508 C   0  0  0  0  0  0  0  0  0  0  0  0
   14.1828    2.1377   12.7154 C   0  0  0  0  0  0  0  0  0  0  0  0
    8.9768    2.4210    8.9111 H   0  0  0  0  0  0  0  0  0  0  0  0
   11.1042    2.2901    8.9643 H   0  0  0  0  0  0  0  0  0  0  0  0
    9.8515    2.1312    7.5238 H   0  0  0  0  0  0  0  0  0  0  0  0
    8.3585    1.5070    5.8544 H   0  0  0  0  0  0  0  0  0  0  0  0
    7.5479   -0.0456    5.6527 H   0  0  0  0  0  0  0  0  0  0  0  0
    9.1068    1.2094    3.6121 H   0  0  0  0  0  0  0  0  0  0  0  0
    9.1890   -0.5236    3.3880 H   0  0  0  0  0  0  0  0  0  0  0  0
   10.6755   -0.2941    5.8371 H   0  0  0  0  0  0  0  0  0  0  0  0
   11.8275    1.5367    3.9776 H   0  0  0  0  0  0  0  0  0  0  0  0
   11.4451    2.0693    7.0256 H   0  0  0  0  0  0  0  0  0  0  0  0
   13.7770    1.1715    5.9340 H   0  0  0  0  0  0  0  0  0  0  0  0
   12.9423    2.4650    8.7696 H   0  0  0  0  0  0  0  0  0  0  0  0
   15.3428    1.6139    7.6135 H   0  0  0  0  0  0  0  0  0  0  0  0
   15.8787    2.2293    8.9159 H   0  0  0  0  0  0  0  0  0  0  0  0
   16.7502    3.2891    9.7346 H   0  0  0  0  0  0  0  0  0  0  0  0
   16.1844    1.8384   12.0118 H   0  0  0  0  0  0  0  0  0  0  0  0
   18.2082    3.5941   11.1255 H   0  0  0  0  0  0  0  0  0  0  0  0
   17.9891    2.0189   13.4534 H   0  0  0  0  0  0  0  0  0  0  0  0
   19.8249    4.0305   12.5619 H   0  0  0  0  0  0  0  0  0  0  0  0
   19.6415    2.4893   14.8524 H   0  0  0  0  0  0  0  0  0  0  0  0
   21.5927    4.3346   14.1260 H   0  0  0  0  0  0  0  0  0  0  0  0
   20.5619    4.7986   16.5559 H   0  0  0  0  0  0  0  0  0  0  0  0
   23.3485    3.8712   16.1212 H   0  0  0  0  0  0  0  0  0  0  0  0
   21.7016    5.5383   18.1297 H   0  0  0  0  0  0  0  0  0  0  0  0
   24.5608    4.8778   18.1043 H   0  0  0  0  0  0  0  0  0  0  0  0
   22.5936    6.0823   20.2232 H   0  0  0  0  0  0  0  0  0  0  0  0
   25.4580    5.1327   19.7270 H   0  0  0  0  0  0  0  0  0  0  0  0
   23.3488    4.6864   21.6133 H   0  0  0  0  0  0  0  0  0  0  0  0
   23.3183    3.1159   19.2152 H   0  0  0  0  0  0  0  0  0  0  0  0
   20.4911    3.6481   19.4633 H   0  0  0  0  0  0  0  0  0  0  0  0
   19.9029    3.0566   16.7916 H   0  0  0  0  0  0  0  0  0  0  0  0
   18.0997    3.5001   15.3548 H   0  0  0  0  0  0  0  0  0  0  0  0
   16.2447    3.5227   13.9302 H   0  0  0  0  0  0  0  0  0  0  0  0
   14.0290    3.1689   12.1479 H   0  0  0  0  0  0  0  0  0  0  0  0
  1  2  1  0  0  0  0
  1 36  1  0  0  0  0
  2  3  1  0  0  0  0
  3  4  2  3  0  0  0
  3 35  1  0  0  0  0
  4  5  1  0  0  0  0
  4 37  1  0  0  0  0
  5  6  2  3  0  0  0
  5 38  1  0  0  0  0
  6  7  1  0  0  0  0
  6 39  1  0  0  0  0
  7  8  1  0  0  0  0
  7 40  1  0  0  0  0
  8  9  1  0  0  0  0
  8 41  1  0  0  0  0
  8 42  1  0  0  0  0
  9 10  2  3  0  0  0
  9 43  1  0  0  0  0
 10 11  1  0  0  0  0
 10 44  1  0  0  0  0
 11 12  2  3  0  0  0
 11 45  1  0  0  0  0
 12 13  1  0  0  0  0
 12 46  1  0  0  0  0
 13 14  2  3  0  0  0
 13 47  1  0  0  0  0
 14 15  1  0  0  0  0
 14 48  1  0  0  0  0
 15 16  1  0  0  0  0
 15 49  1  0  0  0  0
 16 17  1  0  0  0  0
 16 50  1  0  0  0  0
 17 18  1  0  0  0  0
 17 51  1  0  0  0  0
 18 19  1  0  0  0  0
 18 52  1  0  0  0  0
 19 20  1  0  0  0  0
 19 53  1  0  0  0  0
 20 21  1  0  0  0  0
 20 54  1  0  0  0  0
 21 22  1  0  0  0  0
 21 55  1  0  0  0  0
 22 23  1  0  0  0  0
 22 56  1  0  0  0  0
 23 24  1  0  0  0  0
 23 57  1  0  0  0  0
 24 25  2  3  0  0  0
 24 58  1  0  0  0  0
 25 26  1  0  0  0  0
 25 59  1  0  0  0  0
 26 27  2  3  0  0  0
 26 60  1  0  0  0  0
 27 28  1  0  0  0  0
 27 61  1  0  0  0  0
 28 29  2  3  0  0  0
 28 62  1  0  0  0  0
 29 30  1  0  0  0  0
 29 63  1  0  0  0  0
 30 31  2  3  0  0  0
 30 64  1  0  0  0  0
 31 32  1  0  0  0  0
 31 65  1  0  0  0  0
 32 33  2  3  0  0  0
 32 66  1  0  0  0  0
 33 34  1  0  0  0  0
 33 67  1  0  0  0  0
 34 35  2  3  0  0  0
 34 68  1  0  0  0  0
 35 69  1  0  0  0  0
M  END
$$$$
