
 OpenBabel04232216563D

 27 28  0  0  0  0  0  0  0  0999 V2000
    0.3972   -2.8996    0.0663 C   0  0  0  0  0  0  0  0  0  0  0  0
    1.1114   -4.1942    0.0604 N   0  0  0  0  0  0  0  0  0  0  0  0
    0.2561   -5.2968    0.0473 C   0  0  0  0  0  0  0  0  0  0  0  0
    0.3249   -6.5821    0.0949 N   0  0  0  0  0  0  0  0  0  0  0  0
    1.4990   -7.2312    0.2372 C   0  0  0  0  0  0  0  0  0  0  0  0
    2.7416   -6.7622    0.3461 C   0  0  0  0  0  0  0  0  0  0  0  0
    3.2465   -5.3997    0.2699 C   0  0  0  0  0  0  0  0  0  0  0  0
    4.7676   -5.5341    0.3465 C   0  0  0  0  0  0  0  0  0  0  0  0
    6.0702   -4.7524    0.1300 C   0  0  0  0  0  0  0  0  0  0  0  0
    5.9247   -3.2461    0.0474 C   0  0  0  0  0  0  0  0  0  0  0  0
    4.5828   -2.6010   -0.1357 C   0  0  0  0  0  0  0  0  0  0  0  0
    3.2881   -2.9755   -0.1135 C   0  0  0  0  0  0  0  0  0  0  0  0
    2.5451   -4.2462    0.0990 C   0  0  0  0  0  0  0  0  0  0  0  0
   -0.6944   -3.0090    0.1127 H   0  0  0  0  0  0  0  0  0  0  0  0
    0.6003   -2.3384   -0.8517 H   0  0  0  0  0  0  0  0  0  0  0  0
    0.6757   -2.3093    0.9466 H   0  0  0  0  0  0  0  0  0  0  0  0
   -0.7958   -4.9730   -0.0371 H   0  0  0  0  0  0  0  0  0  0  0  0
    1.3885   -8.3146    0.2589 H   0  0  0  0  0  0  0  0  0  0  0  0
    3.5033   -7.5282    0.4389 H   0  0  0  0  0  0  0  0  0  0  0  0
    4.6938   -5.1090    1.3528 H   0  0  0  0  0  0  0  0  0  0  0  0
    4.6791   -5.5246   -0.7443 H   0  0  0  0  0  0  0  0  0  0  0  0
    6.5811   -5.1345   -0.7690 H   0  0  0  0  0  0  0  0  0  0  0  0
    6.7769   -5.0176    0.9299 H   0  0  0  0  0  0  0  0  0  0  0  0
    6.3725   -2.8188    0.9502 H   0  0  0  0  0  0  0  0  0  0  0  0
    6.5715   -2.9146   -0.7756 H   0  0  0  0  0  0  0  0  0  0  0  0
    4.7309   -1.5371   -0.3450 H   0  0  0  0  0  0  0  0  0  0  0  0
    2.6410   -2.1272   -0.3096 H   0  0  0  0  0  0  0  0  0  0  0  0
  1  2  1  0  0  0  0
  1 14  1  0  0  0  0
  1 15  1  0  0  0  0
  1 16  1  0  0  0  0
  2  3  1  0  0  0  0
  2 13  1  0  0  0  0
  3  4  2  0  0  0  0
  3 17  1  0  0  0  0
  4  5  1  0  0  0  0
  5  6  2  0  0  0  0
  5 18  1  0  0  0  0
  6  7  1  0  0  0  0
  6 19  1  0  0  0  0
  7  8  1  0  0  0  0
  7 13  2  0  0  0  0
  8  9  1  0  0  0  0
  8 20  1  0  0  0  0
  8 21  1  0  0  0  0
  9 10  1  0  0  0  0
  9 22  1  0  0  0  0
  9 23  1  0  0  0  0
 10 11  1  0  0  0  0
 10 24  1  0  0  0  0
 10 25  1  0  0  0  0
 11 12  2  0  0  0  0
 11 26  1  0  0  0  0
 12 13  1  0  0  0  0
 12 27  1  0  0  0  0
M  END
$$$$
