
 OpenBabel04232216443D

 58 59  0  0  1  0  0  0  0  0999 V2000
    4.3475    1.8966    2.4872 C   0  0  0  0  0  0  0  0  0  0  0  0
    5.2849    0.6751    2.8771 C   0  0  3  0  0  0  0  0  0  0  0  0
    4.2587   -0.4892    2.6923 C   0  0  0  0  0  0  0  0  0  0  0  0
    3.0146   -0.5747    3.2235 C   0  0  0  0  0  0  0  0  0  0  0  0
    4.4938   -1.3792    1.4746 C   0  0  0  0  0  0  0  0  0  0  0  0
    4.8723   -2.7343    1.9973 C   0  0  0  0  0  0  0  0  0  0  0  0
    6.2948   -2.6681    2.5320 C   0  0  0  0  0  0  0  0  0  0  0  0
    6.1660   -2.9842    3.9895 C   0  0  0  0  0  0  0  0  0  0  0  0
    7.4976   -3.3182    4.5675 C   0  0  0  0  0  0  0  0  0  0  0  0
    7.5460   -2.6268    5.9382 C   0  0  3  0  0  0  0  0  0  0  0  0
    7.4042   -3.7800    6.9489 C   0  0  0  0  0  0  0  0  0  0  0  0
    7.1136   -3.4152    8.3987 C   0  0  0  0  0  0  0  0  0  0  0  0
    6.9382   -4.7101    9.1888 C   0  0  0  0  0  0  0  0  0  0  0  0
    8.6884   -1.6858    5.6578 C   0  0  0  0  0  0  0  0  0  0  0  0
    8.4754   -0.5445    4.9162 C   0  0  0  0  0  0  0  0  0  0  0  0
    7.3356    0.4460    4.9546 C   0  0  0  0  0  0  0  0  0  0  0  0
    7.8117    1.4037    6.1649 C   0  0  0  0  0  0  0  0  0  0  0  0
    8.4374    0.8667    7.5042 C   0  0  0  0  0  0  0  0  0  0  0  0
    9.7345    0.2771    7.3979 O   0  0  0  0  0  0  0  0  0  0  0  0
    9.7675   -0.8242    8.3542 O   0  0  0  0  0  0  0  0  0  0  0  0
   10.9247   -1.6804    8.1277 O   0  0  0  0  0  0  0  0  0  0  0  0
   10.4795   -2.7652    7.3155 C   0  0  0  0  0  0  0  0  0  0  0  0
   10.1048   -2.3101    5.8849 C   0  0  0  0  0  0  0  0  0  0  0  0
    6.2211    0.8599    4.2296 C   0  0  0  0  0  0  0  0  0  0  0  0
    3.6636    1.6239    1.6514 H   0  0  0  0  0  0  0  0  0  0  0  0
    4.8841    2.7637    2.1042 H   0  0  0  0  0  0  0  0  0  0  0  0
    3.6840    2.2146    3.3058 H   0  0  0  0  0  0  0  0  0  0  0  0
    5.9981    0.6409    2.0442 H   0  0  0  0  0  0  0  0  0  0  0  0
    2.3252   -1.3416    2.8686 H   0  0  0  0  0  0  0  0  0  0  0  0
    2.5985    0.1232    3.9389 H   0  0  0  0  0  0  0  0  0  0  0  0
    5.2516   -0.9617    0.8000 H   0  0  0  0  0  0  0  0  0  0  0  0
    3.5767   -1.4917    0.8755 H   0  0  0  0  0  0  0  0  0  0  0  0
    4.8373   -3.5020    1.2244 H   0  0  0  0  0  0  0  0  0  0  0  0
    4.1663   -3.0607    2.7856 H   0  0  0  0  0  0  0  0  0  0  0  0
    6.7627   -1.6751    2.4108 H   0  0  0  0  0  0  0  0  0  0  0  0
    6.9626   -3.3575    2.0050 H   0  0  0  0  0  0  0  0  0  0  0  0
    5.5028   -3.8290    4.1860 H   0  0  0  0  0  0  0  0  0  0  0  0
    5.7077   -2.1096    4.4725 H   0  0  0  0  0  0  0  0  0  0  0  0
    8.3013   -3.0181    3.8750 H   0  0  0  0  0  0  0  0  0  0  0  0
    7.6183   -4.4072    4.6266 H   0  0  0  0  0  0  0  0  0  0  0  0
    6.6900   -1.9772    6.1567 H   0  0  0  0  0  0  0  0  0  0  0  0
    8.2475   -4.4753    6.8758 H   0  0  0  0  0  0  0  0  0  0  0  0
    6.5296   -4.3662    6.6224 H   0  0  0  0  0  0  0  0  0  0  0  0
    6.1949   -2.8206    8.4661 H   0  0  0  0  0  0  0  0  0  0  0  0
    7.9151   -2.8176    8.8356 H   0  0  0  0  0  0  0  0  0  0  0  0
    6.0419   -5.2464    8.8638 H   0  0  0  0  0  0  0  0  0  0  0  0
    6.8226   -4.4913   10.2646 H   0  0  0  0  0  0  0  0  0  0  0  0
    7.7949   -5.3691    9.0689 H   0  0  0  0  0  0  0  0  0  0  0  0
    9.3854   -0.0575    4.5491 H   0  0  0  0  0  0  0  0  0  0  0  0
    6.9547    2.0124    6.4725 H   0  0  0  0  0  0  0  0  0  0  0  0
    8.5547    2.0772    5.7235 H   0  0  0  0  0  0  0  0  0  0  0  0
    7.7454    0.1935    8.0213 H   0  0  0  0  0  0  0  0  0  0  0  0
    8.6066    1.7310    8.1570 H   0  0  0  0  0  0  0  0  0  0  0  0
    9.7089   -3.3237    7.8417 H   0  0  0  0  0  0  0  0  0  0  0  0
   11.3182   -3.4727    7.2514 H   0  0  0  0  0  0  0  0  0  0  0  0
   10.1929   -3.1937    5.2397 H   0  0  0  0  0  0  0  0  0  0  0  0
   10.8796   -1.6055    5.5592 H   0  0  0  0  0  0  0  0  0  0  0  0
    5.8716    1.8283    4.5966 H   0  0  0  0  0  0  0  0  0  0  0  0
  1  2  1  0  0  0  0
  1 25  1  0  0  0  0
  1 26  1  0  0  0  0
  1 27  1  0  0  0  0
  2  3  1  0  0  0  0
  2 24  1  0  0  0  0
  2 28  1  0  0  0  0
  3  4  2  0  0  0  0
  3  5  1  0  0  0  0
  4 29  1  0  0  0  0
  4 30  1  0  0  0  0
  5  6  1  0  0  0  0
  5 31  1  0  0  0  0
  5 32  1  0  0  0  0
  6  7  1  0  0  0  0
  6 33  1  0  0  0  0
  6 34  1  0  0  0  0
  7  8  1  0  0  0  0
  7 35  1  0  0  0  0
  7 36  1  0  0  0  0
  8  9  1  0  0  0  0
  8 37  1  0  0  0  0
  8 38  1  0  0  0  0
  9 10  1  0  0  0  0
  9 39  1  0  0  0  0
  9 40  1  0  0  0  0
 10 11  1  0  0  0  0
 10 14  1  0  0  0  0
 10 41  1  0  0  0  0
 11 12  1  0  0  0  0
 11 42  1  0  0  0  0
 11 43  1  0  0  0  0
 12 13  1  0  0  0  0
 12 44  1  0  0  0  0
 12 45  1  0  0  0  0
 13 46  1  0  0  0  0
 13 47  1  0  0  0  0
 13 48  1  0  0  0  0
 14 15  2  3  0  0  0
 14 23  1  0  0  0  0
 15 16  1  0  0  0  0
 15 49  1  0  0  0  0
 16 17  1  0  0  0  0
 16 24  2  3  0  0  0
 17 18  1  0  0  0  0
 17 50  1  0  0  0  0
 17 51  1  0  0  0  0
 18 19  1  0  0  0  0
 18 52  1  0  0  0  0
 18 53  1  0  0  0  0
 19 20  1  0  0  0  0
 20 21  1  0  0  0  0
 21 22  1  0  0  0  0
 22 23  1  0  0  0  0
 22 54  1  0  0  0  0
 22 55  1  0  0  0  0
 23 56  1  0  0  0  0
 23 57  1  0  0  0  0
 24 58  1  0  0  0  0
M  END
$$$$
