
 OpenBabel04232216583D

 29 28  0  0  0  0  0  0  0  0999 V2000
    4.5816    1.9360   -3.2682 N   0  0  0  0  0  0  0  0  0  0  0  0
    4.1276    0.6795   -2.7902 N   0  0  0  0  0  0  0  0  0  0  0  0
    4.6124   -0.3890   -3.5828 N   0  0  0  0  0  0  0  0  0  0  0  0
    6.0450   -0.4604   -3.5675 N   0  0  0  0  0  0  0  0  0  0  0  0
    6.5494   -0.7383   -2.2496 N   0  0  0  0  0  0  0  0  0  0  0  0
    6.1194   -2.0186   -1.7691 N   0  0  0  0  0  0  0  0  0  0  0  0
    6.6809   -3.0937   -2.5256 N   0  0  0  0  0  0  0  0  0  0  0  0
    8.1283   -3.0629   -2.4828 N   0  0  0  0  0  0  0  0  0  0  0  0
    8.6478   -3.4533   -1.1739 C   0  0  0  0  0  0  0  0  0  0  0  0
    8.1039   -4.7392   -0.7682 N   0  0  0  0  0  0  0  0  0  0  0  0
    8.5858   -5.8307   -1.6135 C   0  0  0  0  0  0  0  0  0  0  0  0
    7.9719   -7.1351   -1.1397 C   0  0  0  0  0  0  0  0  0  0  0  0
    4.3707    2.6740   -2.5934 H   0  0  0  0  0  0  0  0  0  0  0  0
    4.1219    2.2056   -4.1402 H   0  0  0  0  0  0  0  0  0  0  0  0
    3.1075    0.6173   -2.6721 H   0  0  0  0  0  0  0  0  0  0  0  0
    4.2839   -0.3321   -4.5508 H   0  0  0  0  0  0  0  0  0  0  0  0
    6.4030    0.4587   -3.8535 H   0  0  0  0  0  0  0  0  0  0  0  0
    6.1841   -0.0116   -1.6224 H   0  0  0  0  0  0  0  0  0  0  0  0
    5.0947   -2.0537   -1.8312 H   0  0  0  0  0  0  0  0  0  0  0  0
    6.3766   -2.9736   -3.5021 H   0  0  0  0  0  0  0  0  0  0  0  0
    8.4020   -2.0896   -2.6392 H   0  0  0  0  0  0  0  0  0  0  0  0
    8.3836   -2.6999   -0.4186 H   0  0  0  0  0  0  0  0  0  0  0  0
    9.7415   -3.4834   -1.2037 H   0  0  0  0  0  0  0  0  0  0  0  0
    7.1007   -4.6306   -0.9303 H   0  0  0  0  0  0  0  0  0  0  0  0
    9.6759   -5.9006   -1.5601 H   0  0  0  0  0  0  0  0  0  0  0  0
    8.3057   -5.6757   -2.6632 H   0  0  0  0  0  0  0  0  0  0  0  0
    8.2673   -7.3657   -0.1092 H   0  0  0  0  0  0  0  0  0  0  0  0
    8.3037   -7.9594   -1.7797 H   0  0  0  0  0  0  0  0  0  0  0  0
    6.8766   -7.1005   -1.1830 H   0  0  0  0  0  0  0  0  0  0  0  0
  1  2  1  0  0  0  0
  1 13  1  0  0  0  0
  1 14  1  0  0  0  0
  2  3  1  0  0  0  0
  2 15  1  0  0  0  0
  3  4  1  0  0  0  0
  3 16  1  0  0  0  0
  4  5  1  0  0  0  0
  4 17  1  0  0  0  0
  5  6  1  0  0  0  0
  5 18  1  0  0  0  0
  6  7  1  0  0  0  0
  6 19  1  0  0  0  0
  7  8  1  0  0  0  0
  7 20  1  0  0  0  0
  8  9  1  0  0  0  0
  8 21  1  0  0  0  0
  9 10  1  0  0  0  0
  9 22  1  0  0  0  0
  9 23  1  0  0  0  0
 10 11  1  0  0  0  0
 10 24  1  0  0  0  0
 11 12  1  0  0  0  0
 11 25  1  0  0  0  0
 11 26  1  0  0  0  0
 12 27  1  0  0  0  0
 12 28  1  0  0  0  0
 12 29  1  0  0  0  0
M  END
$$$$
