
 OpenBabel04232216583D

170169  0  0  0  0  0  0  0  0999 V2000
   20.2551    0.8500  -28.9071 N   0  0  0  0  0  0  0  0  0  0  0  0
   21.6779    0.9385  -28.7434 N   0  0  0  0  0  0  0  0  0  0  0  0
   21.9928    0.7313  -27.3314 C   0  0  0  0  0  0  0  0  0  0  0  0
   23.5042    0.8142  -27.1290 C   0  0  0  0  0  0  0  0  0  0  0  0
   23.8525    0.6437  -25.7082 N   0  0  0  0  0  0  0  0  0  0  0  0
   23.4172   -0.6457  -25.3162 N   0  0  0  0  0  0  0  0  0  0  0  0
   23.7094   -0.8507  -23.9549 N   0  0  0  0  0  0  0  0  0  0  0  0
   23.2902   -2.1429  -23.5373 N   0  0  0  0  0  0  0  0  0  0  0  0
   23.9168   -3.1765  -24.3138 N   0  0  0  0  0  0  0  0  0  0  0  0
   25.3449   -3.0910  -24.1659 N   0  0  0  0  0  0  0  0  0  0  0  0
   25.6918   -3.2814  -22.7809 N   0  0  0  0  0  0  0  0  0  0  0  0
   25.2420   -4.5688  -22.3248 N   0  0  0  0  0  0  0  0  0  0  0  0
   25.8325   -5.5845  -23.1410 N   0  0  0  0  0  0  0  0  0  0  0  0
   27.2635   -5.5012  -23.0109 N   0  0  0  0  0  0  0  0  0  0  0  0
   27.6174   -5.6691  -21.6334 N   0  0  0  0  0  0  0  0  0  0  0  0
   27.1335   -6.9270  -21.1628 N   0  0  0  0  0  0  0  0  0  0  0  0
   27.7365   -7.9785  -21.9451 N   0  0  0  0  0  0  0  0  0  0  0  0
   29.1740   -7.9188  -21.8385 N   0  0  0  0  0  0  0  0  0  0  0  0
   29.5522   -8.0642  -20.4719 N   0  0  0  0  0  0  0  0  0  0  0  0
   29.0844   -9.3253  -19.9835 N   0  0  0  0  0  0  0  0  0  0  0  0
   29.6619  -10.4044  -20.7563 N   0  0  0  0  0  0  0  0  0  0  0  0
   31.0836  -10.3409  -20.6855 N   0  0  0  0  0  0  0  0  0  0  0  0
   31.4622  -10.4553  -19.3257 N   0  0  0  0  0  0  0  0  0  0  0  0
   31.0133  -11.7263  -18.8065 N   0  0  0  0  0  0  0  0  0  0  0  0
   31.5301  -12.7930  -19.6074 N   0  0  0  0  0  0  0  0  0  0  0  0
   32.9673  -12.7604  -19.5317 N   0  0  0  0  0  0  0  0  0  0  0  0
   33.3764  -12.8771  -18.1573 N   0  0  0  0  0  0  0  0  0  0  0  0
   32.9208  -14.1359  -17.6264 N   0  0  0  0  0  0  0  0  0  0  0  0
   33.4387  -15.2286  -18.4057 N   0  0  0  0  0  0  0  0  0  0  0  0
   34.8606  -15.1786  -18.3711 N   0  0  0  0  0  0  0  0  0  0  0  0
   35.2843  -15.3084  -17.0100 N   0  0  0  0  0  0  0  0  0  0  0  0
   34.7898  -16.5306  -16.4460 N   0  0  0  0  0  0  0  0  0  0  0  0
   35.2986  -17.6455  -17.2003 N   0  0  0  0  0  0  0  0  0  0  0  0
   36.7353  -17.6185  -17.1842 N   0  0  0  0  0  0  0  0  0  0  0  0
   37.1999  -17.7426  -15.8251 N   0  0  0  0  0  0  0  0  0  0  0  0
   36.6811  -18.9546  -15.2384 N   0  0  0  0  0  0  0  0  0  0  0  0
   37.1596  -20.0561  -16.0109 N   0  0  0  0  0  0  0  0  0  0  0  0
   38.6019  -20.0222  -15.9975 N   0  0  0  0  0  0  0  0  0  0  0  0
   39.0924  -20.1235  -14.6399 N   0  0  0  0  0  0  0  0  0  0  0  0
   38.6098  -21.3244  -14.0416 N   0  0  0  0  0  0  0  0  0  0  0  0
   39.0777  -22.4638  -14.7759 N   0  0  0  0  0  0  0  0  0  0  0  0
   40.5196  -22.4939  -14.7909 N   0  0  0  0  0  0  0  0  0  0  0  0
   40.9997  -22.5154  -13.4619 N   0  0  0  0  0  0  0  0  0  0  0  0
   40.5246  -23.7157  -12.8544 N   0  0  0  0  0  0  0  0  0  0  0  0
   40.9590  -24.8720  -13.6155 N   0  0  0  0  0  0  0  0  0  0  0  0
   42.3895  -24.8997  -13.6406 N   0  0  0  0  0  0  0  0  0  0  0  0
   42.8923  -24.9476  -12.2934 N   0  0  0  0  0  0  0  0  0  0  0  0
   42.4258  -26.1600  -11.6436 N   0  0  0  0  0  0  0  0  0  0  0  0
   42.8247  -27.2848  -12.4107 N   0  0  0  0  0  0  0  0  0  0  0  0
   44.2558  -27.2900  -12.4614 N   0  0  0  0  0  0  0  0  0  0  0  0
   44.8048  -27.3619  -11.1212 N   0  0  0  0  0  0  0  0  0  0  0  0
   44.3234  -28.5369  -10.4580 N   0  0  0  0  0  0  0  0  0  0  0  0
   44.7273  -29.7018  -11.1896 N   0  0  0  0  0  0  0  0  0  0  0  0
   46.1483  -29.7261  -11.2773 N   0  0  0  0  0  0  0  0  0  0  0  0
   46.6823  -29.7635   -9.9492 N   0  0  0  0  0  0  0  0  0  0  0  0
   46.1901  -30.9341   -9.2496 N   0  0  0  0  0  0  0  0  0  0  0  0
   46.5969  -32.1136   -9.9591 N   0  0  0  0  0  0  0  0  0  0  0  0
   48.0354  -32.1738  -10.0453 N   0  0  0  0  0  0  0  0  0  0  0  0
   48.5811  -32.1605   -8.7392 N   0  0  0  0  0  0  0  0  0  0  0  0
   48.0764  -33.3059   -8.0501 N   0  0  0  0  0  0  0  0  0  0  0  0
   48.4620  -34.5103   -8.7559 N   0  0  0  0  0  0  0  0  0  0  0  0
   49.8920  -34.5823   -8.8477 N   0  0  0  0  0  0  0  0  0  0  0  0
   50.4797  -34.5992   -7.5345 N   0  0  0  0  0  0  0  0  0  0  0  0
   49.9639  -35.7213   -6.8165 N   0  0  0  0  0  0  0  0  0  0  0  0
   50.3347  -36.9323   -7.5237 N   0  0  0  0  0  0  0  0  0  0  0  0
   51.7646  -37.0102   -7.6501 N   0  0  0  0  0  0  0  0  0  0  0  0
   52.3654  -37.0225   -6.3473 N   0  0  0  0  0  0  0  0  0  0  0  0
   51.8707  -38.1332   -5.5978 N   0  0  0  0  0  0  0  0  0  0  0  0
   52.2177  -39.3496   -6.2844 N   0  0  0  0  0  0  0  0  0  0  0  0
   53.6365  -39.4358   -6.4454 N   0  0  0  0  0  0  0  0  0  0  0  0
   54.2562  -39.4287   -5.1590 N   0  0  0  0  0  0  0  0  0  0  0  0
   53.7399  -40.5286   -4.3922 N   0  0  0  0  0  0  0  0  0  0  0  0
   54.0606  -41.7435   -5.1019 N   0  0  0  0  0  0  0  0  0  0  0  0
   55.4866  -41.8198   -5.2774 N   0  0  0  0  0  0  0  0  0  0  0  0
   56.1348  -41.8334   -3.9748 N   0  0  0  0  0  0  0  0  0  0  0  0
   55.6705  -42.9596   -3.1946 N   0  0  0  0  0  0  0  0  0  0  0  0
   55.9619  -44.1675   -3.9060 N   0  0  0  0  0  0  0  0  0  0  0  0
   57.4221  -44.2453   -4.0754 C   0  0  0  0  0  0  0  0  0  0  0  0
   57.7686  -45.5178   -4.8134 C   0  0  0  0  0  0  0  0  0  0  0  0
   59.2748  -45.6150   -5.0014 C   0  0  0  0  0  0  0  0  0  0  0  0
   59.6230  -46.8974   -5.7321 C   0  0  0  0  0  0  0  0  0  0  0  0
   19.9993    1.0131  -29.8794 H   0  0  0  0  0  0  0  0  0  0  0  0
   19.8123    1.5773  -28.3451 H   0  0  0  0  0  0  0  0  0  0  0  0
   22.0240    1.8639  -28.9975 H   0  0  0  0  0  0  0  0  0  0  0  0
   21.6430   -0.2574  -27.0160 H   0  0  0  0  0  0  0  0  0  0  0  0
   21.5128    1.4929  -26.7034 H   0  0  0  0  0  0  0  0  0  0  0  0
   23.8709    1.7987  -27.4411 H   0  0  0  0  0  0  0  0  0  0  0  0
   24.0173    0.0683  -27.7482 H   0  0  0  0  0  0  0  0  0  0  0  0
   23.4025    1.3718  -25.1686 H   0  0  0  0  0  0  0  0  0  0  0  0
   23.8731   -1.3209  -25.9295 H   0  0  0  0  0  0  0  0  0  0  0  0
   23.2841   -0.1544  -23.3578 H   0  0  0  0  0  0  0  0  0  0  0  0
   22.2901   -2.2218  -23.6539 H   0  0  0  0  0  0  0  0  0  0  0  0
   23.6379   -3.0622  -25.2961 H   0  0  0  0  0  0  0  0  0  0  0  0
   25.6591   -2.1524  -24.4793 H   0  0  0  0  0  0  0  0  0  0  0  0
   25.2509   -2.5671  -22.1951 H   0  0  0  0  0  0  0  0  0  0  0  0
   24.2347   -4.6242  -22.4318 H   0  0  0  0  0  0  0  0  0  0  0  0
   25.5504   -5.4069  -24.1133 H   0  0  0  0  0  0  0  0  0  0  0  0
   27.5675   -4.5663  -23.2952 H   0  0  0  0  0  0  0  0  0  0  0  0
   27.1885   -4.9348  -21.0665 H   0  0  0  0  0  0  0  0  0  0  0  0
   26.1076   -6.9548  -21.2426 H   0  0  0  0  0  0  0  0  0  0  0  0
   27.5045   -7.8405  -22.9248 H   0  0  0  0  0  0  0  0  0  0  0  0
   29.4983   -7.0060  -22.1494 H   0  0  0  0  0  0  0  0  0  0  0  0
   29.1423   -7.2868  -19.9278 H   0  0  0  0  0  0  0  0  0  0  0  0
   28.0640   -9.3672  -20.0688 H   0  0  0  0  0  0  0  0  0  0  0  0
   29.3996  -10.2674  -21.7243 H   0  0  0  0  0  0  0  0  0  0  0  0
   31.3814   -9.4300  -21.0245 H   0  0  0  0  0  0  0  0  0  0  0  0
   31.0212   -9.7110  -18.7723 H   0  0  0  0  0  0  0  0  0  0  0  0
   29.9978  -11.7477  -18.8810 H   0  0  0  0  0  0  0  0  0  0  0  0
   31.2151  -12.6390  -20.5734 H   0  0  0  0  0  0  0  0  0  0  0  0
   33.2800  -11.8451  -19.8459 H   0  0  0  0  0  0  0  0  0  0  0  0
   32.9670  -12.0788  -17.6319 H   0  0  0  0  0  0  0  0  0  0  0  0
   31.9019  -14.1622  -17.6764 H   0  0  0  0  0  0  0  0  0  0  0  0
   33.1276  -15.1207  -19.3719 H   0  0  0  0  0  0  0  0  0  0  0  0
   35.1840  -14.2751  -18.7080 H   0  0  0  0  0  0  0  0  0  0  0  0
   34.8935  -14.5429  -16.4614 H   0  0  0  0  0  0  0  0  0  0  0  0
   33.7740  -16.5302  -16.4994 H   0  0  0  0  0  0  0  0  0  0  0  0
   35.0064  -17.5255  -18.1635 H   0  0  0  0  0  0  0  0  0  0  0  0
   37.0212  -16.7039  -17.5777 H   0  0  0  0  0  0  0  0  0  0  0  0
   36.8172  -16.9555  -15.3042 H   0  0  0  0  0  0  0  0  0  0  0  0
   35.6537  -18.8979  -15.2885 H   0  0  0  0  0  0  0  0  0  0  0  0
   36.8725  -19.9404  -16.9786 H   0  0  0  0  0  0  0  0  0  0  0  0
   38.9016  -19.1271  -16.4206 H   0  0  0  0  0  0  0  0  0  0  0  0
   38.7243  -19.3434  -14.0947 H   0  0  0  0  0  0  0  0  0  0  0  0
   37.5866  -21.3072  -14.0763 H   0  0  0  0  0  0  0  0  0  0  0  0
   38.7519  -22.3760  -15.7376 H   0  0  0  0  0  0  0  0  0  0  0  0
   40.8129  -21.6118  -15.2040 H   0  0  0  0  0  0  0  0  0  0  0  0
   40.6066  -21.7276  -12.9592 H   0  0  0  0  0  0  0  0  0  0  0  0
   39.5116  -23.7147  -12.8960 H   0  0  0  0  0  0  0  0  0  0  0  0
   40.5799  -24.7442  -14.5714 H   0  0  0  0  0  0  0  0  0  0  0  0
   42.7145  -24.0207  -14.0541 H   0  0  0  0  0  0  0  0  0  0  0  0
   42.5232  -24.1209  -11.8023 H   0  0  0  0  0  0  0  0  0  0  0  0
   41.4131  -26.1182  -11.6644 H   0  0  0  0  0  0  0  0  0  0  0  0
   42.4849  -27.1759  -13.3576 H   0  0  0  0  0  0  0  0  0  0  0  0
   44.5540  -26.4156  -12.9237 H   0  0  0  0  0  0  0  0  0  0  0  0
   44.4768  -26.5616  -10.5831 H   0  0  0  0  0  0  0  0  0  0  0  0
   43.3041  -28.4995  -10.4494 H   0  0  0  0  0  0  0  0  0  0  0  0
   44.3159  -29.6180  -12.1318 H   0  0  0  0  0  0  0  0  0  0  0  0
   46.4815  -28.8716  -11.7098 H   0  0  0  0  0  0  0  0  0  0  0  0
   46.3354  -28.9564   -9.4413 H   0  0  0  0  0  0  0  0  0  0  0  0
   45.1579  -30.8475   -9.2402 H   0  0  0  0  0  0  0  0  0  0  0  0
   46.2293  -32.0537  -10.9099 H   0  0  0  0  0  0  0  0  0  0  0  0
   48.3470  -31.3276  -10.5192 H   0  0  0  0  0  0  0  0  0  0  0  0
   48.2591  -31.3221   -8.2621 H   0  0  0  0  0  0  0  0  0  0  0  0
   47.0483  -33.2290   -8.0432 H   0  0  0  0  0  0  0  0  0  0  0  0
   48.0945  -34.4561   -9.7107 H   0  0  0  0  0  0  0  0  0  0  0  0
   50.2165  -33.7482   -9.3352 H   0  0  0  0  0  0  0  0  0  0  0  0
   50.1711  -33.7602   -7.0568 H   0  0  0  0  0  0  0  0  0  0  0  0
   48.9488  -35.6364   -6.8135 H   0  0  0  0  0  0  0  0  0  0  0  0
   49.9039  -36.8514   -8.4611 H   0  0  0  0  0  0  0  0  0  0  0  0
   52.1026  -36.1890   -8.1694 H   0  0  0  0  0  0  0  0  0  0  0  0
   52.0792  -36.1754   -5.8588 H   0  0  0  0  0  0  0  0  0  0  0  0
   50.8613  -38.0697   -5.5627 H   0  0  0  0  0  0  0  0  0  0  0  0
   51.8124  -39.2607   -7.2140 H   0  0  0  0  0  0  0  0  0  0  0  0
   53.9227  -38.5954   -6.9531 H   0  0  0  0  0  0  0  0  0  0  0  0
   53.9632  -38.5653   -4.7077 H   0  0  0  0  0  0  0  0  0  0  0  0
   52.7197  -40.4024   -4.3602 H   0  0  0  0  0  0  0  0  0  0  0  0
   53.6201  -41.6560   -6.0334 H   0  0  0  0  0  0  0  0  0  0  0  0
   55.7998  -40.9896   -5.8137 H   0  0  0  0  0  0  0  0  0  0  0  0
   55.8873  -40.9547   -3.5022 H   0  0  0  0  0  0  0  0  0  0  0  0
   54.6529  -42.8580   -3.1109 H   0  0  0  0  0  0  0  0  0  0  0  0
   55.5256  -44.1158   -4.8327 H   0  0  0  0  0  0  0  0  0  0  0  0
   57.9176  -44.2286   -3.0984 H   0  0  0  0  0  0  0  0  0  0  0  0
   57.8025  -43.3968   -4.6631 H   0  0  0  0  0  0  0  0  0  0  0  0
   57.2784  -45.5290   -5.7940 H   0  0  0  0  0  0  0  0  0  0  0  0
   57.4140  -46.3805   -4.2404 H   0  0  0  0  0  0  0  0  0  0  0  0
   59.7734  -45.6039   -4.0255 H   0  0  0  0  0  0  0  0  0  0  0  0
   59.6366  -44.7562   -5.5789 H   0  0  0  0  0  0  0  0  0  0  0  0
   59.2785  -47.7616   -5.1575 H   0  0  0  0  0  0  0  0  0  0  0  0
   60.7027  -46.9693   -5.8663 H   0  0  0  0  0  0  0  0  0  0  0  0
   59.1416  -46.9124   -6.7137 H   0  0  0  0  0  0  0  0  0  0  0  0
  1  2  1  0  0  0  0
  1 82  1  0  0  0  0
  1 83  1  0  0  0  0
  2  3  1  0  0  0  0
  2 84  1  0  0  0  0
  3  4  1  0  0  0  0
  3 85  1  0  0  0  0
  3 86  1  0  0  0  0
  4  5  1  0  0  0  0
  4 87  1  0  0  0  0
  4 88  1  0  0  0  0
  5  6  1  0  0  0  0
  5 89  1  0  0  0  0
  6  7  1  0  0  0  0
  6 90  1  0  0  0  0
  7  8  1  0  0  0  0
  7 91  1  0  0  0  0
  8  9  1  0  0  0  0
  8 92  1  0  0  0  0
  9 10  1  0  0  0  0
  9 93  1  0  0  0  0
 10 11  1  0  0  0  0
 10 94  1  0  0  0  0
 11 12  1  0  0  0  0
 11 95  1  0  0  0  0
 12 13  1  0  0  0  0
 12 96  1  0  0  0  0
 13 14  1  0  0  0  0
 13 97  1  0  0  0  0
 14 15  1  0  0  0  0
 14 98  1  0  0  0  0
 15 16  1  0  0  0  0
 15 99  1  0  0  0  0
 16 17  1  0  0  0  0
 16100  1  0  0  0  0
 17 18  1  0  0  0  0
 17101  1  0  0  0  0
 18 19  1  0  0  0  0
 18102  1  0  0  0  0
 19 20  1  0  0  0  0
 19103  1  0  0  0  0
 20 21  1  0  0  0  0
 20104  1  0  0  0  0
 21 22  1  0  0  0  0
 21105  1  0  0  0  0
 22 23  1  0  0  0  0
 22106  1  0  0  0  0
 23 24  1  0  0  0  0
 23107  1  0  0  0  0
 24 25  1  0  0  0  0
 24108  1  0  0  0  0
 25 26  1  0  0  0  0
 25109  1  0  0  0  0
 26 27  1  0  0  0  0
 26110  1  0  0  0  0
 27 28  1  0  0  0  0
 27111  1  0  0  0  0
 28 29  1  0  0  0  0
 28112  1  0  0  0  0
 29 30  1  0  0  0  0
 29113  1  0  0  0  0
 30 31  1  0  0  0  0
 30114  1  0  0  0  0
 31 32  1  0  0  0  0
 31115  1  0  0  0  0
 32 33  1  0  0  0  0
 32116  1  0  0  0  0
 33 34  1  0  0  0  0
 33117  1  0  0  0  0
 34 35  1  0  0  0  0
 34118  1  0  0  0  0
 35 36  1  0  0  0  0
 35119  1  0  0  0  0
 36 37  1  0  0  0  0
 36120  1  0  0  0  0
 37 38  1  0  0  0  0
 37121  1  0  0  0  0
 38 39  1  0  0  0  0
 38122  1  0  0  0  0
 39 40  1  0  0  0  0
 39123  1  0  0  0  0
 40 41  1  0  0  0  0
 40124  1  0  0  0  0
 41 42  1  0  0  0  0
 41125  1  0  0  0  0
 42 43  1  0  0  0  0
 42126  1  0  0  0  0
 43 44  1  0  0  0  0
 43127  1  0  0  0  0
 44 45  1  0  0  0  0
 44128  1  0  0  0  0
 45 46  1  0  0  0  0
 45129  1  0  0  0  0
 46 47  1  0  0  0  0
 46130  1  0  0  0  0
 47 48  1  0  0  0  0
 47131  1  0  0  0  0
 48 49  1  0  0  0  0
 48132  1  0  0  0  0
 49 50  1  0  0  0  0
 49133  1  0  0  0  0
 50 51  1  0  0  0  0
 50134  1  0  0  0  0
 51 52  1  0  0  0  0
 51135  1  0  0  0  0
 52 53  1  0  0  0  0
 52136  1  0  0  0  0
 53 54  1  0  0  0  0
 53137  1  0  0  0  0
 54 55  1  0  0  0  0
 54138  1  0  0  0  0
 55 56  1  0  0  0  0
 55139  1  0  0  0  0
 56 57  1  0  0  0  0
 56140  1  0  0  0  0
 57 58  1  0  0  0  0
 57141  1  0  0  0  0
 58 59  1  0  0  0  0
 58142  1  0  0  0  0
 59 60  1  0  0  0  0
 59143  1  0  0  0  0
 60 61  1  0  0  0  0
 60144  1  0  0  0  0
 61 62  1  0  0  0  0
 61145  1  0  0  0  0
 62 63  1  0  0  0  0
 62146  1  0  0  0  0
 63 64  1  0  0  0  0
 63147  1  0  0  0  0
 64 65  1  0  0  0  0
 64148  1  0  0  0  0
 65 66  1  0  0  0  0
 65149  1  0  0  0  0
 66 67  1  0  0  0  0
 66150  1  0  0  0  0
 67 68  1  0  0  0  0
 67151  1  0  0  0  0
 68 69  1  0  0  0  0
 68152  1  0  0  0  0
 69 70  1  0  0  0  0
 69153  1  0  0  0  0
 70 71  1  0  0  0  0
 70154  1  0  0  0  0
 71 72  1  0  0  0  0
 71155  1  0  0  0  0
 72 73  1  0  0  0  0
 72156  1  0  0  0  0
 73 74  1  0  0  0  0
 73157  1  0  0  0  0
 74 75  1  0  0  0  0
 74158  1  0  0  0  0
 75 76  1  0  0  0  0
 75159  1  0  0  0  0
 76 77  1  0  0  0  0
 76160  1  0  0  0  0
 77 78  1  0  0  0  0
 77161  1  0  0  0  0
 78 79  1  0  0  0  0
 78162  1  0  0  0  0
 78163  1  0  0  0  0
 79 80  1  0  0  0  0
 79164  1  0  0  0  0
 79165  1  0  0  0  0
 80 81  1  0  0  0  0
 80166  1  0  0  0  0
 80167  1  0  0  0  0
 81168  1  0  0  0  0
 81169  1  0  0  0  0
 81170  1  0  0  0  0
M  END
$$$$
