
 OpenBabel04232217003D

152151  0  0  0  0  0  0  0  0999 V2000
    2.7605    0.3107    0.9881 O   0  0  0  0  0  0  0  0  0  0  0  0
    2.2747   -0.0375   -0.0643 C   0  0  0  0  0  0  0  0  0  0  0  0
    3.0675   -0.4368   -1.3000 C   0  0  0  0  0  0  0  0  0  0  0  0
    4.5431   -0.3320   -1.0074 C   0  0  0  0  0  0  0  0  0  0  0  0
    5.2649   -0.7110   -2.1797 O   0  0  0  0  0  0  0  0  0  0  0  0
    6.6667   -0.6233   -1.9377 C   0  0  0  0  0  0  0  0  0  0  0  0
    7.4103   -1.0311   -3.1934 C   0  0  0  0  0  0  0  0  0  0  0  0
    8.9108   -0.9433   -2.9578 C   0  0  0  0  0  0  0  0  0  0  0  0
    9.6796   -1.3477   -4.2036 C   0  0  0  0  0  0  0  0  0  0  0  0
   11.1754   -1.2549   -3.9470 C   0  0  0  0  0  0  0  0  0  0  0  0
   11.9443   -1.6575   -5.1929 C   0  0  0  0  0  0  0  0  0  0  0  0
   13.4378   -1.5668   -4.9362 C   0  0  0  0  0  0  0  0  0  0  0  0
   14.2026   -1.9716   -6.1831 C   0  0  0  0  0  0  0  0  0  0  0  0
   15.6953   -1.8830   -5.9261 C   0  0  0  0  0  0  0  0  0  0  0  0
   16.4585   -2.2881   -7.1732 C   0  0  0  0  0  0  0  0  0  0  0  0
   17.9508   -2.2013   -6.9154 C   0  0  0  0  0  0  0  0  0  0  0  0
   18.7135   -2.6083   -8.1618 C   0  0  0  0  0  0  0  0  0  0  0  0
   20.2056   -2.5232   -7.9031 C   0  0  0  0  0  0  0  0  0  0  0  0
   20.9682   -2.9320   -9.1488 C   0  0  0  0  0  0  0  0  0  0  0  0
   22.4602   -2.8454   -8.8905 C   0  0  0  0  0  0  0  0  0  0  0  0
   23.2228   -3.2560  -10.1356 C   0  0  0  0  0  0  0  0  0  0  0  0
   24.7148   -3.1710   -9.8769 C   0  0  0  0  0  0  0  0  0  0  0  0
   25.4773   -3.5798  -11.1226 C   0  0  0  0  0  0  0  0  0  0  0  0
   26.9692   -3.4931  -10.8643 C   0  0  0  0  0  0  0  0  0  0  0  0
   27.7314   -3.9018  -12.1100 C   0  0  0  0  0  0  0  0  0  0  0  0
   29.2230   -3.8166  -11.8508 C   0  0  0  0  0  0  0  0  0  0  0  0
   29.9846   -4.2254  -13.0964 C   0  0  0  0  0  0  0  0  0  0  0  0
   31.4754   -4.1401  -12.8365 C   0  0  0  0  0  0  0  0  0  0  0  0
   32.2353   -4.5488  -14.0819 C   0  0  0  0  0  0  0  0  0  0  0  0
   33.7243   -4.4631  -13.8206 C   0  0  0  0  0  0  0  0  0  0  0  0
   34.4801   -4.8717  -15.0659 C   0  0  0  0  0  0  0  0  0  0  0  0
   35.9652   -4.7847  -14.8006 C   0  0  0  0  0  0  0  0  0  0  0  0
   36.7156   -5.1914  -16.0465 C   0  0  0  0  0  0  0  0  0  0  0  0
   38.1922   -5.1011  -15.7713 C   0  0  0  0  0  0  0  0  0  0  0  0
   38.9256   -5.5067  -17.0140 C   0  0  0  0  0  0  0  0  0  0  0  0
   40.3981   -5.4103  -16.7203 C   0  0  0  0  0  0  0  0  0  0  0  0
   41.1157   -5.8142  -17.9637 C   0  0  0  0  0  0  0  0  0  0  0  0
   42.5582   -5.7176  -17.6634 C   0  0  0  0  0  0  0  0  0  0  0  0
   43.1186   -6.1125  -18.8770 O   0  0  0  0  0  0  0  0  0  0  0  0
   44.4809   -6.0159  -18.5936 O   0  0  0  0  0  0  0  0  0  0  0  0
   45.1619   -6.3969  -19.7470 O   0  0  0  0  0  0  0  0  0  0  0  0
   46.5133   -6.3244  -19.4519 O   0  0  0  0  0  0  0  0  0  0  0  0
   47.1849   -6.7053  -20.5956 O   0  0  0  0  0  0  0  0  0  0  0  0
   48.5347   -6.5772  -20.3265 O   0  0  0  0  0  0  0  0  0  0  0  0
   49.2006   -6.9671  -21.4687 O   0  0  0  0  0  0  0  0  0  0  0  0
   50.5411   -6.9426  -21.1668 O   0  0  0  0  0  0  0  0  0  0  0  0
   51.1944   -7.3292  -22.3142 O   0  0  0  0  0  0  0  0  0  0  0  0
   52.5322   -7.1217  -22.0813 O   0  0  0  0  0  0  0  0  0  0  0  0
   53.1695   -7.5509  -23.2171 O   0  0  0  0  0  0  0  0  0  0  0  0
   54.5116   -7.5325  -22.9169 O   0  0  0  0  0  0  0  0  0  0  0  0
   55.1513   -7.8886  -24.0745 O   0  0  0  0  0  0  0  0  0  0  0  0
   56.4837   -7.7535  -23.8003 O   0  0  0  0  0  0  0  0  0  0  0  0
   57.1259   -8.1239  -24.9506 O   0  0  0  0  0  0  0  0  0  0  0  0
   58.4602   -8.0789  -24.6484 O   0  0  0  0  0  0  0  0  0  0  0  0
   59.0942   -8.4839  -25.7902 O   0  0  0  0  0  0  0  0  0  0  0  0
   60.4270   -8.3498  -25.5178 O   0  0  0  0  0  0  0  0  0  0  0  0
   61.0597   -8.7103  -26.6742 O   0  0  0  0  0  0  0  0  0  0  0  0
   62.3903   -8.6699  -26.3669 O   0  0  0  0  0  0  0  0  0  0  0  0
   63.0246   -9.0717  -27.5081 O   0  0  0  0  0  0  0  0  0  0  0  0
   64.3555   -8.9363  -27.2292 O   0  0  0  0  0  0  0  0  0  0  0  0
   64.9923   -9.2911  -28.3852 O   0  0  0  0  0  0  0  0  0  0  0  0
   66.3239   -9.2378  -28.0809 O   0  0  0  0  0  0  0  0  0  0  0  0
   66.9577   -9.6541  -29.2186 O   0  0  0  0  0  0  0  0  0  0  0  0
   68.2927   -9.5054  -28.9554 O   0  0  0  0  0  0  0  0  0  0  0  0
   68.9263   -9.8738  -30.1138 O   0  0  0  0  0  0  0  0  0  0  0  0
   70.2620   -9.8642  -29.8092 O   0  0  0  0  0  0  0  0  0  0  0  0
   70.9068  -10.2268  -30.9648 O   0  0  0  0  0  0  0  0  0  0  0  0
   72.2439  -10.0431  -30.7129 O   0  0  0  0  0  0  0  0  0  0  0  0
   72.9036  -10.4965  -31.8371 O   0  0  0  0  0  0  0  0  0  0  0  0
   74.2474  -10.4717  -31.5280 O   0  0  0  0  0  0  0  0  0  0  0  0
   74.9131  -10.7982  -32.7015 O   0  0  0  0  0  0  0  0  0  0  0  0
   76.2692  -10.6782  -32.4306 O   0  0  0  0  0  0  0  0  0  0  0  0
   76.9356  -11.1046  -33.5775 O   0  0  0  0  0  0  0  0  0  0  0  0
   78.3180  -11.0379  -33.3032 O   0  0  0  0  0  0  0  0  0  0  0  0
   78.9940  -11.3870  -34.4691 O   0  0  0  0  0  0  0  0  0  0  0  0
   80.3785  -11.2890  -34.1970 O   0  0  0  0  0  0  0  0  0  0  0  0
   81.0892  -11.7975  -35.3019 O   0  0  0  0  0  0  0  0  0  0  0  0
   82.4915  -11.6664  -35.0609 O   0  0  0  0  0  0  0  0  0  0  0  0
   83.2018  -11.9825  -36.2664 O   0  0  0  0  0  0  0  0  0  0  0  0
   82.8033  -11.0795  -37.3245 O   0  0  0  0  0  0  0  0  0  0  0  0
    1.1733   -0.0900   -0.2021 H   0  0  0  0  0  0  0  0  0  0  0  0
    2.7770    0.2238   -2.1166 H   0  0  0  0  0  0  0  0  0  0  0  0
    2.7870   -1.4543   -1.5683 H   0  0  0  0  0  0  0  0  0  0  0  0
    4.8223   -0.9974   -0.1808 H   0  0  0  0  0  0  0  0  0  0  0  0
    4.8124    0.6961   -0.7343 H   0  0  0  0  0  0  0  0  0  0  0  0
    6.9375   -1.2889   -1.1092 H   0  0  0  0  0  0  0  0  0  0  0  0
    6.9274    0.4068   -1.6657 H   0  0  0  0  0  0  0  0  0  0  0  0
    7.1138   -0.3851   -4.0300 H   0  0  0  0  0  0  0  0  0  0  0  0
    7.1253   -2.0512   -3.4820 H   0  0  0  0  0  0  0  0  0  0  0  0
    9.1938   -1.5951   -2.1217 H   0  0  0  0  0  0  0  0  0  0  0  0
    9.1823    0.0810   -2.6730 H   0  0  0  0  0  0  0  0  0  0  0  0
    9.4051   -0.6943   -5.0407 H   0  0  0  0  0  0  0  0  0  0  0  0
    9.4149   -2.3728   -4.4899 H   0  0  0  0  0  0  0  0  0  0  0  0
   11.4532   -1.9089   -3.1111 H   0  0  0  0  0  0  0  0  0  0  0  0
   11.4435   -0.2307   -3.6594 H   0  0  0  0  0  0  0  0  0  0  0  0
   11.6699   -1.0026   -6.0291 H   0  0  0  0  0  0  0  0  0  0  0  0
   11.6777   -2.6816   -5.4817 H   0  0  0  0  0  0  0  0  0  0  0  0
   13.7144   -2.2211   -4.1002 H   0  0  0  0  0  0  0  0  0  0  0  0
   13.7070   -0.5427   -4.6495 H   0  0  0  0  0  0  0  0  0  0  0  0
   13.9282   -1.3168   -7.0193 H   0  0  0  0  0  0  0  0  0  0  0  0
   13.9336   -2.9954   -6.4710 H   0  0  0  0  0  0  0  0  0  0  0  0
   15.9706   -2.5382   -5.0905 H   0  0  0  0  0  0  0  0  0  0  0  0
   15.9656   -0.8594   -5.6387 H   0  0  0  0  0  0  0  0  0  0  0  0
   16.1848   -1.6323   -8.0089 H   0  0  0  0  0  0  0  0  0  0  0  0
   16.1879   -3.3113   -7.4616 H   0  0  0  0  0  0  0  0  0  0  0  0
   18.2246   -2.8563   -6.0791 H   0  0  0  0  0  0  0  0  0  0  0  0
   18.2221   -1.1779   -6.6284 H   0  0  0  0  0  0  0  0  0  0  0  0
   18.4409   -1.9526   -8.9979 H   0  0  0  0  0  0  0  0  0  0  0  0
   18.4415   -3.6313   -8.4495 H   0  0  0  0  0  0  0  0  0  0  0  0
   20.4781   -3.1780   -7.0661 H   0  0  0  0  0  0  0  0  0  0  0  0
   20.4779   -1.4999   -7.6166 H   0  0  0  0  0  0  0  0  0  0  0  0
   20.6949   -2.2783   -9.9862 H   0  0  0  0  0  0  0  0  0  0  0  0
   20.6967   -3.9559   -9.4343 H   0  0  0  0  0  0  0  0  0  0  0  0
   22.7334   -3.4982   -8.0523 H   0  0  0  0  0  0  0  0  0  0  0  0
   22.7318   -1.8213   -8.6062 H   0  0  0  0  0  0  0  0  0  0  0  0
   22.9505   -2.6023  -10.9735 H   0  0  0  0  0  0  0  0  0  0  0  0
   22.9504   -4.2797  -10.4207 H   0  0  0  0  0  0  0  0  0  0  0  0
   24.9872   -3.8256   -9.0398 H   0  0  0  0  0  0  0  0  0  0  0  0
   24.9871   -2.1476   -9.5906 H   0  0  0  0  0  0  0  0  0  0  0  0
   25.2041   -2.9260  -11.9600 H   0  0  0  0  0  0  0  0  0  0  0  0
   25.2059   -4.6036  -11.4082 H   0  0  0  0  0  0  0  0  0  0  0  0
   27.2427   -4.1469  -10.0270 H   0  0  0  0  0  0  0  0  0  0  0  0
   27.2407   -2.4692  -10.5788 H   0  0  0  0  0  0  0  0  0  0  0  0
   27.4592   -3.2471  -12.9471 H   0  0  0  0  0  0  0  0  0  0  0  0
   27.4594   -4.9252  -12.3965 H   0  0  0  0  0  0  0  0  0  0  0  0
   29.4958   -4.4714  -11.0140 H   0  0  0  0  0  0  0  0  0  0  0  0
   29.4957   -2.7933  -11.5646 H   0  0  0  0  0  0  0  0  0  0  0  0
   29.7129   -3.5707  -13.9337 H   0  0  0  0  0  0  0  0  0  0  0  0
   29.7129   -5.2488  -13.3830 H   0  0  0  0  0  0  0  0  0  0  0  0
   31.7487   -4.7950  -11.9999 H   0  0  0  0  0  0  0  0  0  0  0  0
   31.7487   -3.1169  -12.5506 H   0  0  0  0  0  0  0  0  0  0  0  0
   31.9645   -3.8942  -14.9195 H   0  0  0  0  0  0  0  0  0  0  0  0
   31.9644   -5.5724  -14.3689 H   0  0  0  0  0  0  0  0  0  0  0  0
   33.9990   -5.1183  -12.9846 H   0  0  0  0  0  0  0  0  0  0  0  0
   33.9990   -3.4400  -13.5353 H   0  0  0  0  0  0  0  0  0  0  0  0
   34.2112   -4.2171  -15.9042 H   0  0  0  0  0  0  0  0  0  0  0  0
   34.2113   -5.8956  -15.3535 H   0  0  0  0  0  0  0  0  0  0  0  0
   36.2424   -5.4415  -13.9668 H   0  0  0  0  0  0  0  0  0  0  0  0
   36.2420   -3.7621  -14.5154 H   0  0  0  0  0  0  0  0  0  0  0  0
   36.4486   -4.5357  -16.8850 H   0  0  0  0  0  0  0  0  0  0  0  0
   36.4490   -6.2157  -16.3363 H   0  0  0  0  0  0  0  0  0  0  0  0
   38.4710   -5.7589  -14.9383 H   0  0  0  0  0  0  0  0  0  0  0  0
   38.4705   -4.0783  -15.4871 H   0  0  0  0  0  0  0  0  0  0  0  0
   38.6713   -4.8521  -17.8545 H   0  0  0  0  0  0  0  0  0  0  0  0
   38.6719   -6.5312  -17.3062 H   0  0  0  0  0  0  0  0  0  0  0  0
   40.6789   -6.0713  -15.8927 H   0  0  0  0  0  0  0  0  0  0  0  0
   40.6783   -4.3889  -16.4397 H   0  0  0  0  0  0  0  0  0  0  0  0
   40.8639   -5.1675  -18.8152 H   0  0  0  0  0  0  0  0  0  0  0  0
   40.8629   -6.8372  -18.2736 H   0  0  0  0  0  0  0  0  0  0  0  0
   42.8762   -6.4012  -16.8690 H   0  0  0  0  0  0  0  0  0  0  0  0
   42.8772   -4.6978  -17.4229 H   0  0  0  0  0  0  0  0  0  0  0  0
   83.2918  -11.5450  -38.0219 H   0  0  0  0  0  0  0  0  0  0  0  0
  1  2  2  0  0  0  0
  2  3  1  0  0  0  0
  2 81  1  0  0  0  0
  3  4  1  0  0  0  0
  3 82  1  0  0  0  0
  3 83  1  0  0  0  0
  4  5  1  0  0  0  0
  4 84  1  0  0  0  0
  4 85  1  0  0  0  0
  5  6  1  0  0  0  0
  6  7  1  0  0  0  0
  6 86  1  0  0  0  0
  6 87  1  0  0  0  0
  7  8  1  0  0  0  0
  7 88  1  0  0  0  0
  7 89  1  0  0  0  0
  8  9  1  0  0  0  0
  8 90  1  0  0  0  0
  8 91  1  0  0  0  0
  9 10  1  0  0  0  0
  9 92  1  0  0  0  0
  9 93  1  0  0  0  0
 10 11  1  0  0  0  0
 10 94  1  0  0  0  0
 10 95  1  0  0  0  0
 11 12  1  0  0  0  0
 11 96  1  0  0  0  0
 11 97  1  0  0  0  0
 12 13  1  0  0  0  0
 12 98  1  0  0  0  0
 12 99  1  0  0  0  0
 13 14  1  0  0  0  0
 13100  1  0  0  0  0
 13101  1  0  0  0  0
 14 15  1  0  0  0  0
 14102  1  0  0  0  0
 14103  1  0  0  0  0
 15 16  1  0  0  0  0
 15104  1  0  0  0  0
 15105  1  0  0  0  0
 16 17  1  0  0  0  0
 16106  1  0  0  0  0
 16107  1  0  0  0  0
 17 18  1  0  0  0  0
 17108  1  0  0  0  0
 17109  1  0  0  0  0
 18 19  1  0  0  0  0
 18110  1  0  0  0  0
 18111  1  0  0  0  0
 19 20  1  0  0  0  0
 19112  1  0  0  0  0
 19113  1  0  0  0  0
 20 21  1  0  0  0  0
 20114  1  0  0  0  0
 20115  1  0  0  0  0
 21 22  1  0  0  0  0
 21116  1  0  0  0  0
 21117  1  0  0  0  0
 22 23  1  0  0  0  0
 22118  1  0  0  0  0
 22119  1  0  0  0  0
 23 24  1  0  0  0  0
 23120  1  0  0  0  0
 23121  1  0  0  0  0
 24 25  1  0  0  0  0
 24122  1  0  0  0  0
 24123  1  0  0  0  0
 25 26  1  0  0  0  0
 25124  1  0  0  0  0
 25125  1  0  0  0  0
 26 27  1  0  0  0  0
 26126  1  0  0  0  0
 26127  1  0  0  0  0
 27 28  1  0  0  0  0
 27128  1  0  0  0  0
 27129  1  0  0  0  0
 28 29  1  0  0  0  0
 28130  1  0  0  0  0
 28131  1  0  0  0  0
 29 30  1  0  0  0  0
 29132  1  0  0  0  0
 29133  1  0  0  0  0
 30 31  1  0  0  0  0
 30134  1  0  0  0  0
 30135  1  0  0  0  0
 31 32  1  0  0  0  0
 31136  1  0  0  0  0
 31137  1  0  0  0  0
 32 33  1  0  0  0  0
 32138  1  0  0  0  0
 32139  1  0  0  0  0
 33 34  1  0  0  0  0
 33140  1  0  0  0  0
 33141  1  0  0  0  0
 34 35  1  0  0  0  0
 34142  1  0  0  0  0
 34143  1  0  0  0  0
 35 36  1  0  0  0  0
 35144  1  0  0  0  0
 35145  1  0  0  0  0
 36 37  1  0  0  0  0
 36146  1  0  0  0  0
 36147  1  0  0  0  0
 37 38  1  0  0  0  0
 37148  1  0  0  0  0
 37149  1  0  0  0  0
 38 39  1  0  0  0  0
 38150  1  0  0  0  0
 38151  1  0  0  0  0
 39 40  1  0  0  0  0
 40 41  1  0  0  0  0
 41 42  1  0  0  0  0
 42 43  1  0  0  0  0
 43 44  1  0  0  0  0
 44 45  1  0  0  0  0
 45 46  1  0  0  0  0
 46 47  1  0  0  0  0
 47 48  1  0  0  0  0
 48 49  1  0  0  0  0
 49 50  1  0  0  0  0
 50 51  1  0  0  0  0
 51 52  1  0  0  0  0
 52 53  1  0  0  0  0
 53 54  1  0  0  0  0
 54 55  1  0  0  0  0
 55 56  1  0  0  0  0
 56 57  1  0  0  0  0
 57 58  1  0  0  0  0
 58 59  1  0  0  0  0
 59 60  1  0  0  0  0
 60 61  1  0  0  0  0
 61 62  1  0  0  0  0
 62 63  1  0  0  0  0
 63 64  1  0  0  0  0
 64 65  1  0  0  0  0
 65 66  1  0  0  0  0
 66 67  1  0  0  0  0
 67 68  1  0  0  0  0
 68 69  1  0  0  0  0
 69 70  1  0  0  0  0
 70 71  1  0  0  0  0
 71 72  1  0  0  0  0
 72 73  1  0  0  0  0
 73 74  1  0  0  0  0
 74 75  1  0  0  0  0
 75 76  1  0  0  0  0
 76 77  1  0  0  0  0
 77 78  1  0  0  0  0
 78 79  1  0  0  0  0
 79 80  1  0  0  0  0
 80152  1  0  0  0  0
M  END
$$$$
