
 OpenBabel04232216463D

 60 60  0  0  0  0  0  0  0  0999 V2000
    4.5487   -2.7724    0.0734 C   0  0  0  0  0  0  0  0  0  0  0  0
    5.6804   -2.4152    1.0924 C   0  0  0  0  0  0  0  0  0  0  0  0
    5.0268   -1.4995    1.8690 C   0  0  0  0  0  0  0  0  0  0  0  0
    5.3140   -0.0673    2.0080 C   0  0  0  0  0  0  0  0  0  0  0  0
    5.8735    0.6836    0.7952 C   0  0  0  0  0  0  0  0  0  0  0  0
    5.5146    2.1492    0.4959 C   0  0  0  0  0  0  0  0  0  0  0  0
    5.9242    3.2350    1.4858 C   0  0  0  0  0  0  0  0  0  0  0  0
    7.4354    3.4499    1.6633 C   0  0  0  0  0  0  0  0  0  0  0  0
    7.6615    4.5452    2.7210 C   0  0  0  0  0  0  0  0  0  0  0  0
    9.1244    4.7420    3.1095 C   0  0  0  0  0  0  0  0  0  0  0  0
    9.2400    5.8165    4.1845 C   0  0  0  0  0  0  0  0  0  0  0  0
    5.4054    0.3400    3.2897 C   0  0  0  0  0  0  0  0  0  0  0  0
    6.7859    0.4087    3.7165 C   0  0  0  0  0  0  0  0  0  0  0  0
    7.4500   -0.7560    3.8354 C   0  0  0  0  0  0  0  0  0  0  0  0
    8.8896   -0.7323    3.8073 C   0  0  0  0  0  0  0  0  0  0  0  0
    9.4957   -0.2335    2.5074 C   0  0  0  0  0  0  0  0  0  0  0  0
    9.5375   -1.2542    4.8458 C   0  0  0  0  0  0  0  0  0  0  0  0
   10.9938   -1.4198    4.8915 C   0  0  0  0  0  0  0  0  0  0  0  0
   11.4441   -2.6659    4.5805 C   0  0  0  0  0  0  0  0  0  0  0  0
   11.1581   -2.9918    3.1471 C   0  0  0  0  0  0  0  0  0  0  0  0
   10.1013   -3.7897    2.9374 C   0  0  0  0  0  0  0  0  0  0  0  0
    8.8448   -3.7355    2.0421 C   0  0  0  0  0  0  0  0  0  0  0  0
    8.3556   -2.9253    1.0575 C   0  0  0  0  0  0  0  0  0  0  0  0
    9.3286   -2.7597    0.1025 F   0  0  0  0  0  0  0  0  0  0  0  0
    7.0527   -2.4180    0.5920 N   0  0  0  0  0  0  0  0  0  0  0  0
    7.1780   -1.9245   -0.8008 C   0  0  0  0  0  0  0  0  0  0  0  0
    3.6802   -3.2581    0.5360 H   0  0  0  0  0  0  0  0  0  0  0  0
    4.8825   -3.3499   -0.7857 H   0  0  0  0  0  0  0  0  0  0  0  0
    4.1543   -1.8235   -0.3474 H   0  0  0  0  0  0  0  0  0  0  0  0
    3.9719   -1.6732    2.1189 H   0  0  0  0  0  0  0  0  0  0  0  0
    5.4759    0.1794   -0.0894 H   0  0  0  0  0  0  0  0  0  0  0  0
    6.9547    0.5587    0.7533 H   0  0  0  0  0  0  0  0  0  0  0  0
    4.4224    2.2319    0.3403 H   0  0  0  0  0  0  0  0  0  0  0  0
    5.9729    2.4067   -0.4760 H   0  0  0  0  0  0  0  0  0  0  0  0
    5.4550    3.0523    2.4583 H   0  0  0  0  0  0  0  0  0  0  0  0
    5.5070    4.1866    1.1284 H   0  0  0  0  0  0  0  0  0  0  0  0
    7.8922    3.7605    0.7140 H   0  0  0  0  0  0  0  0  0  0  0  0
    7.9340    2.5290    1.9645 H   0  0  0  0  0  0  0  0  0  0  0  0
    7.0911    4.2937    3.6236 H   0  0  0  0  0  0  0  0  0  0  0  0
    7.2587    5.4934    2.3442 H   0  0  0  0  0  0  0  0  0  0  0  0
    9.7155    5.0356    2.2349 H   0  0  0  0  0  0  0  0  0  0  0  0
    9.5432    3.8038    3.4914 H   0  0  0  0  0  0  0  0  0  0  0  0
    8.8516    6.7747    3.8230 H   0  0  0  0  0  0  0  0  0  0  0  0
   10.2836    5.9614    4.4789 H   0  0  0  0  0  0  0  0  0  0  0  0
    8.6712    5.5375    5.0782 H   0  0  0  0  0  0  0  0  0  0  0  0
    4.8355   -0.2197    4.0410 H   0  0  0  0  0  0  0  0  0  0  0  0
    7.3134    1.3485    3.6514 H   0  0  0  0  0  0  0  0  0  0  0  0
    6.9677   -1.7195    3.8216 H   0  0  0  0  0  0  0  0  0  0  0  0
    8.7154    0.1718    1.7884 H   0  0  0  0  0  0  0  0  0  0  0  0
   10.0210   -0.9996    1.9280 H   0  0  0  0  0  0  0  0  0  0  0  0
   10.1601    0.6178    2.6780 H   0  0  0  0  0  0  0  0  0  0  0  0
    8.9617   -1.7059    5.6528 H   0  0  0  0  0  0  0  0  0  0  0  0
   11.4469   -0.5917    4.3360 H   0  0  0  0  0  0  0  0  0  0  0  0
   11.0769   -3.4551    5.2598 H   0  0  0  0  0  0  0  0  0  0  0  0
   11.5319   -2.2199    2.4853 H   0  0  0  0  0  0  0  0  0  0  0  0
    9.9928   -4.6236    3.6493 H   0  0  0  0  0  0  0  0  0  0  0  0
    9.3715   -4.5052    1.4326 H   0  0  0  0  0  0  0  0  0  0  0  0
    6.2901   -1.4018   -1.1485 H   0  0  0  0  0  0  0  0  0  0  0  0
    8.0026   -1.2076   -0.8652 H   0  0  0  0  0  0  0  0  0  0  0  0
    7.3501   -2.7698   -1.4770 H   0  0  0  0  0  0  0  0  0  0  0  0
  1  2  1  0  0  0  0
  1 27  1  0  0  0  0
  1 28  1  0  0  0  0
  1 29  1  0  0  0  0
  2  3  2  3  0  0  0
  2 25  1  0  0  0  0
  3  4  1  0  0  0  0
  3 30  1  0  0  0  0
  4  5  1  0  0  0  0
  4 12  2  3  0  0  0
  5  6  1  0  0  0  0
  5 31  1  0  0  0  0
  5 32  1  0  0  0  0
  6  7  1  0  0  0  0
  6 33  1  0  0  0  0
  6 34  1  0  0  0  0
  7  8  1  0  0  0  0
  7 35  1  0  0  0  0
  7 36  1  0  0  0  0
  8  9  1  0  0  0  0
  8 37  1  0  0  0  0
  8 38  1  0  0  0  0
  9 10  1  0  0  0  0
  9 39  1  0  0  0  0
  9 40  1  0  0  0  0
 10 11  1  0  0  0  0
 10 41  1  0  0  0  0
 10 42  1  0  0  0  0
 11 43  1  0  0  0  0
 11 44  1  0  0  0  0
 11 45  1  0  0  0  0
 12 13  1  0  0  0  0
 12 46  1  0  0  0  0
 13 14  2  3  0  0  0
 13 47  1  0  0  0  0
 14 15  1  0  0  0  0
 14 48  1  0  0  0  0
 15 16  1  0  0  0  0
 15 17  2  3  0  0  0
 16 49  1  0  0  0  0
 16 50  1  0  0  0  0
 16 51  1  0  0  0  0
 17 18  1  0  0  0  0
 17 52  1  0  0  0  0
 18 19  2  3  0  0  0
 18 53  1  0  0  0  0
 19 20  1  0  0  0  0
 19 54  1  0  0  0  0
 20 21  2  3  0  0  0
 20 55  1  0  0  0  0
 21 22  1  0  0  0  0
 21 56  1  0  0  0  0
 22 23  2  3  0  0  0
 22 57  1  0  0  0  0
 23 24  1  0  0  0  0
 23 25  1  0  0  0  0
 25 26  1  0  0  0  0
 26 58  1  0  0  0  0
 26 59  1  0  0  0  0
 26 60  1  0  0  0  0
M  END
$$$$
