
 OpenBabel04232216433D

 20 20  0  0  0  0  0  0  0  0999 V2000
    3.1690    0.6400    1.5462 C   0  0  0  0  0  0  0  0  0  0  0  0
    3.4603   -0.4194    0.6162 C   0  0  0  0  0  0  0  0  0  0  0  0
    3.4261   -1.6932    1.0474 C   0  0  0  0  0  0  0  0  0  0  0  0
    4.4995   -2.5980    0.6160 C   0  0  0  0  0  0  0  0  0  0  0  0
    5.3460   -2.9168    1.6301 C   0  0  0  0  0  0  0  0  0  0  0  0
    6.3582   -1.8711    1.8487 C   0  0  0  0  0  0  0  0  0  0  0  0
    6.2249   -1.0844    2.9307 C   0  0  0  0  0  0  0  0  0  0  0  0
    6.4275    0.3369    2.8012 C   0  0  0  0  0  0  0  0  0  0  0  0
    5.4971    1.2619    2.5118 C   0  0  0  0  0  0  0  0  0  0  0  0
    4.0505    1.2715    2.3515 C   0  0  0  0  0  0  0  0  0  0  0  0
    2.1274    0.9473    1.5739 H   0  0  0  0  0  0  0  0  0  0  0  0
    3.9692   -0.1289   -0.2978 H   0  0  0  0  0  0  0  0  0  0  0  0
    2.9607   -1.9202    2.0057 H   0  0  0  0  0  0  0  0  0  0  0  0
    4.9598   -2.2517   -0.3159 H   0  0  0  0  0  0  0  0  0  0  0  0
    4.8874   -3.2268    2.5755 H   0  0  0  0  0  0  0  0  0  0  0  0
    6.8462   -1.4828    0.9549 H   0  0  0  0  0  0  0  0  0  0  0  0
    5.6832   -1.4017    3.8160 H   0  0  0  0  0  0  0  0  0  0  0  0
    7.4543    0.6668    2.9539 H   0  0  0  0  0  0  0  0  0  0  0  0
    5.8791    2.2845    2.4747 H   0  0  0  0  0  0  0  0  0  0  0  0
    3.6055    2.0627    2.9577 H   0  0  0  0  0  0  0  0  0  0  0  0
  1  2  1  0  0  0  0
  1 10  2  0  0  0  0
  1 11  1  0  0  0  0
  2  3  2  0  0  0  0
  2 12  1  0  0  0  0
  3  4  1  0  0  0  0
  3 13  1  0  0  0  0
  4  5  2  0  0  0  0
  4 14  1  0  0  0  0
  5  6  1  0  0  0  0
  5 15  1  0  0  0  0
  6  7  2  0  0  0  0
  6 16  1  0  0  0  0
  7  8  1  0  0  0  0
  7 17  1  0  0  0  0
  8  9  2  0  0  0  0
  8 18  1  0  0  0  0
  9 10  1  0  0  0  0
  9 19  1  0  0  0  0
 10 20  1  0  0  0  0
M  END
$$$$
