
 OpenBabel04232217003D

132131  0  0  1  0  0  0  0  0999 V2000
    6.1856   -2.9161    2.8705 O   0  0  0  0  0  0  0  0  0  0  0  0
    7.6026   -2.8571    2.8998 C   0  0  3  0  0  0  0  0  0  0  0  0
    8.1231   -3.7890    3.9836 C   0  0  0  0  0  0  0  0  0  0  0  0
    8.1315   -3.2568    1.5262 C   0  0  0  0  0  0  0  0  0  0  0  0
    7.6362   -2.3120    0.4409 C   0  0  0  0  0  0  0  0  0  0  0  0
    8.2511   -2.6887   -0.7932 O   0  0  0  0  0  0  0  0  0  0  0  0
    7.8106   -1.6947   -1.7522 O   0  0  0  0  0  0  0  0  0  0  0  0
    7.5931   -2.3017   -3.0488 O   0  0  0  0  0  0  0  0  0  0  0  0
    7.2073   -1.2876   -4.0079 O   0  0  0  0  0  0  0  0  0  0  0  0
    7.7366   -1.5912   -5.3188 O   0  0  0  0  0  0  0  0  0  0  0  0
    9.1568   -1.3178   -5.3792 O   0  0  0  0  0  0  0  0  0  0  0  0
    9.7356   -2.0116   -6.5086 N   0  0  0  0  0  0  0  0  0  0  0  0
   11.1094   -2.3192   -6.1589 O   0  0  0  0  0  0  0  0  0  0  0  0
   11.8195   -2.8792   -7.2891 O   0  0  0  0  0  0  0  0  0  0  0  0
   13.1253   -2.2648   -7.3866 O   0  0  0  0  0  0  0  0  0  0  0  0
   13.7471   -2.5566   -8.6574 O   0  0  0  0  0  0  0  0  0  0  0  0
   15.0666   -3.0916   -8.4230 O   0  0  0  0  0  0  0  0  0  0  0  0
   15.6188   -3.6525   -9.6269 O   0  0  0  0  0  0  0  0  0  0  0  0
   16.9125   -3.0727   -9.8712 O   0  0  0  0  0  0  0  0  0  0  0  0
   17.3964   -3.4667  -11.1609 O   0  0  0  0  0  0  0  0  0  0  0  0
   18.7260   -3.9896  -11.0396 O   0  0  0  0  0  0  0  0  0  0  0  0
   19.2323   -4.2887  -12.3537 O   0  0  0  0  0  0  0  0  0  0  0  0
   20.6455   -4.1639  -12.2556 C   0  0  0  0  0  0  0  0  0  0  0  0
   21.1439   -4.6275  -13.5768 C   0  0  0  0  0  0  0  0  0  0  0  0
   22.6693   -4.6157  -13.5743 C   0  0  0  0  0  0  0  0  0  0  0  0
   23.1319   -5.1007  -14.8998 C   0  0  0  0  0  0  0  0  0  0  0  0
   24.6402   -5.1060  -14.8978 C   0  0  0  0  0  0  0  0  0  0  0  0
   25.1365   -5.5782  -16.2522 C   0  0  0  0  0  0  0  0  0  0  0  0
   26.6268   -5.5843  -16.2416 C   0  0  0  0  0  0  0  0  0  0  0  0
   27.1238   -6.0315  -17.5810 C   0  0  0  0  0  0  0  0  0  0  0  0
   28.6251   -6.0331  -17.5939 C   0  0  0  0  0  0  0  0  0  0  0  0
   29.1416   -6.5285  -18.9149 C   0  0  0  0  0  0  0  0  0  0  0  0
   30.6527   -6.5515  -18.8924 C   0  0  0  0  0  0  0  0  0  0  0  0
   31.1135   -7.1466  -20.0928 O   0  0  0  0  0  0  0  0  0  0  0  0
   32.5578   -6.9917  -20.0443 O   0  0  0  0  0  0  0  0  0  0  0  0
   33.1390   -7.1788  -21.3562 O   0  0  0  0  0  0  0  0  0  0  0  0
   32.5932   -6.2205  -22.2965 O   0  0  0  0  0  0  0  0  0  0  0  0
   32.8194   -6.6609  -23.6561 O   0  0  0  0  0  0  0  0  0  0  0  0
   32.1984   -7.9522  -23.8871 O   0  0  0  0  0  0  0  0  0  0  0  0
   32.8101   -8.4419  -25.0687 C   0  0  0  0  0  0  0  0  0  0  0  0
   32.3372   -9.8561  -25.3038 C   0  0  0  0  0  0  0  0  0  0  0  0
   32.8576  -10.3075  -26.5434 O   0  0  0  0  0  0  0  0  0  0  0  0
   32.3393  -11.6538  -26.6737 O   0  0  0  0  0  0  0  0  0  0  0  0
   32.7966  -12.1173  -27.9324 C   0  0  0  0  0  0  0  0  0  0  0  0
   32.4026  -13.4696  -28.0841 O   0  0  0  0  0  0  0  0  0  0  0  0
   32.3396  -13.7027  -29.5087 O   0  0  0  0  0  0  0  0  0  0  0  0
   31.7837  -15.0155  -29.7559 O   0  0  0  0  0  0  0  0  0  0  0  0
   32.4377  -15.6503  -30.8715 O   0  0  0  0  0  0  0  0  0  0  0  0
   33.8786  -15.6181  -30.6973 O   0  0  0  0  0  0  0  0  0  0  0  0
   34.3845  -15.8429  -31.9931 C   0  0  0  0  0  0  0  0  0  0  0  0
   35.8865  -15.7523  -31.9040 C   0  0  0  0  0  0  0  0  0  0  0  0
   36.4942  -16.1431  -33.2195 C   0  0  0  0  0  0  0  0  0  0  0  0
   37.8736  -15.9468  -33.0309 O   0  0  0  0  0  0  0  0  0  0  0  0
   38.4374  -16.2504  -34.3005 O   0  0  0  0  0  0  0  0  0  0  0  0
   39.7417  -16.7947  -34.1122 O   0  0  0  0  0  0  0  0  0  0  0  0
   40.2506  -17.1463  -35.3843 O   0  0  0  0  0  0  0  0  0  0  0  0
   41.5383  -16.5735  -35.5882 O   0  0  0  0  0  0  0  0  0  0  0  0
   42.0607  -17.2159  -36.7336 O   0  0  0  0  0  0  0  0  0  0  0  0
   43.4155  -17.6092  -36.5624 O   0  0  0  0  0  0  0  0  0  0  0  0
   43.9404  -17.6049  -37.8784 O   0  0  0  0  0  0  0  0  0  0  0  0
   45.3338  -17.3630  -37.9165 O   0  0  0  0  0  0  0  0  0  0  0  0
   45.8079  -18.2085  -38.9559 O   0  0  0  0  0  0  0  0  0  0  0  0
   47.2136  -18.3676  -38.9242 O   0  0  0  0  0  0  0  0  0  0  0  0
   47.6415  -18.2761  -40.2806 O   0  0  0  0  0  0  0  0  0  0  0  0
   49.0510  -18.1428  -40.3686 O   0  0  0  0  0  0  0  0  0  0  0  0
   49.5169  -19.1418  -41.2775 O   0  0  0  0  0  0  0  0  0  0  0  0
   50.9377  -19.1780  -41.2745 O   0  0  0  0  0  0  0  0  0  0  0  0
   51.4129  -18.8395  -42.5817 O   0  0  0  0  0  0  0  0  0  0  0  0
   52.8355  -18.8833  -42.5813 O   0  0  0  0  0  0  0  0  0  0  0  0
   53.2975  -19.9116  -43.4633 O   0  0  0  0  0  0  0  0  0  0  0  0
   54.7182  -19.8378  -43.5081 O   0  0  0  0  0  0  0  0  0  0  0  0
   55.1880  -19.6610  -44.8462 O   0  0  0  0  0  0  0  0  0  0  0  0
   56.5967  -19.8676  -44.8069 O   0  0  0  0  0  0  0  0  0  0  0  0
   57.0573  -20.6124  -45.9332 O   0  0  0  0  0  0  0  0  0  0  0  0
   58.4679  -20.3887  -46.0100 O   0  0  0  0  0  0  0  0  0  0  0  0
   58.8511  -20.7921  -47.2955 C   0  0  0  0  0  0  0  0  0  0  0  0
   60.3551  -20.7818  -47.2566 C   0  0  0  0  0  0  0  0  0  0  0  0
   60.9297  -21.2223  -48.5821 C   0  0  0  0  0  0  0  0  0  0  0  0
   62.4466  -21.1947  -48.5083 C   0  0  0  0  0  0  0  0  0  0  0  0
    5.8588   -2.5880    3.7322 H   0  0  0  0  0  0  0  0  0  0  0  0
    7.8948   -1.8258    3.1276 H   0  0  0  0  0  0  0  0  0  0  0  0
    7.8277   -4.8248    3.7847 H   0  0  0  0  0  0  0  0  0  0  0  0
    7.6975   -3.5205    4.9564 H   0  0  0  0  0  0  0  0  0  0  0  0
    9.2137   -3.7419    4.0544 H   0  0  0  0  0  0  0  0  0  0  0  0
    7.8113   -4.2750    1.2709 H   0  0  0  0  0  0  0  0  0  0  0  0
    9.2291   -3.2697    1.5266 H   0  0  0  0  0  0  0  0  0  0  0  0
    7.9198   -1.2818    0.6764 H   0  0  0  0  0  0  0  0  0  0  0  0
    6.5455   -2.3659    0.3317 H   0  0  0  0  0  0  0  0  0  0  0  0
    9.8716   -1.2226   -7.1400 H   0  0  0  0  0  0  0  0  0  0  0  0
   21.0014   -4.8251  -11.4416 H   0  0  0  0  0  0  0  0  0  0  0  0
   20.9203   -3.1373  -12.0378 H   0  0  0  0  0  0  0  0  0  0  0  0
   20.7681   -3.9777  -14.3732 H   0  0  0  0  0  0  0  0  0  0  0  0
   20.7772   -5.6364  -13.8046 H   0  0  0  0  0  0  0  0  0  0  0  0
   23.0337   -5.2904  -12.7780 H   0  0  0  0  0  0  0  0  0  0  0  0
   23.0424   -3.6154  -13.3653 H   0  0  0  0  0  0  0  0  0  0  0  0
   22.7624   -4.4459  -15.7114 H   0  0  0  0  0  0  0  0  0  0  0  0
   22.7606   -6.1144  -15.1210 H   0  0  0  0  0  0  0  0  0  0  0  0
   25.0140   -5.7629  -14.1096 H   0  0  0  0  0  0  0  0  0  0  0  0
   25.0181   -4.0970  -14.6887 H   0  0  0  0  0  0  0  0  0  0  0  0
   24.7447   -4.9128  -17.0378 H   0  0  0  0  0  0  0  0  0  0  0  0
   24.7421   -6.5811  -16.4546 H   0  0  0  0  0  0  0  0  0  0  0  0
   27.0035   -6.2374  -15.4485 H   0  0  0  0  0  0  0  0  0  0  0  0
   27.0068   -4.5653  -16.0221 H   0  0  0  0  0  0  0  0  0  0  0  0
   26.7356   -5.3649  -18.3890 H   0  0  0  0  0  0  0  0  0  0  0  0
   26.7393   -7.0483  -17.8093 H   0  0  0  0  0  0  0  0  0  0  0  0
   28.9945   -6.6727  -16.7727 H   0  0  0  0  0  0  0  0  0  0  0  0
   28.9962   -5.0134  -17.3836 H   0  0  0  0  0  0  0  0  0  0  0  0
   28.7900   -5.8862  -19.7311 H   0  0  0  0  0  0  0  0  0  0  0  0
   28.7567   -7.5292  -19.1282 H   0  0  0  0  0  0  0  0  0  0  0  0
   31.0186   -7.1466  -18.0457 H   0  0  0  0  0  0  0  0  0  0  0  0
   31.0466   -5.5309  -18.8030 H   0  0  0  0  0  0  0  0  0  0  0  0
   33.9027   -8.4206  -24.9767 H   0  0  0  0  0  0  0  0  0  0  0  0
   32.5317   -7.8003  -25.9129 H   0  0  0  0  0  0  0  0  0  0  0  0
   31.2421   -9.8982  -25.3219 H   0  0  0  0  0  0  0  0  0  0  0  0
   32.6830  -10.5140  -24.4968 H   0  0  0  0  0  0  0  0  0  0  0  0
   33.8899  -12.0692  -27.9706 H   0  0  0  0  0  0  0  0  0  0  0  0
   32.3698  -11.4879  -28.7237 H   0  0  0  0  0  0  0  0  0  0  0  0
   34.0098  -15.0872  -32.6948 H   0  0  0  0  0  0  0  0  0  0  0  0
   34.0822  -16.8358  -32.3393 H   0  0  0  0  0  0  0  0  0  0  0  0
   36.2752  -16.3945  -31.1025 H   0  0  0  0  0  0  0  0  0  0  0  0
   36.1997  -14.7376  -31.6261 H   0  0  0  0  0  0  0  0  0  0  0  0
   36.1383  -15.4989  -34.0317 H   0  0  0  0  0  0  0  0  0  0  0  0
   36.2819  -17.1892  -33.4668 H   0  0  0  0  0  0  0  0  0  0  0  0
   58.4522  -20.0982  -48.0440 H   0  0  0  0  0  0  0  0  0  0  0  0
   58.4666  -21.8042  -47.4984 H   0  0  0  0  0  0  0  0  0  0  0  0
   60.6994  -21.4362  -46.4441 H   0  0  0  0  0  0  0  0  0  0  0  0
   60.7034  -19.7747  -46.9905 H   0  0  0  0  0  0  0  0  0  0  0  0
   60.5788  -20.5569  -49.3791 H   0  0  0  0  0  0  0  0  0  0  0  0
   60.5826  -22.2341  -48.8203 H   0  0  0  0  0  0  0  0  0  0  0  0
   62.7956  -20.1833  -48.2868 H   0  0  0  0  0  0  0  0  0  0  0  0
   62.8696  -21.5161  -49.4572 H   0  0  0  0  0  0  0  0  0  0  0  0
   62.7990  -21.8621  -47.7175 H   0  0  0  0  0  0  0  0  0  0  0  0
  1  2  1  0  0  0  0
  1 80  1  0  0  0  0
  2  3  1  0  0  0  0
  2  4  1  0  0  0  0
  2 81  1  0  0  0  0
  3 82  1  0  0  0  0
  3 83  1  0  0  0  0
  3 84  1  0  0  0  0
  4  5  1  0  0  0  0
  4 85  1  0  0  0  0
  4 86  1  0  0  0  0
  5  6  1  0  0  0  0
  5 87  1  0  0  0  0
  5 88  1  0  0  0  0
  6  7  1  0  0  0  0
  7  8  1  0  0  0  0
  8  9  1  0  0  0  0
  9 10  1  0  0  0  0
 10 11  1  0  0  0  0
 11 12  1  0  0  0  0
 12 13  1  0  0  0  0
 12 89  1  0  0  0  0
 13 14  1  0  0  0  0
 14 15  1  0  0  0  0
 15 16  1  0  0  0  0
 16 17  1  0  0  0  0
 17 18  1  0  0  0  0
 18 19  1  0  0  0  0
 19 20  1  0  0  0  0
 20 21  1  0  0  0  0
 21 22  1  0  0  0  0
 22 23  1  0  0  0  0
 23 24  1  0  0  0  0
 23 90  1  0  0  0  0
 23 91  1  0  0  0  0
 24 25  1  0  0  0  0
 24 92  1  0  0  0  0
 24 93  1  0  0  0  0
 25 26  1  0  0  0  0
 25 94  1  0  0  0  0
 25 95  1  0  0  0  0
 26 27  1  0  0  0  0
 26 96  1  0  0  0  0
 26 97  1  0  0  0  0
 27 28  1  0  0  0  0
 27 98  1  0  0  0  0
 27 99  1  0  0  0  0
 28 29  1  0  0  0  0
 28100  1  0  0  0  0
 28101  1  0  0  0  0
 29 30  1  0  0  0  0
 29102  1  0  0  0  0
 29103  1  0  0  0  0
 30 31  1  0  0  0  0
 30104  1  0  0  0  0
 30105  1  0  0  0  0
 31 32  1  0  0  0  0
 31106  1  0  0  0  0
 31107  1  0  0  0  0
 32 33  1  0  0  0  0
 32108  1  0  0  0  0
 32109  1  0  0  0  0
 33 34  1  0  0  0  0
 33110  1  0  0  0  0
 33111  1  0  0  0  0
 34 35  1  0  0  0  0
 35 36  1  0  0  0  0
 36 37  1  0  0  0  0
 37 38  1  0  0  0  0
 38 39  1  0  0  0  0
 39 40  1  0  0  0  0
 40 41  1  0  0  0  0
 40112  1  0  0  0  0
 40113  1  0  0  0  0
 41 42  1  0  0  0  0
 41114  1  0  0  0  0
 41115  1  0  0  0  0
 42 43  1  0  0  0  0
 43 44  1  0  0  0  0
 44 45  1  0  0  0  0
 44116  1  0  0  0  0
 44117  1  0  0  0  0
 45 46  1  0  0  0  0
 46 47  1  0  0  0  0
 47 48  1  0  0  0  0
 48 49  1  0  0  0  0
 49 50  1  0  0  0  0
 50 51  1  0  0  0  0
 50118  1  0  0  0  0
 50119  1  0  0  0  0
 51 52  1  0  0  0  0
 51120  1  0  0  0  0
 51121  1  0  0  0  0
 52 53  1  0  0  0  0
 52122  1  0  0  0  0
 52123  1  0  0  0  0
 53 54  1  0  0  0  0
 54 55  1  0  0  0  0
 55 56  1  0  0  0  0
 56 57  1  0  0  0  0
 57 58  1  0  0  0  0
 58 59  1  0  0  0  0
 59 60  1  0  0  0  0
 60 61  1  0  0  0  0
 61 62  1  0  0  0  0
 62 63  1  0  0  0  0
 63 64  1  0  0  0  0
 64 65  1  0  0  0  0
 65 66  1  0  0  0  0
 66 67  1  0  0  0  0
 67 68  1  0  0  0  0
 68 69  1  0  0  0  0
 69 70  1  0  0  0  0
 70 71  1  0  0  0  0
 71 72  1  0  0  0  0
 72 73  1  0  0  0  0
 73 74  1  0  0  0  0
 74 75  1  0  0  0  0
 75 76  1  0  0  0  0
 76 77  1  0  0  0  0
 76124  1  0  0  0  0
 76125  1  0  0  0  0
 77 78  1  0  0  0  0
 77126  1  0  0  0  0
 77127  1  0  0  0  0
 78 79  1  0  0  0  0
 78128  1  0  0  0  0
 78129  1  0  0  0  0
 79130  1  0  0  0  0
 79131  1  0  0  0  0
 79132  1  0  0  0  0
M  END
$$$$
