
 OpenBabel04232217033D

 48 47  0  0  0  0  0  0  0  0999 V2000
    1.0476   -0.0548   -0.0125 S   0  0  0  0  0  0  0  0  0  0  0  0
    2.7030   -0.0394   -0.0504 O   0  0  0  0  0  0  0  0  0  0  0  0
    3.2294    0.3228   -1.6542 S   0  0  0  0  0  0  0  0  0  0  0  0
    5.3013    0.2982   -1.4924 S   0  0  0  0  0  0  0  0  0  0  0  0
    6.0149    0.7326   -3.4257 S   0  0  0  0  0  0  0  0  0  0  0  0
    8.1159    0.7400   -3.4207 S   0  0  0  0  0  0  0  0  0  0  0  0
    8.7933    1.1814   -5.3730 S   0  0  0  0  0  0  0  0  0  0  0  0
   10.9048    1.1917   -5.3669 S   0  0  0  0  0  0  0  0  0  0  0  0
   11.5966    1.6285   -7.3124 S   0  0  0  0  0  0  0  0  0  0  0  0
   13.7077    1.6341   -7.2982 S   0  0  0  0  0  0  0  0  0  0  0  0
   14.3990    2.0739   -9.2430 S   0  0  0  0  0  0  0  0  0  0  0  0
   16.5090    2.0763   -9.2290 S   0  0  0  0  0  0  0  0  0  0  0  0
   17.1996    2.5189  -11.1725 S   0  0  0  0  0  0  0  0  0  0  0  0
   19.3090    2.5185  -11.1590 S   0  0  0  0  0  0  0  0  0  0  0  0
   19.9996    2.9581  -13.1031 S   0  0  0  0  0  0  0  0  0  0  0  0
   22.1090    2.9609  -13.0888 S   0  0  0  0  0  0  0  0  0  0  0  0
   22.7996    3.3975  -15.0336 S   0  0  0  0  0  0  0  0  0  0  0  0
   24.9090    3.3975  -15.0200 S   0  0  0  0  0  0  0  0  0  0  0  0
   25.5996    3.8371  -16.9641 S   0  0  0  0  0  0  0  0  0  0  0  0
   27.7090    3.8340  -16.9512 S   0  0  0  0  0  0  0  0  0  0  0  0
   28.3996    4.2766  -18.8946 S   0  0  0  0  0  0  0  0  0  0  0  0
   30.5090    4.2708  -18.8823 S   0  0  0  0  0  0  0  0  0  0  0  0
   31.1996    4.7102  -20.8264 S   0  0  0  0  0  0  0  0  0  0  0  0
   33.3090    4.7074  -20.8135 S   0  0  0  0  0  0  0  0  0  0  0  0
   33.9996    5.1499  -22.7569 S   0  0  0  0  0  0  0  0  0  0  0  0
   36.1090    5.1439  -22.7446 S   0  0  0  0  0  0  0  0  0  0  0  0
   36.7996    5.5837  -24.6887 S   0  0  0  0  0  0  0  0  0  0  0  0
   38.9090    5.5807  -24.6758 S   0  0  0  0  0  0  0  0  0  0  0  0
   39.5996    6.0174  -26.6205 S   0  0  0  0  0  0  0  0  0  0  0  0
   41.7090    6.0174  -26.6069 S   0  0  0  0  0  0  0  0  0  0  0  0
   42.3996    6.4513  -28.5523 S   0  0  0  0  0  0  0  0  0  0  0  0
   44.5090    6.4483  -28.5394 S   0  0  0  0  0  0  0  0  0  0  0  0
   45.1996    6.8798  -30.4853 S   0  0  0  0  0  0  0  0  0  0  0  0
   47.3089    6.8742  -30.4729 S   0  0  0  0  0  0  0  0  0  0  0  0
   47.9996    7.3026  -32.4195 S   0  0  0  0  0  0  0  0  0  0  0  0
   50.1089    7.2999  -32.4065 S   0  0  0  0  0  0  0  0  0  0  0  0
   50.7995    7.7312  -34.3524 S   0  0  0  0  0  0  0  0  0  0  0  0
   52.9087    7.7252  -34.3401 S   0  0  0  0  0  0  0  0  0  0  0  0
   53.5981    8.1597  -36.2848 S   0  0  0  0  0  0  0  0  0  0  0  0
   55.7042    8.1553  -36.2688 S   0  0  0  0  0  0  0  0  0  0  0  0
   56.3899    8.5869  -38.2113 S   0  0  0  0  0  0  0  0  0  0  0  0
   58.4911    8.5847  -38.1922 S   0  0  0  0  0  0  0  0  0  0  0  0
   59.1471    8.9791  -40.1395 S   0  0  0  0  0  0  0  0  0  0  0  0
   61.2222    9.0862  -40.1064 S   0  0  0  0  0  0  0  0  0  0  0  0
   61.8668    9.4160  -42.0526 S   0  0  0  0  0  0  0  0  0  0  0  0
   61.2793   11.3206  -42.5589 S   0  0  0  0  0  0  0  0  0  0  0  0
    0.7876   -0.3487    1.2908 H   0  0  0  0  0  0  0  0  0  0  0  0
   61.7377   11.4530  -43.8189 H   0  0  0  0  0  0  0  0  0  0  0  0
  1  2  1  0  0  0  0
  1 47  1  0  0  0  0
  2  3  1  0  0  0  0
  3  4  1  0  0  0  0
  4  5  1  0  0  0  0
  5  6  1  0  0  0  0
  6  7  1  0  0  0  0
  7  8  1  0  0  0  0
  8  9  1  0  0  0  0
  9 10  1  0  0  0  0
 10 11  1  0  0  0  0
 11 12  1  0  0  0  0
 12 13  1  0  0  0  0
 13 14  1  0  0  0  0
 14 15  1  0  0  0  0
 15 16  1  0  0  0  0
 16 17  1  0  0  0  0
 17 18  1  0  0  0  0
 18 19  1  0  0  0  0
 19 20  1  0  0  0  0
 20 21  1  0  0  0  0
 21 22  1  0  0  0  0
 22 23  1  0  0  0  0
 23 24  1  0  0  0  0
 24 25  1  0  0  0  0
 25 26  1  0  0  0  0
 26 27  1  0  0  0  0
 27 28  1  0  0  0  0
 28 29  1  0  0  0  0
 29 30  1  0  0  0  0
 30 31  1  0  0  0  0
 31 32  1  0  0  0  0
 32 33  1  0  0  0  0
 33 34  1  0  0  0  0
 34 35  1  0  0  0  0
 35 36  1  0  0  0  0
 36 37  1  0  0  0  0
 37 38  1  0  0  0  0
 38 39  1  0  0  0  0
 39 40  1  0  0  0  0
 40 41  1  0  0  0  0
 41 42  1  0  0  0  0
 42 43  1  0  0  0  0
 43 44  1  0  0  0  0
 44 45  1  0  0  0  0
 45 46  1  0  0  0  0
 46 48  1  0  0  0  0
M  END
$$$$
