
 OpenBabel04232216443D

 56 59  0  0  0  0  0  0  0  0999 V2000
    1.6319    1.4418    1.6980 C   0  0  0  0  0  0  0  0  0  0  0  0
    3.1200    1.5229    1.3518 C   0  0  0  0  0  0  0  0  0  0  0  0
    3.4286    0.3736    0.2289 C   0  0  0  0  0  0  0  0  0  0  0  0
    2.3538   -0.1878   -0.6981 N   0  0  0  0  0  0  0  0  0  0  0  0
    2.8390   -0.8228   -2.0174 C   0  0  0  0  0  0  0  0  0  0  0  0
    1.9364   -0.7980   -3.2562 C   0  0  0  0  0  0  0  0  0  0  0  0
    1.2693    0.5310   -3.5522 C   0  0  0  0  0  0  0  0  0  0  0  0
   -0.1594    0.6391   -3.0325 C   0  0  0  0  0  0  0  0  0  0  0  0
   -0.3371    0.4871   -1.5185 C   0  0  0  0  0  0  0  0  0  0  0  0
   -0.0553   -0.9135   -0.9577 C   0  0  0  0  0  0  0  0  0  0  0  0
    1.2693   -1.0713   -0.1696 C   0  0  0  0  0  0  0  0  0  0  0  0
    4.5930   -0.3661    0.1230 C   0  0  0  0  0  0  0  0  0  0  0  0
    4.7511   -1.7185   -0.3516 N   0  0  0  0  0  0  0  0  0  0  0  0
    6.0000   -1.5438   -0.5160 C   0  0  0  0  0  0  0  0  0  0  0  0
    7.0361   -2.3038   -1.2454 C   0  0  0  0  0  0  0  0  0  0  0  0
    6.0339   -0.2047    0.0951 C   0  0  0  0  0  0  0  0  0  0  0  0
    6.7055    0.7377   -0.6015 C   0  0  0  0  0  0  0  0  0  0  0  0
    7.4483    1.7418    0.0962 C   0  0  0  0  0  0  0  0  0  0  0  0
    7.2232    3.0267   -0.2283 C   0  0  0  0  0  0  0  0  0  0  0  0
    6.6972    3.6619    0.9774 C   0  0  0  0  0  0  0  0  0  0  0  0
    7.5466    3.8131    2.2295 C   0  0  0  0  0  0  0  0  0  0  0  0
    5.4029    3.8137    0.8296 N   0  0  0  0  0  0  0  0  0  0  0  0
    4.6547    3.6974    1.9245 C   0  0  0  0  0  0  0  0  0  0  0  0
    4.5582    4.6019    2.9319 C   0  0  0  0  0  0  0  0  0  0  0  0
    3.5875    4.1470    3.8701 C   0  0  0  0  0  0  0  0  0  0  0  0
    3.0364    3.0257    3.3820 C   0  0  0  0  0  0  0  0  0  0  0  0
    3.6338    2.6367    2.0484 C   0  0  0  0  0  0  0  0  0  0  0  0
    1.0077    1.0400    0.9199 H   0  0  0  0  0  0  0  0  0  0  0  0
    1.2026    2.4541    1.7873 H   0  0  0  0  0  0  0  0  0  0  0  0
    1.4677    0.8873    2.6243 H   0  0  0  0  0  0  0  0  0  0  0  0
    3.0280   -1.8944   -1.8510 H   0  0  0  0  0  0  0  0  0  0  0  0
    3.7821   -0.3591   -2.3237 H   0  0  0  0  0  0  0  0  0  0  0  0
    1.2138   -1.6208   -3.2615 H   0  0  0  0  0  0  0  0  0  0  0  0
    2.5871   -1.0453   -4.1095 H   0  0  0  0  0  0  0  0  0  0  0  0
    1.2250    0.6451   -4.6455 H   0  0  0  0  0  0  0  0  0  0  0  0
    1.8876    1.3568   -3.1855 H   0  0  0  0  0  0  0  0  0  0  0  0
   -0.8011   -0.0806   -3.5562 H   0  0  0  0  0  0  0  0  0  0  0  0
   -0.5295    1.6334   -3.3166 H   0  0  0  0  0  0  0  0  0  0  0  0
   -1.3825    0.7315   -1.2948 H   0  0  0  0  0  0  0  0  0  0  0  0
    0.2603    1.2542   -1.0215 H   0  0  0  0  0  0  0  0  0  0  0  0
   -0.1204   -1.6681   -1.7495 H   0  0  0  0  0  0  0  0  0  0  0  0
   -0.8755   -1.1945   -0.2829 H   0  0  0  0  0  0  0  0  0  0  0  0
    1.5765   -2.1261   -0.2198 H   0  0  0  0  0  0  0  0  0  0  0  0
    1.0793   -0.9139    0.8945 H   0  0  0  0  0  0  0  0  0  0  0  0
    6.5750   -3.1027   -1.8343 H   0  0  0  0  0  0  0  0  0  0  0  0
    7.7684   -2.7345   -0.5606 H   0  0  0  0  0  0  0  0  0  0  0  0
    7.5592   -1.6393   -1.9420 H   0  0  0  0  0  0  0  0  0  0  0  0
    6.2621    1.0177   -1.5574 H   0  0  0  0  0  0  0  0  0  0  0  0
    7.8066    1.4364    1.0780 H   0  0  0  0  0  0  0  0  0  0  0  0
    6.6242    3.2527   -1.1161 H   0  0  0  0  0  0  0  0  0  0  0  0
    8.4369    3.1802    2.1729 H   0  0  0  0  0  0  0  0  0  0  0  0
    7.0156    3.5336    3.1425 H   0  0  0  0  0  0  0  0  0  0  0  0
    7.8926    4.8461    2.3193 H   0  0  0  0  0  0  0  0  0  0  0  0
    5.1040    5.5295    3.0223 H   0  0  0  0  0  0  0  0  0  0  0  0
    3.3811    4.6103    4.8270 H   0  0  0  0  0  0  0  0  0  0  0  0
    2.3414    2.4222    3.9552 H   0  0  0  0  0  0  0  0  0  0  0  0
  1  2  1  0  0  0  0
  1 28  1  0  0  0  0
  1 29  1  0  0  0  0
  1 30  1  0  0  0  0
  2  3  1  0  0  0  0
  2 27  2  0  0  0  0
  3  4  1  0  0  0  0
  3 12  2  0  0  0  0
  4  5  1  0  0  0  0
  4 11  1  0  0  0  0
  5  6  1  0  0  0  0
  5 31  1  0  0  0  0
  5 32  1  0  0  0  0
  6  7  1  0  0  0  0
  6 33  1  0  0  0  0
  6 34  1  0  0  0  0
  7  8  1  0  0  0  0
  7 35  1  0  0  0  0
  7 36  1  0  0  0  0
  8  9  1  0  0  0  0
  8 37  1  0  0  0  0
  8 38  1  0  0  0  0
  9 10  1  0  0  0  0
  9 39  1  0  0  0  0
  9 40  1  0  0  0  0
 10 11  1  0  0  0  0
 10 41  1  0  0  0  0
 10 42  1  0  0  0  0
 11 43  1  0  0  0  0
 11 44  1  0  0  0  0
 12 13  1  0  0  0  0
 12 16  1  0  0  0  0
 13 14  2  0  0  0  0
 14 15  1  0  0  0  0
 14 16  1  0  0  0  0
 15 45  1  0  0  0  0
 15 46  1  0  0  0  0
 15 47  1  0  0  0  0
 16 17  2  0  0  0  0
 17 18  1  0  0  0  0
 17 48  1  0  0  0  0
 18 19  2  0  0  0  0
 18 49  1  0  0  0  0
 19 20  1  0  0  0  0
 19 50  1  0  0  0  0
 20 21  1  0  0  0  0
 20 22  2  0  0  0  0
 21 51  1  0  0  0  0
 21 52  1  0  0  0  0
 21 53  1  0  0  0  0
 22 23  1  0  0  0  0
 23 24  2  0  0  0  0
 23 27  1  0  0  0  0
 24 25  1  0  0  0  0
 24 54  1  0  0  0  0
 25 26  2  0  0  0  0
 25 55  1  0  0  0  0
 26 27  1  0  0  0  0
 26 56  1  0  0  0  0
M  END
$$$$
