
 OpenBabel04232216453D

 61 62  0  0  0  0  0  0  0  0999 V2000
    3.2837   -0.4120    1.5377 C   0  0  0  0  0  0  0  0  0  0  0  0
    4.3721    0.6229    1.3648 C   0  0  0  0  0  0  0  0  0  0  0  0
    4.0316    1.4959    0.2508 C   0  0  0  0  0  0  0  0  0  0  0  0
    5.0030    1.8585   -0.6015 C   0  0  0  0  0  0  0  0  0  0  0  0
    5.9460    0.7504   -1.0597 C   0  0  0  0  0  0  0  0  0  0  0  0
    5.4521    3.2768   -0.4965 C   0  0  0  0  0  0  0  0  0  0  0  0
    4.7849    4.1417    0.6120 C   0  0  0  0  0  0  0  0  0  0  0  0
    4.1624    5.4445    0.1212 C   0  0  0  0  0  0  0  0  0  0  0  0
    3.5108    6.2288    1.2753 C   0  0  0  0  0  0  0  0  0  0  0  0
    4.5025    6.6233    2.3747 C   0  0  0  0  0  0  0  0  0  0  0  0
    3.8632    7.5131    3.4439 C   0  0  0  0  0  0  0  0  0  0  0  0
    4.8139    7.9518    4.5370 C   0  0  0  0  0  0  0  0  0  0  0  0
    6.0880    7.4981    4.4843 N   0  0  0  0  0  0  0  0  0  0  0  0
    7.0034    7.8594    5.4356 N   0  0  0  0  0  0  0  0  0  0  0  0
    6.6341    8.6744    6.4422 C   0  0  0  0  0  0  0  0  0  0  0  0
    7.6747    9.0433    7.4494 C   0  0  0  0  0  0  0  0  0  0  0  0
    5.3375    9.1517    6.5390 C   0  0  0  0  0  0  0  0  0  0  0  0
    4.3956    8.7894    5.5722 C   0  0  0  0  0  0  0  0  0  0  0  0
    2.9843    9.2856    5.6793 C   0  0  0  0  0  0  0  0  0  0  0  0
    6.7352    3.5187   -0.8750 C   0  0  0  0  0  0  0  0  0  0  0  0
    7.6774    3.9067    0.1839 C   0  0  0  0  0  0  0  0  0  0  0  0
    8.0709    2.8457    0.9358 C   0  0  0  0  0  0  0  0  0  0  0  0
    9.3540    2.1323    0.5568 C   0  0  0  0  0  0  0  0  0  0  0  0
   10.5329    2.4577    1.4780 C   0  0  0  0  0  0  0  0  0  0  0  0
    7.4546    2.5056    2.2130 C   0  0  0  0  0  0  0  0  0  0  0  0
    6.4410    1.7151    2.6256 C   0  0  0  0  0  0  0  0  0  0  0  0
    5.4075    0.7413    2.2350 C   0  0  0  0  0  0  0  0  0  0  0  0
    2.3250    0.0889    1.7360 H   0  0  0  0  0  0  0  0  0  0  0  0
    3.4716   -1.0897    2.3739 H   0  0  0  0  0  0  0  0  0  0  0  0
    3.1646   -1.0094    0.6275 H   0  0  0  0  0  0  0  0  0  0  0  0
    3.1637    2.1195    0.4489 H   0  0  0  0  0  0  0  0  0  0  0  0
    5.3992   -0.1992   -1.1557 H   0  0  0  0  0  0  0  0  0  0  0  0
    6.7583    0.5784   -0.3469 H   0  0  0  0  0  0  0  0  0  0  0  0
    6.3709    0.9417   -2.0479 H   0  0  0  0  0  0  0  0  0  0  0  0
    5.5038    4.3553    1.4019 H   0  0  0  0  0  0  0  0  0  0  0  0
    4.0110    3.6335    1.1867 H   0  0  0  0  0  0  0  0  0  0  0  0
    3.3932    5.2190   -0.6269 H   0  0  0  0  0  0  0  0  0  0  0  0
    4.9216    6.0674   -0.3634 H   0  0  0  0  0  0  0  0  0  0  0  0
    2.7015    5.6291    1.7144 H   0  0  0  0  0  0  0  0  0  0  0  0
    3.0451    7.1303    0.8617 H   0  0  0  0  0  0  0  0  0  0  0  0
    5.3578    7.1393    1.9215 H   0  0  0  0  0  0  0  0  0  0  0  0
    4.8925    5.7219    2.8690 H   0  0  0  0  0  0  0  0  0  0  0  0
    3.0319    6.9669    3.9100 H   0  0  0  0  0  0  0  0  0  0  0  0
    3.4519    8.4057    2.9616 H   0  0  0  0  0  0  0  0  0  0  0  0
    8.6263    8.5474    7.2296 H   0  0  0  0  0  0  0  0  0  0  0  0
    7.3584    8.7392    8.4519 H   0  0  0  0  0  0  0  0  0  0  0  0
    7.8435   10.1251    7.4387 H   0  0  0  0  0  0  0  0  0  0  0  0
    5.0632    9.7993    7.3639 H   0  0  0  0  0  0  0  0  0  0  0  0
    2.8542    9.9456    6.5434 H   0  0  0  0  0  0  0  0  0  0  0  0
    2.2988    8.4460    5.8056 H   0  0  0  0  0  0  0  0  0  0  0  0
    2.7060    9.8522    4.7859 H   0  0  0  0  0  0  0  0  0  0  0  0
    7.2270    2.8981   -1.6233 H   0  0  0  0  0  0  0  0  0  0  0  0
    7.2650    4.7803    0.7035 H   0  0  0  0  0  0  0  0  0  0  0  0
    9.6534    2.4171   -0.4618 H   0  0  0  0  0  0  0  0  0  0  0  0
    9.1834    1.0523    0.5393 H   0  0  0  0  0  0  0  0  0  0  0  0
   10.7847    3.5248    1.4515 H   0  0  0  0  0  0  0  0  0  0  0  0
   11.4218    1.9022    1.1593 H   0  0  0  0  0  0  0  0  0  0  0  0
   10.3278    2.1843    2.5178 H   0  0  0  0  0  0  0  0  0  0  0  0
    7.9965    3.0133    3.0216 H   0  0  0  0  0  0  0  0  0  0  0  0
    6.3905    1.7430    3.7287 H   0  0  0  0  0  0  0  0  0  0  0  0
    5.4129   -0.0524    2.9912 H   0  0  0  0  0  0  0  0  0  0  0  0
  1  2  1  0  0  0  0
  1 28  1  0  0  0  0
  1 29  1  0  0  0  0
  1 30  1  0  0  0  0
  2  3  1  0  0  0  0
  2 27  2  0  0  0  0
  3  4  2  0  0  0  0
  3 31  1  0  0  0  0
  4  5  1  0  0  0  0
  4  6  1  0  0  0  0
  5 32  1  0  0  0  0
  5 33  1  0  0  0  0
  5 34  1  0  0  0  0
  6  7  1  0  0  0  0
  6 20  2  0  0  0  0
  7  8  1  0  0  0  0
  7 35  1  0  0  0  0
  7 36  1  0  0  0  0
  8  9  1  0  0  0  0
  8 37  1  0  0  0  0
  8 38  1  0  0  0  0
  9 10  1  0  0  0  0
  9 39  1  0  0  0  0
  9 40  1  0  0  0  0
 10 11  1  0  0  0  0
 10 41  1  0  0  0  0
 10 42  1  0  0  0  0
 11 12  1  0  0  0  0
 11 43  1  0  0  0  0
 11 44  1  0  0  0  0
 12 13  1  0  0  0  0
 12 18  2  0  0  0  0
 13 14  2  0  0  0  0
 14 15  1  0  0  0  0
 15 16  1  0  0  0  0
 15 17  2  0  0  0  0
 16 45  1  0  0  0  0
 16 46  1  0  0  0  0
 16 47  1  0  0  0  0
 17 18  1  0  0  0  0
 17 48  1  0  0  0  0
 18 19  1  0  0  0  0
 19 49  1  0  0  0  0
 19 50  1  0  0  0  0
 19 51  1  0  0  0  0
 20 21  1  0  0  0  0
 20 52  1  0  0  0  0
 21 22  2  0  0  0  0
 21 53  1  0  0  0  0
 22 23  1  0  0  0  0
 22 25  1  0  0  0  0
 23 24  1  0  0  0  0
 23 54  1  0  0  0  0
 23 55  1  0  0  0  0
 24 56  1  0  0  0  0
 24 57  1  0  0  0  0
 24 58  1  0  0  0  0
 25 26  2  0  0  0  0
 25 59  1  0  0  0  0
 26 27  1  0  0  0  0
 26 60  1  0  0  0  0
 27 61  1  0  0  0  0
M  END
$$$$
