
 OpenBabel04232216533D

187186  0  0  0  0  0  0  0  0999 V2000
    0.9794   -9.7169   30.2690 C   0  0  0  0  0  0  0  0  0  0  0  0
    2.4897   -9.7168   30.2640 C   0  0  0  0  0  0  0  0  0  0  0  0
    3.0047  -10.2003   28.9227 C   0  0  0  0  0  0  0  0  0  0  0  0
    4.5189  -10.2002   28.9118 C   0  0  0  0  0  0  0  0  0  0  0  0
    5.0350  -10.6834   27.5712 C   0  0  0  0  0  0  0  0  0  0  0  0
    6.5464  -10.6817   27.5647 C   0  0  0  0  0  0  0  0  0  0  0  0
    7.0192  -11.1352   26.3011 O   0  0  0  0  0  0  0  0  0  0  0  0
    8.4408  -11.1323   26.3039 C   0  0  0  0  0  0  0  0  0  0  0  0
    8.9482  -11.6130   24.9646 C   0  0  0  0  0  0  0  0  0  0  0  0
   10.4633  -11.6172   24.9536 C   0  0  0  0  0  0  0  0  0  0  0  0
   10.9767  -12.1002   23.6135 C   0  0  0  0  0  0  0  0  0  0  0  0
   12.4910  -12.1052   23.6061 C   0  0  0  0  0  0  0  0  0  0  0  0
   13.0040  -12.5902   22.2665 C   0  0  0  0  0  0  0  0  0  0  0  0
   14.5186  -12.5973   22.2593 C   0  0  0  0  0  0  0  0  0  0  0  0
   15.0336  -13.0825   20.9191 C   0  0  0  0  0  0  0  0  0  0  0  0
   16.5521  -13.0887   20.9086 C   0  0  0  0  0  0  0  0  0  0  0  0
   17.0697  -13.5727   19.5648 C   0  0  0  0  0  0  0  0  0  0  0  0
   18.5314  -13.5698   19.5815 N   0  0  0  0  0  0  0  0  0  0  0  0
   18.9825  -14.0336   18.3009 N   0  0  0  0  0  0  0  0  0  0  0  0
   20.4479  -14.0293   18.3126 C   0  0  0  0  0  0  0  0  0  0  0  0
   20.9794  -14.5211   16.9690 C   0  0  0  0  0  0  0  0  0  0  0  0
   22.4389  -14.5142   16.9680 N   0  0  0  0  0  0  0  0  0  0  0  0
   22.8753  -15.3999   18.0164 N   0  0  0  0  0  0  0  0  0  0  0  0
   24.3441  -15.3918   18.0418 C   0  0  0  0  0  0  0  0  0  0  0  0
   24.8661  -16.3128   19.1487 C   0  0  0  0  0  0  0  0  0  0  0  0
   26.3317  -16.3237   19.1757 N   0  0  0  0  0  0  0  0  0  0  0  0
   26.7613  -14.9739   19.4269 N   0  0  0  0  0  0  0  0  0  0  0  0
   28.2198  -14.9732   19.4370 C   0  0  0  0  0  0  0  0  0  0  0  0
   28.7501  -13.5632   19.6845 C   0  0  0  0  0  0  0  0  0  0  0  0
   30.2170  -13.5304   19.7206 N   0  0  0  0  0  0  0  0  0  0  0  0
   30.7004  -14.0026   18.4313 N   0  0  0  0  0  0  0  0  0  0  0  0
   32.1415  -13.9997   18.4572 C   0  0  0  0  0  0  0  0  0  0  0  0
   32.6927  -14.4914   17.1168 C   0  0  0  0  0  0  0  0  0  0  0  0
   34.1770  -14.4984   17.0937 N   0  0  0  0  0  0  0  0  0  0  0  0
   34.6318  -15.3433   18.1319 N   0  0  0  0  0  0  0  0  0  0  0  0
   36.0614  -15.3752   18.1483 N   0  0  0  0  0  0  0  0  0  0  0  0
   36.5342  -16.2402   19.1681 N   0  0  0  0  0  0  0  0  0  0  0  0
   36.0823  -17.5698   18.9496 N   0  0  0  0  0  0  0  0  0  0  0  0
   36.5248  -18.0236   17.6791 N   0  0  0  0  0  0  0  0  0  0  0  0
   37.9466  -17.9872   17.6688 N   0  0  0  0  0  0  0  0  0  0  0  0
   38.4400  -18.8450   18.7113 N   0  0  0  0  0  0  0  0  0  0  0  0
   37.9583  -20.1748   18.5119 N   0  0  0  0  0  0  0  0  0  0  0  0
   38.4210  -20.6832   17.2415 N   0  0  0  0  0  0  0  0  0  0  0  0
   39.8488  -20.6800   17.1781 N   0  0  0  0  0  0  0  0  0  0  0  0
   40.3882  -21.5052   18.2122 N   0  0  0  0  0  0  0  0  0  0  0  0
   39.8888  -22.8186   18.0539 N   0  0  0  0  0  0  0  0  0  0  0  0
   40.3080  -23.3243   16.7725 N   0  0  0  0  0  0  0  0  0  0  0  0
   41.7417  -23.2959   16.6854 N   0  0  0  0  0  0  0  0  0  0  0  0
   42.2638  -24.0983   17.7330 N   0  0  0  0  0  0  0  0  0  0  0  0
   41.7789  -25.4450   17.5815 N   0  0  0  0  0  0  0  0  0  0  0  0
   42.1677  -25.9250   16.2934 N   0  0  0  0  0  0  0  0  0  0  0  0
   43.6104  -25.9191   16.2042 N   0  0  0  0  0  0  0  0  0  0  0  0
   44.1644  -26.7342   17.2495 N   0  0  0  0  0  0  0  0  0  0  0  0
   43.6833  -28.0791   17.1137 N   0  0  0  0  0  0  0  0  0  0  0  0
   44.0768  -28.5974   15.8304 N   0  0  0  0  0  0  0  0  0  0  0  0
   45.5168  -28.5729   15.7160 N   0  0  0  0  0  0  0  0  0  0  0  0
   46.0869  -29.3794   16.7556 N   0  0  0  0  0  0  0  0  0  0  0  0
   45.6125  -30.7323   16.6385 N   0  0  0  0  0  0  0  0  0  0  0  0
   45.9665  -31.2432   15.3491 N   0  0  0  0  0  0  0  0  0  0  0  0
   47.4025  -31.2141   15.2185 N   0  0  0  0  0  0  0  0  0  0  0  0
   47.9809  -32.0031   16.2720 N   0  0  0  0  0  0  0  0  0  0  0  0
   47.5299  -33.3826   16.1718 N   0  0  0  0  0  0  0  0  0  0  0  0
   47.8951  -33.9294   14.9015 N   0  0  0  0  0  0  0  0  0  0  0  0
   49.3148  -33.9077   14.7310 N   0  0  0  0  0  0  0  0  0  0  0  0
   49.9254  -34.6719   15.7658 N   0  0  0  0  0  0  0  0  0  0  0  0
   49.4279  -35.9849   15.7051 N   0  0  0  0  0  0  0  0  0  0  0  0
   49.7693  -36.5540   14.4292 N   0  0  0  0  0  0  0  0  0  0  0  0
   51.1892  -36.5255   14.2426 N   0  0  0  0  0  0  0  0  0  0  0  0
   51.8372  -37.2854   15.2773 N   0  0  0  0  0  0  0  0  0  0  0  0
   51.3458  -38.6237   15.2276 N   0  0  0  0  0  0  0  0  0  0  0  0
   51.6656  -39.2030   13.9417 N   0  0  0  0  0  0  0  0  0  0  0  0
   53.0836  -39.1838   13.7297 N   0  0  0  0  0  0  0  0  0  0  0  0
   53.7397  -39.9015   14.7548 N   0  0  0  0  0  0  0  0  0  0  0  0
   53.3003  -41.2662   14.7352 N   0  0  0  0  0  0  0  0  0  0  0  0
   53.5527  -41.8442   13.4632 N   0  0  0  0  0  0  0  0  0  0  0  0
   54.9587  -41.7954   13.2127 N   0  0  0  0  0  0  0  0  0  0  0  0
   55.6427  -42.5278   14.2442 N   0  0  0  0  0  0  0  0  0  0  0  0
   55.1810  -43.8792   14.2608 N   0  0  0  0  0  0  0  0  0  0  0  0
   55.4582  -44.5071   12.9902 N   0  0  0  0  0  0  0  0  0  0  0  0
   56.8685  -44.4701   12.6975 N   0  0  0  0  0  0  0  0  0  0  0  0
   57.6083  -45.1887   13.7144 N   0  0  0  0  0  0  0  0  0  0  0  0
    0.6059   -9.3690   31.2342 H   0  0  0  0  0  0  0  0  0  0  0  0
    0.6006  -10.7271   30.0886 H   0  0  0  0  0  0  0  0  0  0  0  0
    0.5985   -9.0557   29.4854 H   0  0  0  0  0  0  0  0  0  0  0  0
    2.8586  -10.3720   31.0594 H   0  0  0  0  0  0  0  0  0  0  0  0
    2.8565   -8.7038   30.4573 H   0  0  0  0  0  0  0  0  0  0  0  0
    2.6309   -9.5461   28.1274 H   0  0  0  0  0  0  0  0  0  0  0  0
    2.6354  -11.2135   28.7301 H   0  0  0  0  0  0  0  0  0  0  0  0
    4.8917  -10.8542   29.7076 H   0  0  0  0  0  0  0  0  0  0  0  0
    4.8872   -9.1867   29.1048 H   0  0  0  0  0  0  0  0  0  0  0  0
    4.6613  -10.0343   26.7720 H   0  0  0  0  0  0  0  0  0  0  0  0
    4.6657  -11.6951   27.3724 H   0  0  0  0  0  0  0  0  0  0  0  0
    6.9179  -11.3444   28.3535 H   0  0  0  0  0  0  0  0  0  0  0  0
    6.9135   -9.6665   27.7496 H   0  0  0  0  0  0  0  0  0  0  0  0
    8.8054  -11.7949   27.0958 H   0  0  0  0  0  0  0  0  0  0  0  0
    8.8034  -10.1165   26.4927 H   0  0  0  0  0  0  0  0  0  0  0  0
    8.5712  -10.9598   24.1705 H   0  0  0  0  0  0  0  0  0  0  0  0
    8.5709  -12.6220   24.7669 H   0  0  0  0  0  0  0  0  0  0  0  0
   10.8357  -12.2732   25.7481 H   0  0  0  0  0  0  0  0  0  0  0  0
   10.8359  -10.6052   25.1469 H   0  0  0  0  0  0  0  0  0  0  0  0
   10.6070  -11.4433   22.8189 H   0  0  0  0  0  0  0  0  0  0  0  0
   10.6044  -13.1118   23.4194 H   0  0  0  0  0  0  0  0  0  0  0  0
   12.8612  -12.7611   24.4015 H   0  0  0  0  0  0  0  0  0  0  0  0
   12.8638  -11.0934   23.7987 H   0  0  0  0  0  0  0  0  0  0  0  0
   12.6349  -11.9335   21.4713 H   0  0  0  0  0  0  0  0  0  0  0  0
   12.6300  -13.6015   22.0733 H   0  0  0  0  0  0  0  0  0  0  0  0
   14.8868  -13.2538   23.0551 H   0  0  0  0  0  0  0  0  0  0  0  0
   14.8917  -11.5858   22.4531 H   0  0  0  0  0  0  0  0  0  0  0  0
   14.6611  -12.4264   20.1249 H   0  0  0  0  0  0  0  0  0  0  0  0
   14.6585  -14.0938   20.7276 H   0  0  0  0  0  0  0  0  0  0  0  0
   16.9153  -13.7447   21.7077 H   0  0  0  0  0  0  0  0  0  0  0  0
   16.9187  -12.0752   21.1067 H   0  0  0  0  0  0  0  0  0  0  0  0
   16.6947  -12.9068   18.7795 H   0  0  0  0  0  0  0  0  0  0  0  0
   16.6865  -14.5826   19.3767 H   0  0  0  0  0  0  0  0  0  0  0  0
   18.8528  -14.2043   20.3136 H   0  0  0  0  0  0  0  0  0  0  0  0
   18.6317  -13.3952   17.5818 H   0  0  0  0  0  0  0  0  0  0  0  0
   20.8153  -14.6912   19.1078 H   0  0  0  0  0  0  0  0  0  0  0  0
   20.8328  -13.0200   18.5019 H   0  0  0  0  0  0  0  0  0  0  0  0
   20.6177  -13.8639   16.1718 H   0  0  0  0  0  0  0  0  0  0  0  0
   20.6066  -15.5327   16.7692 H   0  0  0  0  0  0  0  0  0  0  0  0
   22.7640  -13.5599   17.1541 H   0  0  0  0  0  0  0  0  0  0  0  0
   22.5562  -16.3567   17.8448 H   0  0  0  0  0  0  0  0  0  0  0  0
   24.7155  -14.3752   18.2223 H   0  0  0  0  0  0  0  0  0  0  0  0
   24.7447  -15.7367   17.0809 H   0  0  0  0  0  0  0  0  0  0  0  0
   24.5030  -17.3310   18.9717 H   0  0  0  0  0  0  0  0  0  0  0  0
   24.4736  -15.9805   20.1178 H   0  0  0  0  0  0  0  0  0  0  0  0
   26.6657  -16.6438   18.2587 H   0  0  0  0  0  0  0  0  0  0  0  0
   26.4354  -14.6476   20.3381 H   0  0  0  0  0  0  0  0  0  0  0  0
   28.6153  -15.3240   18.4723 H   0  0  0  0  0  0  0  0  0  0  0  0
   28.6105  -15.6358   20.2191 H   0  0  0  0  0  0  0  0  0  0  0  0
   28.3739  -13.1993   20.6488 H   0  0  0  0  0  0  0  0  0  0  0  0
   28.3848  -12.8817   18.9071 H   0  0  0  0  0  0  0  0  0  0  0  0
   30.5542  -14.1726   20.4478 H   0  0  0  0  0  0  0  0  0  0  0  0
   30.3759  -13.3756   17.6942 H   0  0  0  0  0  0  0  0  0  0  0  0
   32.5099  -14.6702   19.2468 H   0  0  0  0  0  0  0  0  0  0  0  0
   32.5317  -12.9976   18.6482 H   0  0  0  0  0  0  0  0  0  0  0  0
   32.3364  -13.8382   16.3146 H   0  0  0  0  0  0  0  0  0  0  0  0
   32.3180  -15.5063   16.9087 H   0  0  0  0  0  0  0  0  0  0  0  0
   34.5398  -13.5747   17.3095 H   0  0  0  0  0  0  0  0  0  0  0  0
   34.2871  -16.2919   17.9615 H   0  0  0  0  0  0  0  0  0  0  0  0
   36.4185  -14.4254   18.3106 H   0  0  0  0  0  0  0  0  0  0  0  0
   36.2210  -15.9186   20.0858 H   0  0  0  0  0  0  0  0  0  0  0  0
   35.0651  -17.5722   18.9855 H   0  0  0  0  0  0  0  0  0  0  0  0
   36.1682  -17.3921   16.9595 H   0  0  0  0  0  0  0  0  0  0  0  0
   38.2724  -17.0374   17.8529 H   0  0  0  0  0  0  0  0  0  0  0  0
   38.0910  -18.5407   19.6135 H   0  0  0  0  0  0  0  0  0  0  0  0
   36.9373  -20.1817   18.5427 H   0  0  0  0  0  0  0  0  0  0  0  0
   38.0512  -20.0765   16.4969 H   0  0  0  0  0  0  0  0  0  0  0  0
   40.2022  -19.7373   17.3133 H   0  0  0  0  0  0  0  0  0  0  0  0
   40.0780  -21.1250   19.1213 H   0  0  0  0  0  0  0  0  0  0  0  0
   38.8653  -22.8023   18.1108 H   0  0  0  0  0  0  0  0  0  0  0  0
   39.9032  -22.7007   16.0540 H   0  0  0  0  0  0  0  0  0  0  0  0
   42.0788  -22.3406   16.8203 H   0  0  0  0  0  0  0  0  0  0  0  0
   41.9703  -23.7213   18.6410 H   0  0  0  0  0  0  0  0  0  0  0  0
   40.7527  -25.4343   17.6437 H   0  0  0  0  0  0  0  0  0  0  0  0
   41.7717  -25.3370   15.5524 H   0  0  0  0  0  0  0  0  0  0  0  0
   43.9774  -24.9787   16.3285 H   0  0  0  0  0  0  0  0  0  0  0  0
   43.8924  -26.3882   18.1650 H   0  0  0  0  0  0  0  0  0  0  0  0
   42.6632  -28.0854   17.2028 H   0  0  0  0  0  0  0  0  0  0  0  0
   43.7043  -28.0340   15.0726 H   0  0  0  0  0  0  0  0  0  0  0  0
   45.8650  -27.6117   15.8024 H   0  0  0  0  0  0  0  0  0  0  0  0
   45.8293  -29.0397   17.6744 H   0  0  0  0  0  0  0  0  0  0  0  0
   44.6021  -30.7569   16.7135 H   0  0  0  0  0  0  0  0  0  0  0  0
   45.5359  -30.6717   14.6164 H   0  0  0  0  0  0  0  0  0  0  0  0
   47.7461  -30.2512   15.2999 H   0  0  0  0  0  0  0  0  0  0  0  0
   47.7213  -31.6481   17.1930 H   0  0  0  0  0  0  0  0  0  0  0  0
   46.5113  -33.4181   16.2682 H   0  0  0  0  0  0  0  0  0  0  0  0
   47.4871  -33.3857   14.1475 H   0  0  0  0  0  0  0  0  0  0  0  0
   49.6550  -32.9561   14.7951 H   0  0  0  0  0  0  0  0  0  0  0  0
   49.6767  -34.2602   16.6736 H   0  0  0  0  0  0  0  0  0  0  0  0
   48.4093  -35.9923   15.8326 H   0  0  0  0  0  0  0  0  0  0  0  0
   49.3001  -35.9861   13.6991 H   0  0  0  0  0  0  0  0  0  0  0  0
   51.5287  -35.5667   14.3038 H   0  0  0  0  0  0  0  0  0  0  0  0
   51.5890  -36.8561   16.1785 H   0  0  0  0  0  0  0  0  0  0  0  0
   50.3313  -38.6364   15.3463 H   0  0  0  0  0  0  0  0  0  0  0  0
   51.2325  -38.6423   13.2073 H   0  0  0  0  0  0  0  0  0  0  0  0
   53.4017  -38.2131   13.7625 H   0  0  0  0  0  0  0  0  0  0  0  0
   53.5284  -39.4982   15.6595 H   0  0  0  0  0  0  0  0  0  0  0  0
   52.2952  -41.2730   14.8919 H   0  0  0  0  0  0  0  0  0  0  0  0
   53.0917  -41.2952   12.7474 H   0  0  0  0  0  0  0  0  0  0  0  0
   55.2508  -40.8139   13.2387 H   0  0  0  0  0  0  0  0  0  0  0  0
   55.4245  -42.0864   15.1536 H   0  0  0  0  0  0  0  0  0  0  0  0
   54.1671  -43.8912   14.4571 H   0  0  0  0  0  0  0  0  0  0  0  0
   54.9332  -43.9765   12.2678 H   0  0  0  0  0  0  0  0  0  0  0  0
   57.1702  -43.4857   12.6806 H   0  0  0  0  0  0  0  0  0  0  0  0
   57.2210  -46.1310   13.7542 H   0  0  0  0  0  0  0  0  0  0  0  0
   57.3787  -44.7622   14.6228 H   0  0  0  0  0  0  0  0  0  0  0  0
  1  2  1  0  0  0  0
  1 82  1  0  0  0  0
  1 83  1  0  0  0  0
  1 84  1  0  0  0  0
  2  3  1  0  0  0  0
  2 85  1  0  0  0  0
  2 86  1  0  0  0  0
  3  4  1  0  0  0  0
  3 87  1  0  0  0  0
  3 88  1  0  0  0  0
  4  5  1  0  0  0  0
  4 89  1  0  0  0  0
  4 90  1  0  0  0  0
  5  6  1  0  0  0  0
  5 91  1  0  0  0  0
  5 92  1  0  0  0  0
  6  7  1  0  0  0  0
  6 93  1  0  0  0  0
  6 94  1  0  0  0  0
  7  8  1  0  0  0  0
  8  9  1  0  0  0  0
  8 95  1  0  0  0  0
  8 96  1  0  0  0  0
  9 10  1  0  0  0  0
  9 97  1  0  0  0  0
  9 98  1  0  0  0  0
 10 11  1  0  0  0  0
 10 99  1  0  0  0  0
 10100  1  0  0  0  0
 11 12  1  0  0  0  0
 11101  1  0  0  0  0
 11102  1  0  0  0  0
 12 13  1  0  0  0  0
 12103  1  0  0  0  0
 12104  1  0  0  0  0
 13 14  1  0  0  0  0
 13105  1  0  0  0  0
 13106  1  0  0  0  0
 14 15  1  0  0  0  0
 14107  1  0  0  0  0
 14108  1  0  0  0  0
 15 16  1  0  0  0  0
 15109  1  0  0  0  0
 15110  1  0  0  0  0
 16 17  1  0  0  0  0
 16111  1  0  0  0  0
 16112  1  0  0  0  0
 17 18  1  0  0  0  0
 17113  1  0  0  0  0
 17114  1  0  0  0  0
 18 19  1  0  0  0  0
 18115  1  0  0  0  0
 19 20  1  0  0  0  0
 19116  1  0  0  0  0
 20 21  1  0  0  0  0
 20117  1  0  0  0  0
 20118  1  0  0  0  0
 21 22  1  0  0  0  0
 21119  1  0  0  0  0
 21120  1  0  0  0  0
 22 23  1  0  0  0  0
 22121  1  0  0  0  0
 23 24  1  0  0  0  0
 23122  1  0  0  0  0
 24 25  1  0  0  0  0
 24123  1  0  0  0  0
 24124  1  0  0  0  0
 25 26  1  0  0  0  0
 25125  1  0  0  0  0
 25126  1  0  0  0  0
 26 27  1  0  0  0  0
 26127  1  0  0  0  0
 27 28  1  0  0  0  0
 27128  1  0  0  0  0
 28 29  1  0  0  0  0
 28129  1  0  0  0  0
 28130  1  0  0  0  0
 29 30  1  0  0  0  0
 29131  1  0  0  0  0
 29132  1  0  0  0  0
 30 31  1  0  0  0  0
 30133  1  0  0  0  0
 31 32  1  0  0  0  0
 31134  1  0  0  0  0
 32 33  1  0  0  0  0
 32135  1  0  0  0  0
 32136  1  0  0  0  0
 33 34  1  0  0  0  0
 33137  1  0  0  0  0
 33138  1  0  0  0  0
 34 35  1  0  0  0  0
 34139  1  0  0  0  0
 35 36  1  0  0  0  0
 35140  1  0  0  0  0
 36 37  1  0  0  0  0
 36141  1  0  0  0  0
 37 38  1  0  0  0  0
 37142  1  0  0  0  0
 38 39  1  0  0  0  0
 38143  1  0  0  0  0
 39 40  1  0  0  0  0
 39144  1  0  0  0  0
 40 41  1  0  0  0  0
 40145  1  0  0  0  0
 41 42  1  0  0  0  0
 41146  1  0  0  0  0
 42 43  1  0  0  0  0
 42147  1  0  0  0  0
 43 44  1  0  0  0  0
 43148  1  0  0  0  0
 44 45  1  0  0  0  0
 44149  1  0  0  0  0
 45 46  1  0  0  0  0
 45150  1  0  0  0  0
 46 47  1  0  0  0  0
 46151  1  0  0  0  0
 47 48  1  0  0  0  0
 47152  1  0  0  0  0
 48 49  1  0  0  0  0
 48153  1  0  0  0  0
 49 50  1  0  0  0  0
 49154  1  0  0  0  0
 50 51  1  0  0  0  0
 50155  1  0  0  0  0
 51 52  1  0  0  0  0
 51156  1  0  0  0  0
 52 53  1  0  0  0  0
 52157  1  0  0  0  0
 53 54  1  0  0  0  0
 53158  1  0  0  0  0
 54 55  1  0  0  0  0
 54159  1  0  0  0  0
 55 56  1  0  0  0  0
 55160  1  0  0  0  0
 56 57  1  0  0  0  0
 56161  1  0  0  0  0
 57 58  1  0  0  0  0
 57162  1  0  0  0  0
 58 59  1  0  0  0  0
 58163  1  0  0  0  0
 59 60  1  0  0  0  0
 59164  1  0  0  0  0
 60 61  1  0  0  0  0
 60165  1  0  0  0  0
 61 62  1  0  0  0  0
 61166  1  0  0  0  0
 62 63  1  0  0  0  0
 62167  1  0  0  0  0
 63 64  1  0  0  0  0
 63168  1  0  0  0  0
 64 65  1  0  0  0  0
 64169  1  0  0  0  0
 65 66  1  0  0  0  0
 65170  1  0  0  0  0
 66 67  1  0  0  0  0
 66171  1  0  0  0  0
 67 68  1  0  0  0  0
 67172  1  0  0  0  0
 68 69  1  0  0  0  0
 68173  1  0  0  0  0
 69 70  1  0  0  0  0
 69174  1  0  0  0  0
 70 71  1  0  0  0  0
 70175  1  0  0  0  0
 71 72  1  0  0  0  0
 71176  1  0  0  0  0
 72 73  1  0  0  0  0
 72177  1  0  0  0  0
 73 74  1  0  0  0  0
 73178  1  0  0  0  0
 74 75  1  0  0  0  0
 74179  1  0  0  0  0
 75 76  1  0  0  0  0
 75180  1  0  0  0  0
 76 77  1  0  0  0  0
 76181  1  0  0  0  0
 77 78  1  0  0  0  0
 77182  1  0  0  0  0
 78 79  1  0  0  0  0
 78183  1  0  0  0  0
 79 80  1  0  0  0  0
 79184  1  0  0  0  0
 80 81  1  0  0  0  0
 80185  1  0  0  0  0
 81186  1  0  0  0  0
 81187  1  0  0  0  0
M  END
$$$$
