
 OpenBabel04232216483D

 26 26  0  0  0  0  0  0  0  0999 V2000
    0.8753    0.0160    0.0608 C   0  0  0  0  0  0  0  0  0  0  0  0
    2.3567    0.0119    0.0671 C   0  0  0  0  0  0  0  0  0  0  0  0
    3.2052    1.0535    0.0638 C   0  0  0  0  0  0  0  0  0  0  0  0
    4.5635    0.5655    0.0640 C   0  0  0  0  0  0  0  0  0  0  0  0
    4.5554   -0.7783    0.0655 C   0  0  0  0  0  0  0  0  0  0  0  0
    5.7180   -1.7127    0.0703 C   0  0  0  0  0  0  0  0  0  0  0  0
    5.7078   -2.6219   -1.1604 C   0  0  0  0  0  0  0  0  0  0  0  0
    6.8788   -3.6011   -1.1636 C   0  0  0  0  0  0  0  0  0  0  0  0
    6.8277   -4.4901   -2.3963 C   0  0  0  0  0  0  0  0  0  0  0  0
    3.1332   -1.2748    0.0669 C   0  0  0  0  0  0  0  0  0  0  0  0
    0.4762    1.0343    0.0611 H   0  0  0  0  0  0  0  0  0  0  0  0
    0.4907   -0.5007    0.9456 H   0  0  0  0  0  0  0  0  0  0  0  0
    0.4980   -0.4965   -0.8294 H   0  0  0  0  0  0  0  0  0  0  0  0
    2.9400    2.0998    0.0589 H   0  0  0  0  0  0  0  0  0  0  0  0
    5.4338    1.2032    0.0653 H   0  0  0  0  0  0  0  0  0  0  0  0
    5.6826   -2.3189    0.9833 H   0  0  0  0  0  0  0  0  0  0  0  0
    6.6573   -1.1482    0.1016 H   0  0  0  0  0  0  0  0  0  0  0  0
    5.7387   -2.0092   -2.0707 H   0  0  0  0  0  0  0  0  0  0  0  0
    4.7739   -3.1962   -1.1935 H   0  0  0  0  0  0  0  0  0  0  0  0
    6.8454   -4.2269   -0.2640 H   0  0  0  0  0  0  0  0  0  0  0  0
    7.8279   -3.0537   -1.1471 H   0  0  0  0  0  0  0  0  0  0  0  0
    5.8989   -5.0697   -2.4220 H   0  0  0  0  0  0  0  0  0  0  0  0
    7.6666   -5.1920   -2.3969 H   0  0  0  0  0  0  0  0  0  0  0  0
    6.8812   -3.8919   -3.3115 H   0  0  0  0  0  0  0  0  0  0  0  0
    2.9238   -1.8688    0.9623 H   0  0  0  0  0  0  0  0  0  0  0  0
    2.9090   -1.8573   -0.8319 H   0  0  0  0  0  0  0  0  0  0  0  0
  1  2  1  0  0  0  0
  1 11  1  0  0  0  0
  1 12  1  0  0  0  0
  1 13  1  0  0  0  0
  2  3  2  0  0  0  0
  2 10  1  0  0  0  0
  3  4  1  0  0  0  0
  3 14  1  0  0  0  0
  4  5  2  0  0  0  0
  4 15  1  0  0  0  0
  5  6  1  0  0  0  0
  5 10  1  0  0  0  0
  6  7  1  0  0  0  0
  6 16  1  0  0  0  0
  6 17  1  0  0  0  0
  7  8  1  0  0  0  0
  7 18  1  0  0  0  0
  7 19  1  0  0  0  0
  8  9  1  0  0  0  0
  8 20  1  0  0  0  0
  8 21  1  0  0  0  0
  9 22  1  0  0  0  0
  9 23  1  0  0  0  0
  9 24  1  0  0  0  0
 10 25  1  0  0  0  0
 10 26  1  0  0  0  0
M  END
$$$$
