
 OpenBabel04232216553D

 11 10  0  0  0  0  0  0  0  0999 V2000
    1.1178    0.0471    0.0201 C   0  0  0  0  0  0  0  0  0  0  0  0
    2.6355    0.1081   -0.0217 C   0  0  0  0  0  0  0  0  0  0  0  0
    3.1599    1.4801   -1.0802 S   0  0  0  0  0  0  0  0  0  0  0  0
    5.1999    1.2477   -1.2377 S   0  0  0  0  0  0  0  0  0  0  0  0
    6.0276    2.3058    0.3086 S   0  0  0  0  0  0  0  0  0  0  0  0
    0.7908   -0.7561    0.6887 H   0  0  0  0  0  0  0  0  0  0  0  0
    0.7101   -0.1713   -0.9818 H   0  0  0  0  0  0  0  0  0  0  0  0
    0.6817    0.9848    0.3723 H   0  0  0  0  0  0  0  0  0  0  0  0
    3.0337   -0.8306   -0.3979 H   0  0  0  0  0  0  0  0  0  0  0  0
    3.0213    0.2703    1.0016 H   0  0  0  0  0  0  0  0  0  0  0  0
    6.4090    1.2928    1.1037 H   0  0  0  0  0  0  0  0  0  0  0  0
  1  2  1  0  0  0  0
  1  6  1  0  0  0  0
  1  7  1  0  0  0  0
  1  8  1  0  0  0  0
  2  3  1  0  0  0  0
  2  9  1  0  0  0  0
  2 10  1  0  0  0  0
  3  4  1  0  0  0  0
  4  5  1  0  0  0  0
  5 11  1  0  0  0  0
M  END
$$$$
