
 OpenBabel04232216513D

 47 48  0  0  1  0  0  0  0  0999 V2000
    1.1509    2.7472    0.0176 C   0  0  0  0  0  0  0  0  0  0  0  0
    2.6396    2.5422   -0.2075 C   0  0  0  0  0  0  0  0  0  0  0  0
    2.9260    1.1554   -0.7931 C   0  0  0  0  0  0  0  0  0  0  0  0
    4.4220    0.8710   -1.0802 C   0  0  3  0  0  0  0  0  0  0  0  0
    4.6233   -0.5100   -1.6805 C   0  0  3  0  0  3  0  0  0  0  0  0
    3.6470   -1.1142   -2.6624 C   0  0  0  0  0  0  0  0  0  0  0  0
    3.3648   -0.3185   -3.9432 C   0  0  0  0  0  0  0  0  0  0  0  0
    4.5839   -0.1541   -4.8338 C   0  0  0  0  0  0  0  0  0  0  0  0
    5.9054   -1.2594   -1.4041 C   0  0  0  0  0  0  0  0  0  0  0  0
    6.4472   -1.1232    0.0331 C   0  0  3  0  0  0  0  0  0  0  0  0
    7.9727   -1.3417   -0.0020 C   0  0  0  0  0  0  0  0  0  0  0  0
    8.4137   -2.4887    0.1175 O   0  0  0  0  0  0  0  0  0  0  0  0
    8.8494   -0.1634   -0.2792 C   0  0  0  0  0  0  0  0  0  0  0  0
   10.1029   -0.1760   -0.7656 C   0  0  0  0  0  0  0  0  0  0  0  0
   10.9505   -1.1914   -1.1601 N   0  0  0  0  0  0  0  0  0  0  0  0
   12.2067   -1.0060   -1.6703 C   0  0  0  0  0  0  0  0  0  0  0  0
   12.9364   -1.9192   -2.0217 O   0  0  0  0  0  0  0  0  0  0  0  0
   10.2150    1.3409   -0.7221 C   0  0  0  0  0  0  0  0  0  0  0  0
    8.7782    1.3324   -0.1640 C   0  0  0  0  0  0  0  0  0  0  0  0
    6.0695    0.1552    0.7201 C   0  0  0  0  0  0  0  0  0  0  0  0
    5.2248    1.0506    0.1932 C   0  0  0  0  0  0  0  0  0  0  0  0
    0.9717    3.7370    0.4473 H   0  0  0  0  0  0  0  0  0  0  0  0
    0.7612    1.9989    0.7156 H   0  0  0  0  0  0  0  0  0  0  0  0
    0.5936    2.6712   -0.9203 H   0  0  0  0  0  0  0  0  0  0  0  0
    3.1332    2.6700    0.7596 H   0  0  0  0  0  0  0  0  0  0  0  0
    3.0228    3.3176   -0.8806 H   0  0  0  0  0  0  0  0  0  0  0  0
    2.3492    1.0781   -1.7206 H   0  0  0  0  0  0  0  0  0  0  0  0
    2.5284    0.3846   -0.1202 H   0  0  0  0  0  0  0  0  0  0  0  0
    4.7859    1.6093   -1.8072 H   0  0  0  0  0  0  0  0  0  0  0  0
    2.6992   -1.2846   -2.1375 H   0  0  0  0  0  0  0  0  0  0  0  0
    3.9938   -2.1124   -2.9572 H   0  0  0  0  0  0  0  0  0  0  0  0
    2.9555    0.6711   -3.7192 H   0  0  0  0  0  0  0  0  0  0  0  0
    2.5879   -0.8481   -4.5098 H   0  0  0  0  0  0  0  0  0  0  0  0
    5.3607    0.4349   -4.3382 H   0  0  0  0  0  0  0  0  0  0  0  0
    4.3050    0.3659   -5.7565 H   0  0  0  0  0  0  0  0  0  0  0  0
    5.0019   -1.1274   -5.1074 H   0  0  0  0  0  0  0  0  0  0  0  0
    6.6540   -0.9432   -2.1413 H   0  0  0  0  0  0  0  0  0  0  0  0
    5.7463   -2.3307   -1.5873 H   0  0  0  0  0  0  0  0  0  0  0  0
    6.0298   -1.9347    0.6457 H   0  0  0  0  0  0  0  0  0  0  0  0
   10.6331   -2.1538   -1.0692 H   0  0  0  0  0  0  0  0  0  0  0  0
   12.5057    0.0511   -1.7428 H   0  0  0  0  0  0  0  0  0  0  0  0
   10.3210    1.8449   -1.6894 H   0  0  0  0  0  0  0  0  0  0  0  0
   10.9658    1.7472   -0.0339 H   0  0  0  0  0  0  0  0  0  0  0  0
    8.0534    1.8470   -0.8042 H   0  0  0  0  0  0  0  0  0  0  0  0
    8.6979    1.7397    0.8506 H   0  0  0  0  0  0  0  0  0  0  0  0
    6.5299    0.3645    1.6838 H   0  0  0  0  0  0  0  0  0  0  0  0
    5.0948    1.9804    0.7403 H   0  0  0  0  0  0  0  0  0  0  0  0
  1  2  1  0  0  0  0
  1 22  1  0  0  0  0
  1 23  1  0  0  0  0
  1 24  1  0  0  0  0
  2  3  1  0  0  0  0
  2 25  1  0  0  0  0
  2 26  1  0  0  0  0
  3  4  1  0  0  0  0
  3 27  1  0  0  0  0
  3 28  1  0  0  0  0
  4  5  1  0  0  0  0
  4 21  1  0  0  0  0
  4 29  1  0  0  0  0
  5  6  1  0  0  0  0
  5  9  1  0  0  0  0
  6  7  1  0  0  0  0
  6 30  1  0  0  0  0
  6 31  1  0  0  0  0
  7  8  1  0  0  0  0
  7 32  1  0  0  0  0
  7 33  1  0  0  0  0
  8 34  1  0  0  0  0
  8 35  1  0  0  0  0
  8 36  1  0  0  0  0
  9 10  1  0  0  0  0
  9 37  1  0  0  0  0
  9 38  1  0  0  0  0
 10 11  1  0  0  0  0
 10 20  1  0  0  0  0
 10 39  1  0  0  0  0
 11 12  2  0  0  0  0
 11 13  1  0  0  0  0
 13 14  2  0  0  0  0
 13 19  1  0  0  0  0
 14 15  1  0  0  0  0
 14 18  1  0  0  0  0
 15 16  1  0  0  0  0
 15 40  1  0  0  0  0
 16 17  2  0  0  0  0
 16 41  1  0  0  0  0
 18 19  1  0  0  0  0
 18 42  1  0  0  0  0
 18 43  1  0  0  0  0
 19 44  1  0  0  0  0
 19 45  1  0  0  0  0
 20 21  2  0  0  0  0
 20 46  1  0  0  0  0
 21 47  1  0  0  0  0
M  END
$$$$
