
 OpenBabel04232216503D

 44 46  0  0  1  0  0  0  0  0999 V2000
    6.3790   -0.4624    0.3625 C   0  0  0  0  0  0  0  0  0  0  0  0
    6.5836   -1.2612   -0.9821 C   0  0  3  0  0  0  0  0  0  0  0  0
    4.9128   -1.6217   -1.1982 C   0  0  0  0  0  0  0  0  0  0  0  0
    4.8614   -2.2712   -2.4985 C   0  0  0  0  0  0  0  0  0  0  0  0
    4.6355   -2.9544   -3.8340 C   0  0  0  0  0  0  0  0  0  0  0  0
    6.1338   -2.9436   -4.2273 C   0  0  0  0  0  0  0  0  0  0  0  0
    7.3408   -3.6789   -4.7109 C   0  0  0  0  0  0  0  0  0  0  0  0
    8.3405   -3.5739   -3.5426 N   0  0  0  0  0  0  0  0  0  0  0  0
    8.6395   -2.3462   -2.8272 C   0  0  0  0  0  0  0  0  0  0  0  0
    8.0163   -2.1873   -1.5517 C   0  0  0  0  0  0  0  0  0  0  0  0
    8.6986   -3.3003   -0.7001 C   0  0  0  0  0  0  0  0  0  0  0  0
    9.1749   -3.0380    0.3756 O   0  0  0  0  0  0  0  0  0  0  0  0
    8.9019   -4.6223   -1.4750 C   0  0  0  0  0  0  0  0  0  0  0  0
    9.8272   -5.7069   -1.0667 C   0  0  0  0  0  0  0  0  0  0  0  0
   11.1425   -5.4229   -1.0795 C   0  0  0  0  0  0  0  0  0  0  0  0
   11.7755   -5.7775   -2.4070 C   0  0  0  0  0  0  0  0  0  0  0  0
   11.8385   -6.9355   -2.8342 O   0  0  0  0  0  0  0  0  0  0  0  0
   12.3188   -4.5793   -3.1501 C   0  0  0  0  0  0  0  0  0  0  0  0
   11.4946   -3.3130   -3.6231 C   0  0  0  0  0  0  0  0  0  0  0  0
   10.3477   -2.2833   -2.9925 C   0  0  0  0  0  0  0  0  0  0  0  0
    8.5475   -4.6994   -2.7624 C   0  0  0  0  0  0  0  0  0  0  0  0
    7.2510   -0.1724    0.9378 H   0  0  0  0  0  0  0  0  0  0  0  0
    5.6538   -0.9560    1.0353 H   0  0  0  0  0  0  0  0  0  0  0  0
    5.8422    0.4764    0.1044 H   0  0  0  0  0  0  0  0  0  0  0  0
    6.7255   -0.4212   -1.6837 H   0  0  0  0  0  0  0  0  0  0  0  0
    4.3209   -0.6906   -1.2053 H   0  0  0  0  0  0  0  0  0  0  0  0
    4.5120   -2.2448   -0.3852 H   0  0  0  0  0  0  0  0  0  0  0  0
    5.3197   -3.1383   -2.0095 H   0  0  0  0  0  0  0  0  0  0  0  0
    5.3513   -1.3900   -2.9287 H   0  0  0  0  0  0  0  0  0  0  0  0
    4.0372   -2.3533   -4.5232 H   0  0  0  0  0  0  0  0  0  0  0  0
    4.2055   -3.9536   -3.7307 H   0  0  0  0  0  0  0  0  0  0  0  0
    6.3721   -3.3846   -3.2646 H   0  0  0  0  0  0  0  0  0  0  0  0
    6.4493   -1.8936   -4.2895 H   0  0  0  0  0  0  0  0  0  0  0  0
    7.7492   -3.1820   -5.5954 H   0  0  0  0  0  0  0  0  0  0  0  0
    7.1157   -4.7212   -4.9543 H   0  0  0  0  0  0  0  0  0  0  0  0
    9.5901   -6.6408   -1.5745 H   0  0  0  0  0  0  0  0  0  0  0  0
   11.5293   -4.4486   -0.7156 H   0  0  0  0  0  0  0  0  0  0  0  0
   13.2293   -4.2505   -2.5852 H   0  0  0  0  0  0  0  0  0  0  0  0
   12.7897   -5.0050   -4.0659 H   0  0  0  0  0  0  0  0  0  0  0  0
   12.3374   -2.6017   -3.7459 H   0  0  0  0  0  0  0  0  0  0  0  0
   11.2070   -3.5295   -4.6589 H   0  0  0  0  0  0  0  0  0  0  0  0
   10.3618   -1.5438   -3.8164 H   0  0  0  0  0  0  0  0  0  0  0  0
   10.7802   -1.7372   -2.1467 H   0  0  0  0  0  0  0  0  0  0  0  0
    8.6718   -5.5838   -3.3740 H   0  0  0  0  0  0  0  0  0  0  0  0
  1  2  1  0  0  0  0
  1 22  1  0  0  0  0
  1 23  1  0  0  0  0
  1 24  1  0  0  0  0
  2  3  1  0  0  0  0
  2 10  1  0  0  0  0
  2 25  1  0  0  0  0
  3  4  1  0  0  0  0
  3 26  1  0  0  0  0
  3 27  1  0  0  0  0
  4  5  1  0  0  0  0
  4 28  1  0  0  0  0
  4 29  1  0  0  0  0
  5  6  1  0  0  0  0
  5 30  1  0  0  0  0
  5 31  1  0  0  0  0
  6  7  1  0  0  0  0
  6 32  1  0  0  0  0
  6 33  1  0  0  0  0
  7  8  1  0  0  0  0
  7 34  1  0  0  0  0
  7 35  1  0  0  0  0
  8  9  1  0  0  0  0
  8 21  1  0  0  0  0
  9 10  2  0  0  0  0
  9 20  1  0  0  0  0
 10 11  1  0  0  0  0
 11 12  2  0  0  0  0
 11 13  1  0  0  0  0
 13 14  1  0  0  0  0
 13 21  2  0  0  0  0
 14 15  2  3  0  0  0
 14 36  1  0  0  0  0
 15 16  1  0  0  0  0
 15 37  1  0  0  0  0
 16 17  2  0  0  0  0
 16 18  1  0  0  0  0
 18 19  1  0  0  0  0
 18 38  1  0  0  0  0
 18 39  1  0  0  0  0
 19 20  1  0  0  0  0
 19 40  1  0  0  0  0
 19 41  1  0  0  0  0
 20 42  1  0  0  0  0
 20 43  1  0  0  0  0
 21 44  1  0  0  0  0
M  END
$$$$
