
 OpenBabel04232216493D

 59 60  0  0  1  0  0  0  0  0999 V2000
    2.1727    1.7263    0.8443 C   0  0  0  0  0  0  0  0  0  0  0  0
    3.2751    2.7253    0.5595 C   0  0  0  0  0  0  0  0  0  0  0  0
    3.9242    2.4015   -0.7423 C   0  0  0  0  0  0  0  0  0  0  0  0
    4.9565    1.5086   -0.7251 C   0  0  0  0  0  0  0  0  0  0  0  0
    6.1231    2.1144   -0.1309 C   0  0  0  0  0  0  0  0  0  0  0  0
    7.3620    1.7966    0.2593 C   0  0  0  0  0  0  0  0  0  0  0  0
    8.0787    0.6754   -0.0298 N   0  0  0  0  0  0  0  0  0  0  0  0
    7.9624   -0.4169    0.9087 C   0  0  0  0  0  0  0  0  0  0  0  0
    8.1211   -1.6678    0.0919 C   0  0  0  0  0  0  0  0  0  0  0  0
    7.9442   -2.8528    1.0048 C   0  0  0  0  0  0  0  0  0  0  0  0
    8.1215   -4.1162    0.1931 C   0  0  0  0  0  0  0  0  0  0  0  0
    7.9744   -5.3317    1.0824 C   0  0  0  0  0  0  0  0  0  0  0  0
    8.1593   -6.5297    0.2694 N   0  0  0  0  0  0  0  0  0  0  0  0
    7.9663    2.8094    1.1273 C   0  0  0  0  0  0  0  0  0  0  0  0
    7.4166    3.0943    2.4591 C   0  0  0  0  0  0  0  0  0  0  0  0
    6.4771    4.0309    2.7067 C   0  0  0  0  0  0  0  0  0  0  0  0
    5.9678    4.9054    1.6703 C   0  0  0  0  0  0  0  0  0  0  0  0
    7.1281    5.7694    1.0258 C   0  0  0  0  0  0  0  0  0  0  0  0
    8.6485    5.2001    0.8451 C   0  0  3  0  0  0  0  0  0  0  0  0
    9.6906    5.4238    1.9833 C   0  0  0  0  0  0  0  0  0  0  0  0
   11.0830    4.7378    1.8132 C   0  0  0  0  0  0  0  0  0  0  0  0
   11.9502    5.2153    0.6504 C   0  0  0  0  0  0  0  0  0  0  0  0
    8.6174    3.7632    0.4363 C   0  0  0  0  0  0  0  0  0  0  0  0
    4.6797    4.8177    1.2104 C   0  0  0  0  0  0  0  0  0  0  0  0
    3.6396    3.7426    1.4036 C   0  0  0  0  0  0  0  0  0  0  0  0
    1.2511    2.2217    1.1564 H   0  0  0  0  0  0  0  0  0  0  0  0
    2.4812    1.0035    1.6049 H   0  0  0  0  0  0  0  0  0  0  0  0
    1.9133    1.1413   -0.0528 H   0  0  0  0  0  0  0  0  0  0  0  0
    4.1297    3.3404   -1.2695 H   0  0  0  0  0  0  0  0  0  0  0  0
    4.8123    0.4973   -0.3429 H   0  0  0  0  0  0  0  0  0  0  0  0
    5.8732    3.1141    0.1668 H   0  0  0  0  0  0  0  0  0  0  0  0
    9.0631    0.9351   -0.1014 H   0  0  0  0  0  0  0  0  0  0  0  0
    6.9874   -0.4131    1.4147 H   0  0  0  0  0  0  0  0  0  0  0  0
    8.7379   -0.3308    1.6788 H   0  0  0  0  0  0  0  0  0  0  0  0
    9.1070   -1.6767   -0.3900 H   0  0  0  0  0  0  0  0  0  0  0  0
    7.3749   -1.6840   -0.7142 H   0  0  0  0  0  0  0  0  0  0  0  0
    6.9467   -2.8251    1.4604 H   0  0  0  0  0  0  0  0  0  0  0  0
    8.6767   -2.8066    1.8189 H   0  0  0  0  0  0  0  0  0  0  0  0
    9.1103   -4.1052   -0.2853 H   0  0  0  0  0  0  0  0  0  0  0  0
    7.3750   -4.1347   -0.6134 H   0  0  0  0  0  0  0  0  0  0  0  0
    6.9819   -5.3395    1.5440 H   0  0  0  0  0  0  0  0  0  0  0  0
    8.7169   -5.3008    1.8848 H   0  0  0  0  0  0  0  0  0  0  0  0
    7.4990   -6.5265   -0.4944 H   0  0  0  0  0  0  0  0  0  0  0  0
    7.9542   -7.3493    0.8387 H   0  0  0  0  0  0  0  0  0  0  0  0
    7.8270    2.5373    3.3102 H   0  0  0  0  0  0  0  0  0  0  0  0
    6.1180    4.2349    3.7145 H   0  0  0  0  0  0  0  0  0  0  0  0
    7.1844    6.7422    1.5266 H   0  0  0  0  0  0  0  0  0  0  0  0
    6.7978    5.9711   -0.0067 H   0  0  0  0  0  0  0  0  0  0  0  0
    9.0551    5.7411   -0.0174 H   0  0  0  0  0  0  0  0  0  0  0  0
    9.2863    5.0683    2.9373 H   0  0  0  0  0  0  0  0  0  0  0  0
    9.8554    6.5009    2.1027 H   0  0  0  0  0  0  0  0  0  0  0  0
   10.9726    3.6493    1.7357 H   0  0  0  0  0  0  0  0  0  0  0  0
   11.6595    4.9058    2.7321 H   0  0  0  0  0  0  0  0  0  0  0  0
   11.4605    5.0579   -0.3153 H   0  0  0  0  0  0  0  0  0  0  0  0
   12.8942    4.6568    0.6428 H   0  0  0  0  0  0  0  0  0  0  0  0
   12.1934    6.2786    0.7519 H   0  0  0  0  0  0  0  0  0  0  0  0
    8.9058    3.5467   -0.5946 H   0  0  0  0  0  0  0  0  0  0  0  0
    4.3228    5.5956    0.5346 H   0  0  0  0  0  0  0  0  0  0  0  0
    3.0841    3.8354    2.3361 H   0  0  0  0  0  0  0  0  0  0  0  0
  1  2  1  0  0  0  0
  1 26  1  0  0  0  0
  1 27  1  0  0  0  0
  1 28  1  0  0  0  0
  2  3  1  0  0  0  0
  2 25  2  3  0  0  0
  3  4  2  3  0  0  0
  3 29  1  0  0  0  0
  4  5  1  0  0  0  0
  4 30  1  0  0  0  0
  5  6  2  3  0  0  0
  5 31  1  0  0  0  0
  6  7  1  0  0  0  0
  6 14  1  0  0  0  0
  7  8  1  0  0  0  0
  7 32  1  0  0  0  0
  8  9  1  0  0  0  0
  8 33  1  0  0  0  0
  8 34  1  0  0  0  0
  9 10  1  0  0  0  0
  9 35  1  0  0  0  0
  9 36  1  0  0  0  0
 10 11  1  0  0  0  0
 10 37  1  0  0  0  0
 10 38  1  0  0  0  0
 11 12  1  0  0  0  0
 11 39  1  0  0  0  0
 11 40  1  0  0  0  0
 12 13  1  0  0  0  0
 12 41  1  0  0  0  0
 12 42  1  0  0  0  0
 13 43  1  0  0  0  0
 13 44  1  0  0  0  0
 14 15  1  0  0  0  0
 14 23  2  0  0  0  0
 15 16  2  0  0  0  0
 15 45  1  0  0  0  0
 16 17  1  0  0  0  0
 16 46  1  0  0  0  0
 17 18  1  0  0  0  0
 17 24  2  3  0  0  0
 18 19  1  0  0  0  0
 18 47  1  0  0  0  0
 18 48  1  0  0  0  0
 19 20  1  0  0  0  0
 19 23  1  0  0  0  0
 19 49  1  0  0  0  0
 20 21  1  0  0  0  0
 20 50  1  0  0  0  0
 20 51  1  0  0  0  0
 21 22  1  0  0  0  0
 21 52  1  0  0  0  0
 21 53  1  0  0  0  0
 22 54  1  0  0  0  0
 22 55  1  0  0  0  0
 22 56  1  0  0  0  0
 23 57  1  0  0  0  0
 24 25  1  0  0  0  0
 24 58  1  0  0  0  0
 25 59  1  0  0  0  0
M  END
$$$$
