
 OpenBabel04232216433D

 27 27  0  0  0  0  0  0  0  0999 V2000
    4.7487   -0.3428    2.1333 C   0  0  0  0  0  0  0  0  0  0  0  0
    4.1887   -0.3943    0.7017 C   0  0  0  0  0  0  0  0  0  0  0  0
    3.8765   -1.5721    0.1091 C   0  0  0  0  0  0  0  0  0  0  0  0
    5.0972   -2.2810   -0.2825 C   0  0  0  0  0  0  0  0  0  0  0  0
    5.6773   -3.1887    0.5285 C   0  0  0  0  0  0  0  0  0  0  0  0
    7.1057   -3.3913    0.4287 C   0  0  0  0  0  0  0  0  0  0  0  0
    7.8506   -4.1665    1.2333 C   0  0  0  0  0  0  0  0  0  0  0  0
    9.2988   -3.9088    1.3246 C   0  0  0  0  0  0  0  0  0  0  0  0
    9.7675   -3.6112    2.5622 C   0  0  0  0  0  0  0  0  0  0  0  0
    9.6067   -2.1576    2.8614 C   0  0  0  0  0  0  0  0  0  0  0  0
    8.3646   -1.7624    3.2085 C   0  0  0  0  0  0  0  0  0  0  0  0
    7.5950   -0.7908    2.3976 C   0  0  0  0  0  0  0  0  0  0  0  0
    6.2577   -0.6095    2.3040 C   0  0  0  0  0  0  0  0  0  0  0  0
    4.4968    0.6474    2.5301 H   0  0  0  0  0  0  0  0  0  0  0  0
    4.1700   -1.0628    2.7245 H   0  0  0  0  0  0  0  0  0  0  0  0
    4.4182    0.4506    0.0502 H   0  0  0  0  0  0  0  0  0  0  0  0
    3.2791   -2.2734    0.6978 H   0  0  0  0  0  0  0  0  0  0  0  0
    5.6666   -1.8191   -1.0864 H   0  0  0  0  0  0  0  0  0  0  0  0
    5.1687   -3.5537    1.4212 H   0  0  0  0  0  0  0  0  0  0  0  0
    7.6093   -2.6601   -0.2063 H   0  0  0  0  0  0  0  0  0  0  0  0
    7.3904   -4.7680    2.0131 H   0  0  0  0  0  0  0  0  0  0  0  0
    9.6252   -3.2444    0.5134 H   0  0  0  0  0  0  0  0  0  0  0  0
    9.4803   -4.2620    3.3890 H   0  0  0  0  0  0  0  0  0  0  0  0
   10.2853   -1.5623    2.2376 H   0  0  0  0  0  0  0  0  0  0  0  0
    7.7735   -2.4234    3.8397 H   0  0  0  0  0  0  0  0  0  0  0  0
    8.2429   -0.2876    1.6753 H   0  0  0  0  0  0  0  0  0  0  0  0
    6.3897    0.1879    1.5389 H   0  0  0  0  0  0  0  0  0  0  0  0
  1  2  1  0  0  0  0
  1 13  1  0  0  0  0
  1 14  1  0  0  0  0
  1 15  1  0  0  0  0
  2  3  2  3  0  0  0
  2 16  1  0  0  0  0
  3  4  1  0  0  0  0
  3 17  1  0  0  0  0
  4  5  2  3  0  0  0
  4 18  1  0  0  0  0
  5  6  1  0  0  0  0
  5 19  1  0  0  0  0
  6  7  2  3  0  0  0
  6 20  1  0  0  0  0
  7  8  1  0  0  0  0
  7 21  1  0  0  0  0
  8  9  2  3  0  0  0
  8 22  1  0  0  0  0
  9 10  1  0  0  0  0
  9 23  1  0  0  0  0
 10 11  2  3  0  0  0
 10 24  1  0  0  0  0
 11 12  1  0  0  0  0
 11 25  1  0  0  0  0
 12 13  2  3  0  0  0
 12 26  1  0  0  0  0
 13 27  1  0  0  0  0
M  END
$$$$
