
 OpenBabel04232216563D

232232  0  0  0  0  0  0  0  0999 V2000
   -0.2585    0.6094    2.5734 C   0  0  0  0  0  0  0  0  0  0  0  0
   -0.3604    0.2992    1.1730 N   0  0  0  0  0  0  0  0  0  0  0  0
   -0.7356   -0.9509    0.7392 C   0  0  0  0  0  0  0  0  0  0  0  0
   -0.7006   -0.9742   -0.6387 C   0  0  0  0  0  0  0  0  0  0  0  0
   -0.2998    0.3105   -1.0489 C   0  0  0  0  0  0  0  0  0  0  0  0
   -0.0999    1.0981    0.0721 C   0  0  0  0  0  0  0  0  0  0  0  0
    0.2889    2.5389    0.0823 C   0  0  0  0  0  0  0  0  0  0  0  0
    1.8001    2.7386    0.1003 C   0  0  0  0  0  0  0  0  0  0  0  0
    2.2276    4.2004    0.0886 C   0  0  0  0  0  0  0  0  0  0  0  0
    3.7532    4.2461    0.1247 C   0  0  0  0  0  0  0  0  0  0  0  0
    4.2100    5.6883    0.1163 C   0  0  0  0  0  0  0  0  0  0  0  0
    5.7232    5.7560    0.1525 C   0  0  0  0  0  0  0  0  0  0  0  0
    6.1599    7.2076    0.1455 C   0  0  0  0  0  0  0  0  0  0  0  0
    7.6726    7.2893    0.1815 C   0  0  0  0  0  0  0  0  0  0  0  0
    8.1081    8.7416    0.1744 C   0  0  0  0  0  0  0  0  0  0  0  0
    9.6217    8.8237    0.2104 C   0  0  0  0  0  0  0  0  0  0  0  0
   10.0581   10.2760    0.2035 C   0  0  0  0  0  0  0  0  0  0  0  0
   11.5719   10.3581    0.2395 C   0  0  0  0  0  0  0  0  0  0  0  0
   12.0085   11.8104    0.2345 C   0  0  0  0  0  0  0  0  0  0  0  0
   13.5223   11.8927    0.2705 C   0  0  0  0  0  0  0  0  0  0  0  0
   13.9591   13.3450    0.2655 C   0  0  0  0  0  0  0  0  0  0  0  0
   15.4730   13.4273    0.3015 C   0  0  0  0  0  0  0  0  0  0  0  0
   15.9095   14.8797    0.2966 C   0  0  0  0  0  0  0  0  0  0  0  0
   17.4233   14.9619    0.3326 C   0  0  0  0  0  0  0  0  0  0  0  0
   17.8602   16.4143    0.3276 C   0  0  0  0  0  0  0  0  0  0  0  0
   19.3742   16.4967    0.3636 C   0  0  0  0  0  0  0  0  0  0  0  0
   19.8109   17.9490    0.3586 C   0  0  0  0  0  0  0  0  0  0  0  0
   21.3247   18.0313    0.3946 C   0  0  0  0  0  0  0  0  0  0  0  0
   21.7613   19.4837    0.3917 C   0  0  0  0  0  0  0  0  0  0  0  0
   23.2752   19.5660    0.4277 C   0  0  0  0  0  0  0  0  0  0  0  0
   23.7118   21.0184    0.4268 C   0  0  0  0  0  0  0  0  0  0  0  0
   25.2257   21.1007    0.4628 C   0  0  0  0  0  0  0  0  0  0  0  0
   25.6623   22.5531    0.4639 C   0  0  0  0  0  0  0  0  0  0  0  0
   27.1762   22.6354    0.4999 C   0  0  0  0  0  0  0  0  0  0  0  0
   27.6127   24.0878    0.5029 C   0  0  0  0  0  0  0  0  0  0  0  0
   29.1266   24.1702    0.5369 C   0  0  0  0  0  0  0  0  0  0  0  0
   29.5632   25.6226    0.5380 C   0  0  0  0  0  0  0  0  0  0  0  0
   31.0771   25.7049    0.5720 C   0  0  0  0  0  0  0  0  0  0  0  0
   31.5137   27.1573    0.5731 C   0  0  0  0  0  0  0  0  0  0  0  0
   33.0276   27.2396    0.6071 C   0  0  0  0  0  0  0  0  0  0  0  0
   33.4642   28.6920    0.6081 C   0  0  0  0  0  0  0  0  0  0  0  0
   34.9781   28.7743    0.6421 C   0  0  0  0  0  0  0  0  0  0  0  0
   35.4147   30.2267    0.6432 C   0  0  0  0  0  0  0  0  0  0  0  0
   36.9286   30.3091    0.6792 C   0  0  0  0  0  0  0  0  0  0  0  0
   37.3651   31.7615    0.6823 C   0  0  0  0  0  0  0  0  0  0  0  0
   38.8790   31.8438    0.7163 C   0  0  0  0  0  0  0  0  0  0  0  0
   39.3155   33.2962    0.7214 C   0  0  0  0  0  0  0  0  0  0  0  0
   40.8295   33.3786    0.7534 C   0  0  0  0  0  0  0  0  0  0  0  0
   41.2659   34.8310    0.7585 C   0  0  0  0  0  0  0  0  0  0  0  0
   42.7799   34.9133    0.7904 C   0  0  0  0  0  0  0  0  0  0  0  0
   43.2164   36.3657    0.7956 C   0  0  0  0  0  0  0  0  0  0  0  0
   44.7304   36.4480    0.8255 C   0  0  0  0  0  0  0  0  0  0  0  0
   45.1669   37.9004    0.8306 C   0  0  0  0  0  0  0  0  0  0  0  0
   46.6810   37.9828    0.8586 C   0  0  0  0  0  0  0  0  0  0  0  0
   47.1174   39.4352    0.8637 C   0  0  0  0  0  0  0  0  0  0  0  0
   48.6315   39.5175    0.8896 C   0  0  0  0  0  0  0  0  0  0  0  0
   49.0680   40.9699    0.8947 C   0  0  0  0  0  0  0  0  0  0  0  0
   50.5821   41.0522    0.9186 C   0  0  0  0  0  0  0  0  0  0  0  0
   51.0185   42.5046    0.9258 C   0  0  0  0  0  0  0  0  0  0  0  0
   52.5327   42.5869    0.9476 C   0  0  0  0  0  0  0  0  0  0  0  0
   52.9692   44.0394    0.9528 C   0  0  0  0  0  0  0  0  0  0  0  0
   54.4835   44.1217    0.9726 C   0  0  0  0  0  0  0  0  0  0  0  0
   54.9199   45.5741    0.9798 C   0  0  0  0  0  0  0  0  0  0  0  0
   56.4340   45.6566    1.0016 C   0  0  0  0  0  0  0  0  0  0  0  0
   56.8703   47.1088    1.0108 C   0  0  0  0  0  0  0  0  0  0  0  0
   58.3849   47.1912    1.0307 C   0  0  0  0  0  0  0  0  0  0  0  0
   58.8212   48.6436    1.0399 C   0  0  0  0  0  0  0  0  0  0  0  0
   60.3353   48.7260    1.0617 C   0  0  0  0  0  0  0  0  0  0  0  0
   60.7717   50.1785    1.0729 C   0  0  0  0  0  0  0  0  0  0  0  0
   62.2860   50.2607    1.0928 C   0  0  0  0  0  0  0  0  0  0  0  0
   62.7224   51.7133    1.1020 C   0  0  0  0  0  0  0  0  0  0  0  0
   64.2368   51.7957    1.1238 C   0  0  0  0  0  0  0  0  0  0  0  0
   64.6738   53.2485    1.1330 C   0  0  0  0  0  0  0  0  0  0  0  0
   66.1887   53.3313    1.1529 C   0  0  0  0  0  0  0  0  0  0  0  0
   66.6279   54.7845    1.1600 C   0  0  0  0  0  0  0  0  0  0  0  0
   68.1440   54.8685    1.1799 C   0  0  0  0  0  0  0  0  0  0  0  0
   68.5867   56.3228    1.1872 C   0  0  0  0  0  0  0  0  0  0  0  0
   70.1046   56.4163    1.2091 C   0  0  0  0  0  0  0  0  0  0  0  0
   70.5428   57.8688    1.2163 C   0  0  0  0  0  0  0  0  0  0  0  0
   -0.5629   -0.2551    3.1771 H   0  0  0  0  0  0  0  0  0  0  0  0
   -0.9159    1.4475    2.8233 H   0  0  0  0  0  0  0  0  0  0  0  0
    0.7917    0.8375    2.8144 H   0  0  0  0  0  0  0  0  0  0  0  0
   -0.9950   -1.7299    1.4382 H   0  0  0  0  0  0  0  0  0  0  0  0
   -0.9279   -1.8281   -1.2747 H   0  0  0  0  0  0  0  0  0  0  0  0
   -0.1814    0.6421   -2.0750 H   0  0  0  0  0  0  0  0  0  0  0  0
   -0.1491    3.0616    0.9409 H   0  0  0  0  0  0  0  0  0  0  0  0
   -0.1092    3.0370   -0.8168 H   0  0  0  0  0  0  0  0  0  0  0  0
    2.2543    2.2607   -0.7772 H   0  0  0  0  0  0  0  0  0  0  0  0
    2.2170    2.2820    1.0051 H   0  0  0  0  0  0  0  0  0  0  0  0
    1.8160    4.7249    0.9578 H   0  0  0  0  0  0  0  0  0  0  0  0
    1.8595    4.7009   -0.8149 H   0  0  0  0  0  0  0  0  0  0  0  0
    4.1706    3.7149   -0.7391 H   0  0  0  0  0  0  0  0  0  0  0  0
    4.1274    3.7385    1.0217 H   0  0  0  0  0  0  0  0  0  0  0  0
    3.7904    6.2120    0.9832 H   0  0  0  0  0  0  0  0  0  0  0  0
    3.8338    6.1882   -0.7839 H   0  0  0  0  0  0  0  0  0  0  0  0
    6.1446    5.2322   -0.7144 H   0  0  0  0  0  0  0  0  0  0  0  0
    6.1014    5.2538    1.0514 H   0  0  0  0  0  0  0  0  0  0  0  0
    5.7354    7.7296    1.0121 H   0  0  0  0  0  0  0  0  0  0  0  0
    5.7785    7.7081   -0.7533 H   0  0  0  0  0  0  0  0  0  0  0  0
    8.0957    6.7669   -0.6854 H   0  0  0  0  0  0  0  0  0  0  0  0
    8.0525    6.7884    1.0804 H   0  0  0  0  0  0  0  0  0  0  0  0
    7.6840    9.2635    1.0412 H   0  0  0  0  0  0  0  0  0  0  0  0
    7.7271    9.2420   -0.7244 H   0  0  0  0  0  0  0  0  0  0  0  0
   10.0452    8.3015   -0.6563 H   0  0  0  0  0  0  0  0  0  0  0  0
   10.0020    8.3229    1.1093 H   0  0  0  0  0  0  0  0  0  0  0  0
    9.6343   10.7980    1.0702 H   0  0  0  0  0  0  0  0  0  0  0  0
    9.6775   10.7766   -0.6954 H   0  0  0  0  0  0  0  0  0  0  0  0
   11.9955    9.8371   -0.6280 H   0  0  0  0  0  0  0  0  0  0  0  0
   11.9525    9.8561    1.1376 H   0  0  0  0  0  0  0  0  0  0  0  0
   11.5848   12.3313    1.1020 H   0  0  0  0  0  0  0  0  0  0  0  0
   11.6278   12.3123   -0.6636 H   0  0  0  0  0  0  0  0  0  0  0  0
   13.9460   11.3716   -0.5970 H   0  0  0  0  0  0  0  0  0  0  0  0
   13.9029   11.3906    1.1686 H   0  0  0  0  0  0  0  0  0  0  0  0
   13.5354   13.8659    1.1331 H   0  0  0  0  0  0  0  0  0  0  0  0
   13.5784   13.8469   -0.6326 H   0  0  0  0  0  0  0  0  0  0  0  0
   15.8967   12.9064   -0.5660 H   0  0  0  0  0  0  0  0  0  0  0  0
   15.8536   12.9254    1.1997 H   0  0  0  0  0  0  0  0  0  0  0  0
   15.4861   15.4006    1.1641 H   0  0  0  0  0  0  0  0  0  0  0  0
   15.5291   15.3816   -0.6015 H   0  0  0  0  0  0  0  0  0  0  0  0
   17.8472   14.4412   -0.5349 H   0  0  0  0  0  0  0  0  0  0  0  0
   17.8042   14.4602    1.2306 H   0  0  0  0  0  0  0  0  0  0  0  0
   17.4367   16.9352    1.1950 H   0  0  0  0  0  0  0  0  0  0  0  0
   17.4797   16.9162   -0.5704 H   0  0  0  0  0  0  0  0  0  0  0  0
   19.7977   15.9758   -0.5038 H   0  0  0  0  0  0  0  0  0  0  0  0
   19.7547   15.9948    1.2616 H   0  0  0  0  0  0  0  0  0  0  0  0
   19.3872   18.4697    1.2261 H   0  0  0  0  0  0  0  0  0  0  0  0
   19.4303   18.4508   -0.5393 H   0  0  0  0  0  0  0  0  0  0  0  0
   21.7482   17.5117   -0.4735 H   0  0  0  0  0  0  0  0  0  0  0  0
   21.7053   17.5282    1.2919 H   0  0  0  0  0  0  0  0  0  0  0  0
   21.3378   20.0032    1.2599 H   0  0  0  0  0  0  0  0  0  0  0  0
   21.3807   19.9868   -0.5055 H   0  0  0  0  0  0  0  0  0  0  0  0
   23.6987   19.0477   -0.4412 H   0  0  0  0  0  0  0  0  0  0  0  0
   23.6560   19.0617    1.3242 H   0  0  0  0  0  0  0  0  0  0  0  0
   23.2884   21.5367    1.2957 H   0  0  0  0  0  0  0  0  0  0  0  0
   23.3311   21.5227   -0.4697 H   0  0  0  0  0  0  0  0  0  0  0  0
   25.6491   20.5836   -0.4069 H   0  0  0  0  0  0  0  0  0  0  0  0
   25.6065   20.5951    1.3585 H   0  0  0  0  0  0  0  0  0  0  0  0
   25.2389   23.0702    1.3336 H   0  0  0  0  0  0  0  0  0  0  0  0
   25.2815   23.0587   -0.4319 H   0  0  0  0  0  0  0  0  0  0  0  0
   27.5995   22.1196   -0.3706 H   0  0  0  0  0  0  0  0  0  0  0  0
   27.5571   22.1286    1.3949 H   0  0  0  0  0  0  0  0  0  0  0  0
   27.1905   24.6033    1.3742 H   0  0  0  0  0  0  0  0  0  0  0  0
   27.2306   24.5950   -0.3914 H   0  0  0  0  0  0  0  0  0  0  0  0
   29.5489   23.6535   -0.3336 H   0  0  0  0  0  0  0  0  0  0  0  0
   29.5086   23.6642    1.4320 H   0  0  0  0  0  0  0  0  0  0  0  0
   29.1410   26.1393    1.4085 H   0  0  0  0  0  0  0  0  0  0  0  0
   29.1812   26.1285   -0.3570 H   0  0  0  0  0  0  0  0  0  0  0  0
   31.4994   25.1882   -0.2985 H   0  0  0  0  0  0  0  0  0  0  0  0
   31.4592   25.1989    1.4670 H   0  0  0  0  0  0  0  0  0  0  0  0
   31.0915   27.6740    1.4436 H   0  0  0  0  0  0  0  0  0  0  0  0
   31.1317   27.6632   -0.3220 H   0  0  0  0  0  0  0  0  0  0  0  0
   33.4499   26.7229   -0.2634 H   0  0  0  0  0  0  0  0  0  0  0  0
   33.4097   26.7337    1.5021 H   0  0  0  0  0  0  0  0  0  0  0  0
   33.0420   29.2087    1.4786 H   0  0  0  0  0  0  0  0  0  0  0  0
   33.0822   29.1980   -0.2869 H   0  0  0  0  0  0  0  0  0  0  0  0
   35.4004   28.2576   -0.2284 H   0  0  0  0  0  0  0  0  0  0  0  0
   35.3601   28.2684    1.5372 H   0  0  0  0  0  0  0  0  0  0  0  0
   34.9913   30.7438    1.5129 H   0  0  0  0  0  0  0  0  0  0  0  0
   35.0339   30.7323   -0.2525 H   0  0  0  0  0  0  0  0  0  0  0  0
   37.3519   29.7932   -0.1913 H   0  0  0  0  0  0  0  0  0  0  0  0
   37.3095   29.8023    1.5742 H   0  0  0  0  0  0  0  0  0  0  0  0
   36.9429   32.2769    1.5535 H   0  0  0  0  0  0  0  0  0  0  0  0
   36.9830   32.2687   -0.2120 H   0  0  0  0  0  0  0  0  0  0  0  0
   39.3011   31.3296   -0.1557 H   0  0  0  0  0  0  0  0  0  0  0  0
   39.2613   31.3354    1.6098 H   0  0  0  0  0  0  0  0  0  0  0  0
   38.8945   33.8101    1.5942 H   0  0  0  0  0  0  0  0  0  0  0  0
   38.9321   33.8050   -0.1714 H   0  0  0  0  0  0  0  0  0  0  0  0
   41.2504   32.8647   -0.1194 H   0  0  0  0  0  0  0  0  0  0  0  0
   41.2129   32.8697    1.6462 H   0  0  0  0  0  0  0  0  0  0  0  0
   40.8450   35.3448    1.6313 H   0  0  0  0  0  0  0  0  0  0  0  0
   40.8825   35.3398   -0.1343 H   0  0  0  0  0  0  0  0  0  0  0  0
   43.2009   34.3994   -0.0823 H   0  0  0  0  0  0  0  0  0  0  0  0
   43.1634   34.4045    1.6833 H   0  0  0  0  0  0  0  0  0  0  0  0
   42.7966   36.8792    1.6691 H   0  0  0  0  0  0  0  0  0  0  0  0
   42.8318   36.8749   -0.0965 H   0  0  0  0  0  0  0  0  0  0  0  0
   45.1502   35.9345   -0.0481 H   0  0  0  0  0  0  0  0  0  0  0  0
   45.1151   35.9389    1.7176 H   0  0  0  0  0  0  0  0  0  0  0  0
   44.7483   38.4136    1.7050 H   0  0  0  0  0  0  0  0  0  0  0  0
   44.7811   38.4100   -0.0607 H   0  0  0  0  0  0  0  0  0  0  0  0
   47.0995   37.4696   -0.0158 H   0  0  0  0  0  0  0  0  0  0  0  0
   47.0668   37.4732    1.7499 H   0  0  0  0  0  0  0  0  0  0  0  0
   46.7000   39.9480    1.7388 H   0  0  0  0  0  0  0  0  0  0  0  0
   46.7304   39.9451   -0.0270 H   0  0  0  0  0  0  0  0  0  0  0  0
   49.0489   39.0047    0.0145 H   0  0  0  0  0  0  0  0  0  0  0  0
   49.0186   39.0076    1.7802 H   0  0  0  0  0  0  0  0  0  0  0  0
   48.6517   41.4823    1.7706 H   0  0  0  0  0  0  0  0  0  0  0  0
   48.6798   41.4802    0.0048 H   0  0  0  0  0  0  0  0  0  0  0  0
   50.9982   40.5410    0.0420 H   0  0  0  0  0  0  0  0  0  0  0  0
   50.9705   40.5407    1.8078 H   0  0  0  0  0  0  0  0  0  0  0  0
   50.6036   43.0155    1.8032 H   0  0  0  0  0  0  0  0  0  0  0  0
   50.6290   43.0165    0.0373 H   0  0  0  0  0  0  0  0  0  0  0  0
   52.9478   42.0749    0.0710 H   0  0  0  0  0  0  0  0  0  0  0  0
   52.9222   42.0763    1.8368 H   0  0  0  0  0  0  0  0  0  0  0  0
   52.5553   44.5510    1.8302 H   0  0  0  0  0  0  0  0  0  0  0  0
   52.5786   44.5504    0.0643 H   0  0  0  0  0  0  0  0  0  0  0  0
   54.8972   43.6112    0.0945 H   0  0  0  0  0  0  0  0  0  0  0  0
   54.8741   43.6094    1.8603 H   0  0  0  0  0  0  0  0  0  0  0  0
   54.5049   46.0849    1.8572 H   0  0  0  0  0  0  0  0  0  0  0  0
   54.5303   46.0860    0.0914 H   0  0  0  0  0  0  0  0  0  0  0  0
   56.8489   45.1468    0.1234 H   0  0  0  0  0  0  0  0  0  0  0  0
   56.8237   45.1434    1.8893 H   0  0  0  0  0  0  0  0  0  0  0  0
   56.4568   47.6182    1.8898 H   0  0  0  0  0  0  0  0  0  0  0  0
   56.4798   47.6225    0.1238 H   0  0  0  0  0  0  0  0  0  0  0  0
   58.7988   46.6820    0.1516 H   0  0  0  0  0  0  0  0  0  0  0  0
   58.7757   46.6777    1.9177 H   0  0  0  0  0  0  0  0  0  0  0  0
   58.4061   49.1534    1.9182 H   0  0  0  0  0  0  0  0  0  0  0  0
   58.4314   49.1570    0.1521 H   0  0  0  0  0  0  0  0  0  0  0  0
   60.7501   48.2175    0.1827 H   0  0  0  0  0  0  0  0  0  0  0  0
   60.7250   48.2116    1.9487 H   0  0  0  0  0  0  0  0  0  0  0  0
   60.3579   50.6865    1.9526 H   0  0  0  0  0  0  0  0  0  0  0  0
   60.3807   50.6933    0.1867 H   0  0  0  0  0  0  0  0  0  0  0  0
   62.6999   49.7514    0.2137 H   0  0  0  0  0  0  0  0  0  0  0  0
   62.6769   49.7470    1.9798 H   0  0  0  0  0  0  0  0  0  0  0  0
   62.3073   52.2228    1.9802 H   0  0  0  0  0  0  0  0  0  0  0  0
   62.3325   52.2263    0.2142 H   0  0  0  0  0  0  0  0  0  0  0  0
   64.6515   51.2858    0.2455 H   0  0  0  0  0  0  0  0  0  0  0  0
   64.6263   51.2823    2.0116 H   0  0  0  0  0  0  0  0  0  0  0  0
   64.2595   53.7574    2.0120 H   0  0  0  0  0  0  0  0  0  0  0  0
   64.2825   53.7616    0.2459 H   0  0  0  0  0  0  0  0  0  0  0  0
   66.6018   52.8202    0.2746 H   0  0  0  0  0  0  0  0  0  0  0  0
   66.5787   52.8183    2.0406 H   0  0  0  0  0  0  0  0  0  0  0  0
   66.2124   55.2942    2.0382 H   0  0  0  0  0  0  0  0  0  0  0  0
   66.2355   55.2960    0.2724 H   0  0  0  0  0  0  0  0  0  0  0  0
   68.5559   54.3566    0.3016 H   0  0  0  0  0  0  0  0  0  0  0  0
   68.5328   54.3548    2.0677 H   0  0  0  0  0  0  0  0  0  0  0  0
   68.1671   56.8314    2.0641 H   0  0  0  0  0  0  0  0  0  0  0  0
   68.1925   56.8324    0.2991 H   0  0  0  0  0  0  0  0  0  0  0  0
   70.5230   55.9094    0.3317 H   0  0  0  0  0  0  0  0  0  0  0  0
   70.4976   55.9084    2.0976 H   0  0  0  0  0  0  0  0  0  0  0  0
   70.1770   58.3858    0.3241 H   0  0  0  0  0  0  0  0  0  0  0  0
   71.6333   57.9343    1.2320 H   0  0  0  0  0  0  0  0  0  0  0  0
   70.1515   58.3848    2.0981 H   0  0  0  0  0  0  0  0  0  0  0  0
  1  2  1  0  0  0  0
  1 80  1  0  0  0  0
  1 81  1  0  0  0  0
  1 82  1  0  0  0  0
  2  3  1  0  0  0  0
  2  6  1  0  0  0  0
  3  4  2  0  0  0  0
  3 83  1  0  0  0  0
  4  5  1  0  0  0  0
  4 84  1  0  0  0  0
  5  6  2  0  0  0  0
  5 85  1  0  0  0  0
  6  7  1  0  0  0  0
  7  8  1  0  0  0  0
  7 86  1  0  0  0  0
  7 87  1  0  0  0  0
  8  9  1  0  0  0  0
  8 88  1  0  0  0  0
  8 89  1  0  0  0  0
  9 10  1  0  0  0  0
  9 90  1  0  0  0  0
  9 91  1  0  0  0  0
 10 11  1  0  0  0  0
 10 92  1  0  0  0  0
 10 93  1  0  0  0  0
 11 12  1  0  0  0  0
 11 94  1  0  0  0  0
 11 95  1  0  0  0  0
 12 13  1  0  0  0  0
 12 96  1  0  0  0  0
 12 97  1  0  0  0  0
 13 14  1  0  0  0  0
 13 98  1  0  0  0  0
 13 99  1  0  0  0  0
 14 15  1  0  0  0  0
 14100  1  0  0  0  0
 14101  1  0  0  0  0
 15 16  1  0  0  0  0
 15102  1  0  0  0  0
 15103  1  0  0  0  0
 16 17  1  0  0  0  0
 16104  1  0  0  0  0
 16105  1  0  0  0  0
 17 18  1  0  0  0  0
 17106  1  0  0  0  0
 17107  1  0  0  0  0
 18 19  1  0  0  0  0
 18108  1  0  0  0  0
 18109  1  0  0  0  0
 19 20  1  0  0  0  0
 19110  1  0  0  0  0
 19111  1  0  0  0  0
 20 21  1  0  0  0  0
 20112  1  0  0  0  0
 20113  1  0  0  0  0
 21 22  1  0  0  0  0
 21114  1  0  0  0  0
 21115  1  0  0  0  0
 22 23  1  0  0  0  0
 22116  1  0  0  0  0
 22117  1  0  0  0  0
 23 24  1  0  0  0  0
 23118  1  0  0  0  0
 23119  1  0  0  0  0
 24 25  1  0  0  0  0
 24120  1  0  0  0  0
 24121  1  0  0  0  0
 25 26  1  0  0  0  0
 25122  1  0  0  0  0
 25123  1  0  0  0  0
 26 27  1  0  0  0  0
 26124  1  0  0  0  0
 26125  1  0  0  0  0
 27 28  1  0  0  0  0
 27126  1  0  0  0  0
 27127  1  0  0  0  0
 28 29  1  0  0  0  0
 28128  1  0  0  0  0
 28129  1  0  0  0  0
 29 30  1  0  0  0  0
 29130  1  0  0  0  0
 29131  1  0  0  0  0
 30 31  1  0  0  0  0
 30132  1  0  0  0  0
 30133  1  0  0  0  0
 31 32  1  0  0  0  0
 31134  1  0  0  0  0
 31135  1  0  0  0  0
 32 33  1  0  0  0  0
 32136  1  0  0  0  0
 32137  1  0  0  0  0
 33 34  1  0  0  0  0
 33138  1  0  0  0  0
 33139  1  0  0  0  0
 34 35  1  0  0  0  0
 34140  1  0  0  0  0
 34141  1  0  0  0  0
 35 36  1  0  0  0  0
 35142  1  0  0  0  0
 35143  1  0  0  0  0
 36 37  1  0  0  0  0
 36144  1  0  0  0  0
 36145  1  0  0  0  0
 37 38  1  0  0  0  0
 37146  1  0  0  0  0
 37147  1  0  0  0  0
 38 39  1  0  0  0  0
 38148  1  0  0  0  0
 38149  1  0  0  0  0
 39 40  1  0  0  0  0
 39150  1  0  0  0  0
 39151  1  0  0  0  0
 40 41  1  0  0  0  0
 40152  1  0  0  0  0
 40153  1  0  0  0  0
 41 42  1  0  0  0  0
 41154  1  0  0  0  0
 41155  1  0  0  0  0
 42 43  1  0  0  0  0
 42156  1  0  0  0  0
 42157  1  0  0  0  0
 43 44  1  0  0  0  0
 43158  1  0  0  0  0
 43159  1  0  0  0  0
 44 45  1  0  0  0  0
 44160  1  0  0  0  0
 44161  1  0  0  0  0
 45 46  1  0  0  0  0
 45162  1  0  0  0  0
 45163  1  0  0  0  0
 46 47  1  0  0  0  0
 46164  1  0  0  0  0
 46165  1  0  0  0  0
 47 48  1  0  0  0  0
 47166  1  0  0  0  0
 47167  1  0  0  0  0
 48 49  1  0  0  0  0
 48168  1  0  0  0  0
 48169  1  0  0  0  0
 49 50  1  0  0  0  0
 49170  1  0  0  0  0
 49171  1  0  0  0  0
 50 51  1  0  0  0  0
 50172  1  0  0  0  0
 50173  1  0  0  0  0
 51 52  1  0  0  0  0
 51174  1  0  0  0  0
 51175  1  0  0  0  0
 52 53  1  0  0  0  0
 52176  1  0  0  0  0
 52177  1  0  0  0  0
 53 54  1  0  0  0  0
 53178  1  0  0  0  0
 53179  1  0  0  0  0
 54 55  1  0  0  0  0
 54180  1  0  0  0  0
 54181  1  0  0  0  0
 55 56  1  0  0  0  0
 55182  1  0  0  0  0
 55183  1  0  0  0  0
 56 57  1  0  0  0  0
 56184  1  0  0  0  0
 56185  1  0  0  0  0
 57 58  1  0  0  0  0
 57186  1  0  0  0  0
 57187  1  0  0  0  0
 58 59  1  0  0  0  0
 58188  1  0  0  0  0
 58189  1  0  0  0  0
 59 60  1  0  0  0  0
 59190  1  0  0  0  0
 59191  1  0  0  0  0
 60 61  1  0  0  0  0
 60192  1  0  0  0  0
 60193  1  0  0  0  0
 61 62  1  0  0  0  0
 61194  1  0  0  0  0
 61195  1  0  0  0  0
 62 63  1  0  0  0  0
 62196  1  0  0  0  0
 62197  1  0  0  0  0
 63 64  1  0  0  0  0
 63198  1  0  0  0  0
 63199  1  0  0  0  0
 64 65  1  0  0  0  0
 64200  1  0  0  0  0
 64201  1  0  0  0  0
 65 66  1  0  0  0  0
 65202  1  0  0  0  0
 65203  1  0  0  0  0
 66 67  1  0  0  0  0
 66204  1  0  0  0  0
 66205  1  0  0  0  0
 67 68  1  0  0  0  0
 67206  1  0  0  0  0
 67207  1  0  0  0  0
 68 69  1  0  0  0  0
 68208  1  0  0  0  0
 68209  1  0  0  0  0
 69 70  1  0  0  0  0
 69210  1  0  0  0  0
 69211  1  0  0  0  0
 70 71  1  0  0  0  0
 70212  1  0  0  0  0
 70213  1  0  0  0  0
 71 72  1  0  0  0  0
 71214  1  0  0  0  0
 71215  1  0  0  0  0
 72 73  1  0  0  0  0
 72216  1  0  0  0  0
 72217  1  0  0  0  0
 73 74  1  0  0  0  0
 73218  1  0  0  0  0
 73219  1  0  0  0  0
 74 75  1  0  0  0  0
 74220  1  0  0  0  0
 74221  1  0  0  0  0
 75 76  1  0  0  0  0
 75222  1  0  0  0  0
 75223  1  0  0  0  0
 76 77  1  0  0  0  0
 76224  1  0  0  0  0
 76225  1  0  0  0  0
 77 78  1  0  0  0  0
 77226  1  0  0  0  0
 77227  1  0  0  0  0
 78 79  1  0  0  0  0
 78228  1  0  0  0  0
 78229  1  0  0  0  0
 79230  1  0  0  0  0
 79231  1  0  0  0  0
 79232  1  0  0  0  0
M  END
$$$$
