
 OpenBabel04232216433D

237236  0  0  1  0  0  0  0  0999 V2000
    4.9819   -2.3294    1.5520 C   0  0  0  0  0  0  0  0  0  0  0  0
    4.4009   -1.1710    0.7404 C   0  0  3  0  0  0  0  0  0  0  0  0
    2.8651   -1.2510    0.6878 C   0  0  0  0  0  0  0  0  0  0  0  0
    2.3530   -2.5150    0.0537 C   0  0  0  0  0  0  0  0  0  0  0  0
    4.8175    0.0447    1.3593 O   0  0  0  0  0  0  0  0  0  0  0  0
    4.3567    1.2000    0.6573 C   0  0  0  0  0  0  0  0  0  0  0  0
    4.8463    2.4587    1.3547 C   0  0  0  0  0  0  0  0  0  0  0  0
    6.3628    2.4646    1.3458 C   0  0  0  0  0  0  0  0  0  0  0  0
    6.8788    3.7117    2.0233 C   0  0  0  0  0  0  0  0  0  0  0  0
    8.3949    3.7111    2.0126 C   0  0  0  0  0  0  0  0  0  0  0  0
    8.9076    4.9657    2.6920 C   0  0  0  0  0  0  0  0  0  0  0  0
   10.4233    4.9756    2.6837 C   0  0  0  0  0  0  0  0  0  0  0  0
   10.9311    6.2335    3.3632 C   0  0  0  0  0  0  0  0  0  0  0  0
   12.4478    6.2416    3.3561 C   0  0  0  0  0  0  0  0  0  0  0  0
   12.9587    7.4987    4.0327 C   0  0  0  0  0  0  0  0  0  0  0  0
   14.4752    7.5069    4.0260 C   0  0  0  0  0  0  0  0  0  0  0  0
   14.9854    8.7635    4.7047 C   0  0  0  0  0  0  0  0  0  0  0  0
   16.5019    8.7715    4.7001 C   0  0  0  0  0  0  0  0  0  0  0  0
   17.0120   10.0272    5.3805 C   0  0  0  0  0  0  0  0  0  0  0  0
   18.5286   10.0360    5.3742 C   0  0  0  0  0  0  0  0  0  0  0  0
   19.0386   11.2909    6.0564 C   0  0  0  0  0  0  0  0  0  0  0  0
   20.5552   11.2989    6.0519 C   0  0  0  0  0  0  0  0  0  0  0  0
   21.0653   12.5545    6.7324 C   0  0  0  0  0  0  0  0  0  0  0  0
   22.5819   12.5615    6.7295 C   0  0  0  0  0  0  0  0  0  0  0  0
   23.0920   13.8163    7.4118 C   0  0  0  0  0  0  0  0  0  0  0  0
   24.6087   13.8232    7.4089 C   0  0  0  0  0  0  0  0  0  0  0  0
   25.1185   15.0791    8.0897 C   0  0  0  0  0  0  0  0  0  0  0  0
   26.6354   15.0859    8.0864 C   0  0  0  0  0  0  0  0  0  0  0  0
   27.1451   16.3419    8.7674 C   0  0  0  0  0  0  0  0  0  0  0  0
   28.6620   16.3486    8.7641 C   0  0  0  0  0  0  0  0  0  0  0  0
   29.1718   17.6046    9.4451 C   0  0  0  0  0  0  0  0  0  0  0  0
   30.6887   17.6104    9.4435 C   0  0  0  0  0  0  0  0  0  0  0  0
   31.1985   18.8664   10.1245 C   0  0  0  0  0  0  0  0  0  0  0  0
   32.7154   18.8722   10.1230 C   0  0  0  0  0  0  0  0  0  0  0  0
   33.2251   20.1282   10.8039 C   0  0  0  0  0  0  0  0  0  0  0  0
   34.7420   20.1339   10.8024 C   0  0  0  0  0  0  0  0  0  0  0  0
   35.2518   21.3909   11.4816 C   0  0  0  0  0  0  0  0  0  0  0  0
   36.7687   21.3957   11.4818 C   0  0  0  0  0  0  0  0  0  0  0  0
   37.2784   22.6536   12.1593 C   0  0  0  0  0  0  0  0  0  0  0  0
   38.7954   22.6575   12.1613 C   0  0  0  0  0  0  0  0  0  0  0  0
   39.3051   23.9144   12.8405 C   0  0  0  0  0  0  0  0  0  0  0  0
   40.8220   23.9173   12.8443 C   0  0  0  0  0  0  0  0  0  0  0  0
   41.3318   25.1743   13.5235 C   0  0  0  0  0  0  0  0  0  0  0  0
   42.8487   25.1772   13.5273 C   0  0  0  0  0  0  0  0  0  0  0  0
   43.3584   26.4341   14.2065 C   0  0  0  0  0  0  0  0  0  0  0  0
   44.8753   26.4370   14.2102 C   0  0  0  0  0  0  0  0  0  0  0  0
   45.3851   27.6940   14.8894 C   0  0  0  0  0  0  0  0  0  0  0  0
   46.9020   27.6978   14.8915 C   0  0  0  0  0  0  0  0  0  0  0  0
   47.4117   28.9538   15.5724 C   0  0  0  0  0  0  0  0  0  0  0  0
   48.9287   28.9567   15.5762 C   0  0  0  0  0  0  0  0  0  0  0  0
   49.4384   30.2136   16.2554 C   0  0  0  0  0  0  0  0  0  0  0  0
   50.9553   30.2166   16.2592 C   0  0  0  0  0  0  0  0  0  0  0  0
   51.4650   31.4726   16.9401 C   0  0  0  0  0  0  0  0  0  0  0  0
   52.9820   31.4764   16.9422 C   0  0  0  0  0  0  0  0  0  0  0  0
   53.4917   32.7334   17.6214 C   0  0  0  0  0  0  0  0  0  0  0  0
   55.0086   32.7363   17.6252 C   0  0  0  0  0  0  0  0  0  0  0  0
   55.5185   33.9932   18.3043 C   0  0  0  0  0  0  0  0  0  0  0  0
   57.0353   33.9972   18.3066 C   0  0  0  0  0  0  0  0  0  0  0  0
   57.5456   35.2540   18.9854 C   0  0  0  0  0  0  0  0  0  0  0  0
   59.0617   35.2583   18.9880 C   0  0  0  0  0  0  0  0  0  0  0  0
   59.5730   36.5139   19.6662 C   0  0  0  0  0  0  0  0  0  0  0  0
   61.0881   36.5193   19.6693 C   0  0  0  0  0  0  0  0  0  0  0  0
   61.5983   37.7759   20.3480 C   0  0  0  0  0  0  0  0  0  0  0  0
   63.1151   37.7802   20.3506 C   0  0  0  0  0  0  0  0  0  0  0  0
   63.6264   39.0376   21.0296 C   0  0  0  0  0  0  0  0  0  0  0  0
   65.1433   39.0423   21.0325 C   0  0  0  0  0  0  0  0  0  0  0  0
   65.6535   40.2973   21.7102 C   0  0  0  0  0  0  0  0  0  0  0  0
   67.1685   40.3006   21.7150 C   0  0  0  0  0  0  0  0  0  0  0  0
   67.6781   41.5570   22.3919 C   0  0  0  0  0  0  0  0  0  0  0  0
   69.1956   41.5604   22.3982 C   0  0  0  0  0  0  0  0  0  0  0  0
   69.7048   42.8167   23.0760 C   0  0  0  0  0  0  0  0  0  0  0  0
   71.2208   42.8223   23.0818 C   0  0  0  0  0  0  0  0  0  0  0  0
   71.7327   44.0787   23.7603 C   0  0  0  0  0  0  0  0  0  0  0  0
   73.2508   44.0808   23.7662 C   0  0  0  0  0  0  0  0  0  0  0  0
   73.7650   45.3372   24.4448 C   0  0  0  0  0  0  0  0  0  0  0  0
   75.2842   45.3423   24.4525 C   0  0  0  0  0  0  0  0  0  0  0  0
   75.8002   46.5998   25.1339 C   0  0  0  0  0  0  0  0  0  0  0  0
   77.3217   46.6127   25.1481 C   0  0  0  0  0  0  0  0  0  0  0  0
   77.8343   47.8680   25.8283 C   0  0  0  0  0  0  0  0  0  0  0  0
    4.7322   -3.2969    1.1089 H   0  0  0  0  0  0  0  0  0  0  0  0
    4.6031   -2.3082    2.5798 H   0  0  0  0  0  0  0  0  0  0  0  0
    6.0731   -2.2643    1.6091 H   0  0  0  0  0  0  0  0  0  0  0  0
    4.8228   -1.2114   -0.2733 H   0  0  0  0  0  0  0  0  0  0  0  0
    2.4618   -0.4228    0.0920 H   0  0  0  0  0  0  0  0  0  0  0  0
    2.4600   -1.1097    1.6992 H   0  0  0  0  0  0  0  0  0  0  0  0
    2.7555   -2.6156   -0.9588 H   0  0  0  0  0  0  0  0  0  0  0  0
    1.2625   -2.4825   -0.0081 H   0  0  0  0  0  0  0  0  0  0  0  0
    2.6284   -3.3985    0.6342 H   0  0  0  0  0  0  0  0  0  0  0  0
    3.2633    1.2461    0.7040 H   0  0  0  0  0  0  0  0  0  0  0  0
    4.6809    1.1727   -0.3785 H   0  0  0  0  0  0  0  0  0  0  0  0
    4.4634    2.5003    2.3763 H   0  0  0  0  0  0  0  0  0  0  0  0
    4.4551    3.3343    0.8181 H   0  0  0  0  0  0  0  0  0  0  0  0
    6.7309    2.4191    0.3112 H   0  0  0  0  0  0  0  0  0  0  0  0
    6.7482    1.5757    1.8601 H   0  0  0  0  0  0  0  0  0  0  0  0
    6.5103    3.7525    3.0569 H   0  0  0  0  0  0  0  0  0  0  0  0
    6.4993    4.6019    1.5065 H   0  0  0  0  0  0  0  0  0  0  0  0
    8.7632    3.6661    0.9803 H   0  0  0  0  0  0  0  0  0  0  0  0
    8.7738    2.8221    2.5314 H   0  0  0  0  0  0  0  0  0  0  0  0
    8.5385    5.0077    3.7240 H   0  0  0  0  0  0  0  0  0  0  0  0
    8.5245    5.8540    2.1743 H   0  0  0  0  0  0  0  0  0  0  0  0
   10.7922    4.9322    1.6518 H   0  0  0  0  0  0  0  0  0  0  0  0
   10.8056    4.0888    3.2033 H   0  0  0  0  0  0  0  0  0  0  0  0
   10.5612    6.2773    4.3946 H   0  0  0  0  0  0  0  0  0  0  0  0
   10.5493    7.1203    2.8429 H   0  0  0  0  0  0  0  0  0  0  0  0
   12.8175    6.1952    2.3244 H   0  0  0  0  0  0  0  0  0  0  0  0
   12.8289    5.3547    3.8774 H   0  0  0  0  0  0  0  0  0  0  0  0
   12.5888    7.5446    5.0645 H   0  0  0  0  0  0  0  0  0  0  0  0
   12.5775    8.3853    3.5112 H   0  0  0  0  0  0  0  0  0  0  0  0
   14.8452    7.4623    2.9942 H   0  0  0  0  0  0  0  0  0  0  0  0
   14.8566    6.6195    4.5463 H   0  0  0  0  0  0  0  0  0  0  0  0
   14.6142    8.8087    5.7360 H   0  0  0  0  0  0  0  0  0  0  0  0
   14.6050    9.6508    4.1836 H   0  0  0  0  0  0  0  0  0  0  0  0
   16.8731    8.7276    3.6687 H   0  0  0  0  0  0  0  0  0  0  0  0
   16.8823    7.8834    5.2200 H   0  0  0  0  0  0  0  0  0  0  0  0
   16.6419   10.0701    6.4124 H   0  0  0  0  0  0  0  0  0  0  0  0
   16.6306   10.9152    4.8616 H   0  0  0  0  0  0  0  0  0  0  0  0
   18.8986    9.9945    4.3423 H   0  0  0  0  0  0  0  0  0  0  0  0
   18.9100    9.1473    5.8920 H   0  0  0  0  0  0  0  0  0  0  0  0
   18.6674   11.3331    7.0879 H   0  0  0  0  0  0  0  0  0  0  0  0
   18.6582   12.1795    5.5378 H   0  0  0  0  0  0  0  0  0  0  0  0
   20.9265   11.2551    5.0205 H   0  0  0  0  0  0  0  0  0  0  0  0
   20.9354   10.4108    6.5717 H   0  0  0  0  0  0  0  0  0  0  0  0
   20.6929   12.5990    7.7633 H   0  0  0  0  0  0  0  0  0  0  0  0
   20.6861   13.4426    6.2117 H   0  0  0  0  0  0  0  0  0  0  0  0
   22.9542   12.5185    5.6986 H   0  0  0  0  0  0  0  0  0  0  0  0
   22.9610   11.6728    7.2491 H   0  0  0  0  0  0  0  0  0  0  0  0
   22.7196   13.8593    8.4428 H   0  0  0  0  0  0  0  0  0  0  0  0
   22.7127   14.7050    6.8924 H   0  0  0  0  0  0  0  0  0  0  0  0
   24.9809   13.7790    6.3781 H   0  0  0  0  0  0  0  0  0  0  0  0
   24.9876   12.9353    7.9295 H   0  0  0  0  0  0  0  0  0  0  0  0
   24.7464   15.1232    9.1203 H   0  0  0  0  0  0  0  0  0  0  0  0
   24.7394   15.9669    7.5691 H   0  0  0  0  0  0  0  0  0  0  0  0
   27.0074   15.0419    7.0558 H   0  0  0  0  0  0  0  0  0  0  0  0
   27.0144   14.1982    8.6070 H   0  0  0  0  0  0  0  0  0  0  0  0
   26.7731   16.3859    9.7980 H   0  0  0  0  0  0  0  0  0  0  0  0
   26.7661   17.2296    8.2468 H   0  0  0  0  0  0  0  0  0  0  0  0
   29.0341   16.3046    7.7335 H   0  0  0  0  0  0  0  0  0  0  0  0
   29.0410   15.4609    9.2847 H   0  0  0  0  0  0  0  0  0  0  0  0
   28.7986   17.6494   10.4752 H   0  0  0  0  0  0  0  0  0  0  0  0
   28.7939   18.4923    8.9237 H   0  0  0  0  0  0  0  0  0  0  0  0
   31.0619   17.5657    8.4134 H   0  0  0  0  0  0  0  0  0  0  0  0
   31.0666   16.7227    9.9650 H   0  0  0  0  0  0  0  0  0  0  0  0
   30.8252   18.9111   11.1547 H   0  0  0  0  0  0  0  0  0  0  0  0
   30.8206   19.7541    9.6031 H   0  0  0  0  0  0  0  0  0  0  0  0
   33.0886   18.8274    9.0928 H   0  0  0  0  0  0  0  0  0  0  0  0
   33.0933   17.9844   10.6444 H   0  0  0  0  0  0  0  0  0  0  0  0
   32.8519   20.1729   11.8341 H   0  0  0  0  0  0  0  0  0  0  0  0
   32.8472   21.0159   10.2825 H   0  0  0  0  0  0  0  0  0  0  0  0
   35.1153   20.0878    9.7723 H   0  0  0  0  0  0  0  0  0  0  0  0
   35.1198   19.2469   11.3251 H   0  0  0  0  0  0  0  0  0  0  0  0
   34.8774   21.4378   12.5113 H   0  0  0  0  0  0  0  0  0  0  0  0
   34.8750   22.2778   10.9580 H   0  0  0  0  0  0  0  0  0  0  0  0
   37.1432   21.3474   10.4523 H   0  0  0  0  0  0  0  0  0  0  0  0
   37.1453   20.5094   12.0066 H   0  0  0  0  0  0  0  0  0  0  0  0
   36.9029   22.7026   13.1884 H   0  0  0  0  0  0  0  0  0  0  0  0
   36.9029   23.5398   11.6336 H   0  0  0  0  0  0  0  0  0  0  0  0
   39.1709   22.6098   11.1321 H   0  0  0  0  0  0  0  0  0  0  0  0
   39.1709   21.7705   12.6857 H   0  0  0  0  0  0  0  0  0  0  0  0
   38.9284   23.9628   13.8692 H   0  0  0  0  0  0  0  0  0  0  0  0
   38.9307   24.8013   12.3152 H   0  0  0  0  0  0  0  0  0  0  0  0
   41.1988   23.8689   11.8156 H   0  0  0  0  0  0  0  0  0  0  0  0
   41.1964   23.0304   13.3696 H   0  0  0  0  0  0  0  0  0  0  0  0
   40.9550   25.2226   14.5522 H   0  0  0  0  0  0  0  0  0  0  0  0
   40.9574   26.0612   12.9982 H   0  0  0  0  0  0  0  0  0  0  0  0
   43.2254   25.1288   12.4986 H   0  0  0  0  0  0  0  0  0  0  0  0
   43.2230   24.2902   14.0525 H   0  0  0  0  0  0  0  0  0  0  0  0
   42.9817   26.4825   15.2352 H   0  0  0  0  0  0  0  0  0  0  0  0
   42.9841   27.3211   13.6812 H   0  0  0  0  0  0  0  0  0  0  0  0
   45.2520   26.3886   13.1815 H   0  0  0  0  0  0  0  0  0  0  0  0
   45.2497   25.5501   14.7355 H   0  0  0  0  0  0  0  0  0  0  0  0
   45.0094   27.7416   15.9186 H   0  0  0  0  0  0  0  0  0  0  0  0
   45.0096   28.5810   14.3651 H   0  0  0  0  0  0  0  0  0  0  0  0
   47.2776   27.6516   13.8622 H   0  0  0  0  0  0  0  0  0  0  0  0
   47.2775   26.8101   15.4147 H   0  0  0  0  0  0  0  0  0  0  0  0
   47.0351   29.0008   16.6012 H   0  0  0  0  0  0  0  0  0  0  0  0
   47.0373   29.8415   15.0484 H   0  0  0  0  0  0  0  0  0  0  0  0
   49.3054   28.9084   14.5475 H   0  0  0  0  0  0  0  0  0  0  0  0
   49.3030   28.0697   16.1015 H   0  0  0  0  0  0  0  0  0  0  0  0
   49.0616   30.2620   17.2841 H   0  0  0  0  0  0  0  0  0  0  0  0
   49.0641   31.1007   15.7302 H   0  0  0  0  0  0  0  0  0  0  0  0
   51.3320   30.1696   15.2304 H   0  0  0  0  0  0  0  0  0  0  0  0
   51.3297   29.3289   16.7833 H   0  0  0  0  0  0  0  0  0  0  0  0
   51.0895   31.5188   17.9694 H   0  0  0  0  0  0  0  0  0  0  0  0
   51.0895   32.3603   16.4170 H   0  0  0  0  0  0  0  0  0  0  0  0
   53.3576   31.4288   15.9131 H   0  0  0  0  0  0  0  0  0  0  0  0
   53.3574   30.5894   17.4666 H   0  0  0  0  0  0  0  0  0  0  0  0
   53.1150   32.7817   18.6501 H   0  0  0  0  0  0  0  0  0  0  0  0
   53.1173   33.6203   17.0961 H   0  0  0  0  0  0  0  0  0  0  0  0
   55.3853   32.6878   16.5965 H   0  0  0  0  0  0  0  0  0  0  0  0
   55.3830   31.8493   18.1505 H   0  0  0  0  0  0  0  0  0  0  0  0
   55.1426   34.0410   19.3335 H   0  0  0  0  0  0  0  0  0  0  0  0
   55.1429   34.8803   17.7798 H   0  0  0  0  0  0  0  0  0  0  0  0
   57.4110   33.9492   17.2772 H   0  0  0  0  0  0  0  0  0  0  0  0
   57.4108   33.1100   18.8311 H   0  0  0  0  0  0  0  0  0  0  0  0
   57.1693   35.3020   20.0148 H   0  0  0  0  0  0  0  0  0  0  0  0
   57.1696   36.1411   18.4608 H   0  0  0  0  0  0  0  0  0  0  0  0
   59.4379   35.2100   17.9583 H   0  0  0  0  0  0  0  0  0  0  0  0
   59.4376   34.3707   19.5125 H   0  0  0  0  0  0  0  0  0  0  0  0
   59.1965   36.5629   20.6962 H   0  0  0  0  0  0  0  0  0  0  0  0
   59.1967   37.4021   19.1420 H   0  0  0  0  0  0  0  0  0  0  0  0
   61.4654   36.4710   18.6391 H   0  0  0  0  0  0  0  0  0  0  0  0
   61.4652   35.6313   20.1940 H   0  0  0  0  0  0  0  0  0  0  0  0
   61.2227   37.8246   21.3779 H   0  0  0  0  0  0  0  0  0  0  0  0
   61.2231   38.6639   19.8236 H   0  0  0  0  0  0  0  0  0  0  0  0
   63.4919   37.7319   19.3208 H   0  0  0  0  0  0  0  0  0  0  0  0
   63.4916   36.8926   20.8752 H   0  0  0  0  0  0  0  0  0  0  0  0
   63.2501   39.0848   22.0586 H   0  0  0  0  0  0  0  0  0  0  0  0
   63.2504   39.9239   20.5046 H   0  0  0  0  0  0  0  0  0  0  0  0
   65.5218   38.9934   20.0025 H   0  0  0  0  0  0  0  0  0  0  0  0
   65.5214   38.1542   21.5568 H   0  0  0  0  0  0  0  0  0  0  0  0
   65.2755   40.3473   22.7404 H   0  0  0  0  0  0  0  0  0  0  0  0
   65.2781   41.1861   21.1852 H   0  0  0  0  0  0  0  0  0  0  0  0
   67.5462   40.2503   20.6845 H   0  0  0  0  0  0  0  0  0  0  0  0
   67.5433   39.4123   22.2407 H   0  0  0  0  0  0  0  0  0  0  0  0
   67.2996   41.6077   23.4215 H   0  0  0  0  0  0  0  0  0  0  0  0
   67.3035   42.4436   21.8672 H   0  0  0  0  0  0  0  0  0  0  0  0
   69.5731   41.5118   21.3690 H   0  0  0  0  0  0  0  0  0  0  0  0
   69.5693   40.6739   22.9239 H   0  0  0  0  0  0  0  0  0  0  0  0
   69.3268   42.8660   24.1062 H   0  0  0  0  0  0  0  0  0  0  0  0
   69.3296   43.7052   22.5505 H   0  0  0  0  0  0  0  0  0  0  0  0
   71.6000   42.7733   22.0530 H   0  0  0  0  0  0  0  0  0  0  0  0
   71.5974   41.9351   23.6072 H   0  0  0  0  0  0  0  0  0  0  0  0
   71.3544   44.1282   24.7889 H   0  0  0  0  0  0  0  0  0  0  0  0
   71.3594   44.9659   23.2338 H   0  0  0  0  0  0  0  0  0  0  0  0
   73.6280   44.0302   22.7370 H   0  0  0  0  0  0  0  0  0  0  0  0
   73.6229   43.1924   24.2921 H   0  0  0  0  0  0  0  0  0  0  0  0
   73.3849   45.3866   25.4733 H   0  0  0  0  0  0  0  0  0  0  0  0
   73.3901   46.2243   23.9185 H   0  0  0  0  0  0  0  0  0  0  0  0
   75.6603   45.2929   23.4232 H   0  0  0  0  0  0  0  0  0  0  0  0
   75.6553   44.4531   24.9769 H   0  0  0  0  0  0  0  0  0  0  0  0
   75.4159   46.6468   26.1604 H   0  0  0  0  0  0  0  0  0  0  0  0
   75.4232   47.4854   24.6073 H   0  0  0  0  0  0  0  0  0  0  0  0
   77.7050   46.5678   24.1223 H   0  0  0  0  0  0  0  0  0  0  0  0
   77.6976   45.7289   25.6760 H   0  0  0  0  0  0  0  0  0  0  0  0
   77.4871   48.7624   25.3016 H   0  0  0  0  0  0  0  0  0  0  0  0
   78.9274   47.8748   25.8372 H   0  0  0  0  0  0  0  0  0  0  0  0
   77.4797   47.9196   26.8625 H   0  0  0  0  0  0  0  0  0  0  0  0
  1  2  1  0  0  0  0
  1 80  1  0  0  0  0
  1 81  1  0  0  0  0
  1 82  1  0  0  0  0
  2  3  1  0  0  0  0
  2  5  1  0  0  0  0
  2 83  1  0  0  0  0
  3  4  1  0  0  0  0
  3 84  1  0  0  0  0
  3 85  1  0  0  0  0
  4 86  1  0  0  0  0
  4 87  1  0  0  0  0
  4 88  1  0  0  0  0
  5  6  1  0  0  0  0
  6  7  1  0  0  0  0
  6 89  1  0  0  0  0
  6 90  1  0  0  0  0
  7  8  1  0  0  0  0
  7 91  1  0  0  0  0
  7 92  1  0  0  0  0
  8  9  1  0  0  0  0
  8 93  1  0  0  0  0
  8 94  1  0  0  0  0
  9 10  1  0  0  0  0
  9 95  1  0  0  0  0
  9 96  1  0  0  0  0
 10 11  1  0  0  0  0
 10 97  1  0  0  0  0
 10 98  1  0  0  0  0
 11 12  1  0  0  0  0
 11 99  1  0  0  0  0
 11100  1  0  0  0  0
 12 13  1  0  0  0  0
 12101  1  0  0  0  0
 12102  1  0  0  0  0
 13 14  1  0  0  0  0
 13103  1  0  0  0  0
 13104  1  0  0  0  0
 14 15  1  0  0  0  0
 14105  1  0  0  0  0
 14106  1  0  0  0  0
 15 16  1  0  0  0  0
 15107  1  0  0  0  0
 15108  1  0  0  0  0
 16 17  1  0  0  0  0
 16109  1  0  0  0  0
 16110  1  0  0  0  0
 17 18  1  0  0  0  0
 17111  1  0  0  0  0
 17112  1  0  0  0  0
 18 19  1  0  0  0  0
 18113  1  0  0  0  0
 18114  1  0  0  0  0
 19 20  1  0  0  0  0
 19115  1  0  0  0  0
 19116  1  0  0  0  0
 20 21  1  0  0  0  0
 20117  1  0  0  0  0
 20118  1  0  0  0  0
 21 22  1  0  0  0  0
 21119  1  0  0  0  0
 21120  1  0  0  0  0
 22 23  1  0  0  0  0
 22121  1  0  0  0  0
 22122  1  0  0  0  0
 23 24  1  0  0  0  0
 23123  1  0  0  0  0
 23124  1  0  0  0  0
 24 25  1  0  0  0  0
 24125  1  0  0  0  0
 24126  1  0  0  0  0
 25 26  1  0  0  0  0
 25127  1  0  0  0  0
 25128  1  0  0  0  0
 26 27  1  0  0  0  0
 26129  1  0  0  0  0
 26130  1  0  0  0  0
 27 28  1  0  0  0  0
 27131  1  0  0  0  0
 27132  1  0  0  0  0
 28 29  1  0  0  0  0
 28133  1  0  0  0  0
 28134  1  0  0  0  0
 29 30  1  0  0  0  0
 29135  1  0  0  0  0
 29136  1  0  0  0  0
 30 31  1  0  0  0  0
 30137  1  0  0  0  0
 30138  1  0  0  0  0
 31 32  1  0  0  0  0
 31139  1  0  0  0  0
 31140  1  0  0  0  0
 32 33  1  0  0  0  0
 32141  1  0  0  0  0
 32142  1  0  0  0  0
 33 34  1  0  0  0  0
 33143  1  0  0  0  0
 33144  1  0  0  0  0
 34 35  1  0  0  0  0
 34145  1  0  0  0  0
 34146  1  0  0  0  0
 35 36  1  0  0  0  0
 35147  1  0  0  0  0
 35148  1  0  0  0  0
 36 37  1  0  0  0  0
 36149  1  0  0  0  0
 36150  1  0  0  0  0
 37 38  1  0  0  0  0
 37151  1  0  0  0  0
 37152  1  0  0  0  0
 38 39  1  0  0  0  0
 38153  1  0  0  0  0
 38154  1  0  0  0  0
 39 40  1  0  0  0  0
 39155  1  0  0  0  0
 39156  1  0  0  0  0
 40 41  1  0  0  0  0
 40157  1  0  0  0  0
 40158  1  0  0  0  0
 41 42  1  0  0  0  0
 41159  1  0  0  0  0
 41160  1  0  0  0  0
 42 43  1  0  0  0  0
 42161  1  0  0  0  0
 42162  1  0  0  0  0
 43 44  1  0  0  0  0
 43163  1  0  0  0  0
 43164  1  0  0  0  0
 44 45  1  0  0  0  0
 44165  1  0  0  0  0
 44166  1  0  0  0  0
 45 46  1  0  0  0  0
 45167  1  0  0  0  0
 45168  1  0  0  0  0
 46 47  1  0  0  0  0
 46169  1  0  0  0  0
 46170  1  0  0  0  0
 47 48  1  0  0  0  0
 47171  1  0  0  0  0
 47172  1  0  0  0  0
 48 49  1  0  0  0  0
 48173  1  0  0  0  0
 48174  1  0  0  0  0
 49 50  1  0  0  0  0
 49175  1  0  0  0  0
 49176  1  0  0  0  0
 50 51  1  0  0  0  0
 50177  1  0  0  0  0
 50178  1  0  0  0  0
 51 52  1  0  0  0  0
 51179  1  0  0  0  0
 51180  1  0  0  0  0
 52 53  1  0  0  0  0
 52181  1  0  0  0  0
 52182  1  0  0  0  0
 53 54  1  0  0  0  0
 53183  1  0  0  0  0
 53184  1  0  0  0  0
 54 55  1  0  0  0  0
 54185  1  0  0  0  0
 54186  1  0  0  0  0
 55 56  1  0  0  0  0
 55187  1  0  0  0  0
 55188  1  0  0  0  0
 56 57  1  0  0  0  0
 56189  1  0  0  0  0
 56190  1  0  0  0  0
 57 58  1  0  0  0  0
 57191  1  0  0  0  0
 57192  1  0  0  0  0
 58 59  1  0  0  0  0
 58193  1  0  0  0  0
 58194  1  0  0  0  0
 59 60  1  0  0  0  0
 59195  1  0  0  0  0
 59196  1  0  0  0  0
 60 61  1  0  0  0  0
 60197  1  0  0  0  0
 60198  1  0  0  0  0
 61 62  1  0  0  0  0
 61199  1  0  0  0  0
 61200  1  0  0  0  0
 62 63  1  0  0  0  0
 62201  1  0  0  0  0
 62202  1  0  0  0  0
 63 64  1  0  0  0  0
 63203  1  0  0  0  0
 63204  1  0  0  0  0
 64 65  1  0  0  0  0
 64205  1  0  0  0  0
 64206  1  0  0  0  0
 65 66  1  0  0  0  0
 65207  1  0  0  0  0
 65208  1  0  0  0  0
 66 67  1  0  0  0  0
 66209  1  0  0  0  0
 66210  1  0  0  0  0
 67 68  1  0  0  0  0
 67211  1  0  0  0  0
 67212  1  0  0  0  0
 68 69  1  0  0  0  0
 68213  1  0  0  0  0
 68214  1  0  0  0  0
 69 70  1  0  0  0  0
 69215  1  0  0  0  0
 69216  1  0  0  0  0
 70 71  1  0  0  0  0
 70217  1  0  0  0  0
 70218  1  0  0  0  0
 71 72  1  0  0  0  0
 71219  1  0  0  0  0
 71220  1  0  0  0  0
 72 73  1  0  0  0  0
 72221  1  0  0  0  0
 72222  1  0  0  0  0
 73 74  1  0  0  0  0
 73223  1  0  0  0  0
 73224  1  0  0  0  0
 74 75  1  0  0  0  0
 74225  1  0  0  0  0
 74226  1  0  0  0  0
 75 76  1  0  0  0  0
 75227  1  0  0  0  0
 75228  1  0  0  0  0
 76 77  1  0  0  0  0
 76229  1  0  0  0  0
 76230  1  0  0  0  0
 77 78  1  0  0  0  0
 77231  1  0  0  0  0
 77232  1  0  0  0  0
 78 79  1  0  0  0  0
 78233  1  0  0  0  0
 78234  1  0  0  0  0
 79235  1  0  0  0  0
 79236  1  0  0  0  0
 79237  1  0  0  0  0
M  END
$$$$
