
 OpenBabel04232217023D

 59 58  0  0  0  0  0  0  0  0999 V2000
   13.1791   -1.1038  -11.7951 S   0  0  0  0  0  0  0  0  0  0  0  0
   12.6120    0.6035  -11.5096 C   0  0  0  0  0  0  0  0  0  0  0  0
   10.7841    0.7349  -11.6918 S   0  0  0  0  0  0  0  0  0  0  0  0
   10.0128   -0.5902  -10.2804 S   0  0  0  0  0  0  0  0  0  0  0  0
   10.5339    0.0923   -8.6457 C   0  0  0  0  0  0  0  0  0  0  0  0
    9.9784    1.4544   -8.4341 N   0  0  0  0  0  0  0  0  0  0  0  0
   10.4361    1.9794   -7.1370 N   0  0  0  0  0  0  0  0  0  0  0  0
    9.8485    3.5485   -7.0121 S   0  0  0  0  0  0  0  0  0  0  0  0
   10.5183    4.1960   -5.1689 S   0  0  0  0  0  0  0  0  0  0  0  0
   12.5886    4.2390   -5.1658 S   0  0  0  0  0  0  0  0  0  0  0  0
   13.2817    5.5346   -6.6354 S   0  0  0  0  0  0  0  0  0  0  0  0
   15.3889    5.5015   -6.6248 S   0  0  0  0  0  0  0  0  0  0  0  0
   16.0821    6.7719   -8.1611 S   0  0  0  0  0  0  0  0  0  0  0  0
   18.1917    6.7641   -8.1510 S   0  0  0  0  0  0  0  0  0  0  0  0
   18.8825    8.0342   -9.6874 S   0  0  0  0  0  0  0  0  0  0  0  0
   20.9919    8.0258   -9.6772 S   0  0  0  0  0  0  0  0  0  0  0  0
   21.6825    9.2959  -11.2133 S   0  0  0  0  0  0  0  0  0  0  0  0
   23.7919    9.2874  -11.2031 S   0  0  0  0  0  0  0  0  0  0  0  0
   24.4825   10.5574  -12.7392 S   0  0  0  0  0  0  0  0  0  0  0  0
   26.5919   10.5490  -12.7290 S   0  0  0  0  0  0  0  0  0  0  0  0
   27.2825   11.8190  -14.2651 S   0  0  0  0  0  0  0  0  0  0  0  0
   29.3919   11.8106  -14.2549 S   0  0  0  0  0  0  0  0  0  0  0  0
   30.0825   13.0806  -15.7910 S   0  0  0  0  0  0  0  0  0  0  0  0
   32.1919   13.0722  -15.7808 S   0  0  0  0  0  0  0  0  0  0  0  0
   32.8825   14.3422  -17.3169 S   0  0  0  0  0  0  0  0  0  0  0  0
   34.9919   14.3338  -17.3067 S   0  0  0  0  0  0  0  0  0  0  0  0
   35.6825   15.6038  -18.8428 S   0  0  0  0  0  0  0  0  0  0  0  0
   37.7919   15.5954  -18.8326 S   0  0  0  0  0  0  0  0  0  0  0  0
   38.4825   16.8654  -20.3688 S   0  0  0  0  0  0  0  0  0  0  0  0
   40.5919   16.8569  -20.3585 S   0  0  0  0  0  0  0  0  0  0  0  0
   41.2825   18.1270  -21.8947 S   0  0  0  0  0  0  0  0  0  0  0  0
   43.3918   18.1185  -21.8845 S   0  0  0  0  0  0  0  0  0  0  0  0
   44.0825   19.3886  -23.4206 S   0  0  0  0  0  0  0  0  0  0  0  0
   46.1918   19.3801  -23.4104 S   0  0  0  0  0  0  0  0  0  0  0  0
   46.8825   20.6502  -24.9465 S   0  0  0  0  0  0  0  0  0  0  0  0
   48.9918   20.6417  -24.9363 S   0  0  0  0  0  0  0  0  0  0  0  0
   49.6825   21.9117  -26.4724 S   0  0  0  0  0  0  0  0  0  0  0  0
   51.7918   21.9033  -26.4622 S   0  0  0  0  0  0  0  0  0  0  0  0
   52.4824   23.1733  -27.9983 S   0  0  0  0  0  0  0  0  0  0  0  0
   54.5918   23.1649  -27.9881 S   0  0  0  0  0  0  0  0  0  0  0  0
   55.2824   24.4349  -29.5242 S   0  0  0  0  0  0  0  0  0  0  0  0
   57.3918   24.4265  -29.5140 S   0  0  0  0  0  0  0  0  0  0  0  0
   58.0824   25.6965  -31.0501 S   0  0  0  0  0  0  0  0  0  0  0  0
   60.1918   25.6881  -31.0399 S   0  0  0  0  0  0  0  0  0  0  0  0
   60.8824   26.9582  -32.5760 S   0  0  0  0  0  0  0  0  0  0  0  0
   62.9908   26.9491  -32.5659 S   0  0  0  0  0  0  0  0  0  0  0  0
   63.6800   28.2183  -34.1004 S   0  0  0  0  0  0  0  0  0  0  0  0
   65.7805   28.2159  -34.0689 S   0  0  0  0  0  0  0  0  0  0  0  0
   66.4726   29.4203  -35.6249 S   0  0  0  0  0  0  0  0  0  0  0  0
   68.5600   29.4339  -35.5654 S   0  0  0  0  0  0  0  0  0  0  0  0
   69.1845   27.5097  -35.9584 S   0  0  0  0  0  0  0  0  0  0  0  0
   14.5028   -0.9728  -11.5977 H   0  0  0  0  0  0  0  0  0  0  0  0
   13.0815    1.2904  -12.2221 H   0  0  0  0  0  0  0  0  0  0  0  0
   12.8762    0.9539  -10.5059 H   0  0  0  0  0  0  0  0  0  0  0  0
   11.6084    0.0882   -8.6147 H   0  0  0  0  0  0  0  0  0  0  0  0
   10.1620   -0.5922   -7.8755 H   0  0  0  0  0  0  0  0  0  0  0  0
    8.9930    1.3996   -8.4730 H   0  0  0  0  0  0  0  0  0  0  0  0
   11.4500    2.0098   -7.1170 H   0  0  0  0  0  0  0  0  0  0  0  0
   70.5351   27.5812  -35.9207 H   0  0  0  0  0  0  0  0  0  0  0  0
  1  2  1  0  0  0  0
  1 52  1  0  0  0  0
  2  3  1  0  0  0  0
  2 53  1  0  0  0  0
  2 54  1  0  0  0  0
  3  4  1  0  0  0  0
  4  5  1  0  0  0  0
  5  6  1  0  0  0  0
  5 55  1  0  0  0  0
  5 56  1  0  0  0  0
  6  7  1  0  0  0  0
  6 57  1  0  0  0  0
  7  8  1  0  0  0  0
  7 58  1  0  0  0  0
  8  9  1  0  0  0  0
  9 10  1  0  0  0  0
 10 11  1  0  0  0  0
 11 12  1  0  0  0  0
 12 13  1  0  0  0  0
 13 14  1  0  0  0  0
 14 15  1  0  0  0  0
 15 16  1  0  0  0  0
 16 17  1  0  0  0  0
 17 18  1  0  0  0  0
 18 19  1  0  0  0  0
 19 20  1  0  0  0  0
 20 21  1  0  0  0  0
 21 22  1  0  0  0  0
 22 23  1  0  0  0  0
 23 24  1  0  0  0  0
 24 25  1  0  0  0  0
 25 26  1  0  0  0  0
 26 27  1  0  0  0  0
 27 28  1  0  0  0  0
 28 29  1  0  0  0  0
 29 30  1  0  0  0  0
 30 31  1  0  0  0  0
 31 32  1  0  0  0  0
 32 33  1  0  0  0  0
 33 34  1  0  0  0  0
 34 35  1  0  0  0  0
 35 36  1  0  0  0  0
 36 37  1  0  0  0  0
 37 38  1  0  0  0  0
 38 39  1  0  0  0  0
 39 40  1  0  0  0  0
 40 41  1  0  0  0  0
 41 42  1  0  0  0  0
 42 43  1  0  0  0  0
 43 44  1  0  0  0  0
 44 45  1  0  0  0  0
 45 46  1  0  0  0  0
 46 47  1  0  0  0  0
 47 48  1  0  0  0  0
 48 49  1  0  0  0  0
 49 50  1  0  0  0  0
 50 51  1  0  0  0  0
 51 59  1  0  0  0  0
M  END
$$$$
