
 OpenBabel04232216423D

188187  0  0  0  0  0  0  0  0999 V2000
   23.0253   -9.8136   23.4122 C   0  0  0  0  0  0  0  0  0  0  0  0
   23.9118  -10.0862   22.4443 C   0  0  0  0  0  0  0  0  0  0  0  0
   24.4134  -11.4707   22.1785 C   0  0  0  0  0  0  0  0  0  0  0  0
   25.8950  -11.5530   22.3015 N   0  0  0  0  0  0  0  0  0  0  0  0
   26.2954  -12.8645   22.0783 N   0  0  0  0  0  0  0  0  0  0  0  0
   27.7015  -12.9419   22.2199 N   0  0  0  0  0  0  0  0  0  0  0  0
   28.1311  -14.2554   21.9820 N   0  0  0  0  0  0  0  0  0  0  0  0
   27.8071  -14.6453   20.6416 N   0  0  0  0  0  0  0  0  0  0  0  0
   28.4016  -13.7582   19.6877 N   0  0  0  0  0  0  0  0  0  0  0  0
   29.8282  -13.7848   19.8129 N   0  0  0  0  0  0  0  0  0  0  0  0
   30.3222  -15.1156   19.5646 N   0  0  0  0  0  0  0  0  0  0  0  0
   29.9654  -15.5539   18.2393 N   0  0  0  0  0  0  0  0  0  0  0  0
   30.5192  -14.6736   17.2453 N   0  0  0  0  0  0  0  0  0  0  0  0
   31.9353  -14.6796   17.3751 N   0  0  0  0  0  0  0  0  0  0  0  0
   32.4308  -15.9961   17.1887 N   0  0  0  0  0  0  0  0  0  0  0  0
   32.0473  -16.4582   15.9214 N   0  0  0  0  0  0  0  0  0  0  0  0
   32.5776  -15.5906   14.9299 N   0  0  0  0  0  0  0  0  0  0  0  0
   33.9975  -15.5469   15.0461 N   0  0  0  0  0  0  0  0  0  0  0  0
   34.5288  -16.8538   14.8634 N   0  0  0  0  0  0  0  0  0  0  0  0
   34.1762  -17.3638   13.5842 N   0  0  0  0  0  0  0  0  0  0  0  0
   34.6774  -16.4928   12.5918 N   0  0  0  0  0  0  0  0  0  0  0  0
   36.1021  -16.4191   12.6839 N   0  0  0  0  0  0  0  0  0  0  0  0
   36.6668  -17.7171   12.5009 N   0  0  0  0  0  0  0  0  0  0  0  0
   36.2945  -18.2390   11.2422 N   0  0  0  0  0  0  0  0  0  0  0  0
   36.8149  -17.4070   10.2055 N   0  0  0  0  0  0  0  0  0  0  0  0
   38.2271  -17.3013   10.3111 N   0  0  0  0  0  0  0  0  0  0  0  0
   38.8246  -18.5847   10.1499 N   0  0  0  0  0  0  0  0  0  0  0  0
   38.4891  -19.1446    8.8882 N   0  0  0  0  0  0  0  0  0  0  0  0
   38.9325  -18.2865    7.8458 N   0  0  0  0  0  0  0  0  0  0  0  0
   40.3495  -18.1550    7.9439 N   0  0  0  0  0  0  0  0  0  0  0  0
   40.9595  -19.4417    7.8647 N   0  0  0  0  0  0  0  0  0  0  0  0
   40.6052  -20.0211    6.6014 N   0  0  0  0  0  0  0  0  0  0  0  0
   41.0611  -19.1624    5.5348 N   0  0  0  0  0  0  0  0  0  0  0  0
   42.5006  -18.9948    5.5949 N   0  0  0  0  0  0  0  0  0  0  0  0
   43.1433  -20.2626    5.5068 N   0  0  0  0  0  0  0  0  0  0  0  0
   42.8236  -20.8679    4.2403 N   0  0  0  0  0  0  0  0  0  0  0  0
   43.2379  -20.0206    3.1581 N   0  0  0  0  0  0  0  0  0  0  0  0
   44.6454  -19.7986    3.2261 N   0  0  0  0  0  0  0  0  0  0  0  0
   45.3042  -21.0654    3.1344 N   0  0  0  0  0  0  0  0  0  0  0  0
   44.9086  -21.6949    1.9107 N   0  0  0  0  0  0  0  0  0  0  0  0
   45.3120  -20.8599    0.7980 N   0  0  0  0  0  0  0  0  0  0  0  0
   46.7357  -20.6448    0.8099 N   0  0  0  0  0  0  0  0  0  0  0  0
   47.4429  -21.8850    0.7259 N   0  0  0  0  0  0  0  0  0  0  0  0
   47.0854  -22.5385   -0.4830 N   0  0  0  0  0  0  0  0  0  0  0  0
   47.4063  -21.6920   -1.5738 N   0  0  0  0  0  0  0  0  0  0  0  0
   48.8181  -21.4433   -1.5458 N   0  0  0  0  0  0  0  0  0  0  0  0
   49.5566  -22.6790   -1.6425 N   0  0  0  0  0  0  0  0  0  0  0  0
   49.2142  -23.3693   -2.8415 N   0  0  0  0  0  0  0  0  0  0  0  0
   49.5466  -22.5505   -3.9699 N   0  0  0  0  0  0  0  0  0  0  0  0
   50.9445  -22.2650   -3.9516 N   0  0  0  0  0  0  0  0  0  0  0  0
   51.6919  -23.4824   -3.9931 N   0  0  0  0  0  0  0  0  0  0  0  0
   51.3636  -24.2003   -5.1919 N   0  0  0  0  0  0  0  0  0  0  0  0
   51.6677  -23.3791   -6.3142 N   0  0  0  0  0  0  0  0  0  0  0  0
   53.0822  -23.0641   -6.3512 N   0  0  0  0  0  0  0  0  0  0  0  0
   53.8694  -24.2852   -6.3835 N   0  0  0  0  0  0  0  0  0  0  0  0
   53.4982  -25.0147   -7.5973 C   0  0  0  0  0  0  0  0  0  0  0  0
   54.2907  -26.2952   -7.6475 C   0  0  0  0  0  0  0  0  0  0  0  0
   53.9436  -27.0664   -8.9059 C   0  0  0  0  0  0  0  0  0  0  0  0
   54.7498  -28.3476   -8.9687 C   0  0  0  0  0  0  0  0  0  0  0  0
   54.4058  -29.1190  -10.2265 C   0  0  0  0  0  0  0  0  0  0  0  0
   55.2126  -30.3996  -10.2882 C   0  0  0  0  0  0  0  0  0  0  0  0
   54.8685  -31.1705  -11.5458 C   0  0  0  0  0  0  0  0  0  0  0  0
   55.6752  -32.4509  -11.6073 C   0  0  0  0  0  0  0  0  0  0  0  0
   55.3311  -33.2218  -12.8647 C   0  0  0  0  0  0  0  0  0  0  0  0
   56.1379  -34.5021  -12.9262 C   0  0  0  0  0  0  0  0  0  0  0  0
   55.7937  -35.2729  -14.1837 C   0  0  0  0  0  0  0  0  0  0  0  0
   56.6005  -36.5533  -14.2452 C   0  0  0  0  0  0  0  0  0  0  0  0
   56.2563  -37.3241  -15.5027 C   0  0  0  0  0  0  0  0  0  0  0  0
   57.0617  -38.6054  -15.5631 C   0  0  0  0  0  0  0  0  0  0  0  0
   56.7175  -39.3763  -16.8206 C   0  0  0  0  0  0  0  0  0  0  0  0
   57.5228  -40.6576  -16.8811 C   0  0  0  0  0  0  0  0  0  0  0  0
   57.1787  -41.4284  -18.1386 C   0  0  0  0  0  0  0  0  0  0  0  0
   57.9840  -42.7097  -18.1991 C   0  0  0  0  0  0  0  0  0  0  0  0
   57.6399  -43.4806  -19.4566 C   0  0  0  0  0  0  0  0  0  0  0  0
   58.4466  -44.7609  -19.5180 C   0  0  0  0  0  0  0  0  0  0  0  0
   58.1025  -45.5318  -20.7755 C   0  0  0  0  0  0  0  0  0  0  0  0
   58.9095  -46.8123  -20.8368 C   0  0  0  0  0  0  0  0  0  0  0  0
   58.5645  -47.5848  -22.0932 C   0  0  0  0  0  0  0  0  0  0  0  0
   59.3728  -48.8663  -22.1575 C   0  0  0  0  0  0  0  0  0  0  0  0
   59.0256  -49.6338  -23.4120 C   0  0  0  0  0  0  0  0  0  0  0  0
   22.6928   -8.8027   23.5893 H   0  0  0  0  0  0  0  0  0  0  0  0
   22.6581  -10.6080   24.0528 H   0  0  0  0  0  0  0  0  0  0  0  0
   24.2819   -9.2829   21.8143 H   0  0  0  0  0  0  0  0  0  0  0  0
   24.1308  -11.7605   21.1559 H   0  0  0  0  0  0  0  0  0  0  0  0
   23.9403  -12.1803   22.8676 H   0  0  0  0  0  0  0  0  0  0  0  0
   26.1398  -11.3009   23.2588 H   0  0  0  0  0  0  0  0  0  0  0  0
   26.0242  -13.1109   21.1295 H   0  0  0  0  0  0  0  0  0  0  0  0
   27.9679  -12.6625   23.1552 H   0  0  0  0  0  0  0  0  0  0  0  0
   27.7136  -14.9068   22.6355 H   0  0  0  0  0  0  0  0  0  0  0  0
   26.8086  -14.6350   20.4872 H   0  0  0  0  0  0  0  0  0  0  0  0
   28.1081  -12.8011   19.8320 H   0  0  0  0  0  0  0  0  0  0  0  0
   30.0891  -13.4770   20.7545 H   0  0  0  0  0  0  0  0  0  0  0  0
   29.9141  -15.7723   20.2238 H   0  0  0  0  0  0  0  0  0  0  0  0
   28.9448  -15.5499   18.1494 H   0  0  0  0  0  0  0  0  0  0  0  0
   30.1426  -13.7285   17.4325 H   0  0  0  0  0  0  0  0  0  0  0  0
   32.1996  -14.3807   18.3113 H   0  0  0  0  0  0  0  0  0  0  0  0
   32.0217  -16.6156   17.8875 H   0  0  0  0  0  0  0  0  0  0  0  0
   31.0378  -16.4442   15.8436 H   0  0  0  0  0  0  0  0  0  0  0  0
   32.1783  -14.6617   15.1228 H   0  0  0  0  0  0  0  0  0  0  0  0
   34.2425  -15.2446   15.9839 H   0  0  0  0  0  0  0  0  0  0  0  0
   34.1425  -17.4755   15.5676 H   0  0  0  0  0  0  0  0  0  0  0  0
   33.1693  -17.3879   13.4971 H   0  0  0  0  0  0  0  0  0  0  0  0
   34.2688  -15.5671   12.7230 H   0  0  0  0  0  0  0  0  0  0  0  0
   36.3729  -16.0746   13.6041 H   0  0  0  0  0  0  0  0  0  0  0  0
   36.3142  -18.3662   13.1961 H   0  0  0  0  0  0  0  0  0  0  0  0
   35.2795  -18.3274   11.1684 H   0  0  0  0  0  0  0  0  0  0  0  0
   36.4424  -16.4663   10.3065 H   0  0  0  0  0  0  0  0  0  0  0  0
   38.4688  -16.9056   11.2331 H   0  0  0  0  0  0  0  0  0  0  0  0
   38.4785  -19.2035   10.8840 H   0  0  0  0  0  0  0  0  0  0  0  0
   37.4785  -19.2204    8.8123 H   0  0  0  0  0  0  0  0  0  0  0  0
   38.4618  -17.3810    7.9832 H   0  0  0  0  0  0  0  0  0  0  0  0
   40.5824  -17.7669    8.8549 H   0  0  0  0  0  0  0  0  0  0  0  0
   40.6065  -20.0310    8.6290 H   0  0  0  0  0  0  0  0  0  0  0  0
   39.5831  -20.1169    6.5612 H   0  0  0  0  0  0  0  0  0  0  0  0
   40.6525  -18.2376    5.6173 H   0  0  0  0  0  0  0  0  0  0  0  0
   42.7552  -18.5852    6.4893 H   0  0  0  0  0  0  0  0  0  0  0  0
   42.8226  -20.8569    6.2782 H   0  0  0  0  0  0  0  0  0  0  0  0
   41.8066  -21.0040    4.1920 H   0  0  0  0  0  0  0  0  0  0  0  0
   42.7718  -19.1114    3.2237 H   0  0  0  0  0  0  0  0  0  0  0  0
   44.8673  -19.3433    4.1202 H   0  0  0  0  0  0  0  0  0  0  0  0
   44.9801  -21.6400    3.9268 H   0  0  0  0  0  0  0  0  0  0  0  0
   43.8861  -21.8248    1.8965 H   0  0  0  0  0  0  0  0  0  0  0  0
   44.8550  -19.9509    0.8652 H   0  0  0  0  0  0  0  0  0  0  0  0
   46.9956  -20.1911    1.6834 H   0  0  0  0  0  0  0  0  0  0  0  0
   47.1681  -22.4701    1.5088 H   0  0  0  0  0  0  0  0  0  0  0  0
   46.0791  -22.6820   -0.4844 H   0  0  0  0  0  0  0  0  0  0  0  0
   46.8950  -20.8079   -1.4752 H   0  0  0  0  0  0  0  0  0  0  0  0
   49.0653  -20.9721   -0.6624 H   0  0  0  0  0  0  0  0  0  0  0  0
   49.3013  -23.2803   -0.8542 H   0  0  0  0  0  0  0  0  0  0  0  0
   48.2155  -23.5439   -2.8511 H   0  0  0  0  0  0  0  0  0  0  0  0
   49.0329  -21.6767   -3.8779 H   0  0  0  0  0  0  0  0  0  0  0  0
   51.1655  -21.7863   -3.0784 H   0  0  0  0  0  0  0  0  0  0  0  0
   51.4327  -24.0502   -3.1898 H   0  0  0  0  0  0  0  0  0  0  0  0
   50.3546  -24.3889   -5.1815 H   0  0  0  0  0  0  0  0  0  0  0  0
   51.1124  -22.5187   -6.2687 H   0  0  0  0  0  0  0  0  0  0  0  0
   53.2919  -22.5535   -5.4788 H   0  0  0  0  0  0  0  0  0  0  0  0
   53.6034  -24.8476   -5.5636 H   0  0  0  0  0  0  0  0  0  0  0  0
   53.7102  -24.3969   -8.4730 H   0  0  0  0  0  0  0  0  0  0  0  0
   52.4245  -25.2636   -7.6079 H   0  0  0  0  0  0  0  0  0  0  0  0
   54.0694  -26.9113   -6.7682 H   0  0  0  0  0  0  0  0  0  0  0  0
   55.3596  -26.0615   -7.6419 H   0  0  0  0  0  0  0  0  0  0  0  0
   54.1592  -26.4526   -9.7879 H   0  0  0  0  0  0  0  0  0  0  0  0
   52.8736  -27.3045   -8.9135 H   0  0  0  0  0  0  0  0  0  0  0  0
   54.5339  -28.9634   -8.0883 H   0  0  0  0  0  0  0  0  0  0  0  0
   55.8198  -28.1112   -8.9627 H   0  0  0  0  0  0  0  0  0  0  0  0
   54.6219  -28.5042  -11.1076 H   0  0  0  0  0  0  0  0  0  0  0  0
   53.3360  -29.3564  -10.2332 H   0  0  0  0  0  0  0  0  0  0  0  0
   54.9966  -31.0148   -9.4075 H   0  0  0  0  0  0  0  0  0  0  0  0
   56.2825  -30.1626  -10.2818 H   0  0  0  0  0  0  0  0  0  0  0  0
   55.0845  -30.5555  -12.4266 H   0  0  0  0  0  0  0  0  0  0  0  0
   53.7986  -31.4077  -11.5523 H   0  0  0  0  0  0  0  0  0  0  0  0
   55.4592  -33.0660  -10.7264 H   0  0  0  0  0  0  0  0  0  0  0  0
   56.7451  -32.2138  -11.6008 H   0  0  0  0  0  0  0  0  0  0  0  0
   55.5471  -32.6066  -13.7456 H   0  0  0  0  0  0  0  0  0  0  0  0
   54.2612  -33.4589  -12.8712 H   0  0  0  0  0  0  0  0  0  0  0  0
   55.9219  -35.1172  -12.0454 H   0  0  0  0  0  0  0  0  0  0  0  0
   57.2077  -34.2650  -12.9197 H   0  0  0  0  0  0  0  0  0  0  0  0
   56.0097  -34.6578  -15.0645 H   0  0  0  0  0  0  0  0  0  0  0  0
   54.7239  -35.5101  -14.1902 H   0  0  0  0  0  0  0  0  0  0  0  0
   56.3845  -37.1684  -13.3643 H   0  0  0  0  0  0  0  0  0  0  0  0
   57.6704  -36.3162  -14.2387 H   0  0  0  0  0  0  0  0  0  0  0  0
   56.4737  -36.7095  -16.3835 H   0  0  0  0  0  0  0  0  0  0  0  0
   55.1862  -37.5600  -15.5098 H   0  0  0  0  0  0  0  0  0  0  0  0
   56.8443  -39.2200  -14.6823 H   0  0  0  0  0  0  0  0  0  0  0  0
   58.1318  -38.3696  -15.5560 H   0  0  0  0  0  0  0  0  0  0  0  0
   56.9349  -38.7617  -17.7015 H   0  0  0  0  0  0  0  0  0  0  0  0
   55.6474  -39.6122  -16.8278 H   0  0  0  0  0  0  0  0  0  0  0  0
   57.3055  -41.2722  -16.0002 H   0  0  0  0  0  0  0  0  0  0  0  0
   58.5930  -40.4217  -16.8739 H   0  0  0  0  0  0  0  0  0  0  0  0
   57.3961  -40.8139  -19.0195 H   0  0  0  0  0  0  0  0  0  0  0  0
   56.1086  -41.6643  -18.1458 H   0  0  0  0  0  0  0  0  0  0  0  0
   57.7666  -43.3243  -17.3182 H   0  0  0  0  0  0  0  0  0  0  0  0
   59.0541  -42.4738  -18.1919 H   0  0  0  0  0  0  0  0  0  0  0  0
   57.8559  -42.8655  -20.3374 H   0  0  0  0  0  0  0  0  0  0  0  0
   56.5700  -43.7177  -19.4630 H   0  0  0  0  0  0  0  0  0  0  0  0
   58.2306  -45.3760  -18.6372 H   0  0  0  0  0  0  0  0  0  0  0  0
   59.5165  -44.5238  -19.5116 H   0  0  0  0  0  0  0  0  0  0  0  0
   58.3185  -44.9167  -21.6564 H   0  0  0  0  0  0  0  0  0  0  0  0
   57.0326  -45.7689  -20.7820 H   0  0  0  0  0  0  0  0  0  0  0  0
   58.6944  -47.4266  -19.9553 H   0  0  0  0  0  0  0  0  0  0  0  0
   59.9792  -46.5748  -20.8319 H   0  0  0  0  0  0  0  0  0  0  0  0
   58.7774  -46.9691  -22.9746 H   0  0  0  0  0  0  0  0  0  0  0  0
   57.4945  -47.8223  -22.0976 H   0  0  0  0  0  0  0  0  0  0  0  0
   59.1586  -49.4834  -21.2786 H   0  0  0  0  0  0  0  0  0  0  0  0
   60.4421  -48.6298  -22.1560 H   0  0  0  0  0  0  0  0  0  0  0  0
   57.9612  -49.8869  -23.4192 H   0  0  0  0  0  0  0  0  0  0  0  0
   59.6064  -50.5573  -23.4610 H   0  0  0  0  0  0  0  0  0  0  0  0
   59.2472  -49.0316  -24.2983 H   0  0  0  0  0  0  0  0  0  0  0  0
  1  2  2  0  0  0  0
  1 81  1  0  0  0  0
  1 82  1  0  0  0  0
  2  3  1  0  0  0  0
  2 83  1  0  0  0  0
  3  4  1  0  0  0  0
  3 84  1  0  0  0  0
  3 85  1  0  0  0  0
  4  5  1  0  0  0  0
  4 86  1  0  0  0  0
  5  6  1  0  0  0  0
  5 87  1  0  0  0  0
  6  7  1  0  0  0  0
  6 88  1  0  0  0  0
  7  8  1  0  0  0  0
  7 89  1  0  0  0  0
  8  9  1  0  0  0  0
  8 90  1  0  0  0  0
  9 10  1  0  0  0  0
  9 91  1  0  0  0  0
 10 11  1  0  0  0  0
 10 92  1  0  0  0  0
 11 12  1  0  0  0  0
 11 93  1  0  0  0  0
 12 13  1  0  0  0  0
 12 94  1  0  0  0  0
 13 14  1  0  0  0  0
 13 95  1  0  0  0  0
 14 15  1  0  0  0  0
 14 96  1  0  0  0  0
 15 16  1  0  0  0  0
 15 97  1  0  0  0  0
 16 17  1  0  0  0  0
 16 98  1  0  0  0  0
 17 18  1  0  0  0  0
 17 99  1  0  0  0  0
 18 19  1  0  0  0  0
 18100  1  0  0  0  0
 19 20  1  0  0  0  0
 19101  1  0  0  0  0
 20 21  1  0  0  0  0
 20102  1  0  0  0  0
 21 22  1  0  0  0  0
 21103  1  0  0  0  0
 22 23  1  0  0  0  0
 22104  1  0  0  0  0
 23 24  1  0  0  0  0
 23105  1  0  0  0  0
 24 25  1  0  0  0  0
 24106  1  0  0  0  0
 25 26  1  0  0  0  0
 25107  1  0  0  0  0
 26 27  1  0  0  0  0
 26108  1  0  0  0  0
 27 28  1  0  0  0  0
 27109  1  0  0  0  0
 28 29  1  0  0  0  0
 28110  1  0  0  0  0
 29 30  1  0  0  0  0
 29111  1  0  0  0  0
 30 31  1  0  0  0  0
 30112  1  0  0  0  0
 31 32  1  0  0  0  0
 31113  1  0  0  0  0
 32 33  1  0  0  0  0
 32114  1  0  0  0  0
 33 34  1  0  0  0  0
 33115  1  0  0  0  0
 34 35  1  0  0  0  0
 34116  1  0  0  0  0
 35 36  1  0  0  0  0
 35117  1  0  0  0  0
 36 37  1  0  0  0  0
 36118  1  0  0  0  0
 37 38  1  0  0  0  0
 37119  1  0  0  0  0
 38 39  1  0  0  0  0
 38120  1  0  0  0  0
 39 40  1  0  0  0  0
 39121  1  0  0  0  0
 40 41  1  0  0  0  0
 40122  1  0  0  0  0
 41 42  1  0  0  0  0
 41123  1  0  0  0  0
 42 43  1  0  0  0  0
 42124  1  0  0  0  0
 43 44  1  0  0  0  0
 43125  1  0  0  0  0
 44 45  1  0  0  0  0
 44126  1  0  0  0  0
 45 46  1  0  0  0  0
 45127  1  0  0  0  0
 46 47  1  0  0  0  0
 46128  1  0  0  0  0
 47 48  1  0  0  0  0
 47129  1  0  0  0  0
 48 49  1  0  0  0  0
 48130  1  0  0  0  0
 49 50  1  0  0  0  0
 49131  1  0  0  0  0
 50 51  1  0  0  0  0
 50132  1  0  0  0  0
 51 52  1  0  0  0  0
 51133  1  0  0  0  0
 52 53  1  0  0  0  0
 52134  1  0  0  0  0
 53 54  1  0  0  0  0
 53135  1  0  0  0  0
 54 55  1  0  0  0  0
 54136  1  0  0  0  0
 55 56  1  0  0  0  0
 55137  1  0  0  0  0
 56 57  1  0  0  0  0
 56138  1  0  0  0  0
 56139  1  0  0  0  0
 57 58  1  0  0  0  0
 57140  1  0  0  0  0
 57141  1  0  0  0  0
 58 59  1  0  0  0  0
 58142  1  0  0  0  0
 58143  1  0  0  0  0
 59 60  1  0  0  0  0
 59144  1  0  0  0  0
 59145  1  0  0  0  0
 60 61  1  0  0  0  0
 60146  1  0  0  0  0
 60147  1  0  0  0  0
 61 62  1  0  0  0  0
 61148  1  0  0  0  0
 61149  1  0  0  0  0
 62 63  1  0  0  0  0
 62150  1  0  0  0  0
 62151  1  0  0  0  0
 63 64  1  0  0  0  0
 63152  1  0  0  0  0
 63153  1  0  0  0  0
 64 65  1  0  0  0  0
 64154  1  0  0  0  0
 64155  1  0  0  0  0
 65 66  1  0  0  0  0
 65156  1  0  0  0  0
 65157  1  0  0  0  0
 66 67  1  0  0  0  0
 66158  1  0  0  0  0
 66159  1  0  0  0  0
 67 68  1  0  0  0  0
 67160  1  0  0  0  0
 67161  1  0  0  0  0
 68 69  1  0  0  0  0
 68162  1  0  0  0  0
 68163  1  0  0  0  0
 69 70  1  0  0  0  0
 69164  1  0  0  0  0
 69165  1  0  0  0  0
 70 71  1  0  0  0  0
 70166  1  0  0  0  0
 70167  1  0  0  0  0
 71 72  1  0  0  0  0
 71168  1  0  0  0  0
 71169  1  0  0  0  0
 72 73  1  0  0  0  0
 72170  1  0  0  0  0
 72171  1  0  0  0  0
 73 74  1  0  0  0  0
 73172  1  0  0  0  0
 73173  1  0  0  0  0
 74 75  1  0  0  0  0
 74174  1  0  0  0  0
 74175  1  0  0  0  0
 75 76  1  0  0  0  0
 75176  1  0  0  0  0
 75177  1  0  0  0  0
 76 77  1  0  0  0  0
 76178  1  0  0  0  0
 76179  1  0  0  0  0
 77 78  1  0  0  0  0
 77180  1  0  0  0  0
 77181  1  0  0  0  0
 78 79  1  0  0  0  0
 78182  1  0  0  0  0
 78183  1  0  0  0  0
 79 80  1  0  0  0  0
 79184  1  0  0  0  0
 79185  1  0  0  0  0
 80186  1  0  0  0  0
 80187  1  0  0  0  0
 80188  1  0  0  0  0
M  END
$$$$
