
 OpenBabel04232216473D

 60 62  0  0  1  0  0  0  0  0999 V2000
    2.7851   -0.8023    0.5223 C   0  0  0  0  0  0  0  0  0  0  0  0
    1.3148   -0.5358    0.6406 C   0  0  0  0  0  0  0  0  0  0  0  0
    0.7929    0.2635    1.6634 C   0  0  0  0  0  0  0  0  0  0  0  0
   -0.5846    0.5307    1.7417 C   0  0  0  0  0  0  0  0  0  0  0  0
   -1.4815   -0.0047    0.8057 C   0  0  0  0  0  0  0  0  0  0  0  0
   -2.9989    0.2604    0.8181 C   0  0  3  0  0  0  0  0  0  0  0  0
   -3.5773    0.8700    2.1096 C   0  0  0  0  0  0  0  0  0  0  0  0
   -3.5452    2.3975    2.1890 C   0  0  0  0  0  0  0  0  0  0  0  0
   -4.7971    3.0751    1.6217 C   0  0  0  0  0  0  0  0  0  0  0  0
   -4.9334    3.0629    0.0948 C   0  0  3  0  0  0  0  0  0  0  0  0
   -6.3193    3.6663   -0.2818 C   0  0  0  0  0  0  0  0  0  0  0  0
   -7.3110    2.9387   -0.3415 O   0  0  0  0  0  0  0  0  0  0  0  0
   -6.5041    5.1246   -0.5759 C   0  0  0  0  0  3  0  0  0  0  0  0
   -5.4368    6.1620   -0.4010 C   0  0  0  0  0  0  0  0  0  0  0  0
   -4.9556    6.7386   -1.7437 C   0  0  0  0  0  0  0  0  0  0  0  0
   -4.5478    5.6611   -2.7508 C   0  0  0  0  0  0  0  0  0  0  0  0
   -5.3852    5.5073   -4.0289 C   0  0  0  0  0  0  0  0  0  0  0  0
   -6.9167    5.6182   -4.0259 C   0  0  0  0  0  0  0  0  0  0  0  0
   -7.7098    4.5014   -3.3389 C   0  0  0  0  0  0  0  0  0  0  0  0
   -8.5733    4.9594   -2.1561 C   0  0  0  0  0  0  0  0  0  0  0  0
   -7.8436    5.6694   -1.0174 C   0  0  0  0  0  0  0  0  0  0  0  0
   -4.8243    1.6377   -0.5037 C   0  0  0  0  0  0  0  0  0  0  0  0
   -3.4282    0.9929   -0.4763 C   0  0  0  0  0  0  0  0  0  0  0  0
   -0.9438   -0.8395   -0.2000 C   0  0  0  0  0  0  0  0  0  0  0  0
    0.4281   -1.0975   -0.2819 C   0  0  0  0  0  0  0  0  0  0  0  0
    3.3573   -0.2694    1.3004 H   0  0  0  0  0  0  0  0  0  0  0  0
    3.1588   -0.4674   -0.4457 H   0  0  0  0  0  0  0  0  0  0  0  0
    2.9962   -1.8729    0.6404 H   0  0  0  0  0  0  0  0  0  0  0  0
    1.4593    0.6928    2.4097 H   0  0  0  0  0  0  0  0  0  0  0  0
   -0.9341    1.1606    2.5565 H   0  0  0  0  0  0  0  0  0  0  0  0
   -3.4456   -0.7466    0.7775 H   0  0  0  0  0  0  0  0  0  0  0  0
   -3.0623    0.4484    2.9806 H   0  0  0  0  0  0  0  0  0  0  0  0
   -4.6204    0.5345    2.2158 H   0  0  0  0  0  0  0  0  0  0  0  0
   -2.6393    2.8035    1.7265 H   0  0  0  0  0  0  0  0  0  0  0  0
   -3.4963    2.6609    3.2521 H   0  0  0  0  0  0  0  0  0  0  0  0
   -4.7942    4.1194    1.9599 H   0  0  0  0  0  0  0  0  0  0  0  0
   -5.6896    2.6256    2.0761 H   0  0  0  0  0  0  0  0  0  0  0  0
   -4.1382    3.6710   -0.3467 H   0  0  0  0  0  0  0  0  0  0  0  0
   -4.5861    5.7809    0.1692 H   0  0  0  0  0  0  0  0  0  0  0  0
   -5.8416    6.9870    0.2035 H   0  0  0  0  0  0  0  0  0  0  0  0
   -4.0826    7.3682   -1.5217 H   0  0  0  0  0  0  0  0  0  0  0  0
   -5.6979    7.4223   -2.1704 H   0  0  0  0  0  0  0  0  0  0  0  0
   -4.4485    4.6860   -2.2690 H   0  0  0  0  0  0  0  0  0  0  0  0
   -3.5272    5.9040   -3.0793 H   0  0  0  0  0  0  0  0  0  0  0  0
   -5.1074    4.5464   -4.4821 H   0  0  0  0  0  0  0  0  0  0  0  0
   -5.0264    6.2731   -4.7295 H   0  0  0  0  0  0  0  0  0  0  0  0
   -7.1999    5.5673   -5.0882 H   0  0  0  0  0  0  0  0  0  0  0  0
   -7.2402    6.6093   -3.6980 H   0  0  0  0  0  0  0  0  0  0  0  0
   -7.0704    3.6609   -3.0551 H   0  0  0  0  0  0  0  0  0  0  0  0
   -8.4183    4.0938   -4.0758 H   0  0  0  0  0  0  0  0  0  0  0  0
   -9.1225    4.0981   -1.7572 H   0  0  0  0  0  0  0  0  0  0  0  0
   -9.3502    5.6400   -2.5323 H   0  0  0  0  0  0  0  0  0  0  0  0
   -8.5044    5.7404   -0.1462 H   0  0  0  0  0  0  0  0  0  0  0  0
   -7.7116    6.7110   -1.3423 H   0  0  0  0  0  0  0  0  0  0  0  0
   -5.1146    1.7088   -1.5624 H   0  0  0  0  0  0  0  0  0  0  0  0
   -5.5559    0.9650   -0.0412 H   0  0  0  0  0  0  0  0  0  0  0  0
   -2.6752    1.7347   -0.7693 H   0  0  0  0  0  0  0  0  0  0  0  0
   -3.4197    0.2397   -1.2797 H   0  0  0  0  0  0  0  0  0  0  0  0
   -1.6009   -1.2980   -0.9419 H   0  0  0  0  0  0  0  0  0  0  0  0
    0.8041   -1.7317   -1.0814 H   0  0  0  0  0  0  0  0  0  0  0  0
  1  2  1  0  0  0  0
  1 26  1  0  0  0  0
  1 27  1  0  0  0  0
  1 28  1  0  0  0  0
  2  3  1  0  0  0  0
  2 25  2  0  0  0  0
  3  4  2  0  0  0  0
  3 29  1  0  0  0  0
  4  5  1  0  0  0  0
  4 30  1  0  0  0  0
  5  6  1  0  0  0  0
  5 24  2  0  0  0  0
  6  7  1  0  0  0  0
  6 23  1  0  0  0  0
  6 31  1  0  0  0  0
  7  8  1  0  0  0  0
  7 32  1  0  0  0  0
  7 33  1  0  0  0  0
  8  9  1  0  0  0  0
  8 34  1  0  0  0  0
  8 35  1  0  0  0  0
  9 10  1  0  0  0  0
  9 36  1  0  0  0  0
  9 37  1  0  0  0  0
 10 11  1  0  0  0  0
 10 22  1  0  0  0  0
 10 38  1  0  0  0  0
 11 12  2  0  0  0  0
 11 13  1  0  0  0  0
 13 14  1  0  0  0  0
 13 21  1  0  0  0  0
 14 15  1  0  0  0  0
 14 39  1  0  0  0  0
 14 40  1  0  0  0  0
 15 16  1  0  0  0  0
 15 41  1  0  0  0  0
 15 42  1  0  0  0  0
 16 17  1  0  0  0  0
 16 43  1  0  0  0  0
 16 44  1  0  0  0  0
 17 18  1  0  0  0  0
 17 45  1  0  0  0  0
 17 46  1  0  0  0  0
 18 19  1  0  0  0  0
 18 47  1  0  0  0  0
 18 48  1  0  0  0  0
 19 20  1  0  0  0  0
 19 49  1  0  0  0  0
 19 50  1  0  0  0  0
 20 21  1  0  0  0  0
 20 51  1  0  0  0  0
 20 52  1  0  0  0  0
 21 53  1  0  0  0  0
 21 54  1  0  0  0  0
 22 23  1  0  0  0  0
 22 55  1  0  0  0  0
 22 56  1  0  0  0  0
 23 57  1  0  0  0  0
 23 58  1  0  0  0  0
 24 25  1  0  0  0  0
 24 59  1  0  0  0  0
 25 60  1  0  0  0  0
M  END
$$$$
