
 OpenBabel04232216483D

 56 57  0  0  0  0  0  0  0  0999 V2000
   -6.9251   -0.5066    8.0901 C   0  0  0  0  0  0  0  0  0  0  0  0
   -6.6143    0.0443    6.7302 C   0  0  0  0  0  0  0  0  0  0  0  0
   -7.4981    0.9308    6.1054 C   0  0  0  0  0  0  0  0  0  0  0  0
   -7.2291    1.4507    4.8384 C   0  0  0  0  0  0  0  0  0  0  0  0
   -6.0502    1.0885    4.1497 C   0  0  0  0  0  0  0  0  0  0  0  0
   -5.7687    1.6610    2.7680 C   0  0  0  0  0  0  0  0  0  0  0  0
   -5.7869    3.2013    2.7391 C   0  0  0  0  0  0  0  0  0  0  0  0
   -5.5555    3.8789    1.3804 C   0  0  0  0  0  0  0  0  0  0  0  0
   -6.6700    3.8101    0.3184 C   0  0  0  0  0  0  0  0  0  0  0  0
   -8.1523    4.1715    0.6445 C   0  0  0  0  0  0  0  0  0  0  0  0
   -8.5742    5.5913    0.7771 N   0  0  0  0  0  0  0  0  0  0  0  0
   -9.3452    6.0939    1.8424 C   0  0  0  0  0  0  0  0  0  0  0  0
   -9.5402    5.4123    2.8490 O   0  0  0  0  0  0  0  0  0  0  0  0
   -9.8884    7.5955    1.7904 C   0  0  0  0  0  0  0  0  0  0  0  0
   -9.1654    8.3545    0.9198 C   0  0  0  0  0  0  0  0  0  0  0  0
   -8.8483    9.7693    1.0709 C   0  0  0  0  0  0  0  0  0  0  0  0
   -9.7306   10.7211    0.7040 C   0  0  0  0  0  0  0  0  0  0  0  0
  -10.5729   11.0005    1.8893 C   0  0  0  0  0  0  0  0  0  0  0  0
  -11.6156   12.0506    2.0237 C   0  0  0  0  0  0  0  0  0  0  0  0
  -12.4205   11.6538    3.0436 C   0  0  0  0  0  0  0  0  0  0  0  0
  -12.9770   10.2101    3.0599 C   0  0  0  0  0  0  0  0  0  0  0  0
  -12.1777    8.8622    3.4623 C   0  0  0  0  0  0  0  0  0  0  0  0
  -10.7206    8.1222    3.0867 C   0  0  0  0  0  0  0  0  0  0  0  0
   -5.1659    0.2009    4.7841 C   0  0  0  0  0  0  0  0  0  0  0  0
   -5.4461   -0.3187    6.0517 C   0  0  0  0  0  0  0  0  0  0  0  0
   -7.8761   -0.1166    8.4723 H   0  0  0  0  0  0  0  0  0  0  0  0
   -6.1447   -0.2295    8.8090 H   0  0  0  0  0  0  0  0  0  0  0  0
   -7.0057   -1.5993    8.0538 H   0  0  0  0  0  0  0  0  0  0  0  0
   -8.4162    1.2328    6.6042 H   0  0  0  0  0  0  0  0  0  0  0  0
   -7.9409    2.1185    4.3843 H   0  0  0  0  0  0  0  0  0  0  0  0
   -6.5159    1.2523    2.0790 H   0  0  0  0  0  0  0  0  0  0  0  0
   -4.7897    1.3083    2.4136 H   0  0  0  0  0  0  0  0  0  0  0  0
   -4.9921    3.5466    3.4159 H   0  0  0  0  0  0  0  0  0  0  0  0
   -6.7158    3.5924    3.1607 H   0  0  0  0  0  0  0  0  0  0  0  0
   -4.6421    3.4485    0.9417 H   0  0  0  0  0  0  0  0  0  0  0  0
   -5.3198    4.9357    1.5614 H   0  0  0  0  0  0  0  0  0  0  0  0
   -6.6768    2.7649   -0.0299 H   0  0  0  0  0  0  0  0  0  0  0  0
   -6.3306    4.3956   -0.5484 H   0  0  0  0  0  0  0  0  0  0  0  0
   -8.5202    3.5760    1.4801 H   0  0  0  0  0  0  0  0  0  0  0  0
   -8.7057    3.8357   -0.2456 H   0  0  0  0  0  0  0  0  0  0  0  0
   -8.6513    6.0713   -0.1054 H   0  0  0  0  0  0  0  0  0  0  0  0
   -8.5207    7.9317    0.1582 H   0  0  0  0  0  0  0  0  0  0  0  0
   -8.3439    9.8974    2.0370 H   0  0  0  0  0  0  0  0  0  0  0  0
  -10.3038   10.5929   -0.2148 H   0  0  0  0  0  0  0  0  0  0  0  0
  -10.0156   10.9494    2.8334 H   0  0  0  0  0  0  0  0  0  0  0  0
  -11.1830   10.1049    1.7723 H   0  0  0  0  0  0  0  0  0  0  0  0
  -12.0907   12.2102    1.0528 H   0  0  0  0  0  0  0  0  0  0  0  0
  -12.1325   12.0033    4.0418 H   0  0  0  0  0  0  0  0  0  0  0  0
  -13.4766   10.0450    2.0945 H   0  0  0  0  0  0  0  0  0  0  0  0
  -13.8108   10.2825    3.7784 H   0  0  0  0  0  0  0  0  0  0  0  0
  -12.9355    8.0790    3.3285 H   0  0  0  0  0  0  0  0  0  0  0  0
  -12.0897    8.9798    4.5560 H   0  0  0  0  0  0  0  0  0  0  0  0
  -10.8864    7.1828    3.6408 H   0  0  0  0  0  0  0  0  0  0  0  0
   -9.9785    8.6509    3.6975 H   0  0  0  0  0  0  0  0  0  0  0  0
   -4.2414   -0.1111    4.2891 H   0  0  0  0  0  0  0  0  0  0  0  0
   -4.7403   -1.0140    6.5067 H   0  0  0  0  0  0  0  0  0  0  0  0
  1  2  1  0  0  0  0
  1 26  1  0  0  0  0
  1 27  1  0  0  0  0
  1 28  1  0  0  0  0
  2  3  1  0  0  0  0
  2 25  2  0  0  0  0
  3  4  2  0  0  0  0
  3 29  1  0  0  0  0
  4  5  1  0  0  0  0
  4 30  1  0  0  0  0
  5  6  1  0  0  0  0
  5 24  2  0  0  0  0
  6  7  1  0  0  0  0
  6 31  1  0  0  0  0
  6 32  1  0  0  0  0
  7  8  1  0  0  0  0
  7 33  1  0  0  0  0
  7 34  1  0  0  0  0
  8  9  1  0  0  0  0
  8 35  1  0  0  0  0
  8 36  1  0  0  0  0
  9 10  1  0  0  0  0
  9 37  1  0  0  0  0
  9 38  1  0  0  0  0
 10 11  1  0  0  0  0
 10 39  1  0  0  0  0
 10 40  1  0  0  0  0
 11 12  1  0  0  0  0
 11 41  1  0  0  0  0
 12 13  2  0  0  0  0
 12 14  1  0  0  0  0
 14 15  2  3  0  0  0
 14 23  1  0  0  0  0
 15 16  1  0  0  0  0
 15 42  1  0  0  0  0
 16 17  2  3  0  0  0
 16 43  1  0  0  0  0
 17 18  1  0  0  0  0
 17 44  1  0  0  0  0
 18 19  1  0  0  0  0
 18 45  1  0  0  0  0
 18 46  1  0  0  0  0
 19 20  2  3  0  0  0
 19 47  1  0  0  0  0
 20 21  1  0  0  0  0
 20 48  1  0  0  0  0
 21 22  1  0  0  0  0
 21 49  1  0  0  0  0
 21 50  1  0  0  0  0
 22 23  1  0  0  0  0
 22 51  1  0  0  0  0
 22 52  1  0  0  0  0
 23 53  1  0  0  0  0
 23 54  1  0  0  0  0
 24 25  1  0  0  0  0
 24 55  1  0  0  0  0
 25 56  1  0  0  0  0
M  END
$$$$
