
 OpenBabel04232216393D

 46 48  0  0  0  0  0  0  0  0999 V2000
    2.0718    0.8854   -0.3272 C   0  0  0  0  0  0  0  0  0  0  0  0
    3.3170    1.1401    0.1646 C   0  0  0  0  0  0  0  0  0  0  0  0
    3.5396    0.2952    1.3119 C   0  0  0  0  0  0  0  0  0  0  0  0
    4.5308   -0.5922    1.2761 C   0  0  0  0  0  0  0  0  0  0  0  0
    5.2765   -1.1241    2.3908 C   0  0  0  0  0  0  0  0  0  0  0  0
    4.4962   -1.4134    3.6878 C   0  0  0  0  0  0  0  0  0  0  0  0
    4.3765   -0.3446    4.7664 C   0  0  0  0  0  0  0  0  0  0  0  0
    6.6395   -1.2505    2.2356 C   0  0  0  0  0  0  0  0  0  0  0  0
    7.5215   -0.9873    0.9603 C   0  0  0  0  0  0  0  0  0  0  0  0
    7.9680   -1.9692   -0.0847 C   0  0  0  0  0  0  0  0  0  0  0  0
    7.3210   -2.7155   -1.0073 N   0  0  0  0  0  0  0  0  0  0  0  0
    8.4219   -3.2124   -1.3710 N   0  0  0  0  0  0  0  0  0  0  0  0
    9.0772   -2.5553   -0.3260 N   0  0  0  0  0  0  0  0  0  0  0  0
    7.4698   -1.4797    3.4843 C   0  0  0  0  0  0  0  0  0  0  0  0
    7.1809   -2.6572    4.2109 C   0  0  0  0  0  0  0  0  0  0  0  0
    7.7566   -2.9267    5.4453 C   0  0  0  0  0  0  0  0  0  0  0  0
    8.8138   -2.1423    5.8721 C   0  0  0  0  0  0  0  0  0  0  0  0
    9.2163   -1.0265    5.1173 C   0  0  0  0  0  0  0  0  0  0  0  0
    8.4829   -0.5919    3.9892 C   0  0  0  0  0  0  0  0  0  0  0  0
    8.8399    0.7560    3.3737 C   0  0  0  0  0  0  0  0  0  0  0  0
    7.8691    1.4540    2.7475 C   0  0  0  0  0  0  0  0  0  0  0  0
    7.8019    2.4956    1.7060 C   0  0  0  0  0  0  0  0  0  0  0  0
    6.7919    2.5533    0.7957 C   0  0  0  0  0  0  0  0  0  0  0  0
    5.6478    2.5578   -0.1575 C   0  0  0  0  0  0  0  0  0  0  0  0
    4.3960    2.0278   -0.4322 C   0  0  0  0  0  0  0  0  0  0  0  0
    1.4047    0.1865    0.2074 H   0  0  0  0  0  0  0  0  0  0  0  0
    1.5899    1.2474   -1.2250 H   0  0  0  0  0  0  0  0  0  0  0  0
    2.7015    0.1583    1.9835 H   0  0  0  0  0  0  0  0  0  0  0  0
    4.9536   -0.7374    0.2995 H   0  0  0  0  0  0  0  0  0  0  0  0
    4.8722   -2.3326    4.1505 H   0  0  0  0  0  0  0  0  0  0  0  0
    3.4542   -1.5896    3.4248 H   0  0  0  0  0  0  0  0  0  0  0  0
    5.2984   -0.2508    5.3388 H   0  0  0  0  0  0  0  0  0  0  0  0
    3.6087   -0.6197    5.5035 H   0  0  0  0  0  0  0  0  0  0  0  0
    4.0805    0.6122    4.3278 H   0  0  0  0  0  0  0  0  0  0  0  0
    8.4473   -0.5173    1.3018 H   0  0  0  0  0  0  0  0  0  0  0  0
    7.0493   -0.2251    0.3531 H   0  0  0  0  0  0  0  0  0  0  0  0
    6.4460   -3.3693    3.8389 H   0  0  0  0  0  0  0  0  0  0  0  0
    7.3938   -3.7592    6.0449 H   0  0  0  0  0  0  0  0  0  0  0  0
    9.3244   -2.4034    6.7971 H   0  0  0  0  0  0  0  0  0  0  0  0
   10.1003   -0.4900    5.4543 H   0  0  0  0  0  0  0  0  0  0  0  0
    9.8999    1.0070    3.3673 H   0  0  0  0  0  0  0  0  0  0  0  0
    6.8648    1.1063    2.9497 H   0  0  0  0  0  0  0  0  0  0  0  0
    8.6757    3.1581    1.6531 H   0  0  0  0  0  0  0  0  0  0  0  0
    6.3082    1.6372    1.1487 H   0  0  0  0  0  0  0  0  0  0  0  0
    6.0279    3.1227   -1.0240 H   0  0  0  0  0  0  0  0  0  0  0  0
    4.0862    2.2441   -1.4609 H   0  0  0  0  0  0  0  0  0  0  0  0
  1  2  2  0  0  0  0
  1 26  1  0  0  0  0
  1 27  1  0  0  0  0
  2  3  1  0  0  0  0
  2 25  1  0  0  0  0
  3  4  2  3  0  0  0
  3 28  1  0  0  0  0
  4  5  1  0  0  0  0
  4 29  1  0  0  0  0
  5  6  1  0  0  0  0
  5  8  2  3  0  0  0
  6  7  1  0  0  0  0
  6 30  1  0  0  0  0
  6 31  1  0  0  0  0
  7 32  1  0  0  0  0
  7 33  1  0  0  0  0
  7 34  1  0  0  0  0
  8  9  1  0  0  0  0
  8 14  1  0  0  0  0
  9 10  1  0  0  0  0
  9 35  1  0  0  0  0
  9 36  1  0  0  0  0
 10 11  1  0  0  0  0
 10 13  2  0  0  0  0
 11 12  2  0  0  0  0
 12 13  1  0  0  0  0
 14 15  1  0  0  0  0
 14 19  2  0  0  0  0
 15 16  2  0  0  0  0
 15 37  1  0  0  0  0
 16 17  1  0  0  0  0
 16 38  1  0  0  0  0
 17 18  2  0  0  0  0
 17 39  1  0  0  0  0
 18 19  1  0  0  0  0
 18 40  1  0  0  0  0
 19 20  1  0  0  0  0
 20 21  2  3  0  0  0
 20 41  1  0  0  0  0
 21 22  1  0  0  0  0
 21 42  1  0  0  0  0
 22 23  2  3  0  0  0
 22 43  1  0  0  0  0
 23 24  1  0  0  0  0
 23 44  1  0  0  0  0
 24 25  2  3  0  0  0
 24 45  1  0  0  0  0
 25 46  1  0  0  0  0
M  END
$$$$
