
 OpenBabel04232216473D

 47 48  0  0  0  0  0  0  0  0999 V2000
    1.0608    0.0505   -0.1131 C   0  0  0  0  0  0  0  0  0  0  0  0
    2.5586    0.0270   -0.1345 C   0  0  0  0  0  0  0  0  0  0  0  0
    3.2321    1.1358   -0.7960 C   0  0  0  0  0  0  0  0  0  0  0  0
    3.9459    2.0571   -0.1352 C   0  0  0  0  0  0  0  0  0  0  0  0
    4.0629    2.0954    1.3306 C   0  0  0  0  0  0  0  0  0  0  0  0
    3.3449    3.0906    2.1296 C   0  0  0  0  0  0  0  0  0  0  0  0
    2.6177    4.0975    1.6188 C   0  0  0  0  0  0  0  0  0  0  0  0
    1.8308    5.0620    2.4510 C   0  0  0  0  0  0  0  0  0  0  0  0
    0.3480    5.0142    2.0831 C   0  0  0  0  0  0  0  0  0  0  0  0
   -0.4449    6.0110    2.9236 C   0  0  0  0  0  0  0  0  0  0  0  0
   -1.9271    5.9771    2.5698 C   0  0  0  0  0  0  0  0  0  0  0  0
   -2.7093    6.9736    3.4125 C   0  0  0  0  0  0  0  0  0  0  0  0
   -4.0863    6.9241    3.0692 O   0  0  0  0  0  0  0  0  0  0  0  0
    4.7393    1.1118    1.9684 C   0  0  0  0  0  0  0  0  0  0  0  0
    5.3727   -0.0277    1.3122 C   0  0  0  0  0  0  0  0  0  0  0  0
    4.7090   -0.9740    0.6084 C   0  0  0  0  0  0  0  0  0  0  0  0
    5.4842   -2.0479   -0.0918 C   0  0  0  0  0  0  0  0  0  0  0  0
    6.9548   -2.3922   -0.1734 C   0  0  0  0  0  0  0  0  0  0  0  0
    6.5359   -3.5160   -1.1416 C   0  0  0  0  0  0  0  0  0  0  0  0
    5.1180   -3.0540   -0.9097 C   0  0  0  0  0  0  0  0  0  0  0  0
    3.2503   -0.9331    0.5101 C   0  0  0  0  0  0  0  0  0  0  0  0
    0.6535    0.8906   -0.6842 H   0  0  0  0  0  0  0  0  0  0  0  0
    0.7037    0.1545    0.9178 H   0  0  0  0  0  0  0  0  0  0  0  0
    0.6519   -0.8745   -0.5316 H   0  0  0  0  0  0  0  0  0  0  0  0
    3.1814    1.1606   -1.8812 H   0  0  0  0  0  0  0  0  0  0  0  0
    4.4759    2.8408   -0.6708 H   0  0  0  0  0  0  0  0  0  0  0  0
    3.3725    2.9599    3.2102 H   0  0  0  0  0  0  0  0  0  0  0  0
    2.5501    4.2370    0.5404 H   0  0  0  0  0  0  0  0  0  0  0  0
    2.2290    6.0688    2.2825 H   0  0  0  0  0  0  0  0  0  0  0  0
    1.9492    4.8413    3.5195 H   0  0  0  0  0  0  0  0  0  0  0  0
   -0.0468    4.0025    2.2410 H   0  0  0  0  0  0  0  0  0  0  0  0
    0.2165    5.2454    1.0177 H   0  0  0  0  0  0  0  0  0  0  0  0
   -0.0510    7.0219    2.7619 H   0  0  0  0  0  0  0  0  0  0  0  0
   -0.3135    5.7792    3.9876 H   0  0  0  0  0  0  0  0  0  0  0  0
   -2.3334    4.9692    2.7215 H   0  0  0  0  0  0  0  0  0  0  0  0
   -2.0694    6.2022    1.5058 H   0  0  0  0  0  0  0  0  0  0  0  0
   -2.3461    7.9946    3.2559 H   0  0  0  0  0  0  0  0  0  0  0  0
   -2.6158    6.7366    4.4770 H   0  0  0  0  0  0  0  0  0  0  0  0
   -4.1612    7.1481    2.1260 H   0  0  0  0  0  0  0  0  0  0  0  0
    4.8076    1.0916    3.0552 H   0  0  0  0  0  0  0  0  0  0  0  0
    6.4577   -0.0506    1.3918 H   0  0  0  0  0  0  0  0  0  0  0  0
    7.4113   -2.7481    0.7567 H   0  0  0  0  0  0  0  0  0  0  0  0
    7.6094   -1.6321   -0.6139 H   0  0  0  0  0  0  0  0  0  0  0  0
    6.7724   -4.5267   -0.7923 H   0  0  0  0  0  0  0  0  0  0  0  0
    6.9170   -3.4024   -2.1622 H   0  0  0  0  0  0  0  0  0  0  0  0
    4.1632   -3.3857   -1.3077 H   0  0  0  0  0  0  0  0  0  0  0  0
    2.7310   -1.7397    1.0216 H   0  0  0  0  0  0  0  0  0  0  0  0
  1  2  1  0  0  0  0
  1 22  1  0  0  0  0
  1 23  1  0  0  0  0
  1 24  1  0  0  0  0
  2  3  1  0  0  0  0
  2 21  2  0  0  0  0
  3  4  2  0  0  0  0
  3 25  1  0  0  0  0
  4  5  1  0  0  0  0
  4 26  1  0  0  0  0
  5  6  1  0  0  0  0
  5 14  2  0  0  0  0
  6  7  2  3  0  0  0
  6 27  1  0  0  0  0
  7  8  1  0  0  0  0
  7 28  1  0  0  0  0
  8  9  1  0  0  0  0
  8 29  1  0  0  0  0
  8 30  1  0  0  0  0
  9 10  1  0  0  0  0
  9 31  1  0  0  0  0
  9 32  1  0  0  0  0
 10 11  1  0  0  0  0
 10 33  1  0  0  0  0
 10 34  1  0  0  0  0
 11 12  1  0  0  0  0
 11 35  1  0  0  0  0
 11 36  1  0  0  0  0
 12 13  1  0  0  0  0
 12 37  1  0  0  0  0
 12 38  1  0  0  0  0
 13 39  1  0  0  0  0
 14 15  1  0  0  0  0
 14 40  1  0  0  0  0
 15 16  2  0  0  0  0
 15 41  1  0  0  0  0
 16 17  1  0  0  0  0
 16 21  1  0  0  0  0
 17 18  1  0  0  0  0
 17 20  2  0  0  0  0
 18 19  1  0  0  0  0
 18 42  1  0  0  0  0
 18 43  1  0  0  0  0
 19 20  1  0  0  0  0
 19 44  1  0  0  0  0
 19 45  1  0  0  0  0
 20 46  1  0  0  0  0
 21 47  1  0  0  0  0
M  END
$$$$
