
 OpenBabel04232216523D

 71 72  0  0  1  0  0  0  0  0999 V2000
    4.1991   -0.6020   -0.4580 C   0  0  0  0  0  0  0  0  0  0  0  0
    5.9716   -1.1024   -1.4843 C   0  0  0  0  0  0  0  0  0  0  0  0
    8.1181   -1.6793   -1.8123 C   0  0  0  0  0  0  0  0  0  0  0  0
    9.6706   -2.6557   -3.2299 C   0  0  3  0  0  0  0  0  0  0  0  0
    7.6905   -2.8517   -3.5690 C   0  0  0  0  0  0  0  0  0  0  0  0
    7.9814   -1.4639   -3.8094 C   0  0  0  0  0  0  0  0  0  0  0  0
    7.7271   -1.5178   -5.1623 C   0  0  0  0  0  0  0  0  0  0  0  0
    9.1863   -1.1298   -5.2889 C   0  0  0  0  0  0  0  0  0  0  0  0
    9.0646   -2.3923   -6.0614 C   0  0  0  0  0  0  0  0  0  0  0  0
   10.3447   -2.9145   -6.1961 C   0  0  0  0  0  0  0  0  0  0  0  0
   10.6198   -3.3308   -7.5515 C   0  0  0  0  0  0  0  0  0  0  0  0
   12.0408   -2.9268   -7.5378 C   0  0  0  0  0  0  0  0  0  0  0  0
   12.8716   -3.4119   -8.6820 C   0  0  0  0  0  0  0  0  0  0  0  0
   14.4677   -2.8321   -8.8711 C   0  0  0  0  0  0  0  0  0  0  0  0
   14.8042   -1.6568   -8.6372 O   0  0  0  0  0  0  0  0  0  0  0  0
   15.5667   -3.9166   -8.6570 C   0  0  0  0  0  0  0  0  0  0  0  0
   14.5504   -3.4445   -7.1547 C   0  0  0  0  0  0  0  0  0  0  0  0
   13.3490   -3.6348   -5.4612 C   0  0  0  0  0  0  0  0  0  0  0  0
   15.2375   -4.5443   -6.2587 C   0  0  0  0  0  0  0  0  0  0  0  0
   17.0224   -5.1881   -7.4468 C   0  0  0  0  0  0  0  0  0  0  0  0
   18.6648   -5.6909   -8.7637 C   0  0  0  0  0  0  0  0  0  0  0  0
   19.6901   -6.6762  -10.2623 C   0  0  0  0  0  0  0  0  0  0  0  0
   21.3229   -6.1335  -11.0756 C   0  0  0  0  0  0  0  0  0  0  0  0
   20.3988   -5.6683  -12.3488 C   0  0  0  0  0  0  0  0  0  0  0  0
   18.8132   -4.6313  -11.4689 C   0  0  0  0  0  0  0  0  0  0  0  0
   17.0180   -4.3322  -10.2343 C   0  0  0  0  0  0  0  0  0  0  0  0
   11.7293   -3.2175   -4.3008 C   0  0  0  0  0  0  0  0  0  0  0  0
    3.2305    0.1731   -0.9328 H   0  0  0  0  0  0  0  0  0  0  0  0
    3.9793    0.1093    0.5365 H   0  0  0  0  0  0  0  0  0  0  0  0
    3.1414   -1.2887   -0.2182 H   0  0  0  0  0  0  0  0  0  0  0  0
    5.7307    0.1367   -1.6533 H   0  0  0  0  0  0  0  0  0  0  0  0
    4.9997   -1.3157   -2.3086 H   0  0  0  0  0  0  0  0  0  0  0  0
    7.5275   -2.3992   -1.1331 H   0  0  0  0  0  0  0  0  0  0  0  0
    7.9613   -0.5017   -1.7108 H   0  0  0  0  0  0  0  0  0  0  0  0
   10.1624   -1.7606   -2.5007 H   0  0  0  0  0  0  0  0  0  0  0  0
    6.6004   -2.0633   -3.6308 H   0  0  0  0  0  0  0  0  0  0  0  0
    6.7631   -3.1682   -2.7530 H   0  0  0  0  0  0  0  0  0  0  0  0
    8.1789   -2.5027   -3.1321 H   0  0  0  0  0  0  0  0  0  0  0  0
    7.6551   -0.4750   -3.4053 H   0  0  0  0  0  0  0  0  0  0  0  0
    6.9270   -0.8907   -5.4456 H   0  0  0  0  0  0  0  0  0  0  0  0
    7.2245   -2.5628   -5.3570 H   0  0  0  0  0  0  0  0  0  0  0  0
   10.0716   -1.1689   -4.5638 H   0  0  0  0  0  0  0  0  0  0  0  0
    9.0482   -0.0624   -5.0284 H   0  0  0  0  0  0  0  0  0  0  0  0
    8.5438   -2.1672   -6.9727 H   0  0  0  0  0  0  0  0  0  0  0  0
    8.6863   -3.3299   -5.5354 H   0  0  0  0  0  0  0  0  0  0  0  0
   10.3558   -3.8464   -5.5928 H   0  0  0  0  0  0  0  0  0  0  0  0
   10.9698   -2.0752   -5.8870 H   0  0  0  0  0  0  0  0  0  0  0  0
   10.0230   -2.8128   -8.2716 H   0  0  0  0  0  0  0  0  0  0  0  0
   10.4676   -4.4263   -7.4887 H   0  0  0  0  0  0  0  0  0  0  0  0
   12.1476   -3.7329   -6.8347 H   0  0  0  0  0  0  0  0  0  0  0  0
   12.3664   -1.9896   -7.0091 H   0  0  0  0  0  0  0  0  0  0  0  0
   12.3145   -3.1697   -9.5460 H   0  0  0  0  0  0  0  0  0  0  0  0
   12.9023   -4.4998   -8.4163 H   0  0  0  0  0  0  0  0  0  0  0  0
   15.0688   -2.5279   -6.7006 H   0  0  0  0  0  0  0  0  0  0  0  0
   15.4579   -5.3623   -5.6121 H   0  0  0  0  0  0  0  0  0  0  0  0
   16.1645   -3.7001   -6.1493 H   0  0  0  0  0  0  0  0  0  0  0  0
   17.3870   -4.1683   -7.8829 H   0  0  0  0  0  0  0  0  0  0  0  0
   16.5887   -5.9786   -8.0711 H   0  0  0  0  0  0  0  0  0  0  0  0
   19.6146   -5.8655   -8.1872 H   0  0  0  0  0  0  0  0  0  0  0  0
   19.0372   -4.7127   -9.1782 H   0  0  0  0  0  0  0  0  0  0  0  0
   19.0666   -6.7618  -11.2335 H   0  0  0  0  0  0  0  0  0  0  0  0
   19.9690   -7.7806  -10.4724 H   0  0  0  0  0  0  0  0  0  0  0  0
   22.1151   -6.9847  -11.2607 H   0  0  0  0  0  0  0  0  0  0  0  0
   22.0875   -5.2857  -11.2202 H   0  0  0  0  0  0  0  0  0  0  0  0
   21.1728   -5.2079  -13.1764 H   0  0  0  0  0  0  0  0  0  0  0  0
   20.6201   -6.7311  -12.8725 H   0  0  0  0  0  0  0  0  0  0  0  0
   19.3459   -3.6928  -11.8545 H   0  0  0  0  0  0  0  0  0  0  0  0
   19.6104   -4.7940  -10.7680 H   0  0  0  0  0  0  0  0  0  0  0  0
   17.0412   -5.4805  -10.2324 H   0  0  0  0  0  0  0  0  0  0  0  0
   16.4812   -4.3227  -11.2267 H   0  0  0  0  0  0  0  0  0  0  0  0
   11.5002   -4.1154   -3.7026 H   0  0  0  0  0  0  0  0  0  0  0  0
  1  2  1  0  0  0  0
  1 28  1  0  0  0  0
  1 29  1  0  0  0  0
  1 30  1  0  0  0  0
  2  3  1  0  0  0  0
  2 31  1  0  0  0  0
  2 32  1  0  0  0  0
  3  4  1  0  0  0  0
  3 33  1  0  0  0  0
  3 34  1  0  0  0  0
  4  5  1  0  0  0  0
  4 27  1  0  0  0  0
  4 35  1  0  0  0  0
  5  6  1  0  0  0  0
  5 36  1  0  0  0  0
  5 37  1  0  0  0  0
  6  7  1  0  0  0  0
  6 38  1  0  0  0  0
  6 39  1  0  0  0  0
  7  8  1  0  0  0  0
  7 40  1  0  0  0  0
  7 41  1  0  0  0  0
  8  9  1  0  0  0  0
  8 42  1  0  0  0  0
  8 43  1  0  0  0  0
  9 10  1  0  0  0  0
  9 44  1  0  0  0  0
  9 45  1  0  0  0  0
 10 11  1  0  0  0  0
 10 46  1  0  0  0  0
 10 47  1  0  0  0  0
 11 12  1  0  0  0  0
 11 48  1  0  0  0  0
 11 49  1  0  0  0  0
 12 13  1  0  0  0  0
 12 50  1  0  0  0  0
 12 51  1  0  0  0  0
 13 14  1  0  0  0  0
 13 52  1  0  0  0  0
 13 53  1  0  0  0  0
 14 15  2  0  0  0  0
 14 16  1  0  0  0  0
 16 17  2  3  0  0  0
 16 26  1  0  0  0  0
 17 18  1  0  0  0  0
 17 54  1  0  0  0  0
 18 19  1  0  0  0  0
 18 27  2  3  0  0  0
 19 20  1  0  0  0  0
 19 55  1  0  0  0  0
 19 56  1  0  0  0  0
 20 21  1  0  0  0  0
 20 57  1  0  0  0  0
 20 58  1  0  0  0  0
 21 22  1  0  0  0  0
 21 59  1  0  0  0  0
 21 60  1  0  0  0  0
 22 23  1  0  0  0  0
 22 61  1  0  0  0  0
 22 62  1  0  0  0  0
 23 24  1  0  0  0  0
 23 63  1  0  0  0  0
 23 64  1  0  0  0  0
 24 25  1  0  0  0  0
 24 65  1  0  0  0  0
 24 66  1  0  0  0  0
 25 26  1  0  0  0  0
 25 67  1  0  0  0  0
 25 68  1  0  0  0  0
 26 69  1  0  0  0  0
 26 70  1  0  0  0  0
 27 71  1  0  0  0  0
M  END
$$$$
