
 OpenBabel04232217003D

235234  0  0  0  0  0  0  0  0999 V2000
    3.2593   -0.6144    1.4121 O   0  0  0  0  0  0  0  0  0  0  0  0
    4.0495    0.2989    1.6499 C   0  0  0  0  0  0  0  0  0  0  0  0
    4.8025    1.0669    0.6020 C   0  0  0  0  0  0  0  0  0  0  0  0
    4.4698    0.5775   -0.8057 C   0  0  0  0  0  0  0  0  0  0  0  0
    5.2273    1.3659   -1.8547 C   0  0  0  0  0  0  0  0  0  0  0  0
    6.6278    1.2168   -1.6205 O   0  0  0  0  0  0  0  0  0  0  0  0
    7.3218    1.9799   -2.6408 N   0  0  0  0  0  0  0  0  0  0  0  0
    8.7379    1.7705   -2.3640 C   0  0  0  0  0  0  0  0  0  0  0  0
    9.5257    2.5570   -3.4017 C   0  0  0  0  0  0  0  0  0  0  0  0
   11.0211    2.4009   -3.1787 C   0  0  0  0  0  0  0  0  0  0  0  0
   11.7892    3.1890   -4.2287 C   0  0  0  0  0  0  0  0  0  0  0  0
   13.2842    3.0355   -4.0108 C   0  0  0  0  0  0  0  0  0  0  0  0
   14.0485    3.8246   -5.0594 C   0  0  0  0  0  0  0  0  0  0  0  0
   15.5423    3.6701   -4.8375 C   0  0  0  0  0  0  0  0  0  0  0  0
   16.3064    4.4585   -5.8851 C   0  0  0  0  0  0  0  0  0  0  0  0
   17.7992    4.3017   -5.6632 C   0  0  0  0  0  0  0  0  0  0  0  0
   18.5621    5.0915   -6.7098 C   0  0  0  0  0  0  0  0  0  0  0  0
   20.0545    4.9327   -6.4889 C   0  0  0  0  0  0  0  0  0  0  0  0
   20.8167    5.7208   -7.5368 C   0  0  0  0  0  0  0  0  0  0  0  0
   22.3090    5.5609   -7.3167 C   0  0  0  0  0  0  0  0  0  0  0  0
   23.0716    6.3473   -8.3657 C   0  0  0  0  0  0  0  0  0  0  0  0
   24.5632    6.1882   -8.1438 C   0  0  0  0  0  0  0  0  0  0  0  0
   25.3261    6.9765   -9.1917 C   0  0  0  0  0  0  0  0  0  0  0  0
   26.8181    6.8159   -8.9715 C   0  0  0  0  0  0  0  0  0  0  0  0
   27.5806    7.6041  -10.0192 C   0  0  0  0  0  0  0  0  0  0  0  0
   29.0727    7.4420   -9.8004 C   0  0  0  0  0  0  0  0  0  0  0  0
   29.8351    8.2302  -10.8480 C   0  0  0  0  0  0  0  0  0  0  0  0
   31.3271    8.0680  -10.6292 C   0  0  0  0  0  0  0  0  0  0  0  0
   32.0896    8.8563  -11.6768 C   0  0  0  0  0  0  0  0  0  0  0  0
   33.5816    8.6940  -11.4579 C   0  0  0  0  0  0  0  0  0  0  0  0
   34.3440    9.4823  -12.5055 C   0  0  0  0  0  0  0  0  0  0  0  0
   35.8360    9.3201  -12.2866 C   0  0  0  0  0  0  0  0  0  0  0  0
   36.5984   10.1099  -13.3331 C   0  0  0  0  0  0  0  0  0  0  0  0
   38.0904    9.9477  -13.1141 C   0  0  0  0  0  0  0  0  0  0  0  0
   38.8528   10.7375  -14.1606 C   0  0  0  0  0  0  0  0  0  0  0  0
   40.3448   10.5754  -13.9416 C   0  0  0  0  0  0  0  0  0  0  0  0
   41.1072   11.3637  -14.9892 C   0  0  0  0  0  0  0  0  0  0  0  0
   42.5992   11.2031  -14.7691 C   0  0  0  0  0  0  0  0  0  0  0  0
   43.3616   11.9928  -15.8156 C   0  0  0  0  0  0  0  0  0  0  0  0
   44.8536   11.8307  -15.5966 C   0  0  0  0  0  0  0  0  0  0  0  0
   45.6160   12.6189  -16.6443 C   0  0  0  0  0  0  0  0  0  0  0  0
   47.1080   12.4551  -16.4265 C   0  0  0  0  0  0  0  0  0  0  0  0
   47.8704   13.2433  -17.4742 C   0  0  0  0  0  0  0  0  0  0  0  0
   49.3624   13.0795  -17.2565 C   0  0  0  0  0  0  0  0  0  0  0  0
   50.1248   13.8678  -18.3041 C   0  0  0  0  0  0  0  0  0  0  0  0
   51.6168   13.7040  -18.0864 C   0  0  0  0  0  0  0  0  0  0  0  0
   52.3792   14.4921  -19.1341 C   0  0  0  0  0  0  0  0  0  0  0  0
   53.8712   14.3268  -18.9176 C   0  0  0  0  0  0  0  0  0  0  0  0
   54.6336   15.1135  -19.9664 C   0  0  0  0  0  0  0  0  0  0  0  0
   56.1256   14.9495  -19.7488 C   0  0  0  0  0  0  0  0  0  0  0  0
   56.8881   15.7362  -20.7976 C   0  0  0  0  0  0  0  0  0  0  0  0
   58.3800   15.5708  -20.5811 C   0  0  0  0  0  0  0  0  0  0  0  0
   59.1425   16.3590  -21.6288 C   0  0  0  0  0  0  0  0  0  0  0  0
   60.6344   16.1920  -21.4135 C   0  0  0  0  0  0  0  0  0  0  0  0
   61.3969   16.9817  -22.4600 C   0  0  0  0  0  0  0  0  0  0  0  0
   62.8888   16.8131  -22.2459 C   0  0  0  0  0  0  0  0  0  0  0  0
   63.6513   17.6014  -23.2935 C   0  0  0  0  0  0  0  0  0  0  0  0
   65.1432   17.4328  -23.0794 C   0  0  0  0  0  0  0  0  0  0  0  0
   65.9057   18.2225  -24.1259 C   0  0  0  0  0  0  0  0  0  0  0  0
   67.3976   18.0539  -23.9118 C   0  0  0  0  0  0  0  0  0  0  0  0
   68.1600   18.8438  -24.9583 C   0  0  0  0  0  0  0  0  0  0  0  0
   69.6520   18.6751  -24.7442 C   0  0  0  0  0  0  0  0  0  0  0  0
   70.4144   19.4652  -25.7906 C   0  0  0  0  0  0  0  0  0  0  0  0
   71.9063   19.2968  -25.5756 C   0  0  0  0  0  0  0  0  0  0  0  0
   72.6694   20.0877  -26.6206 C   0  0  0  0  0  0  0  0  0  0  0  0
   74.1614   19.9181  -26.4079 C   0  0  0  0  0  0  0  0  0  0  0  0
   74.9235   20.7074  -27.4552 C   0  0  0  0  0  0  0  0  0  0  0  0
   76.4167   20.5395  -27.2418 C   0  0  0  0  0  0  0  0  0  0  0  0
   77.1790   21.3265  -28.2887 C   0  0  0  0  0  0  0  0  0  0  0  0
   78.6709   21.1583  -28.0750 C   0  0  0  0  0  0  0  0  0  0  0  0
   79.4338   21.9464  -29.1224 C   0  0  0  0  0  0  0  0  0  0  0  0
   80.9261   21.7779  -28.9085 C   0  0  0  0  0  0  0  0  0  0  0  0
   81.6903   22.5660  -29.9560 C   0  0  0  0  0  0  0  0  0  0  0  0
   83.1837   22.3984  -29.7432 C   0  0  0  0  0  0  0  0  0  0  0  0
   83.9483   23.1887  -30.7904 C   0  0  0  0  0  0  0  0  0  0  0  0
   85.4438   23.0233  -30.5805 C   0  0  0  0  0  0  0  0  0  0  0  0
   86.2121   23.8139  -31.6281 C   0  0  0  0  0  0  0  0  0  0  0  0
   87.7103   23.6507  -31.4179 C   0  0  0  0  0  0  0  0  0  0  0  0
   88.4912   24.4371  -32.4631 C   0  0  0  0  0  0  0  0  0  0  0  0
   89.9843   24.2722  -32.2506 C   0  0  0  0  0  0  0  0  0  0  0  0
    4.2489    0.6080    2.6894 H   0  0  0  0  0  0  0  0  0  0  0  0
    5.8723    0.9536    0.8121 H   0  0  0  0  0  0  0  0  0  0  0  0
    4.5454    2.1267    0.7074 H   0  0  0  0  0  0  0  0  0  0  0  0
    3.3920    0.6671   -0.9899 H   0  0  0  0  0  0  0  0  0  0  0  0
    4.7246   -0.4867   -0.8889 H   0  0  0  0  0  0  0  0  0  0  0  0
    4.9619    2.4282   -1.7842 H   0  0  0  0  0  0  0  0  0  0  0  0
    4.9768    1.0004   -2.8564 H   0  0  0  0  0  0  0  0  0  0  0  0
    7.0862    2.9372   -2.3779 H   0  0  0  0  0  0  0  0  0  0  0  0
    8.9912    0.7057   -2.4266 H   0  0  0  0  0  0  0  0  0  0  0  0
    8.9884    2.1222   -1.3550 H   0  0  0  0  0  0  0  0  0  0  0  0
    9.2579    3.6206   -3.3513 H   0  0  0  0  0  0  0  0  0  0  0  0
    9.2667    2.2075   -4.4097 H   0  0  0  0  0  0  0  0  0  0  0  0
   11.2989    1.3414   -3.2325 H   0  0  0  0  0  0  0  0  0  0  0  0
   11.2891    2.7577   -2.1767 H   0  0  0  0  0  0  0  0  0  0  0  0
   11.5131    4.2495   -4.1764 H   0  0  0  0  0  0  0  0  0  0  0  0
   11.5218    2.8344   -5.2318 H   0  0  0  0  0  0  0  0  0  0  0  0
   13.5629    1.9761   -4.0662 H   0  0  0  0  0  0  0  0  0  0  0  0
   13.5540    3.3903   -3.0085 H   0  0  0  0  0  0  0  0  0  0  0  0
   13.7715    4.8847   -5.0060 H   0  0  0  0  0  0  0  0  0  0  0  0
   13.7821    3.4700   -6.0627 H   0  0  0  0  0  0  0  0  0  0  0  0
   15.8208    2.6104   -4.8913 H   0  0  0  0  0  0  0  0  0  0  0  0
   15.8100    4.0254   -3.8347 H   0  0  0  0  0  0  0  0  0  0  0  0
   16.0302    5.5187   -5.8305 H   0  0  0  0  0  0  0  0  0  0  0  0
   16.0390    4.1047   -6.8884 H   0  0  0  0  0  0  0  0  0  0  0  0
   18.0764    3.2417   -5.7195 H   0  0  0  0  0  0  0  0  0  0  0  0
   18.0676    4.6545   -4.6598 H   0  0  0  0  0  0  0  0  0  0  0  0
   18.2866    6.1518   -6.6530 H   0  0  0  0  0  0  0  0  0  0  0  0
   18.2934    4.7397   -7.7136 H   0  0  0  0  0  0  0  0  0  0  0  0
   20.3301    3.8724   -6.5445 H   0  0  0  0  0  0  0  0  0  0  0  0
   20.3238    5.2859   -5.4858 H   0  0  0  0  0  0  0  0  0  0  0  0
   20.5424    6.7813   -7.4804 H   0  0  0  0  0  0  0  0  0  0  0  0
   20.5469    5.3684   -8.5399 H   0  0  0  0  0  0  0  0  0  0  0  0
   22.5837    4.5000   -7.3720 H   0  0  0  0  0  0  0  0  0  0  0  0
   22.5792    5.9141   -6.3140 H   0  0  0  0  0  0  0  0  0  0  0  0
   22.7961    7.4082   -8.3112 H   0  0  0  0  0  0  0  0  0  0  0  0
   22.8020    5.9931   -9.3682 H   0  0  0  0  0  0  0  0  0  0  0  0
   24.8389    5.1280   -8.1998 H   0  0  0  0  0  0  0  0  0  0  0  0
   24.8329    6.5415   -7.1412 H   0  0  0  0  0  0  0  0  0  0  0  0
   25.0517    8.0370   -9.1353 H   0  0  0  0  0  0  0  0  0  0  0  0
   25.0562    6.6243  -10.1949 H   0  0  0  0  0  0  0  0  0  0  0  0
   27.0926    5.7553   -9.0282 H   0  0  0  0  0  0  0  0  0  0  0  0
   27.0884    7.1681   -7.9684 H   0  0  0  0  0  0  0  0  0  0  0  0
   27.3072    8.6649   -9.9618 H   0  0  0  0  0  0  0  0  0  0  0  0
   27.3095    7.2530  -11.0225 H   0  0  0  0  0  0  0  0  0  0  0  0
   29.3462    6.3812   -9.8579 H   0  0  0  0  0  0  0  0  0  0  0  0
   29.3440    7.7932   -8.7971 H   0  0  0  0  0  0  0  0  0  0  0  0
   29.5617    9.2911  -10.7905 H   0  0  0  0  0  0  0  0  0  0  0  0
   29.5639    7.8790  -11.8513 H   0  0  0  0  0  0  0  0  0  0  0  0
   31.6006    7.0072  -10.6867 H   0  0  0  0  0  0  0  0  0  0  0  0
   31.5984    8.4192   -9.6259 H   0  0  0  0  0  0  0  0  0  0  0  0
   31.8162    9.9171  -11.6193 H   0  0  0  0  0  0  0  0  0  0  0  0
   31.8183    8.5051  -12.6801 H   0  0  0  0  0  0  0  0  0  0  0  0
   33.8550    7.6332  -11.5154 H   0  0  0  0  0  0  0  0  0  0  0  0
   33.8528    9.0452  -10.4546 H   0  0  0  0  0  0  0  0  0  0  0  0
   34.0705   10.5431  -12.4479 H   0  0  0  0  0  0  0  0  0  0  0  0
   34.0728    9.1312  -13.5088 H   0  0  0  0  0  0  0  0  0  0  0  0
   36.1096    8.2594  -12.3455 H   0  0  0  0  0  0  0  0  0  0  0  0
   36.1071    9.6700  -11.2828 H   0  0  0  0  0  0  0  0  0  0  0  0
   36.3248   11.1706  -13.2741 H   0  0  0  0  0  0  0  0  0  0  0  0
   36.3273    9.7601  -14.3368 H   0  0  0  0  0  0  0  0  0  0  0  0
   38.3640    8.8871  -13.1731 H   0  0  0  0  0  0  0  0  0  0  0  0
   38.3614   10.2976  -12.1103 H   0  0  0  0  0  0  0  0  0  0  0  0
   38.5792   11.7982  -14.1016 H   0  0  0  0  0  0  0  0  0  0  0  0
   38.5817   10.3877  -15.1643 H   0  0  0  0  0  0  0  0  0  0  0  0
   40.6183    9.5146  -13.9992 H   0  0  0  0  0  0  0  0  0  0  0  0
   40.6159   10.9265  -12.9383 H   0  0  0  0  0  0  0  0  0  0  0  0
   40.8327   12.4243  -14.9326 H   0  0  0  0  0  0  0  0  0  0  0  0
   40.8370   11.0116  -15.9924 H   0  0  0  0  0  0  0  0  0  0  0  0
   42.8738   10.1426  -14.8271 H   0  0  0  0  0  0  0  0  0  0  0  0
   42.8693   11.5539  -13.7654 H   0  0  0  0  0  0  0  0  0  0  0  0
   43.0880   13.0535  -15.7567 H   0  0  0  0  0  0  0  0  0  0  0  0
   43.0906   11.6429  -16.8193 H   0  0  0  0  0  0  0  0  0  0  0  0
   45.1270   10.7699  -15.6543 H   0  0  0  0  0  0  0  0  0  0  0  0
   45.1249   12.1818  -14.5934 H   0  0  0  0  0  0  0  0  0  0  0  0
   45.3436   13.6800  -16.5858 H   0  0  0  0  0  0  0  0  0  0  0  0
   45.3438   12.2687  -17.6476 H   0  0  0  0  0  0  0  0  0  0  0  0
   47.3803   11.3941  -16.4851 H   0  0  0  0  0  0  0  0  0  0  0  0
   47.3803   12.8053  -15.4232 H   0  0  0  0  0  0  0  0  0  0  0  0
   47.5981   14.3044  -17.4157 H   0  0  0  0  0  0  0  0  0  0  0  0
   47.5981   12.8931  -18.4775 H   0  0  0  0  0  0  0  0  0  0  0  0
   49.6347   12.0185  -17.3150 H   0  0  0  0  0  0  0  0  0  0  0  0
   49.6347   13.4297  -16.2532 H   0  0  0  0  0  0  0  0  0  0  0  0
   49.8525   14.9288  -18.2457 H   0  0  0  0  0  0  0  0  0  0  0  0
   49.8525   13.5176  -19.3074 H   0  0  0  0  0  0  0  0  0  0  0  0
   51.8891   12.6429  -18.1449 H   0  0  0  0  0  0  0  0  0  0  0  0
   51.8892   14.0541  -17.0832 H   0  0  0  0  0  0  0  0  0  0  0  0
   52.1079   15.5534  -19.0748 H   0  0  0  0  0  0  0  0  0  0  0  0
   52.1059   14.1428  -20.1375 H   0  0  0  0  0  0  0  0  0  0  0  0
   54.1424   13.2654  -18.9757 H   0  0  0  0  0  0  0  0  0  0  0  0
   54.1447   14.6773  -17.9147 H   0  0  0  0  0  0  0  0  0  0  0  0
   54.3616   16.1747  -19.9093 H   0  0  0  0  0  0  0  0  0  0  0  0
   54.3610   14.7619  -20.9692 H   0  0  0  0  0  0  0  0  0  0  0  0
   56.3977   13.8883  -19.8059 H   0  0  0  0  0  0  0  0  0  0  0  0
   56.3983   15.3010  -18.7460 H   0  0  0  0  0  0  0  0  0  0  0  0
   56.6169   16.7976  -20.7396 H   0  0  0  0  0  0  0  0  0  0  0  0
   56.6145   15.3856  -21.8005 H   0  0  0  0  0  0  0  0  0  0  0  0
   58.6512   14.5095  -20.6405 H   0  0  0  0  0  0  0  0  0  0  0  0
   58.6535   15.9200  -19.5778 H   0  0  0  0  0  0  0  0  0  0  0  0
   58.8722   17.4205  -21.5683 H   0  0  0  0  0  0  0  0  0  0  0  0
   58.8680   16.0108  -22.6322 H   0  0  0  0  0  0  0  0  0  0  0  0
   60.9047   15.1306  -21.4753 H   0  0  0  0  0  0  0  0  0  0  0  0
   60.9088   16.5389  -20.4096 H   0  0  0  0  0  0  0  0  0  0  0  0
   61.1275   18.0433  -22.3973 H   0  0  0  0  0  0  0  0  0  0  0  0
   61.1215   16.6357  -23.4639 H   0  0  0  0  0  0  0  0  0  0  0  0
   63.1580   15.7514  -22.3073 H   0  0  0  0  0  0  0  0  0  0  0  0
   63.1643   17.1603  -21.2424 H   0  0  0  0  0  0  0  0  0  0  0  0
   63.3821   18.6631  -23.2321 H   0  0  0  0  0  0  0  0  0  0  0  0
   63.3757   17.2542  -24.2970 H   0  0  0  0  0  0  0  0  0  0  0  0
   65.4125   16.3712  -23.1422 H   0  0  0  0  0  0  0  0  0  0  0  0
   65.4186   17.7787  -22.0755 H   0  0  0  0  0  0  0  0  0  0  0  0
   65.6363   19.2841  -24.0631 H   0  0  0  0  0  0  0  0  0  0  0  0
   65.6303   17.8766  -25.1299 H   0  0  0  0  0  0  0  0  0  0  0  0
   67.6670   16.9923  -23.9746 H   0  0  0  0  0  0  0  0  0  0  0  0
   67.6730   18.3999  -22.9079 H   0  0  0  0  0  0  0  0  0  0  0  0
   67.8907   19.9053  -24.8955 H   0  0  0  0  0  0  0  0  0  0  0  0
   67.8847   18.4978  -25.9622 H   0  0  0  0  0  0  0  0  0  0  0  0
   69.9214   17.6136  -24.8070 H   0  0  0  0  0  0  0  0  0  0  0  0
   69.9274   19.0210  -23.7403 H   0  0  0  0  0  0  0  0  0  0  0  0
   70.1449   20.5267  -25.7279 H   0  0  0  0  0  0  0  0  0  0  0  0
   70.1393   19.1192  -26.7946 H   0  0  0  0  0  0  0  0  0  0  0  0
   72.1758   18.2352  -25.6394 H   0  0  0  0  0  0  0  0  0  0  0  0
   72.1807   19.6416  -24.5709 H   0  0  0  0  0  0  0  0  0  0  0  0
   72.4000   21.1498  -26.5585 H   0  0  0  0  0  0  0  0  0  0  0  0
   72.3940   19.7416  -27.6243 H   0  0  0  0  0  0  0  0  0  0  0  0
   74.4299   18.8562  -26.4714 H   0  0  0  0  0  0  0  0  0  0  0  0
   74.4382   20.2636  -25.4041 H   0  0  0  0  0  0  0  0  0  0  0  0
   74.6544   21.7689  -27.3928 H   0  0  0  0  0  0  0  0  0  0  0  0
   74.6479   20.3611  -28.4590 H   0  0  0  0  0  0  0  0  0  0  0  0
   76.6845   19.4770  -27.3026 H   0  0  0  0  0  0  0  0  0  0  0  0
   76.6910   20.8860  -26.2375 H   0  0  0  0  0  0  0  0  0  0  0  0
   76.9123   22.3891  -28.2270 H   0  0  0  0  0  0  0  0  0  0  0  0
   76.9031   20.9801  -29.2923 H   0  0  0  0  0  0  0  0  0  0  0  0
   78.9399   20.0962  -28.1363 H   0  0  0  0  0  0  0  0  0  0  0  0
   78.9460   21.5055  -27.0714 H   0  0  0  0  0  0  0  0  0  0  0  0
   79.1644   23.0082  -29.0611 H   0  0  0  0  0  0  0  0  0  0  0  0
   79.1579   21.5993  -30.1259 H   0  0  0  0  0  0  0  0  0  0  0  0
   81.1944   20.7159  -28.9695 H   0  0  0  0  0  0  0  0  0  0  0  0
   81.2009   22.1249  -27.9047 H   0  0  0  0  0  0  0  0  0  0  0  0
   81.4203   23.6275  -29.8944 H   0  0  0  0  0  0  0  0  0  0  0  0
   81.4139   22.2187  -30.9592 H   0  0  0  0  0  0  0  0  0  0  0  0
   83.4521   21.3365  -29.8055 H   0  0  0  0  0  0  0  0  0  0  0  0
   83.4583   22.7440  -28.7389 H   0  0  0  0  0  0  0  0  0  0  0  0
   83.6768   24.2497  -30.7269 H   0  0  0  0  0  0  0  0  0  0  0  0
   83.6708   22.8423  -31.7936 H   0  0  0  0  0  0  0  0  0  0  0  0
   85.7116   21.9612  -30.6422 H   0  0  0  0  0  0  0  0  0  0  0  0
   85.7175   23.3684  -29.5758 H   0  0  0  0  0  0  0  0  0  0  0  0
   85.9390   24.8744  -31.5652 H   0  0  0  0  0  0  0  0  0  0  0  0
   85.9349   23.4662  -32.6308 H   0  0  0  0  0  0  0  0  0  0  0  0
   87.9763   22.5879  -31.4759 H   0  0  0  0  0  0  0  0  0  0  0  0
   87.9806   23.9969  -30.4125 H   0  0  0  0  0  0  0  0  0  0  0  0
   88.2275   25.4994  -32.4043 H   0  0  0  0  0  0  0  0  0  0  0  0
   88.2233   24.0901  -33.4677 H   0  0  0  0  0  0  0  0  0  0  0  0
   90.2779   24.6355  -31.2605 H   0  0  0  0  0  0  0  0  0  0  0  0
   90.5392   24.8385  -33.0033 H   0  0  0  0  0  0  0  0  0  0  0  0
   90.2736   23.2192  -32.3292 H   0  0  0  0  0  0  0  0  0  0  0  0
  1  2  2  0  0  0  0
  2  3  1  0  0  0  0
  2 81  1  0  0  0  0
  3  4  1  0  0  0  0
  3 82  1  0  0  0  0
  3 83  1  0  0  0  0
  4  5  1  0  0  0  0
  4 84  1  0  0  0  0
  4 85  1  0  0  0  0
  5  6  1  0  0  0  0
  5 86  1  0  0  0  0
  5 87  1  0  0  0  0
  6  7  1  0  0  0  0
  7  8  1  0  0  0  0
  7 88  1  0  0  0  0
  8  9  1  0  0  0  0
  8 89  1  0  0  0  0
  8 90  1  0  0  0  0
  9 10  1  0  0  0  0
  9 91  1  0  0  0  0
  9 92  1  0  0  0  0
 10 11  1  0  0  0  0
 10 93  1  0  0  0  0
 10 94  1  0  0  0  0
 11 12  1  0  0  0  0
 11 95  1  0  0  0  0
 11 96  1  0  0  0  0
 12 13  1  0  0  0  0
 12 97  1  0  0  0  0
 12 98  1  0  0  0  0
 13 14  1  0  0  0  0
 13 99  1  0  0  0  0
 13100  1  0  0  0  0
 14 15  1  0  0  0  0
 14101  1  0  0  0  0
 14102  1  0  0  0  0
 15 16  1  0  0  0  0
 15103  1  0  0  0  0
 15104  1  0  0  0  0
 16 17  1  0  0  0  0
 16105  1  0  0  0  0
 16106  1  0  0  0  0
 17 18  1  0  0  0  0
 17107  1  0  0  0  0
 17108  1  0  0  0  0
 18 19  1  0  0  0  0
 18109  1  0  0  0  0
 18110  1  0  0  0  0
 19 20  1  0  0  0  0
 19111  1  0  0  0  0
 19112  1  0  0  0  0
 20 21  1  0  0  0  0
 20113  1  0  0  0  0
 20114  1  0  0  0  0
 21 22  1  0  0  0  0
 21115  1  0  0  0  0
 21116  1  0  0  0  0
 22 23  1  0  0  0  0
 22117  1  0  0  0  0
 22118  1  0  0  0  0
 23 24  1  0  0  0  0
 23119  1  0  0  0  0
 23120  1  0  0  0  0
 24 25  1  0  0  0  0
 24121  1  0  0  0  0
 24122  1  0  0  0  0
 25 26  1  0  0  0  0
 25123  1  0  0  0  0
 25124  1  0  0  0  0
 26 27  1  0  0  0  0
 26125  1  0  0  0  0
 26126  1  0  0  0  0
 27 28  1  0  0  0  0
 27127  1  0  0  0  0
 27128  1  0  0  0  0
 28 29  1  0  0  0  0
 28129  1  0  0  0  0
 28130  1  0  0  0  0
 29 30  1  0  0  0  0
 29131  1  0  0  0  0
 29132  1  0  0  0  0
 30 31  1  0  0  0  0
 30133  1  0  0  0  0
 30134  1  0  0  0  0
 31 32  1  0  0  0  0
 31135  1  0  0  0  0
 31136  1  0  0  0  0
 32 33  1  0  0  0  0
 32137  1  0  0  0  0
 32138  1  0  0  0  0
 33 34  1  0  0  0  0
 33139  1  0  0  0  0
 33140  1  0  0  0  0
 34 35  1  0  0  0  0
 34141  1  0  0  0  0
 34142  1  0  0  0  0
 35 36  1  0  0  0  0
 35143  1  0  0  0  0
 35144  1  0  0  0  0
 36 37  1  0  0  0  0
 36145  1  0  0  0  0
 36146  1  0  0  0  0
 37 38  1  0  0  0  0
 37147  1  0  0  0  0
 37148  1  0  0  0  0
 38 39  1  0  0  0  0
 38149  1  0  0  0  0
 38150  1  0  0  0  0
 39 40  1  0  0  0  0
 39151  1  0  0  0  0
 39152  1  0  0  0  0
 40 41  1  0  0  0  0
 40153  1  0  0  0  0
 40154  1  0  0  0  0
 41 42  1  0  0  0  0
 41155  1  0  0  0  0
 41156  1  0  0  0  0
 42 43  1  0  0  0  0
 42157  1  0  0  0  0
 42158  1  0  0  0  0
 43 44  1  0  0  0  0
 43159  1  0  0  0  0
 43160  1  0  0  0  0
 44 45  1  0  0  0  0
 44161  1  0  0  0  0
 44162  1  0  0  0  0
 45 46  1  0  0  0  0
 45163  1  0  0  0  0
 45164  1  0  0  0  0
 46 47  1  0  0  0  0
 46165  1  0  0  0  0
 46166  1  0  0  0  0
 47 48  1  0  0  0  0
 47167  1  0  0  0  0
 47168  1  0  0  0  0
 48 49  1  0  0  0  0
 48169  1  0  0  0  0
 48170  1  0  0  0  0
 49 50  1  0  0  0  0
 49171  1  0  0  0  0
 49172  1  0  0  0  0
 50 51  1  0  0  0  0
 50173  1  0  0  0  0
 50174  1  0  0  0  0
 51 52  1  0  0  0  0
 51175  1  0  0  0  0
 51176  1  0  0  0  0
 52 53  1  0  0  0  0
 52177  1  0  0  0  0
 52178  1  0  0  0  0
 53 54  1  0  0  0  0
 53179  1  0  0  0  0
 53180  1  0  0  0  0
 54 55  1  0  0  0  0
 54181  1  0  0  0  0
 54182  1  0  0  0  0
 55 56  1  0  0  0  0
 55183  1  0  0  0  0
 55184  1  0  0  0  0
 56 57  1  0  0  0  0
 56185  1  0  0  0  0
 56186  1  0  0  0  0
 57 58  1  0  0  0  0
 57187  1  0  0  0  0
 57188  1  0  0  0  0
 58 59  1  0  0  0  0
 58189  1  0  0  0  0
 58190  1  0  0  0  0
 59 60  1  0  0  0  0
 59191  1  0  0  0  0
 59192  1  0  0  0  0
 60 61  1  0  0  0  0
 60193  1  0  0  0  0
 60194  1  0  0  0  0
 61 62  1  0  0  0  0
 61195  1  0  0  0  0
 61196  1  0  0  0  0
 62 63  1  0  0  0  0
 62197  1  0  0  0  0
 62198  1  0  0  0  0
 63 64  1  0  0  0  0
 63199  1  0  0  0  0
 63200  1  0  0  0  0
 64 65  1  0  0  0  0
 64201  1  0  0  0  0
 64202  1  0  0  0  0
 65 66  1  0  0  0  0
 65203  1  0  0  0  0
 65204  1  0  0  0  0
 66 67  1  0  0  0  0
 66205  1  0  0  0  0
 66206  1  0  0  0  0
 67 68  1  0  0  0  0
 67207  1  0  0  0  0
 67208  1  0  0  0  0
 68 69  1  0  0  0  0
 68209  1  0  0  0  0
 68210  1  0  0  0  0
 69 70  1  0  0  0  0
 69211  1  0  0  0  0
 69212  1  0  0  0  0
 70 71  1  0  0  0  0
 70213  1  0  0  0  0
 70214  1  0  0  0  0
 71 72  1  0  0  0  0
 71215  1  0  0  0  0
 71216  1  0  0  0  0
 72 73  1  0  0  0  0
 72217  1  0  0  0  0
 72218  1  0  0  0  0
 73 74  1  0  0  0  0
 73219  1  0  0  0  0
 73220  1  0  0  0  0
 74 75  1  0  0  0  0
 74221  1  0  0  0  0
 74222  1  0  0  0  0
 75 76  1  0  0  0  0
 75223  1  0  0  0  0
 75224  1  0  0  0  0
 76 77  1  0  0  0  0
 76225  1  0  0  0  0
 76226  1  0  0  0  0
 77 78  1  0  0  0  0
 77227  1  0  0  0  0
 77228  1  0  0  0  0
 78 79  1  0  0  0  0
 78229  1  0  0  0  0
 78230  1  0  0  0  0
 79 80  1  0  0  0  0
 79231  1  0  0  0  0
 79232  1  0  0  0  0
 80233  1  0  0  0  0
 80234  1  0  0  0  0
 80235  1  0  0  0  0
M  END
$$$$
