
 OpenBabel04232216513D

 44 45  0  0  1  0  0  0  0  0999 V2000
    8.7071    2.7811    3.3603 C   0  0  0  0  0  0  0  0  0  0  0  0
    8.2984    1.7590    2.3088 C   0  0  0  0  0  0  0  0  0  0  0  0
    7.2558    0.7986    2.8604 C   0  0  0  0  0  0  0  0  0  0  0  0
    6.8632   -0.2191    1.8758 C   0  0  0  0  0  0  0  0  0  0  0  0
    7.3330   -1.5023    1.4021 C   0  0  3  0  0  0  0  0  0  0  0  0
    7.0393   -2.2972    0.1526 C   0  0  3  0  0  0  0  0  0  0  0  0
    7.3801   -1.5490   -1.1311 C   0  0  0  0  0  0  0  0  0  0  0  0
    7.7437   -3.6650    0.2039 C   0  0  0  0  0  0  0  0  0  0  0  0
    9.1969   -3.5554    0.2993 N   0  0  0  0  0  0  0  0  0  0  0  0
    9.8959   -4.5791    0.8993 C   0  0  0  0  0  0  0  0  0  0  0  0
    9.3348   -5.5809    1.3384 O   0  0  0  0  0  0  0  0  0  0  0  0
   11.2551   -4.3204    0.9596 N   0  0  0  0  0  0  0  0  0  0  0  0
   12.1869   -5.1623    1.5101 C   0  0  0  0  0  0  0  0  0  0  0  0
   13.5155   -4.9779    1.5285 C   0  0  0  0  0  0  0  0  0  0  0  0
   14.3529   -3.8689    0.9934 C   0  0  0  0  0  0  0  0  0  0  0  0
   14.2073   -6.1430    2.1811 C   0  0  0  0  0  0  0  0  0  0  0  0
   13.0729   -6.8972    2.8618 C   0  0  0  0  0  0  0  0  0  0  0  0
   11.7946   -6.4523    2.1702 C   0  0  0  0  0  0  0  0  0  0  0  0
    6.1351   -1.2358    2.1577 N   0  0  0  0  0  0  0  0  0  0  0  0
    9.4618    3.4638    2.9574 H   0  0  0  0  0  0  0  0  0  0  0  0
    9.1311    2.2906    4.2430 H   0  0  0  0  0  0  0  0  0  0  0  0
    7.8475    3.3780    3.6831 H   0  0  0  0  0  0  0  0  0  0  0  0
    9.1851    1.2059    1.9762 H   0  0  0  0  0  0  0  0  0  0  0  0
    7.9010    2.2798    1.4296 H   0  0  0  0  0  0  0  0  0  0  0  0
    6.3547    1.3451    3.1590 H   0  0  0  0  0  0  0  0  0  0  0  0
    7.6469    0.2877    3.7494 H   0  0  0  0  0  0  0  0  0  0  0  0
    8.1488   -1.9289    1.9783 H   0  0  0  0  0  0  0  0  0  0  0  0
    5.9615   -2.5099    0.1135 H   0  0  0  0  0  0  0  0  0  0  0  0
    8.4560   -1.3885   -1.2407 H   0  0  0  0  0  0  0  0  0  0  0  0
    6.8894   -0.5709   -1.1573 H   0  0  0  0  0  0  0  0  0  0  0  0
    7.0344   -2.1219   -2.0002 H   0  0  0  0  0  0  0  0  0  0  0  0
    7.5148   -4.2632   -0.6862 H   0  0  0  0  0  0  0  0  0  0  0  0
    7.3697   -4.2231    1.0722 H   0  0  0  0  0  0  0  0  0  0  0  0
    9.6753   -3.1173   -0.4730 H   0  0  0  0  0  0  0  0  0  0  0  0
   11.5644   -3.4186    0.6319 H   0  0  0  0  0  0  0  0  0  0  0  0
   13.7577   -3.0444    0.5940 H   0  0  0  0  0  0  0  0  0  0  0  0
   15.0044   -4.2368    0.1932 H   0  0  0  0  0  0  0  0  0  0  0  0
   14.9904   -3.4647    1.7876 H   0  0  0  0  0  0  0  0  0  0  0  0
   14.9504   -5.8221    2.9175 H   0  0  0  0  0  0  0  0  0  0  0  0
   14.7009   -6.7661    1.4275 H   0  0  0  0  0  0  0  0  0  0  0  0
   13.0298   -6.6249    3.9249 H   0  0  0  0  0  0  0  0  0  0  0  0
   13.2051   -7.9835    2.8133 H   0  0  0  0  0  0  0  0  0  0  0  0
   11.0102   -6.3130    2.9209 H   0  0  0  0  0  0  0  0  0  0  0  0
   11.4657   -7.1854    1.4259 H   0  0  0  0  0  0  0  0  0  0  0  0
  1  2  1  0  0  0  0
  1 20  1  0  0  0  0
  1 21  1  0  0  0  0
  1 22  1  0  0  0  0
  2  3  1  0  0  0  0
  2 23  1  0  0  0  0
  2 24  1  0  0  0  0
  3  4  1  0  0  0  0
  3 25  1  0  0  0  0
  3 26  1  0  0  0  0
  4  5  1  0  0  0  0
  4 19  2  0  0  0  0
  5  6  1  0  0  0  0
  5 19  1  0  0  0  0
  5 27  1  0  0  0  0
  6  7  1  0  0  0  0
  6  8  1  0  0  0  0
  6 28  1  0  0  0  0
  7 29  1  0  0  0  0
  7 30  1  0  0  0  0
  7 31  1  0  0  0  0
  8  9  1  0  0  0  0
  8 32  1  0  0  0  0
  8 33  1  0  0  0  0
  9 10  1  0  0  0  0
  9 34  1  0  0  0  0
 10 11  2  0  0  0  0
 10 12  1  0  0  0  0
 12 13  1  0  0  0  0
 12 35  1  0  0  0  0
 13 14  2  0  0  0  0
 13 18  1  0  0  0  0
 14 15  1  0  0  0  0
 14 16  1  0  0  0  0
 15 36  1  0  0  0  0
 15 37  1  0  0  0  0
 15 38  1  0  0  0  0
 16 17  1  0  0  0  0
 16 39  1  0  0  0  0
 16 40  1  0  0  0  0
 17 18  1  0  0  0  0
 17 41  1  0  0  0  0
 17 42  1  0  0  0  0
 18 43  1  0  0  0  0
 18 44  1  0  0  0  0
M  END
$$$$
