
 OpenBabel04232216503D

118118  0  0  1  0  0  0  0  0999 V2000
    8.5981   -3.2129   -3.1899 C   0  0  0  0  0  0  0  0  0  0  0  0
   10.4791   -3.9174   -2.5372 C   0  0  0  0  0  0  0  0  0  0  0  0
    8.7703   -3.3267   -1.7898 C   0  0  0  0  0  0  0  0  0  0  0  0
    7.0946   -2.7190   -0.9425 C   0  0  0  0  0  0  0  0  0  0  0  0
    6.3086   -3.0735    0.1617 C   0  0  0  0  0  0  0  0  0  0  0  0
    7.7223   -3.0332    0.4514 C   0  0  0  0  0  0  0  0  0  0  0  0
    8.0354   -4.6532   -0.0280 C   0  0  0  0  0  0  0  0  0  0  0  0
    9.5864   -4.5810   -0.0329 C   0  0  0  0  0  0  0  0  0  0  0  0
    9.5522   -5.8446   -0.7624 C   0  0  0  0  0  0  0  0  0  0  0  0
   10.9602   -5.8695   -0.9528 C   0  0  0  0  0  0  0  0  0  0  0  0
   11.4353   -7.1324   -1.2764 C   0  0  0  0  0  0  0  0  0  0  0  0
   12.8481   -6.8192   -1.1919 C   0  0  0  0  0  0  0  0  0  0  0  0
   13.4059   -8.1208   -1.3266 C   0  0  0  0  0  0  0  0  0  0  0  0
   14.8134   -7.8184   -0.8998 C   0  0  0  0  0  0  0  0  0  0  0  0
   15.4222   -9.1034   -1.3665 C   0  0  0  0  0  0  0  0  0  0  0  0
   16.9145   -8.7517   -1.1085 C   0  0  0  0  0  0  0  0  0  0  0  0
   17.5518  -10.1126   -1.3600 C   0  0  0  0  0  0  0  0  0  0  0  0
   19.0753  -10.1297   -1.3329 C   0  0  0  0  0  0  0  0  0  0  0  0
   19.0568  -11.7962   -1.7923 C   0  0  0  0  0  0  0  0  0  0  0  0
   19.8761  -12.8301   -2.4260 C   0  0  0  0  0  0  0  0  0  0  0  0
   20.9722  -13.7425   -2.1673 C   0  0  0  0  0  0  0  0  0  0  0  0
   22.2637  -12.8423   -1.5050 C   0  0  0  0  0  0  0  0  0  0  0  0
   22.7859  -13.8687   -2.4390 C   0  0  0  0  0  0  0  0  0  0  0  0
   22.6713  -12.0963   -3.4054 C   0  0  0  0  0  0  0  0  0  0  0  0
   20.8555  -10.6449   -3.6202 C   0  0  0  0  0  0  0  0  0  0  0  0
   18.8926   -9.2336   -3.5882 C   0  0  0  0  0  0  0  0  0  0  0  0
   16.9014   -7.6981   -3.3244 C   0  0  0  0  0  0  0  0  0  0  0  0
   14.8631   -6.1889   -2.9690 C   0  0  0  0  0  0  0  0  0  0  0  0
   12.7870   -4.5691   -2.4097 C   0  0  3  0  0  0  0  0  0  0  0  0
   11.3348   -2.5740   -1.8986 C   0  0  0  0  0  0  0  0  0  0  0  0
    9.6881   -0.8078   -1.5015 C   0  0  3  0  0  0  0  0  0  0  0  0
    7.8321    0.6809   -1.7353 C   0  0  0  0  0  0  0  0  0  0  0  0
    6.5231    2.2789   -1.5594 C   0  0  0  0  0  0  0  0  0  0  0  0
    5.0640    2.3781   -2.2341 C   0  0  0  0  0  0  0  0  0  0  0  0
    4.0944    3.6153   -2.5530 C   0  0  0  0  0  0  0  0  0  0  0  0
    3.1500    3.0119   -3.5990 C   0  0  0  0  0  0  0  0  0  0  0  0
    2.1733    4.0200   -4.1490 C   0  0  0  0  0  0  0  0  0  0  0  0
    1.3030    3.3276   -5.1771 C   0  0  0  0  0  0  0  0  0  0  0  0
    0.3137    4.3162   -5.7555 C   0  0  0  0  0  0  0  0  0  0  0  0
   -0.5542    3.6266   -6.7816 C   0  0  0  0  0  0  0  0  0  0  0  0
    9.2805    0.7048   -0.1369 O   0  0  0  0  0  0  0  0  0  0  0  0
    7.9877    2.0523    0.5651 O   0  0  0  0  0  0  0  0  0  0  0  0
    7.1426   -3.7590   -3.0376 H   0  0  0  0  0  0  0  0  0  0  0  0
    7.8500   -1.9690   -2.7425 H   0  0  0  0  0  0  0  0  0  0  0  0
    7.1695   -2.7947   -2.6471 H   0  0  0  0  0  0  0  0  0  0  0  0
    7.6245   -3.9330   -1.6288 H   0  0  0  0  0  0  0  0  0  0  0  0
    6.6916   -1.5168   -0.6755 H   0  0  0  0  0  0  0  0  0  0  0  0
    5.3170   -3.6175   -0.0860 H   0  0  0  0  0  0  0  0  0  0  0  0
    7.9152   -2.4551    1.3543 H   0  0  0  0  0  0  0  0  0  0  0  0
    8.4405   -2.1567   -0.2091 H   0  0  0  0  0  0  0  0  0  0  0  0
    7.5454   -5.2835   -1.1454 H   0  0  0  0  0  0  0  0  0  0  0  0
    7.2322   -5.1453    0.5050 H   0  0  0  0  0  0  0  0  0  0  0  0
    9.6119   -3.7150    0.6108 H   0  0  0  0  0  0  0  0  0  0  0  0
   10.5349   -4.0468   -0.4797 H   0  0  0  0  0  0  0  0  0  0  0  0
    9.1028   -5.9559   -1.8060 H   0  0  0  0  0  0  0  0  0  0  0  0
    9.2057   -6.5539   -0.0522 H   0  0  0  0  0  0  0  0  0  0  0  0
   11.4825   -5.4107   -0.0902 H   0  0  0  0  0  0  0  0  0  0  0  0
   11.1199   -5.5247   -1.9404 H   0  0  0  0  0  0  0  0  0  0  0  0
   11.0486   -7.3082   -2.2963 H   0  0  0  0  0  0  0  0  0  0  0  0
   11.0896   -7.6406   -0.4059 H   0  0  0  0  0  0  0  0  0  0  0  0
   13.2167   -6.2478   -0.3304 H   0  0  0  0  0  0  0  0  0  0  0  0
   13.1902   -6.2968   -2.0473 H   0  0  0  0  0  0  0  0  0  0  0  0
   13.1695   -8.3922   -2.4113 H   0  0  0  0  0  0  0  0  0  0  0  0
   12.9225   -8.8422   -0.7060 H   0  0  0  0  0  0  0  0  0  0  0  0
   15.2277   -7.6527    0.0862 H   0  0  0  0  0  0  0  0  0  0  0  0
   15.1076   -6.7107   -1.0892 H   0  0  0  0  0  0  0  0  0  0  0  0
   15.0401   -9.5088   -2.4091 H   0  0  0  0  0  0  0  0  0  0  0  0
   15.1219   -9.9911   -0.7752 H   0  0  0  0  0  0  0  0  0  0  0  0
   17.3816   -8.5586   -0.1744 H   0  0  0  0  0  0  0  0  0  0  0  0
   17.1547   -7.6514   -1.4779 H   0  0  0  0  0  0  0  0  0  0  0  0
   17.0188  -10.6856   -2.2271 H   0  0  0  0  0  0  0  0  0  0  0  0
   17.3384  -10.7850   -0.5264 H   0  0  0  0  0  0  0  0  0  0  0  0
   19.6776  -10.0525   -0.4595 H   0  0  0  0  0  0  0  0  0  0  0  0
   19.6744   -9.1139   -1.8576 H   0  0  0  0  0  0  0  0  0  0  0  0
   18.4342  -11.8349   -2.6757 H   0  0  0  0  0  0  0  0  0  0  0  0
   18.7536  -12.3408   -0.9094 H   0  0  0  0  0  0  0  0  0  0  0  0
   20.4946  -12.3326   -1.7225 H   0  0  0  0  0  0  0  0  0  0  0  0
   19.8315  -12.7412   -3.5699 H   0  0  0  0  0  0  0  0  0  0  0  0
   20.9807  -14.1539   -3.2753 H   0  0  0  0  0  0  0  0  0  0  0  0
   20.8135  -14.5828   -1.5127 H   0  0  0  0  0  0  0  0  0  0  0  0
   23.2577  -12.8084   -0.9956 H   0  0  0  0  0  0  0  0  0  0  0  0
   22.4546  -11.6126   -1.7935 H   0  0  0  0  0  0  0  0  0  0  0  0
   22.4446  -14.7643   -3.0327 H   0  0  0  0  0  0  0  0  0  0  0  0
   23.2797  -14.8100   -1.6865 H   0  0  0  0  0  0  0  0  0  0  0  0
   23.8603  -12.8064   -2.6863 H   0  0  0  0  0  0  0  0  0  0  0  0
   23.9130  -12.7825   -3.9645 H   0  0  0  0  0  0  0  0  0  0  0  0
   21.2107  -11.8770   -4.4957 H   0  0  0  0  0  0  0  0  0  0  0  0
   21.3183  -12.0948   -3.4689 H   0  0  0  0  0  0  0  0  0  0  0  0
   19.7340  -10.1812   -2.8552 H   0  0  0  0  0  0  0  0  0  0  0  0
   19.2419  -10.4410   -4.3218 H   0  0  0  0  0  0  0  0  0  0  0  0
   17.1125   -8.9480   -3.9836 H   0  0  0  0  0  0  0  0  0  0  0  0
   16.8755   -8.9638   -2.9221 H   0  0  0  0  0  0  0  0  0  0  0  0
   15.1095   -7.4185   -3.2798 H   0  0  0  0  0  0  0  0  0  0  0  0
   14.3382   -7.2868   -2.8712 H   0  0  0  0  0  0  0  0  0  0  0  0
   12.8516   -4.5063   -1.3836 H   0  0  0  0  0  0  0  0  0  0  0  0
   11.4624   -2.1444   -0.7804 H   0  0  0  0  0  0  0  0  0  0  0  0
   10.3640   -2.6636   -1.1734 H   0  0  0  0  0  0  0  0  0  0  0  0
    8.9524   -0.8643   -0.5615 H   0  0  0  0  0  0  0  0  0  0  0  0
    8.0227    1.8225   -1.2160 H   0  0  0  0  0  0  0  0  0  0  0  0
    6.7908    0.6342   -0.9070 H   0  0  0  0  0  0  0  0  0  0  0  0
    5.7881    2.6864   -0.5074 H   0  0  0  0  0  0  0  0  0  0  0  0
    6.9242    3.2850   -1.9399 H   0  0  0  0  0  0  0  0  0  0  0  0
    4.3931    1.6908   -1.6982 H   0  0  0  0  0  0  0  0  0  0  0  0
    5.4765    2.1143   -3.1749 H   0  0  0  0  0  0  0  0  0  0  0  0
    4.5949    4.4871   -2.9943 H   0  0  0  0  0  0  0  0  0  0  0  0
    3.4390    4.0016   -1.7433 H   0  0  0  0  0  0  0  0  0  0  0  0
    2.6032    2.1742   -3.1434 H   0  0  0  0  0  0  0  0  0  0  0  0
    3.7631    2.6061   -4.4139 H   0  0  0  0  0  0  0  0  0  0  0  0
    2.7189    4.8510   -4.6089 H   0  0  0  0  0  0  0  0  0  0  0  0
    1.5563    4.4248   -3.3394 H   0  0  0  0  0  0  0  0  0  0  0  0
    0.7722    2.4899   -4.7068 H   0  0  0  0  0  0  0  0  0  0  0  0
    1.9335    2.9110   -5.9730 H   0  0  0  0  0  0  0  0  0  0  0  0
    0.8534    5.1487   -6.2205 H   0  0  0  0  0  0  0  0  0  0  0  0
   -0.3095    4.7269   -4.9533 H   0  0  0  0  0  0  0  0  0  0  0  0
    0.0611    3.2232   -7.5919 H   0  0  0  0  0  0  0  0  0  0  0  0
   -1.2696    4.3354   -7.2023 H   0  0  0  0  0  0  0  0  0  0  0  0
   -1.1051    2.8003   -6.3213 H   0  0  0  0  0  0  0  0  0  0  0  0
    7.0493    2.8696    0.5146 H   0  0  0  0  0  0  0  0  0  0  0  0
  1  2  1  0  0  0  0
  1 43  1  0  0  0  0
  1 44  1  0  0  0  0
  1 45  1  0  0  0  0
  2  3  2  3  0  0  0
  2 29  1  0  0  0  0
  3  4  1  0  0  0  0
  3 46  1  0  0  0  0
  4  5  2  3  0  0  0
  4 47  1  0  0  0  0
  5  6  1  0  0  0  0
  5 48  1  0  0  0  0
  6  7  1  0  0  0  0
  6 49  1  0  0  0  0
  6 50  1  0  0  0  0
  7  8  1  0  0  0  0
  7 51  1  0  0  0  0
  7 52  1  0  0  0  0
  8  9  1  0  0  0  0
  8 53  1  0  0  0  0
  8 54  1  0  0  0  0
  9 10  1  0  0  0  0
  9 55  1  0  0  0  0
  9 56  1  0  0  0  0
 10 11  1  0  0  0  0
 10 57  1  0  0  0  0
 10 58  1  0  0  0  0
 11 12  1  0  0  0  0
 11 59  1  0  0  0  0
 11 60  1  0  0  0  0
 12 13  1  0  0  0  0
 12 61  1  0  0  0  0
 12 62  1  0  0  0  0
 13 14  1  0  0  0  0
 13 63  1  0  0  0  0
 13 64  1  0  0  0  0
 14 15  1  0  0  0  0
 14 65  1  0  0  0  0
 14 66  1  0  0  0  0
 15 16  1  0  0  0  0
 15 67  1  0  0  0  0
 15 68  1  0  0  0  0
 16 17  1  0  0  0  0
 16 69  1  0  0  0  0
 16 70  1  0  0  0  0
 17 18  1  0  0  0  0
 17 71  1  0  0  0  0
 17 72  1  0  0  0  0
 18 19  1  0  0  0  0
 18 73  1  0  0  0  0
 18 74  1  0  0  0  0
 19 20  1  0  0  0  0
 19 75  1  0  0  0  0
 19 76  1  0  0  0  0
 20 21  1  0  0  0  0
 20 77  1  0  0  0  0
 20 78  1  0  0  0  0
 21 22  1  0  0  0  0
 21 79  1  0  0  0  0
 21 80  1  0  0  0  0
 22 23  1  0  0  0  0
 22 81  1  0  0  0  0
 22 82  1  0  0  0  0
 23 24  1  0  0  0  0
 23 83  1  0  0  0  0
 23 84  1  0  0  0  0
 24 25  1  0  0  0  0
 24 85  1  0  0  0  0
 24 86  1  0  0  0  0
 25 26  1  0  0  0  0
 25 87  1  0  0  0  0
 25 88  1  0  0  0  0
 26 27  1  0  0  0  0
 26 89  1  0  0  0  0
 26 90  1  0  0  0  0
 27 28  1  0  0  0  0
 27 91  1  0  0  0  0
 27 92  1  0  0  0  0
 28 29  1  0  0  0  0
 28 93  1  0  0  0  0
 28 94  1  0  0  0  0
 29 30  1  0  0  0  0
 29 95  1  0  0  0  0
 30 31  1  0  0  0  0
 30 96  1  0  0  0  0
 30 97  1  0  0  0  0
 31 32  1  0  0  0  0
 31 41  1  0  0  0  0
 31 98  1  0  0  0  0
 32 33  1  0  0  0  0
 32 99  1  0  0  0  0
 32100  1  0  0  0  0
 33 34  1  0  0  0  0
 33101  1  0  0  0  0
 33102  1  0  0  0  0
 34 35  1  0  0  0  0
 34103  1  0  0  0  0
 34104  1  0  0  0  0
 35 36  1  0  0  0  0
 35105  1  0  0  0  0
 35106  1  0  0  0  0
 36 37  1  0  0  0  0
 36107  1  0  0  0  0
 36108  1  0  0  0  0
 37 38  1  0  0  0  0
 37109  1  0  0  0  0
 37110  1  0  0  0  0
 38 39  1  0  0  0  0
 38111  1  0  0  0  0
 38112  1  0  0  0  0
 39 40  1  0  0  0  0
 39113  1  0  0  0  0
 39114  1  0  0  0  0
 40115  1  0  0  0  0
 40116  1  0  0  0  0
 40117  1  0  0  0  0
 41 42  1  0  0  0  0
 42118  1  0  0  0  0
M  END
$$$$
