
 OpenBabel04232216403D

 47 46  0  0  0  0  0  0  0  0999 V2000
    1.4355   -0.3822    0.9185 C   0  0  0  0  0  0  0  0  0  0  0  0
    2.2896    0.0624   -0.0077 C   0  0  0  0  0  0  0  0  0  0  0  0
    3.0674   -0.8503   -0.9078 C   0  0  0  0  0  0  0  0  0  0  0  0
    4.5057   -0.6398   -0.7178 N   0  0  0  0  0  0  0  0  0  0  0  0
    5.2242   -1.5465   -1.6002 N   0  0  0  0  0  0  0  0  0  0  0  0
    6.6618   -1.3382   -1.4057 C   0  0  0  0  0  0  0  0  0  0  0  0
    7.4289   -2.2808   -2.3271 C   0  0  0  0  0  0  0  0  0  0  0  0
    8.9322   -2.0930   -2.1512 C   0  0  0  0  0  0  0  0  0  0  0  0
    9.6976   -3.0339   -3.0738 C   0  0  0  0  0  0  0  0  0  0  0  0
   11.1329   -2.8219   -2.8776 N   0  0  0  0  0  0  0  0  0  0  0  0
   11.8468   -3.7178   -3.7544 N   0  0  0  0  0  0  0  0  0  0  0  0
   13.2815   -3.5044   -3.5563 C   0  0  0  0  0  0  0  0  0  0  0  0
   14.0477   -4.4445   -4.4782 C   0  0  0  0  0  0  0  0  0  0  0  0
   15.5491   -4.2511   -4.3002 C   0  0  0  0  0  0  0  0  0  0  0  0
   16.3238   -5.1879   -5.2182 C   0  0  0  0  0  0  0  0  0  0  0  0
   17.8264   -4.9989   -5.0442 C   0  0  0  0  0  0  0  0  0  0  0  0
   18.5956   -5.9330   -5.9600 C   0  0  0  0  0  0  0  0  0  0  0  0
    0.8836    0.3095    1.5529 H   0  0  0  0  0  0  0  0  0  0  0  0
    1.2672   -1.4465    1.0704 H   0  0  0  0  0  0  0  0  0  0  0  0
    2.4251    1.1337   -0.1371 H   0  0  0  0  0  0  0  0  0  0  0  0
    2.7925   -0.6389   -1.9475 H   0  0  0  0  0  0  0  0  0  0  0  0
    2.8105   -1.8955   -0.6940 H   0  0  0  0  0  0  0  0  0  0  0  0
    4.7167   -0.8620    0.2606 H   0  0  0  0  0  0  0  0  0  0  0  0
    5.0045   -1.3472   -2.5821 H   0  0  0  0  0  0  0  0  0  0  0  0
    6.9382   -1.5443   -0.3642 H   0  0  0  0  0  0  0  0  0  0  0  0
    6.9316   -0.2990   -1.6318 H   0  0  0  0  0  0  0  0  0  0  0  0
    7.1556   -2.0914   -3.3732 H   0  0  0  0  0  0  0  0  0  0  0  0
    7.1604   -3.3219   -2.1062 H   0  0  0  0  0  0  0  0  0  0  0  0
    9.2070   -2.2841   -1.1059 H   0  0  0  0  0  0  0  0  0  0  0  0
    9.2017   -1.0521   -2.3717 H   0  0  0  0  0  0  0  0  0  0  0  0
    9.4237   -2.8262   -4.1156 H   0  0  0  0  0  0  0  0  0  0  0  0
    9.4292   -4.0741   -2.8504 H   0  0  0  0  0  0  0  0  0  0  0  0
   11.3537   -3.0246   -1.8967 H   0  0  0  0  0  0  0  0  0  0  0  0
   11.6316   -3.5196   -4.7374 H   0  0  0  0  0  0  0  0  0  0  0  0
   13.5560   -3.7102   -2.5142 H   0  0  0  0  0  0  0  0  0  0  0  0
   13.5488   -2.4641   -3.7810 H   0  0  0  0  0  0  0  0  0  0  0  0
   13.7727   -4.2545   -5.5237 H   0  0  0  0  0  0  0  0  0  0  0  0
   13.7798   -5.4858   -4.2574 H   0  0  0  0  0  0  0  0  0  0  0  0
   15.8249   -4.4417   -3.2558 H   0  0  0  0  0  0  0  0  0  0  0  0
   15.8156   -3.2103   -4.5214 H   0  0  0  0  0  0  0  0  0  0  0  0
   16.0442   -4.9955   -6.2614 H   0  0  0  0  0  0  0  0  0  0  0  0
   16.0525   -6.2276   -4.9972 H   0  0  0  0  0  0  0  0  0  0  0  0
   18.1093   -5.1935   -4.0030 H   0  0  0  0  0  0  0  0  0  0  0  0
   18.1008   -3.9612   -5.2671 H   0  0  0  0  0  0  0  0  0  0  0  0
   18.3573   -6.9783   -5.7387 H   0  0  0  0  0  0  0  0  0  0  0  0
   19.6719   -5.7910   -5.8285 H   0  0  0  0  0  0  0  0  0  0  0  0
   18.3490   -5.7397   -7.0090 H   0  0  0  0  0  0  0  0  0  0  0  0
  1  2  2  0  0  0  0
  1 18  1  0  0  0  0
  1 19  1  0  0  0  0
  2  3  1  0  0  0  0
  2 20  1  0  0  0  0
  3  4  1  0  0  0  0
  3 21  1  0  0  0  0
  3 22  1  0  0  0  0
  4  5  1  0  0  0  0
  4 23  1  0  0  0  0
  5  6  1  0  0  0  0
  5 24  1  0  0  0  0
  6  7  1  0  0  0  0
  6 25  1  0  0  0  0
  6 26  1  0  0  0  0
  7  8  1  0  0  0  0
  7 27  1  0  0  0  0
  7 28  1  0  0  0  0
  8  9  1  0  0  0  0
  8 29  1  0  0  0  0
  8 30  1  0  0  0  0
  9 10  1  0  0  0  0
  9 31  1  0  0  0  0
  9 32  1  0  0  0  0
 10 11  1  0  0  0  0
 10 33  1  0  0  0  0
 11 12  1  0  0  0  0
 11 34  1  0  0  0  0
 12 13  1  0  0  0  0
 12 35  1  0  0  0  0
 12 36  1  0  0  0  0
 13 14  1  0  0  0  0
 13 37  1  0  0  0  0
 13 38  1  0  0  0  0
 14 15  1  0  0  0  0
 14 39  1  0  0  0  0
 14 40  1  0  0  0  0
 15 16  1  0  0  0  0
 15 41  1  0  0  0  0
 15 42  1  0  0  0  0
 16 17  1  0  0  0  0
 16 43  1  0  0  0  0
 16 44  1  0  0  0  0
 17 45  1  0  0  0  0
 17 46  1  0  0  0  0
 17 47  1  0  0  0  0
M  END
$$$$
