
 OpenBabel04232216393D

 92 92  0  0  0  0  0  0  0  0999 V2000
  -13.9576   32.4757  -30.8252 C   0  0  0  0  0  0  0  0  0  0  0  0
  -15.3965   33.3929  -32.4553 C   0  0  0  0  0  0  0  0  0  0  0  0
  -13.8360   32.1314  -30.0664 C   0  0  0  0  0  0  0  0  0  0  0  0
  -12.3648   30.9835  -28.1291 C   0  0  0  0  0  0  0  0  0  0  0  0
  -10.8148   29.6708  -26.0428 C   0  0  0  0  0  0  0  0  0  0  0  0
   -9.2645   28.7103  -24.5617 C   0  0  0  0  0  0  0  0  0  0  0  0
   -8.7006   26.7482  -24.2627 C   0  0  0  0  0  0  0  0  0  0  0  0
   -8.2042   28.1695  -24.8612 C   0  0  0  0  0  0  0  0  0  0  0  0
   -9.6449   27.4709  -25.9879 C   0  0  0  0  0  0  0  0  0  0  0  0
  -10.1754   28.1564  -27.0688 C   0  0  0  0  0  0  0  0  0  0  0  0
  -11.5632   27.9710  -26.5911 C   0  0  0  0  0  0  0  0  0  0  0  0
  -11.3384   28.7168  -27.8401 C   0  0  0  0  0  0  0  0  0  0  0  0
  -12.6064   29.0182  -28.8773 C   0  0  0  0  0  0  0  0  0  0  0  0
  -13.5137   29.0596  -30.2221 C   0  0  0  0  0  0  0  0  0  0  0  0
  -13.8273   30.3495  -30.7914 C   0  0  0  0  0  0  0  0  0  0  0  0
  -13.8795   31.0086  -32.0555 C   0  0  0  0  0  0  0  0  0  0  0  0
  -15.5440   30.7085  -32.6533 C   0  0  0  0  0  0  0  0  0  0  0  0
  -15.2105   32.0096  -33.4875 C   0  0  0  0  0  0  0  0  0  0  0  0
  -16.1767   32.6143  -34.8717 C   0  0  0  0  0  0  0  0  0  0  0  0
  -16.1730   33.7480  -36.2662 C   0  0  0  0  0  0  0  0  0  0  0  0
  -17.4269   33.1574  -36.0557 C   0  0  0  0  0  0  0  0  0  0  0  0
  -17.4473   34.2378  -36.7023 C   0  0  0  0  0  0  0  0  0  0  0  0
  -18.2974   34.1336  -37.8762 C   0  0  0  0  0  0  0  0  0  0  0  0
  -17.8667   34.9823  -38.8628 C   0  0  0  0  0  0  0  0  0  0  0  0
  -19.4942   35.3536  -39.6648 C   0  0  0  0  0  0  0  0  0  0  0  0
  -19.2693   36.2939  -40.5650 C   0  0  0  0  0  0  0  0  0  0  0  0
  -20.6164   35.9358  -41.4142 C   0  0  0  0  0  0  0  0  0  0  0  0
  -20.7670   36.7835  -42.3184 C   0  0  0  0  0  0  0  0  0  0  0  0
  -20.3178   37.5866  -43.2235 C   0  0  0  0  0  0  0  0  0  0  0  0
  -21.3089   38.0690  -44.0665 C   0  0  0  0  0  0  0  0  0  0  0  0
  -22.9352   37.7680  -44.9547 C   0  0  0  0  0  0  0  0  0  0  0  0
  -22.7450   38.8471  -45.8711 C   0  0  0  0  0  0  0  0  0  0  0  0
  -23.9563   39.0441  -47.2648 C   0  0  0  0  0  0  0  0  0  0  0  0
  -23.6288   40.3429  -47.6774 C   0  0  0  0  0  0  0  0  0  0  0  0
  -24.7031   40.8926  -49.1542 C   0  0  0  0  0  0  0  0  0  0  0  0
  -24.8816   42.2551  -49.7085 C   0  0  0  0  0  0  0  0  0  0  0  0
  -26.2452   41.3642  -50.7647 C   0  0  0  0  0  0  0  0  0  0  0  0
  -26.8135   41.9450  -51.8580 C   0  0  0  0  0  0  0  0  0  0  0  0
  -28.0455   41.2808  -50.5119 C   0  0  0  0  0  0  0  0  0  0  0  0
  -27.1130   40.4692  -48.6410 C   0  0  0  0  0  0  0  0  0  0  0  0
  -25.6429   39.6458  -46.3783 C   0  0  0  0  0  0  0  0  0  0  0  0
  -24.1142   38.9616  -44.3454 C   0  0  0  0  0  0  0  0  0  0  0  0
  -22.3961   38.0153  -41.7939 C   0  0  0  0  0  0  0  0  0  0  0  0
  -20.7562   36.9669  -39.4492 C   0  0  0  0  0  0  0  0  0  0  0  0
  -18.9057   35.8143  -37.0328 C   0  0  0  0  0  0  0  0  0  0  0  0
  -17.2217   34.6777  -34.8910 C   0  0  0  0  0  0  0  0  0  0  0  0
  -12.5910   31.4948  -29.7869 H   0  0  0  0  0  0  0  0  0  0  0  0
  -12.6466   31.5191  -29.6997 H   0  0  0  0  0  0  0  0  0  0  0  0
  -12.6732   31.4758  -28.5067 H   0  0  0  0  0  0  0  0  0  0  0  0
  -11.3139   30.0946  -26.5912 H   0  0  0  0  0  0  0  0  0  0  0  0
  -10.2060   28.3929  -24.5410 H   0  0  0  0  0  0  0  0  0  0  0  0
   -7.7466   28.0004  -23.3610 H   0  0  0  0  0  0  0  0  0  0  0  0
   -9.0830   25.6134  -23.2975 H   0  0  0  0  0  0  0  0  0  0  0  0
   -7.2961   28.9834  -23.7989 H   0  0  0  0  0  0  0  0  0  0  0  0
   -9.9828   26.5100  -25.5427 H   0  0  0  0  0  0  0  0  0  0  0  0
   -9.3423   29.2209  -26.6967 H   0  0  0  0  0  0  0  0  0  0  0  0
  -11.4686   27.0163  -26.7894 H   0  0  0  0  0  0  0  0  0  0  0  0
  -10.3533   29.9397  -27.7676 H   0  0  0  0  0  0  0  0  0  0  0  0
  -12.9464   29.5619  -28.0620 H   0  0  0  0  0  0  0  0  0  0  0  0
  -14.5369   29.7950  -31.0066 H   0  0  0  0  0  0  0  0  0  0  0  0
  -13.8914   29.8200  -29.8308 H   0  0  0  0  0  0  0  0  0  0  0  0
  -12.7945   32.1306  -31.7802 H   0  0  0  0  0  0  0  0  0  0  0  0
  -15.6606   29.5405  -31.8517 H   0  0  0  0  0  0  0  0  0  0  0  0
  -14.2293   33.3037  -33.3491 H   0  0  0  0  0  0  0  0  0  0  0  0
  -16.7024   31.8037  -34.1460 H   0  0  0  0  0  0  0  0  0  0  0  0
  -16.6002   35.2093  -37.1777 H   0  0  0  0  0  0  0  0  0  0  0  0
  -18.2308   33.0168  -36.5484 H   0  0  0  0  0  0  0  0  0  0  0  0
  -16.2326   35.2990  -36.1197 H   0  0  0  0  0  0  0  0  0  0  0  0
  -18.7537   34.8101  -38.4331 H   0  0  0  0  0  0  0  0  0  0  0  0
  -16.8022   35.8579  -38.4552 H   0  0  0  0  0  0  0  0  0  0  0  0
  -20.3076   34.6478  -39.8078 H   0  0  0  0  0  0  0  0  0  0  0  0
  -18.5465   37.4402  -40.2633 H   0  0  0  0  0  0  0  0  0  0  0  0
  -21.3095   36.7878  -41.6200 H   0  0  0  0  0  0  0  0  0  0  0  0
  -20.0230   38.0527  -42.0678 H   0  0  0  0  0  0  0  0  0  0  0  0
  -21.3266   37.5818  -42.8890 H   0  0  0  0  0  0  0  0  0  0  0  0
  -21.0307   39.5143  -43.8353 H   0  0  0  0  0  0  0  0  0  0  0  0
  -23.6189   37.8490  -45.9163 H   0  0  0  0  0  0  0  0  0  0  0  0
  -21.7986   39.2677  -45.0779 H   0  0  0  0  0  0  0  0  0  0  0  0
  -24.4987   39.9567  -47.7563 H   0  0  0  0  0  0  0  0  0  0  0  0
  -22.9024   41.0419  -46.6343 H   0  0  0  0  0  0  0  0  0  0  0  0
  -25.0866   40.1819  -50.2023 H   0  0  0  0  0  0  0  0  0  0  0  0
  -25.7282   41.8411  -49.6367 H   0  0  0  0  0  0  0  0  0  0  0  0
  -27.0140   40.0128  -50.5355 H   0  0  0  0  0  0  0  0  0  0  0  0
  -26.0896   42.8529  -51.2549 H   0  0  0  0  0  0  0  0  0  0  0  0
  -29.5246   42.0739  -51.4992 H   0  0  0  0  0  0  0  0  0  0  0  0
  -28.3238   40.7213  -50.2980 H   0  0  0  0  0  0  0  0  0  0  0  0
  -26.6969   40.3082  -48.0021 H   0  0  0  0  0  0  0  0  0  0  0  0
  -24.8743   39.8925  -45.8033 H   0  0  0  0  0  0  0  0  0  0  0  0
  -22.9534   38.9497  -43.2989 H   0  0  0  0  0  0  0  0  0  0  0  0
  -21.0790   38.1568  -40.9735 H   0  0  0  0  0  0  0  0  0  0  0  0
  -18.8483   36.7576  -38.4254 H   0  0  0  0  0  0  0  0  0  0  0  0
  -15.7265   34.0738  -34.3559 H   0  0  0  0  0  0  0  0  0  0  0  0
  1  2  2  0  0  0  0
  1 47  1  0  0  0  0
  1 48  1  0  0  0  0
  2  3  1  0  0  0  0
  2 46  1  0  0  0  0
  3  4  2  3  0  0  0
  3 49  1  0  0  0  0
  4  5  1  0  0  0  0
  4 50  1  0  0  0  0
  5  6  2  3  0  0  0
  5 51  1  0  0  0  0
  6  7  1  0  0  0  0
  6 52  1  0  0  0  0
  7  8  2  3  0  0  0
  7 53  1  0  0  0  0
  8  9  1  0  0  0  0
  8 54  1  0  0  0  0
  9 10  2  3  0  0  0
  9 55  1  0  0  0  0
 10 11  1  0  0  0  0
 10 56  1  0  0  0  0
 11 12  2  3  0  0  0
 11 57  1  0  0  0  0
 12 13  1  0  0  0  0
 12 58  1  0  0  0  0
 13 14  2  3  0  0  0
 13 59  1  0  0  0  0
 14 15  1  0  0  0  0
 14 60  1  0  0  0  0
 15 16  2  3  0  0  0
 15 61  1  0  0  0  0
 16 17  1  0  0  0  0
 16 62  1  0  0  0  0
 17 18  2  3  0  0  0
 17 63  1  0  0  0  0
 18 19  1  0  0  0  0
 18 64  1  0  0  0  0
 19 20  2  3  0  0  0
 19 65  1  0  0  0  0
 20 21  1  0  0  0  0
 20 66  1  0  0  0  0
 21 22  2  3  0  0  0
 21 67  1  0  0  0  0
 22 23  1  0  0  0  0
 22 68  1  0  0  0  0
 23 24  2  3  0  0  0
 23 69  1  0  0  0  0
 24 25  1  0  0  0  0
 24 70  1  0  0  0  0
 25 26  2  3  0  0  0
 25 71  1  0  0  0  0
 26 27  1  0  0  0  0
 26 72  1  0  0  0  0
 27 28  2  3  0  0  0
 27 73  1  0  0  0  0
 28 29  1  0  0  0  0
 28 74  1  0  0  0  0
 29 30  2  3  0  0  0
 29 75  1  0  0  0  0
 30 31  1  0  0  0  0
 30 76  1  0  0  0  0
 31 32  2  3  0  0  0
 31 77  1  0  0  0  0
 32 33  1  0  0  0  0
 32 78  1  0  0  0  0
 33 34  2  3  0  0  0
 33 79  1  0  0  0  0
 34 35  1  0  0  0  0
 34 80  1  0  0  0  0
 35 36  2  3  0  0  0
 35 81  1  0  0  0  0
 36 37  1  0  0  0  0
 36 82  1  0  0  0  0
 37 38  2  3  0  0  0
 37 83  1  0  0  0  0
 38 39  1  0  0  0  0
 38 84  1  0  0  0  0
 39 40  2  3  0  0  0
 39 85  1  0  0  0  0
 40 41  1  0  0  0  0
 40 86  1  0  0  0  0
 41 42  2  3  0  0  0
 41 87  1  0  0  0  0
 42 43  1  0  0  0  0
 42 88  1  0  0  0  0
 43 44  2  3  0  0  0
 43 89  1  0  0  0  0
 44 45  1  0  0  0  0
 44 90  1  0  0  0  0
 45 46  2  3  0  0  0
 45 91  1  0  0  0  0
 46 92  1  0  0  0  0
M  END
$$$$
