
 OpenBabel04232216433D

 64 64  0  0  0  0  0  0  0  0999 V2000
   13.9194    6.4715   -4.0303 C   0  0  0  0  0  0  0  0  0  0  0  0
   11.8108    5.6963   -3.8693 C   0  0  0  0  0  0  0  0  0  0  0  0
   10.5537    4.5646   -3.6307 C   0  0  0  0  0  0  0  0  0  0  0  0
    9.2165    3.0263   -3.0981 C   0  0  0  0  0  0  0  0  0  0  0  0
    7.9220    2.5929   -2.2280 C   0  0  0  0  0  0  0  0  0  0  0  0
    8.0343    2.7659   -0.7543 C   0  0  0  0  0  0  0  0  0  0  0  0
    8.5608    4.0063   -0.8927 C   0  0  0  0  0  0  0  0  0  0  0  0
   10.1397    3.8009   -0.9960 C   0  0  0  0  0  0  0  0  0  0  0  0
   11.0526    4.5270   -1.7297 C   0  0  0  0  0  0  0  0  0  0  0  0
   12.4556    3.7452   -2.6290 C   0  0  0  0  0  0  0  0  0  0  0  0
   12.9078    3.6654   -4.1461 C   0  0  0  0  0  0  0  0  0  0  0  0
   14.1435    4.0422   -4.7751 C   0  0  0  0  0  0  0  0  0  0  0  0
   14.4569    5.0025   -5.6964 C   0  0  0  0  0  0  0  0  0  0  0  0
   15.8168    5.2543   -5.5134 C   0  0  0  0  0  0  0  0  0  0  0  0
   16.4591    6.2774   -6.0112 C   0  0  0  0  0  0  0  0  0  0  0  0
   17.7920    6.1199   -5.6108 C   0  0  0  0  0  0  0  0  0  0  0  0
   18.6047    6.7713   -6.4034 C   0  0  0  0  0  0  0  0  0  0  0  0
   19.9584    6.6431   -6.0378 C   0  0  0  0  0  0  0  0  0  0  0  0
   20.8089    7.3257   -6.7557 C   0  0  0  0  0  0  0  0  0  0  0  0
   22.2060    7.4040   -6.5113 C   0  0  0  0  0  0  0  0  0  0  0  0
   22.7849    8.1428   -7.4432 C   0  0  0  0  0  0  0  0  0  0  0  0
   24.1440    8.3841   -7.5953 C   0  0  0  0  0  0  0  0  0  0  0  0
   24.4199    9.1656   -8.6385 C   0  0  0  0  0  0  0  0  0  0  0  0
   25.8064    9.3695   -8.9514 C   0  0  0  0  0  0  0  0  0  0  0  0
   25.8336   10.6180   -9.4172 C   0  0  0  0  0  0  0  0  0  0  0  0
   25.9631   11.0538   -8.0234 C   0  0  0  0  0  0  0  0  0  0  0  0
   24.7773   11.0077   -6.8409 C   0  0  0  0  0  0  0  0  0  0  0  0
   23.0293   10.5447   -5.9706 C   0  0  0  0  0  0  0  0  0  0  0  0
   21.5907    9.4379   -5.3286 C   0  0  0  0  0  0  0  0  0  0  0  0
   19.4484    9.1018   -4.9141 C   0  0  0  0  0  0  0  0  0  0  0  0
   17.7383    8.3659   -4.3536 C   0  0  0  0  0  0  0  0  0  0  0  0
   15.6257    7.5663   -3.9735 C   0  0  0  0  0  0  0  0  0  0  0  0
   13.3590    6.8276   -3.0219 H   0  0  0  0  0  0  0  0  0  0  0  0
   11.4747    4.5453   -3.9640 H   0  0  0  0  0  0  0  0  0  0  0  0
    9.1692    4.2988   -4.0603 H   0  0  0  0  0  0  0  0  0  0  0  0
    8.4525    2.0468   -3.4712 H   0  0  0  0  0  0  0  0  0  0  0  0
    6.7455    2.8592   -1.9089 H   0  0  0  0  0  0  0  0  0  0  0  0
    8.2325    1.7610   -0.3202 H   0  0  0  0  0  0  0  0  0  0  0  0
    7.9365    4.5155   -1.8524 H   0  0  0  0  0  0  0  0  0  0  0  0
   10.3499    2.7276   -1.0813 H   0  0  0  0  0  0  0  0  0  0  0  0
   10.3452    5.3655   -2.1176 H   0  0  0  0  0  0  0  0  0  0  0  0
   12.3066    2.7241   -2.2744 H   0  0  0  0  0  0  0  0  0  0  0  0
   12.4584    4.3787   -5.1194 H   0  0  0  0  0  0  0  0  0  0  0  0
   14.7737    3.9376   -3.9176 H   0  0  0  0  0  0  0  0  0  0  0  0
   13.8944    5.9496   -5.9812 H   0  0  0  0  0  0  0  0  0  0  0  0
   16.2617    4.8682   -4.5776 H   0  0  0  0  0  0  0  0  0  0  0  0
   15.9927    7.2230   -6.3348 H   0  0  0  0  0  0  0  0  0  0  0  0
   18.1245    5.6352   -4.6842 H   0  0  0  0  0  0  0  0  0  0  0  0
   18.1183    7.5627   -7.0044 H   0  0  0  0  0  0  0  0  0  0  0  0
   20.2599    6.2512   -5.0712 H   0  0  0  0  0  0  0  0  0  0  0  0
   20.3126    8.0565   -7.4185 H   0  0  0  0  0  0  0  0  0  0  0  0
   22.7827    7.1855   -5.6140 H   0  0  0  0  0  0  0  0  0  0  0  0
   22.1164    8.7908   -8.0126 H   0  0  0  0  0  0  0  0  0  0  0  0
   24.8988    8.1193   -6.8490 H   0  0  0  0  0  0  0  0  0  0  0  0
   23.7791   10.1101   -8.7277 H   0  0  0  0  0  0  0  0  0  0  0  0
   26.4348    9.0318   -8.0509 H   0  0  0  0  0  0  0  0  0  0  0  0
   26.1410   11.6068   -9.7813 H   0  0  0  0  0  0  0  0  0  0  0  0
   27.3447   10.8474   -8.1438 H   0  0  0  0  0  0  0  0  0  0  0  0
   25.9509   11.5883   -6.5922 H   0  0  0  0  0  0  0  0  0  0  0  0
   24.3938   10.4173   -5.4175 H   0  0  0  0  0  0  0  0  0  0  0  0
   21.6186   10.1583   -6.4433 H   0  0  0  0  0  0  0  0  0  0  0  0
   19.7904    9.2966   -5.9928 H   0  0  0  0  0  0  0  0  0  0  0  0
   17.6228    8.6550   -5.4297 H   0  0  0  0  0  0  0  0  0  0  0  0
   15.0508    8.4149   -3.8443 H   0  0  0  0  0  0  0  0  0  0  0  0
  1  2  1  0  0  0  0
  1 32  2  3  0  0  0
  1 33  1  0  0  0  0
  2  3  2  3  0  0  0
  2 34  1  0  0  0  0
  3  4  1  0  0  0  0
  3 35  1  0  0  0  0
  4  5  2  3  0  0  0
  4 36  1  0  0  0  0
  5  6  1  0  0  0  0
  5 37  1  0  0  0  0
  6  7  2  3  0  0  0
  6 38  1  0  0  0  0
  7  8  1  0  0  0  0
  7 39  1  0  0  0  0
  8  9  2  3  0  0  0
  8 40  1  0  0  0  0
  9 10  1  0  0  0  0
  9 41  1  0  0  0  0
 10 11  2  3  0  0  0
 10 42  1  0  0  0  0
 11 12  1  0  0  0  0
 11 43  1  0  0  0  0
 12 13  2  3  0  0  0
 12 44  1  0  0  0  0
 13 14  1  0  0  0  0
 13 45  1  0  0  0  0
 14 15  2  3  0  0  0
 14 46  1  0  0  0  0
 15 16  1  0  0  0  0
 15 47  1  0  0  0  0
 16 17  2  3  0  0  0
 16 48  1  0  0  0  0
 17 18  1  0  0  0  0
 17 49  1  0  0  0  0
 18 19  2  3  0  0  0
 18 50  1  0  0  0  0
 19 20  1  0  0  0  0
 19 51  1  0  0  0  0
 20 21  2  3  0  0  0
 20 52  1  0  0  0  0
 21 22  1  0  0  0  0
 21 53  1  0  0  0  0
 22 23  2  3  0  0  0
 22 54  1  0  0  0  0
 23 24  1  0  0  0  0
 23 55  1  0  0  0  0
 24 25  2  3  0  0  0
 24 56  1  0  0  0  0
 25 26  1  0  0  0  0
 25 57  1  0  0  0  0
 26 27  2  3  0  0  0
 26 58  1  0  0  0  0
 27 28  1  0  0  0  0
 27 59  1  0  0  0  0
 28 29  2  3  0  0  0
 28 60  1  0  0  0  0
 29 30  1  0  0  0  0
 29 61  1  0  0  0  0
 30 31  2  3  0  0  0
 30 62  1  0  0  0  0
 31 32  1  0  0  0  0
 31 63  1  0  0  0  0
 32 64  1  0  0  0  0
M  END
$$$$
