
 OpenBabel04232216583D

119118  0  0  0  0  0  0  0  0999 V2000
   20.3379   -1.8614   20.7161 N   0  0  0  0  0  0  0  0  0  0  0  0
   19.7439   -2.7312   19.7543 N   0  0  0  0  0  0  0  0  0  0  0  0
   20.1384   -2.3039   18.4466 N   0  0  0  0  0  0  0  0  0  0  0  0
   19.5226   -3.2132   17.4686 C   0  0  0  0  0  0  0  0  0  0  0  0
   18.0497   -3.2383   17.5358 N   0  0  0  0  0  0  0  0  0  0  0  0
   17.5849   -1.9096   17.3036 N   0  0  0  0  0  0  0  0  0  0  0  0
   17.9420   -1.4993   15.9826 N   0  0  0  0  0  0  0  0  0  0  0  0
   17.5447   -0.1707   15.7569 N   0  0  0  0  0  0  0  0  0  0  0  0
   18.1087    0.7362   16.7082 N   0  0  0  0  0  0  0  0  0  0  0  0
   19.5375    0.6999   16.6074 N   0  0  0  0  0  0  0  0  0  0  0  0
   19.9362    1.0702   15.2896 N   0  0  0  0  0  0  0  0  0  0  0  0
   19.4901    2.4091   14.9917 N   0  0  0  0  0  0  0  0  0  0  0  0
   20.0366    3.3036   15.9646 N   0  0  0  0  0  0  0  0  0  0  0  0
   21.4603    3.2576   15.9040 N   0  0  0  0  0  0  0  0  0  0  0  0
   21.8688    3.6157   14.5869 N   0  0  0  0  0  0  0  0  0  0  0  0
   21.4242    4.9440   14.2779 N   0  0  0  0  0  0  0  0  0  0  0  0
   21.9463    5.8753   15.2397 N   0  0  0  0  0  0  0  0  0  0  0  0
   23.3730    5.8486   15.1811 N   0  0  0  0  0  0  0  0  0  0  0  0
   23.8136    6.1714   13.8646 N   0  0  0  0  0  0  0  0  0  0  0  0
   23.3691    7.5018   13.5455 N   0  0  0  0  0  0  0  0  0  0  0  0
   23.8746    8.4645   14.5031 N   0  0  0  0  0  0  0  0  0  0  0  0
   25.2905    8.4306   14.4630 N   0  0  0  0  0  0  0  0  0  0  0  0
   25.7376    8.7359   13.1448 N   0  0  0  0  0  0  0  0  0  0  0  0
   25.2733   10.0626   12.8007 N   0  0  0  0  0  0  0  0  0  0  0  0
   25.7818   11.0656   13.7315 N   0  0  0  0  0  0  0  0  0  0  0  0
   27.1981   11.0137   13.7344 N   0  0  0  0  0  0  0  0  0  0  0  0
   27.6557   11.3146   12.4258 N   0  0  0  0  0  0  0  0  0  0  0  0
   27.1977   12.6216   12.0504 N   0  0  0  0  0  0  0  0  0  0  0  0
   27.6510   13.5804   12.9986 N   0  0  0  0  0  0  0  0  0  0  0  0
   29.0903   13.5993   12.9973 N   0  0  0  0  0  0  0  0  0  0  0  0
   29.5873   13.9165   11.6866 N   0  0  0  0  0  0  0  0  0  0  0  0
   29.1237   15.2091   11.2726 N   0  0  0  0  0  0  0  0  0  0  0  0
   29.5733   16.1884   12.2008 N   0  0  0  0  0  0  0  0  0  0  0  0
   31.0102   16.1979   12.2262 N   0  0  0  0  0  0  0  0  0  0  0  0
   31.5224   16.4768   10.9246 N   0  0  0  0  0  0  0  0  0  0  0  0
   31.0400   17.7327   10.4983 N   0  0  0  0  0  0  0  0  0  0  0  0
   31.4766   18.7226   11.4313 N   0  0  0  0  0  0  0  0  0  0  0  0
   32.9121   18.7379   11.4914 N   0  0  0  0  0  0  0  0  0  0  0  0
   33.4521   19.0119   10.2099 N   0  0  0  0  0  0  0  0  0  0  0  0
   32.9956   20.2859    9.7625 N   0  0  0  0  0  0  0  0  0  0  0  0
   33.3806   21.2878   10.6948 N   0  0  0  0  0  0  0  0  0  0  0  0
   34.8051   21.3020   10.7873 N   0  0  0  0  0  0  0  0  0  0  0  0
   35.3461   21.5635    9.4818 N   0  0  0  0  0  0  0  0  0  0  0  0
   34.8656   22.8377    9.0026 N   0  0  0  0  0  0  0  0  0  0  0  0
   35.2681   23.8726    9.9151 N   0  0  0  0  0  0  0  0  0  0  0  0
   36.6954   23.9157   10.0196 N   0  0  0  0  0  0  0  0  0  0  0  0
   37.2605   24.1665    8.7324 N   0  0  0  0  0  0  0  0  0  0  0  0
   36.7993   25.4345    8.2274 N   0  0  0  0  0  0  0  0  0  0  0  0
   37.1678   26.5145    9.1438 N   0  0  0  0  0  0  0  0  0  0  0  0
   38.6253   26.4951    9.2596 C   0  0  0  0  0  0  0  0  0  0  0  0
   39.0350   27.5836   10.2207 C   0  0  0  0  0  0  0  0  0  0  0  0
   40.5455   27.6278   10.3389 C   0  0  0  0  0  0  0  0  0  0  0  0
   40.9605   28.7259   11.2962 C   0  0  0  0  0  0  0  0  0  0  0  0
   42.4717   28.7757   11.4143 C   0  0  0  0  0  0  0  0  0  0  0  0
   42.8803   29.8724   12.3699 C   0  0  0  0  0  0  0  0  0  0  0  0
   20.0407   -2.1264   21.6523 H   0  0  0  0  0  0  0  0  0  0  0  0
   20.0065   -0.9102   20.5612 H   0  0  0  0  0  0  0  0  0  0  0  0
   18.7179   -2.6983   19.8003 H   0  0  0  0  0  0  0  0  0  0  0  0
   21.1595   -2.4187   18.3580 H   0  0  0  0  0  0  0  0  0  0  0  0
   19.8748   -4.2500   17.6291 H   0  0  0  0  0  0  0  0  0  0  0  0
   19.8558   -2.9688   16.4503 H   0  0  0  0  0  0  0  0  0  0  0  0
   17.7810   -3.5351   18.4802 H   0  0  0  0  0  0  0  0  0  0  0  0
   18.0303   -1.3133   18.0073 H   0  0  0  0  0  0  0  0  0  0  0  0
   17.5773   -2.1610   15.2873 H   0  0  0  0  0  0  0  0  0  0  0  0
   16.5320   -0.1025   15.7967 H   0  0  0  0  0  0  0  0  0  0  0  0
   17.8128    0.4838   17.6563 H   0  0  0  0  0  0  0  0  0  0  0  0
   19.8815   -0.2436   16.7812 H   0  0  0  0  0  0  0  0  0  0  0  0
   19.5355    0.4071   14.6160 H   0  0  0  0  0  0  0  0  0  0  0  0
   18.4739    2.4447   15.0667 H   0  0  0  0  0  0  0  0  0  0  0  0
   19.7151    3.0187   16.8957 H   0  0  0  0  0  0  0  0  0  0  0  0
   21.7848    2.3095   16.0770 H   0  0  0  0  0  0  0  0  0  0  0  0
   21.4767    2.9462   13.9107 H   0  0  0  0  0  0  0  0  0  0  0  0
   20.4076    4.9818   14.3396 H   0  0  0  0  0  0  0  0  0  0  0  0
   21.6158    5.5904   16.1701 H   0  0  0  0  0  0  0  0  0  0  0  0
   23.7079    4.9114   15.3840 H   0  0  0  0  0  0  0  0  0  0  0  0
   23.4197    5.4942   13.1988 H   0  0  0  0  0  0  0  0  0  0  0  0
   22.3556    7.5461   13.5830 H   0  0  0  0  0  0  0  0  0  0  0  0
   23.5256    8.1802   15.4304 H   0  0  0  0  0  0  0  0  0  0  0  0
   25.6320    7.5046   14.7024 H   0  0  0  0  0  0  0  0  0  0  0  0
   25.3596    8.0633   12.4666 H   0  0  0  0  0  0  0  0  0  0  0  0
   24.2471   10.0636   12.8230 H   0  0  0  0  0  0  0  0  0  0  0  0
   25.4706   10.7949   14.6631 H   0  0  0  0  0  0  0  0  0  0  0  0
   27.4983   10.0714   14.0088 H   0  0  0  0  0  0  0  0  0  0  0  0
   27.3026   10.6326   11.7497 H   0  0  0  0  0  0  0  0  0  0  0  0
   26.1815   12.6410   12.0827 H   0  0  0  0  0  0  0  0  0  0  0  0
   27.2972   13.3230   13.9228 H   0  0  0  0  0  0  0  0  0  0  0  0
   29.4416   12.6834   13.2607 H   0  0  0  0  0  0  0  0  0  0  0  0
   29.2377   13.2449   11.0079 H   0  0  0  0  0  0  0  0  0  0  0  0
   28.0906   15.1721   11.2551 H   0  0  0  0  0  0  0  0  0  0  0  0
   29.2177   15.9444   13.1319 H   0  0  0  0  0  0  0  0  0  0  0  0
   31.3330   15.2635   12.4716 H   0  0  0  0  0  0  0  0  0  0  0  0
   31.1541   15.7595   10.2998 H   0  0  0  0  0  0  0  0  0  0  0  0
   30.0154   17.6777   10.5031 H   0  0  0  0  0  0  0  0  0  0  0  0
   31.1108   18.4584   12.3557 H   0  0  0  0  0  0  0  0  0  0  0  0
   33.2192   17.8018   11.7591 H   0  0  0  0  0  0  0  0  0  0  0  0
   33.1060   18.3021    9.5698 H   0  0  0  0  0  0  0  0  0  0  0  0
   31.9789   20.2382    9.7565 H   0  0  0  0  0  0  0  0  0  0  0  0
   32.9751   21.0211   11.5998 H   0  0  0  0  0  0  0  0  0  0  0  0
   35.0917   20.3594   11.0934 H   0  0  0  0  0  0  0  0  0  0  0  0
   35.0119   20.8178    8.8540 H   0  0  0  0  0  0  0  0  0  0  0  0
   33.8440   22.8002    8.9739 H   0  0  0  0  0  0  0  0  0  0  0  0
   34.8926   23.6452   10.8371 H   0  0  0  0  0  0  0  0  0  0  0  0
   37.0133   22.9971   10.3441 H   0  0  0  0  0  0  0  0  0  0  0  0
   36.9452   23.4160    8.1115 H   0  0  0  0  0  0  0  0  0  0  0  0
   35.7752   25.3566    8.2167 H   0  0  0  0  0  0  0  0  0  0  0  0
   36.7590   26.2053   10.0403 H   0  0  0  0  0  0  0  0  0  0  0  0
   39.0671   26.6736    8.2750 H   0  0  0  0  0  0  0  0  0  0  0  0
   39.0078   25.5343    9.6356 H   0  0  0  0  0  0  0  0  0  0  0  0
   38.5957   27.3977   11.2077 H   0  0  0  0  0  0  0  0  0  0  0  0
   38.6660   28.5482    9.8579 H   0  0  0  0  0  0  0  0  0  0  0  0
   40.9881   27.8124    9.3537 H   0  0  0  0  0  0  0  0  0  0  0  0
   40.9181   26.6634   10.7022 H   0  0  0  0  0  0  0  0  0  0  0  0
   40.5198   28.5411   12.2823 H   0  0  0  0  0  0  0  0  0  0  0  0
   40.5872   29.6906   10.9344 H   0  0  0  0  0  0  0  0  0  0  0  0
   42.9136   28.9635   10.4303 H   0  0  0  0  0  0  0  0  0  0  0  0
   42.8461   27.8136   11.7788 H   0  0  0  0  0  0  0  0  0  0  0  0
   42.5223   30.8415   12.0099 H   0  0  0  0  0  0  0  0  0  0  0  0
   43.9683   29.9104   12.4567 H   0  0  0  0  0  0  0  0  0  0  0  0
   42.4547   29.6893   13.3610 H   0  0  0  0  0  0  0  0  0  0  0  0
  1  2  1  0  0  0  0
  1 56  1  0  0  0  0
  1 57  1  0  0  0  0
  2  3  1  0  0  0  0
  2 58  1  0  0  0  0
  3  4  1  0  0  0  0
  3 59  1  0  0  0  0
  4  5  1  0  0  0  0
  4 60  1  0  0  0  0
  4 61  1  0  0  0  0
  5  6  1  0  0  0  0
  5 62  1  0  0  0  0
  6  7  1  0  0  0  0
  6 63  1  0  0  0  0
  7  8  1  0  0  0  0
  7 64  1  0  0  0  0
  8  9  1  0  0  0  0
  8 65  1  0  0  0  0
  9 10  1  0  0  0  0
  9 66  1  0  0  0  0
 10 11  1  0  0  0  0
 10 67  1  0  0  0  0
 11 12  1  0  0  0  0
 11 68  1  0  0  0  0
 12 13  1  0  0  0  0
 12 69  1  0  0  0  0
 13 14  1  0  0  0  0
 13 70  1  0  0  0  0
 14 15  1  0  0  0  0
 14 71  1  0  0  0  0
 15 16  1  0  0  0  0
 15 72  1  0  0  0  0
 16 17  1  0  0  0  0
 16 73  1  0  0  0  0
 17 18  1  0  0  0  0
 17 74  1  0  0  0  0
 18 19  1  0  0  0  0
 18 75  1  0  0  0  0
 19 20  1  0  0  0  0
 19 76  1  0  0  0  0
 20 21  1  0  0  0  0
 20 77  1  0  0  0  0
 21 22  1  0  0  0  0
 21 78  1  0  0  0  0
 22 23  1  0  0  0  0
 22 79  1  0  0  0  0
 23 24  1  0  0  0  0
 23 80  1  0  0  0  0
 24 25  1  0  0  0  0
 24 81  1  0  0  0  0
 25 26  1  0  0  0  0
 25 82  1  0  0  0  0
 26 27  1  0  0  0  0
 26 83  1  0  0  0  0
 27 28  1  0  0  0  0
 27 84  1  0  0  0  0
 28 29  1  0  0  0  0
 28 85  1  0  0  0  0
 29 30  1  0  0  0  0
 29 86  1  0  0  0  0
 30 31  1  0  0  0  0
 30 87  1  0  0  0  0
 31 32  1  0  0  0  0
 31 88  1  0  0  0  0
 32 33  1  0  0  0  0
 32 89  1  0  0  0  0
 33 34  1  0  0  0  0
 33 90  1  0  0  0  0
 34 35  1  0  0  0  0
 34 91  1  0  0  0  0
 35 36  1  0  0  0  0
 35 92  1  0  0  0  0
 36 37  1  0  0  0  0
 36 93  1  0  0  0  0
 37 38  1  0  0  0  0
 37 94  1  0  0  0  0
 38 39  1  0  0  0  0
 38 95  1  0  0  0  0
 39 40  1  0  0  0  0
 39 96  1  0  0  0  0
 40 41  1  0  0  0  0
 40 97  1  0  0  0  0
 41 42  1  0  0  0  0
 41 98  1  0  0  0  0
 42 43  1  0  0  0  0
 42 99  1  0  0  0  0
 43 44  1  0  0  0  0
 43100  1  0  0  0  0
 44 45  1  0  0  0  0
 44101  1  0  0  0  0
 45 46  1  0  0  0  0
 45102  1  0  0  0  0
 46 47  1  0  0  0  0
 46103  1  0  0  0  0
 47 48  1  0  0  0  0
 47104  1  0  0  0  0
 48 49  1  0  0  0  0
 48105  1  0  0  0  0
 49 50  1  0  0  0  0
 49106  1  0  0  0  0
 50 51  1  0  0  0  0
 50107  1  0  0  0  0
 50108  1  0  0  0  0
 51 52  1  0  0  0  0
 51109  1  0  0  0  0
 51110  1  0  0  0  0
 52 53  1  0  0  0  0
 52111  1  0  0  0  0
 52112  1  0  0  0  0
 53 54  1  0  0  0  0
 53113  1  0  0  0  0
 53114  1  0  0  0  0
 54 55  1  0  0  0  0
 54115  1  0  0  0  0
 54116  1  0  0  0  0
 55117  1  0  0  0  0
 55118  1  0  0  0  0
 55119  1  0  0  0  0
M  END
$$$$
