
 OpenBabel04232216463D

 66 67  0  0  1  0  0  0  0  0999 V2000
    4.8646   -3.4674   -3.1839 C   0  0  0  0  0  0  0  0  0  0  0  0
    6.0876   -2.6829   -3.7989 C   0  0  3  0  0  0  0  0  0  0  0  0
    5.5588   -1.2321   -3.8327 C   0  0  0  0  0  0  0  0  0  0  0  0
    5.2887   -0.3017   -2.8689 C   0  0  0  0  0  0  0  0  0  0  0  0
    5.3024   -0.3957   -1.3575 C   0  0  0  0  0  0  0  0  0  0  0  0
    5.2156    0.9931   -3.3538 N   0  0  0  0  0  0  0  0  0  0  0  0
    6.4398    1.4279   -3.4603 C   0  0  0  0  0  0  0  0  0  0  0  0
    7.0672    1.3572   -4.7987 C   0  0  0  0  0  0  0  0  0  0  0  0
    8.1202    0.4996   -4.7637 C   0  0  0  0  0  0  0  0  0  0  0  0
    8.8750   -0.0619   -5.9085 C   0  0  0  0  0  0  0  0  0  0  0  0
   10.1736   -0.5591   -5.2991 C   0  0  0  0  0  0  0  0  0  0  0  0
   11.2213   -0.9168   -6.2782 C   0  0  0  0  0  0  0  0  0  0  0  0
   11.9250   -0.1917   -6.9634 O   0  0  0  0  0  0  0  0  0  0  0  0
   11.2144   -2.2787   -6.3182 N   0  0  0  0  0  0  0  0  0  0  0  0
   10.4170   -2.6655   -7.5182 C   0  0  0  0  0  0  0  0  0  0  0  0
    9.0918   -3.5242   -7.4738 C   0  0  3  0  0  0  0  0  0  0  0  0
    9.5540   -4.8218   -8.5311 C   0  0  0  0  0  0  0  0  0  0  0  0
   10.6240   -4.8069   -9.8232 C   0  0  0  0  0  0  0  0  0  0  0  0
   12.1522   -5.2663   -9.9080 C   0  0  0  0  0  0  0  0  0  0  0  0
   12.6379   -6.7229   -9.6499 C   0  0  0  0  0  0  0  0  0  0  0  0
   13.7026   -6.8213   -8.5371 C   0  0  0  0  0  0  0  0  0  0  0  0
   13.0858   -6.5650   -7.1669 C   0  0  0  0  0  0  0  0  0  0  0  0
   13.5789   -5.2766   -6.4901 C   0  0  0  0  0  0  0  0  0  0  0  0
   12.3940   -4.4535   -5.9615 C   0  0  0  0  0  0  0  0  0  0  0  0
   12.5008   -2.9392   -6.2357 C   0  0  3  0  0  0  0  0  0  0  0  0
   13.1265   -2.3867   -5.0951 O   0  0  0  0  0  0  0  0  0  0  0  0
    7.7069   -3.5236   -6.2725 C   0  0  0  0  0  0  0  0  0  0  0  0
    7.3795   -3.0086   -4.9901 C   0  0  0  0  0  0  0  0  0  0  0  0
    3.9227   -2.8778   -3.1820 H   0  0  0  0  0  0  0  0  0  0  0  0
    5.0300   -3.5867   -2.0932 H   0  0  0  0  0  0  0  0  0  0  0  0
    4.6276   -4.4463   -3.5897 H   0  0  0  0  0  0  0  0  0  0  0  0
    6.7445   -2.6651   -2.9132 H   0  0  0  0  0  0  0  0  0  0  0  0
    5.2983   -0.9162   -4.8454 H   0  0  0  0  0  0  0  0  0  0  0  0
    4.2987   -0.2424   -0.9342 H   0  0  0  0  0  0  0  0  0  0  0  0
    5.9316    0.3905   -0.9115 H   0  0  0  0  0  0  0  0  0  0  0  0
    5.6826   -1.3533   -1.0036 H   0  0  0  0  0  0  0  0  0  0  0  0
    7.1425    1.2967   -2.6055 H   0  0  0  0  0  0  0  0  0  0  0  0
    6.5584    1.5938   -5.6894 H   0  0  0  0  0  0  0  0  0  0  0  0
    8.4698    0.1471   -3.7886 H   0  0  0  0  0  0  0  0  0  0  0  0
    9.0646    0.6685   -6.6915 H   0  0  0  0  0  0  0  0  0  0  0  0
    8.2939   -0.8704   -6.3664 H   0  0  0  0  0  0  0  0  0  0  0  0
    9.9515   -1.4527   -4.6872 H   0  0  0  0  0  0  0  0  0  0  0  0
   10.6309    0.1612   -4.6202 H   0  0  0  0  0  0  0  0  0  0  0  0
   11.1415   -3.1641   -8.1909 H   0  0  0  0  0  0  0  0  0  0  0  0
   10.1729   -1.7742   -8.1296 H   0  0  0  0  0  0  0  0  0  0  0  0
    8.4813   -2.9554   -8.2042 H   0  0  0  0  0  0  0  0  0  0  0  0
    9.8649   -5.6599   -7.9166 H   0  0  0  0  0  0  0  0  0  0  0  0
    8.6192   -4.9879   -9.0765 H   0  0  0  0  0  0  0  0  0  0  0  0
   10.5969   -3.8139  -10.2986 H   0  0  0  0  0  0  0  0  0  0  0  0
   10.1548   -5.4781  -10.5607 H   0  0  0  0  0  0  0  0  0  0  0  0
   12.8079   -4.5489   -9.4072 H   0  0  0  0  0  0  0  0  0  0  0  0
   12.4085   -5.1359  -10.9801 H   0  0  0  0  0  0  0  0  0  0  0  0
   13.1286   -7.1134  -10.5511 H   0  0  0  0  0  0  0  0  0  0  0  0
   11.8010   -7.4052   -9.4503 H   0  0  0  0  0  0  0  0  0  0  0  0
   14.5448   -6.1503   -8.7525 H   0  0  0  0  0  0  0  0  0  0  0  0
   14.1309   -7.8342   -8.5410 H   0  0  0  0  0  0  0  0  0  0  0  0
   13.3079   -7.4131   -6.5091 H   0  0  0  0  0  0  0  0  0  0  0  0
   11.9951   -6.5665   -7.2726 H   0  0  0  0  0  0  0  0  0  0  0  0
   14.2152   -4.6862   -7.1583 H   0  0  0  0  0  0  0  0  0  0  0  0
   14.2162   -5.5608   -5.6424 H   0  0  0  0  0  0  0  0  0  0  0  0
   12.3260   -4.6210   -4.8789 H   0  0  0  0  0  0  0  0  0  0  0  0
   11.4629   -4.8298   -6.3791 H   0  0  0  0  0  0  0  0  0  0  0  0
   13.1210   -2.7065   -7.1181 H   0  0  0  0  0  0  0  0  0  0  0  0
   12.4028   -2.2842   -4.4543 H   0  0  0  0  0  0  0  0  0  0  0  0
    6.8265   -3.9021   -6.8182 H   0  0  0  0  0  0  0  0  0  0  0  0
    8.2468   -2.6165   -4.4641 H   0  0  0  0  0  0  0  0  0  0  0  0
  1  2  1  0  0  0  0
  1 29  1  0  0  0  0
  1 30  1  0  0  0  0
  1 31  1  0  0  0  0
  2  3  1  0  0  0  0
  2 28  1  0  0  0  0
  2 32  1  0  0  0  0
  3  4  2  3  0  0  0
  3 33  1  0  0  0  0
  4  5  1  0  0  0  0
  4  6  1  0  0  0  0
  5 34  1  0  0  0  0
  5 35  1  0  0  0  0
  5 36  1  0  0  0  0
  6  7  2  3  0  0  0
  7  8  1  0  0  0  0
  7 37  1  0  0  0  0
  8  9  2  3  0  0  0
  8 38  1  0  0  0  0
  9 10  1  0  0  0  0
  9 39  1  0  0  0  0
 10 11  1  0  0  0  0
 10 40  1  0  0  0  0
 10 41  1  0  0  0  0
 11 12  1  0  0  0  0
 11 42  1  0  0  0  0
 11 43  1  0  0  0  0
 12 13  2  0  0  0  0
 12 14  1  0  0  0  0
 14 15  1  0  0  0  0
 14 25  1  0  0  0  0
 15 16  1  0  0  0  0
 15 44  1  0  0  0  0
 15 45  1  0  0  0  0
 16 17  1  0  0  0  0
 16 27  1  0  0  0  0
 16 46  1  0  0  0  0
 17 18  1  0  0  0  0
 17 47  1  0  0  0  0
 17 48  1  0  0  0  0
 18 19  1  0  0  0  0
 18 49  1  0  0  0  0
 18 50  1  0  0  0  0
 19 20  1  0  0  0  0
 19 51  1  0  0  0  0
 19 52  1  0  0  0  0
 20 21  1  0  0  0  0
 20 53  1  0  0  0  0
 20 54  1  0  0  0  0
 21 22  1  0  0  0  0
 21 55  1  0  0  0  0
 21 56  1  0  0  0  0
 22 23  1  0  0  0  0
 22 57  1  0  0  0  0
 22 58  1  0  0  0  0
 23 24  1  0  0  0  0
 23 59  1  0  0  0  0
 23 60  1  0  0  0  0
 24 25  1  0  0  0  0
 24 61  1  0  0  0  0
 24 62  1  0  0  0  0
 25 26  1  0  0  0  0
 25 63  1  0  0  0  0
 26 64  1  0  0  0  0
 27 28  2  3  0  0  0
 27 65  1  0  0  0  0
 28 66  1  0  0  0  0
M  END
$$$$
