
 OpenBabel04232216503D

 79 80  0  0  1  0  0  0  0  0999 V2000
    7.8546    1.7726    0.3011 C   0  0  0  0  0  0  0  0  0  0  0  0
    8.7011    2.0446    1.9882 C   0  0  3  0  0  0  0  0  0  0  0  0
    6.7503    2.2205    2.3249 C   0  0  0  0  0  0  0  0  0  0  0  0
    5.9123    0.6655    2.4294 C   0  0  0  0  0  0  0  0  0  0  0  0
    5.3796    0.6730    3.8192 C   0  0  0  0  0  0  0  0  0  0  0  0
    6.7105    0.5572    4.4323 C   0  0  0  0  0  0  0  0  0  0  0  0
    6.8428    1.6195    5.4107 C   0  0  0  0  0  0  0  0  0  0  0  0
    8.2418    1.9887    5.0971 C   0  0  0  0  0  0  0  0  0  0  0  0
    8.6139    2.4866    6.3736 C   0  0  0  0  0  0  0  0  0  0  0  0
   10.0448    2.4988    6.2431 C   0  0  0  0  0  0  0  0  0  0  0  0
   10.1931    2.8516    7.6722 C   0  0  0  0  0  0  0  0  0  0  0  0
   11.5842    2.8008    7.7540 C   0  0  0  0  0  0  0  0  0  0  0  0
   12.1232    3.1419    9.0963 C   0  0  0  0  0  0  0  0  0  0  0  0
   13.4609    2.7841    8.5298 C   0  0  0  0  0  0  0  0  0  0  0  0
   13.8098    1.5613    8.5919 O   0  0  0  0  0  0  0  0  0  0  0  0
   13.6501    3.8444    7.5564 N   0  0  0  0  0  0  0  0  0  0  0  0
   14.0751    3.2544    6.3435 C   0  0  0  0  0  0  0  0  0  0  0  0
   12.8517    3.0800    5.3110 C   0  0  0  0  0  0  0  0  0  0  0  0
   12.0289    2.5410    3.6866 C   0  0  0  0  0  0  0  0  0  0  0  0
   13.7220    2.6194    3.1579 C   0  0  0  0  0  0  0  0  0  0  0  0
   15.3179    1.8740    3.7471 C   0  0  0  0  0  0  0  0  0  0  0  0
   16.5869    1.4194    4.8827 C   0  0  0  0  0  0  0  0  0  0  0  0
   16.3779    0.1704    5.8299 C   0  0  0  0  0  0  0  0  0  0  0  0
   17.4589   -0.4486    6.8607 C   0  0  0  0  0  0  0  0  0  0  0  0
   16.8618   -1.0388    8.2070 C   0  0  0  0  0  0  0  0  0  0  0  0
   17.1697   -0.1065    9.4234 C   0  0  0  0  0  0  0  0  0  0  0  0
   16.1442    1.0020    9.2221 C   0  0  0  0  0  0  0  0  0  0  0  0
   16.2126    2.5116    9.0486 C   0  0  0  0  0  0  0  0  0  0  0  0
   15.7230    3.0625    7.3399 C   0  0  0  0  0  0  0  0  0  0  0  0
   10.6194    2.3990    2.6625 C   0  0  0  0  0  0  0  0  0  0  0  0
    7.0032    1.0305    0.4572 H   0  0  0  0  0  0  0  0  0  0  0  0
    8.2225    1.1766   -0.5162 H   0  0  0  0  0  0  0  0  0  0  0  0
    7.1761    2.6226   -0.0499 H   0  0  0  0  0  0  0  0  0  0  0  0
    8.7517    0.9107    2.1118 H   0  0  0  0  0  0  0  0  0  0  0  0
    6.0735    2.3361    1.4003 H   0  0  0  0  0  0  0  0  0  0  0  0
    6.3885    3.1194    2.7010 H   0  0  0  0  0  0  0  0  0  0  0  0
    6.6713   -0.1353    2.2652 H   0  0  0  0  0  0  0  0  0  0  0  0
    5.1196    0.3697    1.7342 H   0  0  0  0  0  0  0  0  0  0  0  0
    4.7395   -0.1188    4.2021 H   0  0  0  0  0  0  0  0  0  0  0  0
    4.8671    1.6349    3.9902 H   0  0  0  0  0  0  0  0  0  0  0  0
    7.4686    0.8094    3.6886 H   0  0  0  0  0  0  0  0  0  0  0  0
    7.1070   -0.4373    4.6300 H   0  0  0  0  0  0  0  0  0  0  0  0
    6.6231    1.1874    6.3888 H   0  0  0  0  0  0  0  0  0  0  0  0
    6.2524    2.5361    5.2830 H   0  0  0  0  0  0  0  0  0  0  0  0
    8.3521    2.7650    4.3323 H   0  0  0  0  0  0  0  0  0  0  0  0
    8.8861    1.1294    4.8094 H   0  0  0  0  0  0  0  0  0  0  0  0
    8.3229    1.7824    7.1645 H   0  0  0  0  0  0  0  0  0  0  0  0
    8.2100    3.4855    6.5447 H   0  0  0  0  0  0  0  0  0  0  0  0
   10.3446    3.2602    5.5082 H   0  0  0  0  0  0  0  0  0  0  0  0
   10.5066    1.5365    5.9264 H   0  0  0  0  0  0  0  0  0  0  0  0
    9.8059    2.1270    8.3793 H   0  0  0  0  0  0  0  0  0  0  0  0
    9.8740    3.8828    7.8414 H   0  0  0  0  0  0  0  0  0  0  0  0
   11.7519    3.6650    7.1052 H   0  0  0  0  0  0  0  0  0  0  0  0
   11.9772    1.8642    7.2791 H   0  0  0  0  0  0  0  0  0  0  0  0
   11.7923    2.4774    9.8859 H   0  0  0  0  0  0  0  0  0  0  0  0
   12.0461    4.2023    9.3102 H   0  0  0  0  0  0  0  0  0  0  0  0
   14.1541    4.6001    7.9865 H   0  0  0  0  0  0  0  0  0  0  0  0
   12.3131    4.0475    5.3256 H   0  0  0  0  0  0  0  0  0  0  0  0
   13.9509    3.6515    3.4854 H   0  0  0  0  0  0  0  0  0  0  0  0
   13.7828    2.8387    2.0843 H   0  0  0  0  0  0  0  0  0  0  0  0
   15.9413    2.6690    3.2877 H   0  0  0  0  0  0  0  0  0  0  0  0
   14.9221    2.1992    4.6915 H   0  0  0  0  0  0  0  0  0  0  0  0
   16.8301    2.3039    5.4523 H   0  0  0  0  0  0  0  0  0  0  0  0
   17.5570    1.3248    4.3718 H   0  0  0  0  0  0  0  0  0  0  0  0
   16.2127   -0.6403    5.1252 H   0  0  0  0  0  0  0  0  0  0  0  0
   15.4502    0.3402    6.3749 H   0  0  0  0  0  0  0  0  0  0  0  0
   18.2983    0.2172    7.1035 H   0  0  0  0  0  0  0  0  0  0  0  0
   17.9015   -1.3266    6.3727 H   0  0  0  0  0  0  0  0  0  0  0  0
   17.1852   -2.0651    8.4148 H   0  0  0  0  0  0  0  0  0  0  0  0
   15.7650   -1.1210    8.1072 H   0  0  0  0  0  0  0  0  0  0  0  0
   18.2208    0.1920    9.4817 H   0  0  0  0  0  0  0  0  0  0  0  0
   16.9584   -0.6562   10.3626 H   0  0  0  0  0  0  0  0  0  0  0  0
   15.2610    0.6767    9.7810 H   0  0  0  0  0  0  0  0  0  0  0  0
   15.9447    0.8829    8.1815 H   0  0  0  0  0  0  0  0  0  0  0  0
   17.2193    2.8680    9.3211 H   0  0  0  0  0  0  0  0  0  0  0  0
   15.5691    2.9659    9.8283 H   0  0  0  0  0  0  0  0  0  0  0  0
   16.6746    3.1573    6.8446 H   0  0  0  0  0  0  0  0  0  0  0  0
   15.8150    4.1153    7.6932 H   0  0  0  0  0  0  0  0  0  0  0  0
   10.9615    2.1218    1.6809 H   0  0  0  0  0  0  0  0  0  0  0  0
  1  2  1  0  0  0  0
  1 31  1  0  0  0  0
  1 32  1  0  0  0  0
  1 33  1  0  0  0  0
  2  3  1  0  0  0  0
  2 30  1  0  0  0  0
  2 34  1  0  0  0  0
  3  4  1  0  0  0  0
  3 35  1  0  0  0  0
  3 36  1  0  0  0  0
  4  5  1  0  0  0  0
  4 37  1  0  0  0  0
  4 38  1  0  0  0  0
  5  6  1  0  0  0  0
  5 39  1  0  0  0  0
  5 40  1  0  0  0  0
  6  7  1  0  0  0  0
  6 41  1  0  0  0  0
  6 42  1  0  0  0  0
  7  8  1  0  0  0  0
  7 43  1  0  0  0  0
  7 44  1  0  0  0  0
  8  9  1  0  0  0  0
  8 45  1  0  0  0  0
  8 46  1  0  0  0  0
  9 10  1  0  0  0  0
  9 47  1  0  0  0  0
  9 48  1  0  0  0  0
 10 11  1  0  0  0  0
 10 49  1  0  0  0  0
 10 50  1  0  0  0  0
 11 12  1  0  0  0  0
 11 51  1  0  0  0  0
 11 52  1  0  0  0  0
 12 13  1  0  0  0  0
 12 53  1  0  0  0  0
 12 54  1  0  0  0  0
 13 14  1  0  0  0  0
 13 55  1  0  0  0  0
 13 56  1  0  0  0  0
 14 15  2  0  0  0  0
 14 16  1  0  0  0  0
 16 17  1  0  0  0  0
 16 57  1  0  0  0  0
 17 18  2  3  0  0  0
 17 29  1  0  0  0  0
 18 19  1  0  0  0  0
 18 58  1  0  0  0  0
 19 20  1  0  0  0  0
 19 30  2  3  0  0  0
 20 21  1  0  0  0  0
 20 59  1  0  0  0  0
 20 60  1  0  0  0  0
 21 22  1  0  0  0  0
 21 61  1  0  0  0  0
 21 62  1  0  0  0  0
 22 23  1  0  0  0  0
 22 63  1  0  0  0  0
 22 64  1  0  0  0  0
 23 24  1  0  0  0  0
 23 65  1  0  0  0  0
 23 66  1  0  0  0  0
 24 25  1  0  0  0  0
 24 67  1  0  0  0  0
 24 68  1  0  0  0  0
 25 26  1  0  0  0  0
 25 69  1  0  0  0  0
 25 70  1  0  0  0  0
 26 27  1  0  0  0  0
 26 71  1  0  0  0  0
 26 72  1  0  0  0  0
 27 28  1  0  0  0  0
 27 73  1  0  0  0  0
 27 74  1  0  0  0  0
 28 29  1  0  0  0  0
 28 75  1  0  0  0  0
 28 76  1  0  0  0  0
 29 77  1  0  0  0  0
 29 78  1  0  0  0  0
 30 79  1  0  0  0  0
M  END
$$$$
