
 OpenBabel04232216503D

 71 71  0  0  0  0  0  0  0  0999 V2000
   12.4594    3.5043   -6.7761 C   0  0  0  0  0  0  0  0  0  0  0  0
   14.4988    3.7945   -6.6152 C   0  0  0  0  0  0  0  0  0  0  0  0
   13.1208    2.8560   -5.2824 C   0  0  0  0  0  0  0  0  0  0  0  0
   11.3321    2.1841   -4.6352 C   0  0  0  0  0  0  0  0  0  0  0  0
    9.4740    2.0284   -3.7708 C   0  0  0  0  0  0  0  0  0  0  0  0
    8.2120    2.3506   -2.7342 C   0  0  0  0  0  0  0  0  0  0  0  0
    7.9016    3.7733   -2.8568 C   0  0  0  0  0  0  0  0  0  0  0  0
    9.2137    3.8673   -2.0436 C   0  0  0  0  0  0  0  0  0  0  0  0
   10.2519    4.3092   -2.7452 C   0  0  0  0  0  0  0  0  0  0  0  0
   11.5992    3.8510   -2.4538 C   0  0  0  0  0  0  0  0  0  0  0  0
   12.5758    4.4515   -3.1424 C   0  0  0  0  0  0  0  0  0  0  0  0
   13.9270    3.9300   -3.2363 C   0  0  0  0  0  0  0  0  0  0  0  0
   14.8096    4.5705   -4.0112 C   0  0  0  0  0  0  0  0  0  0  0  0
   16.2119    4.2633   -4.0035 C   0  0  0  0  0  0  0  0  0  0  0  0
   17.1110    5.0068   -4.6637 C   0  0  0  0  0  0  0  0  0  0  0  0
   18.5208    4.7426   -4.6394 C   0  0  0  0  0  0  0  0  0  0  0  0
   19.4112    5.4587   -5.3358 C   0  0  0  0  0  0  0  0  0  0  0  0
   20.8875    5.2547   -5.1914 C   0  0  0  0  0  0  0  0  0  0  0  0
   21.6852    6.2022   -6.0642 C   0  0  0  0  0  0  0  0  0  0  0  0
   23.1715    5.9850   -6.0068 C   0  0  0  0  0  3  0  0  0  0  0  0
   23.9125    6.9762   -6.8118 C   0  0  0  0  0  0  0  0  0  0  0  0
   25.3429    7.0196   -6.7603 C   0  0  0  0  0  3  0  0  0  0  0  0
   26.3511    7.5035   -7.1690 C   0  0  0  0  0  0  0  0  0  0  0  0
   27.1653    7.9151   -7.9295 C   0  0  0  0  0  3  0  0  0  0  0  0
   27.7708    7.6638   -9.1733 C   0  0  0  0  0  0  0  0  0  0  0  0
   28.8122    8.5704   -9.6866 C   0  0  0  0  0  0  0  0  0  0  0  0
   28.8315    8.3467  -11.0209 C   0  0  0  0  0  0  0  0  0  0  0  0
   27.2370    8.9145  -11.4088 C   0  0  0  0  0  0  0  0  0  0  0  0
   25.7879    7.9905  -10.9890 C   0  0  0  0  0  0  0  0  0  0  0  0
   23.9361    7.3481  -10.3788 C   0  0  0  0  0  0  0  0  0  0  0  0
   22.3979    6.6135   -9.3528 C   0  0  0  0  0  0  0  0  0  0  0  0
   20.2462    5.9268   -8.8950 C   0  0  0  0  0  0  0  0  0  0  0  0
   18.4019    5.1915   -8.1377 C   0  0  0  0  0  0  0  0  0  0  0  0
   16.2688    4.5173   -7.4203 C   0  0  0  0  0  0  0  0  0  0  0  0
   11.5762    4.2194   -5.9707 H   0  0  0  0  0  0  0  0  0  0  0  0
   11.1607    3.2236   -6.3172 H   0  0  0  0  0  0  0  0  0  0  0  0
   11.8955    2.2013   -6.6790 H   0  0  0  0  0  0  0  0  0  0  0  0
   12.0862    3.3624   -4.6275 H   0  0  0  0  0  0  0  0  0  0  0  0
   10.8576    1.5264   -3.5631 H   0  0  0  0  0  0  0  0  0  0  0  0
    8.2169    1.4401   -3.7886 H   0  0  0  0  0  0  0  0  0  0  0  0
    7.7056    2.1978   -1.5438 H   0  0  0  0  0  0  0  0  0  0  0  0
    7.0785    4.4034   -2.4770 H   0  0  0  0  0  0  0  0  0  0  0  0
    7.4679    3.4722   -3.8801 H   0  0  0  0  0  0  0  0  0  0  0  0
    9.5726    2.9545   -1.3984 H   0  0  0  0  0  0  0  0  0  0  0  0
    9.9221    4.4936   -3.7819 H   0  0  0  0  0  0  0  0  0  0  0  0
   11.7898    2.8087   -2.1166 H   0  0  0  0  0  0  0  0  0  0  0  0
   12.1985    5.0172   -4.0296 H   0  0  0  0  0  0  0  0  0  0  0  0
   14.1652    2.9527   -2.8079 H   0  0  0  0  0  0  0  0  0  0  0  0
   14.4337    5.3224   -4.7166 H   0  0  0  0  0  0  0  0  0  0  0  0
   16.5267    3.4131   -3.4146 H   0  0  0  0  0  0  0  0  0  0  0  0
   16.7645    5.7824   -5.3532 H   0  0  0  0  0  0  0  0  0  0  0  0
   18.8589    3.9581   -3.9765 H   0  0  0  0  0  0  0  0  0  0  0  0
   19.0696    6.2323   -6.0194 H   0  0  0  0  0  0  0  0  0  0  0  0
   21.1447    4.2212   -5.4499 H   0  0  0  0  0  0  0  0  0  0  0  0
   21.1597    5.4463   -4.1524 H   0  0  0  0  0  0  0  0  0  0  0  0
   21.4129    7.2491   -5.8779 H   0  0  0  0  0  0  0  0  0  0  0  0
   21.4230    5.9956   -7.0884 H   0  0  0  0  0  0  0  0  0  0  0  0
   23.4776    4.9471   -6.1040 H   0  0  0  0  0  0  0  0  0  0  0  0
   23.5785    7.9921   -6.6046 H   0  0  0  0  0  0  0  0  0  0  0  0
   23.6720    6.7584   -7.8391 H   0  0  0  0  0  0  0  0  0  0  0  0
   26.9121    7.5491   -9.7087 H   0  0  0  0  0  0  0  0  0  0  0  0
   28.1116    6.6625   -9.3467 H   0  0  0  0  0  0  0  0  0  0  0  0
   28.8061    9.6352   -9.3828 H   0  0  0  0  0  0  0  0  0  0  0  0
   29.0195    7.4029  -11.5465 H   0  0  0  0  0  0  0  0  0  0  0  0
   28.3628    9.7548  -11.4587 H   0  0  0  0  0  0  0  0  0  0  0  0
   26.5101    7.8897  -12.2444 H   0  0  0  0  0  0  0  0  0  0  0  0
   24.4154    8.3646  -10.9628 H   0  0  0  0  0  0  0  0  0  0  0  0
   22.5508    6.9970  -10.7599 H   0  0  0  0  0  0  0  0  0  0  0  0
   20.4812    6.8102   -9.6970 H   0  0  0  0  0  0  0  0  0  0  0  0
   18.2972    6.1361   -8.8186 H   0  0  0  0  0  0  0  0  0  0  0  0
   16.4374    4.0757   -6.3969 H   0  0  0  0  0  0  0  0  0  0  0  0
  1  2  1  0  0  0  0
  1 35  1  0  0  0  0
  1 36  1  0  0  0  0
  1 37  1  0  0  0  0
  2  3  1  0  0  0  0
  2 34  2  3  0  0  0
  3  4  2  3  0  0  0
  3 38  1  0  0  0  0
  4  5  1  0  0  0  0
  4 39  1  0  0  0  0
  5  6  2  3  0  0  0
  5 40  1  0  0  0  0
  6  7  1  0  0  0  0
  6 41  1  0  0  0  0
  7  8  1  0  0  0  0
  7 42  1  0  0  0  0
  7 43  1  0  0  0  0
  8  9  2  3  0  0  0
  8 44  1  0  0  0  0
  9 10  1  0  0  0  0
  9 45  1  0  0  0  0
 10 11  2  3  0  0  0
 10 46  1  0  0  0  0
 11 12  1  0  0  0  0
 11 47  1  0  0  0  0
 12 13  2  3  0  0  0
 12 48  1  0  0  0  0
 13 14  1  0  0  0  0
 13 49  1  0  0  0  0
 14 15  2  3  0  0  0
 14 50  1  0  0  0  0
 15 16  1  0  0  0  0
 15 51  1  0  0  0  0
 16 17  2  3  0  0  0
 16 52  1  0  0  0  0
 17 18  1  0  0  0  0
 17 53  1  0  0  0  0
 18 19  1  0  0  0  0
 18 54  1  0  0  0  0
 18 55  1  0  0  0  0
 19 20  1  0  0  0  0
 19 56  1  0  0  0  0
 19 57  1  0  0  0  0
 20 21  1  0  0  0  0
 20 58  1  0  0  0  0
 21 22  1  0  0  0  0
 21 59  1  0  0  0  0
 21 60  1  0  0  0  0
 22 23  2  0  0  0  0
 23 24  2  0  0  0  0
 24 25  1  0  0  0  0
 25 26  1  0  0  0  0
 25 61  1  0  0  0  0
 25 62  1  0  0  0  0
 26 27  2  3  0  0  0
 26 63  1  0  0  0  0
 27 28  1  0  0  0  0
 27 64  1  0  0  0  0
 28 29  2  3  0  0  0
 28 65  1  0  0  0  0
 29 30  1  0  0  0  0
 29 66  1  0  0  0  0
 30 31  2  3  0  0  0
 30 67  1  0  0  0  0
 31 32  1  0  0  0  0
 31 68  1  0  0  0  0
 32 33  2  3  0  0  0
 32 69  1  0  0  0  0
 33 34  1  0  0  0  0
 33 70  1  0  0  0  0
 34 71  1  0  0  0  0
M  END
$$$$
