
 OpenBabel04232216513D

239238  0  0  0  0  0  0  0  0999 V2000
    0.9258    0.2784    0.2636 C   0  0  0  0  0  0  0  0  0  0  0  0
    2.4251    0.0809    0.1190 C   0  0  0  0  0  0  0  0  0  0  0  0
    2.8736   -1.2420   -0.5396 C   0  0  0  0  0  0  0  0  0  0  0  0
    2.3089   -1.4810   -1.9611 C   0  0  0  0  0  0  0  0  0  0  0  0
    2.7225   -0.4771   -3.0185 C   0  0  0  0  0  0  0  0  0  0  0  0
    4.4152   -1.2814   -0.5295 C   0  0  0  0  0  0  0  0  0  0  0  0
    4.9940   -2.5534   -1.1407 C   0  0  0  0  0  0  0  0  0  0  0  0
    6.5112   -2.5406   -1.1282 C   0  0  0  0  0  0  0  0  0  0  0  0
    7.0228   -3.8320   -1.7468 C   0  0  0  0  0  0  0  0  0  0  0  0
    8.5392   -3.8517   -1.7523 C   0  0  0  0  0  0  0  0  0  0  0  0
    9.0377   -5.1444   -2.3750 C   0  0  0  0  0  0  0  0  0  0  0  0
   10.5546   -5.1589   -2.3738 C   0  0  0  0  0  0  0  0  0  0  0  0
   11.0632   -6.4472   -2.9921 C   0  0  0  0  0  0  0  0  0  0  0  0
   12.5808   -6.4525   -2.9889 C   0  0  0  0  0  0  0  0  0  0  0  0
   13.0910   -7.7403   -3.6072 C   0  0  0  0  0  0  0  0  0  0  0  0
   14.6080   -7.7439   -3.6076 C   0  0  0  0  0  0  0  0  0  0  0  0
   15.1177   -9.0328   -4.2237 C   0  0  0  0  0  0  0  0  0  0  0  0
   16.6343   -9.0371   -4.2252 C   0  0  0  0  0  0  0  0  0  0  0  0
   17.1436  -10.3260   -4.8411 C   0  0  0  0  0  0  0  0  0  0  0  0
   18.6601  -10.3307   -4.8428 C   0  0  0  0  0  0  0  0  0  0  0  0
   19.1699  -11.6195   -5.4586 C   0  0  0  0  0  0  0  0  0  0  0  0
   20.6865  -11.6238   -5.4602 C   0  0  0  0  0  0  0  0  0  0  0  0
   21.1966  -12.9124   -6.0759 C   0  0  0  0  0  0  0  0  0  0  0  0
   22.7132  -12.9168   -6.0775 C   0  0  0  0  0  0  0  0  0  0  0  0
   23.2233  -14.2056   -6.6934 C   0  0  0  0  0  0  0  0  0  0  0  0
   24.7399  -14.2092   -6.6968 C   0  0  0  0  0  0  0  0  0  0  0  0
   25.2499  -15.4980   -7.3126 C   0  0  0  0  0  0  0  0  0  0  0  0
   26.7666  -15.5025   -7.3142 C   0  0  0  0  0  0  0  0  0  0  0  0
   27.2766  -16.7921   -7.9282 C   0  0  0  0  0  0  0  0  0  0  0  0
   28.7932  -16.7974   -7.9280 C   0  0  0  0  0  0  0  0  0  0  0  0
   29.3032  -18.0879   -8.5402 C   0  0  0  0  0  0  0  0  0  0  0  0
   30.8198  -18.0941   -8.5382 C   0  0  0  0  0  0  0  0  0  0  0  0
   31.3298  -19.3846   -9.1503 C   0  0  0  0  0  0  0  0  0  0  0  0
   32.8464  -19.3900   -9.1501 C   0  0  0  0  0  0  0  0  0  0  0  0
   33.3565  -20.6813   -9.7604 C   0  0  0  0  0  0  0  0  0  0  0  0
   34.8731  -20.6857   -9.7620 C   0  0  0  0  0  0  0  0  0  0  0  0
   35.3831  -21.9762  -10.3742 C   0  0  0  0  0  0  0  0  0  0  0  0
   36.8997  -21.9807  -10.3758 C   0  0  0  0  0  0  0  0  0  0  0  0
   37.4098  -23.2712  -10.9879 C   0  0  0  0  0  0  0  0  0  0  0  0
   38.9264  -23.2757  -10.9896 C   0  0  0  0  0  0  0  0  0  0  0  0
   39.4366  -24.5659  -11.6014 C   0  0  0  0  0  0  0  0  0  0  0  0
   40.9530  -24.5715  -11.6016 C   0  0  0  0  0  0  0  0  0  0  0  0
   41.4630  -25.8628  -12.2119 C   0  0  0  0  0  0  0  0  0  0  0  0
   42.9797  -25.8673  -12.2135 C   0  0  0  0  0  0  0  0  0  0  0  0
   43.4897  -27.1578  -12.8257 C   0  0  0  0  0  0  0  0  0  0  0  0
   45.0063  -27.1632  -12.8255 C   0  0  0  0  0  0  0  0  0  0  0  0
   45.5163  -28.4528  -13.4395 C   0  0  0  0  0  0  0  0  0  0  0  0
   47.0330  -28.4581  -13.4393 C   0  0  0  0  0  0  0  0  0  0  0  0
   47.5429  -29.7477  -14.0533 C   0  0  0  0  0  0  0  0  0  0  0  0
   49.0596  -29.7531  -14.0531 C   0  0  0  0  0  0  0  0  0  0  0  0
   49.5696  -31.0428  -14.6670 C   0  0  0  0  0  0  0  0  0  0  0  0
   51.0862  -31.0473  -14.6687 C   0  0  0  0  0  0  0  0  0  0  0  0
   51.5963  -32.3368  -15.2827 C   0  0  0  0  0  0  0  0  0  0  0  0
   53.1130  -32.3411  -15.2842 C   0  0  0  0  0  0  0  0  0  0  0  0
   53.6233  -33.6306  -15.8981 C   0  0  0  0  0  0  0  0  0  0  0  0
   55.1400  -33.6348  -15.8996 C   0  0  0  0  0  0  0  0  0  0  0  0
   55.6500  -34.9244  -16.5134 C   0  0  0  0  0  0  0  0  0  0  0  0
   57.1673  -34.9273  -16.5170 C   0  0  0  0  0  0  0  0  0  0  0  0
   57.6766  -36.2180  -17.1326 C   0  0  0  0  0  0  0  0  0  0  0  0
   59.1952  -36.2207  -17.1315 C   0  0  0  0  0  0  0  0  0  0  0  0
   59.7026  -37.5132  -17.7498 C   0  0  0  0  0  0  0  0  0  0  0  0
   61.2190  -37.5144  -17.7561 C   0  0  0  0  0  0  0  0  0  0  0  0
   61.7279  -38.8041  -18.3643 C   0  0  0  0  0  0  0  0  0  0  0  0
   63.2443  -38.8094  -18.3725 C   0  0  0  0  0  0  0  0  0  0  0  0
   63.7506  -40.1001  -18.9844 C   0  0  0  0  0  0  0  0  0  0  0  0
   65.2673  -40.1048  -18.9887 C   0  0  0  0  0  0  0  0  0  0  0  0
   65.7779  -41.3943  -19.6024 C   0  0  0  0  0  0  0  0  0  0  0  0
   67.2948  -41.3955  -19.6071 C   0  0  0  0  0  0  0  0  0  0  0  0
   67.8070  -42.6845  -20.2211 C   0  0  0  0  0  0  0  0  0  0  0  0
   69.3244  -42.6861  -20.2278 C   0  0  0  0  0  0  0  0  0  0  0  0
   69.8375  -43.9747  -20.8431 C   0  0  0  0  0  0  0  0  0  0  0  0
   71.3557  -43.9778  -20.8485 C   0  0  0  0  0  0  0  0  0  0  0  0
   71.8712  -45.2675  -21.4627 C   0  0  0  0  0  0  0  0  0  0  0  0
   73.3907  -45.2710  -21.4709 C   0  0  0  0  0  0  0  0  0  0  0  0
   73.9094  -46.5612  -22.0851 C   0  0  0  0  0  0  0  0  0  0  0  0
   75.4312  -46.5665  -22.0962 C   0  0  0  0  0  0  0  0  0  0  0  0
   75.9521  -47.8590  -22.7093 C   0  0  0  0  0  0  0  0  0  0  0  0
   77.4756  -47.8766  -22.7260 C   0  0  0  0  0  0  0  0  0  0  0  0
   77.9908  -49.1660  -23.3399 C   0  0  0  0  0  0  0  0  0  0  0  0
    0.7289    1.1042    0.9614 H   0  0  0  0  0  0  0  0  0  0  0  0
    0.4404   -0.6172    0.6649 H   0  0  0  0  0  0  0  0  0  0  0  0
    0.4587    0.5395   -0.6918 H   0  0  0  0  0  0  0  0  0  0  0  0
    2.8677    0.1387    1.1209 H   0  0  0  0  0  0  0  0  0  0  0  0
    2.8390    0.9334   -0.4400 H   0  0  0  0  0  0  0  0  0  0  0  0
    2.5179   -2.0689    0.1060 H   0  0  0  0  0  0  0  0  0  0  0  0
    1.2134   -1.4756   -1.9078 H   0  0  0  0  0  0  0  0  0  0  0  0
    2.5671   -2.4925   -2.2972 H   0  0  0  0  0  0  0  0  0  0  0  0
    2.6349    0.5506   -2.6540 H   0  0  0  0  0  0  0  0  0  0  0  0
    2.0584   -0.5720   -3.8861 H   0  0  0  0  0  0  0  0  0  0  0  0
    3.7454   -0.6424   -3.3637 H   0  0  0  0  0  0  0  0  0  0  0  0
    4.7813   -1.1811    0.4976 H   0  0  0  0  0  0  0  0  0  0  0  0
    4.8054   -0.4081   -1.0802 H   0  0  0  0  0  0  0  0  0  0  0  0
    4.6754   -2.6603   -2.1831 H   0  0  0  0  0  0  0  0  0  0  0  0
    4.6166   -3.4248   -0.5922 H   0  0  0  0  0  0  0  0  0  0  0  0
    6.8851   -2.4348   -0.1013 H   0  0  0  0  0  0  0  0  0  0  0  0
    6.8816   -1.6823   -1.7021 H   0  0  0  0  0  0  0  0  0  0  0  0
    6.6483   -3.9266   -2.7748 H   0  0  0  0  0  0  0  0  0  0  0  0
    6.6401   -4.6928   -1.1845 H   0  0  0  0  0  0  0  0  0  0  0  0
    8.9168   -3.7585   -0.7283 H   0  0  0  0  0  0  0  0  0  0  0  0
    8.9209   -2.9942   -2.3209 H   0  0  0  0  0  0  0  0  0  0  0  0
    8.6605   -5.2412   -3.3980 H   0  0  0  0  0  0  0  0  0  0  0  0
    8.6563   -6.0042   -1.8050 H   0  0  0  0  0  0  0  0  0  0  0  0
   10.9281   -5.0636   -1.3475 H   0  0  0  0  0  0  0  0  0  0  0  0
   10.9349   -4.2982   -2.9397 H   0  0  0  0  0  0  0  0  0  0  0  0
   10.6902   -6.5441   -4.0182 H   0  0  0  0  0  0  0  0  0  0  0  0
   10.6865   -7.3081   -2.4257 H   0  0  0  0  0  0  0  0  0  0  0  0
   12.9547   -6.3551   -1.9644 H   0  0  0  0  0  0  0  0  0  0  0  0
   12.9588   -5.5912   -3.5564 H   0  0  0  0  0  0  0  0  0  0  0  0
   12.7162   -7.8387   -4.6327 H   0  0  0  0  0  0  0  0  0  0  0  0
   12.7155   -8.6011   -3.0396 H   0  0  0  0  0  0  0  0  0  0  0  0
   14.9832   -7.6454   -2.5820 H   0  0  0  0  0  0  0  0  0  0  0  0
   14.9837   -6.8839   -4.1753 H   0  0  0  0  0  0  0  0  0  0  0  0
   14.7422   -9.1314   -5.2496 H   0  0  0  0  0  0  0  0  0  0  0  0
   14.7417   -9.8929   -3.6562 H   0  0  0  0  0  0  0  0  0  0  0  0
   17.0098   -8.9386   -3.1993 H   0  0  0  0  0  0  0  0  0  0  0  0
   17.0103   -8.1770   -4.7927 H   0  0  0  0  0  0  0  0  0  0  0  0
   16.7678  -10.4244   -5.8671 H   0  0  0  0  0  0  0  0  0  0  0  0
   16.7672  -11.1861   -4.2737 H   0  0  0  0  0  0  0  0  0  0  0  0
   19.0356  -10.2321   -3.8168 H   0  0  0  0  0  0  0  0  0  0  0  0
   19.0361   -9.4705   -5.4103 H   0  0  0  0  0  0  0  0  0  0  0  0
   18.7943  -11.7182   -6.4846 H   0  0  0  0  0  0  0  0  0  0  0  0
   18.7938  -12.4797   -4.8911 H   0  0  0  0  0  0  0  0  0  0  0  0
   21.0619  -11.5251   -4.4341 H   0  0  0  0  0  0  0  0  0  0  0  0
   21.0624  -10.7634   -6.0276 H   0  0  0  0  0  0  0  0  0  0  0  0
   20.8211  -13.0110   -7.1019 H   0  0  0  0  0  0  0  0  0  0  0  0
   20.8206  -13.7727   -5.5086 H   0  0  0  0  0  0  0  0  0  0  0  0
   23.0888  -12.8181   -5.0515 H   0  0  0  0  0  0  0  0  0  0  0  0
   23.0892  -12.0565   -6.6450 H   0  0  0  0  0  0  0  0  0  0  0  0
   22.8467  -14.3049   -7.7189 H   0  0  0  0  0  0  0  0  0  0  0  0
   22.8483  -15.0657   -6.1251 H   0  0  0  0  0  0  0  0  0  0  0  0
   25.1166  -14.1098   -5.6713 H   0  0  0  0  0  0  0  0  0  0  0  0
   25.1149  -13.3491   -7.2651 H   0  0  0  0  0  0  0  0  0  0  0  0
   24.8744  -15.5967   -8.3386 H   0  0  0  0  0  0  0  0  0  0  0  0
   24.8739  -16.3582   -6.7451 H   0  0  0  0  0  0  0  0  0  0  0  0
   27.1421  -15.4024   -6.2884 H   0  0  0  0  0  0  0  0  0  0  0  0
   27.1427  -14.6430   -7.8828 H   0  0  0  0  0  0  0  0  0  0  0  0
   26.9022  -16.8916   -8.9546 H   0  0  0  0  0  0  0  0  0  0  0  0
   26.8994  -17.6516   -7.3604 H   0  0  0  0  0  0  0  0  0  0  0  0
   29.1676  -16.6966   -6.9018 H   0  0  0  0  0  0  0  0  0  0  0  0
   29.1705  -15.9387   -8.4970 H   0  0  0  0  0  0  0  0  0  0  0  0
   28.9300  -18.1880   -9.5669 H   0  0  0  0  0  0  0  0  0  0  0  0
   28.9249  -18.9467   -7.9720 H   0  0  0  0  0  0  0  0  0  0  0  0
   31.1931  -17.9940   -7.5115 H   0  0  0  0  0  0  0  0  0  0  0  0
   31.1982  -17.2354   -9.1063 H   0  0  0  0  0  0  0  0  0  0  0  0
   30.9555  -19.4856  -10.1765 H   0  0  0  0  0  0  0  0  0  0  0  0
   30.9525  -20.2433   -8.5813 H   0  0  0  0  0  0  0  0  0  0  0  0
   33.2209  -19.2877   -8.1240 H   0  0  0  0  0  0  0  0  0  0  0  0
   33.2236  -18.5320   -9.7203 H   0  0  0  0  0  0  0  0  0  0  0  0
   32.9809  -20.7842  -10.7860 H   0  0  0  0  0  0  0  0  0  0  0  0
   32.9804  -21.5391   -9.1894 H   0  0  0  0  0  0  0  0  0  0  0  0
   35.2486  -20.5841   -8.7363 H   0  0  0  0  0  0  0  0  0  0  0  0
   35.2492  -19.8271  -10.3319 H   0  0  0  0  0  0  0  0  0  0  0  0
   35.0076  -22.0778  -11.3999 H   0  0  0  0  0  0  0  0  0  0  0  0
   35.0070  -22.8349   -9.8043 H   0  0  0  0  0  0  0  0  0  0  0  0
   37.2753  -21.8791   -9.3501 H   0  0  0  0  0  0  0  0  0  0  0  0
   37.2758  -21.1221  -10.9457 H   0  0  0  0  0  0  0  0  0  0  0  0
   37.0342  -23.3727  -12.0137 H   0  0  0  0  0  0  0  0  0  0  0  0
   37.0337  -24.1298  -10.4181 H   0  0  0  0  0  0  0  0  0  0  0  0
   39.3018  -23.1741   -9.9639 H   0  0  0  0  0  0  0  0  0  0  0  0
   39.3025  -22.4170  -11.5595 H   0  0  0  0  0  0  0  0  0  0  0  0
   39.0620  -24.6670  -12.6279 H   0  0  0  0  0  0  0  0  0  0  0  0
   39.0592  -25.4248  -11.0327 H   0  0  0  0  0  0  0  0  0  0  0  0
   41.3275  -24.4693  -10.5755 H   0  0  0  0  0  0  0  0  0  0  0  0
   41.3302  -23.7135  -12.1718 H   0  0  0  0  0  0  0  0  0  0  0  0
   41.0875  -25.9658  -13.2375 H   0  0  0  0  0  0  0  0  0  0  0  0
   41.0870  -26.7207  -11.6409 H   0  0  0  0  0  0  0  0  0  0  0  0
   43.3551  -25.7657  -11.1878 H   0  0  0  0  0  0  0  0  0  0  0  0
   43.3558  -25.0088  -12.7834 H   0  0  0  0  0  0  0  0  0  0  0  0
   43.1153  -27.2586  -13.8519 H   0  0  0  0  0  0  0  0  0  0  0  0
   43.1125  -28.0166  -12.2567 H   0  0  0  0  0  0  0  0  0  0  0  0
   45.3807  -27.0637  -11.7992 H   0  0  0  0  0  0  0  0  0  0  0  0
   45.3836  -26.3037  -13.3933 H   0  0  0  0  0  0  0  0  0  0  0  0
   45.1420  -28.5522  -14.4658 H   0  0  0  0  0  0  0  0  0  0  0  0
   45.1391  -29.3123  -12.8717 H   0  0  0  0  0  0  0  0  0  0  0  0
   47.4073  -28.3587  -12.4129 H   0  0  0  0  0  0  0  0  0  0  0  0
   47.4102  -27.5986  -14.0071 H   0  0  0  0  0  0  0  0  0  0  0  0
   47.1686  -29.8471  -15.0796 H   0  0  0  0  0  0  0  0  0  0  0  0
   47.1657  -30.6072  -13.4855 H   0  0  0  0  0  0  0  0  0  0  0  0
   49.4340  -29.6537  -13.0268 H   0  0  0  0  0  0  0  0  0  0  0  0
   49.4367  -28.8936  -14.6209 H   0  0  0  0  0  0  0  0  0  0  0  0
   49.1940  -31.1429  -15.6929 H   0  0  0  0  0  0  0  0  0  0  0  0
   49.1935  -31.9021  -14.0983 H   0  0  0  0  0  0  0  0  0  0  0  0
   51.4616  -30.9472  -13.6428 H   0  0  0  0  0  0  0  0  0  0  0  0
   51.4623  -30.1878  -15.2372 H   0  0  0  0  0  0  0  0  0  0  0  0
   51.2209  -32.4368  -16.3086 H   0  0  0  0  0  0  0  0  0  0  0  0
   51.2203  -33.1963  -14.7141 H   0  0  0  0  0  0  0  0  0  0  0  0
   53.4885  -32.2408  -14.2584 H   0  0  0  0  0  0  0  0  0  0  0  0
   53.4889  -31.4816  -15.8529 H   0  0  0  0  0  0  0  0  0  0  0  0
   53.2478  -33.7308  -16.9240 H   0  0  0  0  0  0  0  0  0  0  0  0
   53.2474  -34.4901  -15.3295 H   0  0  0  0  0  0  0  0  0  0  0  0
   55.5153  -33.5349  -14.8736 H   0  0  0  0  0  0  0  0  0  0  0  0
   55.5159  -32.7753  -16.4680 H   0  0  0  0  0  0  0  0  0  0  0  0
   55.2733  -35.0254  -17.5387 H   0  0  0  0  0  0  0  0  0  0  0  0
   55.2754  -35.7836  -15.9438 H   0  0  0  0  0  0  0  0  0  0  0  0
   57.5439  -34.8260  -15.4920 H   0  0  0  0  0  0  0  0  0  0  0  0
   57.5414  -34.0686  -17.0873 H   0  0  0  0  0  0  0  0  0  0  0  0
   57.2997  -36.3177  -18.1554 H   0  0  0  0  0  0  0  0  0  0  0  0
   57.3034  -37.0772  -16.5617 H   0  0  0  0  0  0  0  0  0  0  0  0
   59.5691  -36.1216  -16.1121 H   0  0  0  0  0  0  0  0  0  0  0  0
   59.5682  -35.3614  -17.7039 H   0  0  0  0  0  0  0  0  0  0  0  0
   59.3251  -37.6148  -18.7729 H   0  0  0  0  0  0  0  0  0  0  0  0
   59.3286  -38.3704  -17.1774 H   0  0  0  0  0  0  0  0  0  0  0  0
   61.5978  -37.4113  -16.7270 H   0  0  0  0  0  0  0  0  0  0  0  0
   61.5927  -36.6562  -18.3246 H   0  0  0  0  0  0  0  0  0  0  0  0
   61.3492  -38.9068  -19.3911 H   0  0  0  0  0  0  0  0  0  0  0  0
   61.3536  -39.6631  -17.7948 H   0  0  0  0  0  0  0  0  0  0  0  0
   63.6228  -38.7067  -17.3475 H   0  0  0  0  0  0  0  0  0  0  0  0
   63.6183  -37.9510  -18.9441 H   0  0  0  0  0  0  0  0  0  0  0  0
   63.3734  -40.2020  -20.0098 H   0  0  0  0  0  0  0  0  0  0  0  0
   63.3754  -40.9586  -18.4138 H   0  0  0  0  0  0  0  0  0  0  0  0
   65.6440  -40.0039  -17.9633 H   0  0  0  0  0  0  0  0  0  0  0  0
   65.6421  -39.2454  -19.5582 H   0  0  0  0  0  0  0  0  0  0  0  0
   65.4002  -41.4959  -20.6274 H   0  0  0  0  0  0  0  0  0  0  0  0
   65.4044  -42.2537  -19.0321 H   0  0  0  0  0  0  0  0  0  0  0  0
   67.6717  -41.2931  -18.5820 H   0  0  0  0  0  0  0  0  0  0  0  0
   67.6673  -40.5355  -20.1772 H   0  0  0  0  0  0  0  0  0  0  0  0
   67.4284  -42.7868  -21.2453 H   0  0  0  0  0  0  0  0  0  0  0  0
   67.4348  -43.5440  -19.6499 H   0  0  0  0  0  0  0  0  0  0  0  0
   69.7020  -42.5846  -19.2027 H   0  0  0  0  0  0  0  0  0  0  0  0
   69.6960  -41.8250  -20.7969 H   0  0  0  0  0  0  0  0  0  0  0  0
   69.4591  -44.0758  -21.8677 H   0  0  0  0  0  0  0  0  0  0  0  0
   69.4642  -44.8344  -20.2731 H   0  0  0  0  0  0  0  0  0  0  0  0
   71.7315  -43.8761  -19.8230 H   0  0  0  0  0  0  0  0  0  0  0  0
   71.7281  -43.1170  -21.4174 H   0  0  0  0  0  0  0  0  0  0  0  0
   71.4914  -45.3701  -22.4867 H   0  0  0  0  0  0  0  0  0  0  0  0
   71.4985  -46.1263  -20.8910 H   0  0  0  0  0  0  0  0  0  0  0  0
   73.7676  -45.1674  -20.4460 H   0  0  0  0  0  0  0  0  0  0  0  0
   73.7610  -44.4104  -22.0413 H   0  0  0  0  0  0  0  0  0  0  0  0
   73.5278  -46.6639  -23.1085 H   0  0  0  0  0  0  0  0  0  0  0  0
   73.5367  -47.4198  -21.5130 H   0  0  0  0  0  0  0  0  0  0  0  0
   75.8085  -46.4603  -21.0717 H   0  0  0  0  0  0  0  0  0  0  0  0
   75.7995  -45.7064  -22.6686 H   0  0  0  0  0  0  0  0  0  0  0  0
   75.5679  -47.9618  -23.7317 H   0  0  0  0  0  0  0  0  0  0  0  0
   75.5768  -48.7154  -22.1357 H   0  0  0  0  0  0  0  0  0  0  0  0
   77.8613  -47.7783  -21.7045 H   0  0  0  0  0  0  0  0  0  0  0  0
   77.8528  -47.0222  -23.2998 H   0  0  0  0  0  0  0  0  0  0  0  0
   77.6462  -50.0330  -22.7674 H   0  0  0  0  0  0  0  0  0  0  0  0
   79.0837  -49.1720  -23.3485 H   0  0  0  0  0  0  0  0  0  0  0  0
   77.6377  -49.2731  -24.3706 H   0  0  0  0  0  0  0  0  0  0  0  0
  1  2  1  0  0  0  0
  1 80  1  0  0  0  0
  1 81  1  0  0  0  0
  1 82  1  0  0  0  0
  2  3  1  0  0  0  0
  2 83  1  0  0  0  0
  2 84  1  0  0  0  0
  3  4  1  0  0  0  0
  3  6  1  0  0  0  0
  3 85  1  0  0  0  0
  4  5  1  0  0  0  0
  4 86  1  0  0  0  0
  4 87  1  0  0  0  0
  5 88  1  0  0  0  0
  5 89  1  0  0  0  0
  5 90  1  0  0  0  0
  6  7  1  0  0  0  0
  6 91  1  0  0  0  0
  6 92  1  0  0  0  0
  7  8  1  0  0  0  0
  7 93  1  0  0  0  0
  7 94  1  0  0  0  0
  8  9  1  0  0  0  0
  8 95  1  0  0  0  0
  8 96  1  0  0  0  0
  9 10  1  0  0  0  0
  9 97  1  0  0  0  0
  9 98  1  0  0  0  0
 10 11  1  0  0  0  0
 10 99  1  0  0  0  0
 10100  1  0  0  0  0
 11 12  1  0  0  0  0
 11101  1  0  0  0  0
 11102  1  0  0  0  0
 12 13  1  0  0  0  0
 12103  1  0  0  0  0
 12104  1  0  0  0  0
 13 14  1  0  0  0  0
 13105  1  0  0  0  0
 13106  1  0  0  0  0
 14 15  1  0  0  0  0
 14107  1  0  0  0  0
 14108  1  0  0  0  0
 15 16  1  0  0  0  0
 15109  1  0  0  0  0
 15110  1  0  0  0  0
 16 17  1  0  0  0  0
 16111  1  0  0  0  0
 16112  1  0  0  0  0
 17 18  1  0  0  0  0
 17113  1  0  0  0  0
 17114  1  0  0  0  0
 18 19  1  0  0  0  0
 18115  1  0  0  0  0
 18116  1  0  0  0  0
 19 20  1  0  0  0  0
 19117  1  0  0  0  0
 19118  1  0  0  0  0
 20 21  1  0  0  0  0
 20119  1  0  0  0  0
 20120  1  0  0  0  0
 21 22  1  0  0  0  0
 21121  1  0  0  0  0
 21122  1  0  0  0  0
 22 23  1  0  0  0  0
 22123  1  0  0  0  0
 22124  1  0  0  0  0
 23 24  1  0  0  0  0
 23125  1  0  0  0  0
 23126  1  0  0  0  0
 24 25  1  0  0  0  0
 24127  1  0  0  0  0
 24128  1  0  0  0  0
 25 26  1  0  0  0  0
 25129  1  0  0  0  0
 25130  1  0  0  0  0
 26 27  1  0  0  0  0
 26131  1  0  0  0  0
 26132  1  0  0  0  0
 27 28  1  0  0  0  0
 27133  1  0  0  0  0
 27134  1  0  0  0  0
 28 29  1  0  0  0  0
 28135  1  0  0  0  0
 28136  1  0  0  0  0
 29 30  1  0  0  0  0
 29137  1  0  0  0  0
 29138  1  0  0  0  0
 30 31  1  0  0  0  0
 30139  1  0  0  0  0
 30140  1  0  0  0  0
 31 32  1  0  0  0  0
 31141  1  0  0  0  0
 31142  1  0  0  0  0
 32 33  1  0  0  0  0
 32143  1  0  0  0  0
 32144  1  0  0  0  0
 33 34  1  0  0  0  0
 33145  1  0  0  0  0
 33146  1  0  0  0  0
 34 35  1  0  0  0  0
 34147  1  0  0  0  0
 34148  1  0  0  0  0
 35 36  1  0  0  0  0
 35149  1  0  0  0  0
 35150  1  0  0  0  0
 36 37  1  0  0  0  0
 36151  1  0  0  0  0
 36152  1  0  0  0  0
 37 38  1  0  0  0  0
 37153  1  0  0  0  0
 37154  1  0  0  0  0
 38 39  1  0  0  0  0
 38155  1  0  0  0  0
 38156  1  0  0  0  0
 39 40  1  0  0  0  0
 39157  1  0  0  0  0
 39158  1  0  0  0  0
 40 41  1  0  0  0  0
 40159  1  0  0  0  0
 40160  1  0  0  0  0
 41 42  1  0  0  0  0
 41161  1  0  0  0  0
 41162  1  0  0  0  0
 42 43  1  0  0  0  0
 42163  1  0  0  0  0
 42164  1  0  0  0  0
 43 44  1  0  0  0  0
 43165  1  0  0  0  0
 43166  1  0  0  0  0
 44 45  1  0  0  0  0
 44167  1  0  0  0  0
 44168  1  0  0  0  0
 45 46  1  0  0  0  0
 45169  1  0  0  0  0
 45170  1  0  0  0  0
 46 47  1  0  0  0  0
 46171  1  0  0  0  0
 46172  1  0  0  0  0
 47 48  1  0  0  0  0
 47173  1  0  0  0  0
 47174  1  0  0  0  0
 48 49  1  0  0  0  0
 48175  1  0  0  0  0
 48176  1  0  0  0  0
 49 50  1  0  0  0  0
 49177  1  0  0  0  0
 49178  1  0  0  0  0
 50 51  1  0  0  0  0
 50179  1  0  0  0  0
 50180  1  0  0  0  0
 51 52  1  0  0  0  0
 51181  1  0  0  0  0
 51182  1  0  0  0  0
 52 53  1  0  0  0  0
 52183  1  0  0  0  0
 52184  1  0  0  0  0
 53 54  1  0  0  0  0
 53185  1  0  0  0  0
 53186  1  0  0  0  0
 54 55  1  0  0  0  0
 54187  1  0  0  0  0
 54188  1  0  0  0  0
 55 56  1  0  0  0  0
 55189  1  0  0  0  0
 55190  1  0  0  0  0
 56 57  1  0  0  0  0
 56191  1  0  0  0  0
 56192  1  0  0  0  0
 57 58  1  0  0  0  0
 57193  1  0  0  0  0
 57194  1  0  0  0  0
 58 59  1  0  0  0  0
 58195  1  0  0  0  0
 58196  1  0  0  0  0
 59 60  1  0  0  0  0
 59197  1  0  0  0  0
 59198  1  0  0  0  0
 60 61  1  0  0  0  0
 60199  1  0  0  0  0
 60200  1  0  0  0  0
 61 62  1  0  0  0  0
 61201  1  0  0  0  0
 61202  1  0  0  0  0
 62 63  1  0  0  0  0
 62203  1  0  0  0  0
 62204  1  0  0  0  0
 63 64  1  0  0  0  0
 63205  1  0  0  0  0
 63206  1  0  0  0  0
 64 65  1  0  0  0  0
 64207  1  0  0  0  0
 64208  1  0  0  0  0
 65 66  1  0  0  0  0
 65209  1  0  0  0  0
 65210  1  0  0  0  0
 66 67  1  0  0  0  0
 66211  1  0  0  0  0
 66212  1  0  0  0  0
 67 68  1  0  0  0  0
 67213  1  0  0  0  0
 67214  1  0  0  0  0
 68 69  1  0  0  0  0
 68215  1  0  0  0  0
 68216  1  0  0  0  0
 69 70  1  0  0  0  0
 69217  1  0  0  0  0
 69218  1  0  0  0  0
 70 71  1  0  0  0  0
 70219  1  0  0  0  0
 70220  1  0  0  0  0
 71 72  1  0  0  0  0
 71221  1  0  0  0  0
 71222  1  0  0  0  0
 72 73  1  0  0  0  0
 72223  1  0  0  0  0
 72224  1  0  0  0  0
 73 74  1  0  0  0  0
 73225  1  0  0  0  0
 73226  1  0  0  0  0
 74 75  1  0  0  0  0
 74227  1  0  0  0  0
 74228  1  0  0  0  0
 75 76  1  0  0  0  0
 75229  1  0  0  0  0
 75230  1  0  0  0  0
 76 77  1  0  0  0  0
 76231  1  0  0  0  0
 76232  1  0  0  0  0
 77 78  1  0  0  0  0
 77233  1  0  0  0  0
 77234  1  0  0  0  0
 78 79  1  0  0  0  0
 78235  1  0  0  0  0
 78236  1  0  0  0  0
 79237  1  0  0  0  0
 79238  1  0  0  0  0
 79239  1  0  0  0  0
M  END
$$$$
