
 OpenBabel04232216473D

 60 60  0  0  0  0  0  0  0  0999 V2000
    6.8947    3.8413   -0.5882 C   0  0  0  0  0  0  0  0  0  0  0  0
    7.9283    3.2381   -1.6061 C   0  0  0  0  0  0  0  0  0  0  0  0
    6.9384    2.3569   -2.3234 C   0  0  0  0  0  0  0  0  0  0  0  0
    6.2963    1.2051   -1.9691 C   0  0  0  0  0  0  0  0  0  0  0  0
    5.6388    0.4466   -3.0413 C   0  0  0  0  0  0  0  0  0  0  0  0
    4.3344    1.0213   -3.5663 C   0  0  0  0  0  0  0  0  0  0  0  0
    6.5109   -0.1131   -3.9162 C   0  0  0  0  0  0  0  0  0  0  0  0
    7.4863    0.7512   -4.6063 C   0  0  0  0  0  0  0  0  0  0  0  0
    6.9088    1.8435   -5.5172 C   0  0  0  0  0  0  0  0  0  0  0  0
    6.9969    1.6170   -7.0059 C   0  0  0  0  0  0  0  0  0  0  0  0
    8.8145    0.7980   -4.2131 C   0  0  0  0  0  0  0  0  0  0  0  0
    9.4630    0.3897   -2.8666 C   0  0  0  0  0  0  0  0  0  0  0  0
   10.1773   -0.9371   -2.7179 C   0  0  0  0  0  0  0  0  0  0  0  0
    9.6784    1.6478   -4.9728 C   0  0  0  0  0  0  0  0  0  0  0  0
   10.7431    1.1483   -5.5767 C   0  0  0  0  0  0  0  0  0  0  0  0
   11.6116    1.9242   -6.4164 C   0  0  0  0  0  0  0  0  0  0  0  0
   10.9509    2.9075   -7.3718 C   0  0  0  0  0  0  0  0  0  0  0  0
   12.9518    1.8563   -6.1628 C   0  0  0  0  0  0  0  0  0  0  0  0
   13.5364    1.1882   -4.9213 C   0  0  0  0  0  0  0  0  0  0  0  0
   13.8833    2.7733   -6.8422 C   0  0  0  0  0  0  0  0  0  0  0  0
   14.1906    3.8912   -6.1236 C   0  0  0  0  0  0  0  0  0  0  0  0
   13.0619    4.6370   -5.4412 C   0  0  0  0  0  0  0  0  0  0  0  0
   12.4860    4.3089   -4.2578 C   0  0  0  0  0  0  0  0  0  0  0  0
   11.0644    4.5761   -3.7524 C   0  0  0  0  0  0  0  0  0  0  0  0
   10.3940    3.9327   -2.7256 C   0  0  0  0  0  0  0  0  0  0  0  0
    8.8270    3.9328   -2.4361 C   0  0  0  0  0  0  0  0  0  0  0  0
    6.1724    4.4971   -1.1066 H   0  0  0  0  0  0  0  0  0  0  0  0
    7.3023    4.3372    0.2891 H   0  0  0  0  0  0  0  0  0  0  0  0
    6.2411    3.0471   -0.1620 H   0  0  0  0  0  0  0  0  0  0  0  0
    6.6702    2.7932   -3.2609 H   0  0  0  0  0  0  0  0  0  0  0  0
    6.4298    0.6764   -1.0244 H   0  0  0  0  0  0  0  0  0  0  0  0
    3.5038    0.6724   -2.9491 H   0  0  0  0  0  0  0  0  0  0  0  0
    4.1350    0.6977   -4.5969 H   0  0  0  0  0  0  0  0  0  0  0  0
    4.3350    2.1163   -3.5634 H   0  0  0  0  0  0  0  0  0  0  0  0
    7.1094   -0.9357   -3.4763 H   0  0  0  0  0  0  0  0  0  0  0  0
    7.3748    2.8119   -5.2931 H   0  0  0  0  0  0  0  0  0  0  0  0
    5.8664    2.0520   -5.2685 H   0  0  0  0  0  0  0  0  0  0  0  0
    8.0035    1.3400   -7.3056 H   0  0  0  0  0  0  0  0  0  0  0  0
    6.7340    2.5552   -7.5144 H   0  0  0  0  0  0  0  0  0  0  0  0
    6.2876    0.8506   -7.2990 H   0  0  0  0  0  0  0  0  0  0  0  0
    8.7555    0.4556   -2.0443 H   0  0  0  0  0  0  0  0  0  0  0  0
   10.2171    1.1496   -2.6104 H   0  0  0  0  0  0  0  0  0  0  0  0
    9.4639   -1.7619   -2.6716 H   0  0  0  0  0  0  0  0  0  0  0  0
   10.7268   -0.9275   -1.7652 H   0  0  0  0  0  0  0  0  0  0  0  0
   10.9098   -1.1197   -3.5055 H   0  0  0  0  0  0  0  0  0  0  0  0
    9.3873    2.6828   -5.1683 H   0  0  0  0  0  0  0  0  0  0  0  0
   11.0549    0.1344   -5.3500 H   0  0  0  0  0  0  0  0  0  0  0  0
    9.8659    2.9970   -7.2307 H   0  0  0  0  0  0  0  0  0  0  0  0
   11.1135    2.6252   -8.4097 H   0  0  0  0  0  0  0  0  0  0  0  0
   11.3188    3.9269   -7.2329 H   0  0  0  0  0  0  0  0  0  0  0  0
   12.7966    1.0740   -4.1191 H   0  0  0  0  0  0  0  0  0  0  0  0
   14.3168    1.8064   -4.4594 H   0  0  0  0  0  0  0  0  0  0  0  0
   13.9779    0.2165   -5.1365 H   0  0  0  0  0  0  0  0  0  0  0  0
   13.5243    2.9332   -7.8695 H   0  0  0  0  0  0  0  0  0  0  0  0
   15.0450    3.6906   -5.4501 H   0  0  0  0  0  0  0  0  0  0  0  0
   12.6089    5.2895   -6.1857 H   0  0  0  0  0  0  0  0  0  0  0  0
   13.0573    3.6207   -3.6230 H   0  0  0  0  0  0  0  0  0  0  0  0
   10.5457    5.2802   -4.4070 H   0  0  0  0  0  0  0  0  0  0  0  0
   10.9570    3.1786   -2.1768 H   0  0  0  0  0  0  0  0  0  0  0  0
    8.5810    3.6461   -3.4625 H   0  0  0  0  0  0  0  0  0  0  0  0
  1  2  1  0  0  0  0
  1 27  1  0  0  0  0
  1 28  1  0  0  0  0
  1 29  1  0  0  0  0
  2  3  1  0  0  0  0
  2 26  2  3  0  0  0
  3  4  2  3  0  0  0
  3 30  1  0  0  0  0
  4  5  1  0  0  0  0
  4 31  1  0  0  0  0
  5  6  1  0  0  0  0
  5  7  2  3  0  0  0
  6 32  1  0  0  0  0
  6 33  1  0  0  0  0
  6 34  1  0  0  0  0
  7  8  1  0  0  0  0
  7 35  1  0  0  0  0
  8  9  1  0  0  0  0
  8 11  2  3  0  0  0
  9 10  1  0  0  0  0
  9 36  1  0  0  0  0
  9 37  1  0  0  0  0
 10 38  1  0  0  0  0
 10 39  1  0  0  0  0
 10 40  1  0  0  0  0
 11 12  1  0  0  0  0
 11 14  1  0  0  0  0
 12 13  1  0  0  0  0
 12 41  1  0  0  0  0
 12 42  1  0  0  0  0
 13 43  1  0  0  0  0
 13 44  1  0  0  0  0
 13 45  1  0  0  0  0
 14 15  2  3  0  0  0
 14 46  1  0  0  0  0
 15 16  1  0  0  0  0
 15 47  1  0  0  0  0
 16 17  1  0  0  0  0
 16 18  2  3  0  0  0
 17 48  1  0  0  0  0
 17 49  1  0  0  0  0
 17 50  1  0  0  0  0
 18 19  1  0  0  0  0
 18 20  1  0  0  0  0
 19 51  1  0  0  0  0
 19 52  1  0  0  0  0
 19 53  1  0  0  0  0
 20 21  2  3  0  0  0
 20 54  1  0  0  0  0
 21 22  1  0  0  0  0
 21 55  1  0  0  0  0
 22 23  2  3  0  0  0
 22 56  1  0  0  0  0
 23 24  1  0  0  0  0
 23 57  1  0  0  0  0
 24 25  2  3  0  0  0
 24 58  1  0  0  0  0
 25 26  1  0  0  0  0
 25 59  1  0  0  0  0
 26 60  1  0  0  0  0
M  END
$$$$
