
 OpenBabel04232216503D

 68 69  0  0  1  0  0  0  0  0999 V2000
    6.2444    1.0426   -1.8145 C   0  0  0  0  0  0  0  0  0  0  0  0
    7.2150    0.4069   -3.3257 C   0  0  3  0  0  0  0  0  0  0  0  0
    5.4537   -0.3002   -3.0808 C   0  0  0  0  0  0  0  0  0  0  0  0
    5.6350   -1.5665   -3.6613 C   0  0  0  0  0  0  0  0  0  0  0  0
    5.0772   -0.6566   -4.8963 C   0  0  0  0  0  0  0  0  0  0  0  0
    6.2073    0.0893   -5.5971 C   0  0  0  0  0  0  0  0  0  0  0  0
    7.0732   -1.3005   -5.5829 C   0  0  0  0  0  0  0  0  0  0  0  0
    8.1564   -2.0005   -4.5815 C   0  0  0  0  0  0  0  0  0  0  0  0
    9.3740   -2.2904   -5.4031 C   0  0  0  0  0  0  0  0  0  0  0  0
   10.6255   -1.8974   -4.6173 C   0  0  0  0  0  0  0  0  0  0  0  0
   11.6855   -1.7063   -5.5679 C   0  0  0  0  0  0  0  0  0  0  0  0
   13.1482   -1.6895   -5.0661 C   0  0  0  0  0  0  0  0  0  0  0  0
   13.8932   -1.6791   -6.3505 C   0  0  0  0  0  0  0  0  0  0  0  0
   14.1775   -0.4293   -7.0694 C   0  0  0  0  0  0  0  0  0  0  0  0
   15.2025    0.2201   -7.0191 O   0  0  0  0  0  0  0  0  0  0  0  0
   13.0522   -0.3730   -8.1301 C   0  0  0  0  0  0  0  0  0  0  0  0
   11.4537   -0.2316   -7.9375 C   0  0  0  0  0  0  0  0  0  0  0  0
   11.4322   -0.7369   -9.6686 N   0  0  0  0  0  0  0  0  0  0  0  0
   12.6291   -1.1736  -11.0412 C   0  0  0  0  0  0  0  0  0  0  0  0
   13.9060   -2.2770  -11.5521 C   0  0  0  0  0  0  0  0  0  0  0  0
   14.9116   -1.8630  -12.1789 O   0  0  0  0  0  0  0  0  0  0  0  0
   13.9313   -3.7720  -11.3235 C   0  0  0  0  0  0  0  0  0  0  0  0
   14.0992   -3.9267   -9.8328 C   0  0  0  0  0  0  0  0  0  0  0  0
   15.0567   -2.8853   -9.2297 C   0  0  0  0  0  0  0  0  0  0  0  0
   14.4230   -1.2390   -9.1645 C   0  0  0  0  0  0  0  0  0  0  0  0
    9.8864    0.2337   -6.5968 C   0  0  0  0  0  0  0  0  0  0  0  0
    8.7547    0.5925   -4.8180 C   0  0  0  0  0  0  0  0  0  0  0  0
    5.4663    1.8054   -2.1261 H   0  0  0  0  0  0  0  0  0  0  0  0
    6.7042    1.1333   -0.8441 H   0  0  0  0  0  0  0  0  0  0  0  0
    5.4425    0.3636   -1.2967 H   0  0  0  0  0  0  0  0  0  0  0  0
    7.3535    1.4986   -3.2469 H   0  0  0  0  0  0  0  0  0  0  0  0
    4.5506    0.3882   -3.1398 H   0  0  0  0  0  0  0  0  0  0  0  0
    4.8884   -0.8610   -2.2577 H   0  0  0  0  0  0  0  0  0  0  0  0
    5.1181   -2.4718   -3.3412 H   0  0  0  0  0  0  0  0  0  0  0  0
    6.4969   -1.6300   -2.8861 H   0  0  0  0  0  0  0  0  0  0  0  0
    4.2606    0.1091   -4.7597 H   0  0  0  0  0  0  0  0  0  0  0  0
    4.5487   -1.2831   -5.5882 H   0  0  0  0  0  0  0  0  0  0  0  0
    6.9839    0.8844   -5.5337 H   0  0  0  0  0  0  0  0  0  0  0  0
    5.8362    1.0011   -4.9932 H   0  0  0  0  0  0  0  0  0  0  0  0
    7.3182   -1.3891   -6.6289 H   0  0  0  0  0  0  0  0  0  0  0  0
    6.3578   -2.1306   -5.5528 H   0  0  0  0  0  0  0  0  0  0  0  0
    7.8132   -2.9552   -4.1504 H   0  0  0  0  0  0  0  0  0  0  0  0
    8.4653   -1.5029   -3.6478 H   0  0  0  0  0  0  0  0  0  0  0  0
    9.2265   -1.7600   -6.3440 H   0  0  0  0  0  0  0  0  0  0  0  0
    9.4384   -3.3085   -5.7932 H   0  0  0  0  0  0  0  0  0  0  0  0
   10.9173   -2.5739   -3.8390 H   0  0  0  0  0  0  0  0  0  0  0  0
   10.6593   -0.9165   -4.1650 H   0  0  0  0  0  0  0  0  0  0  0  0
   11.5709   -0.6357   -5.8021 H   0  0  0  0  0  0  0  0  0  0  0  0
   11.5013   -2.2632   -6.5074 H   0  0  0  0  0  0  0  0  0  0  0  0
   13.4240   -2.5283   -4.4587 H   0  0  0  0  0  0  0  0  0  0  0  0
   13.3782   -0.7181   -4.5955 H   0  0  0  0  0  0  0  0  0  0  0  0
   13.0722   -1.0512   -6.4926 H   0  0  0  0  0  0  0  0  0  0  0  0
   13.5643   -2.5049   -7.0331 H   0  0  0  0  0  0  0  0  0  0  0  0
   11.5030    0.2493  -10.0069 H   0  0  0  0  0  0  0  0  0  0  0  0
   13.1747   -0.2238  -11.2380 H   0  0  0  0  0  0  0  0  0  0  0  0
   11.9963   -1.2814  -11.9339 H   0  0  0  0  0  0  0  0  0  0  0  0
   14.7793   -4.2886  -11.8499 H   0  0  0  0  0  0  0  0  0  0  0  0
   13.0415   -4.2273  -11.7525 H   0  0  0  0  0  0  0  0  0  0  0  0
   14.3888   -4.9656   -9.5945 H   0  0  0  0  0  0  0  0  0  0  0  0
   13.1322   -3.7290   -9.3934 H   0  0  0  0  0  0  0  0  0  0  0  0
   16.0096   -2.9246   -9.8246 H   0  0  0  0  0  0  0  0  0  0  0  0
   15.4127   -3.2376   -8.2493 H   0  0  0  0  0  0  0  0  0  0  0  0
   14.6617   -0.7267  -10.1085 H   0  0  0  0  0  0  0  0  0  0  0  0
   15.4119   -0.8885   -8.7722 H   0  0  0  0  0  0  0  0  0  0  0  0
    9.0018    0.1292   -7.2825 H   0  0  0  0  0  0  0  0  0  0  0  0
   10.1240    1.3224   -6.6207 H   0  0  0  0  0  0  0  0  0  0  0  0
    9.0088    1.6294   -4.6172 H   0  0  0  0  0  0  0  0  0  0  0  0
    9.4569    0.1606   -3.9866 H   0  0  0  0  0  0  0  0  0  0  0  0
  1  2  1  0  0  0  0
  1 28  1  0  0  0  0
  1 29  1  0  0  0  0
  1 30  1  0  0  0  0
  2  3  1  0  0  0  0
  2 27  1  0  0  0  0
  2 31  1  0  0  0  0
  3  4  1  0  0  0  0
  3 32  1  0  0  0  0
  3 33  1  0  0  0  0
  4  5  1  0  0  0  0
  4 34  1  0  0  0  0
  4 35  1  0  0  0  0
  5  6  1  0  0  0  0
  5 36  1  0  0  0  0
  5 37  1  0  0  0  0
  6  7  1  0  0  0  0
  6 38  1  0  0  0  0
  6 39  1  0  0  0  0
  7  8  1  0  0  0  0
  7 40  1  0  0  0  0
  7 41  1  0  0  0  0
  8  9  1  0  0  0  0
  8 42  1  0  0  0  0
  8 43  1  0  0  0  0
  9 10  1  0  0  0  0
  9 44  1  0  0  0  0
  9 45  1  0  0  0  0
 10 11  1  0  0  0  0
 10 46  1  0  0  0  0
 10 47  1  0  0  0  0
 11 12  1  0  0  0  0
 11 48  1  0  0  0  0
 11 49  1  0  0  0  0
 12 13  1  0  0  0  0
 12 50  1  0  0  0  0
 12 51  1  0  0  0  0
 13 14  1  0  0  0  0
 13 52  1  0  0  0  0
 13 53  1  0  0  0  0
 14 15  2  0  0  0  0
 14 16  1  0  0  0  0
 16 17  2  3  0  0  0
 16 25  1  0  0  0  0
 17 18  1  0  0  0  0
 17 26  1  0  0  0  0
 18 19  1  0  0  0  0
 18 54  1  0  0  0  0
 19 20  1  0  0  0  0
 19 55  1  0  0  0  0
 19 56  1  0  0  0  0
 20 21  2  0  0  0  0
 20 22  1  0  0  0  0
 22 23  1  0  0  0  0
 22 57  1  0  0  0  0
 22 58  1  0  0  0  0
 23 24  1  0  0  0  0
 23 59  1  0  0  0  0
 23 60  1  0  0  0  0
 24 25  1  0  0  0  0
 24 61  1  0  0  0  0
 24 62  1  0  0  0  0
 25 63  1  0  0  0  0
 25 64  1  0  0  0  0
 26 27  1  0  0  0  0
 26 65  1  0  0  0  0
 26 66  1  0  0  0  0
 27 67  1  0  0  0  0
 27 68  1  0  0  0  0
M  END
$$$$
