
 OpenBabel04232216463D

 65 66  0  0  0  0  0  0  0  0999 V2000
    2.5488   -1.4373   -3.6679 C   0  0  0  0  0  0  0  0  0  0  0  0
    3.3139   -1.2897   -2.4078 C   0  0  0  0  0  0  0  0  0  0  0  0
    4.2944   -0.3853   -2.2702 C   0  0  0  0  0  0  0  0  0  0  0  0
    4.6179   -0.1930   -0.8584 C   0  0  0  0  0  0  0  0  0  0  0  0
    5.5503    0.8974   -0.3379 C   0  0  0  0  0  0  0  0  0  0  0  0
    5.1088    2.3798   -0.1897 C   0  0  0  0  0  0  0  0  0  0  0  0
    4.0246    2.8016    0.8356 C   0  0  0  0  0  0  0  0  0  0  0  0
    4.4263    2.6991    2.3230 C   0  0  0  0  0  0  0  0  0  0  0  0
    3.3910    3.2090    3.3627 C   0  0  0  0  0  0  0  0  0  0  0  0
    2.0376    2.5097    3.3854 C   0  0  0  0  0  0  0  0  0  0  0  0
    2.1299    0.9965    3.6217 C   0  0  0  0  0  0  0  0  0  0  0  0
    2.7184    0.2528    4.8557 C   0  0  0  0  0  0  0  0  0  0  0  0
    3.0913   -1.3172    4.9421 C   0  0  0  0  0  0  0  0  0  0  0  0
    4.1718   -2.1399    4.1608 C   0  0  0  0  0  0  0  0  0  0  0  0
    5.5582   -1.5474    4.2117 C   0  0  0  0  0  0  0  0  0  0  0  0
    6.1082   -1.8604    5.4150 F   0  0  0  0  0  0  0  0  0  0  0  0
    3.8718   -1.1020   -0.2130 C   0  0  0  0  0  0  0  0  0  0  0  0
    3.4711   -0.7275    1.1073 C   0  0  0  0  0  0  0  0  0  0  0  0
    4.3082   -0.5988    1.9797 O   0  0  0  0  0  0  0  0  0  0  0  0
    2.0747   -0.5689    1.2265 N   0  0  0  0  0  0  0  0  0  0  0  0
    1.1747   -0.0886    0.1767 C   0  0  0  0  0  0  0  0  0  0  0  0
    1.5180   -1.3028    2.2371 C   0  0  0  0  0  0  0  0  0  0  0  0
    0.2444   -1.4431    2.5864 C   0  0  0  0  0  0  0  0  0  0  0  0
   -0.0417   -2.6979    3.2593 C   0  0  0  0  0  0  0  0  0  0  0  0
   -0.0329   -3.6936    2.3265 C   0  0  0  0  0  0  0  0  0  0  0  0
    1.1430   -4.1751    1.5586 C   0  0  0  0  0  0  0  0  0  0  0  0
    1.9182   -3.8917    0.4643 C   0  0  0  0  0  0  0  0  0  0  0  0
    2.1542   -2.9615   -0.7252 C   0  0  0  0  0  0  0  0  0  0  0  0
    3.0349   -1.9502   -1.0698 C   0  0  0  0  0  0  0  0  0  0  0  0
    2.9719   -0.7540   -4.4188 H   0  0  0  0  0  0  0  0  0  0  0  0
    1.5112   -1.1301   -3.5243 H   0  0  0  0  0  0  0  0  0  0  0  0
    2.5988   -2.4443   -4.0793 H   0  0  0  0  0  0  0  0  0  0  0  0
    4.6322    0.2965   -3.0414 H   0  0  0  0  0  0  0  0  0  0  0  0
    6.4051    0.9158   -1.0331 H   0  0  0  0  0  0  0  0  0  0  0  0
    6.0051    0.5806    0.6075 H   0  0  0  0  0  0  0  0  0  0  0  0
    4.7995    2.7434   -1.1779 H   0  0  0  0  0  0  0  0  0  0  0  0
    6.0145    2.9562    0.0564 H   0  0  0  0  0  0  0  0  0  0  0  0
    3.1000    2.2597    0.6264 H   0  0  0  0  0  0  0  0  0  0  0  0
    3.8086    3.8631    0.6428 H   0  0  0  0  0  0  0  0  0  0  0  0
    5.3405    3.2827    2.4819 H   0  0  0  0  0  0  0  0  0  0  0  0
    4.6945    1.6713    2.5633 H   0  0  0  0  0  0  0  0  0  0  0  0
    3.2273    4.2836    3.2151 H   0  0  0  0  0  0  0  0  0  0  0  0
    3.8187    3.0920    4.3641 H   0  0  0  0  0  0  0  0  0  0  0  0
    1.5712    2.6702    2.3955 H   0  0  0  0  0  0  0  0  0  0  0  0
    1.3446    2.9772    4.0935 H   0  0  0  0  0  0  0  0  0  0  0  0
    2.7653    0.7326    2.8088 H   0  0  0  0  0  0  0  0  0  0  0  0
    1.0959    0.6808    3.4695 H   0  0  0  0  0  0  0  0  0  0  0  0
    1.9231    0.3514    5.6076 H   0  0  0  0  0  0  0  0  0  0  0  0
    3.5790    0.8103    5.2163 H   0  0  0  0  0  0  0  0  0  0  0  0
    2.1717   -1.9013    4.8976 H   0  0  0  0  0  0  0  0  0  0  0  0
    3.4037   -1.4492    5.9856 H   0  0  0  0  0  0  0  0  0  0  0  0
    3.9403   -2.3858    3.1235 H   0  0  0  0  0  0  0  0  0  0  0  0
    4.2098   -3.1524    4.5934 H   0  0  0  0  0  0  0  0  0  0  0  0
    5.5373   -0.4617    4.1080 H   0  0  0  0  0  0  0  0  0  0  0  0
    6.1991   -1.9701    3.4279 H   0  0  0  0  0  0  0  0  0  0  0  0
    1.7080    0.4270   -0.6249 H   0  0  0  0  0  0  0  0  0  0  0  0
    0.4590    0.6027    0.6212 H   0  0  0  0  0  0  0  0  0  0  0  0
    0.6162   -0.9354   -0.2415 H   0  0  0  0  0  0  0  0  0  0  0  0
    2.2313   -1.9598    2.7036 H   0  0  0  0  0  0  0  0  0  0  0  0
   -0.5661   -0.8710    2.1651 H   0  0  0  0  0  0  0  0  0  0  0  0
    0.5297   -2.7749    4.1859 H   0  0  0  0  0  0  0  0  0  0  0  0
   -0.8983   -3.6211    1.6874 H   0  0  0  0  0  0  0  0  0  0  0  0
    1.3762   -5.1446    2.0177 H   0  0  0  0  0  0  0  0  0  0  0  0
    2.5340   -4.7725    0.2486 H   0  0  0  0  0  0  0  0  0  0  0  0
    1.6106   -3.3697   -1.5750 H   0  0  0  0  0  0  0  0  0  0  0  0
  1  2  1  0  0  0  0
  1 30  1  0  0  0  0
  1 31  1  0  0  0  0
  1 32  1  0  0  0  0
  2  3  2  0  0  0  0
  2 29  1  0  0  0  0
  3  4  1  0  0  0  0
  3 33  1  0  0  0  0
  4  5  1  0  0  0  0
  4 17  2  0  0  0  0
  5  6  1  0  0  0  0
  5 34  1  0  0  0  0
  5 35  1  0  0  0  0
  6  7  1  0  0  0  0
  6 36  1  0  0  0  0
  6 37  1  0  0  0  0
  7  8  1  0  0  0  0
  7 38  1  0  0  0  0
  7 39  1  0  0  0  0
  8  9  1  0  0  0  0
  8 40  1  0  0  0  0
  8 41  1  0  0  0  0
  9 10  1  0  0  0  0
  9 42  1  0  0  0  0
  9 43  1  0  0  0  0
 10 11  1  0  0  0  0
 10 44  1  0  0  0  0
 10 45  1  0  0  0  0
 11 12  1  0  0  0  0
 11 46  1  0  0  0  0
 11 47  1  0  0  0  0
 12 13  1  0  0  0  0
 12 48  1  0  0  0  0
 12 49  1  0  0  0  0
 13 14  1  0  0  0  0
 13 50  1  0  0  0  0
 13 51  1  0  0  0  0
 14 15  1  0  0  0  0
 14 52  1  0  0  0  0
 14 53  1  0  0  0  0
 15 16  1  0  0  0  0
 15 54  1  0  0  0  0
 15 55  1  0  0  0  0
 17 18  1  0  0  0  0
 17 29  1  0  0  0  0
 18 19  2  0  0  0  0
 18 20  1  0  0  0  0
 20 21  1  0  0  0  0
 20 22  1  0  0  0  0
 21 56  1  0  0  0  0
 21 57  1  0  0  0  0
 21 58  1  0  0  0  0
 22 23  2  0  0  0  0
 22 59  1  0  0  0  0
 23 24  1  0  0  0  0
 23 60  1  0  0  0  0
 24 25  2  0  0  0  0
 24 61  1  0  0  0  0
 25 26  1  0  0  0  0
 25 62  1  0  0  0  0
 26 27  2  0  0  0  0
 26 63  1  0  0  0  0
 27 28  1  0  0  0  0
 27 64  1  0  0  0  0
 28 29  2  0  0  0  0
 28 65  1  0  0  0  0
M  END
$$$$
