
 OpenBabel04232216433D

 46 49  0  0  1  0  0  0  0  0999 V2000
   19.3888   -4.9297   -0.6699 C   0  0  0  0  0  0  0  0  0  0  0  0
   19.8270   -6.1242   -1.4156 C   0  0  0  0  0  0  0  0  0  0  0  0
   19.2718   -7.1626   -2.0777 C   0  0  0  0  0  0  0  0  0  0  0  0
   17.8777   -7.5245   -2.2663 C   0  0  0  0  0  0  0  0  0  0  0  0
   17.4511   -8.8130   -2.0797 C   0  0  0  0  0  0  0  0  0  0  0  0
   16.3630   -9.1221   -1.0890 C   0  0  0  0  0  0  0  0  0  0  0  0
   14.8935   -8.7234   -1.2104 C   0  0  0  0  0  0  0  0  0  0  0  0
   14.1184   -8.3867    0.1244 C   0  0  0  0  0  0  0  0  0  0  0  0
   14.2656   -7.1918    1.1662 C   0  0  0  0  0  0  0  0  0  0  0  0
   15.2821   -6.3264    2.1942 C   0  0  3  0  0  0  0  0  0  0  0  0
   14.1488   -5.6077    2.9859 C   0  0  0  0  0  0  0  0  0  0  0  0
   13.7906   -4.2402    2.4670 C   0  0  0  0  0  0  0  0  0  0  0  0
   12.7904   -3.9255    1.6369 C   0  0  0  0  0  0  0  0  0  0  0  0
   12.2522   -2.7885    2.4108 C   0  0  0  0  0  0  0  0  0  0  0  0
   12.9237   -2.3950    3.4519 N   0  0  0  0  0  0  0  0  0  0  0  0
   14.0159   -3.1943    3.4399 C   0  0  0  0  0  0  0  0  0  0  0  0
   16.5292   -5.2056    1.8670 C   0  0  0  0  0  0  0  0  0  0  0  0
   16.4561   -3.9592    2.4666 N   0  0  0  0  0  0  0  0  0  0  0  0
   16.2702   -3.9395    3.7230 N   0  0  0  0  0  0  0  0  0  0  0  0
   15.2009   -3.1201    4.0842 C   0  0  0  0  0  0  0  0  0  0  0  0
   16.8619   -9.0223    0.1592 C   0  0  0  0  0  0  0  0  0  0  0  0
   16.9018   -7.6161    0.4320 C   0  0  0  0  0  0  0  0  0  0  0  0
   17.8450   -6.9479    1.0622 C   0  0  0  0  0  0  0  0  0  0  0  0
   17.6130   -5.5397    1.0901 C   0  0  0  0  0  0  0  0  0  0  0  0
   18.5225   -4.6688    0.3527 C   0  0  0  0  0  0  0  0  0  0  0  0
   19.9771   -4.0708   -1.0157 H   0  0  0  0  0  0  0  0  0  0  0  0
   20.9256   -6.1216   -1.4606 H   0  0  0  0  0  0  0  0  0  0  0  0
   19.9752   -7.8970   -2.4842 H   0  0  0  0  0  0  0  0  0  0  0  0
   17.1771   -6.7002   -2.1886 H   0  0  0  0  0  0  0  0  0  0  0  0
   18.2101   -9.6023   -2.0358 H   0  0  0  0  0  0  0  0  0  0  0  0
   14.3920   -9.6292   -1.5951 H   0  0  0  0  0  0  0  0  0  0  0  0
   14.7152   -7.9492   -1.9615 H   0  0  0  0  0  0  0  0  0  0  0  0
   14.0245   -9.3261    0.6945 H   0  0  0  0  0  0  0  0  0  0  0  0
   13.0819   -8.2372   -0.2362 H   0  0  0  0  0  0  0  0  0  0  0  0
   13.6145   -6.4261    0.7401 H   0  0  0  0  0  0  0  0  0  0  0  0
   13.6903   -7.7106    1.9589 H   0  0  0  0  0  0  0  0  0  0  0  0
   15.7310   -7.0585    2.8918 H   0  0  0  0  0  0  0  0  0  0  0  0
   14.3996   -5.6105    4.0542 H   0  0  0  0  0  0  0  0  0  0  0  0
   13.2086   -6.1756    2.9944 H   0  0  0  0  0  0  0  0  0  0  0  0
   12.9850   -3.7555    0.5781 H   0  0  0  0  0  0  0  0  0  0  0  0
   11.2748   -2.3945    2.1024 H   0  0  0  0  0  0  0  0  0  0  0  0
   15.3412   -2.4348    4.9111 H   0  0  0  0  0  0  0  0  0  0  0  0
   17.8182   -9.4461    0.4548 H   0  0  0  0  0  0  0  0  0  0  0  0
   16.2069   -6.9639   -0.1302 H   0  0  0  0  0  0  0  0  0  0  0  0
   18.7136   -7.3925    1.5253 H   0  0  0  0  0  0  0  0  0  0  0  0
   18.5293   -3.6098    0.6817 H   0  0  0  0  0  0  0  0  0  0  0  0
  1  2  1  0  0  0  0
  1 25  2  3  0  0  0
  1 26  1  0  0  0  0
  2  3  2  3  0  0  0
  2 27  1  0  0  0  0
  3  4  1  0  0  0  0
  3 28  1  0  0  0  0
  4  5  2  3  0  0  0
  4 29  1  0  0  0  0
  5  6  1  0  0  0  0
  5 30  1  0  0  0  0
  6  7  1  0  0  0  0
  6 21  2  3  0  0  0
  7  8  1  0  0  0  0
  7 31  1  0  0  0  0
  7 32  1  0  0  0  0
  8  9  1  0  0  0  0
  8 33  1  0  0  0  0
  8 34  1  0  0  0  0
  9 10  1  0  0  0  0
  9 35  1  0  0  0  0
  9 36  1  0  0  0  0
 10 11  1  0  0  0  0
 10 17  1  0  0  0  0
 10 37  1  0  0  0  0
 11 12  1  0  0  0  0
 11 38  1  0  0  0  0
 11 39  1  0  0  0  0
 12 13  2  0  0  0  0
 12 16  1  0  0  0  0
 13 14  1  0  0  0  0
 13 40  1  0  0  0  0
 14 15  2  0  0  0  0
 14 41  1  0  0  0  0
 15 16  1  0  0  0  0
 16 20  2  0  0  0  0
 17 18  1  0  0  0  0
 17 24  2  3  0  0  0
 18 19  2  0  0  0  0
 19 20  1  0  0  0  0
 20 42  1  0  0  0  0
 21 22  1  0  0  0  0
 21 43  1  0  0  0  0
 22 23  2  3  0  0  0
 22 44  1  0  0  0  0
 23 24  1  0  0  0  0
 23 45  1  0  0  0  0
 24 25  1  0  0  0  0
 25 46  1  0  0  0  0
M  END
$$$$
