
 OpenBabel04232216453D

 50 51  0  0  1  0  0  0  0  0999 V2000
    5.1888    0.2277    3.3158 C   0  0  0  0  0  0  0  0  0  0  0  0
    6.2109   -0.9345    3.3057 C   0  0  0  0  0  0  0  0  0  0  0  0
    5.6056   -1.9235    2.4196 C   0  0  0  0  0  0  0  0  0  0  0  0
    5.3966   -1.7969    1.0728 C   0  0  0  0  0  0  0  0  0  0  0  0
    5.5398   -0.5955    0.1472 C   0  0  0  0  0  0  0  0  0  0  0  0
    5.6203   -3.0628    0.3655 C   0  0  0  0  0  0  0  0  0  0  0  0
    6.9497   -3.1921    0.1750 C   0  0  0  0  0  0  0  0  0  0  0  0
    7.7179   -3.8984    1.2421 C   0  0  0  0  0  0  0  0  0  0  0  0
    9.1725   -3.4826    1.1286 C   0  0  0  0  0  0  0  0  0  0  0  0
    9.9230   -4.5569    1.8415 C   0  0  0  0  0  0  0  0  0  0  0  0
   11.3246   -4.1567    2.1883 C   0  0  0  0  0  0  0  0  0  0  0  0
   12.2431   -4.0253    1.4019 O   0  0  0  0  0  0  0  0  0  0  0  0
   11.4251   -3.8230    3.6191 C   0  0  0  0  0  0  0  0  0  0  0  0
   10.8921   -2.5954    3.8100 C   0  0  0  0  0  0  0  0  0  0  0  0
    9.8263   -2.3981    4.7962 C   0  0  0  0  0  0  0  0  0  0  0  0
   10.4889   -3.0458    6.1048 C   0  0  0  0  0  0  0  0  0  0  0  0
   11.5825   -4.2241    5.9028 C   0  0  0  0  0  0  0  0  0  0  0  0
   11.3450   -4.9812    4.5975 C   0  0  3  0  0  0  0  0  0  0  0  0
   10.0817   -5.8687    4.7651 C   0  0  0  0  0  0  0  0  0  0  0  0
   10.3075   -7.1284    5.6023 C   0  0  0  0  0  0  0  0  0  0  0  0
    8.6477   -1.7196    4.5039 C   0  0  0  0  0  0  0  0  0  0  0  0
    7.3859   -0.9436    4.0457 C   0  0  0  0  0  0  0  0  0  0  0  0
    4.2778   -0.0865    3.8473 H   0  0  0  0  0  0  0  0  0  0  0  0
    4.8248    0.5061    2.3162 H   0  0  0  0  0  0  0  0  0  0  0  0
    5.5607    1.1481    3.7624 H   0  0  0  0  0  0  0  0  0  0  0  0
    5.3790   -2.8786    2.8977 H   0  0  0  0  0  0  0  0  0  0  0  0
    4.5592   -0.2640   -0.2131 H   0  0  0  0  0  0  0  0  0  0  0  0
    6.1198   -0.8198   -0.7594 H   0  0  0  0  0  0  0  0  0  0  0  0
    6.0541    0.2421    0.6203 H   0  0  0  0  0  0  0  0  0  0  0  0
    5.0718   -3.9203    0.7567 H   0  0  0  0  0  0  0  0  0  0  0  0
    7.4994   -2.2860   -0.1104 H   0  0  0  0  0  0  0  0  0  0  0  0
    7.5620   -4.9767    1.1848 H   0  0  0  0  0  0  0  0  0  0  0  0
    7.3922   -3.6059    2.2533 H   0  0  0  0  0  0  0  0  0  0  0  0
    9.3122   -2.4937    1.5921 H   0  0  0  0  0  0  0  0  0  0  0  0
    9.5237   -3.3860    0.1014 H   0  0  0  0  0  0  0  0  0  0  0  0
    9.9163   -5.5181    1.3342 H   0  0  0  0  0  0  0  0  0  0  0  0
    9.3618   -4.6844    2.7720 H   0  0  0  0  0  0  0  0  0  0  0  0
   11.3697   -1.7203    3.3722 H   0  0  0  0  0  0  0  0  0  0  0  0
    9.7452   -3.3972    6.8205 H   0  0  0  0  0  0  0  0  0  0  0  0
   11.0796   -2.2549    6.5919 H   0  0  0  0  0  0  0  0  0  0  0  0
   11.6236   -4.9073    6.7591 H   0  0  0  0  0  0  0  0  0  0  0  0
   12.6043   -3.8017    5.8583 H   0  0  0  0  0  0  0  0  0  0  0  0
   12.1866   -5.6519    4.3588 H   0  0  0  0  0  0  0  0  0  0  0  0
    9.6982   -6.2386    3.8132 H   0  0  0  0  0  0  0  0  0  0  0  0
    9.2815   -5.2851    5.2329 H   0  0  0  0  0  0  0  0  0  0  0  0
   10.8360   -7.8877    5.0156 H   0  0  0  0  0  0  0  0  0  0  0  0
    9.3397   -7.5541    5.8913 H   0  0  0  0  0  0  0  0  0  0  0  0
   10.8760   -6.9451    6.5159 H   0  0  0  0  0  0  0  0  0  0  0  0
    8.9824   -1.4126    3.4857 H   0  0  0  0  0  0  0  0  0  0  0  0
    7.5416    0.0595    4.4618 H   0  0  0  0  0  0  0  0  0  0  0  0
  1  2  1  0  0  0  0
  1 23  1  0  0  0  0
  1 24  1  0  0  0  0
  1 25  1  0  0  0  0
  2  3  1  0  0  0  0
  2 22  2  3  0  0  0
  3  4  2  3  0  0  0
  3 26  1  0  0  0  0
  4  5  1  0  0  0  0
  4  6  1  0  0  0  0
  5 27  1  0  0  0  0
  5 28  1  0  0  0  0
  5 29  1  0  0  0  0
  6  7  2  3  0  0  0
  6 30  1  0  0  0  0
  7  8  1  0  0  0  0
  7 31  1  0  0  0  0
  8  9  1  0  0  0  0
  8 32  1  0  0  0  0
  8 33  1  0  0  0  0
  9 10  1  0  0  0  0
  9 34  1  0  0  0  0
  9 35  1  0  0  0  0
 10 11  1  0  0  0  0
 10 36  1  0  0  0  0
 10 37  1  0  0  0  0
 11 12  2  0  0  0  0
 11 13  1  0  0  0  0
 13 14  2  0  0  0  0
 13 18  1  0  0  0  0
 14 15  1  0  0  0  0
 14 38  1  0  0  0  0
 15 16  1  0  0  0  0
 15 21  2  3  0  0  0
 16 17  1  0  0  0  0
 16 39  1  0  0  0  0
 16 40  1  0  0  0  0
 17 18  1  0  0  0  0
 17 41  1  0  0  0  0
 17 42  1  0  0  0  0
 18 19  1  0  0  0  0
 18 43  1  0  0  0  0
 19 20  1  0  0  0  0
 19 44  1  0  0  0  0
 19 45  1  0  0  0  0
 20 46  1  0  0  0  0
 20 47  1  0  0  0  0
 20 48  1  0  0  0  0
 21 22  1  0  0  0  0
 21 49  1  0  0  0  0
 22 50  1  0  0  0  0
M  END
$$$$
