
 OpenBabel04232216423D

 30 30  0  0  0  0  0  0  0  0999 V2000
   -0.3301   -1.0641    0.4400 C   0  0  0  0  0  0  0  0  0  0  0  0
   -1.0636   -0.8249   -0.6979 C   0  0  0  0  0  0  0  0  0  0  0  0
   -0.9030    0.5432   -1.0134 C   0  0  0  0  0  0  0  0  0  0  0  0
   -0.0831    1.1168   -0.0558 C   0  0  0  0  0  0  0  0  0  0  0  0
    0.3281    2.5483    0.0750 C   0  0  0  0  0  0  0  0  0  0  0  0
    1.7731    2.6877   -0.0867 N   0  0  0  0  0  0  0  0  0  0  0  0
    2.1578    4.1021   -0.0930 C   0  0  0  0  0  0  0  0  0  0  0  0
    3.6778    4.2249   -0.2358 C   0  0  0  0  0  0  0  0  0  0  0  0
    4.1275    5.6877   -0.2338 C   0  0  0  0  0  0  0  0  0  0  0  0
    5.6392    5.7981   -0.3626 C   0  0  0  0  0  0  0  0  0  0  0  0
    0.2661    0.1133    0.8235 N   0  0  0  0  0  0  0  0  0  0  0  0
    1.1228    0.2139    1.9855 C   0  0  0  0  0  0  0  0  0  0  0  0
   -0.1846   -1.9729    1.0086 H   0  0  0  0  0  0  0  0  0  0  0  0
   -1.6538   -1.5547   -1.2364 H   0  0  0  0  0  0  0  0  0  0  0  0
   -1.3551    1.0655   -1.8467 H   0  0  0  0  0  0  0  0  0  0  0  0
    0.0082    2.9323    1.0511 H   0  0  0  0  0  0  0  0  0  0  0  0
   -0.1930    3.1338   -0.6933 H   0  0  0  0  0  0  0  0  0  0  0  0
    2.0373    2.2591   -0.9740 H   0  0  0  0  0  0  0  0  0  0  0  0
    1.8414    4.5807    0.8415 H   0  0  0  0  0  0  0  0  0  0  0  0
    1.6691    4.6251   -0.9239 H   0  0  0  0  0  0  0  0  0  0  0  0
    4.0012    3.7472   -1.1680 H   0  0  0  0  0  0  0  0  0  0  0  0
    4.1677    3.6937    0.5894 H   0  0  0  0  0  0  0  0  0  0  0  0
    3.8093    6.1773    0.6938 H   0  0  0  0  0  0  0  0  0  0  0  0
    3.6552    6.2260   -1.0637 H   0  0  0  0  0  0  0  0  0  0  0  0
    6.1409    5.2991    0.4729 H   0  0  0  0  0  0  0  0  0  0  0  0
    5.9465    6.8487   -0.3639 H   0  0  0  0  0  0  0  0  0  0  0  0
    5.9879    5.3411   -1.2943 H   0  0  0  0  0  0  0  0  0  0  0  0
    1.3087    1.2582    2.2398 H   0  0  0  0  0  0  0  0  0  0  0  0
    2.0609   -0.2963    1.7608 H   0  0  0  0  0  0  0  0  0  0  0  0
    0.6193   -0.2732    2.8258 H   0  0  0  0  0  0  0  0  0  0  0  0
  1  2  2  0  0  0  0
  1 11  1  0  0  0  0
  1 13  1  0  0  0  0
  2  3  1  0  0  0  0
  2 14  1  0  0  0  0
  3  4  2  0  0  0  0
  3 15  1  0  0  0  0
  4  5  1  0  0  0  0
  4 11  1  0  0  0  0
  5  6  1  0  0  0  0
  5 16  1  0  0  0  0
  5 17  1  0  0  0  0
  6  7  1  0  0  0  0
  6 18  1  0  0  0  0
  7  8  1  0  0  0  0
  7 19  1  0  0  0  0
  7 20  1  0  0  0  0
  8  9  1  0  0  0  0
  8 21  1  0  0  0  0
  8 22  1  0  0  0  0
  9 10  1  0  0  0  0
  9 23  1  0  0  0  0
  9 24  1  0  0  0  0
 10 25  1  0  0  0  0
 10 26  1  0  0  0  0
 10 27  1  0  0  0  0
 11 12  1  0  0  0  0
 12 28  1  0  0  0  0
 12 29  1  0  0  0  0
 12 30  1  0  0  0  0
M  END
$$$$
