
 OpenBabel04232217033D

 94 93  0  0  0  0  0  0  0  0999 V2000
   23.6561   -9.4284    0.1967 S   0  0  0  0  0  0  0  0  0  0  0  0
   22.9852  -10.3651   -0.9595 O   0  0  0  0  0  0  0  0  0  0  0  0
   24.0278  -11.0284   -1.6878 O   0  0  0  0  0  0  0  0  0  0  0  0
   23.3807  -12.1185   -2.6986 S   0  0  0  0  0  0  0  0  0  0  0  0
   23.0894  -10.8742   -4.2755 S   0  0  0  0  0  0  0  0  0  0  0  0
   24.6011  -10.9362   -4.8753 N   0  0  0  0  0  0  0  0  0  0  0  0
   24.8587   -9.9826   -6.1841 S   0  0  0  0  0  0  0  0  0  0  0  0
   24.1814   -8.4947   -5.9377 N   0  0  0  0  0  0  0  0  0  0  0  0
   24.4270   -7.4789   -7.2176 S   0  0  0  0  0  0  0  0  0  0  0  0
   23.6461   -8.0992   -8.5422 N   0  0  0  0  0  0  0  0  0  0  0  0
   21.9895   -8.1350   -8.4323 S   0  0  0  0  0  0  0  0  0  0  0  0
   21.5642   -9.1853   -7.1985 N   0  0  0  0  0  0  0  0  0  0  0  0
   19.8989   -9.2381   -7.0125 S   0  0  0  0  0  0  0  0  0  0  0  0
   19.4315  -10.2945   -5.7873 N   0  0  0  0  0  0  0  0  0  0  0  0
   19.9563   -9.7781   -4.3099 S   0  0  0  0  0  0  0  0  0  0  0  0
   19.3999  -11.2442   -2.9563 S   0  0  0  0  0  0  0  0  0  0  0  0
   19.7716  -13.2738   -3.3627 S   0  0  0  0  0  0  0  0  0  0  0  0
   21.4397  -13.8278   -4.5226 S   0  0  0  0  0  0  0  0  0  0  0  0
   22.6589  -15.3806   -3.6589 S   0  0  0  0  0  0  0  0  0  0  0  0
   24.7881  -15.0739   -3.9017 S   0  0  0  0  0  0  0  0  0  0  0  0
   25.6284  -16.9508   -4.3919 S   0  0  0  0  0  0  0  0  0  0  0  0
   27.7357  -16.9233   -4.3278 S   0  0  0  0  0  0  0  0  0  0  0  0
   28.4183  -18.8637   -4.8385 S   0  0  0  0  0  0  0  0  0  0  0  0
   30.5266  -18.8608   -4.8389 S   0  0  0  0  0  0  0  0  0  0  0  0
   31.2160  -20.7909   -5.3388 S   0  0  0  0  0  0  0  0  0  0  0  0
   33.3264  -20.7774   -5.3354 S   0  0  0  0  0  0  0  0  0  0  0  0
   34.0179  -22.7065   -5.8361 S   0  0  0  0  0  0  0  0  0  0  0  0
   36.1273  -22.6941   -5.8331 S   0  0  0  0  0  0  0  0  0  0  0  0
   36.8167  -24.6237   -6.3342 S   0  0  0  0  0  0  0  0  0  0  0  0
   38.9258  -24.6116   -6.3310 S   0  0  0  0  0  0  0  0  0  0  0  0
   39.6157  -26.5408   -6.8319 S   0  0  0  0  0  0  0  0  0  0  0  0
   41.7250  -26.5279   -6.8288 S   0  0  0  0  0  0  0  0  0  0  0  0
   42.4155  -28.4572   -7.3295 S   0  0  0  0  0  0  0  0  0  0  0  0
   44.5249  -28.4445   -7.3263 S   0  0  0  0  0  0  0  0  0  0  0  0
   45.2163  -30.3737   -7.8275 S   0  0  0  0  0  0  0  0  0  0  0  0
   47.3262  -30.3605   -7.8239 S   0  0  0  0  0  0  0  0  0  0  0  0
   48.0180  -32.2898   -8.3248 S   0  0  0  0  0  0  0  0  0  0  0  0
   50.1281  -32.2780   -8.3219 S   0  0  0  0  0  0  0  0  0  0  0  0
   50.8192  -34.2081   -8.8231 S   0  0  0  0  0  0  0  0  0  0  0  0
   52.9297  -34.1977   -8.8165 S   0  0  0  0  0  0  0  0  0  0  0  0
   53.6213  -36.1265   -9.3214 S   0  0  0  0  0  0  0  0  0  0  0  0
   55.7313  -36.1144   -9.3182 S   0  0  0  0  0  0  0  0  0  0  0  0
   56.4221  -38.0443   -9.8163 S   0  0  0  0  0  0  0  0  0  0  0  0
   58.5310  -38.0294   -9.8156 S   0  0  0  0  0  0  0  0  0  0  0  0
   59.2210  -39.9579  -10.3163 S   0  0  0  0  0  0  0  0  0  0  0  0
   61.3294  -39.9422  -10.3181 S   0  0  0  0  0  0  0  0  0  0  0  0
   62.0192  -41.8708  -10.8187 S   0  0  0  0  0  0  0  0  0  0  0  0
   64.1279  -41.8559  -10.8208 S   0  0  0  0  0  0  0  0  0  0  0  0
   64.8180  -43.7848  -11.3217 S   0  0  0  0  0  0  0  0  0  0  0  0
   66.9272  -43.7709  -11.3239 S   0  0  0  0  0  0  0  0  0  0  0  0
   67.6175  -45.7002  -11.8248 S   0  0  0  0  0  0  0  0  0  0  0  0
   69.7269  -45.6861  -11.8272 S   0  0  0  0  0  0  0  0  0  0  0  0
   70.4175  -47.6153  -12.3281 S   0  0  0  0  0  0  0  0  0  0  0  0
   72.5268  -47.6004  -12.3300 S   0  0  0  0  0  0  0  0  0  0  0  0
   73.2187  -49.5290  -12.8309 S   0  0  0  0  0  0  0  0  0  0  0  0
   75.3283  -49.5133  -12.8327 S   0  0  0  0  0  0  0  0  0  0  0  0
   76.0195  -51.4424  -13.3334 S   0  0  0  0  0  0  0  0  0  0  0  0
   78.1292  -51.4295  -13.3362 S   0  0  0  0  0  0  0  0  0  0  0  0
   78.8190  -53.3597  -13.8374 S   0  0  0  0  0  0  0  0  0  0  0  0
   80.9294  -53.3475  -13.8399 S   0  0  0  0  0  0  0  0  0  0  0  0
   81.6217  -55.2779  -14.3412 S   0  0  0  0  0  0  0  0  0  0  0  0
   83.7335  -55.2657  -14.3429 S   0  0  0  0  0  0  0  0  0  0  0  0
   84.4288  -57.1965  -14.8454 S   0  0  0  0  0  0  0  0  0  0  0  0
   86.5387  -57.1789  -14.8395 S   0  0  0  0  0  0  0  0  0  0  0  0
   87.2448  -59.0979  -15.3412 S   0  0  0  0  0  0  0  0  0  0  0  0
   89.3496  -59.0369  -15.3794 S   0  0  0  0  0  0  0  0  0  0  0  0
   90.0214  -60.9777  -15.6981 S   0  0  0  0  0  0  0  0  0  0  0  0
   92.0901  -61.0418  -15.7217 S   0  0  0  0  0  0  0  0  0  0  0  0
   92.8241  -60.4575  -13.8863 S   0  0  0  0  0  0  0  0  0  0  0  0
   92.2860  -61.6311  -12.8476 N   0  0  0  0  0  0  0  0  0  0  0  0
   92.7946  -61.3098  -11.2713 S   0  0  0  0  0  0  0  0  0  0  0  0
   92.2647  -59.8185  -10.7363 N   0  0  0  0  0  0  0  0  0  0  0  0
   92.8975  -59.5470   -9.2042 S   0  0  0  0  0  0  0  0  0  0  0  0
   92.2826  -58.0765   -8.5852 N   0  0  0  0  0  0  0  0  0  0  0  0
   92.8123  -56.7680   -9.4459 S   0  0  0  0  0  0  0  0  0  0  0  0
   92.2685  -56.8370  -11.0233 N   0  0  0  0  0  0  0  0  0  0  0  0
   90.6051  -56.7916  -11.1778 S   0  0  0  0  0  0  0  0  0  0  0  0
   90.0143  -55.3585  -10.5811 N   0  0  0  0  0  0  0  0  0  0  0  0
   88.3609  -55.3277  -10.7829 S   0  0  0  0  0  0  0  0  0  0  0  0
   87.7795  -53.9193  -10.1404 N   0  0  0  0  0  0  0  0  0  0  0  0
   88.3139  -52.5681  -10.9318 S   0  0  0  0  0  0  0  0  0  0  0  0
   23.1909   -8.3002   -0.2639 H   0  0  0  0  0  0  0  0  0  0  0  0
   24.8191  -11.8895   -5.0781 H   0  0  0  0  0  0  0  0  0  0  0  0
   24.5694   -8.0853   -5.0967 H   0  0  0  0  0  0  0  0  0  0  0  0
   24.0403   -9.0019   -8.7898 H   0  0  0  0  0  0  0  0  0  0  0  0
   22.0396   -8.8344   -6.3573 H   0  0  0  0  0  0  0  0  0  0  0  0
   19.7526  -11.2412   -5.9703 H   0  0  0  0  0  0  0  0  0  0  0  0
   92.6117  -62.5539  -13.1306 H   0  0  0  0  0  0  0  0  0  0  0  0
   91.2341  -59.7783  -10.7038 H   0  0  0  0  0  0  0  0  0  0  0  0
   92.5182  -58.0172   -7.6492 H   0  0  0  0  0  0  0  0  0  0  0  0
   92.5941  -57.7209  -11.4219 H   0  0  0  0  0  0  0  0  0  0  0  0
   90.4174  -54.5786  -11.0968 H   0  0  0  0  0  0  0  0  0  0  0  0
   87.9964  -53.8636   -9.1485 H   0  0  0  0  0  0  0  0  0  0  0  0
   87.7103  -52.7523  -12.1130 H   0  0  0  0  0  0  0  0  0  0  0  0
  1  2  1  0  0  0  0
  1 82  1  0  0  0  0
  2  3  1  0  0  0  0
  3  4  1  0  0  0  0
  4  5  1  0  0  0  0
  5  6  1  0  0  0  0
  6  7  1  0  0  0  0
  6 83  1  0  0  0  0
  7  8  1  0  0  0  0
  8  9  1  0  0  0  0
  8 84  1  0  0  0  0
  9 10  1  0  0  0  0
 10 11  1  0  0  0  0
 10 85  1  0  0  0  0
 11 12  1  0  0  0  0
 12 13  1  0  0  0  0
 12 86  1  0  0  0  0
 13 14  1  0  0  0  0
 14 15  1  0  0  0  0
 14 87  1  0  0  0  0
 15 16  1  0  0  0  0
 16 17  1  0  0  0  0
 17 18  1  0  0  0  0
 18 19  1  0  0  0  0
 19 20  1  0  0  0  0
 20 21  1  0  0  0  0
 21 22  1  0  0  0  0
 22 23  1  0  0  0  0
 23 24  1  0  0  0  0
 24 25  1  0  0  0  0
 25 26  1  0  0  0  0
 26 27  1  0  0  0  0
 27 28  1  0  0  0  0
 28 29  1  0  0  0  0
 29 30  1  0  0  0  0
 30 31  1  0  0  0  0
 31 32  1  0  0  0  0
 32 33  1  0  0  0  0
 33 34  1  0  0  0  0
 34 35  1  0  0  0  0
 35 36  1  0  0  0  0
 36 37  1  0  0  0  0
 37 38  1  0  0  0  0
 38 39  1  0  0  0  0
 39 40  1  0  0  0  0
 40 41  1  0  0  0  0
 41 42  1  0  0  0  0
 42 43  1  0  0  0  0
 43 44  1  0  0  0  0
 44 45  1  0  0  0  0
 45 46  1  0  0  0  0
 46 47  1  0  0  0  0
 47 48  1  0  0  0  0
 48 49  1  0  0  0  0
 49 50  1  0  0  0  0
 50 51  1  0  0  0  0
 51 52  1  0  0  0  0
 52 53  1  0  0  0  0
 53 54  1  0  0  0  0
 54 55  1  0  0  0  0
 55 56  1  0  0  0  0
 56 57  1  0  0  0  0
 57 58  1  0  0  0  0
 58 59  1  0  0  0  0
 59 60  1  0  0  0  0
 60 61  1  0  0  0  0
 61 62  1  0  0  0  0
 62 63  1  0  0  0  0
 63 64  1  0  0  0  0
 64 65  1  0  0  0  0
 65 66  1  0  0  0  0
 66 67  1  0  0  0  0
 67 68  1  0  0  0  0
 68 69  1  0  0  0  0
 69 70  1  0  0  0  0
 70 71  1  0  0  0  0
 70 88  1  0  0  0  0
 71 72  1  0  0  0  0
 72 73  1  0  0  0  0
 72 89  1  0  0  0  0
 73 74  1  0  0  0  0
 74 75  1  0  0  0  0
 74 90  1  0  0  0  0
 75 76  1  0  0  0  0
 76 77  1  0  0  0  0
 76 91  1  0  0  0  0
 77 78  1  0  0  0  0
 78 79  1  0  0  0  0
 78 92  1  0  0  0  0
 79 80  1  0  0  0  0
 80 81  1  0  0  0  0
 80 93  1  0  0  0  0
 81 94  1  0  0  0  0
M  END
$$$$
