
 OpenBabel04232216453D

 62 62  0  0  0  0  0  0  0  0999 V2000
   10.6001    4.1680    1.2697 C   0  0  0  0  0  0  0  0  0  0  0  0
   12.4878    4.7566    0.8658 C   0  0  0  0  0  0  0  0  0  0  0  0
   11.1567    3.1199    0.6919 C   0  0  0  0  0  0  0  0  0  0  0  0
    9.4854    2.3432    0.3370 C   0  0  0  0  0  0  0  0  0  0  0  0
    7.9777    1.1245    0.3643 C   0  0  0  0  0  0  0  0  0  0  0  0
    7.9045    3.1546    0.0701 C   0  0  0  0  0  0  0  0  0  0  0  0
    8.2299    4.2033   -0.6287 C   0  0  0  0  0  0  0  0  0  0  0  0
    8.0833    5.4325    0.5636 C   0  0  0  0  0  0  0  0  0  0  0  0
    9.0844    6.0341    1.3585 C   0  0  0  0  0  0  0  0  0  0  0  0
    9.6930    5.8305    2.9048 C   0  0  0  0  0  0  0  0  0  0  0  0
   11.0615    5.5587    3.1594 C   0  0  0  0  0  0  0  0  0  0  0  0
   11.8130    6.7352    2.9211 C   0  0  0  0  0  0  0  0  0  0  0  0
   13.1056    6.8008    3.1061 C   0  0  0  0  0  0  0  0  0  0  0  0
   13.7873    8.0206    3.0535 C   0  0  0  0  0  0  0  0  0  0  0  0
   15.0550    7.8218    3.3407 C   0  0  0  0  0  0  0  0  0  0  0  0
   15.9034    8.8907    3.6141 C   0  0  0  0  0  0  0  0  0  0  0  0
   17.1426    8.5009    3.9210 C   0  0  0  0  0  0  0  0  0  0  0  0
   18.1552    9.4297    4.1388 C   0  0  0  0  0  0  0  0  0  0  0  0
   19.4819    9.4052    4.2088 C   0  0  0  0  0  0  0  0  0  0  0  0
   19.8550   10.7649    4.4743 C   0  0  0  0  0  0  0  0  0  0  0  0
   21.0559   11.0149    4.9185 C   0  0  0  0  0  0  0  0  0  0  0  0
   21.5115   12.3280    5.2313 C   0  0  0  0  0  0  0  0  0  0  0  0
   22.8243   12.2907    5.0465 C   0  0  0  0  0  0  0  0  0  0  0  0
   22.6898   12.9537    3.6960 C   0  0  0  0  0  0  0  0  0  0  0  0
   22.1690   12.1299    2.6375 C   0  0  0  0  0  0  0  0  0  0  0  0
   20.4744   11.0656    2.0004 C   0  0  0  0  0  0  0  0  0  0  0  0
   19.1559    9.7855    1.5533 C   0  0  0  0  0  0  0  0  0  0  0  0
   17.3739    8.5702    1.1914 C   0  0  0  0  0  0  0  0  0  0  0  0
   15.9497    7.2356    1.0298 C   0  0  0  0  0  0  0  0  0  0  0  0
   14.0770    6.0329    0.9375 C   0  0  0  0  0  0  0  0  0  0  0  0
    9.8097    4.1807    2.1709 H   0  0  0  0  0  0  0  0  0  0  0  0
    9.9559    3.0701    2.0369 H   0  0  0  0  0  0  0  0  0  0  0  0
    9.5562    4.2476    0.8276 H   0  0  0  0  0  0  0  0  0  0  0  0
   11.4378    2.9272    2.0873 H   0  0  0  0  0  0  0  0  0  0  0  0
    6.5004    1.2275    0.3568 H   0  0  0  0  0  0  0  0  0  0  0  0
    7.4633    0.3770    1.1985 H   0  0  0  0  0  0  0  0  0  0  0  0
    7.4196    0.8474   -0.7233 H   0  0  0  0  0  0  0  0  0  0  0  0
    6.7346    3.2591    0.5898 H   0  0  0  0  0  0  0  0  0  0  0  0
    9.1220    3.6126   -1.1507 H   0  0  0  0  0  0  0  0  0  0  0  0
    7.2382    5.1437    1.2046 H   0  0  0  0  0  0  0  0  0  0  0  0
   10.1160    5.9642    1.0470 H   0  0  0  0  0  0  0  0  0  0  0  0
    9.3789    6.8183    3.1136 H   0  0  0  0  0  0  0  0  0  0  0  0
   11.7809    4.6739    2.9557 H   0  0  0  0  0  0  0  0  0  0  0  0
   11.2701    7.5707    2.5244 H   0  0  0  0  0  0  0  0  0  0  0  0
   13.7159    5.9133    3.2804 H   0  0  0  0  0  0  0  0  0  0  0  0
   13.2919    8.9745    2.9833 H   0  0  0  0  0  0  0  0  0  0  0  0
   15.4818    6.8080    3.2541 H   0  0  0  0  0  0  0  0  0  0  0  0
   15.4664    9.8788    3.4645 H   0  0  0  0  0  0  0  0  0  0  0  0
   17.4138    7.4601    3.8112 H   0  0  0  0  0  0  0  0  0  0  0  0
   17.7418   10.4233    3.9944 H   0  0  0  0  0  0  0  0  0  0  0  0
   20.2018    8.6145    3.9078 H   0  0  0  0  0  0  0  0  0  0  0  0
   19.2331   11.6188    4.1778 H   0  0  0  0  0  0  0  0  0  0  0  0
   21.7614   10.2288    4.6447 H   0  0  0  0  0  0  0  0  0  0  0  0
   21.0301   13.2473    4.7868 H   0  0  0  0  0  0  0  0  0  0  0  0
   23.3971   11.3362    5.1127 H   0  0  0  0  0  0  0  0  0  0  0  0
   23.5594   13.8044    4.1497 H   0  0  0  0  0  0  0  0  0  0  0  0
   23.2989   11.6221    2.6495 H   0  0  0  0  0  0  0  0  0  0  0  0
   21.6556   10.7209    1.9092 H   0  0  0  0  0  0  0  0  0  0  0  0
   20.1554    9.2316    2.0314 H   0  0  0  0  0  0  0  0  0  0  0  0
   18.1934    8.2033    1.9101 H   0  0  0  0  0  0  0  0  0  0  0  0
   16.5754    6.7259    1.7286 H   0  0  0  0  0  0  0  0  0  0  0  0
   14.6244    5.1368    1.5076 H   0  0  0  0  0  0  0  0  0  0  0  0
  1  2  1  0  0  0  0
  1 31  1  0  0  0  0
  1 32  1  0  0  0  0
  1 33  1  0  0  0  0
  2  3  1  0  0  0  0
  2 30  2  3  0  0  0
  3  4  2  3  0  0  0
  3 34  1  0  0  0  0
  4  5  1  0  0  0  0
  4  6  1  0  0  0  0
  5 35  1  0  0  0  0
  5 36  1  0  0  0  0
  5 37  1  0  0  0  0
  6  7  2  3  0  0  0
  6 38  1  0  0  0  0
  7  8  1  0  0  0  0
  7 39  1  0  0  0  0
  8  9  2  3  0  0  0
  8 40  1  0  0  0  0
  9 10  1  0  0  0  0
  9 41  1  0  0  0  0
 10 11  2  3  0  0  0
 10 42  1  0  0  0  0
 11 12  1  0  0  0  0
 11 43  1  0  0  0  0
 12 13  2  3  0  0  0
 12 44  1  0  0  0  0
 13 14  1  0  0  0  0
 13 45  1  0  0  0  0
 14 15  2  3  0  0  0
 14 46  1  0  0  0  0
 15 16  1  0  0  0  0
 15 47  1  0  0  0  0
 16 17  2  3  0  0  0
 16 48  1  0  0  0  0
 17 18  1  0  0  0  0
 17 49  1  0  0  0  0
 18 19  2  3  0  0  0
 18 50  1  0  0  0  0
 19 20  1  0  0  0  0
 19 51  1  0  0  0  0
 20 21  2  3  0  0  0
 20 52  1  0  0  0  0
 21 22  1  0  0  0  0
 21 53  1  0  0  0  0
 22 23  2  3  0  0  0
 22 54  1  0  0  0  0
 23 24  1  0  0  0  0
 23 55  1  0  0  0  0
 24 25  2  3  0  0  0
 24 56  1  0  0  0  0
 25 26  1  0  0  0  0
 25 57  1  0  0  0  0
 26 27  2  3  0  0  0
 26 58  1  0  0  0  0
 27 28  1  0  0  0  0
 27 59  1  0  0  0  0
 28 29  2  3  0  0  0
 28 60  1  0  0  0  0
 29 30  1  0  0  0  0
 29 61  1  0  0  0  0
 30 62  1  0  0  0  0
M  END
$$$$
