
 OpenBabel04232216523D

 89 89  0  0  0  0  0  0  0  0999 V2000
    2.6142    1.4119   -5.7382 C   0  0  0  0  0  0  0  0  0  0  0  0
    3.9027    1.2113   -4.9620 C   0  0  0  0  0  0  0  0  0  0  0  0
    4.4265    2.5443   -4.4363 C   0  0  0  0  0  0  0  0  0  0  0  0
    5.7236    2.3504   -3.6587 C   0  0  0  0  0  0  0  0  0  0  0  0
    6.2355    3.6866   -3.1379 C   0  0  0  0  0  0  0  0  0  0  0  0
    7.5275    3.4930   -2.3569 C   0  0  0  0  0  0  0  0  0  0  0  0
    8.0388    4.8288   -1.8369 C   0  0  0  0  0  0  0  0  0  0  0  0
    9.3308    4.6317   -1.0586 C   0  0  0  0  0  0  0  0  0  0  0  0
    9.8452    5.9644   -0.5356 C   0  0  0  0  0  0  0  0  0  0  0  0
   11.1384    5.7626    0.2422 C   0  0  0  0  0  0  0  0  0  0  0  0
   11.6561    7.0934    0.7667 C   0  0  0  0  0  0  0  0  0  0  0  0
   12.9525    6.8987    1.5461 C   0  0  0  0  0  0  0  0  0  0  0  0
   13.4563    8.2372    2.0682 C   0  0  0  0  0  0  0  0  0  0  0  0
   14.7537    8.0831    2.8539 C   0  0  0  0  0  0  0  0  0  0  0  0
   15.2105    9.4228    3.4026 C   0  0  0  0  0  0  0  0  0  0  0  0
   14.3669   10.2516    3.7562 O   0  0  0  0  0  0  0  0  0  0  0  0
   16.6784    9.5951    3.4831 C   0  0  0  0  0  0  0  0  0  0  0  0
   17.3964   10.5485    4.1321 C   0  0  0  0  0  0  0  0  0  0  0  0
   17.2406   11.5822    4.9351 N   0  0  0  0  0  0  0  0  0  0  0  0
   16.6028   11.4416    6.2453 C   0  0  0  0  0  0  0  0  0  0  0  0
   17.6530   11.1378    7.3257 C   0  0  0  0  0  0  0  0  0  0  0  0
   17.0105   11.0302    8.7118 C   0  0  0  0  0  0  0  0  0  0  0  0
   18.0437   10.7221    9.8015 C   0  0  0  0  0  0  0  0  0  0  0  0
   17.3782   10.6188   11.1715 C   0  0  0  0  0  0  0  0  0  0  0  0
   18.4062   10.3120   12.2574 C   0  0  0  0  0  0  0  0  0  0  0  0
   17.7406   10.2083   13.6265 C   0  0  0  0  0  0  0  0  0  0  0  0
   18.7701    9.9015   14.7104 C   0  0  0  0  0  0  0  0  0  0  0  0
   18.1029    9.7997   16.0791 C   0  0  0  0  0  0  0  0  0  0  0  0
   19.1274    9.4912   17.1688 C   0  0  0  0  0  0  0  0  0  0  0  0
   18.4578    9.3913   18.5271 C   0  0  0  0  0  0  0  0  0  0  0  0
   18.7135    9.9906    3.5655 C   0  0  0  0  0  0  0  0  0  0  0  0
   17.8624    8.9434    2.8297 C   0  0  0  0  0  0  0  0  0  0  0  0
    2.2432    0.4560   -6.1136 H   0  0  0  0  0  0  0  0  0  0  0  0
    2.7737    2.0760   -6.5941 H   0  0  0  0  0  0  0  0  0  0  0  0
    1.8399    1.8528   -5.1019 H   0  0  0  0  0  0  0  0  0  0  0  0
    4.6547    0.7461   -5.6107 H   0  0  0  0  0  0  0  0  0  0  0  0
    3.7259    0.5235   -4.1259 H   0  0  0  0  0  0  0  0  0  0  0  0
    3.6748    3.0070   -3.7861 H   0  0  0  0  0  0  0  0  0  0  0  0
    4.5989    3.2310   -5.2723 H   0  0  0  0  0  0  0  0  0  0  0  0
    6.4808    1.8904   -4.3053 H   0  0  0  0  0  0  0  0  0  0  0  0
    5.5545    1.6657   -2.8188 H   0  0  0  0  0  0  0  0  0  0  0  0
    5.4796    4.1504   -2.4925 H   0  0  0  0  0  0  0  0  0  0  0  0
    6.4093    4.3716   -3.9767 H   0  0  0  0  0  0  0  0  0  0  0  0
    8.2853    3.0302   -3.0008 H   0  0  0  0  0  0  0  0  0  0  0  0
    7.3553    2.8099   -1.5162 H   0  0  0  0  0  0  0  0  0  0  0  0
    7.2823    5.2905   -1.1906 H   0  0  0  0  0  0  0  0  0  0  0  0
    8.2108    5.5145   -2.6755 H   0  0  0  0  0  0  0  0  0  0  0  0
   10.0868    4.1695   -1.7053 H   0  0  0  0  0  0  0  0  0  0  0  0
    9.1586    3.9458   -0.2205 H   0  0  0  0  0  0  0  0  0  0  0  0
    9.0891    6.4262    0.1113 H   0  0  0  0  0  0  0  0  0  0  0  0
   10.0171    6.6510   -1.3737 H   0  0  0  0  0  0  0  0  0  0  0  0
   11.8920    5.2994   -0.4060 H   0  0  0  0  0  0  0  0  0  0  0  0
   10.9631    5.0758    1.0791 H   0  0  0  0  0  0  0  0  0  0  0  0
   10.8993    7.5547    1.4131 H   0  0  0  0  0  0  0  0  0  0  0  0
   11.8263    7.7802   -0.0716 H   0  0  0  0  0  0  0  0  0  0  0  0
   13.7088    6.4386    0.8992 H   0  0  0  0  0  0  0  0  0  0  0  0
   12.7796    6.2129    2.3845 H   0  0  0  0  0  0  0  0  0  0  0  0
   12.6832    8.6895    2.7019 H   0  0  0  0  0  0  0  0  0  0  0  0
   13.6171    8.9266    1.2296 H   0  0  0  0  0  0  0  0  0  0  0  0
   15.5225    7.6533    2.2026 H   0  0  0  0  0  0  0  0  0  0  0  0
   14.6132    7.4079    3.7063 H   0  0  0  0  0  0  0  0  0  0  0  0
   17.9322   12.3333    4.9298 H   0  0  0  0  0  0  0  0  0  0  0  0
   15.8354   10.6586    6.2376 H   0  0  0  0  0  0  0  0  0  0  0  0
   16.1006   12.3852    6.4838 H   0  0  0  0  0  0  0  0  0  0  0  0
   18.4146   11.9275    7.3351 H   0  0  0  0  0  0  0  0  0  0  0  0
   18.1746   10.2020    7.0902 H   0  0  0  0  0  0  0  0  0  0  0  0
   16.2482   10.2418    8.7018 H   0  0  0  0  0  0  0  0  0  0  0  0
   16.4994   11.9706    8.9517 H   0  0  0  0  0  0  0  0  0  0  0  0
   18.8053   11.5111    9.8200 H   0  0  0  0  0  0  0  0  0  0  0  0
   18.5554    9.7815    9.5678 H   0  0  0  0  0  0  0  0  0  0  0  0
   16.6160    9.8302   11.1551 H   0  0  0  0  0  0  0  0  0  0  0  0
   16.8652   11.5592   11.4075 H   0  0  0  0  0  0  0  0  0  0  0  0
   19.1689   11.1002   12.2787 H   0  0  0  0  0  0  0  0  0  0  0  0
   18.9197    9.3706   12.0261 H   0  0  0  0  0  0  0  0  0  0  0  0
   16.9776    9.4196   13.6083 H   0  0  0  0  0  0  0  0  0  0  0  0
   17.2272   11.1489   13.8603 H   0  0  0  0  0  0  0  0  0  0  0  0
   19.5330   10.6894   14.7285 H   0  0  0  0  0  0  0  0  0  0  0  0
   19.2821    8.9599   14.4773 H   0  0  0  0  0  0  0  0  0  0  0  0
   17.3383    9.0137   16.0574 H   0  0  0  0  0  0  0  0  0  0  0  0
   17.5910   10.7421   16.3090 H   0  0  0  0  0  0  0  0  0  0  0  0
   19.8907   10.2771   17.1947 H   0  0  0  0  0  0  0  0  0  0  0  0
   19.6378    8.5482   16.9429 H   0  0  0  0  0  0  0  0  0  0  0  0
   17.9616   10.3318   18.7876 H   0  0  0  0  0  0  0  0  0  0  0  0
   19.1998    9.1701   19.3008 H   0  0  0  0  0  0  0  0  0  0  0  0
   17.7074    8.5941   18.5344 H   0  0  0  0  0  0  0  0  0  0  0  0
   19.4059    9.5576    4.2979 H   0  0  0  0  0  0  0  0  0  0  0  0
   19.2834   10.6577    2.9093 H   0  0  0  0  0  0  0  0  0  0  0  0
   18.0697    7.9069    3.1127 H   0  0  0  0  0  0  0  0  0  0  0  0
   17.9107    9.0187    1.7373 H   0  0  0  0  0  0  0  0  0  0  0  0
  1  2  1  0  0  0  0
  1 33  1  0  0  0  0
  1 34  1  0  0  0  0
  1 35  1  0  0  0  0
  2  3  1  0  0  0  0
  2 36  1  0  0  0  0
  2 37  1  0  0  0  0
  3  4  1  0  0  0  0
  3 38  1  0  0  0  0
  3 39  1  0  0  0  0
  4  5  1  0  0  0  0
  4 40  1  0  0  0  0
  4 41  1  0  0  0  0
  5  6  1  0  0  0  0
  5 42  1  0  0  0  0
  5 43  1  0  0  0  0
  6  7  1  0  0  0  0
  6 44  1  0  0  0  0
  6 45  1  0  0  0  0
  7  8  1  0  0  0  0
  7 46  1  0  0  0  0
  7 47  1  0  0  0  0
  8  9  1  0  0  0  0
  8 48  1  0  0  0  0
  8 49  1  0  0  0  0
  9 10  1  0  0  0  0
  9 50  1  0  0  0  0
  9 51  1  0  0  0  0
 10 11  1  0  0  0  0
 10 52  1  0  0  0  0
 10 53  1  0  0  0  0
 11 12  1  0  0  0  0
 11 54  1  0  0  0  0
 11 55  1  0  0  0  0
 12 13  1  0  0  0  0
 12 56  1  0  0  0  0
 12 57  1  0  0  0  0
 13 14  1  0  0  0  0
 13 58  1  0  0  0  0
 13 59  1  0  0  0  0
 14 15  1  0  0  0  0
 14 60  1  0  0  0  0
 14 61  1  0  0  0  0
 15 16  2  0  0  0  0
 15 17  1  0  0  0  0
 17 18  2  0  0  0  0
 17 32  1  0  0  0  0
 18 19  1  0  0  0  0
 18 31  1  0  0  0  0
 19 20  1  0  0  0  0
 19 62  1  0  0  0  0
 20 21  1  0  0  0  0
 20 63  1  0  0  0  0
 20 64  1  0  0  0  0
 21 22  1  0  0  0  0
 21 65  1  0  0  0  0
 21 66  1  0  0  0  0
 22 23  1  0  0  0  0
 22 67  1  0  0  0  0
 22 68  1  0  0  0  0
 23 24  1  0  0  0  0
 23 69  1  0  0  0  0
 23 70  1  0  0  0  0
 24 25  1  0  0  0  0
 24 71  1  0  0  0  0
 24 72  1  0  0  0  0
 25 26  1  0  0  0  0
 25 73  1  0  0  0  0
 25 74  1  0  0  0  0
 26 27  1  0  0  0  0
 26 75  1  0  0  0  0
 26 76  1  0  0  0  0
 27 28  1  0  0  0  0
 27 77  1  0  0  0  0
 27 78  1  0  0  0  0
 28 29  1  0  0  0  0
 28 79  1  0  0  0  0
 28 80  1  0  0  0  0
 29 30  1  0  0  0  0
 29 81  1  0  0  0  0
 29 82  1  0  0  0  0
 30 83  1  0  0  0  0
 30 84  1  0  0  0  0
 30 85  1  0  0  0  0
 31 32  1  0  0  0  0
 31 86  1  0  0  0  0
 31 87  1  0  0  0  0
 32 88  1  0  0  0  0
 32 89  1  0  0  0  0
M  END
$$$$
