
 OpenBabel04232216433D

 65 66  0  0  0  0  0  0  0  0999 V2000
    6.6239   -3.3750    0.6816 C   0  0  0  0  0  0  0  0  0  0  0  0
    6.0031   -2.2281    1.0146 C   0  0  0  0  0  0  0  0  0  0  0  0
    4.6363   -2.0424    0.9857 N   0  0  0  0  0  0  0  0  0  0  0  0
    4.1748   -1.0085    0.3273 C   0  0  0  0  0  0  0  0  0  0  0  0
    4.9536   -0.0811   -0.3487 N   0  0  0  0  0  0  0  0  0  0  0  0
    4.5385    1.2746   -0.6517 C   0  0  0  0  0  0  0  0  0  0  0  0
    5.4889    1.9101   -1.6587 C   0  0  0  0  0  0  0  0  0  0  0  0
    5.5183    1.1623   -2.9953 C   0  0  0  0  0  0  0  0  0  0  0  0
    6.3452    1.8845   -4.0583 C   0  0  0  0  0  0  0  0  0  0  0  0
    7.8110    2.0637   -3.6624 C   0  0  0  0  0  0  0  0  0  0  0  0
    8.5935    2.7358   -4.7842 C   0  0  0  0  0  0  0  0  0  0  0  0
   10.0542    2.9481   -4.4055 C   0  0  0  0  0  0  0  0  0  0  0  0
   10.7963    3.6315   -5.5511 C   0  0  0  0  0  0  0  0  0  0  0  0
   12.2668    3.8618   -5.2193 C   0  0  0  0  0  0  0  0  0  0  0  0
   12.9776    4.5399   -6.3794 C   0  0  0  0  0  0  0  0  0  0  0  0
    2.6768   -0.8382    0.2378 C   0  0  0  0  0  0  0  0  0  0  0  0
    2.0371   -0.1101    1.2483 C   0  0  0  0  0  0  0  0  0  0  0  0
    0.6975    0.2660    1.1045 C   0  0  0  0  0  0  0  0  0  0  0  0
   -0.0098   -0.0961   -0.0421 C   0  0  0  0  0  0  0  0  0  0  0  0
    0.6194   -0.8247   -1.0532 C   0  0  0  0  0  0  0  0  0  0  0  0
    1.9670   -1.2003   -0.9349 C   0  0  0  0  0  0  0  0  0  0  0  0
    2.5781   -1.8504   -2.1116 C   0  0  0  0  0  0  0  0  0  0  0  0
    3.3697   -2.9199   -1.9864 C   0  0  0  0  0  0  0  0  0  0  0  0
    4.1468   -3.4629   -2.9836 N   0  0  0  0  0  0  0  0  0  0  0  0
    5.3820   -3.1211   -2.7772 C   0  0  0  0  0  0  0  0  0  0  0  0
    6.5339   -3.8874   -3.3181 C   0  0  0  0  0  0  0  0  0  0  0  0
    7.6393   -3.5950   -2.6128 C   0  0  0  0  0  0  0  0  0  0  0  0
    8.3499   -4.6633   -1.9474 C   0  0  0  0  0  0  0  0  0  0  0  0
    8.6076   -4.6962   -0.6247 C   0  0  0  0  0  0  0  0  0  0  0  0
    8.3616   -3.4324    0.5500 S   0  0  0  0  0  0  0  0  0  0  0  0
    6.0373   -4.2619    0.4627 H   0  0  0  0  0  0  0  0  0  0  0  0
    6.6040   -1.3637    1.2959 H   0  0  0  0  0  0  0  0  0  0  0  0
    5.9543   -0.2043   -0.2825 H   0  0  0  0  0  0  0  0  0  0  0  0
    4.5530    1.8594    0.2737 H   0  0  0  0  0  0  0  0  0  0  0  0
    3.5235    1.3075   -1.0576 H   0  0  0  0  0  0  0  0  0  0  0  0
    6.4939    1.9489   -1.2247 H   0  0  0  0  0  0  0  0  0  0  0  0
    5.1688    2.9460   -1.8298 H   0  0  0  0  0  0  0  0  0  0  0  0
    4.4944    1.0466   -3.3723 H   0  0  0  0  0  0  0  0  0  0  0  0
    5.9199    0.1521   -2.8555 H   0  0  0  0  0  0  0  0  0  0  0  0
    5.8963    2.8640   -4.2650 H   0  0  0  0  0  0  0  0  0  0  0  0
    6.2889    1.3085   -4.9906 H   0  0  0  0  0  0  0  0  0  0  0  0
    8.2555    1.0887   -3.4290 H   0  0  0  0  0  0  0  0  0  0  0  0
    7.8899    2.6831   -2.7622 H   0  0  0  0  0  0  0  0  0  0  0  0
    8.1308    3.7050   -5.0198 H   0  0  0  0  0  0  0  0  0  0  0  0
    8.5310    2.1234   -5.6934 H   0  0  0  0  0  0  0  0  0  0  0  0
   10.5228    1.9830   -4.1778 H   0  0  0  0  0  0  0  0  0  0  0  0
   10.1191    3.5632   -3.4996 H   0  0  0  0  0  0  0  0  0  0  0  0
   10.3163    4.5926   -5.7732 H   0  0  0  0  0  0  0  0  0  0  0  0
   10.7162    3.0153   -6.4548 H   0  0  0  0  0  0  0  0  0  0  0  0
   12.7563    2.9057   -5.0011 H   0  0  0  0  0  0  0  0  0  0  0  0
   12.3557    4.4864   -4.3231 H   0  0  0  0  0  0  0  0  0  0  0  0
   12.9308    3.9192   -7.2806 H   0  0  0  0  0  0  0  0  0  0  0  0
   14.0303    4.7087   -6.1352 H   0  0  0  0  0  0  0  0  0  0  0  0
   12.5188    5.5071   -6.6067 H   0  0  0  0  0  0  0  0  0  0  0  0
    2.5938    0.2149    2.1255 H   0  0  0  0  0  0  0  0  0  0  0  0
    0.2075    0.8614    1.8699 H   0  0  0  0  0  0  0  0  0  0  0  0
   -1.0495    0.2011   -0.1634 H   0  0  0  0  0  0  0  0  0  0  0  0
    0.0574   -1.0814   -1.9493 H   0  0  0  0  0  0  0  0  0  0  0  0
    2.4116   -1.3941   -3.0773 H   0  0  0  0  0  0  0  0  0  0  0  0
    3.5181   -3.3635   -1.0037 H   0  0  0  0  0  0  0  0  0  0  0  0
    5.6479   -2.3795   -1.9960 H   0  0  0  0  0  0  0  0  0  0  0  0
    6.2915   -4.8607   -3.7288 H   0  0  0  0  0  0  0  0  0  0  0  0
    7.7617   -2.6100   -2.1649 H   0  0  0  0  0  0  0  0  0  0  0  0
    8.5889   -5.5384   -2.5513 H   0  0  0  0  0  0  0  0  0  0  0  0
    9.0941   -5.5869   -0.2370 H   0  0  0  0  0  0  0  0  0  0  0  0
  1  2  2  3  0  0  0
  1 30  1  0  0  0  0
  1 31  1  0  0  0  0
  2  3  1  0  0  0  0
  2 32  1  0  0  0  0
  3  4  2  3  0  0  0
  4  5  1  0  0  0  0
  4 16  1  0  0  0  0
  5  6  1  0  0  0  0
  5 33  1  0  0  0  0
  6  7  1  0  0  0  0
  6 34  1  0  0  0  0
  6 35  1  0  0  0  0
  7  8  1  0  0  0  0
  7 36  1  0  0  0  0
  7 37  1  0  0  0  0
  8  9  1  0  0  0  0
  8 38  1  0  0  0  0
  8 39  1  0  0  0  0
  9 10  1  0  0  0  0
  9 40  1  0  0  0  0
  9 41  1  0  0  0  0
 10 11  1  0  0  0  0
 10 42  1  0  0  0  0
 10 43  1  0  0  0  0
 11 12  1  0  0  0  0
 11 44  1  0  0  0  0
 11 45  1  0  0  0  0
 12 13  1  0  0  0  0
 12 46  1  0  0  0  0
 12 47  1  0  0  0  0
 13 14  1  0  0  0  0
 13 48  1  0  0  0  0
 13 49  1  0  0  0  0
 14 15  1  0  0  0  0
 14 50  1  0  0  0  0
 14 51  1  0  0  0  0
 15 52  1  0  0  0  0
 15 53  1  0  0  0  0
 15 54  1  0  0  0  0
 16 17  1  0  0  0  0
 16 21  2  0  0  0  0
 17 18  2  0  0  0  0
 17 55  1  0  0  0  0
 18 19  1  0  0  0  0
 18 56  1  0  0  0  0
 19 20  2  0  0  0  0
 19 57  1  0  0  0  0
 20 21  1  0  0  0  0
 20 58  1  0  0  0  0
 21 22  1  0  0  0  0
 22 23  2  3  0  0  0
 22 59  1  0  0  0  0
 23 24  1  0  0  0  0
 23 60  1  0  0  0  0
 24 25  2  3  0  0  0
 25 26  1  0  0  0  0
 25 61  1  0  0  0  0
 26 27  2  3  0  0  0
 26 62  1  0  0  0  0
 27 28  1  0  0  0  0
 27 63  1  0  0  0  0
 28 29  2  3  0  0  0
 28 64  1  0  0  0  0
 29 30  1  0  0  0  0
 29 65  1  0  0  0  0
M  END
$$$$
