
 OpenBabel04232217013D

170169  0  0  0  0  0  0  0  0999 V2000
    1.0079   -0.0211    0.0566 O   0  0  0  0  0  0  0  0  0  0  0  0
    2.4584   -0.0606    0.1093 N   0  0  0  0  0  0  0  0  0  0  0  0
    2.8928    0.9768   -0.8249 C   0  0  0  0  0  0  0  0  0  0  0  0
    4.4162    0.9905   -0.8543 C   0  0  0  0  0  0  0  0  0  0  0  0
    4.9329    2.0473   -1.8195 C   0  0  0  0  0  0  0  0  0  0  0  0
    6.4525    2.0387   -1.8258 C   0  0  0  0  0  0  0  0  0  0  0  0
    6.9746    3.0848   -2.7848 C   0  0  0  0  0  0  0  0  0  0  0  0
    8.4852    3.0797   -2.7913 C   0  0  0  0  0  0  0  0  0  0  0  0
    8.8640    4.0812   -3.7084 O   0  0  0  0  0  0  0  0  0  0  0  0
   10.3016    4.0728   -3.7087 O   0  0  0  0  0  0  0  0  0  0  0  0
   10.7476    5.0765   -4.6308 O   0  0  0  0  0  0  0  0  0  0  0  0
   12.1542    5.0316   -4.5998 C   0  0  0  0  0  0  0  0  0  0  0  0
   12.6018    6.0200   -5.5053 O   0  0  0  0  0  0  0  0  0  0  0  0
   14.0393    5.9623   -5.4656 O   0  0  0  0  0  0  0  0  0  0  0  0
   14.4385    6.9659   -6.3846 C   0  0  0  0  0  0  0  0  0  0  0  0
   15.9445    6.9711   -6.4002 C   0  0  0  0  0  0  0  0  0  0  0  0
   16.4500    8.0211   -7.3649 C   0  0  0  0  0  0  0  0  0  0  0  0
   17.9656    8.0178   -7.3702 C   0  0  0  0  0  0  0  0  0  0  0  0
   18.4755    9.0675   -8.3373 C   0  0  0  0  0  0  0  0  0  0  0  0
   19.9916    9.0677   -8.3430 C   0  0  0  0  0  0  0  0  0  0  0  0
   20.5009   10.1195   -9.3095 C   0  0  0  0  0  0  0  0  0  0  0  0
   22.0174   10.1195   -9.3176 C   0  0  0  0  0  0  0  0  0  0  0  0
   22.5271   11.1727  -10.2827 C   0  0  0  0  0  0  0  0  0  0  0  0
   24.0438   11.1734  -10.2888 C   0  0  0  0  0  0  0  0  0  0  0  0
   24.5545   12.2264  -11.2535 C   0  0  0  0  0  0  0  0  0  0  0  0
   26.0712   12.2283  -11.2579 C   0  0  0  0  0  0  0  0  0  0  0  0
   26.5816   13.2812  -12.2226 C   0  0  0  0  0  0  0  0  0  0  0  0
   28.0982   13.2829  -12.2270 C   0  0  0  0  0  0  0  0  0  0  0  0
   28.6086   14.3359  -13.1917 C   0  0  0  0  0  0  0  0  0  0  0  0
   30.1251   14.3378  -13.1962 C   0  0  0  0  0  0  0  0  0  0  0  0
   30.6356   15.3906  -14.1607 C   0  0  0  0  0  0  0  0  0  0  0  0
   32.1516   15.3919  -14.1646 C   0  0  0  0  0  0  0  0  0  0  0  0
   32.6592   16.4447  -15.1293 C   0  0  0  0  0  0  0  0  0  0  0  0
   34.1734   16.4467  -15.1312 C   0  0  0  0  0  0  0  0  0  0  0  0
   34.6770   17.4985  -16.0948 C   0  0  0  0  0  0  0  0  0  0  0  0
   36.1872   17.4963  -16.0901 C   0  0  0  0  0  0  0  0  0  0  0  0
   36.6838   18.5462  -17.0494 C   0  0  0  0  0  0  0  0  0  0  0  0
   38.1865   18.5304  -17.0294 C   0  0  0  0  0  0  0  0  0  0  0  0
   38.6637   19.5729  -17.9847 C   0  0  0  0  0  0  0  0  0  0  0  0
   40.1467   19.5539  -17.9592 C   0  0  0  0  0  0  0  0  0  0  0  0
   40.4637   20.5529  -18.8728 O   0  0  0  0  0  0  0  0  0  0  0  0
   41.8658   20.5256  -18.8400 O   0  0  0  0  0  0  0  0  0  0  0  0
   42.3071   21.4912  -19.7223 O   0  0  0  0  0  0  0  0  0  0  0  0
   43.7065   21.4606  -19.6866 O   0  0  0  0  0  0  0  0  0  0  0  0
   44.1484   22.4367  -20.5785 O   0  0  0  0  0  0  0  0  0  0  0  0
   45.5275   22.4195  -20.5552 O   0  0  0  0  0  0  0  0  0  0  0  0
   45.9545   23.3807  -21.4336 O   0  0  0  0  0  0  0  0  0  0  0  0
   47.3459   23.3537  -21.4012 O   0  0  0  0  0  0  0  0  0  0  0  0
   47.7772   24.3517  -22.3132 O   0  0  0  0  0  0  0  0  0  0  0  0
   49.1539   24.3142  -22.2713 O   0  0  0  0  0  0  0  0  0  0  0  0
   49.5738   25.2783  -23.1524 O   0  0  0  0  0  0  0  0  0  0  0  0
   50.9604   25.2542  -23.1228 O   0  0  0  0  0  0  0  0  0  0  0  0
   51.4037   26.2429  -24.0260 O   0  0  0  0  0  0  0  0  0  0  0  0
   52.7828   26.1927  -23.9728 O   0  0  0  0  0  0  0  0  0  0  0  0
   53.2494   27.1614  -24.8584 O   0  0  0  0  0  0  0  0  0  0  0  0
   54.6305   27.1332  -24.8218 O   0  0  0  0  0  0  0  0  0  0  0  0
   54.9533   28.1434  -25.7422 C   0  0  0  0  0  0  0  0  0  0  0  0
   56.4408   28.1207  -25.7143 C   0  0  0  0  0  0  0  0  0  0  0  0
   56.9070   29.1663  -26.6670 C   0  0  0  0  0  0  0  0  0  0  0  0
   58.4081   29.1530  -26.6495 C   0  0  0  0  0  0  0  0  0  0  0  0
   58.8899   30.2026  -27.6066 C   0  0  0  0  0  0  0  0  0  0  0  0
   60.3915   30.1924  -27.5917 C   0  0  0  0  0  0  0  0  0  0  0  0
   60.8711   31.2426  -28.5487 C   0  0  0  0  0  0  0  0  0  0  0  0
   62.3634   31.2255  -28.5276 C   0  0  0  0  0  0  0  0  0  0  0  0
   62.8293   32.2654  -29.4756 C   0  0  0  0  0  0  0  0  0  0  0  0
   64.2126   32.1583  -29.3728 O   0  0  0  0  0  0  0  0  0  0  0  0
   64.6357   33.1430  -30.2704 O   0  0  0  0  0  0  0  0  0  0  0  0
   66.0292   33.1386  -30.2613 O   0  0  0  0  0  0  0  0  0  0  0  0
   66.4436   34.1186  -31.1547 O   0  0  0  0  0  0  0  0  0  0  0  0
   67.8344   34.1036  -31.1359 O   0  0  0  0  0  0  0  0  0  0  0  0
   68.2654   35.0788  -32.0248 O   0  0  0  0  0  0  0  0  0  0  0  0
   69.6522   35.0517  -31.9949 O   0  0  0  0  0  0  0  0  0  0  0  0
   70.0909   36.0275  -32.8844 O   0  0  0  0  0  0  0  0  0  0  0  0
   71.4768   36.0077  -32.8612 O   0  0  0  0  0  0  0  0  0  0  0  0
   71.9054   36.9854  -33.7525 O   0  0  0  0  0  0  0  0  0  0  0  0
   73.2970   36.9698  -33.7332 O   0  0  0  0  0  0  0  0  0  0  0  0
   73.7498   37.9461  -34.6230 O   0  0  0  0  0  0  0  0  0  0  0  0
   75.1468   37.9165  -34.5906 O   0  0  0  0  0  0  0  0  0  0  0  0
   75.6252   38.8917  -35.4795 O   0  0  0  0  0  0  0  0  0  0  0  0
   77.0461   38.8732  -35.4600 O   0  0  0  0  0  0  0  0  0  0  0  0
   77.3554   39.8821  -36.3799 C   0  0  0  0  0  0  0  0  0  0  0  0
    0.7771   -0.4590    0.8985 H   0  0  0  0  0  0  0  0  0  0  0  0
    2.6642   -0.9651   -0.3237 H   0  0  0  0  0  0  0  0  0  0  0  0
    2.5181    1.9606   -0.5203 H   0  0  0  0  0  0  0  0  0  0  0  0
    2.5102    0.7644   -1.8316 H   0  0  0  0  0  0  0  0  0  0  0  0
    4.7978    0.0071   -1.1581 H   0  0  0  0  0  0  0  0  0  0  0  0
    4.8094    1.1932    0.1504 H   0  0  0  0  0  0  0  0  0  0  0  0
    4.5687    3.0389   -1.5241 H   0  0  0  0  0  0  0  0  0  0  0  0
    4.5568    1.8511   -2.8313 H   0  0  0  0  0  0  0  0  0  0  0  0
    6.8226    1.0496   -2.1222 H   0  0  0  0  0  0  0  0  0  0  0  0
    6.8340    2.2401   -0.8173 H   0  0  0  0  0  0  0  0  0  0  0  0
    6.6116    4.0833   -2.5082 H   0  0  0  0  0  0  0  0  0  0  0  0
    6.6020    2.9028   -3.8014 H   0  0  0  0  0  0  0  0  0  0  0  0
    8.8758    2.1098   -3.1192 H   0  0  0  0  0  0  0  0  0  0  0  0
    8.8854    3.3154   -1.7988 H   0  0  0  0  0  0  0  0  0  0  0  0
   12.5081    4.0444   -4.9185 H   0  0  0  0  0  0  0  0  0  0  0  0
   12.5179    5.2566   -3.5906 H   0  0  0  0  0  0  0  0  0  0  0  0
   14.0446    7.9361   -6.0592 H   0  0  0  0  0  0  0  0  0  0  0  0
   14.0350    6.7329   -7.3772 H   0  0  0  0  0  0  0  0  0  0  0  0
   16.3120    5.9761   -6.6806 H   0  0  0  0  0  0  0  0  0  0  0  0
   16.3212    7.1599   -5.3873 H   0  0  0  0  0  0  0  0  0  0  0  0
   16.0776    9.0105   -7.0719 H   0  0  0  0  0  0  0  0  0  0  0  0
   16.0705    7.8175   -8.3739 H   0  0  0  0  0  0  0  0  0  0  0  0
   18.3365    7.0273   -7.6612 H   0  0  0  0  0  0  0  0  0  0  0  0
   18.3434    8.2221   -6.3607 H   0  0  0  0  0  0  0  0  0  0  0  0
   18.1017   10.0569   -8.0462 H   0  0  0  0  0  0  0  0  0  0  0  0
   18.0971    8.8614   -9.3462 H   0  0  0  0  0  0  0  0  0  0  0  0
   20.3646    8.0783   -8.6352 H   0  0  0  0  0  0  0  0  0  0  0  0
   20.3694    9.2722   -7.3336 H   0  0  0  0  0  0  0  0  0  0  0  0
   20.1282   11.1087   -9.0160 H   0  0  0  0  0  0  0  0  0  0  0  0
   20.1212    9.9157  -10.3183 H   0  0  0  0  0  0  0  0  0  0  0  0
   22.3897    9.1306   -9.6122 H   0  0  0  0  0  0  0  0  0  0  0  0
   22.3968   10.3219   -8.3084 H   0  0  0  0  0  0  0  0  0  0  0  0
   22.1534   12.1615   -9.9893 H   0  0  0  0  0  0  0  0  0  0  0  0
   22.1490   10.9693  -11.2922 H   0  0  0  0  0  0  0  0  0  0  0  0
   24.4171   10.1846  -10.5824 H   0  0  0  0  0  0  0  0  0  0  0  0
   24.4217   11.3763   -9.2791 H   0  0  0  0  0  0  0  0  0  0  0  0
   24.1804   13.2152  -10.9606 H   0  0  0  0  0  0  0  0  0  0  0  0
   24.1779   12.0227  -12.2635 H   0  0  0  0  0  0  0  0  0  0  0  0
   26.4457   11.2398  -11.5511 H   0  0  0  0  0  0  0  0  0  0  0  0
   26.4480   12.4326  -10.2481 H   0  0  0  0  0  0  0  0  0  0  0  0
   26.2073   14.2697  -11.9292 H   0  0  0  0  0  0  0  0  0  0  0  0
   26.2049   13.0771  -13.2324 H   0  0  0  0  0  0  0  0  0  0  0  0
   28.4724   12.2943  -12.5203 H   0  0  0  0  0  0  0  0  0  0  0  0
   28.4749   13.4869  -11.2171 H   0  0  0  0  0  0  0  0  0  0  0  0
   28.2340   15.3244  -12.8985 H   0  0  0  0  0  0  0  0  0  0  0  0
   28.2318   14.1315  -14.2014 H   0  0  0  0  0  0  0  0  0  0  0  0
   30.4995   13.3492  -13.4891 H   0  0  0  0  0  0  0  0  0  0  0  0
   30.5019   14.5417  -12.1863 H   0  0  0  0  0  0  0  0  0  0  0  0
   30.2620   16.3797  -13.8683 H   0  0  0  0  0  0  0  0  0  0  0  0
   30.2596   15.1873  -15.1710 H   0  0  0  0  0  0  0  0  0  0  0  0
   32.5272   14.4038  -14.4579 H   0  0  0  0  0  0  0  0  0  0  0  0
   32.5294   15.5963  -13.1552 H   0  0  0  0  0  0  0  0  0  0  0  0
   32.2846   17.4336  -14.8377 H   0  0  0  0  0  0  0  0  0  0  0  0
   32.2845   16.2404  -16.1399 H   0  0  0  0  0  0  0  0  0  0  0  0
   34.5516   15.4596  -15.4245 H   0  0  0  0  0  0  0  0  0  0  0  0
   34.5515   16.6529  -14.1222 H   0  0  0  0  0  0  0  0  0  0  0  0
   34.3044   18.4888  -15.8051 H   0  0  0  0  0  0  0  0  0  0  0  0
   34.3067   17.2947  -17.1072 H   0  0  0  0  0  0  0  0  0  0  0  0
   36.5693   16.5114  -16.3857 H   0  0  0  0  0  0  0  0  0  0  0  0
   36.5669   17.7038  -15.0819 H   0  0  0  0  0  0  0  0  0  0  0  0
   36.3165   19.5395  -16.7620 H   0  0  0  0  0  0  0  0  0  0  0  0
   36.3211   18.3462  -18.0655 H   0  0  0  0  0  0  0  0  0  0  0  0
   38.5733   17.5476  -17.3264 H   0  0  0  0  0  0  0  0  0  0  0  0
   38.5684   18.7438  -16.0233 H   0  0  0  0  0  0  0  0  0  0  0  0
   38.3042   20.5754  -17.7162 H   0  0  0  0  0  0  0  0  0  0  0  0
   38.3112   19.3882  -19.0084 H   0  0  0  0  0  0  0  0  0  0  0  0
   40.5652   18.5970  -18.2942 H   0  0  0  0  0  0  0  0  0  0  0  0
   40.5580   19.8065  -16.9742 H   0  0  0  0  0  0  0  0  0  0  0  0
   54.5374   29.0941  -25.4011 H   0  0  0  0  0  0  0  0  0  0  0  0
   54.5439   27.8878  -26.7225 H   0  0  0  0  0  0  0  0  0  0  0  0
   56.7976   27.1192  -25.9856 H   0  0  0  0  0  0  0  0  0  0  0  0
   56.7912   28.3028  -24.6904 H   0  0  0  0  0  0  0  0  0  0  0  0
   56.5207   30.1476  -26.3670 H   0  0  0  0  0  0  0  0  0  0  0  0
   56.5251   28.9552  -27.6731 H   0  0  0  0  0  0  0  0  0  0  0  0
   58.7793   28.1627  -26.9406 H   0  0  0  0  0  0  0  0  0  0  0  0
   58.7752   29.3552  -25.6361 H   0  0  0  0  0  0  0  0  0  0  0  0
   58.5124   31.1901  -27.3126 H   0  0  0  0  0  0  0  0  0  0  0  0
   58.5166   29.9992  -28.6182 H   0  0  0  0  0  0  0  0  0  0  0  0
   60.7740   29.2075  -27.8875 H   0  0  0  0  0  0  0  0  0  0  0  0
   60.7680   30.3993  -26.5820 H   0  0  0  0  0  0  0  0  0  0  0  0
   60.5037   32.2345  -28.2579 H   0  0  0  0  0  0  0  0  0  0  0  0
   60.5086   31.0417  -29.5644 H   0  0  0  0  0  0  0  0  0  0  0  0
   62.7691   30.2480  -28.8214 H   0  0  0  0  0  0  0  0  0  0  0  0
   62.7640   31.4314  -27.5258 H   0  0  0  0  0  0  0  0  0  0  0  0
   62.5127   33.2752  -29.1864 H   0  0  0  0  0  0  0  0  0  0  0  0
   62.5175   32.0677  -30.5087 H   0  0  0  0  0  0  0  0  0  0  0  0
   78.4359   39.9459  -36.4360 H   0  0  0  0  0  0  0  0  0  0  0  0
   76.9244   40.8242  -36.0279 H   0  0  0  0  0  0  0  0  0  0  0  0
   76.9270   39.6168  -37.3512 H   0  0  0  0  0  0  0  0  0  0  0  0
  1  2  1  0  0  0  0
  1 82  1  0  0  0  0
  2  3  1  0  0  0  0
  2 83  1  0  0  0  0
  3  4  1  0  0  0  0
  3 84  1  0  0  0  0
  3 85  1  0  0  0  0
  4  5  1  0  0  0  0
  4 86  1  0  0  0  0
  4 87  1  0  0  0  0
  5  6  1  0  0  0  0
  5 88  1  0  0  0  0
  5 89  1  0  0  0  0
  6  7  1  0  0  0  0
  6 90  1  0  0  0  0
  6 91  1  0  0  0  0
  7  8  1  0  0  0  0
  7 92  1  0  0  0  0
  7 93  1  0  0  0  0
  8  9  1  0  0  0  0
  8 94  1  0  0  0  0
  8 95  1  0  0  0  0
  9 10  1  0  0  0  0
 10 11  1  0  0  0  0
 11 12  1  0  0  0  0
 12 13  1  0  0  0  0
 12 96  1  0  0  0  0
 12 97  1  0  0  0  0
 13 14  1  0  0  0  0
 14 15  1  0  0  0  0
 15 16  1  0  0  0  0
 15 98  1  0  0  0  0
 15 99  1  0  0  0  0
 16 17  1  0  0  0  0
 16100  1  0  0  0  0
 16101  1  0  0  0  0
 17 18  1  0  0  0  0
 17102  1  0  0  0  0
 17103  1  0  0  0  0
 18 19  1  0  0  0  0
 18104  1  0  0  0  0
 18105  1  0  0  0  0
 19 20  1  0  0  0  0
 19106  1  0  0  0  0
 19107  1  0  0  0  0
 20 21  1  0  0  0  0
 20108  1  0  0  0  0
 20109  1  0  0  0  0
 21 22  1  0  0  0  0
 21110  1  0  0  0  0
 21111  1  0  0  0  0
 22 23  1  0  0  0  0
 22112  1  0  0  0  0
 22113  1  0  0  0  0
 23 24  1  0  0  0  0
 23114  1  0  0  0  0
 23115  1  0  0  0  0
 24 25  1  0  0  0  0
 24116  1  0  0  0  0
 24117  1  0  0  0  0
 25 26  1  0  0  0  0
 25118  1  0  0  0  0
 25119  1  0  0  0  0
 26 27  1  0  0  0  0
 26120  1  0  0  0  0
 26121  1  0  0  0  0
 27 28  1  0  0  0  0
 27122  1  0  0  0  0
 27123  1  0  0  0  0
 28 29  1  0  0  0  0
 28124  1  0  0  0  0
 28125  1  0  0  0  0
 29 30  1  0  0  0  0
 29126  1  0  0  0  0
 29127  1  0  0  0  0
 30 31  1  0  0  0  0
 30128  1  0  0  0  0
 30129  1  0  0  0  0
 31 32  1  0  0  0  0
 31130  1  0  0  0  0
 31131  1  0  0  0  0
 32 33  1  0  0  0  0
 32132  1  0  0  0  0
 32133  1  0  0  0  0
 33 34  1  0  0  0  0
 33134  1  0  0  0  0
 33135  1  0  0  0  0
 34 35  1  0  0  0  0
 34136  1  0  0  0  0
 34137  1  0  0  0  0
 35 36  1  0  0  0  0
 35138  1  0  0  0  0
 35139  1  0  0  0  0
 36 37  1  0  0  0  0
 36140  1  0  0  0  0
 36141  1  0  0  0  0
 37 38  1  0  0  0  0
 37142  1  0  0  0  0
 37143  1  0  0  0  0
 38 39  1  0  0  0  0
 38144  1  0  0  0  0
 38145  1  0  0  0  0
 39 40  1  0  0  0  0
 39146  1  0  0  0  0
 39147  1  0  0  0  0
 40 41  1  0  0  0  0
 40148  1  0  0  0  0
 40149  1  0  0  0  0
 41 42  1  0  0  0  0
 42 43  1  0  0  0  0
 43 44  1  0  0  0  0
 44 45  1  0  0  0  0
 45 46  1  0  0  0  0
 46 47  1  0  0  0  0
 47 48  1  0  0  0  0
 48 49  1  0  0  0  0
 49 50  1  0  0  0  0
 50 51  1  0  0  0  0
 51 52  1  0  0  0  0
 52 53  1  0  0  0  0
 53 54  1  0  0  0  0
 54 55  1  0  0  0  0
 55 56  1  0  0  0  0
 56 57  1  0  0  0  0
 57 58  1  0  0  0  0
 57150  1  0  0  0  0
 57151  1  0  0  0  0
 58 59  1  0  0  0  0
 58152  1  0  0  0  0
 58153  1  0  0  0  0
 59 60  1  0  0  0  0
 59154  1  0  0  0  0
 59155  1  0  0  0  0
 60 61  1  0  0  0  0
 60156  1  0  0  0  0
 60157  1  0  0  0  0
 61 62  1  0  0  0  0
 61158  1  0  0  0  0
 61159  1  0  0  0  0
 62 63  1  0  0  0  0
 62160  1  0  0  0  0
 62161  1  0  0  0  0
 63 64  1  0  0  0  0
 63162  1  0  0  0  0
 63163  1  0  0  0  0
 64 65  1  0  0  0  0
 64164  1  0  0  0  0
 64165  1  0  0  0  0
 65 66  1  0  0  0  0
 65166  1  0  0  0  0
 65167  1  0  0  0  0
 66 67  1  0  0  0  0
 67 68  1  0  0  0  0
 68 69  1  0  0  0  0
 69 70  1  0  0  0  0
 70 71  1  0  0  0  0
 71 72  1  0  0  0  0
 72 73  1  0  0  0  0
 73 74  1  0  0  0  0
 74 75  1  0  0  0  0
 75 76  1  0  0  0  0
 76 77  1  0  0  0  0
 77 78  1  0  0  0  0
 78 79  1  0  0  0  0
 79 80  1  0  0  0  0
 80 81  1  0  0  0  0
 81168  1  0  0  0  0
 81169  1  0  0  0  0
 81170  1  0  0  0  0
M  END
$$$$
