
 OpenBabel04232216513D

 52 53  0  0  1  0  0  0  0  0999 V2000
    2.7124    2.0287   -1.2040 C   0  0  0  0  0  0  0  0  0  0  0  0
    2.3729    0.6864   -0.5736 C   0  0  0  0  0  0  0  0  0  0  0  0
    3.0237   -0.5054   -1.2921 C   0  0  0  0  0  0  0  0  0  0  0  0
    4.5411   -0.5825   -1.3061 C   0  0  0  0  0  0  0  0  0  0  0  0
    5.2554   -1.1424   -2.3928 C   0  0  0  0  0  0  0  0  0  0  0  0
    4.6195   -1.5382   -3.7089 C   0  0  0  0  0  0  0  0  0  0  0  0
    4.1010   -2.9658   -3.7548 C   0  0  0  0  0  0  0  0  0  0  0  0
    6.6506   -1.3081   -2.2899 C   0  0  0  0  0  0  0  0  0  0  0  0
    7.3509   -0.8850   -1.1619 C   0  0  0  0  0  0  0  0  0  0  0  0
    6.6601   -0.3364   -0.0836 C   0  0  0  0  0  0  0  0  0  0  0  0
    7.3516    0.0682    1.1692 C   0  0  0  0  0  0  0  0  0  0  0  0
    6.9433    1.0692    1.7544 O   0  0  0  0  0  0  0  0  0  0  0  0
    8.4670   -0.7991    1.6250 C   0  0  0  0  0  0  0  0  0  0  0  0
    9.3924   -0.4809    2.5489 C   0  0  0  0  0  0  0  0  0  0  0  0
   10.0852   -1.8159    2.4574 C   0  0  0  0  0  0  0  0  0  0  0  0
    9.0542   -2.1661    1.3397 C   0  0  3  0  0  0  0  0  0  0  0  0
    8.2405   -3.4130    1.6754 C   0  0  0  0  0  0  0  0  0  0  0  0
    7.2386   -3.7928    0.5842 C   0  0  0  0  0  0  0  0  0  0  0  0
    6.5021   -5.0749    0.9695 C   0  0  0  0  0  0  0  0  0  0  0  0
    5.4607   -5.4947   -0.0658 C   0  0  0  0  0  0  0  0  0  0  0  0
    4.7280   -6.7437    0.4045 C   0  0  0  0  0  0  0  0  0  0  0  0
    5.2683   -0.1806   -0.1644 C   0  0  0  0  0  0  0  0  0  0  0  0
    2.2144    2.8357   -0.6566 H   0  0  0  0  0  0  0  0  0  0  0  0
    2.3742    2.0678   -2.2442 H   0  0  0  0  0  0  0  0  0  0  0  0
    3.7879    2.2263   -1.1832 H   0  0  0  0  0  0  0  0  0  0  0  0
    1.2839    0.5549   -0.6128 H   0  0  0  0  0  0  0  0  0  0  0  0
    2.6346    0.6999    0.4897 H   0  0  0  0  0  0  0  0  0  0  0  0
    2.6258   -0.5166   -2.3101 H   0  0  0  0  0  0  0  0  0  0  0  0
    2.6663   -1.4270   -0.8140 H   0  0  0  0  0  0  0  0  0  0  0  0
    5.3600   -1.4126   -4.5091 H   0  0  0  0  0  0  0  0  0  0  0  0
    3.8206   -0.8350   -3.9721 H   0  0  0  0  0  0  0  0  0  0  0  0
    4.9055   -3.6885   -3.5813 H   0  0  0  0  0  0  0  0  0  0  0  0
    3.6772   -3.1713   -4.7444 H   0  0  0  0  0  0  0  0  0  0  0  0
    3.3189   -3.1395   -3.0100 H   0  0  0  0  0  0  0  0  0  0  0  0
    7.2075   -1.7661   -3.1060 H   0  0  0  0  0  0  0  0  0  0  0  0
    8.4299   -0.9983   -1.1433 H   0  0  0  0  0  0  0  0  0  0  0  0
    9.5651    0.4024    3.1628 H   0  0  0  0  0  0  0  0  0  0  0  0
   10.0270   -2.4385    3.3581 H   0  0  0  0  0  0  0  0  0  0  0  0
   11.1278   -1.8034    2.1227 H   0  0  0  0  0  0  0  0  0  0  0  0
    9.5559   -2.2692    0.3633 H   0  0  0  0  0  0  0  0  0  0  0  0
    7.7147   -3.2824    2.6286 H   0  0  0  0  0  0  0  0  0  0  0  0
    8.9343   -4.2533    1.8079 H   0  0  0  0  0  0  0  0  0  0  0  0
    7.7526   -3.9249   -0.3760 H   0  0  0  0  0  0  0  0  0  0  0  0
    6.5013   -2.9979    0.4571 H   0  0  0  0  0  0  0  0  0  0  0  0
    6.0053   -4.9214    1.9355 H   0  0  0  0  0  0  0  0  0  0  0  0
    7.2281   -5.8855    1.1044 H   0  0  0  0  0  0  0  0  0  0  0  0
    5.9440   -5.6951   -1.0289 H   0  0  0  0  0  0  0  0  0  0  0  0
    4.7358   -4.6879   -0.2259 H   0  0  0  0  0  0  0  0  0  0  0  0
    5.4295   -7.5681    0.5689 H   0  0  0  0  0  0  0  0  0  0  0  0
    3.9926   -7.0637   -0.3396 H   0  0  0  0  0  0  0  0  0  0  0  0
    4.2011   -6.5534    1.3449 H   0  0  0  0  0  0  0  0  0  0  0  0
    4.7566    0.2546    0.6918 H   0  0  0  0  0  0  0  0  0  0  0  0
  1  2  1  0  0  0  0
  1 23  1  0  0  0  0
  1 24  1  0  0  0  0
  1 25  1  0  0  0  0
  2  3  1  0  0  0  0
  2 26  1  0  0  0  0
  2 27  1  0  0  0  0
  3  4  1  0  0  0  0
  3 28  1  0  0  0  0
  3 29  1  0  0  0  0
  4  5  1  0  0  0  0
  4 22  2  0  0  0  0
  5  6  1  0  0  0  0
  5  8  2  0  0  0  0
  6  7  1  0  0  0  0
  6 30  1  0  0  0  0
  6 31  1  0  0  0  0
  7 32  1  0  0  0  0
  7 33  1  0  0  0  0
  7 34  1  0  0  0  0
  8  9  1  0  0  0  0
  8 35  1  0  0  0  0
  9 10  2  0  0  0  0
  9 36  1  0  0  0  0
 10 11  1  0  0  0  0
 10 22  1  0  0  0  0
 11 12  2  0  0  0  0
 11 13  1  0  0  0  0
 13 14  2  0  0  0  0
 13 16  1  0  0  0  0
 14 15  1  0  0  0  0
 14 37  1  0  0  0  0
 15 16  1  0  0  0  0
 15 38  1  0  0  0  0
 15 39  1  0  0  0  0
 16 17  1  0  0  0  0
 16 40  1  0  0  0  0
 17 18  1  0  0  0  0
 17 41  1  0  0  0  0
 17 42  1  0  0  0  0
 18 19  1  0  0  0  0
 18 43  1  0  0  0  0
 18 44  1  0  0  0  0
 19 20  1  0  0  0  0
 19 45  1  0  0  0  0
 19 46  1  0  0  0  0
 20 21  1  0  0  0  0
 20 47  1  0  0  0  0
 20 48  1  0  0  0  0
 21 49  1  0  0  0  0
 21 50  1  0  0  0  0
 21 51  1  0  0  0  0
 22 52  1  0  0  0  0
M  END
$$$$
