
 OpenBabel04232217023D

 89 88  0  0  0  0  0  0  0  0999 V2000
    9.3598   -5.2285    1.8400 O   0  0  0  0  0  0  0  0  0  0  0  0
    8.8944   -4.8161    0.5234 O   0  0  0  0  0  0  0  0  0  0  0  0
    7.4799   -4.9343    0.5556 C   0  0  0  0  0  0  0  0  0  0  0  0
    6.9043   -4.5550   -0.7923 C   0  0  0  0  0  0  0  0  0  0  0  0
    7.4552   -5.3923   -1.9228 C   0  0  0  0  0  0  0  0  0  0  0  0
    6.8167   -4.9333   -3.5630 S   0  0  0  0  0  0  0  0  0  0  0  0
    7.4308   -2.9943   -3.8677 S   0  0  0  0  0  0  0  0  0  0  0  0
    9.4930   -2.9937   -3.8596 S   0  0  0  0  0  0  0  0  0  0  0  0
   10.1610   -4.1491   -5.4399 S   0  0  0  0  0  0  0  0  0  0  0  0
   12.2512   -4.1441   -5.3823 S   0  0  0  0  0  0  0  0  0  0  0  0
   12.9371   -5.3739   -6.9384 S   0  0  0  0  0  0  0  0  0  0  0  0
   15.0409   -5.3613   -6.9235 S   0  0  0  0  0  0  0  0  0  0  0  0
   15.7293   -6.5965   -8.4857 S   0  0  0  0  0  0  0  0  0  0  0  0
   17.8373   -6.5877   -8.4747 S   0  0  0  0  0  0  0  0  0  0  0  0
   18.5270   -7.8235  -10.0380 S   0  0  0  0  0  0  0  0  0  0  0  0
   20.6361   -7.8152  -10.0274 S   0  0  0  0  0  0  0  0  0  0  0  0
   21.3265   -9.0512  -11.5909 S   0  0  0  0  0  0  0  0  0  0  0  0
   23.4358   -9.0430  -11.5805 S   0  0  0  0  0  0  0  0  0  0  0  0
   24.1264  -10.2790  -13.1441 S   0  0  0  0  0  0  0  0  0  0  0  0
   26.2357  -10.2708  -13.1337 S   0  0  0  0  0  0  0  0  0  0  0  0
   26.9264  -11.5069  -14.6973 S   0  0  0  0  0  0  0  0  0  0  0  0
   29.0357  -11.4987  -14.6869 S   0  0  0  0  0  0  0  0  0  0  0  0
   29.7264  -12.7347  -16.2505 S   0  0  0  0  0  0  0  0  0  0  0  0
   31.8357  -12.7265  -16.2401 S   0  0  0  0  0  0  0  0  0  0  0  0
   32.5264  -13.9626  -17.8037 S   0  0  0  0  0  0  0  0  0  0  0  0
   34.6357  -13.9543  -17.7933 S   0  0  0  0  0  0  0  0  0  0  0  0
   35.3263  -15.1904  -19.3569 S   0  0  0  0  0  0  0  0  0  0  0  0
   37.4357  -15.1822  -19.3465 S   0  0  0  0  0  0  0  0  0  0  0  0
   38.1263  -16.4183  -20.9100 S   0  0  0  0  0  0  0  0  0  0  0  0
   40.2357  -16.4100  -20.8997 S   0  0  0  0  0  0  0  0  0  0  0  0
   40.9263  -17.6461  -22.4632 S   0  0  0  0  0  0  0  0  0  0  0  0
   43.0357  -17.6379  -22.4528 S   0  0  0  0  0  0  0  0  0  0  0  0
   43.7263  -18.8739  -24.0164 S   0  0  0  0  0  0  0  0  0  0  0  0
   45.8357  -18.8657  -24.0060 S   0  0  0  0  0  0  0  0  0  0  0  0
   46.5263  -20.1018  -25.5696 S   0  0  0  0  0  0  0  0  0  0  0  0
   48.6357  -20.0936  -25.5592 S   0  0  0  0  0  0  0  0  0  0  0  0
   49.3263  -21.3296  -27.1228 S   0  0  0  0  0  0  0  0  0  0  0  0
   51.4357  -21.3214  -27.1124 S   0  0  0  0  0  0  0  0  0  0  0  0
   52.1263  -22.5575  -28.6760 S   0  0  0  0  0  0  0  0  0  0  0  0
   54.2357  -22.5493  -28.6656 S   0  0  0  0  0  0  0  0  0  0  0  0
   54.9263  -23.7853  -30.2292 S   0  0  0  0  0  0  0  0  0  0  0  0
   57.0357  -23.7771  -30.2188 S   0  0  0  0  0  0  0  0  0  0  0  0
   57.7263  -25.0132  -31.7824 S   0  0  0  0  0  0  0  0  0  0  0  0
   59.8357  -25.0050  -31.7720 S   0  0  0  0  0  0  0  0  0  0  0  0
   60.5263  -26.2410  -33.3356 S   0  0  0  0  0  0  0  0  0  0  0  0
   62.6356  -26.2328  -33.3252 S   0  0  0  0  0  0  0  0  0  0  0  0
   63.3263  -27.4689  -34.8888 S   0  0  0  0  0  0  0  0  0  0  0  0
   65.4356  -27.4606  -34.8784 S   0  0  0  0  0  0  0  0  0  0  0  0
   66.1263  -28.6967  -36.4420 S   0  0  0  0  0  0  0  0  0  0  0  0
   68.2356  -28.6885  -36.4316 S   0  0  0  0  0  0  0  0  0  0  0  0
   68.9263  -29.9246  -37.9952 S   0  0  0  0  0  0  0  0  0  0  0  0
   71.0356  -29.9163  -37.9848 S   0  0  0  0  0  0  0  0  0  0  0  0
   71.7262  -31.1524  -39.5484 S   0  0  0  0  0  0  0  0  0  0  0  0
   73.8356  -31.1442  -39.5380 S   0  0  0  0  0  0  0  0  0  0  0  0
   74.5262  -32.3802  -41.1015 S   0  0  0  0  0  0  0  0  0  0  0  0
   76.6356  -32.3720  -41.0911 S   0  0  0  0  0  0  0  0  0  0  0  0
   77.3262  -33.6081  -42.6547 S   0  0  0  0  0  0  0  0  0  0  0  0
   79.4356  -33.5999  -42.6443 S   0  0  0  0  0  0  0  0  0  0  0  0
   80.1262  -34.8359  -44.2079 S   0  0  0  0  0  0  0  0  0  0  0  0
   82.2356  -34.8277  -44.1975 S   0  0  0  0  0  0  0  0  0  0  0  0
   82.9262  -36.0638  -45.7611 S   0  0  0  0  0  0  0  0  0  0  0  0
   85.0356  -36.0556  -45.7507 S   0  0  0  0  0  0  0  0  0  0  0  0
   85.7262  -37.2916  -47.3143 S   0  0  0  0  0  0  0  0  0  0  0  0
   87.8356  -37.2834  -47.3039 S   0  0  0  0  0  0  0  0  0  0  0  0
   88.5262  -38.5195  -48.8675 S   0  0  0  0  0  0  0  0  0  0  0  0
   90.6356  -38.5113  -48.8571 S   0  0  0  0  0  0  0  0  0  0  0  0
   91.3262  -39.7473  -50.4207 S   0  0  0  0  0  0  0  0  0  0  0  0
   93.4355  -39.7391  -50.4103 S   0  0  0  0  0  0  0  0  0  0  0  0
   94.1261  -40.9751  -51.9739 S   0  0  0  0  0  0  0  0  0  0  0  0
   96.2354  -40.9669  -51.9634 S   0  0  0  0  0  0  0  0  0  0  0  0
   96.9258  -42.2029  -53.5269 S   0  0  0  0  0  0  0  0  0  0  0  0
   99.0347  -42.1945  -53.5163 S   0  0  0  0  0  0  0  0  0  0  0  0
   99.7243  -43.4301  -55.0794 S   0  0  0  0  0  0  0  0  0  0  0  0
  101.8317  -43.4210  -55.0678 S   0  0  0  0  0  0  0  0  0  0  0  0
  102.5187  -44.6555  -56.6291 S   0  0  0  0  0  0  0  0  0  0  0  0
  104.6207  -44.6425  -56.6138 S   0  0  0  0  0  0  0  0  0  0  0  0
  105.2985  -45.8736  -58.1702 S   0  0  0  0  0  0  0  0  0  0  0  0
  107.3849  -45.8730  -58.1202 S   0  0  0  0  0  0  0  0  0  0  0  0
  108.0568  -47.0195  -59.7160 S   0  0  0  0  0  0  0  0  0  0  0  0
  110.1260  -47.0426  -59.6254 S   0  0  0  0  0  0  0  0  0  0  0  0
  110.7266  -45.1146  -60.0067 S   0  0  0  0  0  0  0  0  0  0  0  0
   10.3235   -5.0901    1.6565 H   0  0  0  0  0  0  0  0  0  0  0  0
    7.0861   -4.2912    1.3507 H   0  0  0  0  0  0  0  0  0  0  0  0
    7.2118   -5.9843    0.7928 H   0  0  0  0  0  0  0  0  0  0  0  0
    7.1829   -3.4813   -0.9674 H   0  0  0  0  0  0  0  0  0  0  0  0
    5.8053   -4.5962   -0.7586 H   0  0  0  0  0  0  0  0  0  0  0  0
    7.1810   -6.4680   -1.7374 H   0  0  0  0  0  0  0  0  0  0  0  0
    8.5485   -5.3661   -1.9637 H   0  0  0  0  0  0  0  0  0  0  0  0
  112.0663  -45.2304  -59.9457 H   0  0  0  0  0  0  0  0  0  0  0  0
  1  2  1  0  0  0  0
  1 82  1  0  0  0  0
  2  3  1  0  0  0  0
  3  4  1  0  0  0  0
  3 83  1  0  0  0  0
  3 84  1  0  0  0  0
  4  5  1  0  0  0  0
  4 85  1  0  0  0  0
  4 86  1  0  0  0  0
  5  6  1  0  0  0  0
  5 87  1  0  0  0  0
  5 88  1  0  0  0  0
  6  7  1  0  0  0  0
  7  8  1  0  0  0  0
  8  9  1  0  0  0  0
  9 10  1  0  0  0  0
 10 11  1  0  0  0  0
 11 12  1  0  0  0  0
 12 13  1  0  0  0  0
 13 14  1  0  0  0  0
 14 15  1  0  0  0  0
 15 16  1  0  0  0  0
 16 17  1  0  0  0  0
 17 18  1  0  0  0  0
 18 19  1  0  0  0  0
 19 20  1  0  0  0  0
 20 21  1  0  0  0  0
 21 22  1  0  0  0  0
 22 23  1  0  0  0  0
 23 24  1  0  0  0  0
 24 25  1  0  0  0  0
 25 26  1  0  0  0  0
 26 27  1  0  0  0  0
 27 28  1  0  0  0  0
 28 29  1  0  0  0  0
 29 30  1  0  0  0  0
 30 31  1  0  0  0  0
 31 32  1  0  0  0  0
 32 33  1  0  0  0  0
 33 34  1  0  0  0  0
 34 35  1  0  0  0  0
 35 36  1  0  0  0  0
 36 37  1  0  0  0  0
 37 38  1  0  0  0  0
 38 39  1  0  0  0  0
 39 40  1  0  0  0  0
 40 41  1  0  0  0  0
 41 42  1  0  0  0  0
 42 43  1  0  0  0  0
 43 44  1  0  0  0  0
 44 45  1  0  0  0  0
 45 46  1  0  0  0  0
 46 47  1  0  0  0  0
 47 48  1  0  0  0  0
 48 49  1  0  0  0  0
 49 50  1  0  0  0  0
 50 51  1  0  0  0  0
 51 52  1  0  0  0  0
 52 53  1  0  0  0  0
 53 54  1  0  0  0  0
 54 55  1  0  0  0  0
 55 56  1  0  0  0  0
 56 57  1  0  0  0  0
 57 58  1  0  0  0  0
 58 59  1  0  0  0  0
 59 60  1  0  0  0  0
 60 61  1  0  0  0  0
 61 62  1  0  0  0  0
 62 63  1  0  0  0  0
 63 64  1  0  0  0  0
 64 65  1  0  0  0  0
 65 66  1  0  0  0  0
 66 67  1  0  0  0  0
 67 68  1  0  0  0  0
 68 69  1  0  0  0  0
 69 70  1  0  0  0  0
 70 71  1  0  0  0  0
 71 72  1  0  0  0  0
 72 73  1  0  0  0  0
 73 74  1  0  0  0  0
 74 75  1  0  0  0  0
 75 76  1  0  0  0  0
 76 77  1  0  0  0  0
 77 78  1  0  0  0  0
 78 79  1  0  0  0  0
 79 80  1  0  0  0  0
 80 81  1  0  0  0  0
 81 89  1  0  0  0  0
M  END
$$$$
