
 OpenBabel04232216513D

 97 97  0  0  1  0  0  0  0  0999 V2000
  115.6988 -112.7115  100.8716 C   0  0  0  0  0  0  0  0  0  0  0  0
  118.4364 -112.3660   99.7111 C   0  0  0  0  0  0  0  0  0  0  0  0
  121.3188 -111.8754   98.3842 C   0  0  3  0  0  0  0  0  0  0  0  0
  118.5896 -111.4853   99.8484 C   0  0  0  0  0  0  0  0  0  0  0  0
  116.3301 -111.2163  101.0118 C   0  0  0  0  0  0  0  0  0  0  0  0
  113.8440 -110.9712  102.1589 C   0  0  0  0  0  0  0  0  0  0  0  0
  111.6846 -110.8308  102.5930 C   0  0  0  0  0  0  0  0  0  0  0  0
  112.7079 -111.6189  102.8177 C   0  0  0  0  0  0  0  0  0  0  0  0
  112.2162 -111.1429  101.1257 C   0  0  0  0  0  0  0  0  0  0  0  0
  113.3303 -111.7944   99.7553 C   0  0  0  0  0  0  0  0  0  0  0  0
  114.4139 -111.0294   99.7329 C   0  0  0  0  0  0  0  0  0  0  0  0
  115.1647 -112.5470   99.1024 C   0  0  0  0  0  0  0  0  0  0  0  0
  116.1804 -111.6251   98.4633 C   0  0  0  0  0  0  0  0  0  0  0  0
  117.7437 -112.2442   97.7413 C   0  0  0  0  0  0  0  0  0  0  0  0
  118.8123 -111.4147   97.3260 C   0  0  0  0  0  0  0  0  0  0  0  0
  119.9646 -112.3249   97.0371 C   0  0  0  0  0  0  0  0  0  0  0  0
  120.6126 -111.1266   96.7592 C   0  0  0  0  0  0  0  0  0  0  0  0
  121.7511 -111.8961   96.4145 C   0  0  0  0  0  0  0  0  0  0  0  0
  122.4232 -111.1787   95.4226 C   0  0  0  0  0  0  0  0  0  0  0  0
  123.3109 -112.0113   94.3166 C   0  0  0  0  0  0  0  0  0  0  0  0
  124.5683 -111.3850   93.9599 C   0  0  0  0  0  0  0  0  0  0  0  0
  125.9036 -111.5055   94.2367 C   0  0  0  0  0  0  0  0  0  0  0  0
  126.8978 -110.8898   93.4807 C   0  0  0  0  0  0  0  0  0  0  0  0
  127.9154 -111.6534   92.7524 C   0  0  0  0  0  0  0  0  0  0  0  0
  128.8776 -110.9455   92.1932 C   0  0  0  0  0  0  0  0  0  0  0  0
  130.2480 -111.5933   91.7352 C   0  0  0  0  0  0  0  0  0  0  0  0
  131.3456 -112.2085   91.4011 C   0  0  0  0  0  0  0  0  0  0  0  0
  132.4401 -111.6593   90.4638 C   0  0  0  0  0  0  0  0  0  0  0  0
  133.3381 -110.7745   89.8594 C   0  0  0  0  0  0  0  0  0  0  0  0
  134.4050 -111.4857   88.8416 C   0  0  0  0  0  0  0  0  0  0  0  0
  135.6316 -110.5583   88.8157 C   0  0  0  0  0  0  0  0  0  0  0  0
  136.9457 -110.9499   88.2128 C   0  0  0  0  0  0  0  0  0  0  0  0
  138.0125 -110.2301   87.7392 C   0  0  0  0  0  0  0  0  0  0  0  0
  139.2027 -110.7102   87.0539 C   0  0  0  0  0  0  0  0  0  0  0  0
  140.3607 -109.9756   86.7819 C   0  0  0  0  0  0  0  0  0  0  0  0
  141.4820 -110.4268   85.8476 C   0  0  0  0  0  0  0  0  0  0  0  0
  142.6508 -109.7957   85.5810 C   0  0  0  0  0  0  0  0  0  0  0  0
  143.4909 -110.4257   84.3907 C   0  0  0  0  0  0  0  0  0  0  0  0
  144.5328 -110.6642   84.9020 C   0  0  0  0  0  0  0  0  0  0  0  0
  142.9872 -111.3047   86.6741 C   0  0  0  0  0  0  0  0  0  0  0  0
  140.9228 -111.4650   88.0074 C   0  0  0  0  0  0  0  0  0  0  0  0
  138.3429 -111.5632   89.4852 C   0  0  0  0  0  0  0  0  0  0  0  0
  135.8820 -111.6465   90.8550 C   0  0  0  0  0  0  0  0  0  0  0  0
  132.9907 -111.5941   92.4403 C   0  0  0  0  0  0  0  0  0  0  0  0
  130.1868 -111.9559   93.7173 C   0  0  0  0  0  0  0  0  0  0  0  0
  127.3423 -111.7130   95.4646 C   0  0  0  0  0  0  0  0  0  0  0  0
  124.5615 -111.7697   96.8120 C   0  0  0  0  0  0  0  0  0  0  0  0
  113.7921 -112.7914  101.6122 H   0  0  0  0  0  0  0  0  0  0  0  0
  113.7720 -112.9651  101.5307 H   0  0  0  0  0  0  0  0  0  0  0  0
  113.7128 -112.7855  101.3605 H   0  0  0  0  0  0  0  0  0  0  0  0
  116.7985 -112.8436  100.5733 H   0  0  0  0  0  0  0  0  0  0  0  0
  116.7073 -112.8173  100.3950 H   0  0  0  0  0  0  0  0  0  0  0  0
  119.5928 -111.8535   98.8717 H   0  0  0  0  0  0  0  0  0  0  0  0
  116.7969 -111.4909  100.3253 H   0  0  0  0  0  0  0  0  0  0  0  0
  114.5277 -111.5691  101.5335 H   0  0  0  0  0  0  0  0  0  0  0  0
  112.0527 -110.7393  103.2923 H   0  0  0  0  0  0  0  0  0  0  0  0
  109.7974 -110.7832  102.4627 H   0  0  0  0  0  0  0  0  0  0  0  0
  112.1014 -111.3418  104.4760 H   0  0  0  0  0  0  0  0  0  0  0  0
  111.3047 -110.6511  101.0796 H   0  0  0  0  0  0  0  0  0  0  0  0
  113.1188 -111.2665   98.7272 H   0  0  0  0  0  0  0  0  0  0  0  0
  113.6535 -110.4475  100.1755 H   0  0  0  0  0  0  0  0  0  0  0  0
  115.1730 -113.8547  100.0385 H   0  0  0  0  0  0  0  0  0  0  0  0
  115.9765 -110.4679   98.9695 H   0  0  0  0  0  0  0  0  0  0  0  0
  118.3787 -111.3931   97.9571 H   0  0  0  0  0  0  0  0  0  0  0  0
  118.1961 -110.1458   97.8473 H   0  0  0  0  0  0  0  0  0  0  0  0
  120.9400 -113.1237   97.7628 H   0  0  0  0  0  0  0  0  0  0  0  0
  120.1236 -110.0211   96.5424 H   0  0  0  0  0  0  0  0  0  0  0  0
  122.6341 -111.9650   96.0040 H   0  0  0  0  0  0  0  0  0  0  0  0
  122.4778 -110.1142   95.5861 H   0  0  0  0  0  0  0  0  0  0  0  0
  122.5813 -113.0662   94.8847 H   0  0  0  0  0  0  0  0  0  0  0  0
  124.6862 -110.2129   94.4319 H   0  0  0  0  0  0  0  0  0  0  0  0
  126.0365 -110.9661   95.4575 H   0  0  0  0  0  0  0  0  0  0  0  0
  126.9038 -109.8386   93.3734 H   0  0  0  0  0  0  0  0  0  0  0  0
  127.7778 -111.9696   91.7205 H   0  0  0  0  0  0  0  0  0  0  0  0
  129.1074 -109.8304   92.2768 H   0  0  0  0  0  0  0  0  0  0  0  0
  130.4848 -112.7780   92.0987 H   0  0  0  0  0  0  0  0  0  0  0  0
  131.3760 -110.9255   91.4036 H   0  0  0  0  0  0  0  0  0  0  0  0
  132.0258 -112.5328   90.0768 H   0  0  0  0  0  0  0  0  0  0  0  0
  133.5637 -109.6520   89.9913 H   0  0  0  0  0  0  0  0  0  0  0  0
  133.3004 -112.1696   88.2842 H   0  0  0  0  0  0  0  0  0  0  0  0
  135.7406 -109.4490   88.8362 H   0  0  0  0  0  0  0  0  0  0  0  0
  137.2404 -111.9433   88.5787 H   0  0  0  0  0  0  0  0  0  0  0  0
  137.9720 -109.2124   87.6721 H   0  0  0  0  0  0  0  0  0  0  0  0
  139.6719 -110.2998   86.2563 H   0  0  0  0  0  0  0  0  0  0  0  0
  140.2730 -108.9400   86.5692 H   0  0  0  0  0  0  0  0  0  0  0  0
  141.7377 -110.1800   84.8954 H   0  0  0  0  0  0  0  0  0  0  0  0
  142.4882 -108.8398   85.4353 H   0  0  0  0  0  0  0  0  0  0  0  0
  143.0003 -110.6888   83.4931 H   0  0  0  0  0  0  0  0  0  0  0  0
  144.7676 -109.1508   84.2554 H   0  0  0  0  0  0  0  0  0  0  0  0
  144.9358 -111.2533   85.9449 H   0  0  0  0  0  0  0  0  0  0  0  0
  142.7193 -111.2889   87.0115 H   0  0  0  0  0  0  0  0  0  0  0  0
  140.0812 -111.6870   88.4277 H   0  0  0  0  0  0  0  0  0  0  0  0
  137.6360 -111.3775   89.9948 H   0  0  0  0  0  0  0  0  0  0  0  0
  134.7023 -111.3600   91.5978 H   0  0  0  0  0  0  0  0  0  0  0  0
  131.9576 -111.2396   92.9426 H   0  0  0  0  0  0  0  0  0  0  0  0
  128.6916 -112.0090   94.4964 H   0  0  0  0  0  0  0  0  0  0  0  0
  123.2663 -110.8955   97.0495 H   0  0  0  0  0  0  0  0  0  0  0  0
  1  2  1  0  0  0  0
  1 48  1  0  0  0  0
  1 49  1  0  0  0  0
  1 50  1  0  0  0  0
  2  3  1  0  0  0  0
  2 51  1  0  0  0  0
  2 52  1  0  0  0  0
  3  4  1  0  0  0  0
  3 47  1  0  0  0  0
  3 53  1  0  0  0  0
  4  5  2  3  0  0  0
  4 54  1  0  0  0  0
  5  6  1  0  0  0  0
  5 55  1  0  0  0  0
  6  7  2  3  0  0  0
  6 56  1  0  0  0  0
  7  8  1  0  0  0  0
  7 57  1  0  0  0  0
  8  9  2  3  0  0  0
  8 58  1  0  0  0  0
  9 10  1  0  0  0  0
  9 59  1  0  0  0  0
 10 11  2  3  0  0  0
 10 60  1  0  0  0  0
 11 12  1  0  0  0  0
 11 61  1  0  0  0  0
 12 13  2  3  0  0  0
 12 62  1  0  0  0  0
 13 14  1  0  0  0  0
 13 63  1  0  0  0  0
 14 15  2  3  0  0  0
 14 64  1  0  0  0  0
 15 16  1  0  0  0  0
 15 65  1  0  0  0  0
 16 17  2  3  0  0  0
 16 66  1  0  0  0  0
 17 18  1  0  0  0  0
 17 67  1  0  0  0  0
 18 19  2  3  0  0  0
 18 68  1  0  0  0  0
 19 20  1  0  0  0  0
 19 69  1  0  0  0  0
 20 21  2  3  0  0  0
 20 70  1  0  0  0  0
 21 22  1  0  0  0  0
 21 71  1  0  0  0  0
 22 23  2  3  0  0  0
 22 72  1  0  0  0  0
 23 24  1  0  0  0  0
 23 73  1  0  0  0  0
 24 25  2  3  0  0  0
 24 74  1  0  0  0  0
 25 26  1  0  0  0  0
 25 75  1  0  0  0  0
 26 27  2  3  0  0  0
 26 76  1  0  0  0  0
 27 28  1  0  0  0  0
 27 77  1  0  0  0  0
 28 29  2  3  0  0  0
 28 78  1  0  0  0  0
 29 30  1  0  0  0  0
 29 79  1  0  0  0  0
 30 31  2  3  0  0  0
 30 80  1  0  0  0  0
 31 32  1  0  0  0  0
 31 81  1  0  0  0  0
 32 33  2  3  0  0  0
 32 82  1  0  0  0  0
 33 34  1  0  0  0  0
 33 83  1  0  0  0  0
 34 35  2  3  0  0  0
 34 84  1  0  0  0  0
 35 36  1  0  0  0  0
 35 85  1  0  0  0  0
 36 37  2  3  0  0  0
 36 86  1  0  0  0  0
 37 38  1  0  0  0  0
 37 87  1  0  0  0  0
 38 39  2  3  0  0  0
 38 88  1  0  0  0  0
 39 40  1  0  0  0  0
 39 89  1  0  0  0  0
 40 41  2  3  0  0  0
 40 90  1  0  0  0  0
 41 42  1  0  0  0  0
 41 91  1  0  0  0  0
 42 43  2  3  0  0  0
 42 92  1  0  0  0  0
 43 44  1  0  0  0  0
 43 93  1  0  0  0  0
 44 45  2  3  0  0  0
 44 94  1  0  0  0  0
 45 46  1  0  0  0  0
 45 95  1  0  0  0  0
 46 47  2  3  0  0  0
 46 96  1  0  0  0  0
 47 97  1  0  0  0  0
M  END
$$$$
