
 OpenBabel04232216413D

223222  0  0  0  0  0  0  0  0999 V2000
    1.4655    0.6460    0.3056 C   0  0  0  0  0  0  0  0  0  0  0  0
    2.3307   -0.2317   -0.2164 C   0  0  0  0  0  0  0  0  0  0  0  0
    3.1082   -1.1933    0.6309 C   0  0  0  0  0  0  0  0  0  0  0  0
    4.5556   -0.9906    0.4636 N   0  0  0  0  0  0  0  0  0  0  0  0
    5.2622   -1.9204    1.2908 N   0  0  0  0  0  0  0  0  0  0  0  0
    6.6572   -1.7273    1.1341 N   0  0  0  0  0  0  0  0  0  0  0  0
    7.3737   -2.6361    1.9426 N   0  0  0  0  0  0  0  0  0  0  0  0
    8.7489   -2.4205    1.7708 N   0  0  0  0  0  0  0  0  0  0  0  0
    9.4673   -3.3368    2.5873 N   0  0  0  0  0  0  0  0  0  0  0  0
   10.8766   -3.1629    2.4427 N   0  0  0  0  0  0  0  0  0  0  0  0
   11.5912   -4.0797    3.2571 N   0  0  0  0  0  0  0  0  0  0  0  0
   12.9856   -3.8780    3.0917 N   0  0  0  0  0  0  0  0  0  0  0  0
   13.7032   -4.7895    3.8987 N   0  0  0  0  0  0  0  0  0  0  0  0
   15.0939   -4.5973    3.7409 N   0  0  0  0  0  0  0  0  0  0  0  0
   15.7983   -5.5107    4.5496 N   0  0  0  0  0  0  0  0  0  0  0  0
   17.1805   -5.3166    4.3895 N   0  0  0  0  0  0  0  0  0  0  0  0
   17.8868   -6.2297    5.1988 N   0  0  0  0  0  0  0  0  0  0  0  0
   19.2707   -6.0325    5.0382 N   0  0  0  0  0  0  0  0  0  0  0  0
   19.9866   -6.9445    5.8467 N   0  0  0  0  0  0  0  0  0  0  0  0
   21.3748   -6.7320    5.6691 N   0  0  0  0  0  0  0  0  0  0  0  0
   22.1014   -7.6860    6.5150 C   0  0  0  0  0  0  0  0  0  0  0  0
   23.6059   -7.4814    6.3488 C   0  0  0  0  0  0  0  0  0  0  0  0
   24.3782   -8.4650    7.2195 C   0  0  0  0  0  0  0  0  0  0  0  0
   25.8741   -8.2589    7.0490 C   0  0  0  0  0  0  0  0  0  0  0  0
   26.6393   -9.2405    7.9179 C   0  0  0  0  0  0  0  0  0  0  0  0
   28.1320   -9.0333    7.7436 C   0  0  0  0  0  0  0  0  0  0  0  0
   28.8955  -10.0144    8.6121 C   0  0  0  0  0  0  0  0  0  0  0  0
   30.3873   -9.8067    8.4374 C   0  0  0  0  0  0  0  0  0  0  0  0
   31.1503  -10.7877    9.3057 C   0  0  0  0  0  0  0  0  0  0  0  0
   32.6419  -10.5799    9.1310 C   0  0  0  0  0  0  0  0  0  0  0  0
   33.4047  -11.5610    9.9993 C   0  0  0  0  0  0  0  0  0  0  0  0
   34.8963  -11.3531    9.8245 C   0  0  0  0  0  0  0  0  0  0  0  0
   35.6591  -12.3355   10.6914 C   0  0  0  0  0  0  0  0  0  0  0  0
   37.1507  -12.1276   10.5166 C   0  0  0  0  0  0  0  0  0  0  0  0
   37.9135  -13.1100   11.3834 C   0  0  0  0  0  0  0  0  0  0  0  0
   39.4051  -12.9021   11.2086 C   0  0  0  0  0  0  0  0  0  0  0  0
   40.1679  -13.8858   12.0739 C   0  0  0  0  0  0  0  0  0  0  0  0
   41.6595  -13.6793   11.8976 C   0  0  0  0  0  0  0  0  0  0  0  0
   42.4223  -14.6617   12.7644 C   0  0  0  0  0  0  0  0  0  0  0  0
   43.9139  -14.4565   12.5866 C   0  0  0  0  0  0  0  0  0  0  0  0
   44.6767  -15.4402   13.4519 C   0  0  0  0  0  0  0  0  0  0  0  0
   46.1683  -15.2363   13.2726 C   0  0  0  0  0  0  0  0  0  0  0  0
   46.9311  -16.2200   14.1379 C   0  0  0  0  0  0  0  0  0  0  0  0
   48.4227  -16.0161   13.9586 C   0  0  0  0  0  0  0  0  0  0  0  0
   49.1856  -16.9998   14.8239 C   0  0  0  0  0  0  0  0  0  0  0  0
   50.6771  -16.7959   14.6445 C   0  0  0  0  0  0  0  0  0  0  0  0
   51.4400  -17.7796   15.5098 C   0  0  0  0  0  0  0  0  0  0  0  0
   52.9315  -17.5745   15.3320 C   0  0  0  0  0  0  0  0  0  0  0  0
   53.6944  -18.5595   16.1958 C   0  0  0  0  0  0  0  0  0  0  0  0
   55.1859  -18.3556   16.0165 C   0  0  0  0  0  0  0  0  0  0  0  0
   55.9488  -19.3406   16.8803 C   0  0  0  0  0  0  0  0  0  0  0  0
   57.4403  -19.1381   16.6994 C   0  0  0  0  0  0  0  0  0  0  0  0
   58.2032  -20.1218   17.5647 C   0  0  0  0  0  0  0  0  0  0  0  0
   59.6947  -19.9206   17.3824 C   0  0  0  0  0  0  0  0  0  0  0  0
   60.4576  -20.9056   18.2462 C   0  0  0  0  0  0  0  0  0  0  0  0
   61.9491  -20.7031   18.0653 C   0  0  0  0  0  0  0  0  0  0  0  0
   62.7120  -21.6868   18.9306 C   0  0  0  0  0  0  0  0  0  0  0  0
   64.2035  -21.4842   18.7498 C   0  0  0  0  0  0  0  0  0  0  0  0
   64.9664  -22.4693   19.6136 C   0  0  0  0  0  0  0  0  0  0  0  0
   66.4579  -22.2667   19.4327 C   0  0  0  0  0  0  0  0  0  0  0  0
   67.2208  -23.2517   20.2965 C   0  0  0  0  0  0  0  0  0  0  0  0
   68.7123  -23.0492   20.1157 C   0  0  0  0  0  0  0  0  0  0  0  0
   69.4752  -24.0342   20.9795 C   0  0  0  0  0  0  0  0  0  0  0  0
   70.9667  -23.8317   20.7986 C   0  0  0  0  0  0  0  0  0  0  0  0
   71.7296  -24.8167   21.6624 C   0  0  0  0  0  0  0  0  0  0  0  0
   73.2211  -24.6142   21.4816 C   0  0  0  0  0  0  0  0  0  0  0  0
   73.9840  -25.5992   22.3454 C   0  0  0  0  0  0  0  0  0  0  0  0
   75.4756  -25.3967   22.1645 C   0  0  0  0  0  0  0  0  0  0  0  0
   76.2384  -26.3804   23.0298 C   0  0  0  0  0  0  0  0  0  0  0  0
   77.7300  -26.1778   22.8490 C   0  0  0  0  0  0  0  0  0  0  0  0
   78.4928  -27.1615   23.7143 C   0  0  0  0  0  0  0  0  0  0  0  0
   79.9844  -26.9590   23.5334 C   0  0  0  0  0  0  0  0  0  0  0  0
   80.7473  -27.9427   24.3988 C   0  0  0  0  0  0  0  0  0  0  0  0
   82.2388  -27.7402   24.2179 C   0  0  0  0  0  0  0  0  0  0  0  0
   83.0018  -28.7226   25.0848 C   0  0  0  0  0  0  0  0  0  0  0  0
   84.4938  -28.5204   24.9042 C   0  0  0  0  0  0  0  0  0  0  0  0
   85.2572  -29.5033   25.7715 C   0  0  0  0  0  0  0  0  0  0  0  0
   86.7502  -29.3035   25.5904 C   0  0  0  0  0  0  0  0  0  0  0  0
   87.5192  -30.2873   26.4558 C   0  0  0  0  0  0  0  0  0  0  0  0
   89.0079  -30.0849   26.2724 C   0  0  0  0  0  0  0  0  0  0  0  0
    0.9299    1.3311   -0.3359 H   0  0  0  0  0  0  0  0  0  0  0  0
    1.3043    0.6972    1.3786 H   0  0  0  0  0  0  0  0  0  0  0  0
    2.4753   -0.2521   -1.2950 H   0  0  0  0  0  0  0  0  0  0  0  0
    2.8492   -2.2164    0.3320 H   0  0  0  0  0  0  0  0  0  0  0  0
    2.8299   -1.0646    1.6852 H   0  0  0  0  0  0  0  0  0  0  0  0
    4.7955   -0.0471    0.7709 H   0  0  0  0  0  0  0  0  0  0  0  0
    5.0512   -2.8789    1.0096 H   0  0  0  0  0  0  0  0  0  0  0  0
    6.9141   -0.7778    1.4038 H   0  0  0  0  0  0  0  0  0  0  0  0
    7.1570   -3.5922    1.6700 H   0  0  0  0  0  0  0  0  0  0  0  0
    8.9510   -1.4591    2.0371 H   0  0  0  0  0  0  0  0  0  0  0  0
    9.1778   -4.2796    2.3049 H   0  0  0  0  0  0  0  0  0  0  0  0
   11.1577   -2.2193    2.7240 H   0  0  0  0  0  0  0  0  0  0  0  0
   11.3944   -5.0430    2.9895 H   0  0  0  0  0  0  0  0  0  0  0  0
   13.2199   -2.9275    3.3675 H   0  0  0  0  0  0  0  0  0  0  0  0
   13.4761   -5.7378    3.6085 H   0  0  0  0  0  0  0  0  0  0  0  0
   15.3395   -3.6556    4.0333 H   0  0  0  0  0  0  0  0  0  0  0  0
   15.5595   -6.4583    4.2643 H   0  0  0  0  0  0  0  0  0  0  0  0
   17.4327   -4.3692    4.6633 H   0  0  0  0  0  0  0  0  0  0  0  0
   17.6739   -7.1819    4.9145 H   0  0  0  0  0  0  0  0  0  0  0  0
   19.4916   -5.0763    5.3037 H   0  0  0  0  0  0  0  0  0  0  0  0
   19.7341   -7.8984    5.5646 H   0  0  0  0  0  0  0  0  0  0  0  0
   21.6539   -5.7904    5.9535 H   0  0  0  0  0  0  0  0  0  0  0  0
   21.8554   -8.7195    6.2403 H   0  0  0  0  0  0  0  0  0  0  0  0
   21.8408   -7.5424    7.5719 H   0  0  0  0  0  0  0  0  0  0  0  0
   23.8831   -6.4576    6.6300 H   0  0  0  0  0  0  0  0  0  0  0  0
   23.8927   -7.6255    5.2996 H   0  0  0  0  0  0  0  0  0  0  0  0
   24.1163   -9.4941    6.9450 H   0  0  0  0  0  0  0  0  0  0  0  0
   24.1068   -8.3258    8.2732 H   0  0  0  0  0  0  0  0  0  0  0  0
   26.1433   -7.2325    7.3264 H   0  0  0  0  0  0  0  0  0  0  0  0
   26.1528   -8.4011    5.9978 H   0  0  0  0  0  0  0  0  0  0  0  0
   26.3732  -10.2684    7.6426 H   0  0  0  0  0  0  0  0  0  0  0  0
   26.3658   -9.0988    8.9705 H   0  0  0  0  0  0  0  0  0  0  0  0
   28.4002   -8.0062    8.0195 H   0  0  0  0  0  0  0  0  0  0  0  0
   28.4076   -9.1758    6.6917 H   0  0  0  0  0  0  0  0  0  0  0  0
   28.6283  -11.0418    8.3365 H   0  0  0  0  0  0  0  0  0  0  0  0
   28.6210   -9.8722    9.6644 H   0  0  0  0  0  0  0  0  0  0  0  0
   30.6550   -8.7794    8.7131 H   0  0  0  0  0  0  0  0  0  0  0  0
   30.6623   -9.9490    7.3852 H   0  0  0  0  0  0  0  0  0  0  0  0
   30.8828  -11.8151    9.0301 H   0  0  0  0  0  0  0  0  0  0  0  0
   30.8755  -10.6455   10.3580 H   0  0  0  0  0  0  0  0  0  0  0  0
   32.9094   -9.5526    9.4067 H   0  0  0  0  0  0  0  0  0  0  0  0
   32.9168  -10.7222    8.0788 H   0  0  0  0  0  0  0  0  0  0  0  0
   33.1372  -12.5883    9.7236 H   0  0  0  0  0  0  0  0  0  0  0  0
   33.1299  -11.4187   11.0515 H   0  0  0  0  0  0  0  0  0  0  0  0
   35.1640  -10.3262   10.1016 H   0  0  0  0  0  0  0  0  0  0  0  0
   35.1710  -11.4940    8.7721 H   0  0  0  0  0  0  0  0  0  0  0  0
   35.3914  -13.3624   10.4143 H   0  0  0  0  0  0  0  0  0  0  0  0
   35.3845  -12.1946   11.7438 H   0  0  0  0  0  0  0  0  0  0  0  0
   37.4184  -11.1007   10.7937 H   0  0  0  0  0  0  0  0  0  0  0  0
   37.4253  -12.2685    9.4641 H   0  0  0  0  0  0  0  0  0  0  0  0
   37.6458  -14.1369   11.1063 H   0  0  0  0  0  0  0  0  0  0  0  0
   37.6389  -12.9691   12.4358 H   0  0  0  0  0  0  0  0  0  0  0  0
   39.6730  -11.8757   11.4871 H   0  0  0  0  0  0  0  0  0  0  0  0
   39.6795  -13.0416   10.1559 H   0  0  0  0  0  0  0  0  0  0  0  0
   39.8989  -14.9123   11.7964 H   0  0  0  0  0  0  0  0  0  0  0  0
   39.8945  -13.7454   13.1268 H   0  0  0  0  0  0  0  0  0  0  0  0
   41.9283  -12.6524   12.1737 H   0  0  0  0  0  0  0  0  0  0  0  0
   41.9330  -13.8211   10.8450 H   0  0  0  0  0  0  0  0  0  0  0  0
   42.1524  -15.6885   12.4893 H   0  0  0  0  0  0  0  0  0  0  0  0
   42.1498  -14.5188   13.8172 H   0  0  0  0  0  0  0  0  0  0  0  0
   44.1840  -13.4300   12.8631 H   0  0  0  0  0  0  0  0  0  0  0  0
   44.1861  -14.5979   11.5336 H   0  0  0  0  0  0  0  0  0  0  0  0
   44.4056  -16.4666   13.1764 H   0  0  0  0  0  0  0  0  0  0  0  0
   44.4055  -15.2978   14.5051 H   0  0  0  0  0  0  0  0  0  0  0  0
   46.4395  -14.2099   13.5481 H   0  0  0  0  0  0  0  0  0  0  0  0
   46.4395  -15.3787   12.2194 H   0  0  0  0  0  0  0  0  0  0  0  0
   46.6599  -17.2464   13.8624 H   0  0  0  0  0  0  0  0  0  0  0  0
   46.6599  -16.0776   15.1910 H   0  0  0  0  0  0  0  0  0  0  0  0
   48.6939  -14.9897   14.2341 H   0  0  0  0  0  0  0  0  0  0  0  0
   48.6939  -16.1585   12.9054 H   0  0  0  0  0  0  0  0  0  0  0  0
   48.9144  -18.0262   14.5483 H   0  0  0  0  0  0  0  0  0  0  0  0
   48.9143  -16.8574   15.8770 H   0  0  0  0  0  0  0  0  0  0  0  0
   50.9483  -15.7696   14.9201 H   0  0  0  0  0  0  0  0  0  0  0  0
   50.9483  -16.9383   13.5914 H   0  0  0  0  0  0  0  0  0  0  0  0
   51.1698  -18.8060   15.2333 H   0  0  0  0  0  0  0  0  0  0  0  0
   51.1677  -17.6382   16.5629 H   0  0  0  0  0  0  0  0  0  0  0  0
   53.2018  -16.5485   15.6099 H   0  0  0  0  0  0  0  0  0  0  0  0
   53.2035  -17.7145   14.2788 H   0  0  0  0  0  0  0  0  0  0  0  0
   53.4230  -19.5854   15.9189 H   0  0  0  0  0  0  0  0  0  0  0  0
   53.4234  -18.4185   17.2492 H   0  0  0  0  0  0  0  0  0  0  0  0
   55.4573  -17.3297   16.2934 H   0  0  0  0  0  0  0  0  0  0  0  0
   55.4569  -18.4966   14.9631 H   0  0  0  0  0  0  0  0  0  0  0  0
   55.6763  -20.3666   16.6044 H   0  0  0  0  0  0  0  0  0  0  0  0
   55.6789  -19.1987   17.9338 H   0  0  0  0  0  0  0  0  0  0  0  0
   57.7126  -18.1117   16.9740 H   0  0  0  0  0  0  0  0  0  0  0  0
   57.7104  -19.2814   15.6461 H   0  0  0  0  0  0  0  0  0  0  0  0
   57.9298  -21.1481   17.2912 H   0  0  0  0  0  0  0  0  0  0  0  0
   57.9341  -19.9775   18.6182 H   0  0  0  0  0  0  0  0  0  0  0  0
   59.9683  -18.8947   17.6573 H   0  0  0  0  0  0  0  0  0  0  0  0
   59.9636  -20.0635   16.3287 H   0  0  0  0  0  0  0  0  0  0  0  0
   60.1851  -21.9315   17.9703 H   0  0  0  0  0  0  0  0  0  0  0  0
   60.1877  -20.7637   19.2997 H   0  0  0  0  0  0  0  0  0  0  0  0
   62.2214  -19.6767   18.3399 H   0  0  0  0  0  0  0  0  0  0  0  0
   62.2192  -20.8464   17.0120 H   0  0  0  0  0  0  0  0  0  0  0  0
   62.4397  -22.7131   18.6561 H   0  0  0  0  0  0  0  0  0  0  0  0
   62.4419  -21.5434   19.9839 H   0  0  0  0  0  0  0  0  0  0  0  0
   64.4760  -20.4583   19.0257 H   0  0  0  0  0  0  0  0  0  0  0  0
   64.4734  -21.6262   17.6962 H   0  0  0  0  0  0  0  0  0  0  0  0
   64.6939  -23.4952   19.3377 H   0  0  0  0  0  0  0  0  0  0  0  0
   64.6965  -22.3273   20.6671 H   0  0  0  0  0  0  0  0  0  0  0  0
   66.7304  -21.2408   19.7087 H   0  0  0  0  0  0  0  0  0  0  0  0
   66.7278  -22.4086   18.3792 H   0  0  0  0  0  0  0  0  0  0  0  0
   66.9483  -24.2777   20.0206 H   0  0  0  0  0  0  0  0  0  0  0  0
   66.9509  -23.1098   21.3501 H   0  0  0  0  0  0  0  0  0  0  0  0
   68.9848  -22.0233   20.3916 H   0  0  0  0  0  0  0  0  0  0  0  0
   68.9822  -23.1911   19.0621 H   0  0  0  0  0  0  0  0  0  0  0  0
   69.2027  -25.0602   20.7035 H   0  0  0  0  0  0  0  0  0  0  0  0
   69.2053  -23.8923   22.0330 H   0  0  0  0  0  0  0  0  0  0  0  0
   71.2392  -22.8058   21.0746 H   0  0  0  0  0  0  0  0  0  0  0  0
   71.2366  -23.9736   19.7451 H   0  0  0  0  0  0  0  0  0  0  0  0
   71.4571  -25.8427   21.3865 H   0  0  0  0  0  0  0  0  0  0  0  0
   71.4597  -24.6748   22.7160 H   0  0  0  0  0  0  0  0  0  0  0  0
   73.4936  -23.5883   21.7575 H   0  0  0  0  0  0  0  0  0  0  0  0
   73.4910  -24.7561   20.4280 H   0  0  0  0  0  0  0  0  0  0  0  0
   73.7115  -26.6252   22.0694 H   0  0  0  0  0  0  0  0  0  0  0  0
   73.7141  -25.4573   23.3989 H   0  0  0  0  0  0  0  0  0  0  0  0
   75.7478  -24.3703   22.4391 H   0  0  0  0  0  0  0  0  0  0  0  0
   75.7457  -25.5400   21.1112 H   0  0  0  0  0  0  0  0  0  0  0  0
   75.9661  -27.4067   22.7553 H   0  0  0  0  0  0  0  0  0  0  0  0
   75.9683  -26.2370   24.0831 H   0  0  0  0  0  0  0  0  0  0  0  0
   78.0022  -25.1515   23.1235 H   0  0  0  0  0  0  0  0  0  0  0  0
   78.0001  -26.3212   21.7957 H   0  0  0  0  0  0  0  0  0  0  0  0
   78.2206  -28.1879   23.4397 H   0  0  0  0  0  0  0  0  0  0  0  0
   78.2227  -27.0182   24.7676 H   0  0  0  0  0  0  0  0  0  0  0  0
   80.2566  -25.9326   23.8080 H   0  0  0  0  0  0  0  0  0  0  0  0
   80.2545  -27.1023   22.4802 H   0  0  0  0  0  0  0  0  0  0  0  0
   80.4750  -28.9691   24.1242 H   0  0  0  0  0  0  0  0  0  0  0  0
   80.4771  -27.7993   25.4520 H   0  0  0  0  0  0  0  0  0  0  0  0
   82.5109  -26.7134   24.4911 H   0  0  0  0  0  0  0  0  0  0  0  0
   82.5091  -27.8849   23.1649 H   0  0  0  0  0  0  0  0  0  0  0  0
   82.7296  -29.7493   24.8116 H   0  0  0  0  0  0  0  0  0  0  0  0
   82.7313  -28.5778   26.1378 H   0  0  0  0  0  0  0  0  0  0  0  0
   84.7654  -27.4934   25.1772 H   0  0  0  0  0  0  0  0  0  0  0  0
   84.7637  -28.6649   23.8510 H   0  0  0  0  0  0  0  0  0  0  0  0
   84.9831  -30.5295   25.4988 H   0  0  0  0  0  0  0  0  0  0  0  0
   84.9870  -29.3569   26.8243 H   0  0  0  0  0  0  0  0  0  0  0  0
   87.0215  -28.2759   25.8625 H   0  0  0  0  0  0  0  0  0  0  0  0
   87.0172  -29.4462   24.5359 H   0  0  0  0  0  0  0  0  0  0  0  0
   87.2493  -31.3139   26.1823 H   0  0  0  0  0  0  0  0  0  0  0  0
   87.2536  -30.1431   27.5095 H   0  0  0  0  0  0  0  0  0  0  0  0
   89.2895  -30.2424   25.2264 H   0  0  0  0  0  0  0  0  0  0  0  0
   89.5632  -30.7912   26.8937 H   0  0  0  0  0  0  0  0  0  0  0  0
   89.2938  -29.0676   26.5581 H   0  0  0  0  0  0  0  0  0  0  0  0
  1  2  2  0  0  0  0
  1 81  1  0  0  0  0
  1 82  1  0  0  0  0
  2  3  1  0  0  0  0
  2 83  1  0  0  0  0
  3  4  1  0  0  0  0
  3 84  1  0  0  0  0
  3 85  1  0  0  0  0
  4  5  1  0  0  0  0
  4 86  1  0  0  0  0
  5  6  1  0  0  0  0
  5 87  1  0  0  0  0
  6  7  1  0  0  0  0
  6 88  1  0  0  0  0
  7  8  1  0  0  0  0
  7 89  1  0  0  0  0
  8  9  1  0  0  0  0
  8 90  1  0  0  0  0
  9 10  1  0  0  0  0
  9 91  1  0  0  0  0
 10 11  1  0  0  0  0
 10 92  1  0  0  0  0
 11 12  1  0  0  0  0
 11 93  1  0  0  0  0
 12 13  1  0  0  0  0
 12 94  1  0  0  0  0
 13 14  1  0  0  0  0
 13 95  1  0  0  0  0
 14 15  1  0  0  0  0
 14 96  1  0  0  0  0
 15 16  1  0  0  0  0
 15 97  1  0  0  0  0
 16 17  1  0  0  0  0
 16 98  1  0  0  0  0
 17 18  1  0  0  0  0
 17 99  1  0  0  0  0
 18 19  1  0  0  0  0
 18100  1  0  0  0  0
 19 20  1  0  0  0  0
 19101  1  0  0  0  0
 20 21  1  0  0  0  0
 20102  1  0  0  0  0
 21 22  1  0  0  0  0
 21103  1  0  0  0  0
 21104  1  0  0  0  0
 22 23  1  0  0  0  0
 22105  1  0  0  0  0
 22106  1  0  0  0  0
 23 24  1  0  0  0  0
 23107  1  0  0  0  0
 23108  1  0  0  0  0
 24 25  1  0  0  0  0
 24109  1  0  0  0  0
 24110  1  0  0  0  0
 25 26  1  0  0  0  0
 25111  1  0  0  0  0
 25112  1  0  0  0  0
 26 27  1  0  0  0  0
 26113  1  0  0  0  0
 26114  1  0  0  0  0
 27 28  1  0  0  0  0
 27115  1  0  0  0  0
 27116  1  0  0  0  0
 28 29  1  0  0  0  0
 28117  1  0  0  0  0
 28118  1  0  0  0  0
 29 30  1  0  0  0  0
 29119  1  0  0  0  0
 29120  1  0  0  0  0
 30 31  1  0  0  0  0
 30121  1  0  0  0  0
 30122  1  0  0  0  0
 31 32  1  0  0  0  0
 31123  1  0  0  0  0
 31124  1  0  0  0  0
 32 33  1  0  0  0  0
 32125  1  0  0  0  0
 32126  1  0  0  0  0
 33 34  1  0  0  0  0
 33127  1  0  0  0  0
 33128  1  0  0  0  0
 34 35  1  0  0  0  0
 34129  1  0  0  0  0
 34130  1  0  0  0  0
 35 36  1  0  0  0  0
 35131  1  0  0  0  0
 35132  1  0  0  0  0
 36 37  1  0  0  0  0
 36133  1  0  0  0  0
 36134  1  0  0  0  0
 37 38  1  0  0  0  0
 37135  1  0  0  0  0
 37136  1  0  0  0  0
 38 39  1  0  0  0  0
 38137  1  0  0  0  0
 38138  1  0  0  0  0
 39 40  1  0  0  0  0
 39139  1  0  0  0  0
 39140  1  0  0  0  0
 40 41  1  0  0  0  0
 40141  1  0  0  0  0
 40142  1  0  0  0  0
 41 42  1  0  0  0  0
 41143  1  0  0  0  0
 41144  1  0  0  0  0
 42 43  1  0  0  0  0
 42145  1  0  0  0  0
 42146  1  0  0  0  0
 43 44  1  0  0  0  0
 43147  1  0  0  0  0
 43148  1  0  0  0  0
 44 45  1  0  0  0  0
 44149  1  0  0  0  0
 44150  1  0  0  0  0
 45 46  1  0  0  0  0
 45151  1  0  0  0  0
 45152  1  0  0  0  0
 46 47  1  0  0  0  0
 46153  1  0  0  0  0
 46154  1  0  0  0  0
 47 48  1  0  0  0  0
 47155  1  0  0  0  0
 47156  1  0  0  0  0
 48 49  1  0  0  0  0
 48157  1  0  0  0  0
 48158  1  0  0  0  0
 49 50  1  0  0  0  0
 49159  1  0  0  0  0
 49160  1  0  0  0  0
 50 51  1  0  0  0  0
 50161  1  0  0  0  0
 50162  1  0  0  0  0
 51 52  1  0  0  0  0
 51163  1  0  0  0  0
 51164  1  0  0  0  0
 52 53  1  0  0  0  0
 52165  1  0  0  0  0
 52166  1  0  0  0  0
 53 54  1  0  0  0  0
 53167  1  0  0  0  0
 53168  1  0  0  0  0
 54 55  1  0  0  0  0
 54169  1  0  0  0  0
 54170  1  0  0  0  0
 55 56  1  0  0  0  0
 55171  1  0  0  0  0
 55172  1  0  0  0  0
 56 57  1  0  0  0  0
 56173  1  0  0  0  0
 56174  1  0  0  0  0
 57 58  1  0  0  0  0
 57175  1  0  0  0  0
 57176  1  0  0  0  0
 58 59  1  0  0  0  0
 58177  1  0  0  0  0
 58178  1  0  0  0  0
 59 60  1  0  0  0  0
 59179  1  0  0  0  0
 59180  1  0  0  0  0
 60 61  1  0  0  0  0
 60181  1  0  0  0  0
 60182  1  0  0  0  0
 61 62  1  0  0  0  0
 61183  1  0  0  0  0
 61184  1  0  0  0  0
 62 63  1  0  0  0  0
 62185  1  0  0  0  0
 62186  1  0  0  0  0
 63 64  1  0  0  0  0
 63187  1  0  0  0  0
 63188  1  0  0  0  0
 64 65  1  0  0  0  0
 64189  1  0  0  0  0
 64190  1  0  0  0  0
 65 66  1  0  0  0  0
 65191  1  0  0  0  0
 65192  1  0  0  0  0
 66 67  1  0  0  0  0
 66193  1  0  0  0  0
 66194  1  0  0  0  0
 67 68  1  0  0  0  0
 67195  1  0  0  0  0
 67196  1  0  0  0  0
 68 69  1  0  0  0  0
 68197  1  0  0  0  0
 68198  1  0  0  0  0
 69 70  1  0  0  0  0
 69199  1  0  0  0  0
 69200  1  0  0  0  0
 70 71  1  0  0  0  0
 70201  1  0  0  0  0
 70202  1  0  0  0  0
 71 72  1  0  0  0  0
 71203  1  0  0  0  0
 71204  1  0  0  0  0
 72 73  1  0  0  0  0
 72205  1  0  0  0  0
 72206  1  0  0  0  0
 73 74  1  0  0  0  0
 73207  1  0  0  0  0
 73208  1  0  0  0  0
 74 75  1  0  0  0  0
 74209  1  0  0  0  0
 74210  1  0  0  0  0
 75 76  1  0  0  0  0
 75211  1  0  0  0  0
 75212  1  0  0  0  0
 76 77  1  0  0  0  0
 76213  1  0  0  0  0
 76214  1  0  0  0  0
 77 78  1  0  0  0  0
 77215  1  0  0  0  0
 77216  1  0  0  0  0
 78 79  1  0  0  0  0
 78217  1  0  0  0  0
 78218  1  0  0  0  0
 79 80  1  0  0  0  0
 79219  1  0  0  0  0
 79220  1  0  0  0  0
 80221  1  0  0  0  0
 80222  1  0  0  0  0
 80223  1  0  0  0  0
M  END
$$$$
