
 OpenBabel04232216573D

140139  0  0  0  0  0  0  0  0999 V2000
   21.1332  -16.8125  -15.2719 N   0  0  0  0  0  0  0  0  0  0  0  0
   20.8057  -15.4996  -15.1408 C   0  0  0  0  0  0  0  0  0  0  0  0
   21.6399  -14.4782  -15.3281 C   0  0  0  0  0  0  0  0  0  0  0  0
   21.1985  -13.0625  -15.1791 C   0  0  0  0  0  0  0  0  0  0  0  0
   21.3166  -12.3309  -16.4688 N   0  0  0  0  0  0  0  0  0  0  0  0
   20.8733  -11.0011  -16.2515 N   0  0  0  0  0  0  0  0  0  0  0  0
   21.0705  -10.2360  -17.4440 N   0  0  0  0  0  0  0  0  0  0  0  0
   20.5971   -8.8931  -17.2744 N   0  0  0  0  0  0  0  0  0  0  0  0
   21.4133   -8.1681  -16.3470 N   0  0  0  0  0  0  0  0  0  0  0  0
   22.7867   -8.2284  -16.7595 N   0  0  0  0  0  0  0  0  0  0  0  0
   22.9204   -7.5430  -18.0117 N   0  0  0  0  0  0  0  0  0  0  0  0
   22.4234   -6.2015  -17.8388 N   0  0  0  0  0  0  0  0  0  0  0  0
   23.2058   -5.5821  -16.8015 N   0  0  0  0  0  0  0  0  0  0  0  0
   24.6016   -5.7340  -17.1879 N   0  0  0  0  0  0  0  0  0  0  0  0
   24.7365   -5.1235  -18.5170 N   0  0  0  0  0  0  0  0  0  0  0  0
   24.2140   -3.7527  -18.4369 N   0  0  0  0  0  0  0  0  0  0  0  0
   24.9575   -3.0154  -17.4233 N   0  0  0  0  0  0  0  0  0  0  0  0
   26.3477   -2.9225  -17.7660 N   0  0  0  0  0  0  0  0  0  0  0  0
   26.5463   -2.2380  -18.9916 N   0  0  0  0  0  0  0  0  0  0  0  0
   26.0753   -0.9054  -18.8901 N   0  0  0  0  0  0  0  0  0  0  0  0
   26.8075   -0.2086  -17.8755 N   0  0  0  0  0  0  0  0  0  0  0  0
   28.2097   -0.1725  -18.1886 N   0  0  0  0  0  0  0  0  0  0  0  0
   28.4649    0.4958  -19.4364 N   0  0  0  0  0  0  0  0  0  0  0  0
   28.0393    1.8613  -19.4849 N   0  0  0  0  0  0  0  0  0  0  0  0
   28.7005    2.7376  -18.5980 N   0  0  0  0  0  0  0  0  0  0  0  0
   30.0873    2.8150  -18.8356 N   0  0  0  0  0  0  0  0  0  0  0  0
   30.3243    3.3509  -20.1313 N   0  0  0  0  0  0  0  0  0  0  0  0
   29.7783    4.6830  -20.2462 N   0  0  0  0  0  0  0  0  0  0  0  0
   30.3361    5.5751  -19.2591 N   0  0  0  0  0  0  0  0  0  0  0  0
   31.7520    5.7798  -19.4061 N   0  0  0  0  0  0  0  0  0  0  0  0
   32.1193    6.3169  -20.6612 N   0  0  0  0  0  0  0  0  0  0  0  0
   31.5671    7.6111  -20.8459 N   0  0  0  0  0  0  0  0  0  0  0  0
   32.0804    8.5147  -19.8859 N   0  0  0  0  0  0  0  0  0  0  0  0
   33.4898    8.4980  -19.9886 N   0  0  0  0  0  0  0  0  0  0  0  0
   33.9053    9.1105  -21.2054 N   0  0  0  0  0  0  0  0  0  0  0  0
   35.5446    9.2830  -21.2082 S   0  0  0  0  0  0  0  0  0  0  0  0
   36.1453    7.7883  -20.8499 N   0  0  0  0  0  0  0  0  0  0  0  0
   35.8081    6.6044  -21.9410 S   0  0  0  0  0  0  0  0  0  0  0  0
   36.2814    7.1836  -23.4152 N   0  0  0  0  0  0  0  0  0  0  0  0
   36.0482    6.0581  -24.5930 S   0  0  0  0  0  0  0  0  0  0  0  0
   34.4189    6.0178  -24.7964 N   0  0  0  0  0  0  0  0  0  0  0  0
   34.0167    4.8592  -25.8909 S   0  0  0  0  0  0  0  0  0  0  0  0
   32.3718    4.7935  -25.9357 N   0  0  0  0  0  0  0  0  0  0  0  0
   31.6849    4.2663  -24.5205 S   0  0  0  0  0  0  0  0  0  0  0  0
   31.8045    5.4789  -23.3899 N   0  0  0  0  0  0  0  0  0  0  0  0
   31.3165    6.9479  -23.9666 S   0  0  0  0  0  0  0  0  0  0  0  0
   29.6807    6.9759  -23.8120 N   0  0  0  0  0  0  0  0  0  0  0  0
   29.0649    8.5092  -23.9425 S   0  0  0  0  0  0  0  0  0  0  0  0
   29.7670    9.1884  -25.2802 N   0  0  0  0  0  0  0  0  0  0  0  0
   29.1387   10.6614  -25.6817 S   0  0  0  0  0  0  0  0  0  0  0  0
   29.4893   11.7068  -24.4520 N   0  0  0  0  0  0  0  0  0  0  0  0
   31.0602   12.2065  -24.4583 S   0  0  0  0  0  0  0  0  0  0  0  0
   31.2376   13.0921  -23.0709 N   0  0  0  0  0  0  0  0  0  0  0  0
   30.7807   14.6824  -23.2256 S   0  0  0  0  0  0  0  0  0  0  0  0
   29.1412   14.7913  -23.4640 N   0  0  0  0  0  0  0  0  0  0  0  0
   28.2046   14.3392  -22.1719 S   0  0  0  0  0  0  0  0  0  0  0  0
   28.4795   15.3245  -20.8702 N   0  0  0  0  0  0  0  0  0  0  0  0
   28.0136   16.8954  -21.0237 S   0  0  0  0  0  0  0  0  0  0  0  0
   26.4012   16.9464  -21.3510 N   0  0  0  0  0  0  0  0  0  0  0  0
   25.4419   16.7410  -20.0227 S   0  0  0  0  0  0  0  0  0  0  0  0
   23.8681   16.8523  -20.5378 N   0  0  0  0  0  0  0  0  0  0  0  0
   23.3368   18.4182  -20.7393 S   0  0  0  0  0  0  0  0  0  0  0  0
   24.0509   19.1485  -22.0492 N   0  0  0  0  0  0  0  0  0  0  0  0
   23.8220   18.3802  -23.4951 S   0  0  0  0  0  0  0  0  0  0  0  0
   22.2317   18.4877  -23.9255 N   0  0  0  0  0  0  0  0  0  0  0  0
   21.9833   17.6620  -25.3411 S   0  0  0  0  0  0  0  0  0  0  0  0
   20.4101   17.9571  -25.7686 N   0  0  0  0  0  0  0  0  0  0  0  0
   19.3120   17.2200  -24.7683 S   0  0  0  0  0  0  0  0  0  0  0  0
   19.4498   17.9694  -23.2926 N   0  0  0  0  0  0  0  0  0  0  0  0
   18.9861   19.5598  -23.2990 S   0  0  0  0  0  0  0  0  0  0  0  0
   17.3949   19.6385  -23.7272 N   0  0  0  0  0  0  0  0  0  0  0  0
   16.9490   21.2306  -23.8317 S   0  0  0  0  0  0  0  0  0  0  0  0
   15.3521   21.2849  -24.2722 N   0  0  0  0  0  0  0  0  0  0  0  0
   15.1649   20.9742  -25.8941 S   0  0  0  0  0  0  0  0  0  0  0  0
   13.5319   21.0812  -26.1788 N   0  0  0  0  0  0  0  0  0  0  0  0
   13.0229   22.6670  -26.1640 S   0  0  0  0  0  0  0  0  0  0  0  0
   11.4659   22.7457  -26.7400 N   0  0  0  0  0  0  0  0  0  0  0  0
   10.3958   21.9577  -25.7473 S   0  0  0  0  0  0  0  0  0  0  0  0
    8.8494   22.2952  -26.2366 N   0  0  0  0  0  0  0  0  0  0  0  0
    8.4981   21.6536  -27.7171 S   0  0  0  0  0  0  0  0  0  0  0  0
   20.6329  -17.4082  -14.6183 H   0  0  0  0  0  0  0  0  0  0  0  0
   22.1381  -16.9763  -15.2708 H   0  0  0  0  0  0  0  0  0  0  0  0
   19.7636  -15.3479  -14.8647 H   0  0  0  0  0  0  0  0  0  0  0  0
   22.6730  -14.7079  -15.5760 H   0  0  0  0  0  0  0  0  0  0  0  0
   21.8133  -12.5820  -14.4075 H   0  0  0  0  0  0  0  0  0  0  0  0
   20.1534  -13.0099  -14.8396 H   0  0  0  0  0  0  0  0  0  0  0  0
   20.7397  -12.8802  -17.1270 H   0  0  0  0  0  0  0  0  0  0  0  0
   21.3799  -10.6878  -15.4168 H   0  0  0  0  0  0  0  0  0  0  0  0
   20.5162  -10.7183  -18.1748 H   0  0  0  0  0  0  0  0  0  0  0  0
   19.6329   -8.9442  -16.9485 H   0  0  0  0  0  0  0  0  0  0  0  0
   21.3118   -8.5614  -15.4146 H   0  0  0  0  0  0  0  0  0  0  0  0
   23.0231   -9.2131  -16.8957 H   0  0  0  0  0  0  0  0  0  0  0  0
   22.3620   -8.0239  -18.7096 H   0  0  0  0  0  0  0  0  0  0  0  0
   21.4567   -6.2750  -17.5317 H   0  0  0  0  0  0  0  0  0  0  0  0
   23.0264   -6.0354  -15.9068 H   0  0  0  0  0  0  0  0  0  0  0  0
   24.8286   -6.7407  -17.2462 H   0  0  0  0  0  0  0  0  0  0  0  0
   24.1849   -5.6594  -19.2116 H   0  0  0  0  0  0  0  0  0  0  0  0
   23.2137   -3.7721  -18.1704 H   0  0  0  0  0  0  0  0  0  0  0  0
   24.8742   -3.4469  -16.4972 H   0  0  0  0  0  0  0  0  0  0  0  0
   26.8383   -3.8074  -17.7837 H   0  0  0  0  0  0  0  0  0  0  0  0
   26.1322   -2.6886  -19.7963 H   0  0  0  0  0  0  0  0  0  0  0  0
   25.0754   -0.8614  -18.7114 H   0  0  0  0  0  0  0  0  0  0  0  0
   26.6904   -0.6169  -16.9453 H   0  0  0  0  0  0  0  0  0  0  0  0
   28.6323   -1.1084  -18.2212 H   0  0  0  0  0  0  0  0  0  0  0  0
   28.0916   -0.0250  -20.2418 H   0  0  0  0  0  0  0  0  0  0  0  0
   27.0268    1.9996  -19.3915 H   0  0  0  0  0  0  0  0  0  0  0  0
   28.5564    2.5297  -17.6247 H   0  0  0  0  0  0  0  0  0  0  0  0
   30.4799    1.8776  -18.7972 H   0  0  0  0  0  0  0  0  0  0  0  0
   29.7933    2.7560  -20.7820 H   0  0  0  0  0  0  0  0  0  0  0  0
   28.7699    4.5857  -20.0411 H   0  0  0  0  0  0  0  0  0  0  0  0
   30.1973    5.1022  -18.3594 H   0  0  0  0  0  0  0  0  0  0  0  0
   32.1777    4.8621  -19.3711 H   0  0  0  0  0  0  0  0  0  0  0  0
   31.7365    5.6973  -21.3911 H   0  0  0  0  0  0  0  0  0  0  0  0
   30.5553    7.5155  -20.7313 H   0  0  0  0  0  0  0  0  0  0  0  0
   31.8208    8.1205  -18.9696 H   0  0  0  0  0  0  0  0  0  0  0  0
   33.7192    7.4958  -20.0443 H   0  0  0  0  0  0  0  0  0  0  0  0
   33.4350   10.0073  -21.3061 H   0  0  0  0  0  0  0  0  0  0  0  0
   35.8835    7.5076  -19.9046 H   0  0  0  0  0  0  0  0  0  0  0  0
   37.2739    7.3979  -23.3647 H   0  0  0  0  0  0  0  0  0  0  0  0
   34.0584    6.9547  -24.9786 H   0  0  0  0  0  0  0  0  0  0  0  0
   32.0768    4.1972  -26.7077 H   0  0  0  0  0  0  0  0  0  0  0  0
   32.7562    5.5754  -23.0114 H   0  0  0  0  0  0  0  0  0  0  0  0
   29.4371    6.5676  -22.9097 H   0  0  0  0  0  0  0  0  0  0  0  0
   29.6779    8.5379  -26.0616 H   0  0  0  0  0  0  0  0  0  0  0  0
   29.2366   11.2840  -23.5604 H   0  0  0  0  0  0  0  0  0  0  0  0
   32.2281   13.0665  -22.8113 H   0  0  0  0  0  0  0  0  0  0  0  0
   28.9008   14.2062  -24.2712 H   0  0  0  0  0  0  0  0  0  0  0  0
   29.4600   15.2464  -20.5889 H   0  0  0  0  0  0  0  0  0  0  0  0
   26.1782   16.3172  -22.1226 H   0  0  0  0  0  0  0  0  0  0  0  0
   23.2519   16.3897  -19.8609 H   0  0  0  0  0  0  0  0  0  0  0  0
   25.0478   19.3042  -21.8819 H   0  0  0  0  0  0  0  0  0  0  0  0
   21.8778   19.4420  -24.0209 H   0  0  0  0  0  0  0  0  0  0  0  0
   20.2642   17.6075  -26.7188 H   0  0  0  0  0  0  0  0  0  0  0  0
   20.4449   17.9303  -23.0494 H   0  0  0  0  0  0  0  0  0  0  0  0
   16.8210   19.1373  -23.0514 H   0  0  0  0  0  0  0  0  0  0  0  0
   15.0176   22.2353  -24.1034 H   0  0  0  0  0  0  0  0  0  0  0  0
   13.0687   20.5431  -25.4465 H   0  0  0  0  0  0  0  0  0  0  0  0
   11.4240   22.4308  -27.7099 H   0  0  0  0  0  0  0  0  0  0  0  0
    8.6062   23.2841  -26.1566 H   0  0  0  0  0  0  0  0  0  0  0  0
    8.3823   20.3609  -27.3644 H   0  0  0  0  0  0  0  0  0  0  0  0
  1  2  1  0  0  0  0
  1 81  1  0  0  0  0
  1 82  1  0  0  0  0
  2  3  2  3  0  0  0
  2 83  1  0  0  0  0
  3  4  1  0  0  0  0
  3 84  1  0  0  0  0
  4  5  1  0  0  0  0
  4 85  1  0  0  0  0
  4 86  1  0  0  0  0
  5  6  1  0  0  0  0
  5 87  1  0  0  0  0
  6  7  1  0  0  0  0
  6 88  1  0  0  0  0
  7  8  1  0  0  0  0
  7 89  1  0  0  0  0
  8  9  1  0  0  0  0
  8 90  1  0  0  0  0
  9 10  1  0  0  0  0
  9 91  1  0  0  0  0
 10 11  1  0  0  0  0
 10 92  1  0  0  0  0
 11 12  1  0  0  0  0
 11 93  1  0  0  0  0
 12 13  1  0  0  0  0
 12 94  1  0  0  0  0
 13 14  1  0  0  0  0
 13 95  1  0  0  0  0
 14 15  1  0  0  0  0
 14 96  1  0  0  0  0
 15 16  1  0  0  0  0
 15 97  1  0  0  0  0
 16 17  1  0  0  0  0
 16 98  1  0  0  0  0
 17 18  1  0  0  0  0
 17 99  1  0  0  0  0
 18 19  1  0  0  0  0
 18100  1  0  0  0  0
 19 20  1  0  0  0  0
 19101  1  0  0  0  0
 20 21  1  0  0  0  0
 20102  1  0  0  0  0
 21 22  1  0  0  0  0
 21103  1  0  0  0  0
 22 23  1  0  0  0  0
 22104  1  0  0  0  0
 23 24  1  0  0  0  0
 23105  1  0  0  0  0
 24 25  1  0  0  0  0
 24106  1  0  0  0  0
 25 26  1  0  0  0  0
 25107  1  0  0  0  0
 26 27  1  0  0  0  0
 26108  1  0  0  0  0
 27 28  1  0  0  0  0
 27109  1  0  0  0  0
 28 29  1  0  0  0  0
 28110  1  0  0  0  0
 29 30  1  0  0  0  0
 29111  1  0  0  0  0
 30 31  1  0  0  0  0
 30112  1  0  0  0  0
 31 32  1  0  0  0  0
 31113  1  0  0  0  0
 32 33  1  0  0  0  0
 32114  1  0  0  0  0
 33 34  1  0  0  0  0
 33115  1  0  0  0  0
 34 35  1  0  0  0  0
 34116  1  0  0  0  0
 35 36  1  0  0  0  0
 35117  1  0  0  0  0
 36 37  1  0  0  0  0
 37 38  1  0  0  0  0
 37118  1  0  0  0  0
 38 39  1  0  0  0  0
 39 40  1  0  0  0  0
 39119  1  0  0  0  0
 40 41  1  0  0  0  0
 41 42  1  0  0  0  0
 41120  1  0  0  0  0
 42 43  1  0  0  0  0
 43 44  1  0  0  0  0
 43121  1  0  0  0  0
 44 45  1  0  0  0  0
 45 46  1  0  0  0  0
 45122  1  0  0  0  0
 46 47  1  0  0  0  0
 47 48  1  0  0  0  0
 47123  1  0  0  0  0
 48 49  1  0  0  0  0
 49 50  1  0  0  0  0
 49124  1  0  0  0  0
 50 51  1  0  0  0  0
 51 52  1  0  0  0  0
 51125  1  0  0  0  0
 52 53  1  0  0  0  0
 53 54  1  0  0  0  0
 53126  1  0  0  0  0
 54 55  1  0  0  0  0
 55 56  1  0  0  0  0
 55127  1  0  0  0  0
 56 57  1  0  0  0  0
 57 58  1  0  0  0  0
 57128  1  0  0  0  0
 58 59  1  0  0  0  0
 59 60  1  0  0  0  0
 59129  1  0  0  0  0
 60 61  1  0  0  0  0
 61 62  1  0  0  0  0
 61130  1  0  0  0  0
 62 63  1  0  0  0  0
 63 64  1  0  0  0  0
 63131  1  0  0  0  0
 64 65  1  0  0  0  0
 65 66  1  0  0  0  0
 65132  1  0  0  0  0
 66 67  1  0  0  0  0
 67 68  1  0  0  0  0
 67133  1  0  0  0  0
 68 69  1  0  0  0  0
 69 70  1  0  0  0  0
 69134  1  0  0  0  0
 70 71  1  0  0  0  0
 71 72  1  0  0  0  0
 71135  1  0  0  0  0
 72 73  1  0  0  0  0
 73 74  1  0  0  0  0
 73136  1  0  0  0  0
 74 75  1  0  0  0  0
 75 76  1  0  0  0  0
 75137  1  0  0  0  0
 76 77  1  0  0  0  0
 77 78  1  0  0  0  0
 77138  1  0  0  0  0
 78 79  1  0  0  0  0
 79 80  1  0  0  0  0
 79139  1  0  0  0  0
 80140  1  0  0  0  0
M  END
$$$$
