
 OpenBabel04232217033D

162161  0  0  0  0  0  0  0  0999 V2000
   19.8887   -4.6074   26.7588 S   0  0  0  0  0  0  0  0  0  0  0  0
   21.4807   -4.3214   26.4025 N   0  0  0  0  0  0  0  0  0  0  0  0
   21.6579   -4.0258   24.9920 O   0  0  0  0  0  0  0  0  0  0  0  0
   21.4500   -2.6128   24.7164 N   0  0  0  0  0  0  0  0  0  0  0  0
   22.1514   -1.7373   25.6103 N   0  0  0  0  0  0  0  0  0  0  0  0
   23.5555   -1.7572   25.3659 N   0  0  0  0  0  0  0  0  0  0  0  0
   23.8497   -1.3902   24.0122 N   0  0  0  0  0  0  0  0  0  0  0  0
   23.4020   -0.0488   23.7424 N   0  0  0  0  0  0  0  0  0  0  0  0
   24.0615    0.8879   24.6121 N   0  0  0  0  0  0  0  0  0  0  0  0
   25.4849    0.8338   24.4118 N   0  0  0  0  0  0  0  0  0  0  0  0
   25.7988    1.1529   23.0440 N   0  0  0  0  0  0  0  0  0  0  0  0
   25.3322    2.4792   22.7321 N   0  0  0  0  0  0  0  0  0  0  0  0
   25.9620    3.4306   23.6101 N   0  0  0  0  0  0  0  0  0  0  0  0
   27.3920    3.3704   23.4355 N   0  0  0  0  0  0  0  0  0  0  0  0
   27.7189    3.6740   22.0601 N   0  0  0  0  0  0  0  0  0  0  0  0
   27.2398    4.9901   21.7368 N   0  0  0  0  0  0  0  0  0  0  0  0
   27.8522    5.9548   22.6189 N   0  0  0  0  0  0  0  0  0  0  0  0
   29.2856    5.8924   22.4714 N   0  0  0  0  0  0  0  0  0  0  0  0
   29.6357    6.1694   21.0989 N   0  0  0  0  0  0  0  0  0  0  0  0
   29.1481    7.4789   20.7387 N   0  0  0  0  0  0  0  0  0  0  0  0
   29.7329    8.4626   21.6179 N   0  0  0  0  0  0  0  0  0  0  0  0
   31.1704    8.4090   21.5017 N   0  0  0  0  0  0  0  0  0  0  0  0
   31.5462    8.6694   20.1329 N   0  0  0  0  0  0  0  0  0  0  0  0
   31.0567    9.9704   19.7448 N   0  0  0  0  0  0  0  0  0  0  0  0
   31.6147   10.9677   20.6264 N   0  0  0  0  0  0  0  0  0  0  0  0
   33.0571   10.9251   20.5367 N   0  0  0  0  0  0  0  0  0  0  0  0
   33.4574   11.1700   19.1713 N   0  0  0  0  0  0  0  0  0  0  0  0
   32.9653   12.4614   18.7576 N   0  0  0  0  0  0  0  0  0  0  0  0
   33.5017   13.4812   19.6305 N   0  0  0  0  0  0  0  0  0  0  0  0
   34.9390   13.4442   19.5712 N   0  0  0  0  0  0  0  0  0  0  0  0
   35.3639   13.6711   18.2054 N   0  0  0  0  0  0  0  0  0  0  0  0
   34.8719   14.9555   17.7604 N   0  0  0  0  0  0  0  0  0  0  0  0
   35.3847   15.9855   18.6322 N   0  0  0  0  0  0  0  0  0  0  0  0
   36.8275   15.9595   18.6004 N   0  0  0  0  0  0  0  0  0  0  0  0
   37.2766   16.1707   17.2451 N   0  0  0  0  0  0  0  0  0  0  0  0
   36.7830   17.4424   16.7735 N   0  0  0  0  0  0  0  0  0  0  0  0
   37.2716   18.4909   17.6363 N   0  0  0  0  0  0  0  0  0  0  0  0
   38.7147   18.4763   17.6305 N   0  0  0  0  0  0  0  0  0  0  0  0
   39.1869   18.6718   16.2805 N   0  0  0  0  0  0  0  0  0  0  0  0
   38.6902   19.9328   15.7820 N   0  0  0  0  0  0  0  0  0  0  0  0
   39.1544   20.9974   16.6411 N   0  0  0  0  0  0  0  0  0  0  0  0
   40.5974   20.9929   16.6666 N   0  0  0  0  0  0  0  0  0  0  0  0
   41.0967   21.1708   15.3239 N   0  0  0  0  0  0  0  0  0  0  0  0
   40.6021   22.4197   14.7951 N   0  0  0  0  0  0  0  0  0  0  0  0
   41.0400   23.5013   15.6436 N   0  0  0  0  0  0  0  0  0  0  0  0
   42.4822   23.5115   15.6946 N   0  0  0  0  0  0  0  0  0  0  0  0
   43.0029   23.6746   14.3583 N   0  0  0  0  0  0  0  0  0  0  0  0
   42.5094   24.9124   13.8040 N   0  0  0  0  0  0  0  0  0  0  0  0
   42.9249   26.0090   14.6456 N   0  0  0  0  0  0  0  0  0  0  0  0
   44.3660   26.0273   14.7250 N   0  0  0  0  0  0  0  0  0  0  0  0
   44.9133   26.1753   13.3977 N   0  0  0  0  0  0  0  0  0  0  0  0
   44.4217   27.4010   12.8153 N   0  0  0  0  0  0  0  0  0  0  0  0
   44.8115   28.5128   13.6493 N   0  0  0  0  0  0  0  0  0  0  0  0
   46.2507   28.5445   13.7558 N   0  0  0  0  0  0  0  0  0  0  0  0
   46.8217   28.6767   12.4367 N   0  0  0  0  0  0  0  0  0  0  0  0
   46.3329   29.8900   11.8270 N   0  0  0  0  0  0  0  0  0  0  0  0
   46.6983   31.0164   12.6521 N   0  0  0  0  0  0  0  0  0  0  0  0
   48.1348   31.0633   12.7835 N   0  0  0  0  0  0  0  0  0  0  0  0
   48.7285   31.1818   11.4735 N   0  0  0  0  0  0  0  0  0  0  0  0
   48.2422   32.3829   10.8383 N   0  0  0  0  0  0  0  0  0  0  0  0
   48.5848   33.5236   11.6533 N   0  0  0  0  0  0  0  0  0  0  0  0
   50.0181   33.5809   11.8120 N   0  0  0  0  0  0  0  0  0  0  0  0
   50.6367   33.6856   10.5120 N   0  0  0  0  0  0  0  0  0  0  0  0
   50.1543   34.8737    9.8509 N   0  0  0  0  0  0  0  0  0  0  0  0
   50.4725   36.0293   10.6540 N   0  0  0  0  0  0  0  0  0  0  0  0
   51.9032   36.1012   10.8416 N   0  0  0  0  0  0  0  0  0  0  0  0
   52.5458   36.1933    9.5527 N   0  0  0  0  0  0  0  0  0  0  0  0
   52.0718   37.3703    8.8634 N   0  0  0  0  0  0  0  0  0  0  0  0
   52.3641   38.5369    9.6534 N   0  0  0  0  0  0  0  0  0  0  0  0
   53.7902   38.6283    9.8702 N   0  0  0  0  0  0  0  0  0  0  0  0
   54.4629   38.7076    8.5961 N   0  0  0  0  0  0  0  0  0  0  0  0
   54.0003   39.8691    7.8776 N   0  0  0  0  0  0  0  0  0  0  0  0
   54.2725   41.0569    8.6487 N   0  0  0  0  0  0  0  0  0  0  0  0
   55.6906   41.1650    8.8963 N   0  0  0  0  0  0  0  0  0  0  0  0
   56.4076   41.2283    7.6459 N   0  0  0  0  0  0  0  0  0  0  0  0
   55.9714   42.3705    6.8793 N   0  0  0  0  0  0  0  0  0  0  0  0
   56.1953   43.5835    7.6141 N   0  0  0  0  0  0  0  0  0  0  0  0
   57.6020   43.7638    7.8796 N   0  0  0  0  0  0  0  0  0  0  0  0
   58.3460   43.8907    6.6449 N   0  0  0  0  0  0  0  0  0  0  0  0
   57.8825   45.0037    5.8730 N   0  0  0  0  0  0  0  0  0  0  0  0
   58.1175   46.1957    6.6291 N   0  0  0  0  0  0  0  0  0  0  0  0
   19.9828   -4.6329   28.0981 H   0  0  0  0  0  0  0  0  0  0  0  0
   22.0258   -5.1836   26.4619 H   0  0  0  0  0  0  0  0  0  0  0  0
   20.4417   -2.5591   24.8778 H   0  0  0  0  0  0  0  0  0  0  0  0
   21.9519   -1.9951   26.5855 H   0  0  0  0  0  0  0  0  0  0  0  0
   23.9451   -2.6823   25.5699 H   0  0  0  0  0  0  0  0  0  0  0  0
   23.3421   -2.0312   23.3904 H   0  0  0  0  0  0  0  0  0  0  0  0
   22.3905   -0.0186   23.9245 H   0  0  0  0  0  0  0  0  0  0  0  0
   23.8494    0.6080   25.5772 H   0  0  0  0  0  0  0  0  0  0  0  0
   25.7787   -0.1340   24.5988 H   0  0  0  0  0  0  0  0  0  0  0  0
   25.2902    0.4797   22.4555 H   0  0  0  0  0  0  0  0  0  0  0  0
   24.3202    2.4879   22.9106 H   0  0  0  0  0  0  0  0  0  0  0  0
   25.7356    3.1439   24.5712 H   0  0  0  0  0  0  0  0  0  0  0  0
   27.6709    2.3985   23.6347 H   0  0  0  0  0  0  0  0  0  0  0  0
   27.2189    2.9860   21.4844 H   0  0  0  0  0  0  0  0  0  0  0  0
   26.2260    4.9848   21.9134 H   0  0  0  0  0  0  0  0  0  0  0  0
   27.6098    5.6686   23.5773 H   0  0  0  0  0  0  0  0  0  0  0  0
   29.5585    4.9237   22.6877 H   0  0  0  0  0  0  0  0  0  0  0  0
   29.1420    5.4698   20.5269 H   0  0  0  0  0  0  0  0  0  0  0  0
   28.1312    7.4638   20.8978 H   0  0  0  0  0  0  0  0  0  0  0  0
   29.4730    8.1866   22.5754 H   0  0  0  0  0  0  0  0  0  0  0  0
   31.4439    7.4446   21.7366 H   0  0  0  0  0  0  0  0  0  0  0  0
   31.0689    7.9581   19.5614 H   0  0  0  0  0  0  0  0  0  0  0  0
   30.0361    9.9488   19.8850 H   0  0  0  0  0  0  0  0  0  0  0  0
   31.3404   10.7010   21.5774 H   0  0  0  0  0  0  0  0  0  0  0  0
   33.3326    9.9658   20.7894 H   0  0  0  0  0  0  0  0  0  0  0  0
   32.9950   10.4464   18.6010 H   0  0  0  0  0  0  0  0  0  0  0  0
   31.9427   12.4336   18.8793 H   0  0  0  0  0  0  0  0  0  0  0  0
   33.2124   13.2247   20.5843 H   0  0  0  0  0  0  0  0  0  0  0  0
   35.2152   12.4930   19.8420 H   0  0  0  0  0  0  0  0  0  0  0  0
   34.9175   12.9376   17.6385 H   0  0  0  0  0  0  0  0  0  0  0  0
   33.8468   14.9219   17.8620 H   0  0  0  0  0  0  0  0  0  0  0  0
   35.0761   15.7366   19.5838 H   0  0  0  0  0  0  0  0  0  0  0  0
   37.1065   15.0118   18.8917 H   0  0  0  0  0  0  0  0  0  0  0  0
   36.8482   15.4249   16.6791 H   0  0  0  0  0  0  0  0  0  0  0  0
   35.7572   17.4032   16.8567 H   0  0  0  0  0  0  0  0  0  0  0  0
   36.9468   18.2585   18.5858 H   0  0  0  0  0  0  0  0  0  0  0  0
   38.9957   17.5354   17.9418 H   0  0  0  0  0  0  0  0  0  0  0  0
   38.7737   17.9146   15.7176 H   0  0  0  0  0  0  0  0  0  0  0  0
   37.6654   19.8854   15.8461 H   0  0  0  0  0  0  0  0  0  0  0  0
   38.8110   20.7751   17.5860 H   0  0  0  0  0  0  0  0  0  0  0  0
   40.8772   20.0582   16.9962 H   0  0  0  0  0  0  0  0  0  0  0  0
   40.7011   20.4017   14.7650 H   0  0  0  0  0  0  0  0  0  0  0  0
   39.5746   22.3656   14.8403 H   0  0  0  0  0  0  0  0  0  0  0  0
   40.6819   23.2903   16.5890 H   0  0  0  0  0  0  0  0  0  0  0  0
   42.7652   22.5847   16.0435 H   0  0  0  0  0  0  0  0  0  0  0  0
   42.6230   22.8946   13.8032 H   0  0  0  0  0  0  0  0  0  0  0  0
   41.4816   24.8519   13.8319 H   0  0  0  0  0  0  0  0  0  0  0  0
   42.5496   25.8111   15.5840 H   0  0  0  0  0  0  0  0  0  0  0  0
   44.6467   25.1070   15.0924 H   0  0  0  0  0  0  0  0  0  0  0  0
   44.5517   25.3845   12.8459 H   0  0  0  0  0  0  0  0  0  0  0  0
   43.3940   27.3325   12.8233 H   0  0  0  0  0  0  0  0  0  0  0  0
   44.4199   28.3245   14.5830 H   0  0  0  0  0  0  0  0  0  0  0  0
   46.5317   27.6322   14.1423 H   0  0  0  0  0  0  0  0  0  0  0  0
   46.4752   27.8753   11.8905 H   0  0  0  0  0  0  0  0  0  0  0  0
   45.3057   29.8142   11.8161 H   0  0  0  0  0  0  0  0  0  0  0  0
   46.2917   30.8375   13.5813 H   0  0  0  0  0  0  0  0  0  0  0  0
   48.4185   30.1602   13.1889 H   0  0  0  0  0  0  0  0  0  0  0  0
   48.3988   30.3703   10.9319 H   0  0  0  0  0  0  0  0  0  0  0  0
   47.2161   32.2997   10.8092 H   0  0  0  0  0  0  0  0  0  0  0  0
   48.1614   33.3567   12.5771 H   0  0  0  0  0  0  0  0  0  0  0  0
   50.2987   32.6847   12.2350 H   0  0  0  0  0  0  0  0  0  0  0  0
   50.3232   32.8640    9.9757 H   0  0  0  0  0  0  0  0  0  0  0  0
   49.1309   34.7838    9.8025 H   0  0  0  0  0  0  0  0  0  0  0  0
   50.0325   35.8723   11.5735 H   0  0  0  0  0  0  0  0  0  0  0  0
   52.1811   35.2133   11.2822 H   0  0  0  0  0  0  0  0  0  0  0  0
   52.2487   35.3605    9.0215 H   0  0  0  0  0  0  0  0  0  0  0  0
   51.0484   37.2698    8.7933 H   0  0  0  0  0  0  0  0  0  0  0  0
   51.9076   38.3925   10.5666 H   0  0  0  0  0  0  0  0  0  0  0  0
   54.0673   37.7472   10.3293 H   0  0  0  0  0  0  0  0  0  0  0  0
   54.1841   37.8674    8.0681 H   0  0  0  0  0  0  0  0  0  0  0  0
   52.9787   39.7670    7.7900 H   0  0  0  0  0  0  0  0  0  0  0  0
   53.7955   40.9342    9.5505 H   0  0  0  0  0  0  0  0  0  0  0  0
   55.9649   40.2984    9.3829 H   0  0  0  0  0  0  0  0  0  0  0  0
   56.1554   40.3753    7.1266 H   0  0  0  0  0  0  0  0  0  0  0  0
   54.9538   42.2556    6.7443 H   0  0  0  0  0  0  0  0  0  0  0  0
   55.7054   43.4698    8.5206 H   0  0  0  0  0  0  0  0  0  0  0  0
   57.9167   42.9093    8.3620 H   0  0  0  0  0  0  0  0  0  0  0  0
   58.1751   43.0266    6.1103 H   0  0  0  0  0  0  0  0  0  0  0  0
   56.8698   44.8648    5.7345 H   0  0  0  0  0  0  0  0  0  0  0  0
   59.1141   46.2191    6.8489 H   0  0  0  0  0  0  0  0  0  0  0  0
   57.6857   46.0232    7.5446 H   0  0  0  0  0  0  0  0  0  0  0  0
  1  2  1  0  0  0  0
  1 82  1  0  0  0  0
  2  3  1  0  0  0  0
  2 83  1  0  0  0  0
  3  4  1  0  0  0  0
  4  5  1  0  0  0  0
  4 84  1  0  0  0  0
  5  6  1  0  0  0  0
  5 85  1  0  0  0  0
  6  7  1  0  0  0  0
  6 86  1  0  0  0  0
  7  8  1  0  0  0  0
  7 87  1  0  0  0  0
  8  9  1  0  0  0  0
  8 88  1  0  0  0  0
  9 10  1  0  0  0  0
  9 89  1  0  0  0  0
 10 11  1  0  0  0  0
 10 90  1  0  0  0  0
 11 12  1  0  0  0  0
 11 91  1  0  0  0  0
 12 13  1  0  0  0  0
 12 92  1  0  0  0  0
 13 14  1  0  0  0  0
 13 93  1  0  0  0  0
 14 15  1  0  0  0  0
 14 94  1  0  0  0  0
 15 16  1  0  0  0  0
 15 95  1  0  0  0  0
 16 17  1  0  0  0  0
 16 96  1  0  0  0  0
 17 18  1  0  0  0  0
 17 97  1  0  0  0  0
 18 19  1  0  0  0  0
 18 98  1  0  0  0  0
 19 20  1  0  0  0  0
 19 99  1  0  0  0  0
 20 21  1  0  0  0  0
 20100  1  0  0  0  0
 21 22  1  0  0  0  0
 21101  1  0  0  0  0
 22 23  1  0  0  0  0
 22102  1  0  0  0  0
 23 24  1  0  0  0  0
 23103  1  0  0  0  0
 24 25  1  0  0  0  0
 24104  1  0  0  0  0
 25 26  1  0  0  0  0
 25105  1  0  0  0  0
 26 27  1  0  0  0  0
 26106  1  0  0  0  0
 27 28  1  0  0  0  0
 27107  1  0  0  0  0
 28 29  1  0  0  0  0
 28108  1  0  0  0  0
 29 30  1  0  0  0  0
 29109  1  0  0  0  0
 30 31  1  0  0  0  0
 30110  1  0  0  0  0
 31 32  1  0  0  0  0
 31111  1  0  0  0  0
 32 33  1  0  0  0  0
 32112  1  0  0  0  0
 33 34  1  0  0  0  0
 33113  1  0  0  0  0
 34 35  1  0  0  0  0
 34114  1  0  0  0  0
 35 36  1  0  0  0  0
 35115  1  0  0  0  0
 36 37  1  0  0  0  0
 36116  1  0  0  0  0
 37 38  1  0  0  0  0
 37117  1  0  0  0  0
 38 39  1  0  0  0  0
 38118  1  0  0  0  0
 39 40  1  0  0  0  0
 39119  1  0  0  0  0
 40 41  1  0  0  0  0
 40120  1  0  0  0  0
 41 42  1  0  0  0  0
 41121  1  0  0  0  0
 42 43  1  0  0  0  0
 42122  1  0  0  0  0
 43 44  1  0  0  0  0
 43123  1  0  0  0  0
 44 45  1  0  0  0  0
 44124  1  0  0  0  0
 45 46  1  0  0  0  0
 45125  1  0  0  0  0
 46 47  1  0  0  0  0
 46126  1  0  0  0  0
 47 48  1  0  0  0  0
 47127  1  0  0  0  0
 48 49  1  0  0  0  0
 48128  1  0  0  0  0
 49 50  1  0  0  0  0
 49129  1  0  0  0  0
 50 51  1  0  0  0  0
 50130  1  0  0  0  0
 51 52  1  0  0  0  0
 51131  1  0  0  0  0
 52 53  1  0  0  0  0
 52132  1  0  0  0  0
 53 54  1  0  0  0  0
 53133  1  0  0  0  0
 54 55  1  0  0  0  0
 54134  1  0  0  0  0
 55 56  1  0  0  0  0
 55135  1  0  0  0  0
 56 57  1  0  0  0  0
 56136  1  0  0  0  0
 57 58  1  0  0  0  0
 57137  1  0  0  0  0
 58 59  1  0  0  0  0
 58138  1  0  0  0  0
 59 60  1  0  0  0  0
 59139  1  0  0  0  0
 60 61  1  0  0  0  0
 60140  1  0  0  0  0
 61 62  1  0  0  0  0
 61141  1  0  0  0  0
 62 63  1  0  0  0  0
 62142  1  0  0  0  0
 63 64  1  0  0  0  0
 63143  1  0  0  0  0
 64 65  1  0  0  0  0
 64144  1  0  0  0  0
 65 66  1  0  0  0  0
 65145  1  0  0  0  0
 66 67  1  0  0  0  0
 66146  1  0  0  0  0
 67 68  1  0  0  0  0
 67147  1  0  0  0  0
 68 69  1  0  0  0  0
 68148  1  0  0  0  0
 69 70  1  0  0  0  0
 69149  1  0  0  0  0
 70 71  1  0  0  0  0
 70150  1  0  0  0  0
 71 72  1  0  0  0  0
 71151  1  0  0  0  0
 72 73  1  0  0  0  0
 72152  1  0  0  0  0
 73 74  1  0  0  0  0
 73153  1  0  0  0  0
 74 75  1  0  0  0  0
 74154  1  0  0  0  0
 75 76  1  0  0  0  0
 75155  1  0  0  0  0
 76 77  1  0  0  0  0
 76156  1  0  0  0  0
 77 78  1  0  0  0  0
 77157  1  0  0  0  0
 78 79  1  0  0  0  0
 78158  1  0  0  0  0
 79 80  1  0  0  0  0
 79159  1  0  0  0  0
 80 81  1  0  0  0  0
 80160  1  0  0  0  0
 81161  1  0  0  0  0
 81162  1  0  0  0  0
M  END
$$$$
