
 OpenBabel04232216463D

 46 48  0  0  0  0  0  0  0  0999 V2000
    3.5517    2.0544    1.5740 C   0  0  0  0  0  0  0  0  0  0  0  0
    4.5702    2.5480    0.5476 C   0  0  0  0  0  0  0  0  0  0  0  0
    4.1595    2.0338   -0.8405 C   0  0  0  0  0  0  0  0  0  0  0  0
    4.9921    1.0827   -1.3033 C   0  0  0  0  0  0  0  0  0  0  0  0
    5.1294   -0.4283   -1.0261 C   0  0  0  0  0  0  0  0  0  0  0  0
    3.9492   -1.3426   -0.6435 C   0  0  0  0  0  0  0  0  0  0  0  0
    2.9604   -1.6729   -1.7671 C   0  0  0  0  0  0  0  0  0  0  0  0
    3.5712   -1.8687   -3.1596 C   0  0  0  0  0  0  0  0  0  0  0  0
    4.7312   -0.9345   -3.4440 C   0  0  0  0  0  0  0  0  0  0  0  0
    5.7441   -1.0596   -2.3018 C   0  0  0  0  0  0  0  0  0  0  0  0
    5.9882    1.5537   -2.1449 N   0  0  0  0  0  0  0  0  0  0  0  0
    6.9533    2.0456   -1.4064 C   0  0  0  0  0  0  0  0  0  0  0  0
    7.8053    1.2979   -0.3985 C   0  0  0  0  0  0  0  0  0  0  0  0
    6.8851    3.4568   -1.2203 C   0  0  0  0  0  0  0  0  0  0  0  0
    7.4713    4.5336   -1.9803 C   0  0  0  0  0  0  0  0  0  0  0  0
    8.0071    4.4439   -3.0636 O   0  0  0  0  0  0  0  0  0  0  0  0
    7.4197    5.7480   -1.1164 C   0  0  0  0  0  0  0  0  0  0  0  0
    8.2615    6.8946   -1.5630 C   0  0  0  0  0  0  0  0  0  0  0  0
    7.2190    5.1797    0.1028 C   0  0  0  0  0  0  0  0  0  0  0  0
    8.5473    5.0015    0.8747 C   0  0  0  0  0  0  0  0  0  0  0  0
    6.3990    3.9492   -0.0830 C   0  0  0  0  0  0  0  0  0  0  0  0
    5.5525    3.3816    0.8720 N   0  0  0  0  0  0  0  0  0  0  0  0
    2.6372    2.6560    1.4968 H   0  0  0  0  0  0  0  0  0  0  0  0
    3.9274    2.0774    2.5946 H   0  0  0  0  0  0  0  0  0  0  0  0
    3.2589    1.0229    1.3347 H   0  0  0  0  0  0  0  0  0  0  0  0
    4.0678    2.9409   -1.4377 H   0  0  0  0  0  0  0  0  0  0  0  0
    5.8437   -0.5366   -0.2055 H   0  0  0  0  0  0  0  0  0  0  0  0
    3.4155   -0.9818    0.2406 H   0  0  0  0  0  0  0  0  0  0  0  0
    4.3955   -2.3016   -0.3319 H   0  0  0  0  0  0  0  0  0  0  0  0
    2.2037   -0.8846   -1.8100 H   0  0  0  0  0  0  0  0  0  0  0  0
    2.4286   -2.5983   -1.5025 H   0  0  0  0  0  0  0  0  0  0  0  0
    2.7948   -1.7356   -3.9203 H   0  0  0  0  0  0  0  0  0  0  0  0
    3.9358   -2.8974   -3.2598 H   0  0  0  0  0  0  0  0  0  0  0  0
    4.3411    0.0875   -3.5504 H   0  0  0  0  0  0  0  0  0  0  0  0
    5.2079   -1.1730   -4.3974 H   0  0  0  0  0  0  0  0  0  0  0  0
    6.6938   -0.5885   -2.5801 H   0  0  0  0  0  0  0  0  0  0  0  0
    5.9973   -2.1097   -2.1216 H   0  0  0  0  0  0  0  0  0  0  0  0
    7.2034    0.8290    0.3787 H   0  0  0  0  0  0  0  0  0  0  0  0
    8.4809    1.9858    0.1249 H   0  0  0  0  0  0  0  0  0  0  0  0
    8.4075    0.5509   -0.9127 H   0  0  0  0  0  0  0  0  0  0  0  0
    7.6217    7.6424   -2.0444 H   0  0  0  0  0  0  0  0  0  0  0  0
    9.0158    6.5885   -2.2956 H   0  0  0  0  0  0  0  0  0  0  0  0
    8.7865    7.3772   -0.7321 H   0  0  0  0  0  0  0  0  0  0  0  0
    8.5992    4.0581    1.4275 H   0  0  0  0  0  0  0  0  0  0  0  0
    8.7789    5.8364    1.5346 H   0  0  0  0  0  0  0  0  0  0  0  0
    9.3874    4.9315    0.1526 H   0  0  0  0  0  0  0  0  0  0  0  0
  1  2  1  0  0  0  0
  1 23  1  0  0  0  0
  1 24  1  0  0  0  0
  1 25  1  0  0  0  0
  2  3  1  0  0  0  0
  2 22  2  0  0  0  0
  3  4  2  0  0  0  0
  3 26  1  0  0  0  0
  4  5  1  0  0  0  0
  4 11  1  0  0  0  0
  5  6  1  0  0  0  0
  5 10  1  0  0  0  0
  5 27  1  0  0  0  0
  6  7  1  0  0  0  0
  6 28  1  0  0  0  0
  6 29  1  0  0  0  0
  7  8  1  0  0  0  0
  7 30  1  0  0  0  0
  7 31  1  0  0  0  0
  8  9  1  0  0  0  0
  8 32  1  0  0  0  0
  8 33  1  0  0  0  0
  9 10  1  0  0  0  0
  9 34  1  0  0  0  0
  9 35  1  0  0  0  0
 10 36  1  0  0  0  0
 10 37  1  0  0  0  0
 11 12  2  0  0  0  0
 12 13  1  0  0  0  0
 12 14  1  0  0  0  0
 13 38  1  0  0  0  0
 13 39  1  0  0  0  0
 13 40  1  0  0  0  0
 14 15  1  0  0  0  0
 14 21  2  0  0  0  0
 15 16  2  0  0  0  0
 15 17  1  0  0  0  0
 17 18  1  0  0  0  0
 17 19  2  0  0  0  0
 18 41  1  0  0  0  0
 18 42  1  0  0  0  0
 18 43  1  0  0  0  0
 19 20  1  0  0  0  0
 19 21  1  0  0  0  0
 20 44  1  0  0  0  0
 20 45  1  0  0  0  0
 20 46  1  0  0  0  0
 21 22  1  0  0  0  0
M  END
$$$$
