
 OpenBabel04232217023D

 93 92  0  0  0  0  0  0  0  0999 V2000
    9.8796   -1.9370   12.5854 S   0  0  0  0  0  0  0  0  0  0  0  0
   11.6945   -1.9242   12.7049 C   0  0  0  0  0  0  0  0  0  0  0  0
   12.4543   -1.8305   11.0485 S   0  0  0  0  0  0  0  0  0  0  0  0
   11.7613   -0.2227   10.4181 C   0  0  0  0  0  0  0  0  0  0  0  0
   12.2983   -0.0271    8.9624 C   0  0  0  0  0  0  0  0  0  0  0  0
   11.8225    1.3158    8.3317 C   0  0  0  0  0  0  0  0  0  0  0  0
   12.3483    1.4340    6.9488 N   0  0  0  0  0  0  0  0  0  0  0  0
   11.8851    2.6609    6.3183 N   0  0  0  0  0  0  0  0  0  0  0  0
   12.5784    2.7887    4.8127 S   0  0  0  0  0  0  0  0  0  0  0  0
   11.8603    4.5983    4.1320 S   0  0  0  0  0  0  0  0  0  0  0  0
   12.5743    6.0925    5.3696 S   0  0  0  0  0  0  0  0  0  0  0  0
   14.6446    6.1272    5.3054 S   0  0  0  0  0  0  0  0  0  0  0  0
   15.3045    7.6251    6.6218 S   0  0  0  0  0  0  0  0  0  0  0  0
   17.4107    7.6224    6.6189 S   0  0  0  0  0  0  0  0  0  0  0  0
   18.0998    9.1391    7.9133 S   0  0  0  0  0  0  0  0  0  0  0  0
   20.2104    9.1295    7.9053 S   0  0  0  0  0  0  0  0  0  0  0  0
   20.9023   10.6453    9.1999 S   0  0  0  0  0  0  0  0  0  0  0  0
   23.0122   10.6353    9.1914 S   0  0  0  0  0  0  0  0  0  0  0  0
   23.7032   12.1512   10.4859 S   0  0  0  0  0  0  0  0  0  0  0  0
   25.8127   12.1412   10.4773 S   0  0  0  0  0  0  0  0  0  0  0  0
   26.5034   13.6569   11.7717 S   0  0  0  0  0  0  0  0  0  0  0  0
   28.6128   13.6468   11.7631 S   0  0  0  0  0  0  0  0  0  0  0  0
   29.3034   15.1625   13.0575 S   0  0  0  0  0  0  0  0  0  0  0  0
   31.4128   15.1524   13.0489 S   0  0  0  0  0  0  0  0  0  0  0  0
   32.1034   16.6681   14.3433 S   0  0  0  0  0  0  0  0  0  0  0  0
   34.2128   16.6580   14.3347 S   0  0  0  0  0  0  0  0  0  0  0  0
   34.9034   18.1737   15.6291 S   0  0  0  0  0  0  0  0  0  0  0  0
   37.0127   18.1636   15.6205 S   0  0  0  0  0  0  0  0  0  0  0  0
   37.7034   19.6793   16.9149 S   0  0  0  0  0  0  0  0  0  0  0  0
   39.8127   19.6692   16.9062 S   0  0  0  0  0  0  0  0  0  0  0  0
   40.5034   21.1849   18.2006 S   0  0  0  0  0  0  0  0  0  0  0  0
   42.6127   21.1748   18.1920 S   0  0  0  0  0  0  0  0  0  0  0  0
   43.3034   22.6904   19.4864 S   0  0  0  0  0  0  0  0  0  0  0  0
   45.4127   22.6804   19.4778 S   0  0  0  0  0  0  0  0  0  0  0  0
   46.1033   24.1960   20.7722 S   0  0  0  0  0  0  0  0  0  0  0  0
   48.2127   24.1860   20.7636 S   0  0  0  0  0  0  0  0  0  0  0  0
   48.9033   25.7016   22.0579 S   0  0  0  0  0  0  0  0  0  0  0  0
   51.0127   25.6915   22.0493 S   0  0  0  0  0  0  0  0  0  0  0  0
   51.7033   27.2072   23.3437 S   0  0  0  0  0  0  0  0  0  0  0  0
   53.8127   27.1971   23.3351 S   0  0  0  0  0  0  0  0  0  0  0  0
   54.5033   28.7128   24.6295 S   0  0  0  0  0  0  0  0  0  0  0  0
   56.6127   28.7027   24.6209 S   0  0  0  0  0  0  0  0  0  0  0  0
   57.3033   30.2184   25.9153 S   0  0  0  0  0  0  0  0  0  0  0  0
   59.4127   30.2083   25.9067 S   0  0  0  0  0  0  0  0  0  0  0  0
   60.1033   31.7240   27.2010 S   0  0  0  0  0  0  0  0  0  0  0  0
   62.2127   31.7139   27.1924 S   0  0  0  0  0  0  0  0  0  0  0  0
   62.9033   33.2296   28.4868 S   0  0  0  0  0  0  0  0  0  0  0  0
   65.0127   33.2195   28.4782 S   0  0  0  0  0  0  0  0  0  0  0  0
   65.7033   34.7352   29.7726 S   0  0  0  0  0  0  0  0  0  0  0  0
   67.8127   34.7251   29.7640 S   0  0  0  0  0  0  0  0  0  0  0  0
   68.5033   36.2407   31.0584 S   0  0  0  0  0  0  0  0  0  0  0  0
   70.6127   36.2307   31.0498 S   0  0  0  0  0  0  0  0  0  0  0  0
   71.3033   37.7463   32.3441 S   0  0  0  0  0  0  0  0  0  0  0  0
   73.4126   37.7363   32.3355 S   0  0  0  0  0  0  0  0  0  0  0  0
   74.1033   39.2519   33.6299 S   0  0  0  0  0  0  0  0  0  0  0  0
   76.2126   39.2418   33.6213 S   0  0  0  0  0  0  0  0  0  0  0  0
   76.9033   40.7575   34.9157 S   0  0  0  0  0  0  0  0  0  0  0  0
   79.0126   40.7474   34.9071 S   0  0  0  0  0  0  0  0  0  0  0  0
   79.7033   42.2631   36.2014 S   0  0  0  0  0  0  0  0  0  0  0  0
   81.8126   42.2530   36.1928 S   0  0  0  0  0  0  0  0  0  0  0  0
   82.5032   43.7687   37.4872 S   0  0  0  0  0  0  0  0  0  0  0  0
   84.6126   43.7586   37.4786 S   0  0  0  0  0  0  0  0  0  0  0  0
   85.3032   45.2743   38.7730 S   0  0  0  0  0  0  0  0  0  0  0  0
   87.4126   45.2642   38.7644 S   0  0  0  0  0  0  0  0  0  0  0  0
   88.1032   46.7799   40.0588 S   0  0  0  0  0  0  0  0  0  0  0  0
   90.2126   46.7698   40.0502 S   0  0  0  0  0  0  0  0  0  0  0  0
   90.9032   48.2855   41.3445 S   0  0  0  0  0  0  0  0  0  0  0  0
   93.0126   48.2754   41.3359 S   0  0  0  0  0  0  0  0  0  0  0  0
   93.7032   49.7910   42.6303 S   0  0  0  0  0  0  0  0  0  0  0  0
   95.8125   49.7809   42.6217 S   0  0  0  0  0  0  0  0  0  0  0  0
   96.5030   51.2965   43.9160 S   0  0  0  0  0  0  0  0  0  0  0  0
   98.6120   51.2863   43.9072 S   0  0  0  0  0  0  0  0  0  0  0  0
   99.3019   52.8016   45.2013 S   0  0  0  0  0  0  0  0  0  0  0  0
  101.4097   52.7906   45.1920 S   0  0  0  0  0  0  0  0  0  0  0  0
  102.0973   54.3047   46.4848 S   0  0  0  0  0  0  0  0  0  0  0  0
  104.2004   54.2901   46.4731 S   0  0  0  0  0  0  0  0  0  0  0  0
  104.8801   55.8002   47.7621 S   0  0  0  0  0  0  0  0  0  0  0  0
  106.9685   55.7892   47.7179 S   0  0  0  0  0  0  0  0  0  0  0  0
  107.6410   57.2321   49.0542 S   0  0  0  0  0  0  0  0  0  0  0  0
  109.7124   57.2348   48.9708 S   0  0  0  0  0  0  0  0  0  0  0  0
  110.3121   55.4099   49.7081 S   0  0  0  0  0  0  0  0  0  0  0  0
    9.5919   -2.0161   13.8929 H   0  0  0  0  0  0  0  0  0  0  0  0
   12.0332   -2.8581   13.1969 H   0  0  0  0  0  0  0  0  0  0  0  0
   12.0454   -1.0877   13.3227 H   0  0  0  0  0  0  0  0  0  0  0  0
   12.1092    0.5818   11.0617 H   0  0  0  0  0  0  0  0  0  0  0  0
   10.6780   -0.2473   10.4002 H   0  0  0  0  0  0  0  0  0  0  0  0
   11.9628   -0.8552    8.3450 H   0  0  0  0  0  0  0  0  0  0  0  0
   13.3881   -0.0336    8.9808 H   0  0  0  0  0  0  0  0  0  0  0  0
   12.1569    2.1325    8.9394 H   0  0  0  0  0  0  0  0  0  0  0  0
   10.7163    1.3160    8.3072 H   0  0  0  0  0  0  0  0  0  0  0  0
   12.0202    0.6495    6.3888 H   0  0  0  0  0  0  0  0  0  0  0  0
   12.2458    3.4697    6.8830 H   0  0  0  0  0  0  0  0  0  0  0  0
  111.6530   55.5077   49.6323 H   0  0  0  0  0  0  0  0  0  0  0  0
  1  2  1  0  0  0  0
  1 82  1  0  0  0  0
  2  3  1  0  0  0  0
  2 83  1  0  0  0  0
  2 84  1  0  0  0  0
  3  4  1  0  0  0  0
  4  5  1  0  0  0  0
  4 85  1  0  0  0  0
  4 86  1  0  0  0  0
  5  6  1  0  0  0  0
  5 87  1  0  0  0  0
  5 88  1  0  0  0  0
  6  7  1  0  0  0  0
  6 89  1  0  0  0  0
  6 90  1  0  0  0  0
  7  8  1  0  0  0  0
  7 91  1  0  0  0  0
  8  9  1  0  0  0  0
  8 92  1  0  0  0  0
  9 10  1  0  0  0  0
 10 11  1  0  0  0  0
 11 12  1  0  0  0  0
 12 13  1  0  0  0  0
 13 14  1  0  0  0  0
 14 15  1  0  0  0  0
 15 16  1  0  0  0  0
 16 17  1  0  0  0  0
 17 18  1  0  0  0  0
 18 19  1  0  0  0  0
 19 20  1  0  0  0  0
 20 21  1  0  0  0  0
 21 22  1  0  0  0  0
 22 23  1  0  0  0  0
 23 24  1  0  0  0  0
 24 25  1  0  0  0  0
 25 26  1  0  0  0  0
 26 27  1  0  0  0  0
 27 28  1  0  0  0  0
 28 29  1  0  0  0  0
 29 30  1  0  0  0  0
 30 31  1  0  0  0  0
 31 32  1  0  0  0  0
 32 33  1  0  0  0  0
 33 34  1  0  0  0  0
 34 35  1  0  0  0  0
 35 36  1  0  0  0  0
 36 37  1  0  0  0  0
 37 38  1  0  0  0  0
 38 39  1  0  0  0  0
 39 40  1  0  0  0  0
 40 41  1  0  0  0  0
 41 42  1  0  0  0  0
 42 43  1  0  0  0  0
 43 44  1  0  0  0  0
 44 45  1  0  0  0  0
 45 46  1  0  0  0  0
 46 47  1  0  0  0  0
 47 48  1  0  0  0  0
 48 49  1  0  0  0  0
 49 50  1  0  0  0  0
 50 51  1  0  0  0  0
 51 52  1  0  0  0  0
 52 53  1  0  0  0  0
 53 54  1  0  0  0  0
 54 55  1  0  0  0  0
 55 56  1  0  0  0  0
 56 57  1  0  0  0  0
 57 58  1  0  0  0  0
 58 59  1  0  0  0  0
 59 60  1  0  0  0  0
 60 61  1  0  0  0  0
 61 62  1  0  0  0  0
 62 63  1  0  0  0  0
 63 64  1  0  0  0  0
 64 65  1  0  0  0  0
 65 66  1  0  0  0  0
 66 67  1  0  0  0  0
 67 68  1  0  0  0  0
 68 69  1  0  0  0  0
 69 70  1  0  0  0  0
 70 71  1  0  0  0  0
 71 72  1  0  0  0  0
 72 73  1  0  0  0  0
 73 74  1  0  0  0  0
 74 75  1  0  0  0  0
 75 76  1  0  0  0  0
 76 77  1  0  0  0  0
 77 78  1  0  0  0  0
 78 79  1  0  0  0  0
 79 80  1  0  0  0  0
 80 81  1  0  0  0  0
 81 93  1  0  0  0  0
M  END
$$$$
