
 OpenBabel04232216433D

 26 26  0  0  0  0  0  0  0  0999 V2000
   -0.1657    1.4929    0.4236 C   0  0  0  0  0  0  0  0  0  0  0  0
   -1.3321    0.7662   -0.1462 C   0  0  0  0  0  0  0  0  0  0  0  0
   -1.4363   -0.5662   -0.2136 C   0  0  0  0  0  0  0  0  0  0  0  0
   -0.5384   -1.5083    0.2109 O   0  0  0  0  0  0  0  0  0  0  0  0
    0.8210   -1.3155    0.2508 C   0  0  0  0  0  0  0  0  0  0  0  0
    1.5709   -0.2186    0.0085 C   0  0  0  0  0  0  0  0  0  0  0  0
    3.0745   -0.3761    0.0933 C   0  0  0  0  0  0  0  0  0  0  0  0
    1.0559    1.0584   -0.2606 N   0  0  0  0  0  0  0  0  0  0  0  0
    1.7975    2.1130   -0.9691 C   0  0  0  0  0  0  0  0  0  0  0  0
    2.0732    1.7555   -2.4343 C   0  0  0  0  0  0  0  0  0  0  0  0
    0.8150    1.5379   -3.2605 C   0  0  0  0  0  0  0  0  0  0  0  0
   -0.0891    1.3107    1.5059 H   0  0  0  0  0  0  0  0  0  0  0  0
   -0.3349    2.5690    0.3162 H   0  0  0  0  0  0  0  0  0  0  0  0
   -2.1535    1.3733   -0.5111 H   0  0  0  0  0  0  0  0  0  0  0  0
   -2.3194   -1.0588   -0.5995 H   0  0  0  0  0  0  0  0  0  0  0  0
    1.2691   -2.2733    0.4921 H   0  0  0  0  0  0  0  0  0  0  0  0
    3.3706   -1.3980    0.3556 H   0  0  0  0  0  0  0  0  0  0  0  0
    3.4791    0.2877    0.8650 H   0  0  0  0  0  0  0  0  0  0  0  0
    3.5626   -0.1445   -0.8553 H   0  0  0  0  0  0  0  0  0  0  0  0
    2.7409    2.3142   -0.4490 H   0  0  0  0  0  0  0  0  0  0  0  0
    1.2433    3.0601   -0.9559 H   0  0  0  0  0  0  0  0  0  0  0  0
    2.6949    0.8594   -2.5117 H   0  0  0  0  0  0  0  0  0  0  0  0
    2.6515    2.5710   -2.8851 H   0  0  0  0  0  0  0  0  0  0  0  0
    0.2237    0.7005   -2.8795 H   0  0  0  0  0  0  0  0  0  0  0  0
    1.0863    1.3051   -4.2955 H   0  0  0  0  0  0  0  0  0  0  0  0
    0.1877    2.4344   -3.2670 H   0  0  0  0  0  0  0  0  0  0  0  0
  1  2  1  0  0  0  0
  1  8  1  0  0  0  0
  1 12  1  0  0  0  0
  1 13  1  0  0  0  0
  2  3  2  0  0  0  0
  2 14  1  0  0  0  0
  3  4  1  0  0  0  0
  3 15  1  0  0  0  0
  4  5  1  0  0  0  0
  5  6  2  0  0  0  0
  5 16  1  0  0  0  0
  6  7  1  0  0  0  0
  6  8  1  0  0  0  0
  7 17  1  0  0  0  0
  7 18  1  0  0  0  0
  7 19  1  0  0  0  0
  8  9  1  0  0  0  0
  9 10  1  0  0  0  0
  9 20  1  0  0  0  0
  9 21  1  0  0  0  0
 10 11  1  0  0  0  0
 10 22  1  0  0  0  0
 10 23  1  0  0  0  0
 11 24  1  0  0  0  0
 11 25  1  0  0  0  0
 11 26  1  0  0  0  0
M  END
$$$$
