
 OpenBabel04232216483D

229229  0  0  0  0  0  0  0  0999 V2000
   36.2205   32.2801   -4.2875 C   0  0  0  0  0  0  0  0  0  0  0  0
   37.2514   31.5934   -5.1904 C   0  0  0  0  0  0  0  0  0  0  0  0
   38.2553   32.5461   -6.0561 C   0  0  0  0  0  0  0  0  0  0  0  0
   39.1462   31.8691   -6.8391 C   0  0  0  0  0  0  0  0  0  0  0  0
   37.3991   30.1827   -5.2898 C   0  0  0  0  0  0  0  0  0  0  0  0
   36.3012   29.1230   -4.3163 S   0  0  0  0  0  0  0  0  0  0  0  0
   35.1842   30.3769   -3.1210 S   0  0  0  0  0  0  0  0  0  0  0  0
   34.0510   31.4240   -4.3441 C   0  0  0  0  0  0  0  0  0  0  0  0
   33.3876   30.6461   -5.2545 C   0  0  0  0  0  0  0  0  0  0  0  0
   32.6248   31.5040   -6.2670 C   0  0  0  0  0  0  0  0  0  0  0  0
   31.7404   30.6330   -7.1538 C   0  0  0  0  0  0  0  0  0  0  0  0
   30.9863   31.4917   -8.1575 C   0  0  0  0  0  0  0  0  0  0  0  0
   30.1078   30.6185   -9.0370 C   0  0  0  0  0  0  0  0  0  0  0  0
   29.3572   31.4786  -10.0370 C   0  0  0  0  0  0  0  0  0  0  0  0
   28.4797   30.6056  -10.9154 C   0  0  0  0  0  0  0  0  0  0  0  0
   27.7301   31.4665  -11.9143 C   0  0  0  0  0  0  0  0  0  0  0  0
   26.8537   30.5931  -12.7914 C   0  0  0  0  0  0  0  0  0  0  0  0
   26.1028   31.4540  -13.7887 C   0  0  0  0  0  0  0  0  0  0  0  0
   25.2265   30.5806  -14.6657 C   0  0  0  0  0  0  0  0  0  0  0  0
   24.4755   31.4415  -15.6631 C   0  0  0  0  0  0  0  0  0  0  0  0
   23.5992   30.5681  -16.5400 C   0  0  0  0  0  0  0  0  0  0  0  0
   22.8483   31.4290  -17.5374 C   0  0  0  0  0  0  0  0  0  0  0  0
   21.9720   30.5556  -18.4144 C   0  0  0  0  0  0  0  0  0  0  0  0
   21.2210   31.4165  -19.4117 C   0  0  0  0  0  0  0  0  0  0  0  0
   20.3447   30.5431  -20.2887 C   0  0  0  0  0  0  0  0  0  0  0  0
   19.5938   31.4040  -21.2860 C   0  0  0  0  0  0  0  0  0  0  0  0
   18.7175   30.5306  -22.1630 C   0  0  0  0  0  0  0  0  0  0  0  0
   17.9651   31.3917  -23.1590 C   0  0  0  0  0  0  0  0  0  0  0  0
   17.0888   30.5183  -24.0360 C   0  0  0  0  0  0  0  0  0  0  0  0
   16.3348   31.3796  -25.0307 C   0  0  0  0  0  0  0  0  0  0  0  0
   15.4585   30.5062  -25.9077 C   0  0  0  0  0  0  0  0  0  0  0  0
   14.7061   31.3673  -26.9037 C   0  0  0  0  0  0  0  0  0  0  0  0
   13.8298   30.4939  -27.7806 C   0  0  0  0  0  0  0  0  0  0  0  0
   13.0788   31.3548  -28.7780 C   0  0  0  0  0  0  0  0  0  0  0  0
   12.2040   30.4812  -29.6563 C   0  0  0  0  0  0  0  0  0  0  0  0
   11.4516   31.3423  -30.6523 C   0  0  0  0  0  0  0  0  0  0  0  0
   10.5768   30.4687  -31.5306 C   0  0  0  0  0  0  0  0  0  0  0  0
    9.8244   31.3298  -32.5266 C   0  0  0  0  0  0  0  0  0  0  0  0
    8.9496   30.4562  -33.4049 C   0  0  0  0  0  0  0  0  0  0  0  0
    8.1973   31.3170  -34.4002 C   0  0  0  0  0  0  0  0  0  0  0  0
    7.3219   30.4434  -35.2791 C   0  0  0  0  0  0  0  0  0  0  0  0
    6.5680   31.3046  -36.2740 C   0  0  0  0  0  0  0  0  0  0  0  0
    7.5498   32.0618  -37.1484 C   0  0  0  0  0  0  0  0  0  0  0  0
    6.7962   32.9245  -38.1411 C   0  0  0  0  0  0  0  0  0  0  0  0
    7.7779   33.6826  -39.0137 C   0  0  0  0  0  0  0  0  0  0  0  0
    7.0239   34.5470  -40.0057 C   0  0  0  0  0  0  0  0  0  0  0  0
    8.0056   35.3036  -40.8796 C   0  0  0  0  0  0  0  0  0  0  0  0
    7.2516   36.1664  -41.8730 C   0  0  0  0  0  0  0  0  0  0  0  0
    8.2334   36.9230  -42.7468 C   0  0  0  0  0  0  0  0  0  0  0  0
    7.4794   37.7859  -43.7402 C   0  0  0  0  0  0  0  0  0  0  0  0
    8.4611   38.5425  -44.6141 C   0  0  0  0  0  0  0  0  0  0  0  0
    7.7071   39.4068  -45.6061 C   0  0  0  0  0  0  0  0  0  0  0  0
    8.6888   40.1634  -46.4800 C   0  0  0  0  0  0  0  0  0  0  0  0
    7.9349   41.0293  -47.4707 C   0  0  0  0  0  0  0  0  0  0  0  0
    8.9166   41.7859  -48.3446 C   0  0  0  0  0  0  0  0  0  0  0  0
    8.1626   42.6533  -49.3340 C   0  0  0  0  0  0  0  0  0  0  0  0
    9.1444   43.4099  -50.2078 C   0  0  0  0  0  0  0  0  0  0  0  0
    8.3904   44.2758  -51.1986 C   0  0  0  0  0  0  0  0  0  0  0  0
    9.3721   45.0339  -52.0711 C   0  0  0  0  0  0  0  0  0  0  0  0
    8.6182   45.9013  -53.0605 C   0  0  0  0  0  0  0  0  0  0  0  0
    9.5999   46.6580  -53.9344 C   0  0  0  0  0  0  0  0  0  0  0  0
    8.8459   47.5238  -54.9251 C   0  0  0  0  0  0  0  0  0  0  0  0
    9.8276   48.2820  -55.7976 C   0  0  0  0  0  0  0  0  0  0  0  0
    9.0737   49.1463  -56.7897 C   0  0  0  0  0  0  0  0  0  0  0  0
   10.0554   49.9060  -57.6609 C   0  0  0  0  0  0  0  0  0  0  0  0
    9.3014   50.7688  -58.6543 C   0  0  0  0  0  0  0  0  0  0  0  0
   10.2831   51.5285  -59.5255 C   0  0  0  0  0  0  0  0  0  0  0  0
    9.5291   52.3928  -60.5176 C   0  0  0  0  0  0  0  0  0  0  0  0
   10.5109   53.1509  -61.3901 C   0  0  0  0  0  0  0  0  0  0  0  0
    9.7569   54.0168  -62.3808 C   0  0  0  0  0  0  0  0  0  0  0  0
   10.7387   54.7765  -63.2520 C   0  0  0  0  0  0  0  0  0  0  0  0
    9.9847   55.6408  -64.2440 C   0  0  0  0  0  0  0  0  0  0  0  0
   10.9665   56.4003  -65.1151 C   0  0  0  0  0  0  0  0  0  0  0  0
   10.2120   57.2635  -66.1090 C   0  0  0  0  0  0  0  0  0  0  0  0
   11.1932   58.0256  -66.9798 C   0  0  0  0  0  0  0  0  0  0  0  0
   10.4395   58.8895  -67.9745 C   0  0  0  0  0  0  0  0  0  0  0  0
   11.4201   59.6530  -68.8469 C   0  0  0  0  0  0  0  0  0  0  0  0
   10.6712   60.5224  -69.8448 C   0  0  0  0  0  0  0  0  0  0  0  0
   11.6519   61.2825  -70.7134 C   0  0  0  0  0  0  0  0  0  0  0  0
   36.2096   33.3526   -4.3486 H   0  0  0  0  0  0  0  0  0  0  0  0
   36.3306   31.9260   -3.2651 H   0  0  0  0  0  0  0  0  0  0  0  0
   35.5662   31.8257   -4.2865 H   0  0  0  0  0  0  0  0  0  0  0  0
   38.1662   33.6391   -6.0108 H   0  0  0  0  0  0  0  0  0  0  0  0
   39.8448   31.3632   -7.4446 H   0  0  0  0  0  0  0  0  0  0  0  0
   34.8398   32.1666   -5.2871 H   0  0  0  0  0  0  0  0  0  0  0  0
   33.6658   32.2280   -3.8144 H   0  0  0  0  0  0  0  0  0  0  0  0
   32.6625   30.0888   -4.6515 H   0  0  0  0  0  0  0  0  0  0  0  0
   33.9913   29.9132   -5.8042 H   0  0  0  0  0  0  0  0  0  0  0  0
   33.3293   32.0622   -6.8953 H   0  0  0  0  0  0  0  0  0  0  0  0
   32.0012   32.2387   -5.7436 H   0  0  0  0  0  0  0  0  0  0  0  0
   31.0246   30.0745   -6.5381 H   0  0  0  0  0  0  0  0  0  0  0  0
   32.3531   29.8966   -7.6883 H   0  0  0  0  0  0  0  0  0  0  0  0
   31.6958   32.0496   -8.7812 H   0  0  0  0  0  0  0  0  0  0  0  0
   30.3667   32.2276   -7.6303 H   0  0  0  0  0  0  0  0  0  0  0  0
   29.3946   30.0609   -8.4178 H   0  0  0  0  0  0  0  0  0  0  0  0
   30.7237   29.8828   -9.5686 H   0  0  0  0  0  0  0  0  0  0  0  0
   30.0681   32.0366  -10.6589 H   0  0  0  0  0  0  0  0  0  0  0  0
   28.7390   32.2146   -9.5081 H   0  0  0  0  0  0  0  0  0  0  0  0
   27.7676   30.0481  -10.2948 H   0  0  0  0  0  0  0  0  0  0  0  0
   29.0968   29.8701  -11.4457 H   0  0  0  0  0  0  0  0  0  0  0  0
   28.4419   32.0244  -12.5351 H   0  0  0  0  0  0  0  0  0  0  0  0
   27.1129   32.2024  -11.3844 H   0  0  0  0  0  0  0  0  0  0  0  0
   26.1428   30.0342  -12.1704 H   0  0  0  0  0  0  0  0  0  0  0  0
   27.4711   29.8582  -13.3224 H   0  0  0  0  0  0  0  0  0  0  0  0
   26.8137   32.0129  -14.4097 H   0  0  0  0  0  0  0  0  0  0  0  0
   25.4854   32.1890  -13.2577 H   0  0  0  0  0  0  0  0  0  0  0  0
   24.5155   30.0217  -14.0448 H   0  0  0  0  0  0  0  0  0  0  0  0
   25.8438   29.8457  -15.1968 H   0  0  0  0  0  0  0  0  0  0  0  0
   25.1864   32.0005  -16.2840 H   0  0  0  0  0  0  0  0  0  0  0  0
   23.8581   32.1765  -15.1320 H   0  0  0  0  0  0  0  0  0  0  0  0
   22.8883   30.0092  -15.9191 H   0  0  0  0  0  0  0  0  0  0  0  0
   24.2166   29.8332  -17.0712 H   0  0  0  0  0  0  0  0  0  0  0  0
   23.5592   31.9880  -18.1584 H   0  0  0  0  0  0  0  0  0  0  0  0
   22.2309   32.1640  -17.0063 H   0  0  0  0  0  0  0  0  0  0  0  0
   21.2610   29.9967  -17.7935 H   0  0  0  0  0  0  0  0  0  0  0  0
   22.5893   29.8207  -18.9455 H   0  0  0  0  0  0  0  0  0  0  0  0
   21.9319   31.9755  -20.0327 H   0  0  0  0  0  0  0  0  0  0  0  0
   20.6037   32.1515  -18.8806 H   0  0  0  0  0  0  0  0  0  0  0  0
   19.6338   29.9842  -19.6678 H   0  0  0  0  0  0  0  0  0  0  0  0
   20.9621   29.8082  -20.8198 H   0  0  0  0  0  0  0  0  0  0  0  0
   20.3047   31.9630  -21.9070 H   0  0  0  0  0  0  0  0  0  0  0  0
   18.9764   32.1390  -20.7550 H   0  0  0  0  0  0  0  0  0  0  0  0
   18.0076   29.9706  -21.5419 H   0  0  0  0  0  0  0  0  0  0  0  0
   19.3350   29.7966  -22.6952 H   0  0  0  0  0  0  0  0  0  0  0  0
   18.6750   31.9518  -23.7801 H   0  0  0  0  0  0  0  0  0  0  0  0
   17.3475   32.1257  -22.6268 H   0  0  0  0  0  0  0  0  0  0  0  0
   16.3798   29.9572  -23.4148 H   0  0  0  0  0  0  0  0  0  0  0  0
   17.7065   29.7853  -24.5693 H   0  0  0  0  0  0  0  0  0  0  0  0
   17.0438   31.9407  -25.6519 H   0  0  0  0  0  0  0  0  0  0  0  0
   15.7171   32.1127  -24.4974 H   0  0  0  0  0  0  0  0  0  0  0  0
   14.7486   29.9462  -25.2866 H   0  0  0  0  0  0  0  0  0  0  0  0
   16.0760   29.7722  -26.4398 H   0  0  0  0  0  0  0  0  0  0  0  0
   15.4160   31.9274  -27.5247 H   0  0  0  0  0  0  0  0  0  0  0  0
   14.0885   32.1013  -26.3715 H   0  0  0  0  0  0  0  0  0  0  0  0
   13.1189   29.9350  -27.1597 H   0  0  0  0  0  0  0  0  0  0  0  0
   14.4471   29.7590  -28.3117 H   0  0  0  0  0  0  0  0  0  0  0  0
   13.7897   31.9149  -29.3980 H   0  0  0  0  0  0  0  0  0  0  0  0
   12.4604   32.0888  -28.2469 H   0  0  0  0  0  0  0  0  0  0  0  0
   11.4941   29.9201  -29.0362 H   0  0  0  0  0  0  0  0  0  0  0  0
   12.8227   29.7482  -30.1885 H   0  0  0  0  0  0  0  0  0  0  0  0
   12.1615   31.9035  -31.2724 H   0  0  0  0  0  0  0  0  0  0  0  0
   10.8330   32.0754  -30.1201 H   0  0  0  0  0  0  0  0  0  0  0  0
    9.8669   29.9076  -30.9105 H   0  0  0  0  0  0  0  0  0  0  0  0
   11.1955   29.7357  -32.0628 H   0  0  0  0  0  0  0  0  0  0  0  0
   10.5343   31.8910  -33.1467 H   0  0  0  0  0  0  0  0  0  0  0  0
    9.2057   32.0629  -31.9944 H   0  0  0  0  0  0  0  0  0  0  0  0
    8.2397   29.8951  -32.7848 H   0  0  0  0  0  0  0  0  0  0  0  0
    9.5682   29.7232  -33.9371 H   0  0  0  0  0  0  0  0  0  0  0  0
    8.9078   31.8779  -35.0196 H   0  0  0  0  0  0  0  0  0  0  0  0
    7.5785   32.0504  -33.8687 H   0  0  0  0  0  0  0  0  0  0  0  0
    6.6133   29.8816  -34.6591 H   0  0  0  0  0  0  0  0  0  0  0  0
    7.9411   29.7115  -35.8125 H   0  0  0  0  0  0  0  0  0  0  0  0
    5.9209   32.0119  -35.7407 H   0  0  0  0  0  0  0  0  0  0  0  0
    5.9210   30.6760  -36.8972 H   0  0  0  0  0  0  0  0  0  0  0  0
    8.1966   31.3546  -37.6821 H   0  0  0  0  0  0  0  0  0  0  0  0
    8.1980   32.6902  -36.5256 H   0  0  0  0  0  0  0  0  0  0  0  0
    6.1486   33.6305  -37.6068 H   0  0  0  0  0  0  0  0  0  0  0  0
    6.1489   32.2965  -38.7657 H   0  0  0  0  0  0  0  0  0  0  0  0
    8.4245   32.9765  -39.5491 H   0  0  0  0  0  0  0  0  0  0  0  0
    8.4261   34.3095  -38.3890 H   0  0  0  0  0  0  0  0  0  0  0  0
    6.3784   35.2540  -39.4703 H   0  0  0  0  0  0  0  0  0  0  0  0
    6.3746   33.9203  -40.6294 H   0  0  0  0  0  0  0  0  0  0  0  0
    8.6521   34.5966  -41.4139 H   0  0  0  0  0  0  0  0  0  0  0  0
    8.6540   35.9314  -40.2560 H   0  0  0  0  0  0  0  0  0  0  0  0
    6.6052   36.8734  -41.3386 H   0  0  0  0  0  0  0  0  0  0  0  0
    6.6033   35.5386  -42.4965 H   0  0  0  0  0  0  0  0  0  0  0  0
    8.8798   36.2160  -43.2812 H   0  0  0  0  0  0  0  0  0  0  0  0
    8.8817   37.5508  -42.1233 H   0  0  0  0  0  0  0  0  0  0  0  0
    6.8329   38.4929  -43.2059 H   0  0  0  0  0  0  0  0  0  0  0  0
    6.8310   37.1581  -44.3638 H   0  0  0  0  0  0  0  0  0  0  0  0
    9.1066   37.8354  -45.1495 H   0  0  0  0  0  0  0  0  0  0  0  0
    9.1104   39.1692  -43.9904 H   0  0  0  0  0  0  0  0  0  0  0  0
    7.0616   40.1139  -45.0707 H   0  0  0  0  0  0  0  0  0  0  0  0
    7.0578   38.7801  -46.2298 H   0  0  0  0  0  0  0  0  0  0  0  0
    9.3334   39.4563  -47.0165 H   0  0  0  0  0  0  0  0  0  0  0  0
    9.3391   40.7890  -45.8562 H   0  0  0  0  0  0  0  0  0  0  0  0
    7.2903   41.7364  -46.9342 H   0  0  0  0  0  0  0  0  0  0  0  0
    7.2846   40.4037  -48.0945 H   0  0  0  0  0  0  0  0  0  0  0  0
    9.5602   41.0788  -48.8822 H   0  0  0  0  0  0  0  0  0  0  0  0
    9.5678   42.4104  -47.7207 H   0  0  0  0  0  0  0  0  0  0  0  0
    7.5190   43.3604  -48.7964 H   0  0  0  0  0  0  0  0  0  0  0  0
    7.5114   42.0288  -49.9579 H   0  0  0  0  0  0  0  0  0  0  0  0
    9.7889   42.7028  -50.7444 H   0  0  0  0  0  0  0  0  0  0  0  0
    9.7946   44.0355  -49.5840 H   0  0  0  0  0  0  0  0  0  0  0  0
    7.7447   44.9819  -50.6621 H   0  0  0  0  0  0  0  0  0  0  0  0
    7.7412   43.6501  -51.8233 H   0  0  0  0  0  0  0  0  0  0  0  0
   10.0168   44.3278  -52.6087 H   0  0  0  0  0  0  0  0  0  0  0  0
   10.0223   45.6586  -51.4462 H   0  0  0  0  0  0  0  0  0  0  0  0
    7.9745   46.6085  -52.5229 H   0  0  0  0  0  0  0  0  0  0  0  0
    7.9669   45.2769  -53.6844 H   0  0  0  0  0  0  0  0  0  0  0  0
   10.2444   45.9509  -54.4709 H   0  0  0  0  0  0  0  0  0  0  0  0
   10.2501   47.2835  -53.3106 H   0  0  0  0  0  0  0  0  0  0  0  0
    8.2002   48.2300  -54.3886 H   0  0  0  0  0  0  0  0  0  0  0  0
    8.1967   46.8981  -55.5499 H   0  0  0  0  0  0  0  0  0  0  0  0
   10.4742   47.5759  -56.3331 H   0  0  0  0  0  0  0  0  0  0  0  0
   10.4759   48.9088  -55.1730 H   0  0  0  0  0  0  0  0  0  0  0  0
    8.4260   49.8514  -56.2543 H   0  0  0  0  0  0  0  0  0  0  0  0
    8.4265   48.5193  -57.4153 H   0  0  0  0  0  0  0  0  0  0  0  0
   10.7040   49.2009  -58.1952 H   0  0  0  0  0  0  0  0  0  0  0  0
   10.7016   50.5341  -57.0354 H   0  0  0  0  0  0  0  0  0  0  0  0
    8.6528   51.4739  -58.1200 H   0  0  0  0  0  0  0  0  0  0  0  0
    8.6552   50.1407  -59.2798 H   0  0  0  0  0  0  0  0  0  0  0  0
   10.9308   50.8234  -60.0609 H   0  0  0  0  0  0  0  0  0  0  0  0
   10.9303   52.1555  -58.8999 H   0  0  0  0  0  0  0  0  0  0  0  0
    8.8825   53.0989  -59.9822 H   0  0  0  0  0  0  0  0  0  0  0  0
    8.8809   51.7660  -61.1422 H   0  0  0  0  0  0  0  0  0  0  0  0
   11.1565   52.4448  -61.9266 H   0  0  0  0  0  0  0  0  0  0  0  0
   11.1601   53.7767  -60.7653 H   0  0  0  0  0  0  0  0  0  0  0  0
    9.1102   54.7219  -61.8443 H   0  0  0  0  0  0  0  0  0  0  0  0
    9.1088   53.3909  -63.0065 H   0  0  0  0  0  0  0  0  0  0  0  0
   11.3863   54.0713  -63.7874 H   0  0  0  0  0  0  0  0  0  0  0  0
   11.3858   55.4035  -62.6264 H   0  0  0  0  0  0  0  0  0  0  0  0
    9.3370   56.3459  -63.7087 H   0  0  0  0  0  0  0  0  0  0  0  0
    9.3375   55.0138  -64.8697 H   0  0  0  0  0  0  0  0  0  0  0  0
   11.6151   55.6955  -65.6496 H   0  0  0  0  0  0  0  0  0  0  0  0
   11.6127   57.0286  -64.4899 H   0  0  0  0  0  0  0  0  0  0  0  0
    9.5622   57.9674  -65.5744 H   0  0  0  0  0  0  0  0  0  0  0  0
    9.5668   56.6350  -66.7352 H   0  0  0  0  0  0  0  0  0  0  0  0
   11.8430   57.3209  -67.5133 H   0  0  0  0  0  0  0  0  0  0  0  0
   11.8384   58.6532  -66.3527 H   0  0  0  0  0  0  0  0  0  0  0  0
    9.7901   59.5926  -67.4387 H   0  0  0  0  0  0  0  0  0  0  0  0
    9.7947   58.2599  -68.5997 H   0  0  0  0  0  0  0  0  0  0  0  0
   12.0693   58.9466  -69.3792 H   0  0  0  0  0  0  0  0  0  0  0  0
   12.0666   60.2774  -68.2178 H   0  0  0  0  0  0  0  0  0  0  0  0
   10.0241   61.2291  -69.3123 H   0  0  0  0  0  0  0  0  0  0  0  0
   10.0268   59.8977  -70.4743 H   0  0  0  0  0  0  0  0  0  0  0  0
   12.2910   61.9258  -70.0999 H   0  0  0  0  0  0  0  0  0  0  0  0
   11.1167   61.9083  -71.4317 H   0  0  0  0  0  0  0  0  0  0  0  0
   12.2937   60.5890  -71.2666 H   0  0  0  0  0  0  0  0  0  0  0  0
  1  2  1  0  0  0  0
  1 80  1  0  0  0  0
  1 81  1  0  0  0  0
  1 82  1  0  0  0  0
  2  3  1  0  0  0  0
  2  5  2  0  0  0  0
  3  4  2  0  0  0  0
  3 83  1  0  0  0  0
  4  5  1  0  0  0  0
  4 84  1  0  0  0  0
  5  6  1  0  0  0  0
  6  7  1  0  0  0  0
  7  8  1  0  0  0  0
  8  9  1  0  0  0  0
  8 85  1  0  0  0  0
  8 86  1  0  0  0  0
  9 10  1  0  0  0  0
  9 87  1  0  0  0  0
  9 88  1  0  0  0  0
 10 11  1  0  0  0  0
 10 89  1  0  0  0  0
 10 90  1  0  0  0  0
 11 12  1  0  0  0  0
 11 91  1  0  0  0  0
 11 92  1  0  0  0  0
 12 13  1  0  0  0  0
 12 93  1  0  0  0  0
 12 94  1  0  0  0  0
 13 14  1  0  0  0  0
 13 95  1  0  0  0  0
 13 96  1  0  0  0  0
 14 15  1  0  0  0  0
 14 97  1  0  0  0  0
 14 98  1  0  0  0  0
 15 16  1  0  0  0  0
 15 99  1  0  0  0  0
 15100  1  0  0  0  0
 16 17  1  0  0  0  0
 16101  1  0  0  0  0
 16102  1  0  0  0  0
 17 18  1  0  0  0  0
 17103  1  0  0  0  0
 17104  1  0  0  0  0
 18 19  1  0  0  0  0
 18105  1  0  0  0  0
 18106  1  0  0  0  0
 19 20  1  0  0  0  0
 19107  1  0  0  0  0
 19108  1  0  0  0  0
 20 21  1  0  0  0  0
 20109  1  0  0  0  0
 20110  1  0  0  0  0
 21 22  1  0  0  0  0
 21111  1  0  0  0  0
 21112  1  0  0  0  0
 22 23  1  0  0  0  0
 22113  1  0  0  0  0
 22114  1  0  0  0  0
 23 24  1  0  0  0  0
 23115  1  0  0  0  0
 23116  1  0  0  0  0
 24 25  1  0  0  0  0
 24117  1  0  0  0  0
 24118  1  0  0  0  0
 25 26  1  0  0  0  0
 25119  1  0  0  0  0
 25120  1  0  0  0  0
 26 27  1  0  0  0  0
 26121  1  0  0  0  0
 26122  1  0  0  0  0
 27 28  1  0  0  0  0
 27123  1  0  0  0  0
 27124  1  0  0  0  0
 28 29  1  0  0  0  0
 28125  1  0  0  0  0
 28126  1  0  0  0  0
 29 30  1  0  0  0  0
 29127  1  0  0  0  0
 29128  1  0  0  0  0
 30 31  1  0  0  0  0
 30129  1  0  0  0  0
 30130  1  0  0  0  0
 31 32  1  0  0  0  0
 31131  1  0  0  0  0
 31132  1  0  0  0  0
 32 33  1  0  0  0  0
 32133  1  0  0  0  0
 32134  1  0  0  0  0
 33 34  1  0  0  0  0
 33135  1  0  0  0  0
 33136  1  0  0  0  0
 34 35  1  0  0  0  0
 34137  1  0  0  0  0
 34138  1  0  0  0  0
 35 36  1  0  0  0  0
 35139  1  0  0  0  0
 35140  1  0  0  0  0
 36 37  1  0  0  0  0
 36141  1  0  0  0  0
 36142  1  0  0  0  0
 37 38  1  0  0  0  0
 37143  1  0  0  0  0
 37144  1  0  0  0  0
 38 39  1  0  0  0  0
 38145  1  0  0  0  0
 38146  1  0  0  0  0
 39 40  1  0  0  0  0
 39147  1  0  0  0  0
 39148  1  0  0  0  0
 40 41  1  0  0  0  0
 40149  1  0  0  0  0
 40150  1  0  0  0  0
 41 42  1  0  0  0  0
 41151  1  0  0  0  0
 41152  1  0  0  0  0
 42 43  1  0  0  0  0
 42153  1  0  0  0  0
 42154  1  0  0  0  0
 43 44  1  0  0  0  0
 43155  1  0  0  0  0
 43156  1  0  0  0  0
 44 45  1  0  0  0  0
 44157  1  0  0  0  0
 44158  1  0  0  0  0
 45 46  1  0  0  0  0
 45159  1  0  0  0  0
 45160  1  0  0  0  0
 46 47  1  0  0  0  0
 46161  1  0  0  0  0
 46162  1  0  0  0  0
 47 48  1  0  0  0  0
 47163  1  0  0  0  0
 47164  1  0  0  0  0
 48 49  1  0  0  0  0
 48165  1  0  0  0  0
 48166  1  0  0  0  0
 49 50  1  0  0  0  0
 49167  1  0  0  0  0
 49168  1  0  0  0  0
 50 51  1  0  0  0  0
 50169  1  0  0  0  0
 50170  1  0  0  0  0
 51 52  1  0  0  0  0
 51171  1  0  0  0  0
 51172  1  0  0  0  0
 52 53  1  0  0  0  0
 52173  1  0  0  0  0
 52174  1  0  0  0  0
 53 54  1  0  0  0  0
 53175  1  0  0  0  0
 53176  1  0  0  0  0
 54 55  1  0  0  0  0
 54177  1  0  0  0  0
 54178  1  0  0  0  0
 55 56  1  0  0  0  0
 55179  1  0  0  0  0
 55180  1  0  0  0  0
 56 57  1  0  0  0  0
 56181  1  0  0  0  0
 56182  1  0  0  0  0
 57 58  1  0  0  0  0
 57183  1  0  0  0  0
 57184  1  0  0  0  0
 58 59  1  0  0  0  0
 58185  1  0  0  0  0
 58186  1  0  0  0  0
 59 60  1  0  0  0  0
 59187  1  0  0  0  0
 59188  1  0  0  0  0
 60 61  1  0  0  0  0
 60189  1  0  0  0  0
 60190  1  0  0  0  0
 61 62  1  0  0  0  0
 61191  1  0  0  0  0
 61192  1  0  0  0  0
 62 63  1  0  0  0  0
 62193  1  0  0  0  0
 62194  1  0  0  0  0
 63 64  1  0  0  0  0
 63195  1  0  0  0  0
 63196  1  0  0  0  0
 64 65  1  0  0  0  0
 64197  1  0  0  0  0
 64198  1  0  0  0  0
 65 66  1  0  0  0  0
 65199  1  0  0  0  0
 65200  1  0  0  0  0
 66 67  1  0  0  0  0
 66201  1  0  0  0  0
 66202  1  0  0  0  0
 67 68  1  0  0  0  0
 67203  1  0  0  0  0
 67204  1  0  0  0  0
 68 69  1  0  0  0  0
 68205  1  0  0  0  0
 68206  1  0  0  0  0
 69 70  1  0  0  0  0
 69207  1  0  0  0  0
 69208  1  0  0  0  0
 70 71  1  0  0  0  0
 70209  1  0  0  0  0
 70210  1  0  0  0  0
 71 72  1  0  0  0  0
 71211  1  0  0  0  0
 71212  1  0  0  0  0
 72 73  1  0  0  0  0
 72213  1  0  0  0  0
 72214  1  0  0  0  0
 73 74  1  0  0  0  0
 73215  1  0  0  0  0
 73216  1  0  0  0  0
 74 75  1  0  0  0  0
 74217  1  0  0  0  0
 74218  1  0  0  0  0
 75 76  1  0  0  0  0
 75219  1  0  0  0  0
 75220  1  0  0  0  0
 76 77  1  0  0  0  0
 76221  1  0  0  0  0
 76222  1  0  0  0  0
 77 78  1  0  0  0  0
 77223  1  0  0  0  0
 77224  1  0  0  0  0
 78 79  1  0  0  0  0
 78225  1  0  0  0  0
 78226  1  0  0  0  0
 79227  1  0  0  0  0
 79228  1  0  0  0  0
 79229  1  0  0  0  0
M  END
$$$$
