
 OpenBabel04232216493D

 49 49  0  0  1  0  0  0  0  0999 V2000
    0.7619   -0.1080   -0.1080 C   0  0  0  0  0  0  0  0  0  0  0  0
    2.2908   -0.0814   -0.0699 C   0  0  3  0  0  0  0  0  0  0  0  0
    2.8288   -1.3079    0.7093 C   0  0  0  0  0  0  0  0  0  0  0  0
    3.2160   -2.4748   -0.2174 C   0  0  0  0  0  0  0  0  0  0  0  0
    4.7086   -2.8044   -0.0916 C   0  0  0  0  0  0  0  0  0  0  0  0
    5.2095   -3.7230   -1.2183 C   0  0  0  0  0  0  0  0  0  0  0  0
    6.5931   -3.3174   -1.7479 C   0  0  0  0  0  0  0  0  0  0  0  0
    6.5503   -1.9449   -2.3661 C   0  0  0  0  0  0  0  0  0  0  0  0
    7.1745   -0.8740   -1.8493 C   0  0  0  0  0  0  0  0  0  0  0  0
    6.9475    0.5242   -2.3568 C   0  0  0  0  0  0  0  0  0  0  0  0
    7.5689    1.5708   -1.4255 C   0  0  0  0  0  0  0  0  0  0  0  0
    7.1299    3.0096   -1.7222 C   0  0  0  0  0  0  0  0  0  0  0  0
    6.0140    3.5239   -0.7965 C   0  0  0  0  0  0  0  0  0  0  0  0
    4.6134    3.1381   -1.2656 C   0  0  0  0  0  0  0  0  0  0  0  0
    3.5310    3.5312   -0.2479 C   0  0  0  0  0  0  0  0  0  0  0  0
    2.4043    2.4906   -0.2090 C   0  0  0  0  0  0  0  0  0  0  0  0
    2.8316    1.2219    0.5489 C   0  0  0  0  0  0  0  0  0  0  0  0
    0.4004   -1.0619   -0.5059 H   0  0  0  0  0  0  0  0  0  0  0  0
    0.3635    0.6857   -0.7475 H   0  0  0  0  0  0  0  0  0  0  0  0
    0.3401    0.0249    0.8944 H   0  0  0  0  0  0  0  0  0  0  0  0
    2.6588   -0.1161   -1.1029 H   0  0  0  0  0  0  0  0  0  0  0  0
    2.0721   -1.6586    1.4226 H   0  0  0  0  0  0  0  0  0  0  0  0
    3.6923   -1.0175    1.3208 H   0  0  0  0  0  0  0  0  0  0  0  0
    2.9770   -2.2370   -1.2600 H   0  0  0  0  0  0  0  0  0  0  0  0
    2.6303   -3.3638    0.0450 H   0  0  0  0  0  0  0  0  0  0  0  0
    4.8956   -3.2861    0.8763 H   0  0  0  0  0  0  0  0  0  0  0  0
    5.2723   -1.8674   -0.0718 H   0  0  0  0  0  0  0  0  0  0  0  0
    4.5006   -3.7367   -2.0555 H   0  0  0  0  0  0  0  0  0  0  0  0
    5.2601   -4.7521   -0.8411 H   0  0  0  0  0  0  0  0  0  0  0  0
    6.9162   -4.0358   -2.5102 H   0  0  0  0  0  0  0  0  0  0  0  0
    7.3285   -3.3642   -0.9347 H   0  0  0  0  0  0  0  0  0  0  0  0
    5.9109   -1.8261   -3.2382 H   0  0  0  0  0  0  0  0  0  0  0  0
    7.7949   -0.9983   -0.9631 H   0  0  0  0  0  0  0  0  0  0  0  0
    5.8704    0.6910   -2.4474 H   0  0  0  0  0  0  0  0  0  0  0  0
    7.3874    0.6272   -3.3570 H   0  0  0  0  0  0  0  0  0  0  0  0
    8.6599    1.5151   -1.5490 H   0  0  0  0  0  0  0  0  0  0  0  0
    7.3710    1.3255   -0.3751 H   0  0  0  0  0  0  0  0  0  0  0  0
    6.8535    3.1370   -2.7769 H   0  0  0  0  0  0  0  0  0  0  0  0
    7.9997    3.6563   -1.5503 H   0  0  0  0  0  0  0  0  0  0  0  0
    6.0729    4.6188   -0.7476 H   0  0  0  0  0  0  0  0  0  0  0  0
    6.1854    3.1584    0.2230 H   0  0  0  0  0  0  0  0  0  0  0  0
    4.5747    2.0641   -1.4600 H   0  0  0  0  0  0  0  0  0  0  0  0
    4.3992    3.6321   -2.2215 H   0  0  0  0  0  0  0  0  0  0  0  0
    3.1143    4.5033   -0.5345 H   0  0  0  0  0  0  0  0  0  0  0  0
    3.9491    3.6504    0.7590 H   0  0  0  0  0  0  0  0  0  0  0  0
    2.0989    2.2605   -1.2366 H   0  0  0  0  0  0  0  0  0  0  0  0
    1.5312    2.9234    0.2937 H   0  0  0  0  0  0  0  0  0  0  0  0
    2.5104    1.3053    1.5948 H   0  0  0  0  0  0  0  0  0  0  0  0
    3.9269    1.1537    0.5734 H   0  0  0  0  0  0  0  0  0  0  0  0
  1  2  1  0  0  0  0
  1 18  1  0  0  0  0
  1 19  1  0  0  0  0
  1 20  1  0  0  0  0
  2  3  1  0  0  0  0
  2 17  1  0  0  0  0
  2 21  1  0  0  0  0
  3  4  1  0  0  0  0
  3 22  1  0  0  0  0
  3 23  1  0  0  0  0
  4  5  1  0  0  0  0
  4 24  1  0  0  0  0
  4 25  1  0  0  0  0
  5  6  1  0  0  0  0
  5 26  1  0  0  0  0
  5 27  1  0  0  0  0
  6  7  1  0  0  0  0
  6 28  1  0  0  0  0
  6 29  1  0  0  0  0
  7  8  1  0  0  0  0
  7 30  1  0  0  0  0
  7 31  1  0  0  0  0
  8  9  2  3  0  0  0
  8 32  1  0  0  0  0
  9 10  1  0  0  0  0
  9 33  1  0  0  0  0
 10 11  1  0  0  0  0
 10 34  1  0  0  0  0
 10 35  1  0  0  0  0
 11 12  1  0  0  0  0
 11 36  1  0  0  0  0
 11 37  1  0  0  0  0
 12 13  1  0  0  0  0
 12 38  1  0  0  0  0
 12 39  1  0  0  0  0
 13 14  1  0  0  0  0
 13 40  1  0  0  0  0
 13 41  1  0  0  0  0
 14 15  1  0  0  0  0
 14 42  1  0  0  0  0
 14 43  1  0  0  0  0
 15 16  1  0  0  0  0
 15 44  1  0  0  0  0
 15 45  1  0  0  0  0
 16 17  1  0  0  0  0
 16 46  1  0  0  0  0
 16 47  1  0  0  0  0
 17 48  1  0  0  0  0
 17 49  1  0  0  0  0
M  END
$$$$
