
 OpenBabel04232216523D

 65 65  0  0  1  0  0  0  0  0999 V2000
    2.9291   -2.8104    2.7663 C   0  0  0  0  0  0  0  0  0  0  0  0
    3.6577   -3.9125    1.8775 C   0  0  0  0  0  0  0  0  0  0  0  0
    5.3146   -4.2435    1.7531 C   0  0  0  0  0  0  0  0  0  0  0  0
    6.3021   -5.7683    1.8832 C   0  0  0  0  0  0  0  0  0  0  0  0
    8.1144   -5.8241    2.2695 C   0  0  3  0  0  0  0  0  0  0  0  0
    8.5153   -4.4329    1.6847 C   0  0  0  0  0  0  0  0  0  0  0  0
    8.3414   -3.3302    2.7459 C   0  0  0  0  0  0  0  0  0  0  0  0
    9.6686   -2.7082    3.1467 C   0  0  0  0  0  0  0  0  0  0  0  0
   10.2327   -3.6198    4.1636 C   0  0  0  0  0  0  0  0  0  0  0  0
   11.3287   -4.3533    4.0149 C   0  0  0  0  0  0  0  0  0  0  0  0
   11.5826   -5.3108    5.0435 C   0  0  0  0  0  0  0  0  0  0  0  0
   12.7819   -5.8397    5.2250 C   0  0  0  0  0  0  0  0  0  0  0  0
   13.1100   -6.8857    6.2315 C   0  0  0  0  0  0  0  0  0  0  0  0
   11.9918   -7.8734    6.5483 C   0  0  0  0  0  0  0  0  0  0  0  0
   12.0727   -8.8211    7.2933 O   0  0  0  0  0  0  0  0  0  0  0  0
   14.3700   -7.0180    6.5410 C   0  0  0  0  0  0  0  0  0  0  0  0
   15.0415   -8.2111    7.0453 C   0  0  0  0  0  0  0  0  0  0  0  0
   15.8642   -8.8056    6.1851 C   0  0  0  0  0  0  0  0  0  0  0  0
   14.9720   -9.9000    5.5472 C   0  0  0  0  0  0  0  0  0  0  0  0
   15.0358  -11.1575    6.5689 C   0  0  0  0  0  0  0  0  0  0  0  0
   16.0897  -12.3570    6.5605 C   0  0  0  0  0  0  0  0  0  0  0  0
   17.5603  -12.2297    7.1010 C   0  0  0  0  0  0  0  0  0  0  0  0
   18.3733  -13.5274    6.8612 C   0  0  0  0  0  0  0  0  0  0  0  0
   14.2078   -9.3166    4.5678 N   0  0  0  0  0  0  0  0  0  0  0  0
   12.8425   -9.3852    4.0531 C   0  0  0  0  0  0  0  0  0  0  0  0
   12.1601   -8.3470    3.3199 C   0  0  0  0  0  0  0  0  0  0  0  0
   10.4914   -8.0074    3.0223 C   0  0  0  0  0  0  0  0  0  0  0  0
    9.5872   -6.9302    2.6082 C   0  0  0  0  0  0  0  0  0  0  0  0
    1.8666   -2.7300    2.4405 H   0  0  0  0  0  0  0  0  0  0  0  0
    3.2967   -1.7812    2.6402 H   0  0  0  0  0  0  0  0  0  0  0  0
    2.8564   -3.0369    3.8355 H   0  0  0  0  0  0  0  0  0  0  0  0
    3.4142   -3.4757    0.8891 H   0  0  0  0  0  0  0  0  0  0  0  0
    3.0616   -4.8252    1.9367 H   0  0  0  0  0  0  0  0  0  0  0  0
    5.8492   -3.3601    2.0970 H   0  0  0  0  0  0  0  0  0  0  0  0
    5.3552   -4.1597    0.6522 H   0  0  0  0  0  0  0  0  0  0  0  0
    6.2484   -6.1540    0.8530 H   0  0  0  0  0  0  0  0  0  0  0  0
    5.7762   -6.4543    2.5482 H   0  0  0  0  0  0  0  0  0  0  0  0
    7.9503   -5.7019    3.3494 H   0  0  0  0  0  0  0  0  0  0  0  0
    7.8180   -4.1744    0.8693 H   0  0  0  0  0  0  0  0  0  0  0  0
    9.4888   -4.4322    1.1848 H   0  0  0  0  0  0  0  0  0  0  0  0
    7.8266   -3.7168    3.6301 H   0  0  0  0  0  0  0  0  0  0  0  0
    7.7047   -2.5171    2.3801 H   0  0  0  0  0  0  0  0  0  0  0  0
    9.5384   -1.7237    3.5843 H   0  0  0  0  0  0  0  0  0  0  0  0
   10.3323   -2.6026    2.2710 H   0  0  0  0  0  0  0  0  0  0  0  0
    9.6235   -3.7616    5.0538 H   0  0  0  0  0  0  0  0  0  0  0  0
   11.9802   -4.3030    3.1484 H   0  0  0  0  0  0  0  0  0  0  0  0
   10.7247   -5.6364    5.6390 H   0  0  0  0  0  0  0  0  0  0  0  0
   13.6160   -5.5101    4.5926 H   0  0  0  0  0  0  0  0  0  0  0  0
   11.0412   -7.7139    5.9962 H   0  0  0  0  0  0  0  0  0  0  0  0
   15.1009   -6.2991    6.0937 H   0  0  0  0  0  0  0  0  0  0  0  0
   14.3235   -8.7941    7.6363 H   0  0  0  0  0  0  0  0  0  0  0  0
   16.5227   -8.2874    5.5183 H   0  0  0  0  0  0  0  0  0  0  0  0
   14.0320  -11.5736    6.6639 H   0  0  0  0  0  0  0  0  0  0  0  0
   15.2498  -10.7416    7.5737 H   0  0  0  0  0  0  0  0  0  0  0  0
   16.1194  -12.8116    5.5707 H   0  0  0  0  0  0  0  0  0  0  0  0
   15.6622  -13.1155    7.2423 H   0  0  0  0  0  0  0  0  0  0  0  0
   17.5805  -12.0495    8.1866 H   0  0  0  0  0  0  0  0  0  0  0  0
   18.0938  -11.4024    6.6255 H   0  0  0  0  0  0  0  0  0  0  0  0
   17.9589  -14.3803    7.4143 H   0  0  0  0  0  0  0  0  0  0  0  0
   19.4204  -13.4219    7.1812 H   0  0  0  0  0  0  0  0  0  0  0  0
   18.3865  -13.7920    5.7984 H   0  0  0  0  0  0  0  0  0  0  0  0
   12.2951  -10.2336    4.4491 H   0  0  0  0  0  0  0  0  0  0  0  0
   12.7976   -7.5356    2.9431 H   0  0  0  0  0  0  0  0  0  0  0  0
   10.0235   -8.9074    3.4252 H   0  0  0  0  0  0  0  0  0  0  0  0
    8.7321   -7.6508    2.6339 H   0  0  0  0  0  0  0  0  0  0  0  0
  1  2  1  0  0  0  0
  1 29  1  0  0  0  0
  1 30  1  0  0  0  0
  1 31  1  0  0  0  0
  2  3  1  0  0  0  0
  2 32  1  0  0  0  0
  2 33  1  0  0  0  0
  3  4  1  0  0  0  0
  3 34  1  0  0  0  0
  3 35  1  0  0  0  0
  4  5  1  0  0  0  0
  4 36  1  0  0  0  0
  4 37  1  0  0  0  0
  5  6  1  0  0  0  0
  5 28  1  0  0  0  0
  5 38  1  0  0  0  0
  6  7  1  0  0  0  0
  6 39  1  0  0  0  0
  6 40  1  0  0  0  0
  7  8  1  0  0  0  0
  7 41  1  0  0  0  0
  7 42  1  0  0  0  0
  8  9  1  0  0  0  0
  8 43  1  0  0  0  0
  8 44  1  0  0  0  0
  9 10  2  3  0  0  0
  9 45  1  0  0  0  0
 10 11  1  0  0  0  0
 10 46  1  0  0  0  0
 11 12  2  3  0  0  0
 11 47  1  0  0  0  0
 12 13  1  0  0  0  0
 12 48  1  0  0  0  0
 13 14  1  0  0  0  0
 13 16  2  3  0  0  0
 14 15  2  0  0  0  0
 14 49  1  0  0  0  0
 16 17  1  0  0  0  0
 16 50  1  0  0  0  0
 17 18  2  3  0  0  0
 17 51  1  0  0  0  0
 18 19  1  0  0  0  0
 18 52  1  0  0  0  0
 19 20  1  0  0  0  0
 19 24  2  3  0  0  0
 20 21  1  0  0  0  0
 20 53  1  0  0  0  0
 20 54  1  0  0  0  0
 21 22  1  0  0  0  0
 21 55  1  0  0  0  0
 21 56  1  0  0  0  0
 22 23  1  0  0  0  0
 22 57  1  0  0  0  0
 22 58  1  0  0  0  0
 23 59  1  0  0  0  0
 23 60  1  0  0  0  0
 23 61  1  0  0  0  0
 24 25  1  0  0  0  0
 25 26  2  3  0  0  0
 25 62  1  0  0  0  0
 26 27  1  0  0  0  0
 26 63  1  0  0  0  0
 27 28  2  3  0  0  0
 27 64  1  0  0  0  0
 28 65  1  0  0  0  0
M  END
$$$$
