
 OpenBabel04232216463D

 58 60  0  0  0  0  0  0  0  0999 V2000
    1.2677   -1.7491   -0.2824 C   0  0  0  0  0  0  0  0  0  0  0  0
    2.7733   -1.5220   -0.2693 C   0  0  0  0  0  0  0  0  0  0  0  0
    3.1378   -0.1313   -0.0718 C   0  0  0  0  0  0  0  0  0  0  0  0
    4.4395    0.3387   -0.0825 C   0  0  0  0  0  0  0  0  0  0  0  0
    4.8323    1.8701    0.0966 C   0  0  0  0  0  0  0  0  0  0  0  0
    3.7476    2.8262    0.6495 C   0  0  0  0  0  0  0  0  0  0  0  0
    3.5355    2.7758    2.1649 C   0  0  0  0  0  0  0  0  0  0  0  0
    4.3635    3.7897    2.9592 C   0  0  0  0  0  0  0  0  0  0  0  0
    5.8643    3.5487    2.9426 C   0  0  0  0  0  0  0  0  0  0  0  0
    6.4628    3.4664    1.5455 C   0  0  0  0  0  0  0  0  0  0  0  0
    6.1995    2.1277    0.8335 C   0  0  0  0  0  0  0  0  0  0  0  0
    5.4029   -0.6573   -0.4278 C   0  0  0  0  0  0  0  0  0  0  0  0
    6.7169   -0.1579   -0.9879 C   0  0  0  0  0  0  0  0  0  0  0  0
    5.1306   -2.1022   -0.3389 C   0  0  0  0  0  0  0  0  0  0  0  0
    6.2732   -3.0191    0.0243 C   0  0  0  0  0  0  0  0  0  0  0  0
    7.6980   -2.8624   -0.4586 C   0  0  0  0  0  0  0  0  0  0  0  0
    6.0278   -3.9533    0.9670 C   0  0  0  0  0  0  0  0  0  0  0  0
    6.8856   -5.1058    1.1820 C   0  0  0  0  0  0  0  0  0  0  0  0
    6.4242   -6.1376    1.8816 C   0  0  0  0  0  0  0  0  0  0  0  0
    6.4670   -7.4120    1.1461 C   0  0  0  0  0  0  0  0  0  0  0  0
    5.2336   -7.8745    0.8635 C   0  0  0  0  0  0  0  0  0  0  0  0
    4.7434   -7.6590   -0.4874 C   0  0  0  0  0  0  0  0  0  0  0  0
    4.0915   -6.6024   -1.0424 C   0  0  0  0  0  0  0  0  0  0  0  0
    3.3079   -5.4528   -0.5186 C   0  0  0  0  0  0  0  0  0  0  0  0
    3.2220   -4.0897   -0.3388 C   0  0  0  0  0  0  0  0  0  0  0  0
    3.7637   -2.5841   -0.3717 C   0  0  0  0  0  0  0  0  0  0  0  0
    0.7125   -0.8015   -0.3206 H   0  0  0  0  0  0  0  0  0  0  0  0
    0.9486   -2.2540    0.6338 H   0  0  0  0  0  0  0  0  0  0  0  0
    0.9547   -2.3151   -1.1646 H   0  0  0  0  0  0  0  0  0  0  0  0
    2.3319    0.5828    0.0678 H   0  0  0  0  0  0  0  0  0  0  0  0
    4.9788    2.2189   -0.9386 H   0  0  0  0  0  0  0  0  0  0  0  0
    2.7949    2.6481    0.1421 H   0  0  0  0  0  0  0  0  0  0  0  0
    4.0064    3.8566    0.3627 H   0  0  0  0  0  0  0  0  0  0  0  0
    3.7081    1.7657    2.5476 H   0  0  0  0  0  0  0  0  0  0  0  0
    2.4833    3.0154    2.3604 H   0  0  0  0  0  0  0  0  0  0  0  0
    4.0331    3.7671    4.0057 H   0  0  0  0  0  0  0  0  0  0  0  0
    4.1584    4.8074    2.6022 H   0  0  0  0  0  0  0  0  0  0  0  0
    6.1066    2.6437    3.5110 H   0  0  0  0  0  0  0  0  0  0  0  0
    6.3451    4.3795    3.4784 H   0  0  0  0  0  0  0  0  0  0  0  0
    7.5522    3.5595    1.6693 H   0  0  0  0  0  0  0  0  0  0  0  0
    6.1665    4.3246    0.9318 H   0  0  0  0  0  0  0  0  0  0  0  0
    6.4047    1.3143    1.5390 H   0  0  0  0  0  0  0  0  0  0  0  0
    6.9925    2.0976    0.0781 H   0  0  0  0  0  0  0  0  0  0  0  0
    6.5976    0.7928   -1.5166 H   0  0  0  0  0  0  0  0  0  0  0  0
    7.0895   -0.8155   -1.7785 H   0  0  0  0  0  0  0  0  0  0  0  0
    7.4427   -0.0256   -0.1813 H   0  0  0  0  0  0  0  0  0  0  0  0
    8.1020   -1.8650   -0.3458 H   0  0  0  0  0  0  0  0  0  0  0  0
    7.8263   -3.2083   -1.4862 H   0  0  0  0  0  0  0  0  0  0  0  0
    8.4053   -3.4034    0.1772 H   0  0  0  0  0  0  0  0  0  0  0  0
    5.0440   -4.0122    1.4308 H   0  0  0  0  0  0  0  0  0  0  0  0
    7.6322   -5.2765    0.4084 H   0  0  0  0  0  0  0  0  0  0  0  0
    5.5444   -6.0037    2.5178 H   0  0  0  0  0  0  0  0  0  0  0  0
    7.2161   -7.4301    0.3450 H   0  0  0  0  0  0  0  0  0  0  0  0
    4.4700   -7.8726    1.6363 H   0  0  0  0  0  0  0  0  0  0  0  0
    4.9628   -8.5270   -1.1257 H   0  0  0  0  0  0  0  0  0  0  0  0
    3.7567   -6.8475   -2.0570 H   0  0  0  0  0  0  0  0  0  0  0  0
    2.3366   -5.9295   -0.2960 H   0  0  0  0  0  0  0  0  0  0  0  0
    2.1905   -3.9437    0.0033 H   0  0  0  0  0  0  0  0  0  0  0  0
  1  2  1  0  0  0  0
  1 27  1  0  0  0  0
  1 28  1  0  0  0  0
  1 29  1  0  0  0  0
  2  3  1  0  0  0  0
  2 26  2  0  0  0  0
  3  4  2  0  0  0  0
  3 30  1  0  0  0  0
  4  5  1  0  0  0  0
  4 12  1  0  0  0  0
  5  6  1  0  0  0  0
  5 11  1  0  0  0  0
  5 31  1  0  0  0  0
  6  7  1  0  0  0  0
  6 32  1  0  0  0  0
  6 33  1  0  0  0  0
  7  8  1  0  0  0  0
  7 34  1  0  0  0  0
  7 35  1  0  0  0  0
  8  9  1  0  0  0  0
  8 36  1  0  0  0  0
  8 37  1  0  0  0  0
  9 10  1  0  0  0  0
  9 38  1  0  0  0  0
  9 39  1  0  0  0  0
 10 11  1  0  0  0  0
 10 40  1  0  0  0  0
 10 41  1  0  0  0  0
 11 42  1  0  0  0  0
 11 43  1  0  0  0  0
 12 13  1  0  0  0  0
 12 14  2  0  0  0  0
 13 44  1  0  0  0  0
 13 45  1  0  0  0  0
 13 46  1  0  0  0  0
 14 15  1  0  0  0  0
 14 26  1  0  0  0  0
 15 16  1  0  0  0  0
 15 17  2  3  0  0  0
 16 47  1  0  0  0  0
 16 48  1  0  0  0  0
 16 49  1  0  0  0  0
 17 18  1  0  0  0  0
 17 50  1  0  0  0  0
 18 19  2  3  0  0  0
 18 51  1  0  0  0  0
 19 20  1  0  0  0  0
 19 52  1  0  0  0  0
 20 21  2  3  0  0  0
 20 53  1  0  0  0  0
 21 22  1  0  0  0  0
 21 54  1  0  0  0  0
 22 23  2  3  0  0  0
 22 55  1  0  0  0  0
 23 24  1  0  0  0  0
 23 56  1  0  0  0  0
 24 25  2  3  0  0  0
 24 57  1  0  0  0  0
 25 26  1  0  0  0  0
 25 58  1  0  0  0  0
M  END
$$$$
