
 OpenBabel04232216473D

 51 52  0  0  1  0  0  0  0  0999 V2000
    1.0066    0.2111   -0.2238 C   0  0  0  0  0  0  0  0  0  0  0  0
    2.4944    0.0206   -0.0707 C   0  0  0  0  0  0  0  0  0  0  0  0
    3.2436    1.1095   -0.6965 C   0  0  0  0  0  0  0  0  0  0  0  0
    3.9293    2.0227    0.0182 C   0  0  0  0  0  0  0  0  0  0  0  0
    4.5812    3.0858   -0.5602 O   0  0  0  0  0  0  0  0  0  0  0  0
    4.0623    1.9673    1.4669 C   0  0  0  0  0  0  0  0  0  0  0  0
    3.3175    3.0283    2.2422 C   0  0  0  0  0  0  0  0  0  0  0  0
    4.1879    3.9225    3.1236 C   0  0  0  0  0  0  0  0  0  0  0  0
    5.2236    4.7216    2.3329 C   0  0  0  0  0  0  0  0  0  0  0  0
    6.0468    5.6021    3.2521 C   0  0  0  0  0  0  0  0  0  0  0  0
    5.2291    6.4942    3.8723 F   0  0  0  0  0  0  0  0  0  0  0  0
    4.7249    0.9653    2.0822 C   0  0  0  0  0  0  0  0  0  0  0  0
    5.3460   -0.1636    1.3832 C   0  0  0  0  0  0  0  0  0  0  0  0
    6.8592   -0.1276    1.4530 C   0  0  0  0  0  0  0  0  0  0  0  0
    7.2829   -0.2111    2.8186 O   0  0  0  0  0  0  0  0  0  0  0  0
    8.6905   -0.0524    2.9412 C   0  0  0  0  0  0  0  0  0  0  0  0
    4.5869   -1.0665    0.7053 C   0  0  0  0  0  0  0  0  0  0  0  0
    5.1110   -2.2270   -0.1047 C   0  0  0  0  0  0  0  0  0  0  0  0
    3.0978   -0.9686    0.6453 C   0  0  0  0  0  0  0  0  0  0  0  0
    2.3915   -2.0207    1.5023 C   0  0  3  0  0  0  0  0  0  0  0  0
    1.5307   -1.4185    2.5899 C   0  0  0  0  0  0  0  0  0  0  0  0
    0.2612   -1.8377    2.4557 C   0  0  0  0  0  0  0  0  0  0  0  0
    0.1709   -2.7289    1.3245 C   0  0  0  0  0  0  0  0  0  0  0  0
    1.3804   -2.8580    0.7565 C   0  0  0  0  0  0  0  0  0  0  0  0
    0.7672    1.0246   -0.9192 H   0  0  0  0  0  0  0  0  0  0  0  0
    0.5465    0.4807    0.7312 H   0  0  0  0  0  0  0  0  0  0  0  0
    0.5274   -0.6812   -0.6346 H   0  0  0  0  0  0  0  0  0  0  0  0
    3.1467    1.1953   -1.7732 H   0  0  0  0  0  0  0  0  0  0  0  0
    4.4893    3.0017   -1.5226 H   0  0  0  0  0  0  0  0  0  0  0  0
    2.5786    2.5277    2.8804 H   0  0  0  0  0  0  0  0  0  0  0  0
    2.7288    3.6598    1.5635 H   0  0  0  0  0  0  0  0  0  0  0  0
    4.6907    3.3207    3.8909 H   0  0  0  0  0  0  0  0  0  0  0  0
    3.5284    4.6176    3.6600 H   0  0  0  0  0  0  0  0  0  0  0  0
    4.7089    5.3463    1.5935 H   0  0  0  0  0  0  0  0  0  0  0  0
    5.8980    4.0482    1.7927 H   0  0  0  0  0  0  0  0  0  0  0  0
    6.7931    6.1683    2.6860 H   0  0  0  0  0  0  0  0  0  0  0  0
    6.5579    5.0146    4.0209 H   0  0  0  0  0  0  0  0  0  0  0  0
    4.8190    0.9440    3.1655 H   0  0  0  0  0  0  0  0  0  0  0  0
    7.2153    0.8148    1.0160 H   0  0  0  0  0  0  0  0  0  0  0  0
    7.3294   -0.9425    0.8981 H   0  0  0  0  0  0  0  0  0  0  0  0
    8.9575   -0.1572    3.9963 H   0  0  0  0  0  0  0  0  0  0  0  0
    8.9998    0.9418    2.6029 H   0  0  0  0  0  0  0  0  0  0  0  0
    9.2167   -0.8240    2.3709 H   0  0  0  0  0  0  0  0  0  0  0  0
    6.1998   -2.2684   -0.1638 H   0  0  0  0  0  0  0  0  0  0  0  0
    4.7418   -2.1647   -1.1354 H   0  0  0  0  0  0  0  0  0  0  0  0
    4.7759   -3.1801    0.3172 H   0  0  0  0  0  0  0  0  0  0  0  0
    3.1168   -2.6931    1.9801 H   0  0  0  0  0  0  0  0  0  0  0  0
    1.8975   -0.7382    3.3435 H   0  0  0  0  0  0  0  0  0  0  0  0
   -0.5758   -1.5420    3.0698 H   0  0  0  0  0  0  0  0  0  0  0  0
   -0.7460   -3.1879    0.9877 H   0  0  0  0  0  0  0  0  0  0  0  0
    1.6097   -3.4590   -0.1094 H   0  0  0  0  0  0  0  0  0  0  0  0
  1  2  1  0  0  0  0
  1 25  1  0  0  0  0
  1 26  1  0  0  0  0
  1 27  1  0  0  0  0
  2  3  1  0  0  0  0
  2 19  2  0  0  0  0
  3  4  2  0  0  0  0
  3 28  1  0  0  0  0
  4  5  1  0  0  0  0
  4  6  1  0  0  0  0
  5 29  1  0  0  0  0
  6  7  1  0  0  0  0
  6 12  2  0  0  0  0
  7  8  1  0  0  0  0
  7 30  1  0  0  0  0
  7 31  1  0  0  0  0
  8  9  1  0  0  0  0
  8 32  1  0  0  0  0
  8 33  1  0  0  0  0
  9 10  1  0  0  0  0
  9 34  1  0  0  0  0
  9 35  1  0  0  0  0
 10 11  1  0  0  0  0
 10 36  1  0  0  0  0
 10 37  1  0  0  0  0
 12 13  1  0  0  0  0
 12 38  1  0  0  0  0
 13 14  1  0  0  0  0
 13 17  2  0  0  0  0
 14 15  1  0  0  0  0
 14 39  1  0  0  0  0
 14 40  1  0  0  0  0
 15 16  1  0  0  0  0
 16 41  1  0  0  0  0
 16 42  1  0  0  0  0
 16 43  1  0  0  0  0
 17 18  1  0  0  0  0
 17 19  1  0  0  0  0
 18 44  1  0  0  0  0
 18 45  1  0  0  0  0
 18 46  1  0  0  0  0
 19 20  1  0  0  0  0
 20 21  1  0  0  0  0
 20 24  1  0  0  0  0
 20 47  1  0  0  0  0
 21 22  2  0  0  0  0
 21 48  1  0  0  0  0
 22 23  1  0  0  0  0
 22 49  1  0  0  0  0
 23 24  2  0  0  0  0
 23 50  1  0  0  0  0
 24 51  1  0  0  0  0
M  END
$$$$
