
 OpenBabel04232216403D

199198  0  0  0  0  0  0  0  0999 V2000
   24.7065   23.2708  -20.0288 C   0  0  0  0  0  0  0  0  0  0  0  0
   25.5472   22.2535  -20.2434 C   0  0  0  0  0  0  0  0  0  0  0  0
   25.6885   21.1086  -19.2739 C   0  0  0  0  0  0  0  0  0  0  0  0
   27.1159   21.0012  -18.7248 C   0  0  0  0  0  0  0  0  0  0  0  0
   27.1859   19.8870  -17.7894 N   0  0  0  0  0  0  0  0  0  0  0  0
   28.5299   19.7725  -17.2746 N   0  0  0  0  0  0  0  0  0  0  0  0
   28.5843   18.7058  -16.3533 N   0  0  0  0  0  0  0  0  0  0  0  0
   28.2752   17.4955  -17.0279 N   0  0  0  0  0  0  0  0  0  0  0  0
   29.1770   17.2834  -18.1281 N   0  0  0  0  0  0  0  0  0  0  0  0
   30.5323   17.1718  -17.6507 N   0  0  0  0  0  0  0  0  0  0  0  0
   30.6674   16.0785  -16.7314 N   0  0  0  0  0  0  0  0  0  0  0  0
   30.2770   14.8632  -17.3706 N   0  0  0  0  0  0  0  0  0  0  0  0
   31.1438   14.6635  -18.4927 N   0  0  0  0  0  0  0  0  0  0  0  0
   32.5108   14.6073  -18.0337 N   0  0  0  0  0  0  0  0  0  0  0  0
   32.6632   13.5269  -17.0794 N   0  0  0  0  0  0  0  0  0  0  0  0
   32.3151   12.2739  -17.7059 N   0  0  0  0  0  0  0  0  0  0  0  0
   33.1433   12.0782  -18.8520 N   0  0  0  0  0  0  0  0  0  0  0  0
   34.5196   12.0049  -18.4099 N   0  0  0  0  0  0  0  0  0  0  0  0
   34.6989   10.9298  -17.4545 N   0  0  0  0  0  0  0  0  0  0  0  0
   34.3439    9.6710  -18.0238 N   0  0  0  0  0  0  0  0  0  0  0  0
   35.1604    9.4380  -19.1623 N   0  0  0  0  0  0  0  0  0  0  0  0
   36.5346    9.4156  -18.7492 N   0  0  0  0  0  0  0  0  0  0  0  0
   36.7336    8.4048  -17.7495 N   0  0  0  0  0  0  0  0  0  0  0  0
   36.3510    7.1443  -18.3019 N   0  0  0  0  0  0  0  0  0  0  0  0
   37.1770    6.8942  -19.4582 N   0  0  0  0  0  0  0  0  0  0  0  0
   38.5741    6.8882  -19.0847 N   0  0  0  0  0  0  0  0  0  0  0  0
   38.8128    5.8832  -18.1013 N   0  0  0  0  0  0  0  0  0  0  0  0
   38.4843    4.5971  -18.6207 N   0  0  0  0  0  0  0  0  0  0  0  0
   39.2412    4.3181  -19.7868 N   0  0  0  0  0  0  0  0  0  0  0  0
   40.6197    4.3429  -19.4340 N   0  0  0  0  0  0  0  0  0  0  0  0
   40.8739    3.3543  -18.4165 N   0  0  0  0  0  0  0  0  0  0  0  0
   40.5015    2.0621  -18.9001 N   0  0  0  0  0  0  0  0  0  0  0  0
   41.2841    1.7515  -20.0715 N   0  0  0  0  0  0  0  0  0  0  0  0
   42.6691    1.8323  -19.7530 N   0  0  0  0  0  0  0  0  0  0  0  0
   42.9543    0.8561  -18.7334 N   0  0  0  0  0  0  0  0  0  0  0  0
   42.5755   -0.4720  -19.1814 N   0  0  0  0  0  0  0  0  0  0  0  0
   43.3386   -0.8002  -20.3679 N   0  0  0  0  0  0  0  0  0  0  0  0
   44.7645   -0.7691  -20.0844 N   0  0  0  0  0  0  0  0  0  0  0  0
   45.0584   -1.6976  -19.0473 N   0  0  0  0  0  0  0  0  0  0  0  0
   44.6937   -3.0153  -19.4835 N   0  0  0  0  0  0  0  0  0  0  0  0
   45.3908   -3.3278  -20.6781 N   0  0  0  0  0  0  0  0  0  0  0  0
   46.7966   -3.3195  -20.4464 N   0  0  0  0  0  0  0  0  0  0  0  0
   47.1467   -4.2348  -19.4011 N   0  0  0  0  0  0  0  0  0  0  0  0
   46.7960   -5.5612  -19.7895 N   0  0  0  0  0  0  0  0  0  0  0  0
   47.4656   -5.8653  -21.0024 N   0  0  0  0  0  0  0  0  0  0  0  0
   48.9072   -5.7975  -20.7406 C   0  0  0  0  0  0  0  0  0  0  0  0
   49.6752   -6.1364  -22.0027 C   0  0  0  0  0  0  0  0  0  0  0  0
   51.1720   -6.0621  -21.7410 C   0  0  0  0  0  0  0  0  0  0  0  0
   51.9398   -6.4100  -23.0029 C   0  0  0  0  0  0  0  0  0  0  0  0
   53.4325   -6.3363  -22.7431 C   0  0  0  0  0  0  0  0  0  0  0  0
   54.1965   -6.6848  -24.0056 C   0  0  0  0  0  0  0  0  0  0  0  0
   55.6881   -6.6128  -23.7447 C   0  0  0  0  0  0  0  0  0  0  0  0
   56.4513   -6.9594  -25.0076 C   0  0  0  0  0  0  0  0  0  0  0  0
   57.9426   -6.8854  -24.7469 C   0  0  0  0  0  0  0  0  0  0  0  0
   58.7058   -7.2339  -26.0093 C   0  0  0  0  0  0  0  0  0  0  0  0
   60.1971   -7.1580  -25.7491 C   0  0  0  0  0  0  0  0  0  0  0  0
   60.9602   -7.5084  -27.0109 C   0  0  0  0  0  0  0  0  0  0  0  0
   62.4515   -7.4325  -26.7508 C   0  0  0  0  0  0  0  0  0  0  0  0
   63.2146   -7.7810  -28.0131 C   0  0  0  0  0  0  0  0  0  0  0  0
   64.7059   -7.7051  -27.7530 C   0  0  0  0  0  0  0  0  0  0  0  0
   65.4690   -8.0535  -29.0154 C   0  0  0  0  0  0  0  0  0  0  0  0
   66.9603   -7.9776  -28.7552 C   0  0  0  0  0  0  0  0  0  0  0  0
   67.7234   -8.3261  -30.0176 C   0  0  0  0  0  0  0  0  0  0  0  0
   69.2147   -8.2502  -29.7574 C   0  0  0  0  0  0  0  0  0  0  0  0
   69.9778   -8.5986  -31.0198 C   0  0  0  0  0  0  0  0  0  0  0  0
   71.4691   -8.5228  -30.7596 C   0  0  0  0  0  0  0  0  0  0  0  0
   72.2322   -8.8712  -32.0220 C   0  0  0  0  0  0  0  0  0  0  0  0
   73.7235   -8.7953  -31.7619 C   0  0  0  0  0  0  0  0  0  0  0  0
   74.4866   -9.1418  -33.0247 C   0  0  0  0  0  0  0  0  0  0  0  0
   75.9779   -9.0659  -32.7646 C   0  0  0  0  0  0  0  0  0  0  0  0
   76.7410   -9.4124  -34.0275 C   0  0  0  0  0  0  0  0  0  0  0  0
   78.2323   -9.3365  -33.7673 C   0  0  0  0  0  0  0  0  0  0  0  0
   78.9954   -9.6831  -35.0302 C   0  0  0  0  0  0  0  0  0  0  0  0
   80.4867   -9.6072  -34.7701 C   0  0  0  0  0  0  0  0  0  0  0  0
   81.2498   -9.9556  -36.0324 C   0  0  0  0  0  0  0  0  0  0  0  0
   82.7413   -9.8798  -35.7725 C   0  0  0  0  0  0  0  0  0  0  0  0
   83.5046  -10.2284  -37.0353 C   0  0  0  0  0  0  0  0  0  0  0  0
   84.9967  -10.1510  -36.7771 C   0  0  0  0  0  0  0  0  0  0  0  0
   85.7645  -10.5014  -38.0393 C   0  0  0  0  0  0  0  0  0  0  0  0
   87.2523  -10.4231  -37.7778 C   0  0  0  0  0  0  0  0  0  0  0  0
   24.6371   24.0905  -20.7313 H   0  0  0  0  0  0  0  0  0  0  0  0
   24.0888   23.2913  -19.1336 H   0  0  0  0  0  0  0  0  0  0  0  0
   26.1724   22.2404  -21.1309 H   0  0  0  0  0  0  0  0  0  0  0  0
   25.4129   20.1721  -19.7783 H   0  0  0  0  0  0  0  0  0  0  0  0
   24.9917   21.2358  -18.4327 H   0  0  0  0  0  0  0  0  0  0  0  0
   27.3800   21.9280  -18.2101 H   0  0  0  0  0  0  0  0  0  0  0  0
   27.8121   20.8370  -19.5549 H   0  0  0  0  0  0  0  0  0  0  0  0
   26.8903   19.0659  -18.3206 H   0  0  0  0  0  0  0  0  0  0  0  0
   28.7955   20.6261  -16.7846 H   0  0  0  0  0  0  0  0  0  0  0  0
   27.9646   18.8799  -15.5549 H   0  0  0  0  0  0  0  0  0  0  0  0
   27.3385   17.4700  -17.4006 H   0  0  0  0  0  0  0  0  0  0  0  0
   29.1587   18.0448  -18.7993 H   0  0  0  0  0  0  0  0  0  0  0  0
   30.7823   18.0689  -17.2031 H   0  0  0  0  0  0  0  0  0  0  0  0
   30.0396   16.2328  -15.9393 H   0  0  0  0  0  0  0  0  0  0  0  0
   29.2985   14.9661  -17.6757 H   0  0  0  0  0  0  0  0  0  0  0  0
   31.0830   15.4589  -19.1224 H   0  0  0  0  0  0  0  0  0  0  0  0
   32.7444   15.4732  -17.5554 H   0  0  0  0  0  0  0  0  0  0  0  0
   32.0443   13.7412  -16.2835 H   0  0  0  0  0  0  0  0  0  0  0  0
   31.3588   12.3122  -18.0431 H   0  0  0  0  0  0  0  0  0  0  0  0
   33.0023   12.8542  -19.5174 H   0  0  0  0  0  0  0  0  0  0  0  0
   34.7744   12.9154  -17.9796 H   0  0  0  0  0  0  0  0  0  0  0  0
   34.1088   11.0766  -16.6340 H   0  0  0  0  0  0  0  0  0  0  0  0
   33.3801    9.6918  -18.3342 H   0  0  0  0  0  0  0  0  0  0  0  0
   35.0152   10.2105  -19.8122 H   0  0  0  0  0  0  0  0  0  0  0  0
   36.7521   10.3318  -18.3463 H   0  0  0  0  0  0  0  0  0  0  0  0
   36.1200    8.5893  -16.9589 H   0  0  0  0  0  0  0  0  0  0  0  0
   35.3543    7.2100  -18.5634 H   0  0  0  0  0  0  0  0  0  0  0  0
   36.9971    7.6557  -20.1400 H   0  0  0  0  0  0  0  0  0  0  0  0
   38.8424    7.7795  -18.6716 H   0  0  0  0  0  0  0  0  0  0  0  0
   38.2478    6.0560  -17.2780 H   0  0  0  0  0  0  0  0  0  0  0  0
   37.5044    4.5928  -18.8795 H   0  0  0  0  0  0  0  0  0  0  0  0
   39.0739    5.0414  -20.4776 H   0  0  0  0  0  0  0  0  0  0  0  0
   40.8200    5.2940  -19.0813 H   0  0  0  0  0  0  0  0  0  0  0  0
   40.2984    3.5816  -17.5889 H   0  0  0  0  0  0  0  0  0  0  0  0
   39.5237    2.0473  -19.1701 H   0  0  0  0  0  0  0  0  0  0  0  0
   41.0946    2.4635  -20.7678 H   0  0  0  0  0  0  0  0  0  0  0  0
   42.8754    2.7704  -19.3987 H   0  0  0  0  0  0  0  0  0  0  0  0
   42.4016    1.1175  -17.9032 H   0  0  0  0  0  0  0  0  0  0  0  0
   41.5595   -0.4881  -19.3881 H   0  0  0  0  0  0  0  0  0  0  0  0
   43.1084   -0.1162  -21.1094 H   0  0  0  0  0  0  0  0  0  0  0  0
   45.0283    0.1827  -19.7805 H   0  0  0  0  0  0  0  0  0  0  0  0
   44.5549   -1.4915  -18.1922 H   0  0  0  0  0  0  0  0  0  0  0  0
   43.7039   -3.0327  -19.7129 H   0  0  0  0  0  0  0  0  0  0  0  0
   45.1752   -2.6516  -21.4043 H   0  0  0  0  0  0  0  0  0  0  0  0
   47.0686   -2.3870  -20.1462 H   0  0  0  0  0  0  0  0  0  0  0  0
   46.6388   -3.9959  -18.5582 H   0  0  0  0  0  0  0  0  0  0  0  0
   45.7914   -5.5490  -19.9769 H   0  0  0  0  0  0  0  0  0  0  0  0
   47.2195   -5.1666  -21.7054 H   0  0  0  0  0  0  0  0  0  0  0  0
   49.1830   -6.4975  -19.9427 H   0  0  0  0  0  0  0  0  0  0  0  0
   49.2144   -4.7915  -20.4221 H   0  0  0  0  0  0  0  0  0  0  0  0
   49.4124   -5.4344  -22.8035 H   0  0  0  0  0  0  0  0  0  0  0  0
   49.4121   -7.1459  -22.3357 H   0  0  0  0  0  0  0  0  0  0  0  0
   51.4465   -6.7593  -20.9399 H   0  0  0  0  0  0  0  0  0  0  0  0
   51.4462   -5.0522  -21.4112 H   0  0  0  0  0  0  0  0  0  0  0  0
   51.6702   -5.7135  -23.8058 H   0  0  0  0  0  0  0  0  0  0  0  0
   51.6722   -7.4208  -23.3333 H   0  0  0  0  0  0  0  0  0  0  0  0
   53.7049   -7.0332  -21.9414 H   0  0  0  0  0  0  0  0  0  0  0  0
   53.7029   -5.3258  -22.4140 H   0  0  0  0  0  0  0  0  0  0  0  0
   53.9264   -5.9872  -24.8074 H   0  0  0  0  0  0  0  0  0  0  0  0
   53.9264   -7.6950  -24.3362 H   0  0  0  0  0  0  0  0  0  0  0  0
   55.9589   -7.3116  -22.9441 H   0  0  0  0  0  0  0  0  0  0  0  0
   55.9585   -5.6032  -23.4131 H   0  0  0  0  0  0  0  0  0  0  0  0
   56.1797   -6.2616  -25.8087 H   0  0  0  0  0  0  0  0  0  0  0  0
   56.1821   -7.9696  -25.3384 H   0  0  0  0  0  0  0  0  0  0  0  0
   58.2142   -7.5823  -23.9449 H   0  0  0  0  0  0  0  0  0  0  0  0
   58.2121   -5.8748  -24.4174 H   0  0  0  0  0  0  0  0  0  0  0  0
   58.4332   -6.5380  -26.8118 H   0  0  0  0  0  0  0  0  0  0  0  0
   58.4374   -8.2451  -26.3379 H   0  0  0  0  0  0  0  0  0  0  0  0
   60.4695   -7.8529  -24.9457 H   0  0  0  0  0  0  0  0  0  0  0  0
   60.4656   -6.1464  -25.4218 H   0  0  0  0  0  0  0  0  0  0  0  0
   60.6878   -6.8135  -27.8144 H   0  0  0  0  0  0  0  0  0  0  0  0
   60.6916   -8.5200  -27.3383 H   0  0  0  0  0  0  0  0  0  0  0  0
   62.7240   -8.1284  -25.9483 H   0  0  0  0  0  0  0  0  0  0  0  0
   62.7199   -6.4213  -26.4222 H   0  0  0  0  0  0  0  0  0  0  0  0
   62.9420   -7.0850  -28.8156 H   0  0  0  0  0  0  0  0  0  0  0  0
   62.9462   -8.7921  -28.3418 H   0  0  0  0  0  0  0  0  0  0  0  0
   64.9785   -8.4010  -26.9506 H   0  0  0  0  0  0  0  0  0  0  0  0
   64.9742   -6.6939  -27.4243 H   0  0  0  0  0  0  0  0  0  0  0  0
   65.1964   -7.3576  -29.8178 H   0  0  0  0  0  0  0  0  0  0  0  0
   65.2006   -9.0647  -29.3440 H   0  0  0  0  0  0  0  0  0  0  0  0
   67.2329   -8.6735  -27.9528 H   0  0  0  0  0  0  0  0  0  0  0  0
   67.2286   -6.9664  -28.4266 H   0  0  0  0  0  0  0  0  0  0  0  0
   67.4508   -7.6302  -30.8200 H   0  0  0  0  0  0  0  0  0  0  0  0
   67.4550   -9.3373  -30.3462 H   0  0  0  0  0  0  0  0  0  0  0  0
   69.4873   -8.9461  -28.9550 H   0  0  0  0  0  0  0  0  0  0  0  0
   69.4830   -7.2390  -29.4288 H   0  0  0  0  0  0  0  0  0  0  0  0
   69.7052   -7.9027  -31.8222 H   0  0  0  0  0  0  0  0  0  0  0  0
   69.7094   -9.6098  -31.3484 H   0  0  0  0  0  0  0  0  0  0  0  0
   71.7417   -9.2187  -29.9572 H   0  0  0  0  0  0  0  0  0  0  0  0
   71.7374   -7.5116  -30.4310 H   0  0  0  0  0  0  0  0  0  0  0  0
   71.9596   -8.1753  -32.8244 H   0  0  0  0  0  0  0  0  0  0  0  0
   71.9639   -9.8824  -32.3507 H   0  0  0  0  0  0  0  0  0  0  0  0
   73.9963   -9.4922  -30.9604 H   0  0  0  0  0  0  0  0  0  0  0  0
   73.9917   -7.7845  -31.4318 H   0  0  0  0  0  0  0  0  0  0  0  0
   74.2138   -8.4449  -33.8262 H   0  0  0  0  0  0  0  0  0  0  0  0
   74.2185  -10.1526  -33.3548 H   0  0  0  0  0  0  0  0  0  0  0  0
   76.2507   -9.7629  -31.9631 H   0  0  0  0  0  0  0  0  0  0  0  0
   76.2460   -8.0551  -32.4345 H   0  0  0  0  0  0  0  0  0  0  0  0
   76.4682   -8.7155  -34.8289 H   0  0  0  0  0  0  0  0  0  0  0  0
   76.4729  -10.4232  -34.3575 H   0  0  0  0  0  0  0  0  0  0  0  0
   78.5051  -10.0335  -32.9659 H   0  0  0  0  0  0  0  0  0  0  0  0
   78.5004   -8.3258  -33.4373 H   0  0  0  0  0  0  0  0  0  0  0  0
   78.7226   -8.9861  -35.8317 H   0  0  0  0  0  0  0  0  0  0  0  0
   78.7272  -10.6939  -35.3602 H   0  0  0  0  0  0  0  0  0  0  0  0
   80.7593  -10.3031  -33.9676 H   0  0  0  0  0  0  0  0  0  0  0  0
   80.7550   -8.5960  -34.4414 H   0  0  0  0  0  0  0  0  0  0  0  0
   80.9772   -9.2597  -36.8349 H   0  0  0  0  0  0  0  0  0  0  0  0
   80.9815  -10.9668  -36.3611 H   0  0  0  0  0  0  0  0  0  0  0  0
   83.0138  -10.5756  -34.9699 H   0  0  0  0  0  0  0  0  0  0  0  0
   83.0095   -8.8686  -35.4437 H   0  0  0  0  0  0  0  0  0  0  0  0
   83.2305   -9.5332  -37.8378 H   0  0  0  0  0  0  0  0  0  0  0  0
   83.2368  -11.2401  -37.3627 H   0  0  0  0  0  0  0  0  0  0  0  0
   85.2689  -10.8443  -35.9720 H   0  0  0  0  0  0  0  0  0  0  0  0
   85.2629   -9.1387  -36.4492 H   0  0  0  0  0  0  0  0  0  0  0  0
   85.4943   -9.8073  -38.8432 H   0  0  0  0  0  0  0  0  0  0  0  0
   85.5003  -11.5137  -38.3657 H   0  0  0  0  0  0  0  0  0  0  0  0
   87.5316   -9.4120  -37.4648 H   0  0  0  0  0  0  0  0  0  0  0  0
   87.8073  -10.6748  -38.6843 H   0  0  0  0  0  0  0  0  0  0  0  0
   87.5376  -11.1230  -36.9860 H   0  0  0  0  0  0  0  0  0  0  0  0
  1  2  2  0  0  0  0
  1 81  1  0  0  0  0
  1 82  1  0  0  0  0
  2  3  1  0  0  0  0
  2 83  1  0  0  0  0
  3  4  1  0  0  0  0
  3 84  1  0  0  0  0
  3 85  1  0  0  0  0
  4  5  1  0  0  0  0
  4 86  1  0  0  0  0
  4 87  1  0  0  0  0
  5  6  1  0  0  0  0
  5 88  1  0  0  0  0
  6  7  1  0  0  0  0
  6 89  1  0  0  0  0
  7  8  1  0  0  0  0
  7 90  1  0  0  0  0
  8  9  1  0  0  0  0
  8 91  1  0  0  0  0
  9 10  1  0  0  0  0
  9 92  1  0  0  0  0
 10 11  1  0  0  0  0
 10 93  1  0  0  0  0
 11 12  1  0  0  0  0
 11 94  1  0  0  0  0
 12 13  1  0  0  0  0
 12 95  1  0  0  0  0
 13 14  1  0  0  0  0
 13 96  1  0  0  0  0
 14 15  1  0  0  0  0
 14 97  1  0  0  0  0
 15 16  1  0  0  0  0
 15 98  1  0  0  0  0
 16 17  1  0  0  0  0
 16 99  1  0  0  0  0
 17 18  1  0  0  0  0
 17100  1  0  0  0  0
 18 19  1  0  0  0  0
 18101  1  0  0  0  0
 19 20  1  0  0  0  0
 19102  1  0  0  0  0
 20 21  1  0  0  0  0
 20103  1  0  0  0  0
 21 22  1  0  0  0  0
 21104  1  0  0  0  0
 22 23  1  0  0  0  0
 22105  1  0  0  0  0
 23 24  1  0  0  0  0
 23106  1  0  0  0  0
 24 25  1  0  0  0  0
 24107  1  0  0  0  0
 25 26  1  0  0  0  0
 25108  1  0  0  0  0
 26 27  1  0  0  0  0
 26109  1  0  0  0  0
 27 28  1  0  0  0  0
 27110  1  0  0  0  0
 28 29  1  0  0  0  0
 28111  1  0  0  0  0
 29 30  1  0  0  0  0
 29112  1  0  0  0  0
 30 31  1  0  0  0  0
 30113  1  0  0  0  0
 31 32  1  0  0  0  0
 31114  1  0  0  0  0
 32 33  1  0  0  0  0
 32115  1  0  0  0  0
 33 34  1  0  0  0  0
 33116  1  0  0  0  0
 34 35  1  0  0  0  0
 34117  1  0  0  0  0
 35 36  1  0  0  0  0
 35118  1  0  0  0  0
 36 37  1  0  0  0  0
 36119  1  0  0  0  0
 37 38  1  0  0  0  0
 37120  1  0  0  0  0
 38 39  1  0  0  0  0
 38121  1  0  0  0  0
 39 40  1  0  0  0  0
 39122  1  0  0  0  0
 40 41  1  0  0  0  0
 40123  1  0  0  0  0
 41 42  1  0  0  0  0
 41124  1  0  0  0  0
 42 43  1  0  0  0  0
 42125  1  0  0  0  0
 43 44  1  0  0  0  0
 43126  1  0  0  0  0
 44 45  1  0  0  0  0
 44127  1  0  0  0  0
 45 46  1  0  0  0  0
 45128  1  0  0  0  0
 46 47  1  0  0  0  0
 46129  1  0  0  0  0
 46130  1  0  0  0  0
 47 48  1  0  0  0  0
 47131  1  0  0  0  0
 47132  1  0  0  0  0
 48 49  1  0  0  0  0
 48133  1  0  0  0  0
 48134  1  0  0  0  0
 49 50  1  0  0  0  0
 49135  1  0  0  0  0
 49136  1  0  0  0  0
 50 51  1  0  0  0  0
 50137  1  0  0  0  0
 50138  1  0  0  0  0
 51 52  1  0  0  0  0
 51139  1  0  0  0  0
 51140  1  0  0  0  0
 52 53  1  0  0  0  0
 52141  1  0  0  0  0
 52142  1  0  0  0  0
 53 54  1  0  0  0  0
 53143  1  0  0  0  0
 53144  1  0  0  0  0
 54 55  1  0  0  0  0
 54145  1  0  0  0  0
 54146  1  0  0  0  0
 55 56  1  0  0  0  0
 55147  1  0  0  0  0
 55148  1  0  0  0  0
 56 57  1  0  0  0  0
 56149  1  0  0  0  0
 56150  1  0  0  0  0
 57 58  1  0  0  0  0
 57151  1  0  0  0  0
 57152  1  0  0  0  0
 58 59  1  0  0  0  0
 58153  1  0  0  0  0
 58154  1  0  0  0  0
 59 60  1  0  0  0  0
 59155  1  0  0  0  0
 59156  1  0  0  0  0
 60 61  1  0  0  0  0
 60157  1  0  0  0  0
 60158  1  0  0  0  0
 61 62  1  0  0  0  0
 61159  1  0  0  0  0
 61160  1  0  0  0  0
 62 63  1  0  0  0  0
 62161  1  0  0  0  0
 62162  1  0  0  0  0
 63 64  1  0  0  0  0
 63163  1  0  0  0  0
 63164  1  0  0  0  0
 64 65  1  0  0  0  0
 64165  1  0  0  0  0
 64166  1  0  0  0  0
 65 66  1  0  0  0  0
 65167  1  0  0  0  0
 65168  1  0  0  0  0
 66 67  1  0  0  0  0
 66169  1  0  0  0  0
 66170  1  0  0  0  0
 67 68  1  0  0  0  0
 67171  1  0  0  0  0
 67172  1  0  0  0  0
 68 69  1  0  0  0  0
 68173  1  0  0  0  0
 68174  1  0  0  0  0
 69 70  1  0  0  0  0
 69175  1  0  0  0  0
 69176  1  0  0  0  0
 70 71  1  0  0  0  0
 70177  1  0  0  0  0
 70178  1  0  0  0  0
 71 72  1  0  0  0  0
 71179  1  0  0  0  0
 71180  1  0  0  0  0
 72 73  1  0  0  0  0
 72181  1  0  0  0  0
 72182  1  0  0  0  0
 73 74  1  0  0  0  0
 73183  1  0  0  0  0
 73184  1  0  0  0  0
 74 75  1  0  0  0  0
 74185  1  0  0  0  0
 74186  1  0  0  0  0
 75 76  1  0  0  0  0
 75187  1  0  0  0  0
 75188  1  0  0  0  0
 76 77  1  0  0  0  0
 76189  1  0  0  0  0
 76190  1  0  0  0  0
 77 78  1  0  0  0  0
 77191  1  0  0  0  0
 77192  1  0  0  0  0
 78 79  1  0  0  0  0
 78193  1  0  0  0  0
 78194  1  0  0  0  0
 79 80  1  0  0  0  0
 79195  1  0  0  0  0
 79196  1  0  0  0  0
 80197  1  0  0  0  0
 80198  1  0  0  0  0
 80199  1  0  0  0  0
M  END
$$$$
