
 OpenBabel04232216493D

 75 75  0  0  1  0  0  0  0  0999 V2000
    3.8349    2.6365   -1.2659 C   0  0  0  0  0  0  0  0  0  0  0  0
    4.8785    2.9063   -0.1057 C   0  0  3  0  0  0  0  0  0  0  0  0
    4.0392    2.5949    1.1704 C   0  0  0  0  0  0  0  0  0  0  0  0
    4.5459    1.3146    1.8736 C   0  0  0  0  0  0  0  0  0  0  0  0
    5.7075    1.7070    2.7256 C   0  0  0  0  0  0  0  0  0  0  0  0
    7.1678    1.6672    2.2385 C   0  0  3  0  0  0  0  0  0  0  0  0
    7.6754    1.5319    0.7376 C   0  0  0  0  0  0  0  0  0  0  0  0
    7.3068    0.3408   -0.1580 C   0  0  0  0  0  0  0  0  0  0  0  0
    7.5397    3.0610    2.6474 C   0  0  0  0  0  0  0  0  0  0  0  0
    8.0455    3.5226    3.8255 C   0  0  0  0  0  0  0  0  0  0  0  0
    8.1807    4.9722    3.8870 C   0  0  0  0  0  0  0  0  0  0  0  0
    7.0004    5.9442    3.8614 C   0  0  0  0  0  0  0  0  0  0  0  0
    5.7158    5.7395    4.6328 C   0  0  0  0  0  0  0  0  0  0  0  0
    5.8984    5.7719    6.1316 C   0  0  0  0  0  0  0  0  0  0  0  0
    9.2309    5.3697    3.1425 C   0  0  0  0  0  0  0  0  0  0  0  0
    8.8833    6.1167    1.8952 C   0  0  0  0  0  0  0  0  0  0  0  0
    8.8060    5.3392    0.7719 C   0  0  0  0  0  0  0  0  0  0  0  0
   10.2560    5.1369    0.2176 C   0  0  0  0  0  0  0  0  0  0  0  0
   10.9935    6.0900   -0.7680 C   0  0  0  0  0  0  0  0  0  0  0  0
   10.9077    7.6317   -0.6413 C   0  0  0  0  0  0  0  0  0  0  0  0
   11.7206    8.2847    0.4963 C   0  0  0  0  0  0  0  0  0  0  0  0
   11.6781    9.8332    0.4825 C   0  0  0  0  0  0  0  0  0  0  0  0
   12.3739   10.3972    1.7330 C   0  0  0  0  0  0  0  0  0  0  0  0
   12.3680   11.9263    1.8263 C   0  0  0  0  0  0  0  0  0  0  0  0
   13.0422   12.3858    3.1164 C   0  0  0  0  0  0  0  0  0  0  0  0
    7.3868    5.1001   -0.0697 C   0  0  0  0  0  0  0  0  0  0  0  0
    5.8272    4.2566   -0.3699 C   0  0  0  0  0  0  0  0  0  0  0  0
    2.9864    2.0020   -0.9537 H   0  0  0  0  0  0  0  0  0  0  0  0
    4.2961    2.0510   -2.0682 H   0  0  0  0  0  0  0  0  0  0  0  0
    3.3967    3.5499   -1.6718 H   0  0  0  0  0  0  0  0  0  0  0  0
    5.5379    2.0723   -0.2433 H   0  0  0  0  0  0  0  0  0  0  0  0
    2.9913    2.3432    0.9511 H   0  0  0  0  0  0  0  0  0  0  0  0
    3.9451    3.4542    1.8421 H   0  0  0  0  0  0  0  0  0  0  0  0
    4.7748    0.5011    1.1854 H   0  0  0  0  0  0  0  0  0  0  0  0
    3.7668    0.9376    2.5343 H   0  0  0  0  0  0  0  0  0  0  0  0
    5.6868    1.1427    3.6755 H   0  0  0  0  0  0  0  0  0  0  0  0
    5.4460    2.7093    3.0676 H   0  0  0  0  0  0  0  0  0  0  0  0
    7.7242    0.9141    2.8171 H   0  0  0  0  0  0  0  0  0  0  0  0
    8.7717    1.5265    0.7815 H   0  0  0  0  0  0  0  0  0  0  0  0
    7.4805    2.4407    0.1631 H   0  0  0  0  0  0  0  0  0  0  0  0
    7.5933   -0.6084    0.2866 H   0  0  0  0  0  0  0  0  0  0  0  0
    7.8543    0.4409   -1.1107 H   0  0  0  0  0  0  0  0  0  0  0  0
    6.2579    0.2860   -0.4361 H   0  0  0  0  0  0  0  0  0  0  0  0
    7.1759    3.8214    1.9784 H   0  0  0  0  0  0  0  0  0  0  0  0
    8.4483    2.8688    4.5935 H   0  0  0  0  0  0  0  0  0  0  0  0
    6.6687    6.0753    2.8184 H   0  0  0  0  0  0  0  0  0  0  0  0
    7.4085    6.9162    4.1725 H   0  0  0  0  0  0  0  0  0  0  0  0
    5.2103    4.8256    4.3112 H   0  0  0  0  0  0  0  0  0  0  0  0
    5.0601    6.5750    4.3578 H   0  0  0  0  0  0  0  0  0  0  0  0
    6.5038    4.9311    6.4759 H   0  0  0  0  0  0  0  0  0  0  0  0
    4.9176    5.7201    6.6136 H   0  0  0  0  0  0  0  0  0  0  0  0
    6.3777    6.7050    6.4480 H   0  0  0  0  0  0  0  0  0  0  0  0
   10.1084    4.7223    3.0611 H   0  0  0  0  0  0  0  0  0  0  0  0
    9.6800    6.8686    1.9491 H   0  0  0  0  0  0  0  0  0  0  0  0
   10.3728    4.0984   -0.1085 H   0  0  0  0  0  0  0  0  0  0  0  0
   10.9433    5.1704    1.0891 H   0  0  0  0  0  0  0  0  0  0  0  0
   10.6856    5.8095   -1.7804 H   0  0  0  0  0  0  0  0  0  0  0  0
   12.0655    5.8362   -0.7121 H   0  0  0  0  0  0  0  0  0  0  0  0
    9.8608    7.9416   -0.5926 H   0  0  0  0  0  0  0  0  0  0  0  0
   11.3112    8.0410   -1.5794 H   0  0  0  0  0  0  0  0  0  0  0  0
   12.7699    7.9712    0.4318 H   0  0  0  0  0  0  0  0  0  0  0  0
   11.3538    7.9414    1.4647 H   0  0  0  0  0  0  0  0  0  0  0  0
   10.6392   10.1830    0.4523 H   0  0  0  0  0  0  0  0  0  0  0  0
   12.1749   10.2151   -0.4185 H   0  0  0  0  0  0  0  0  0  0  0  0
   13.4127   10.0464    1.7546 H   0  0  0  0  0  0  0  0  0  0  0  0
   11.8798    9.9923    2.6245 H   0  0  0  0  0  0  0  0  0  0  0  0
   11.3399   12.3057    1.8066 H   0  0  0  0  0  0  0  0  0  0  0  0
   12.8951   12.3635    0.9705 H   0  0  0  0  0  0  0  0  0  0  0  0
   12.5260   11.9810    3.9936 H   0  0  0  0  0  0  0  0  0  0  0  0
   13.0327   13.4777    3.1942 H   0  0  0  0  0  0  0  0  0  0  0  0
   14.0850   12.0532    3.1540 H   0  0  0  0  0  0  0  0  0  0  0  0
    7.7552    5.1999   -1.0980 H   0  0  0  0  0  0  0  0  0  0  0  0
    6.9304    6.0725    0.1672 H   0  0  0  0  0  0  0  0  0  0  0  0
    6.0220    4.0555   -1.4367 H   0  0  0  0  0  0  0  0  0  0  0  0
    5.1025    5.0818   -0.3736 H   0  0  0  0  0  0  0  0  0  0  0  0
  1  2  1  0  0  0  0
  1 28  1  0  0  0  0
  1 29  1  0  0  0  0
  1 30  1  0  0  0  0
  2  3  1  0  0  0  0
  2 27  1  0  0  0  0
  2 31  1  0  0  0  0
  3  4  1  0  0  0  0
  3 32  1  0  0  0  0
  3 33  1  0  0  0  0
  4  5  1  0  0  0  0
  4 34  1  0  0  0  0
  4 35  1  0  0  0  0
  5  6  1  0  0  0  0
  5 36  1  0  0  0  0
  5 37  1  0  0  0  0
  6  7  1  0  0  0  0
  6  9  1  0  0  0  0
  6 38  1  0  0  0  0
  7  8  1  0  0  0  0
  7 39  1  0  0  0  0
  7 40  1  0  0  0  0
  8 41  1  0  0  0  0
  8 42  1  0  0  0  0
  8 43  1  0  0  0  0
  9 10  2  3  0  0  0
  9 44  1  0  0  0  0
 10 11  1  0  0  0  0
 10 45  1  0  0  0  0
 11 12  1  0  0  0  0
 11 15  2  3  0  0  0
 12 13  1  0  0  0  0
 12 46  1  0  0  0  0
 12 47  1  0  0  0  0
 13 14  1  0  0  0  0
 13 48  1  0  0  0  0
 13 49  1  0  0  0  0
 14 50  1  0  0  0  0
 14 51  1  0  0  0  0
 14 52  1  0  0  0  0
 15 16  1  0  0  0  0
 15 53  1  0  0  0  0
 16 17  2  3  0  0  0
 16 54  1  0  0  0  0
 17 18  1  0  0  0  0
 17 26  1  0  0  0  0
 18 19  1  0  0  0  0
 18 55  1  0  0  0  0
 18 56  1  0  0  0  0
 19 20  1  0  0  0  0
 19 57  1  0  0  0  0
 19 58  1  0  0  0  0
 20 21  1  0  0  0  0
 20 59  1  0  0  0  0
 20 60  1  0  0  0  0
 21 22  1  0  0  0  0
 21 61  1  0  0  0  0
 21 62  1  0  0  0  0
 22 23  1  0  0  0  0
 22 63  1  0  0  0  0
 22 64  1  0  0  0  0
 23 24  1  0  0  0  0
 23 65  1  0  0  0  0
 23 66  1  0  0  0  0
 24 25  1  0  0  0  0
 24 67  1  0  0  0  0
 24 68  1  0  0  0  0
 25 69  1  0  0  0  0
 25 70  1  0  0  0  0
 25 71  1  0  0  0  0
 26 27  1  0  0  0  0
 26 72  1  0  0  0  0
 26 73  1  0  0  0  0
 27 74  1  0  0  0  0
 27 75  1  0  0  0  0
M  END
$$$$
