
 OpenBabel04232217013D

135134  0  0  0  0  0  0  0  0999 V2000
    0.4554  -12.2047  -47.6121 O   0  0  0  0  0  0  0  0  0  0  0  0
    1.8980  -12.2078  -47.6312 C   0  0  0  0  0  0  0  0  0  0  0  0
    2.4295  -12.6434  -46.2873 C   0  0  0  0  0  0  0  0  0  0  0  0
    3.9095  -12.6490  -46.3362 C   0  0  0  0  0  0  0  0  0  0  0  0
    4.4132  -13.0838  -44.9765 C   0  0  0  0  0  0  0  0  0  0  0  0
    5.9037  -13.0865  -45.0227 C   0  0  0  0  0  0  0  0  0  0  0  0
    6.3933  -13.5168  -43.6885 C   0  0  0  0  0  0  0  0  0  0  0  0
    7.7691  -13.4513  -43.8566 O   0  0  0  0  0  0  0  0  0  0  0  0
    8.2236  -13.8211  -42.5871 O   0  0  0  0  0  0  0  0  0  0  0  0
    9.6047  -13.9928  -42.6747 O   0  0  0  0  0  0  0  0  0  0  0  0
   10.0485  -14.2887  -41.3880 O   0  0  0  0  0  0  0  0  0  0  0  0
   11.4327  -14.1674  -41.3825 O   0  0  0  0  0  0  0  0  0  0  0  0
   11.8626  -14.7870  -40.2135 O   0  0  0  0  0  0  0  0  0  0  0  0
   13.2445  -14.8648  -40.2806 O   0  0  0  0  0  0  0  0  0  0  0  0
   13.6793  -15.0409  -38.9734 O   0  0  0  0  0  0  0  0  0  0  0  0
   15.0603  -15.0001  -39.0068 O   0  0  0  0  0  0  0  0  0  0  0  0
   15.4984  -15.5979  -37.8342 O   0  0  0  0  0  0  0  0  0  0  0  0
   16.8782  -15.5473  -37.8882 O   0  0  0  0  0  0  0  0  0  0  0  0
   17.3422  -15.7467  -36.6011 O   0  0  0  0  0  0  0  0  0  0  0  0
   18.7028  -15.9541  -36.7373 O   0  0  0  0  0  0  0  0  0  0  0  0
   19.1477  -16.4302  -35.5239 O   0  0  0  0  0  0  0  0  0  0  0  0
   20.5082  -16.2003  -35.5179 O   0  0  0  0  0  0  0  0  0  0  0  0
   20.9444  -16.5910  -34.2730 O   0  0  0  0  0  0  0  0  0  0  0  0
   22.3143  -16.7039  -34.3740 O   0  0  0  0  0  0  0  0  0  0  0  0
   22.7399  -17.1832  -33.1527 O   0  0  0  0  0  0  0  0  0  0  0  0
   24.1143  -17.1292  -33.1957 O   0  0  0  0  0  0  0  0  0  0  0  0
   24.5530  -17.3462  -31.9049 O   0  0  0  0  0  0  0  0  0  0  0  0
   25.9228  -17.4604  -32.0101 O   0  0  0  0  0  0  0  0  0  0  0  0
   26.3652  -18.0311  -30.8328 O   0  0  0  0  0  0  0  0  0  0  0  0
   27.7331  -17.8406  -30.8398 O   0  0  0  0  0  0  0  0  0  0  0  0
   28.1785  -18.1105  -29.5608 O   0  0  0  0  0  0  0  0  0  0  0  0
   29.5378  -18.3514  -29.6881 O   0  0  0  0  0  0  0  0  0  0  0  0
   29.9732  -18.7748  -28.4471 O   0  0  0  0  0  0  0  0  0  0  0  0
   31.3406  -18.5324  -28.4085 O   0  0  0  0  0  0  0  0  0  0  0  0
   31.7804  -19.0546  -27.2027 O   0  0  0  0  0  0  0  0  0  0  0  0
   33.1545  -19.2495  -27.3136 O   0  0  0  0  0  0  0  0  0  0  0  0
   33.6193  -19.4217  -26.0117 O   0  0  0  0  0  0  0  0  0  0  0  0
   35.0103  -19.3329  -26.0514 O   0  0  0  0  0  0  0  0  0  0  0  0
   35.4902  -20.0090  -24.9337 O   0  0  0  0  0  0  0  0  0  0  0  0
   36.8769  -19.9726  -25.0076 O   0  0  0  0  0  0  0  0  0  0  0  0
   37.3797  -20.0289  -23.6901 O   0  0  0  0  0  0  0  0  0  0  0  0
   38.7507  -20.2690  -23.7495 O   0  0  0  0  0  0  0  0  0  0  0  0
   39.0701  -20.7476  -22.4893 C   0  0  0  0  0  0  0  0  0  0  0  0
   40.4821  -20.9949  -22.4555 O   0  0  0  0  0  0  0  0  0  0  0  0
   40.8876  -21.1598  -21.1244 C   0  0  0  0  0  0  0  0  0  0  0  0
   42.2906  -21.0138  -21.0927 O   0  0  0  0  0  0  0  0  0  0  0  0
   42.7100  -19.7527  -21.6143 C   0  0  0  0  0  0  0  0  0  0  0  0
   44.1185  -19.7177  -21.8022 O   0  0  0  0  0  0  0  0  0  0  0  0
   44.5443  -20.6886  -22.7496 C   0  0  0  0  0  0  0  0  0  0  0  0
   45.9542  -20.8142  -22.7307 O   0  0  0  0  0  0  0  0  0  0  0  0
   46.4167  -21.1125  -21.4157 C   0  0  0  0  0  0  0  0  0  0  0  0
   47.8391  -21.0605  -21.3380 O   0  0  0  0  0  0  0  0  0  0  0  0
   48.3143  -19.7676  -21.7147 C   0  0  0  0  0  0  0  0  0  0  0  0
   49.7340  -19.7371  -21.8144 O   0  0  0  0  0  0  0  0  0  0  0  0
   50.2183  -20.6789  -22.7715 C   0  0  0  0  0  0  0  0  0  0  0  0
   51.6352  -20.7595  -22.7616 O   0  0  0  0  0  0  0  0  0  0  0  0
   52.0947  -21.1072  -21.4606 C   0  0  0  0  0  0  0  0  0  0  0  0
   53.5099  -21.0624  -21.4117 O   0  0  0  0  0  0  0  0  0  0  0  0
   53.9971  -19.7689  -21.7530 C   0  0  0  0  0  0  0  0  0  0  0  0
   55.4145  -19.7638  -21.8269 O   0  0  0  0  0  0  0  0  0  0  0  0
   55.8992  -20.6680  -22.8134 C   0  0  0  0  0  0  0  0  0  0  0  0
   57.3102  -20.7418  -22.7708 O   0  0  0  0  0  0  0  0  0  0  0  0
   57.7663  -21.0498  -21.4569 C   0  0  0  0  0  0  0  0  0  0  0  0
   59.1866  -20.9992  -21.3808 O   0  0  0  0  0  0  0  0  0  0  0  0
   59.6506  -19.6991  -21.7299 C   0  0  0  0  0  0  0  0  0  0  0  0
   61.0676  -19.6649  -21.7773 O   0  0  0  0  0  0  0  0  0  0  0  0
   61.5980  -20.5865  -22.7283 C   0  0  0  0  0  0  0  0  0  0  0  0
   63.0190  -20.6305  -22.6663 O   0  0  0  0  0  0  0  0  0  0  0  0
   63.4826  -20.9904  -21.3651 C   0  0  0  0  0  0  0  0  0  0  0  0
   64.9002  -20.9624  -21.2720 O   0  0  0  0  0  0  0  0  0  0  0  0
   65.4430  -19.6662  -21.5285 C   0  0  0  0  0  0  0  0  0  0  0  0
   66.8640  -19.6889  -21.5094 O   0  0  0  0  0  0  0  0  0  0  0  0
   67.3745  -20.5284  -22.5429 C   0  0  0  0  0  0  0  0  0  0  0  0
   68.7933  -20.4993  -22.5486 O   0  0  0  0  0  0  0  0  0  0  0  0
   69.2916  -21.4162  -23.5147 C   0  0  0  0  0  0  0  0  0  0  0  0
   68.8770  -21.0595  -24.8319 O   0  0  0  0  0  0  0  0  0  0  0  0
   69.3468  -21.9752  -25.8217 C   0  0  0  0  0  0  0  0  0  0  0  0
   68.8446  -23.2841  -25.5910 O   0  0  0  0  0  0  0  0  0  0  0  0
   69.2845  -24.2206  -26.5705 C   0  0  0  0  0  0  0  0  0  0  0  0
   68.7887  -25.5331  -26.3009 O   0  0  0  0  0  0  0  0  0  0  0  0
   67.3658  -25.5759  -26.3185 C   0  0  0  0  0  0  0  0  0  0  0  0
    0.1733  -11.9292  -48.4352 H   0  0  0  0  0  0  0  0  0  0  0  0
    2.2442  -11.1879  -47.8888 H   0  0  0  0  0  0  0  0  0  0  0  0
    2.2222  -12.9047  -48.4366 H   0  0  0  0  0  0  0  0  0  0  0  0
    2.0379  -13.6316  -46.0405 H   0  0  0  0  0  0  0  0  0  0  0  0
    2.0574  -11.9615  -45.5120 H   0  0  0  0  0  0  0  0  0  0  0  0
    4.3219  -11.6419  -46.5639 H   0  0  0  0  0  0  0  0  0  0  0  0
    4.2981  -13.3350  -47.0944 H   0  0  0  0  0  0  0  0  0  0  0  0
    4.0401  -14.0889  -44.7253 H   0  0  0  0  0  0  0  0  0  0  0  0
    4.0636  -12.3998  -44.1883 H   0  0  0  0  0  0  0  0  0  0  0  0
    6.3068  -12.0951  -45.2670 H   0  0  0  0  0  0  0  0  0  0  0  0
    6.2886  -13.7654  -45.7944 H   0  0  0  0  0  0  0  0  0  0  0  0
    6.0840  -14.5341  -43.4397 H   0  0  0  0  0  0  0  0  0  0  0  0
    6.0780  -12.8289  -42.8934 H   0  0  0  0  0  0  0  0  0  0  0  0
   38.5188  -21.6841  -22.3145 H   0  0  0  0  0  0  0  0  0  0  0  0
   38.7541  -19.9969  -21.7738 H   0  0  0  0  0  0  0  0  0  0  0  0
   40.6068  -22.1553  -20.8101 H   0  0  0  0  0  0  0  0  0  0  0  0
   40.4315  -20.4104  -20.4640 H   0  0  0  0  0  0  0  0  0  0  0  0
   42.4404  -18.9686  -20.8980 H   0  0  0  0  0  0  0  0  0  0  0  0
   42.2409  -19.5167  -22.5758 H   0  0  0  0  0  0  0  0  0  0  0  0
   44.2405  -20.3696  -23.7526 H   0  0  0  0  0  0  0  0  0  0  0  0
   44.1114  -21.6757  -22.5529 H   0  0  0  0  0  0  0  0  0  0  0  0
   46.1069  -22.1295  -21.1541 H   0  0  0  0  0  0  0  0  0  0  0  0
   46.0177  -20.4222  -20.6640 H   0  0  0  0  0  0  0  0  0  0  0  0
   48.0185  -19.0421  -20.9501 H   0  0  0  0  0  0  0  0  0  0  0  0
   47.9037  -19.4467  -22.6788 H   0  0  0  0  0  0  0  0  0  0  0  0
   49.9062  -20.3650  -23.7726 H   0  0  0  0  0  0  0  0  0  0  0  0
   49.8183  -21.6821  -22.5823 H   0  0  0  0  0  0  0  0  0  0  0  0
   51.7843  -22.1302  -21.2250 H   0  0  0  0  0  0  0  0  0  0  0  0
   51.7049  -20.4331  -20.6893 H   0  0  0  0  0  0  0  0  0  0  0  0
   53.6993  -19.0531  -20.9798 H   0  0  0  0  0  0  0  0  0  0  0  0
   53.6047  -19.4247  -22.7170 H   0  0  0  0  0  0  0  0  0  0  0  0
   55.6017  -20.3228  -23.8085 H   0  0  0  0  0  0  0  0  0  0  0  0
   55.5014  -21.6771  -22.6567 H   0  0  0  0  0  0  0  0  0  0  0  0
   57.4602  -22.0698  -21.2031 H   0  0  0  0  0  0  0  0  0  0  0  0
   57.3641  -20.3648  -20.7021 H   0  0  0  0  0  0  0  0  0  0  0  0
   59.3273  -18.9815  -20.9687 H   0  0  0  0  0  0  0  0  0  0  0  0
   59.2690  -19.3738  -22.7044 H   0  0  0  0  0  0  0  0  0  0  0  0
   61.3137  -20.2720  -23.7375 H   0  0  0  0  0  0  0  0  0  0  0  0
   61.2165  -21.6001  -22.5572 H   0  0  0  0  0  0  0  0  0  0  0  0
   63.1610  -22.0122  -21.1421 H   0  0  0  0  0  0  0  0  0  0  0  0
   63.0736  -20.3229  -20.5975 H   0  0  0  0  0  0  0  0  0  0  0  0
   65.1002  -18.9674  -20.7590 H   0  0  0  0  0  0  0  0  0  0  0  0
   65.1055  -19.2937  -22.5046 H   0  0  0  0  0  0  0  0  0  0  0  0
   66.9909  -20.1788  -23.5089 H   0  0  0  0  0  0  0  0  0  0  0  0
   67.0353  -21.5564  -22.3647 H   0  0  0  0  0  0  0  0  0  0  0  0
   68.9492  -22.4273  -23.2595 H   0  0  0  0  0  0  0  0  0  0  0  0
   70.3842  -21.3986  -23.4585 H   0  0  0  0  0  0  0  0  0  0  0  0
   70.4419  -21.9707  -25.8305 H   0  0  0  0  0  0  0  0  0  0  0  0
   68.9804  -21.6132  -26.7882 H   0  0  0  0  0  0  0  0  0  0  0  0
   70.3779  -24.2753  -26.5471 H   0  0  0  0  0  0  0  0  0  0  0  0
   68.9670  -23.9060  -27.5713 H   0  0  0  0  0  0  0  0  0  0  0  0
   67.0507  -26.6058  -26.1337 H   0  0  0  0  0  0  0  0  0  0  0  0
   66.9847  -25.2578  -27.2933 H   0  0  0  0  0  0  0  0  0  0  0  0
   66.9489  -24.9440  -25.5276 H   0  0  0  0  0  0  0  0  0  0  0  0
  1  2  1  0  0  0  0
  1 82  1  0  0  0  0
  2  3  1  0  0  0  0
  2 83  1  0  0  0  0
  2 84  1  0  0  0  0
  3  4  1  0  0  0  0
  3 85  1  0  0  0  0
  3 86  1  0  0  0  0
  4  5  1  0  0  0  0
  4 87  1  0  0  0  0
  4 88  1  0  0  0  0
  5  6  1  0  0  0  0
  5 89  1  0  0  0  0
  5 90  1  0  0  0  0
  6  7  1  0  0  0  0
  6 91  1  0  0  0  0
  6 92  1  0  0  0  0
  7  8  1  0  0  0  0
  7 93  1  0  0  0  0
  7 94  1  0  0  0  0
  8  9  1  0  0  0  0
  9 10  1  0  0  0  0
 10 11  1  0  0  0  0
 11 12  1  0  0  0  0
 12 13  1  0  0  0  0
 13 14  1  0  0  0  0
 14 15  1  0  0  0  0
 15 16  1  0  0  0  0
 16 17  1  0  0  0  0
 17 18  1  0  0  0  0
 18 19  1  0  0  0  0
 19 20  1  0  0  0  0
 20 21  1  0  0  0  0
 21 22  1  0  0  0  0
 22 23  1  0  0  0  0
 23 24  1  0  0  0  0
 24 25  1  0  0  0  0
 25 26  1  0  0  0  0
 26 27  1  0  0  0  0
 27 28  1  0  0  0  0
 28 29  1  0  0  0  0
 29 30  1  0  0  0  0
 30 31  1  0  0  0  0
 31 32  1  0  0  0  0
 32 33  1  0  0  0  0
 33 34  1  0  0  0  0
 34 35  1  0  0  0  0
 35 36  1  0  0  0  0
 36 37  1  0  0  0  0
 37 38  1  0  0  0  0
 38 39  1  0  0  0  0
 39 40  1  0  0  0  0
 40 41  1  0  0  0  0
 41 42  1  0  0  0  0
 42 43  1  0  0  0  0
 43 44  1  0  0  0  0
 43 95  1  0  0  0  0
 43 96  1  0  0  0  0
 44 45  1  0  0  0  0
 45 46  1  0  0  0  0
 45 97  1  0  0  0  0
 45 98  1  0  0  0  0
 46 47  1  0  0  0  0
 47 48  1  0  0  0  0
 47 99  1  0  0  0  0
 47100  1  0  0  0  0
 48 49  1  0  0  0  0
 49 50  1  0  0  0  0
 49101  1  0  0  0  0
 49102  1  0  0  0  0
 50 51  1  0  0  0  0
 51 52  1  0  0  0  0
 51103  1  0  0  0  0
 51104  1  0  0  0  0
 52 53  1  0  0  0  0
 53 54  1  0  0  0  0
 53105  1  0  0  0  0
 53106  1  0  0  0  0
 54 55  1  0  0  0  0
 55 56  1  0  0  0  0
 55107  1  0  0  0  0
 55108  1  0  0  0  0
 56 57  1  0  0  0  0
 57 58  1  0  0  0  0
 57109  1  0  0  0  0
 57110  1  0  0  0  0
 58 59  1  0  0  0  0
 59 60  1  0  0  0  0
 59111  1  0  0  0  0
 59112  1  0  0  0  0
 60 61  1  0  0  0  0
 61 62  1  0  0  0  0
 61113  1  0  0  0  0
 61114  1  0  0  0  0
 62 63  1  0  0  0  0
 63 64  1  0  0  0  0
 63115  1  0  0  0  0
 63116  1  0  0  0  0
 64 65  1  0  0  0  0
 65 66  1  0  0  0  0
 65117  1  0  0  0  0
 65118  1  0  0  0  0
 66 67  1  0  0  0  0
 67 68  1  0  0  0  0
 67119  1  0  0  0  0
 67120  1  0  0  0  0
 68 69  1  0  0  0  0
 69 70  1  0  0  0  0
 69121  1  0  0  0  0
 69122  1  0  0  0  0
 70 71  1  0  0  0  0
 71 72  1  0  0  0  0
 71123  1  0  0  0  0
 71124  1  0  0  0  0
 72 73  1  0  0  0  0
 73 74  1  0  0  0  0
 73125  1  0  0  0  0
 73126  1  0  0  0  0
 74 75  1  0  0  0  0
 75 76  1  0  0  0  0
 75127  1  0  0  0  0
 75128  1  0  0  0  0
 76 77  1  0  0  0  0
 77 78  1  0  0  0  0
 77129  1  0  0  0  0
 77130  1  0  0  0  0
 78 79  1  0  0  0  0
 79 80  1  0  0  0  0
 79131  1  0  0  0  0
 79132  1  0  0  0  0
 80 81  1  0  0  0  0
 81133  1  0  0  0  0
 81134  1  0  0  0  0
 81135  1  0  0  0  0
M  END
$$$$
