
 OpenBabel04232216433D

 59 61  0  0  0  0  0  0  0  0999 V2000
    5.5668    3.0068   -1.2266 C   0  0  0  0  0  0  0  0  0  0  0  0
    4.4789    2.0041   -0.7626 C   0  0  0  0  0  3  0  0  0  0  0  0
    3.7101    0.8113   -1.1723 C   0  0  0  0  0  0  0  0  0  0  0  0
    3.5969    0.0877   -2.2928 C   0  0  0  0  0  0  0  0  0  0  0  0
    4.1155    0.4789   -3.5901 C   0  0  0  0  0  0  0  0  0  0  0  0
    2.8828    1.0302   -4.3213 C   0  0  0  0  0  0  0  0  0  0  0  0
    5.5013    1.1270   -3.4404 C   0  0  0  0  0  0  0  0  0  0  0  0
    5.0391    2.6900   -3.8173 C   0  0  0  0  0  0  0  0  0  0  0  0
    4.7621    2.7823   -5.2666 O   0  0  0  0  0  0  0  0  0  0  0  0
    4.7992    4.1835   -5.6828 N   0  0  0  0  0  0  0  0  0  0  0  0
    6.3144   -0.0231   -2.2698 C   0  0  0  0  0  0  0  0  0  0  0  0
    6.4843    0.0428   -0.7067 C   0  0  0  0  0  0  0  0  0  0  0  0
    7.4164   -0.9000   -0.0133 N   0  0  0  0  0  0  0  0  0  0  0  0
    7.3722   -0.5547    1.4420 C   0  0  0  0  0  0  0  0  0  0  0  0
    8.1943   -1.4615    2.3669 C   0  0  0  0  0  0  0  0  0  0  0  0
    8.0414   -1.0265    3.8183 C   0  0  0  0  0  0  0  0  0  0  0  0
    8.8855   -0.0676    4.2654 N   0  0  0  0  0  0  0  0  0  0  0  0
    8.7512    0.3262    5.5597 C   0  0  0  0  0  0  0  0  0  0  0  0
    7.7999   -0.1832    6.4296 C   0  0  0  0  0  0  0  0  0  0  0  0
    6.9335   -1.1553    5.9506 C   0  0  0  0  0  0  0  0  0  0  0  0
    7.0488   -1.5849    4.6285 C   0  0  0  0  0  0  0  0  0  0  0  0
    6.8430    1.3551   -4.1287 C   0  0  0  0  0  0  0  0  0  0  0  0
    7.6263    2.1617   -2.9973 C   0  0  0  0  0  0  0  0  0  0  0  0
    9.0286    2.1472   -3.2294 C   0  0  0  0  0  0  0  0  0  0  0  0
    9.8913    2.7960   -2.3528 C   0  0  0  0  0  0  0  0  0  0  0  0
    9.3848    3.5247   -1.2826 C   0  0  0  0  0  0  0  0  0  0  0  0
    8.0076    3.5522   -1.0321 C   0  0  0  0  0  0  0  0  0  0  0  0
    7.0823    2.8256   -1.8078 C   0  0  0  0  0  0  0  0  0  0  0  0
    5.7760    3.4392   -0.2302 H   0  0  0  0  0  0  0  0  0  0  0  0
    5.0934    3.8747   -1.7024 H   0  0  0  0  0  0  0  0  0  0  0  0
    4.2149    2.1913    0.2843 H   0  0  0  0  0  0  0  0  0  0  0  0
    3.2017    0.3418   -0.3182 H   0  0  0  0  0  0  0  0  0  0  0  0
    3.0414   -0.8537   -2.2981 H   0  0  0  0  0  0  0  0  0  0  0  0
    1.9939    0.4271   -4.1005 H   0  0  0  0  0  0  0  0  0  0  0  0
    2.9892    1.0682   -5.4041 H   0  0  0  0  0  0  0  0  0  0  0  0
    2.5952    2.0254   -3.9488 H   0  0  0  0  0  0  0  0  0  0  0  0
    5.7956    3.4674   -3.6720 H   0  0  0  0  0  0  0  0  0  0  0  0
    4.1424    3.0398   -3.3053 H   0  0  0  0  0  0  0  0  0  0  0  0
    4.0957    4.1845   -6.4278 H   0  0  0  0  0  0  0  0  0  0  0  0
    5.7030    4.2158   -6.1837 H   0  0  0  0  0  0  0  0  0  0  0  0
    7.3445   -0.2206   -2.6070 H   0  0  0  0  0  0  0  0  0  0  0  0
    5.8731   -1.0079   -2.4961 H   0  0  0  0  0  0  0  0  0  0  0  0
    5.5397   -0.1933   -0.2314 H   0  0  0  0  0  0  0  0  0  0  0  0
    6.8308    1.0189   -0.3877 H   0  0  0  0  0  0  0  0  0  0  0  0
    8.3630   -0.7228   -0.3549 H   0  0  0  0  0  0  0  0  0  0  0  0
    6.3273   -0.5952    1.7810 H   0  0  0  0  0  0  0  0  0  0  0  0
    7.7115    0.4791    1.5791 H   0  0  0  0  0  0  0  0  0  0  0  0
    9.2560   -1.4126    2.0990 H   0  0  0  0  0  0  0  0  0  0  0  0
    7.8842   -2.5068    2.2657 H   0  0  0  0  0  0  0  0  0  0  0  0
    9.4549    1.0844    5.8892 H   0  0  0  0  0  0  0  0  0  0  0  0
    7.7425    0.1710    7.4538 H   0  0  0  0  0  0  0  0  0  0  0  0
    6.1719   -1.5779    6.6008 H   0  0  0  0  0  0  0  0  0  0  0  0
    6.3728   -2.3448    4.2412 H   0  0  0  0  0  0  0  0  0  0  0  0
    6.8550    1.9419   -5.0556 H   0  0  0  0  0  0  0  0  0  0  0  0
    7.3397    0.4233   -4.4190 H   0  0  0  0  0  0  0  0  0  0  0  0
    9.4375    1.6096   -4.0718 H   0  0  0  0  0  0  0  0  0  0  0  0
   10.9605    2.7410   -2.5201 H   0  0  0  0  0  0  0  0  0  0  0  0
   10.0587    4.0756   -0.6345 H   0  0  0  0  0  0  0  0  0  0  0  0
    7.6781    4.1687   -0.1945 H   0  0  0  0  0  0  0  0  0  0  0  0
  1  2  1  0  0  0  0
  1 28  1  0  0  0  0
  1 29  1  0  0  0  0
  1 30  1  0  0  0  0
  2  3  1  0  0  0  0
  2 31  1  0  0  0  0
  3  4  2  3  0  0  0
  3 32  1  0  0  0  0
  4  5  1  0  0  0  0
  4 33  1  0  0  0  0
  5  6  1  0  0  0  0
  5  7  2  0  0  0  0
  6 34  1  0  0  0  0
  6 35  1  0  0  0  0
  6 36  1  0  0  0  0
  7  8  1  0  0  0  0
  7 11  1  0  0  0  0
  7 22  1  0  0  0  0
  8  9  1  0  0  0  0
  8 37  1  0  0  0  0
  8 38  1  0  0  0  0
  9 10  1  0  0  0  0
 10 39  1  0  0  0  0
 10 40  1  0  0  0  0
 11 12  1  0  0  0  0
 11 41  1  0  0  0  0
 11 42  1  0  0  0  0
 12 13  1  0  0  0  0
 12 43  1  0  0  0  0
 12 44  1  0  0  0  0
 13 14  1  0  0  0  0
 13 45  1  0  0  0  0
 14 15  1  0  0  0  0
 14 46  1  0  0  0  0
 14 47  1  0  0  0  0
 15 16  1  0  0  0  0
 15 48  1  0  0  0  0
 15 49  1  0  0  0  0
 16 17  1  0  0  0  0
 16 21  2  0  0  0  0
 17 18  2  0  0  0  0
 18 19  1  0  0  0  0
 18 50  1  0  0  0  0
 19 20  2  0  0  0  0
 19 51  1  0  0  0  0
 20 21  1  0  0  0  0
 20 52  1  0  0  0  0
 21 53  1  0  0  0  0
 22 23  1  0  0  0  0
 22 54  1  0  0  0  0
 22 55  1  0  0  0  0
 23 24  1  0  0  0  0
 23 28  2  0  0  0  0
 24 25  2  0  0  0  0
 24 56  1  0  0  0  0
 25 26  1  0  0  0  0
 25 57  1  0  0  0  0
 26 27  2  0  0  0  0
 26 58  1  0  0  0  0
 27 28  1  0  0  0  0
 27 59  1  0  0  0  0
M  END
$$$$
