
 OpenBabel04232216493D

 85 86  0  0  1  0  0  0  0  0999 V2000
    0.3473    0.3978    0.6408 C   0  0  0  0  0  0  0  0  0  0  0  0
    1.8316   -0.0146    0.6804 C   0  0  3  0  0  0  0  0  0  0  0  0
    1.9091   -1.3859   -0.0593 C   0  0  0  0  0  0  0  0  0  0  0  0
    3.2715   -2.1602   -0.0279 C   0  0  0  0  0  0  0  0  0  0  0  0
    3.8499   -1.9550   -1.4198 C   0  0  0  0  0  0  0  0  0  0  0  0
    5.1813   -2.3132   -2.0790 C   0  0  3  0  0  0  0  0  0  0  0  0
    6.4977   -2.5934   -1.1801 C   0  0  0  0  0  0  0  0  0  0  0  0
    6.6702   -2.2050    0.3063 C   0  0  0  0  0  0  0  0  0  0  0  0
    8.1684   -2.3795    0.8360 C   0  0  0  0  0  0  0  0  0  0  0  0
    8.6617   -1.3905    1.9347 C   0  0  0  0  0  0  0  0  0  0  0  0
    8.7834    0.0518    1.3931 C   0  0  0  0  0  0  0  0  0  0  0  0
    9.2603    1.0758    2.4292 C   0  0  0  0  0  0  0  0  0  0  0  0
    8.8742    2.5025    1.9944 C   0  0  0  0  0  0  0  0  0  0  0  0
    7.3789    2.7447    2.1573 C   0  0  0  0  0  0  0  0  0  0  0  0
    6.7116    2.1114    2.9678 O   0  0  0  0  0  0  0  0  0  0  0  0
    6.7683    3.8463    1.2978 C   0  0  0  0  0  0  0  0  0  0  0  0
    5.2261    3.8491    1.3868 C   0  0  0  0  0  0  0  0  0  0  0  0
    4.5925    2.8473    0.3845 C   0  0  3  0  0  0  0  0  0  0  0  0
    4.5648    3.5667   -0.9873 C   0  0  0  0  0  0  0  0  0  0  0  0
    4.2912    2.6348   -2.1358 C   0  0  0  0  0  0  0  0  0  0  0  0
    4.5752    3.2477   -3.4796 C   0  0  0  0  0  0  0  0  0  0  0  0
    4.4945    2.1008   -4.4504 C   0  0  0  0  0  0  0  0  0  0  0  0
    4.3712    2.5015   -5.8875 C   0  0  0  0  0  0  0  0  0  0  0  0
    3.0475    1.9581   -6.3930 C   0  0  0  0  0  0  0  0  0  0  0  0
    3.1221    0.4742   -6.8231 C   0  0  0  0  0  0  0  0  0  0  0  0
    3.4666   -0.8618   -5.9685 C   0  0  0  0  0  0  0  0  0  0  0  0
    4.1221   -1.0039   -4.4999 C   0  0  0  0  0  0  0  0  0  0  0  0
    5.2832   -1.2008   -3.3126 C   0  0  3  0  0  0  0  0  0  0  0  0
    6.6254   -1.0399   -3.7459 O   0  0  0  0  0  0  0  0  0  0  0  0
    3.2121    2.2778    0.8710 C   0  0  0  0  0  0  0  0  0  0  0  0
    2.6870    1.0972    0.0062 C   0  0  0  0  0  0  0  0  0  0  0  0
   -0.2818   -0.3690    1.1068 H   0  0  0  0  0  0  0  0  0  0  0  0
   -0.0009    0.5070   -0.3955 H   0  0  0  0  0  0  0  0  0  0  0  0
    0.1752    1.3454    1.1563 H   0  0  0  0  0  0  0  0  0  0  0  0
    2.1469   -0.1531    1.7177 H   0  0  0  0  0  0  0  0  0  0  0  0
    1.6219   -1.1907   -1.1041 H   0  0  0  0  0  0  0  0  0  0  0  0
    1.1277   -2.0588    0.3161 H   0  0  0  0  0  0  0  0  0  0  0  0
    3.0796   -3.2235    0.1605 H   0  0  0  0  0  0  0  0  0  0  0  0
    3.9064   -1.7829    0.7778 H   0  0  0  0  0  0  0  0  0  0  0  0
    3.8163   -0.8771   -1.5046 H   0  0  0  0  0  0  0  0  0  0  0  0
    3.0942   -2.3402   -2.1182 H   0  0  0  0  0  0  0  0  0  0  0  0
    5.0430   -3.2705   -2.6039 H   0  0  0  0  0  0  0  0  0  0  0  0
    7.3763   -2.2413   -1.7298 H   0  0  0  0  0  0  0  0  0  0  0  0
    6.6148   -3.6903   -1.1739 H   0  0  0  0  0  0  0  0  0  0  0  0
    6.0822   -2.8644    0.9526 H   0  0  0  0  0  0  0  0  0  0  0  0
    6.3454   -1.1804    0.5037 H   0  0  0  0  0  0  0  0  0  0  0  0
    8.8748   -2.2887    0.0022 H   0  0  0  0  0  0  0  0  0  0  0  0
    8.3012   -3.3921    1.2359 H   0  0  0  0  0  0  0  0  0  0  0  0
    9.6652   -1.7159    2.2947 H   0  0  0  0  0  0  0  0  0  0  0  0
    8.0130   -1.4393    2.8255 H   0  0  0  0  0  0  0  0  0  0  0  0
    7.8075    0.3372    1.0312 H   0  0  0  0  0  0  0  0  0  0  0  0
    9.4503    0.0533    0.5242 H   0  0  0  0  0  0  0  0  0  0  0  0
   10.3503    1.0152    2.5226 H   0  0  0  0  0  0  0  0  0  0  0  0
    8.8588    0.8713    3.4477 H   0  0  0  0  0  0  0  0  0  0  0  0
    9.1383    2.6406    0.9366 H   0  0  0  0  0  0  0  0  0  0  0  0
    9.4095    3.2566    2.5802 H   0  0  0  0  0  0  0  0  0  0  0  0
    7.1103    3.6922    0.2696 H   0  0  0  0  0  0  0  0  0  0  0  0
    7.1630    4.8042    1.6671 H   0  0  0  0  0  0  0  0  0  0  0  0
    4.8680    4.8609    1.1597 H   0  0  0  0  0  0  0  0  0  0  0  0
    4.9001    3.6294    2.4061 H   0  0  0  0  0  0  0  0  0  0  0  0
    5.2728    1.9843    0.3096 H   0  0  0  0  0  0  0  0  0  0  0  0
    5.5394    4.0287   -1.1733 H   0  0  0  0  0  0  0  0  0  0  0  0
    3.8336    4.3817   -0.9779 H   0  0  0  0  0  0  0  0  0  0  0  0
    3.2411    2.3526   -2.1491 H   0  0  0  0  0  0  0  0  0  0  0  0
    4.8998    1.7277   -2.0072 H   0  0  0  0  0  0  0  0  0  0  0  0
    5.5820    3.6942   -3.5231 H   0  0  0  0  0  0  0  0  0  0  0  0
    3.8421    4.0254   -3.7032 H   0  0  0  0  0  0  0  0  0  0  0  0
    3.6275    1.4945   -4.1608 H   0  0  0  0  0  0  0  0  0  0  0  0
    5.3902    1.4891   -4.3227 H   0  0  0  0  0  0  0  0  0  0  0  0
    5.1944    2.0856   -6.4758 H   0  0  0  0  0  0  0  0  0  0  0  0
    4.4220    3.5936   -5.9981 H   0  0  0  0  0  0  0  0  0  0  0  0
    2.2282    2.1448   -5.6849 H   0  0  0  0  0  0  0  0  0  0  0  0
    2.7809    2.5642   -7.2762 H   0  0  0  0  0  0  0  0  0  0  0  0
    3.7996    0.4739   -7.6888 H   0  0  0  0  0  0  0  0  0  0  0  0
    2.1318    0.2969   -7.2771 H   0  0  0  0  0  0  0  0  0  0  0  0
    2.4698   -1.3201   -5.8643 H   0  0  0  0  0  0  0  0  0  0  0  0
    3.9811   -1.5212   -6.6760 H   0  0  0  0  0  0  0  0  0  0  0  0
    3.2993   -0.6102   -3.9058 H   0  0  0  0  0  0  0  0  0  0  0  0
    4.8347   -0.3008   -4.9281 H   0  0  0  0  0  0  0  0  0  0  0  0
    5.1146   -0.2543   -2.7758 H   0  0  0  0  0  0  0  0  0  0  0  0
    7.0660   -0.5534   -3.0185 H   0  0  0  0  0  0  0  0  0  0  0  0
    2.4650    3.0855    0.8761 H   0  0  0  0  0  0  0  0  0  0  0  0
    3.3289    1.9281    1.8938 H   0  0  0  0  0  0  0  0  0  0  0  0
    3.5663    0.6370   -0.4293 H   0  0  0  0  0  0  0  0  0  0  0  0
    2.0832    1.5071   -0.8111 H   0  0  0  0  0  0  0  0  0  0  0  0
  1  2  1  0  0  0  0
  1 32  1  0  0  0  0
  1 33  1  0  0  0  0
  1 34  1  0  0  0  0
  2  3  1  0  0  0  0
  2 31  1  0  0  0  0
  2 35  1  0  0  0  0
  3  4  1  0  0  0  0
  3 36  1  0  0  0  0
  3 37  1  0  0  0  0
  4  5  1  0  0  0  0
  4 38  1  0  0  0  0
  4 39  1  0  0  0  0
  5  6  1  0  0  0  0
  5 40  1  0  0  0  0
  5 41  1  0  0  0  0
  6  7  1  0  0  0  0
  6 28  1  0  0  0  0
  6 42  1  0  0  0  0
  7  8  1  0  0  0  0
  7 43  1  0  0  0  0
  7 44  1  0  0  0  0
  8  9  1  0  0  0  0
  8 45  1  0  0  0  0
  8 46  1  0  0  0  0
  9 10  1  0  0  0  0
  9 47  1  0  0  0  0
  9 48  1  0  0  0  0
 10 11  1  0  0  0  0
 10 49  1  0  0  0  0
 10 50  1  0  0  0  0
 11 12  1  0  0  0  0
 11 51  1  0  0  0  0
 11 52  1  0  0  0  0
 12 13  1  0  0  0  0
 12 53  1  0  0  0  0
 12 54  1  0  0  0  0
 13 14  1  0  0  0  0
 13 55  1  0  0  0  0
 13 56  1  0  0  0  0
 14 15  2  0  0  0  0
 14 16  1  0  0  0  0
 16 17  1  0  0  0  0
 16 57  1  0  0  0  0
 16 58  1  0  0  0  0
 17 18  1  0  0  0  0
 17 59  1  0  0  0  0
 17 60  1  0  0  0  0
 18 19  1  0  0  0  0
 18 30  1  0  0  0  0
 18 61  1  0  0  0  0
 19 20  1  0  0  0  0
 19 62  1  0  0  0  0
 19 63  1  0  0  0  0
 20 21  1  0  0  0  0
 20 64  1  0  0  0  0
 20 65  1  0  0  0  0
 21 22  1  0  0  0  0
 21 66  1  0  0  0  0
 21 67  1  0  0  0  0
 22 23  1  0  0  0  0
 22 68  1  0  0  0  0
 22 69  1  0  0  0  0
 23 24  1  0  0  0  0
 23 70  1  0  0  0  0
 23 71  1  0  0  0  0
 24 25  1  0  0  0  0
 24 72  1  0  0  0  0
 24 73  1  0  0  0  0
 25 26  1  0  0  0  0
 25 74  1  0  0  0  0
 25 75  1  0  0  0  0
 26 27  1  0  0  0  0
 26 76  1  0  0  0  0
 26 77  1  0  0  0  0
 27 28  1  0  0  0  0
 27 78  1  0  0  0  0
 27 79  1  0  0  0  0
 28 29  1  0  0  0  0
 28 80  1  0  0  0  0
 29 81  1  0  0  0  0
 30 31  1  0  0  0  0
 30 82  1  0  0  0  0
 30 83  1  0  0  0  0
 31 84  1  0  0  0  0
 31 85  1  0  0  0  0
M  END
$$$$
