
 OpenBabel04232216443D

 41 43  0  0  0  0  0  0  0  0999 V2000
   20.5138   -0.9917    1.7453 C   0  0  0  0  0  0  0  0  0  0  0  0
   19.5232   -1.7370    0.8667 C   0  0  0  0  0  0  0  0  0  0  0  0
   19.8371   -1.6603   -0.6089 C   0  0  0  0  0  0  0  0  0  0  0  0
   21.0966   -1.8442   -1.0666 C   0  0  0  0  0  0  0  0  0  0  0  0
   18.7357   -1.3782   -1.5179 C   0  0  0  0  0  0  0  0  0  0  0  0
   18.1715   -0.0015   -1.2229 C   0  0  0  0  0  0  0  0  0  0  0  0
   18.2609   -2.3827   -2.3309 C   0  0  0  0  0  0  0  0  0  0  0  0
   18.9759   -3.7059   -2.3225 C   0  0  0  0  0  0  0  0  0  0  0  0
   18.9358   -5.1023   -2.8510 C   0  0  0  0  0  0  0  0  0  0  0  0
   19.5533   -4.0531   -3.6904 C   0  0  0  0  0  0  0  0  0  0  0  0
   16.9485   -2.1465   -3.0035 C   0  0  0  0  0  0  0  0  0  0  0  0
   15.8798   -2.9104   -2.6804 C   0  0  0  0  0  0  0  0  0  0  0  0
   15.8431   -4.3729   -3.0031 C   0  0  0  0  0  0  0  0  0  0  0  0
   14.9986   -2.5346   -1.6498 N   0  0  0  0  0  0  0  0  0  0  0  0
   14.1935   -1.3144   -1.6891 C   0  0  0  0  0  0  0  0  0  0  0  0
   15.2532   -3.0126   -0.3716 N   0  0  0  0  0  0  0  0  0  0  0  0
   16.4797   -2.8250    0.0135 C   0  0  0  0  0  0  0  0  0  0  0  0
   16.7071   -3.8632    1.3969 C   0  0  0  0  0  0  0  0  0  0  0  0
   17.4863   -2.9443    0.9662 C   0  0  0  0  0  0  0  0  0  0  0  0
   18.5281   -2.2670    1.5074 N   0  0  0  0  0  0  0  0  0  0  0  0
   21.5223   -1.3941    1.6243 H   0  0  0  0  0  0  0  0  0  0  0  0
   20.2329   -1.0739    2.7982 H   0  0  0  0  0  0  0  0  0  0  0  0
   20.5065    0.0650    1.4570 H   0  0  0  0  0  0  0  0  0  0  0  0
   21.9211   -2.1281   -0.4319 H   0  0  0  0  0  0  0  0  0  0  0  0
   21.3120   -1.7915   -2.1341 H   0  0  0  0  0  0  0  0  0  0  0  0
   18.9637    0.6852   -0.8992 H   0  0  0  0  0  0  0  0  0  0  0  0
   17.4453   -0.0582   -0.4042 H   0  0  0  0  0  0  0  0  0  0  0  0
   17.6990    0.4804   -2.0825 H   0  0  0  0  0  0  0  0  0  0  0  0
   19.5486   -3.8212   -1.4030 H   0  0  0  0  0  0  0  0  0  0  0  0
   18.0498   -5.6145   -3.1684 H   0  0  0  0  0  0  0  0  0  0  0  0
   19.6234   -5.7981   -2.3615 H   0  0  0  0  0  0  0  0  0  0  0  0
   18.9936   -3.8033   -4.5854 H   0  0  0  0  0  0  0  0  0  0  0  0
   20.6276   -4.0067   -3.7979 H   0  0  0  0  0  0  0  0  0  0  0  0
   16.7144   -1.0826   -2.9549 H   0  0  0  0  0  0  0  0  0  0  0  0
   16.3891   -4.9391   -2.2486 H   0  0  0  0  0  0  0  0  0  0  0  0
   16.2451   -4.5536   -4.0074 H   0  0  0  0  0  0  0  0  0  0  0  0
   14.8176   -4.7521   -3.0007 H   0  0  0  0  0  0  0  0  0  0  0  0
   14.8059   -0.4370   -1.4580 H   0  0  0  0  0  0  0  0  0  0  0  0
   13.3789   -1.3662   -0.9571 H   0  0  0  0  0  0  0  0  0  0  0  0
   13.7378   -1.1751   -2.6759 H   0  0  0  0  0  0  0  0  0  0  0  0
   15.8409   -4.4901    1.2285 H   0  0  0  0  0  0  0  0  0  0  0  0
  1  2  1  0  0  0  0
  1 21  1  0  0  0  0
  1 22  1  0  0  0  0
  1 23  1  0  0  0  0
  2  3  1  0  0  0  0
  2 20  2  3  0  0  0
  3  4  2  0  0  0  0
  3  5  1  0  0  0  0
  4 24  1  0  0  0  0
  4 25  1  0  0  0  0
  5  6  1  0  0  0  0
  5  7  2  3  0  0  0
  6 26  1  0  0  0  0
  6 27  1  0  0  0  0
  6 28  1  0  0  0  0
  7  8  1  0  0  0  0
  7 11  1  0  0  0  0
  8  9  1  0  0  0  0
  8 10  1  0  0  0  0
  8 29  1  0  0  0  0
  9 10  1  0  0  0  0
  9 30  1  0  0  0  0
  9 31  1  0  0  0  0
 10 32  1  0  0  0  0
 10 33  1  0  0  0  0
 11 12  2  3  0  0  0
 11 34  1  0  0  0  0
 12 13  1  0  0  0  0
 12 14  1  0  0  0  0
 13 35  1  0  0  0  0
 13 36  1  0  0  0  0
 13 37  1  0  0  0  0
 14 15  1  0  0  0  0
 14 16  1  0  0  0  0
 15 38  1  0  0  0  0
 15 39  1  0  0  0  0
 15 40  1  0  0  0  0
 16 17  2  3  0  0  0
 17 18  1  0  0  0  0
 17 19  1  0  0  0  0
 18 19  2  0  0  0  0
 18 41  1  0  0  0  0
 19 20  1  0  0  0  0
M  END
$$$$
