
 OpenBabel04232216433D

 45 47  0  0  0  0  0  0  0  0999 V2000
   -2.7135    2.7599    0.1455 C   0  0  0  0  0  0  0  0  0  0  0  0
   -2.0650    1.4252    0.4657 C   0  0  0  0  0  0  0  0  0  0  0  0
   -0.8085    0.9860    0.2868 C   0  0  0  0  0  0  0  0  0  0  0  0
    0.2710    1.7206   -0.2994 C   0  0  0  0  0  0  0  0  0  0  0  0
    0.2980    3.0142   -0.6493 C   0  0  0  0  0  0  0  0  0  0  0  0
    1.3073    3.8791   -1.1514 C   0  0  0  0  0  0  0  0  0  0  0  0
    0.5141    4.9980   -1.0734 C   0  0  0  0  0  0  0  0  0  0  0  0
    1.1042    6.5344   -1.1184 C   0  0  0  0  0  0  0  0  0  0  0  0
    2.4634    6.4983   -0.8456 N   0  0  0  0  0  0  0  0  0  0  0  0
    2.7960    5.9622    0.3004 C   0  0  0  0  0  0  0  0  0  0  0  0
    3.9046    6.6148    1.0101 C   0  0  0  0  0  0  0  0  0  0  0  0
    3.3786    7.7075    1.6451 C   0  0  0  0  0  0  0  0  0  0  0  0
    1.9958    7.6846    1.9482 N   0  0  0  0  0  0  0  0  0  0  0  0
    1.1033    8.4032    2.8214 C   0  0  0  0  0  0  0  0  0  0  0  0
    4.1809    8.9679    1.3016 C   0  0  0  0  0  0  0  0  0  0  0  0
    3.4563   10.2717    1.5380 C   0  0  0  0  0  0  0  0  0  0  0  0
    2.6743   10.7657    0.5469 C   0  0  0  0  0  0  0  0  0  0  0  0
    1.5586    9.8560    0.0939 C   0  0  0  0  0  0  0  0  0  0  0  0
    1.4637    9.2102   -1.1077 C   0  0  0  0  0  0  0  0  0  0  0  0
    1.6957   10.2116   -2.2509 C   0  0  0  0  0  0  0  0  0  0  0  0
    0.6270    7.8464   -1.2693 C   0  0  0  0  0  0  0  0  0  0  0  0
   -0.6096    4.1224   -0.6274 C   0  0  0  0  0  0  0  0  0  0  0  0
   -1.9155    4.0147   -0.2789 C   0  0  0  0  0  0  0  0  0  0  0  0
   -3.2924    3.0101    1.0443 H   0  0  0  0  0  0  0  0  0  0  0  0
   -3.4597    2.5357   -0.6330 H   0  0  0  0  0  0  0  0  0  0  0  0
   -2.7471    0.7094    0.8814 H   0  0  0  0  0  0  0  0  0  0  0  0
   -0.5756   -0.0388    0.5966 H   0  0  0  0  0  0  0  0  0  0  0  0
    1.1882    1.1471   -0.3851 H   0  0  0  0  0  0  0  0  0  0  0  0
    2.3568    3.6948   -1.3490 H   0  0  0  0  0  0  0  0  0  0  0  0
    2.1190    5.3609    0.9445 H   0  0  0  0  0  0  0  0  0  0  0  0
    4.8784    6.5852    0.5575 H   0  0  0  0  0  0  0  0  0  0  0  0
    1.4970    7.6100    1.0582 H   0  0  0  0  0  0  0  0  0  0  0  0
    1.6123    8.9993    3.5775 H   0  0  0  0  0  0  0  0  0  0  0  0
    0.4643    7.6634    3.3035 H   0  0  0  0  0  0  0  0  0  0  0  0
    0.4104    9.0349    2.2519 H   0  0  0  0  0  0  0  0  0  0  0  0
    4.4109    8.9354    0.2187 H   0  0  0  0  0  0  0  0  0  0  0  0
    5.1546    8.9593    1.7984 H   0  0  0  0  0  0  0  0  0  0  0  0
    3.0965   10.3018    2.5643 H   0  0  0  0  0  0  0  0  0  0  0  0
    3.2508   11.1374   -0.3060 H   0  0  0  0  0  0  0  0  0  0  0  0
    0.6401   10.3636    0.3888 H   0  0  0  0  0  0  0  0  0  0  0  0
    2.7254   10.1847   -2.6342 H   0  0  0  0  0  0  0  0  0  0  0  0
    1.5820   11.2595   -1.8842 H   0  0  0  0  0  0  0  0  0  0  0  0
    0.9761   10.1502   -3.0644 H   0  0  0  0  0  0  0  0  0  0  0  0
   -0.3992    8.0141   -1.5594 H   0  0  0  0  0  0  0  0  0  0  0  0
   -2.5244    4.9057   -0.3163 H   0  0  0  0  0  0  0  0  0  0  0  0
  1  2  1  0  0  0  0
  1 23  1  0  0  0  0
  1 24  1  0  0  0  0
  1 25  1  0  0  0  0
  2  3  2  0  0  0  0
  2 26  1  0  0  0  0
  3  4  1  0  0  0  0
  3 27  1  0  0  0  0
  4  5  2  0  0  0  0
  4 28  1  0  0  0  0
  5  6  1  0  0  0  0
  5 22  1  0  0  0  0
  6  7  2  0  0  0  0
  6 29  1  0  0  0  0
  7  8  1  0  0  0  0
  7 22  1  0  0  0  0
  8  9  1  0  0  0  0
  8 21  2  3  0  0  0
  9 10  2  3  0  0  0
 10 11  1  0  0  0  0
 10 30  1  0  0  0  0
 11 12  2  3  0  0  0
 11 31  1  0  0  0  0
 12 13  1  0  0  0  0
 12 15  1  0  0  0  0
 13 14  1  0  0  0  0
 13 32  1  0  0  0  0
 14 33  1  0  0  0  0
 14 34  1  0  0  0  0
 14 35  1  0  0  0  0
 15 16  1  0  0  0  0
 15 36  1  0  0  0  0
 15 37  1  0  0  0  0
 16 17  2  3  0  0  0
 16 38  1  0  0  0  0
 17 18  1  0  0  0  0
 17 39  1  0  0  0  0
 18 19  2  3  0  0  0
 18 40  1  0  0  0  0
 19 20  1  0  0  0  0
 19 21  1  0  0  0  0
 20 41  1  0  0  0  0
 20 42  1  0  0  0  0
 20 43  1  0  0  0  0
 21 44  1  0  0  0  0
 22 23  2  0  0  0  0
 23 45  1  0  0  0  0
M  END
$$$$
