
 OpenBabel04232216413D

223222  0  0  0  0  0  0  0  0999 V2000
   10.7017   15.1188   -1.0481 C   0  0  0  0  0  0  0  0  0  0  0  0
   11.5867   14.5073   -1.8479 C   0  0  0  0  0  0  0  0  0  0  0  0
   11.8910   13.0386   -1.7612 C   0  0  0  0  0  0  0  0  0  0  0  0
   13.3191   12.8202   -1.4678 N   0  0  0  0  0  0  0  0  0  0  0  0
   13.5390   11.4287   -1.3043 N   0  0  0  0  0  0  0  0  0  0  0  0
   14.8999   11.1903   -0.9756 N   0  0  0  0  0  0  0  0  0  0  0  0
   15.1921    9.7880   -0.9959 N   0  0  0  0  0  0  0  0  0  0  0  0
   14.8735    9.1525   -2.2187 N   0  0  0  0  0  0  0  0  0  0  0  0
   15.6918    9.6464   -3.2683 N   0  0  0  0  0  0  0  0  0  0  0  0
   17.0734    9.4318   -2.9492 N   0  0  0  0  0  0  0  0  0  0  0  0
   17.3293    8.0359   -2.7621 N   0  0  0  0  0  0  0  0  0  0  0  0
   17.0292    7.3672   -4.0003 N   0  0  0  0  0  0  0  0  0  0  0  0
   17.8114    7.9976   -5.0629 N   0  0  0  0  0  0  0  0  0  0  0  0
   19.2335    7.8450   -4.7732 N   0  0  0  0  0  0  0  0  0  0  0  0
   19.5866    6.4395   -4.7097 N   0  0  0  0  0  0  0  0  0  0  0  0
   19.2478    5.7581   -5.9169 N   0  0  0  0  0  0  0  0  0  0  0  0
   20.0016    6.2913   -7.0135 N   0  0  0  0  0  0  0  0  0  0  0  0
   21.4010    6.1376   -6.7760 N   0  0  0  0  0  0  0  0  0  0  0  0
   21.7212    4.7557   -6.6063 N   0  0  0  0  0  0  0  0  0  0  0  0
   21.4552    3.9997   -7.8465 C   0  0  0  0  0  0  0  0  0  0  0  0
   22.1785    4.5888   -8.9688 N   0  0  0  0  0  0  0  0  0  0  0  0
   23.6071    4.5147   -8.7121 C   0  0  0  0  0  0  0  0  0  0  0  0
   24.3386    5.1569   -9.8672 C   0  0  0  0  0  0  0  0  0  0  0  0
   25.8294    5.0375   -9.6154 C   0  0  0  0  0  0  0  0  0  0  0  0
   26.5941    5.6428  -10.7728 C   0  0  0  0  0  0  0  0  0  0  0  0
   28.0847    5.5110  -10.5288 C   0  0  0  0  0  0  0  0  0  0  0  0
   28.8483    6.1141  -11.6918 C   0  0  0  0  0  0  0  0  0  0  0  0
   30.3400    5.9840  -11.4523 C   0  0  0  0  0  0  0  0  0  0  0  0
   31.1026    6.5875  -12.6162 C   0  0  0  0  0  0  0  0  0  0  0  0
   32.5947    6.4575  -12.3770 C   0  0  0  0  0  0  0  0  0  0  0  0
   33.3572    7.0612  -13.5408 C   0  0  0  0  0  0  0  0  0  0  0  0
   34.8492    6.9311  -13.3014 C   0  0  0  0  0  0  0  0  0  0  0  0
   35.6118    7.5364  -14.4644 C   0  0  0  0  0  0  0  0  0  0  0  0
   37.1037    7.4064  -14.2249 C   0  0  0  0  0  0  0  0  0  0  0  0
   37.8662    8.0117  -15.3879 C   0  0  0  0  0  0  0  0  0  0  0  0
   39.3582    7.8817  -15.1484 C   0  0  0  0  0  0  0  0  0  0  0  0
   40.1206    8.4853  -16.3122 C   0  0  0  0  0  0  0  0  0  0  0  0
   41.6126    8.3570  -16.0719 C   0  0  0  0  0  0  0  0  0  0  0  0
   42.3750    8.9587  -17.2367 C   0  0  0  0  0  0  0  0  0  0  0  0
   43.8670    8.8322  -16.9954 C   0  0  0  0  0  0  0  0  0  0  0  0
   44.6295    9.4323  -18.1610 C   0  0  0  0  0  0  0  0  0  0  0  0
   46.1214    9.3075  -17.9188 C   0  0  0  0  0  0  0  0  0  0  0  0
   46.8839    9.9075  -19.0845 C   0  0  0  0  0  0  0  0  0  0  0  0
   48.3758    9.7828  -18.8423 C   0  0  0  0  0  0  0  0  0  0  0  0
   49.1383   10.3827  -20.0080 C   0  0  0  0  0  0  0  0  0  0  0  0
   50.6302   10.2581  -19.7658 C   0  0  0  0  0  0  0  0  0  0  0  0
   51.3927   10.8582  -20.9314 C   0  0  0  0  0  0  0  0  0  0  0  0
   52.8846   10.7352  -20.6883 C   0  0  0  0  0  0  0  0  0  0  0  0
   53.6471   11.3369  -21.8531 C   0  0  0  0  0  0  0  0  0  0  0  0
   55.1390   11.2122  -21.6109 C   0  0  0  0  0  0  0  0  0  0  0  0
   55.9015   11.8140  -22.7757 C   0  0  0  0  0  0  0  0  0  0  0  0
   57.3934   11.6877  -22.5343 C   0  0  0  0  0  0  0  0  0  0  0  0
   58.1559   12.2910  -23.6983 C   0  0  0  0  0  0  0  0  0  0  0  0
   59.6479   12.1663  -23.4560 C   0  0  0  0  0  0  0  0  0  0  0  0
   60.4103   12.7682  -24.6207 C   0  0  0  0  0  0  0  0  0  0  0  0
   61.9023   12.6453  -24.3776 C   0  0  0  0  0  0  0  0  0  0  0  0
   62.6647   13.2488  -25.5415 C   0  0  0  0  0  0  0  0  0  0  0  0
   64.1567   13.1260  -25.2983 C   0  0  0  0  0  0  0  0  0  0  0  0
   64.9191   13.7313  -26.4613 C   0  0  0  0  0  0  0  0  0  0  0  0
   66.4111   13.6084  -26.2181 C   0  0  0  0  0  0  0  0  0  0  0  0
   67.1735   14.2137  -27.3810 C   0  0  0  0  0  0  0  0  0  0  0  0
   68.6655   14.0909  -27.1378 C   0  0  0  0  0  0  0  0  0  0  0  0
   69.4279   14.6962  -28.3008 C   0  0  0  0  0  0  0  0  0  0  0  0
   70.9199   14.5733  -28.0576 C   0  0  0  0  0  0  0  0  0  0  0  0
   71.6823   15.1786  -29.2206 C   0  0  0  0  0  0  0  0  0  0  0  0
   73.1743   15.0557  -28.9774 C   0  0  0  0  0  0  0  0  0  0  0  0
   73.9367   15.6611  -30.1403 C   0  0  0  0  0  0  0  0  0  0  0  0
   75.4287   15.5382  -29.8972 C   0  0  0  0  0  0  0  0  0  0  0  0
   76.1912   16.1453  -31.0592 C   0  0  0  0  0  0  0  0  0  0  0  0
   77.6832   16.0224  -30.8161 C   0  0  0  0  0  0  0  0  0  0  0  0
   78.4458   16.6296  -31.9781 C   0  0  0  0  0  0  0  0  0  0  0  0
   79.9380   16.5068  -31.7351 C   0  0  0  0  0  0  0  0  0  0  0  0
   80.7010   17.1140  -32.8972 C   0  0  0  0  0  0  0  0  0  0  0  0
   82.1938   16.9914  -32.6547 C   0  0  0  0  0  0  0  0  0  0  0  0
   82.9576   17.6005  -33.8162 C   0  0  0  0  0  0  0  0  0  0  0  0
   84.4518   17.4791  -33.5756 C   0  0  0  0  0  0  0  0  0  0  0  0
   85.2180   18.0886  -34.7379 C   0  0  0  0  0  0  0  0  0  0  0  0
   86.7146   17.9697  -34.4982 C   0  0  0  0  0  0  0  0  0  0  0  0
   87.4919   18.5760  -35.6582 C   0  0  0  0  0  0  0  0  0  0  0  0
   88.9840   18.4562  -35.4166 C   0  0  0  0  0  0  0  0  0  0  0  0
   10.5283   16.1825   -1.1450 H   0  0  0  0  0  0  0  0  0  0  0  0
   10.1683   14.5665   -0.2852 H   0  0  0  0  0  0  0  0  0  0  0  0
   12.1292   15.0699   -2.5973 H   0  0  0  0  0  0  0  0  0  0  0  0
   11.6485   12.5708   -2.7249 H   0  0  0  0  0  0  0  0  0  0  0  0
   11.2774   12.5475   -0.9949 H   0  0  0  0  0  0  0  0  0  0  0  0
   13.5476   13.2548   -0.5768 H   0  0  0  0  0  0  0  0  0  0  0  0
   13.3425   10.9546   -2.1838 H   0  0  0  0  0  0  0  0  0  0  0  0
   15.1441   11.6472   -0.0836 H   0  0  0  0  0  0  0  0  0  0  0  0
   14.7078    9.2923   -0.2494 H   0  0  0  0  0  0  0  0  0  0  0  0
   13.8929    9.1696   -2.4685 H   0  0  0  0  0  0  0  0  0  0  0  0
   15.5398   10.6435   -3.3675 H   0  0  0  0  0  0  0  0  0  0  0  0
   17.2851    9.8955   -2.0689 H   0  0  0  0  0  0  0  0  0  0  0  0
   16.6969    7.7080   -2.0260 H   0  0  0  0  0  0  0  0  0  0  0  0
   16.0271    7.5243   -4.1636 H   0  0  0  0  0  0  0  0  0  0  0  0
   17.5778    9.0053   -5.0557 H   0  0  0  0  0  0  0  0  0  0  0  0
   19.4521    8.3259   -3.8801 H   0  0  0  0  0  0  0  0  0  0  0  0
   19.1628    5.9699   -3.8925 H   0  0  0  0  0  0  0  0  0  0  0  0
   18.2594    5.7548   -6.1566 H   0  0  0  0  0  0  0  0  0  0  0  0
   19.8070    7.2822   -7.1218 H   0  0  0  0  0  0  0  0  0  0  0  0
   21.6414    6.6358   -5.9134 H   0  0  0  0  0  0  0  0  0  0  0  0
   21.1861    4.3649   -5.8348 H   0  0  0  0  0  0  0  0  0  0  0  0
   20.3803    4.0263   -8.0700 H   0  0  0  0  0  0  0  0  0  0  0  0
   21.7092    2.9475   -7.7052 H   0  0  0  0  0  0  0  0  0  0  0  0
   21.9142    5.5798   -8.9529 H   0  0  0  0  0  0  0  0  0  0  0  0
   23.9012    3.4667   -8.5993 H   0  0  0  0  0  0  0  0  0  0  0  0
   23.8861    5.0461   -7.7927 H   0  0  0  0  0  0  0  0  0  0  0  0
   24.0582    6.2151   -9.9600 H   0  0  0  0  0  0  0  0  0  0  0  0
   24.0677    4.6608  -10.8058 H   0  0  0  0  0  0  0  0  0  0  0  0
   26.1015    3.9813   -9.4954 H   0  0  0  0  0  0  0  0  0  0  0  0
   26.0961    5.5468   -8.6803 H   0  0  0  0  0  0  0  0  0  0  0  0
   26.3237    6.6996  -10.8863 H   0  0  0  0  0  0  0  0  0  0  0  0
   26.3202    5.1337  -11.7048 H   0  0  0  0  0  0  0  0  0  0  0  0
   28.3532    4.4537  -10.4122 H   0  0  0  0  0  0  0  0  0  0  0  0
   28.3584    6.0199   -9.5962 H   0  0  0  0  0  0  0  0  0  0  0  0
   28.5786    7.1711  -11.8078 H   0  0  0  0  0  0  0  0  0  0  0  0
   28.5730    5.6048  -12.6236 H   0  0  0  0  0  0  0  0  0  0  0  0
   30.6094    4.9269  -11.3364 H   0  0  0  0  0  0  0  0  0  0  0  0
   30.6151    6.4933  -10.5205 H   0  0  0  0  0  0  0  0  0  0  0  0
   30.8331    7.6445  -12.7322 H   0  0  0  0  0  0  0  0  0  0  0  0
   30.8275    6.0782  -13.5481 H   0  0  0  0  0  0  0  0  0  0  0  0
   32.8643    5.4005  -12.2611 H   0  0  0  0  0  0  0  0  0  0  0  0
   32.8698    6.9668  -11.4451 H   0  0  0  0  0  0  0  0  0  0  0  0
   33.0877    8.1182  -13.6567 H   0  0  0  0  0  0  0  0  0  0  0  0
   33.0822    6.5519  -14.4727 H   0  0  0  0  0  0  0  0  0  0  0  0
   35.1190    5.8740  -13.1869 H   0  0  0  0  0  0  0  0  0  0  0  0
   35.1242    7.4393  -12.3689 H   0  0  0  0  0  0  0  0  0  0  0  0
   35.3420    8.5936  -14.5789 H   0  0  0  0  0  0  0  0  0  0  0  0
   35.3369    7.0284  -15.3969 H   0  0  0  0  0  0  0  0  0  0  0  0
   37.3735    6.3493  -14.1104 H   0  0  0  0  0  0  0  0  0  0  0  0
   37.3787    7.9145  -13.2924 H   0  0  0  0  0  0  0  0  0  0  0  0
   37.5965    9.0688  -15.5024 H   0  0  0  0  0  0  0  0  0  0  0  0
   37.5913    7.5036  -16.3204 H   0  0  0  0  0  0  0  0  0  0  0  0
   39.6278    6.8247  -15.0325 H   0  0  0  0  0  0  0  0  0  0  0  0
   39.6332    8.3910  -14.2165 H   0  0  0  0  0  0  0  0  0  0  0  0
   39.8501    9.5419  -16.4291 H   0  0  0  0  0  0  0  0  0  0  0  0
   39.8465    7.9750  -17.2438 H   0  0  0  0  0  0  0  0  0  0  0  0
   41.8831    7.3004  -15.9536 H   0  0  0  0  0  0  0  0  0  0  0  0
   41.8868    8.8685  -15.1409 H   0  0  0  0  0  0  0  0  0  0  0  0
   42.1037   10.0149  -17.3559 H   0  0  0  0  0  0  0  0  0  0  0  0
   42.1018    8.4463  -18.1673 H   0  0  0  0  0  0  0  0  0  0  0  0
   44.1384    7.7762  -16.8748 H   0  0  0  0  0  0  0  0  0  0  0  0
   44.1403    9.3459  -16.0654 H   0  0  0  0  0  0  0  0  0  0  0  0
   44.3572   10.4880  -18.2825 H   0  0  0  0  0  0  0  0  0  0  0  0
   44.3570    8.9177  -19.0908 H   0  0  0  0  0  0  0  0  0  0  0  0
   46.3937    8.2518  -17.7973 H   0  0  0  0  0  0  0  0  0  0  0  0
   46.3938    9.8222  -16.9891 H   0  0  0  0  0  0  0  0  0  0  0  0
   46.6115   10.9632  -19.2060 H   0  0  0  0  0  0  0  0  0  0  0  0
   46.6115    9.3929  -20.0143 H   0  0  0  0  0  0  0  0  0  0  0  0
   48.6482    8.7271  -18.7208 H   0  0  0  0  0  0  0  0  0  0  0  0
   48.6482   10.2975  -17.9126 H   0  0  0  0  0  0  0  0  0  0  0  0
   48.8659   11.4384  -20.1295 H   0  0  0  0  0  0  0  0  0  0  0  0
   48.8660    9.8681  -20.9378 H   0  0  0  0  0  0  0  0  0  0  0  0
   50.9027    9.2025  -19.6443 H   0  0  0  0  0  0  0  0  0  0  0  0
   50.9025   10.7728  -18.8360 H   0  0  0  0  0  0  0  0  0  0  0  0
   51.1193   11.9135  -21.0537 H   0  0  0  0  0  0  0  0  0  0  0  0
   51.1214   10.3427  -21.8610 H   0  0  0  0  0  0  0  0  0  0  0  0
   53.1581    9.6797  -20.5673 H   0  0  0  0  0  0  0  0  0  0  0  0
   53.1558   11.2496  -19.7581 H   0  0  0  0  0  0  0  0  0  0  0  0
   53.3745   12.3927  -21.9732 H   0  0  0  0  0  0  0  0  0  0  0  0
   53.3750   10.8235  -22.7836 H   0  0  0  0  0  0  0  0  0  0  0  0
   55.4116   10.1564  -21.4909 H   0  0  0  0  0  0  0  0  0  0  0  0
   55.4112   11.7256  -20.6804 H   0  0  0  0  0  0  0  0  0  0  0  0
   55.6299   12.8702  -22.8948 H   0  0  0  0  0  0  0  0  0  0  0  0
   55.6285   11.3016  -23.7064 H   0  0  0  0  0  0  0  0  0  0  0  0
   57.6652   10.6314  -22.4164 H   0  0  0  0  0  0  0  0  0  0  0  0
   57.6664   12.1990  -21.6030 H   0  0  0  0  0  0  0  0  0  0  0  0
   57.8833   13.3470  -23.8170 H   0  0  0  0  0  0  0  0  0  0  0  0
   57.8839   11.7788  -24.6294 H   0  0  0  0  0  0  0  0  0  0  0  0
   59.9206   11.1106  -23.3360 H   0  0  0  0  0  0  0  0  0  0  0  0
   59.9198   12.6797  -22.5255 H   0  0  0  0  0  0  0  0  0  0  0  0
   60.1367   13.8237  -24.7415 H   0  0  0  0  0  0  0  0  0  0  0  0
   60.1392   12.2540  -25.5511 H   0  0  0  0  0  0  0  0  0  0  0  0
   62.1761   11.5897  -24.2580 H   0  0  0  0  0  0  0  0  0  0  0  0
   62.1731   13.1585  -23.4467 H   0  0  0  0  0  0  0  0  0  0  0  0
   62.3908   14.3043  -25.6609 H   0  0  0  0  0  0  0  0  0  0  0  0
   62.3939   12.7357  -26.4725 H   0  0  0  0  0  0  0  0  0  0  0  0
   64.4307   12.0703  -25.1801 H   0  0  0  0  0  0  0  0  0  0  0  0
   64.4273   13.6380  -24.3666 H   0  0  0  0  0  0  0  0  0  0  0  0
   64.6450   14.7869  -26.5794 H   0  0  0  0  0  0  0  0  0  0  0  0
   64.6485   13.2193  -27.3930 H   0  0  0  0  0  0  0  0  0  0  0  0
   66.6852   12.5528  -26.1000 H   0  0  0  0  0  0  0  0  0  0  0  0
   66.6816   14.1203  -25.2863 H   0  0  0  0  0  0  0  0  0  0  0  0
   66.8994   15.2694  -27.4991 H   0  0  0  0  0  0  0  0  0  0  0  0
   66.9029   13.7018  -28.3128 H   0  0  0  0  0  0  0  0  0  0  0  0
   68.9395   13.0352  -27.0197 H   0  0  0  0  0  0  0  0  0  0  0  0
   68.9360   14.6028  -26.2061 H   0  0  0  0  0  0  0  0  0  0  0  0
   69.1538   15.7518  -28.4189 H   0  0  0  0  0  0  0  0  0  0  0  0
   69.1573   14.1843  -29.2325 H   0  0  0  0  0  0  0  0  0  0  0  0
   71.1939   13.5177  -27.9395 H   0  0  0  0  0  0  0  0  0  0  0  0
   71.1905   15.0852  -27.1259 H   0  0  0  0  0  0  0  0  0  0  0  0
   71.4082   16.2343  -29.3386 H   0  0  0  0  0  0  0  0  0  0  0  0
   71.4117   14.6667  -30.1523 H   0  0  0  0  0  0  0  0  0  0  0  0
   73.4484   14.0001  -28.8593 H   0  0  0  0  0  0  0  0  0  0  0  0
   73.4448   15.5676  -28.0457 H   0  0  0  0  0  0  0  0  0  0  0  0
   73.6626   16.7167  -30.2583 H   0  0  0  0  0  0  0  0  0  0  0  0
   73.6662   15.1493  -31.0721 H   0  0  0  0  0  0  0  0  0  0  0  0
   75.7029   14.4825  -29.7804 H   0  0  0  0  0  0  0  0  0  0  0  0
   75.6991   16.0490  -28.9647 H   0  0  0  0  0  0  0  0  0  0  0  0
   75.9168   17.2010  -31.1759 H   0  0  0  0  0  0  0  0  0  0  0  0
   75.9207   15.6346  -31.9917 H   0  0  0  0  0  0  0  0  0  0  0  0
   77.9574   14.9667  -30.6994 H   0  0  0  0  0  0  0  0  0  0  0  0
   77.9535   16.5331  -29.8836 H   0  0  0  0  0  0  0  0  0  0  0  0
   78.1714   17.6853  -32.0947 H   0  0  0  0  0  0  0  0  0  0  0  0
   78.1753   16.1189  -32.9106 H   0  0  0  0  0  0  0  0  0  0  0  0
   80.2121   15.4510  -31.6184 H   0  0  0  0  0  0  0  0  0  0  0  0
   80.2081   17.0174  -30.8025 H   0  0  0  0  0  0  0  0  0  0  0  0
   80.4262   18.1696  -33.0136 H   0  0  0  0  0  0  0  0  0  0  0  0
   80.4302   16.6033  -33.8296 H   0  0  0  0  0  0  0  0  0  0  0  0
   82.4677   15.9355  -32.5391 H   0  0  0  0  0  0  0  0  0  0  0  0
   82.4634   17.5008  -31.7212 H   0  0  0  0  0  0  0  0  0  0  0  0
   82.6817   18.6560  -33.9309 H   0  0  0  0  0  0  0  0  0  0  0  0
   82.6862   17.0908  -34.7489 H   0  0  0  0  0  0  0  0  0  0  0  0
   84.7251   16.4230  -33.4594 H   0  0  0  0  0  0  0  0  0  0  0  0
   84.7205   17.9880  -32.6416 H   0  0  0  0  0  0  0  0  0  0  0  0
   84.9399   19.1434  -34.8528 H   0  0  0  0  0  0  0  0  0  0  0  0
   84.9461   17.5775  -35.6696 H   0  0  0  0  0  0  0  0  0  0  0  0
   86.9860   16.9135  -34.3781 H   0  0  0  0  0  0  0  0  0  0  0  0
   86.9799   18.4796  -33.5637 H   0  0  0  0  0  0  0  0  0  0  0  0
   87.2218   19.6318  -35.7770 H   0  0  0  0  0  0  0  0  0  0  0  0
   87.2280   18.0651  -36.5916 H   0  0  0  0  0  0  0  0  0  0  0  0
   89.2709   18.9801  -34.4993 H   0  0  0  0  0  0  0  0  0  0  0  0
   89.5393   18.8922  -36.2512 H   0  0  0  0  0  0  0  0  0  0  0  0
   89.2770   17.4060  -35.3177 H   0  0  0  0  0  0  0  0  0  0  0  0
  1  2  2  0  0  0  0
  1 81  1  0  0  0  0
  1 82  1  0  0  0  0
  2  3  1  0  0  0  0
  2 83  1  0  0  0  0
  3  4  1  0  0  0  0
  3 84  1  0  0  0  0
  3 85  1  0  0  0  0
  4  5  1  0  0  0  0
  4 86  1  0  0  0  0
  5  6  1  0  0  0  0
  5 87  1  0  0  0  0
  6  7  1  0  0  0  0
  6 88  1  0  0  0  0
  7  8  1  0  0  0  0
  7 89  1  0  0  0  0
  8  9  1  0  0  0  0
  8 90  1  0  0  0  0
  9 10  1  0  0  0  0
  9 91  1  0  0  0  0
 10 11  1  0  0  0  0
 10 92  1  0  0  0  0
 11 12  1  0  0  0  0
 11 93  1  0  0  0  0
 12 13  1  0  0  0  0
 12 94  1  0  0  0  0
 13 14  1  0  0  0  0
 13 95  1  0  0  0  0
 14 15  1  0  0  0  0
 14 96  1  0  0  0  0
 15 16  1  0  0  0  0
 15 97  1  0  0  0  0
 16 17  1  0  0  0  0
 16 98  1  0  0  0  0
 17 18  1  0  0  0  0
 17 99  1  0  0  0  0
 18 19  1  0  0  0  0
 18100  1  0  0  0  0
 19 20  1  0  0  0  0
 19101  1  0  0  0  0
 20 21  1  0  0  0  0
 20102  1  0  0  0  0
 20103  1  0  0  0  0
 21 22  1  0  0  0  0
 21104  1  0  0  0  0
 22 23  1  0  0  0  0
 22105  1  0  0  0  0
 22106  1  0  0  0  0
 23 24  1  0  0  0  0
 23107  1  0  0  0  0
 23108  1  0  0  0  0
 24 25  1  0  0  0  0
 24109  1  0  0  0  0
 24110  1  0  0  0  0
 25 26  1  0  0  0  0
 25111  1  0  0  0  0
 25112  1  0  0  0  0
 26 27  1  0  0  0  0
 26113  1  0  0  0  0
 26114  1  0  0  0  0
 27 28  1  0  0  0  0
 27115  1  0  0  0  0
 27116  1  0  0  0  0
 28 29  1  0  0  0  0
 28117  1  0  0  0  0
 28118  1  0  0  0  0
 29 30  1  0  0  0  0
 29119  1  0  0  0  0
 29120  1  0  0  0  0
 30 31  1  0  0  0  0
 30121  1  0  0  0  0
 30122  1  0  0  0  0
 31 32  1  0  0  0  0
 31123  1  0  0  0  0
 31124  1  0  0  0  0
 32 33  1  0  0  0  0
 32125  1  0  0  0  0
 32126  1  0  0  0  0
 33 34  1  0  0  0  0
 33127  1  0  0  0  0
 33128  1  0  0  0  0
 34 35  1  0  0  0  0
 34129  1  0  0  0  0
 34130  1  0  0  0  0
 35 36  1  0  0  0  0
 35131  1  0  0  0  0
 35132  1  0  0  0  0
 36 37  1  0  0  0  0
 36133  1  0  0  0  0
 36134  1  0  0  0  0
 37 38  1  0  0  0  0
 37135  1  0  0  0  0
 37136  1  0  0  0  0
 38 39  1  0  0  0  0
 38137  1  0  0  0  0
 38138  1  0  0  0  0
 39 40  1  0  0  0  0
 39139  1  0  0  0  0
 39140  1  0  0  0  0
 40 41  1  0  0  0  0
 40141  1  0  0  0  0
 40142  1  0  0  0  0
 41 42  1  0  0  0  0
 41143  1  0  0  0  0
 41144  1  0  0  0  0
 42 43  1  0  0  0  0
 42145  1  0  0  0  0
 42146  1  0  0  0  0
 43 44  1  0  0  0  0
 43147  1  0  0  0  0
 43148  1  0  0  0  0
 44 45  1  0  0  0  0
 44149  1  0  0  0  0
 44150  1  0  0  0  0
 45 46  1  0  0  0  0
 45151  1  0  0  0  0
 45152  1  0  0  0  0
 46 47  1  0  0  0  0
 46153  1  0  0  0  0
 46154  1  0  0  0  0
 47 48  1  0  0  0  0
 47155  1  0  0  0  0
 47156  1  0  0  0  0
 48 49  1  0  0  0  0
 48157  1  0  0  0  0
 48158  1  0  0  0  0
 49 50  1  0  0  0  0
 49159  1  0  0  0  0
 49160  1  0  0  0  0
 50 51  1  0  0  0  0
 50161  1  0  0  0  0
 50162  1  0  0  0  0
 51 52  1  0  0  0  0
 51163  1  0  0  0  0
 51164  1  0  0  0  0
 52 53  1  0  0  0  0
 52165  1  0  0  0  0
 52166  1  0  0  0  0
 53 54  1  0  0  0  0
 53167  1  0  0  0  0
 53168  1  0  0  0  0
 54 55  1  0  0  0  0
 54169  1  0  0  0  0
 54170  1  0  0  0  0
 55 56  1  0  0  0  0
 55171  1  0  0  0  0
 55172  1  0  0  0  0
 56 57  1  0  0  0  0
 56173  1  0  0  0  0
 56174  1  0  0  0  0
 57 58  1  0  0  0  0
 57175  1  0  0  0  0
 57176  1  0  0  0  0
 58 59  1  0  0  0  0
 58177  1  0  0  0  0
 58178  1  0  0  0  0
 59 60  1  0  0  0  0
 59179  1  0  0  0  0
 59180  1  0  0  0  0
 60 61  1  0  0  0  0
 60181  1  0  0  0  0
 60182  1  0  0  0  0
 61 62  1  0  0  0  0
 61183  1  0  0  0  0
 61184  1  0  0  0  0
 62 63  1  0  0  0  0
 62185  1  0  0  0  0
 62186  1  0  0  0  0
 63 64  1  0  0  0  0
 63187  1  0  0  0  0
 63188  1  0  0  0  0
 64 65  1  0  0  0  0
 64189  1  0  0  0  0
 64190  1  0  0  0  0
 65 66  1  0  0  0  0
 65191  1  0  0  0  0
 65192  1  0  0  0  0
 66 67  1  0  0  0  0
 66193  1  0  0  0  0
 66194  1  0  0  0  0
 67 68  1  0  0  0  0
 67195  1  0  0  0  0
 67196  1  0  0  0  0
 68 69  1  0  0  0  0
 68197  1  0  0  0  0
 68198  1  0  0  0  0
 69 70  1  0  0  0  0
 69199  1  0  0  0  0
 69200  1  0  0  0  0
 70 71  1  0  0  0  0
 70201  1  0  0  0  0
 70202  1  0  0  0  0
 71 72  1  0  0  0  0
 71203  1  0  0  0  0
 71204  1  0  0  0  0
 72 73  1  0  0  0  0
 72205  1  0  0  0  0
 72206  1  0  0  0  0
 73 74  1  0  0  0  0
 73207  1  0  0  0  0
 73208  1  0  0  0  0
 74 75  1  0  0  0  0
 74209  1  0  0  0  0
 74210  1  0  0  0  0
 75 76  1  0  0  0  0
 75211  1  0  0  0  0
 75212  1  0  0  0  0
 76 77  1  0  0  0  0
 76213  1  0  0  0  0
 76214  1  0  0  0  0
 77 78  1  0  0  0  0
 77215  1  0  0  0  0
 77216  1  0  0  0  0
 78 79  1  0  0  0  0
 78217  1  0  0  0  0
 78218  1  0  0  0  0
 79 80  1  0  0  0  0
 79219  1  0  0  0  0
 79220  1  0  0  0  0
 80221  1  0  0  0  0
 80222  1  0  0  0  0
 80223  1  0  0  0  0
M  END
$$$$
