
 OpenBabel04232216433D

 31 31  0  0  0  0  0  0  0  0999 V2000
    6.6360    0.4746   -0.3169 C   0  0  0  0  0  0  0  0  0  0  0  0
    5.1019    0.6025    0.0305 C   0  0  0  0  0  0  0  0  0  0  0  0
    4.3457    1.2355    0.9470 C   0  0  0  0  0  0  0  0  0  0  0  0
    5.0029    2.0940    1.8720 C   0  0  0  0  0  0  0  0  0  0  0  0
    4.9135    3.3928    1.5269 C   0  0  0  0  0  0  0  0  0  0  0  0
    6.1383    3.8827    0.9616 C   0  0  0  0  0  0  0  0  0  0  0  0
    6.8206    4.8477    1.5653 C   0  0  0  0  0  0  0  0  0  0  0  0
    8.1908    4.5810    1.8654 C   0  0  0  0  0  0  0  0  0  0  0  0
    9.0728    5.5500    2.0924 C   0  0  0  0  0  0  0  0  0  0  0  0
   10.4415    5.2271    2.4599 C   0  0  0  0  0  0  0  0  0  0  0  0
   11.2967    5.0359    1.4390 C   0  0  0  0  0  0  0  0  0  0  0  0
   11.4457    3.6696    0.8663 C   0  0  0  0  0  0  0  0  0  0  0  0
   10.5253    2.7977    0.3455 C   0  0  0  0  0  0  0  0  0  0  0  0
    9.1842    2.0865    0.0317 C   0  0  0  0  0  0  0  0  0  0  0  0
    8.0356    1.3249   -0.1005 C   0  0  0  0  0  0  0  0  0  0  0  0
    6.5701    0.3597   -1.4138 H   0  0  0  0  0  0  0  0  0  0  0  0
    6.8713   -0.5319    0.0556 H   0  0  0  0  0  0  0  0  0  0  0  0
    4.4643   -0.0399   -0.5991 H   0  0  0  0  0  0  0  0  0  0  0  0
    3.2484    1.2267    0.9624 H   0  0  0  0  0  0  0  0  0  0  0  0
    5.9632    1.6561    2.1692 H   0  0  0  0  0  0  0  0  0  0  0  0
    4.0066    3.8001    1.0930 H   0  0  0  0  0  0  0  0  0  0  0  0
    6.6698    3.1470    0.3831 H   0  0  0  0  0  0  0  0  0  0  0  0
    6.3222    5.6053    2.1408 H   0  0  0  0  0  0  0  0  0  0  0  0
    8.4742    3.5321    1.9932 H   0  0  0  0  0  0  0  0  0  0  0  0
    8.7718    6.5845    1.9847 H   0  0  0  0  0  0  0  0  0  0  0  0
   10.3533    4.3225    3.0794 H   0  0  0  0  0  0  0  0  0  0  0  0
   12.2320    5.6100    1.5671 H   0  0  0  0  0  0  0  0  0  0  0  0
   12.4997    3.3680    0.9668 H   0  0  0  0  0  0  0  0  0  0  0  0
    9.9663    3.6823   -0.0758 H   0  0  0  0  0  0  0  0  0  0  0  0
    9.6215    1.3470    0.7530 H   0  0  0  0  0  0  0  0  0  0  0  0
    7.6950    1.9463   -0.9609 H   0  0  0  0  0  0  0  0  0  0  0  0
  1  2  1  0  0  0  0
  1 15  1  0  0  0  0
  1 16  1  0  0  0  0
  1 17  1  0  0  0  0
  2  3  2  3  0  0  0
  2 18  1  0  0  0  0
  3  4  1  0  0  0  0
  3 19  1  0  0  0  0
  4  5  2  3  0  0  0
  4 20  1  0  0  0  0
  5  6  1  0  0  0  0
  5 21  1  0  0  0  0
  6  7  2  3  0  0  0
  6 22  1  0  0  0  0
  7  8  1  0  0  0  0
  7 23  1  0  0  0  0
  8  9  2  3  0  0  0
  8 24  1  0  0  0  0
  9 10  1  0  0  0  0
  9 25  1  0  0  0  0
 10 11  2  3  0  0  0
 10 26  1  0  0  0  0
 11 12  1  0  0  0  0
 11 27  1  0  0  0  0
 12 13  2  3  0  0  0
 12 28  1  0  0  0  0
 13 14  1  0  0  0  0
 13 29  1  0  0  0  0
 14 15  2  3  0  0  0
 14 30  1  0  0  0  0
 15 31  1  0  0  0  0
M  END
$$$$
