
 OpenBabel04232216463D

 57 58  0  0  1  0  0  0  0  0999 V2000
    1.6259    1.6422   -1.6721 C   0  0  0  0  0  0  0  0  0  0  0  0
    2.9953    2.2419   -1.5400 C   0  0  0  0  0  0  0  0  0  0  0  0
    3.4150    3.1219   -2.4859 C   0  0  0  0  0  0  0  0  0  0  0  0
    4.8736    3.3100   -2.3415 C   0  0  0  0  0  0  0  0  0  0  0  0
    5.5471    1.9753   -2.1871 C   0  0  3  0  0  0  0  0  0  0  0  0
    5.1255    0.7128   -2.9751 C   0  0  0  0  0  0  0  0  0  0  0  0
    5.2294    0.7951   -4.4904 C   0  0  0  0  0  0  0  0  0  0  0  0
    4.6921   -0.5134   -5.0864 C   0  0  0  0  0  0  0  0  0  0  0  0
    4.7705   -0.5325   -6.6085 C   0  0  0  0  0  0  0  0  0  0  0  0
    4.2267   -1.8505   -7.1623 C   0  0  0  0  0  0  0  0  0  0  0  0
    4.3064   -1.8939   -8.6785 C   0  0  0  0  0  0  0  0  0  0  0  0
    5.2738    4.4839   -1.9539 N   0  0  0  0  0  0  0  0  0  0  0  0
    6.2363    4.7587   -0.9966 C   0  0  0  0  0  0  0  0  0  0  0  0
    7.1086    4.0731   -0.2134 C   0  0  0  0  0  0  0  0  0  0  0  0
    7.8138    4.8493    0.8979 C   0  0  0  0  0  0  0  0  0  0  0  0
    7.5083    2.7392   -0.2498 N   0  0  0  0  0  0  0  0  0  0  0  0
    8.5362    2.3185   -1.2275 C   0  0  0  0  0  0  0  0  0  0  0  0
    9.9698    2.5397   -0.7646 C   0  0  0  0  0  0  0  0  0  0  0  0
   10.3915    1.5536    0.3157 C   0  0  0  0  0  0  0  0  0  0  0  0
   11.8807    1.6959    0.6194 C   0  0  0  0  0  0  0  0  0  0  0  0
   12.3153    0.7144    1.6938 C   0  0  0  0  0  0  0  0  0  0  0  0
    6.4139    1.5798    0.3762 S   0  0  0  0  0  0  0  0  0  0  0  0
    5.1032    1.7214   -0.7786 C   0  0  0  0  0  0  0  0  0  0  0  0
    3.8222    1.7714   -0.4895 N   0  0  0  0  0  0  0  0  0  0  0  0
    1.1389    1.9583   -2.6044 H   0  0  0  0  0  0  0  0  0  0  0  0
    0.9810    1.9173   -0.8366 H   0  0  0  0  0  0  0  0  0  0  0  0
    1.7087    0.5508   -1.7211 H   0  0  0  0  0  0  0  0  0  0  0  0
    2.8668    3.5320   -3.3180 H   0  0  0  0  0  0  0  0  0  0  0  0
    6.5888    2.1115   -2.4038 H   0  0  0  0  0  0  0  0  0  0  0  0
    4.1119    0.3790   -2.7255 H   0  0  0  0  0  0  0  0  0  0  0  0
    5.7622   -0.1149   -2.6276 H   0  0  0  0  0  0  0  0  0  0  0  0
    6.2738    0.9451   -4.7836 H   0  0  0  0  0  0  0  0  0  0  0  0
    4.6458    1.6407   -4.8682 H   0  0  0  0  0  0  0  0  0  0  0  0
    3.6483   -0.6550   -4.7758 H   0  0  0  0  0  0  0  0  0  0  0  0
    5.2586   -1.3611   -4.6795 H   0  0  0  0  0  0  0  0  0  0  0  0
    5.8118   -0.3991   -6.9236 H   0  0  0  0  0  0  0  0  0  0  0  0
    4.1944    0.3063   -7.0164 H   0  0  0  0  0  0  0  0  0  0  0  0
    3.1831   -1.9830   -6.8528 H   0  0  0  0  0  0  0  0  0  0  0  0
    4.7947   -2.6922   -6.7483 H   0  0  0  0  0  0  0  0  0  0  0  0
    3.7234   -1.0821   -9.1247 H   0  0  0  0  0  0  0  0  0  0  0  0
    3.9091   -2.8431   -9.0513 H   0  0  0  0  0  0  0  0  0  0  0  0
    5.3428   -1.8021   -9.0184 H   0  0  0  0  0  0  0  0  0  0  0  0
    6.1598    5.8189   -0.7431 H   0  0  0  0  0  0  0  0  0  0  0  0
    7.3058    5.7850    1.1557 H   0  0  0  0  0  0  0  0  0  0  0  0
    8.8403    5.0938    0.6092 H   0  0  0  0  0  0  0  0  0  0  0  0
    7.8552    4.2545    1.8196 H   0  0  0  0  0  0  0  0  0  0  0  0
    8.4209    2.9230   -2.1392 H   0  0  0  0  0  0  0  0  0  0  0  0
    8.4077    1.2704   -1.5247 H   0  0  0  0  0  0  0  0  0  0  0  0
   10.1247    3.5690   -0.4256 H   0  0  0  0  0  0  0  0  0  0  0  0
   10.6207    2.4051   -1.6392 H   0  0  0  0  0  0  0  0  0  0  0  0
   10.1836    0.5307   -0.0214 H   0  0  0  0  0  0  0  0  0  0  0  0
    9.8045    1.7253    1.2246 H   0  0  0  0  0  0  0  0  0  0  0  0
   12.0992    2.7184    0.9477 H   0  0  0  0  0  0  0  0  0  0  0  0
   12.4660    1.5166   -0.2909 H   0  0  0  0  0  0  0  0  0  0  0  0
   11.7670    0.8902    2.6237 H   0  0  0  0  0  0  0  0  0  0  0  0
   13.3841    0.8259    1.8979 H   0  0  0  0  0  0  0  0  0  0  0  0
   12.1329   -0.3166    1.3748 H   0  0  0  0  0  0  0  0  0  0  0  0
  1  2  1  0  0  0  0
  1 25  1  0  0  0  0
  1 26  1  0  0  0  0
  1 27  1  0  0  0  0
  2  3  2  0  0  0  0
  2 24  1  0  0  0  0
  3  4  1  0  0  0  0
  3 28  1  0  0  0  0
  4  5  1  0  0  0  0
  4 12  2  0  0  0  0
  5  6  1  0  0  0  0
  5 23  1  0  0  0  0
  5 29  1  0  0  0  0
  6  7  1  0  0  0  0
  6 30  1  0  0  0  0
  6 31  1  0  0  0  0
  7  8  1  0  0  0  0
  7 32  1  0  0  0  0
  7 33  1  0  0  0  0
  8  9  1  0  0  0  0
  8 34  1  0  0  0  0
  8 35  1  0  0  0  0
  9 10  1  0  0  0  0
  9 36  1  0  0  0  0
  9 37  1  0  0  0  0
 10 11  1  0  0  0  0
 10 38  1  0  0  0  0
 10 39  1  0  0  0  0
 11 40  1  0  0  0  0
 11 41  1  0  0  0  0
 11 42  1  0  0  0  0
 12 13  1  0  0  0  0
 13 14  2  0  0  0  0
 13 43  1  0  0  0  0
 14 15  1  0  0  0  0
 14 16  1  0  0  0  0
 15 44  1  0  0  0  0
 15 45  1  0  0  0  0
 15 46  1  0  0  0  0
 16 17  1  0  0  0  0
 16 22  1  0  0  0  0
 17 18  1  0  0  0  0
 17 47  1  0  0  0  0
 17 48  1  0  0  0  0
 18 19  1  0  0  0  0
 18 49  1  0  0  0  0
 18 50  1  0  0  0  0
 19 20  1  0  0  0  0
 19 51  1  0  0  0  0
 19 52  1  0  0  0  0
 20 21  1  0  0  0  0
 20 53  1  0  0  0  0
 20 54  1  0  0  0  0
 21 55  1  0  0  0  0
 21 56  1  0  0  0  0
 21 57  1  0  0  0  0
 22 23  1  0  0  0  0
 23 24  2  0  0  0  0
M  END
$$$$
