
 OpenBabel04232216523D

 75 76  0  0  1  0  0  0  0  0999 V2000
    5.0609   -0.6106   -1.7420 C   0  0  0  0  0  0  0  0  0  0  0  0
    5.8754    0.6929   -2.4164 C   0  0  0  0  0  0  0  0  0  0  0  0
    7.7122    0.8873   -2.8791 C   0  0  0  0  0  0  0  0  0  0  0  0
    8.7260    2.4473   -3.5350 C   0  0  3  0  0  0  0  0  0  0  0  0
    7.3754    3.3110   -3.0357 C   0  0  0  0  0  0  0  0  0  0  0  0
    7.2274    3.1389   -1.4536 C   0  0  0  0  0  0  0  0  0  0  0  0
    7.4872    4.5096   -0.9593 C   0  0  0  0  0  0  0  0  0  0  0  0
    8.9594    4.4725   -0.9607 C   0  0  0  0  0  0  0  0  0  0  0  0
    9.2340    5.5017   -1.9722 C   0  0  0  0  0  0  0  0  0  0  0  0
   10.6612    5.5201   -1.9124 C   0  0  0  0  0  0  0  0  0  0  0  0
   10.9443    6.7549   -2.6757 C   0  0  0  0  0  0  0  0  0  0  0  0
   12.2784    6.8367   -2.1404 C   0  0  0  0  0  0  0  0  0  0  0  0
   12.9757    8.0563   -2.5163 C   0  0  0  0  0  0  0  0  0  0  0  0
   14.2843    7.4428   -2.1268 C   0  0  0  0  0  0  0  0  0  0  0  0
   14.4515    6.7254   -1.1359 O   0  0  0  0  0  0  0  0  0  0  0  0
   15.3488    7.5296   -3.0820 C   0  0  0  0  0  0  0  0  0  0  0  0
   14.7858    7.4817   -4.3388 C   0  0  0  0  0  0  0  0  0  0  0  0
   13.5383    6.5127   -4.8241 C   0  0  0  0  0  0  0  0  0  0  0  0
   13.4800    5.1270   -4.5865 C   0  0  0  0  0  0  0  0  0  0  0  0
   15.4305    5.1468   -5.1031 C   0  0  0  0  0  0  0  0  0  0  0  0
   17.1383    6.0488   -5.2120 C   0  0  0  0  0  0  0  0  0  0  0  0
   18.7666    6.0202   -4.4746 C   0  0  0  0  0  0  0  0  0  0  0  0
   18.7855    5.3178   -3.1770 C   0  0  0  0  0  0  0  0  0  0  0  0
   19.2123    4.2164   -2.2828 C   0  0  0  0  0  0  0  0  0  0  0  0
   17.8036    3.9024   -1.6908 C   0  0  0  0  0  0  0  0  0  0  0  0
   16.6229    5.0738   -1.7135 C   0  0  0  0  0  0  0  0  0  0  0  0
   16.6211    6.6916   -2.4394 C   0  0  0  0  0  0  0  0  0  0  0  0
   11.8036    4.2189   -4.6336 C   0  0  0  0  0  0  0  0  0  0  0  0
   10.5373    3.2772   -3.9561 C   0  0  0  0  0  0  0  0  0  0  0  0
    4.0108   -0.3209   -1.4590 H   0  0  0  0  0  0  0  0  0  0  0  0
    5.4491   -0.9911   -0.7848 H   0  0  0  0  0  0  0  0  0  0  0  0
    4.8748   -1.4586   -2.4173 H   0  0  0  0  0  0  0  0  0  0  0  0
    5.5644    1.4352   -1.6781 H   0  0  0  0  0  0  0  0  0  0  0  0
    5.2542    0.9196   -3.2972 H   0  0  0  0  0  0  0  0  0  0  0  0
    7.7470    0.1410   -3.6757 H   0  0  0  0  0  0  0  0  0  0  0  0
    8.1839    0.5531   -1.9541 H   0  0  0  0  0  0  0  0  0  0  0  0
    8.5364    2.1456   -4.6379 H   0  0  0  0  0  0  0  0  0  0  0  0
    6.3241    3.6879   -3.1247 H   0  0  0  0  0  0  0  0  0  0  0  0
    6.7897    2.6631   -3.7264 H   0  0  0  0  0  0  0  0  0  0  0  0
    7.9233    2.4032   -1.0250 H   0  0  0  0  0  0  0  0  0  0  0  0
    6.2590    2.9124   -1.0172 H   0  0  0  0  0  0  0  0  0  0  0  0
    7.1048    4.8310    0.0058 H   0  0  0  0  0  0  0  0  0  0  0  0
    7.0533    5.2222   -1.6867 H   0  0  0  0  0  0  0  0  0  0  0  0
    9.4507    3.5393   -1.3037 H   0  0  0  0  0  0  0  0  0  0  0  0
    9.3746    4.6389    0.0346 H   0  0  0  0  0  0  0  0  0  0  0  0
    8.8050    6.4608   -1.6715 H   0  0  0  0  0  0  0  0  0  0  0  0
    8.9057    5.2829   -3.0000 H   0  0  0  0  0  0  0  0  0  0  0  0
   11.1691    4.6220   -2.2765 H   0  0  0  0  0  0  0  0  0  0  0  0
   10.9868    5.5336   -0.8611 H   0  0  0  0  0  0  0  0  0  0  0  0
   10.3630    7.6246   -2.3664 H   0  0  0  0  0  0  0  0  0  0  0  0
   10.8465    6.6244   -3.7590 H   0  0  0  0  0  0  0  0  0  0  0  0
   12.7878    5.9033   -2.4722 H   0  0  0  0  0  0  0  0  0  0  0  0
   12.2769    6.8200   -1.0445 H   0  0  0  0  0  0  0  0  0  0  0  0
   12.7147    8.9340   -1.9532 H   0  0  0  0  0  0  0  0  0  0  0  0
   12.7438    8.2666   -3.5718 H   0  0  0  0  0  0  0  0  0  0  0  0
   15.2095    8.1497   -5.1146 H   0  0  0  0  0  0  0  0  0  0  0  0
   13.5086    6.8383   -5.8941 H   0  0  0  0  0  0  0  0  0  0  0  0
   15.2492    5.8146   -5.9453 H   0  0  0  0  0  0  0  0  0  0  0  0
   15.5877    4.2383   -5.9241 H   0  0  0  0  0  0  0  0  0  0  0  0
   17.3933    6.1894   -6.2622 H   0  0  0  0  0  0  0  0  0  0  0  0
   16.9243    7.0998   -4.9402 H   0  0  0  0  0  0  0  0  0  0  0  0
   19.0383    7.0718   -4.1911 H   0  0  0  0  0  0  0  0  0  0  0  0
   19.5920    5.7344   -5.1348 H   0  0  0  0  0  0  0  0  0  0  0  0
   17.9466    4.7494   -3.5611 H   0  0  0  0  0  0  0  0  0  0  0  0
   18.6855    6.1078   -2.4261 H   0  0  0  0  0  0  0  0  0  0  0  0
   19.8885    4.5249   -1.4689 H   0  0  0  0  0  0  0  0  0  0  0  0
   19.6802    3.3661   -2.7931 H   0  0  0  0  0  0  0  0  0  0  0  0
   17.4205    3.0734   -2.3157 H   0  0  0  0  0  0  0  0  0  0  0  0
   17.8699    3.4623   -0.6921 H   0  0  0  0  0  0  0  0  0  0  0  0
   15.8180    4.5710   -2.2640 H   0  0  0  0  0  0  0  0  0  0  0  0
   16.3838    5.2175   -0.6665 H   0  0  0  0  0  0  0  0  0  0  0  0
   16.5910    7.1840   -1.4709 H   0  0  0  0  0  0  0  0  0  0  0  0
   16.4403    6.1007   -3.2813 H   0  0  0  0  0  0  0  0  0  0  0  0
   11.4132    4.8001   -5.4809 H   0  0  0  0  0  0  0  0  0  0  0  0
    9.9486    3.5251   -4.8889 H   0  0  0  0  0  0  0  0  0  0  0  0
  1  2  1  0  0  0  0
  1 30  1  0  0  0  0
  1 31  1  0  0  0  0
  1 32  1  0  0  0  0
  2  3  1  0  0  0  0
  2 33  1  0  0  0  0
  2 34  1  0  0  0  0
  3  4  1  0  0  0  0
  3 35  1  0  0  0  0
  3 36  1  0  0  0  0
  4  5  1  0  0  0  0
  4 29  1  0  0  0  0
  4 37  1  0  0  0  0
  5  6  1  0  0  0  0
  5 38  1  0  0  0  0
  5 39  1  0  0  0  0
  6  7  1  0  0  0  0
  6 40  1  0  0  0  0
  6 41  1  0  0  0  0
  7  8  1  0  0  0  0
  7 42  1  0  0  0  0
  7 43  1  0  0  0  0
  8  9  1  0  0  0  0
  8 44  1  0  0  0  0
  8 45  1  0  0  0  0
  9 10  1  0  0  0  0
  9 46  1  0  0  0  0
  9 47  1  0  0  0  0
 10 11  1  0  0  0  0
 10 48  1  0  0  0  0
 10 49  1  0  0  0  0
 11 12  1  0  0  0  0
 11 50  1  0  0  0  0
 11 51  1  0  0  0  0
 12 13  1  0  0  0  0
 12 52  1  0  0  0  0
 12 53  1  0  0  0  0
 13 14  1  0  0  0  0
 13 54  1  0  0  0  0
 13 55  1  0  0  0  0
 14 15  2  0  0  0  0
 14 16  1  0  0  0  0
 16 17  2  3  0  0  0
 16 27  1  0  0  0  0
 17 18  1  0  0  0  0
 17 56  1  0  0  0  0
 18 19  2  3  0  0  0
 18 57  1  0  0  0  0
 19 20  1  0  0  0  0
 19 28  1  0  0  0  0
 20 21  1  0  0  0  0
 20 58  1  0  0  0  0
 20 59  1  0  0  0  0
 21 22  1  0  0  0  0
 21 60  1  0  0  0  0
 21 61  1  0  0  0  0
 22 23  1  0  0  0  0
 22 62  1  0  0  0  0
 22 63  1  0  0  0  0
 23 24  1  0  0  0  0
 23 64  1  0  0  0  0
 23 65  1  0  0  0  0
 24 25  1  0  0  0  0
 24 66  1  0  0  0  0
 24 67  1  0  0  0  0
 25 26  1  0  0  0  0
 25 68  1  0  0  0  0
 25 69  1  0  0  0  0
 26 27  1  0  0  0  0
 26 70  1  0  0  0  0
 26 71  1  0  0  0  0
 27 72  1  0  0  0  0
 27 73  1  0  0  0  0
 28 29  2  3  0  0  0
 28 74  1  0  0  0  0
 29 75  1  0  0  0  0
M  END
$$$$
