
 OpenBabel04232216443D

 26 27  0  0  0  0  0  0  0  0999 V2000
    2.3562   -0.3630   -0.3476 C   0  0  0  0  0  0  0  0  0  0  0  0
    3.7994   -0.1888   -0.6589 C   0  0  0  0  0  0  0  0  0  0  0  0
    4.4445    1.1937   -0.6779 C   0  0  0  0  0  0  0  0  0  0  0  0
    3.8579    2.2528   -0.7527 O   0  0  0  0  0  0  0  0  0  0  0  0
    5.8586    0.8134   -0.4842 C   0  0  0  0  0  0  0  0  0  0  0  0
    6.6933    1.5581    0.2518 C   0  0  0  0  0  0  0  0  0  0  0  0
    6.5353    3.2537    0.4788 Cl  0  0  0  0  0  0  0  0  0  0  0  0
    7.5999    0.9680    1.1274 N   0  0  0  0  0  0  0  0  0  0  0  0
    7.1611   -0.0342    2.1111 C   0  0  0  0  0  0  0  0  0  0  0  0
    8.9235    1.2136    1.1736 N   0  0  0  0  0  0  0  0  0  0  0  0
    9.6694    0.4465    0.4482 C   0  0  0  0  0  0  0  0  0  0  0  0
    9.3866   -0.5264   -0.6491 C   0  0  0  0  0  0  0  0  0  0  0  0
    8.3065   -1.2296   -1.0310 C   0  0  0  0  0  0  0  0  0  0  0  0
    7.0149   -1.3847   -0.5577 N   0  0  0  0  0  0  0  0  0  0  0  0
    6.7375   -2.7925   -0.7387 F   0  0  0  0  0  0  0  0  0  0  0  0
    5.9294   -0.5500   -0.7767 N   0  0  0  0  0  0  0  0  0  0  0  0
    4.6710   -1.1525   -0.7686 N   0  0  0  0  0  0  0  0  0  0  0  0
    1.8565    0.6018   -0.2341 H   0  0  0  0  0  0  0  0  0  0  0  0
    2.2665   -0.9049    0.6014 H   0  0  0  0  0  0  0  0  0  0  0  0
    1.8650   -0.9432   -1.1296 H   0  0  0  0  0  0  0  0  0  0  0  0
    6.0895    0.0448    2.3182 H   0  0  0  0  0  0  0  0  0  0  0  0
    7.7074    0.0915    3.0489 H   0  0  0  0  0  0  0  0  0  0  0  0
    7.3736   -1.0482    1.7626 H   0  0  0  0  0  0  0  0  0  0  0  0
   10.7491    0.5313    0.6641 H   0  0  0  0  0  0  0  0  0  0  0  0
   10.3022   -0.7130   -1.2101 H   0  0  0  0  0  0  0  0  0  0  0  0
    8.4615   -1.9284   -1.8544 H   0  0  0  0  0  0  0  0  0  0  0  0
  1  2  1  0  0  0  0
  1 18  1  0  0  0  0
  1 19  1  0  0  0  0
  1 20  1  0  0  0  0
  2  3  1  0  0  0  0
  2 17  2  0  0  0  0
  3  4  2  0  0  0  0
  3  5  1  0  0  0  0
  5  6  2  0  0  0  0
  5 16  1  0  0  0  0
  6  7  1  0  0  0  0
  6  8  1  0  0  0  0
  8  9  1  0  0  0  0
  8 10  1  0  0  0  0
  9 21  1  0  0  0  0
  9 22  1  0  0  0  0
  9 23  1  0  0  0  0
 10 11  2  0  0  0  0
 11 12  1  0  0  0  0
 11 24  1  0  0  0  0
 12 13  2  0  0  0  0
 12 25  1  0  0  0  0
 13 14  1  0  0  0  0
 13 26  1  0  0  0  0
 14 15  1  0  0  0  0
 14 16  1  0  0  0  0
 16 17  1  0  0  0  0
M  END
$$$$
