
 OpenBabel04232216593D

226226  0  0  1  0  0  0  0  0999 V2000
   -1.7061    0.0618    0.0026 O   0  0  0  0  0  0  0  0  0  0  0  0
   -0.4932    0.0461   -0.0130 C   0  0  0  0  0  0  0  0  0  0  0  0
    0.5771    1.1453   -0.0241 C   0  0  0  0  0  0  0  0  0  0  0  0
    1.6356    0.0321    0.1354 C   0  0  0  0  0  0  0  0  0  0  0  0
    0.5666   -1.0761   -0.0501 C   0  0  3  0  0  0  0  0  0  0  0  0
    0.6406   -1.8538   -1.3543 C   0  0  0  0  0  0  0  0  0  0  0  0
   -0.4724   -2.8930   -1.3910 C   0  0  0  0  0  0  0  0  0  0  0  0
   -0.4225   -3.6836   -2.6874 C   0  0  0  0  0  0  0  0  0  0  0  0
   -1.5345   -4.7191   -2.7142 C   0  0  0  0  0  0  0  0  0  0  0  0
   -1.4783   -5.5046   -4.0122 C   0  0  0  0  0  0  0  0  0  0  0  0
   -2.5874   -6.5397   -4.0428 C   0  0  0  0  0  0  0  0  0  0  0  0
   -2.5262   -7.3235   -5.3406 C   0  0  0  0  0  0  0  0  0  0  0  0
   -3.6348   -8.3582   -5.3712 C   0  0  0  0  0  0  0  0  0  0  0  0
   -3.5732   -9.1410   -6.6689 C   0  0  0  0  0  0  0  0  0  0  0  0
   -4.6817  -10.1759   -6.6996 C   0  0  0  0  0  0  0  0  0  0  0  0
   -4.6195  -10.9587   -7.9973 C   0  0  0  0  0  0  0  0  0  0  0  0
   -5.7280  -11.9934   -8.0275 C   0  0  0  0  0  0  0  0  0  0  0  0
   -5.6675  -12.7749   -9.3258 C   0  0  0  0  0  0  0  0  0  0  0  0
   -6.7761  -13.8094   -9.3562 C   0  0  0  0  0  0  0  0  0  0  0  0
   -6.7153  -14.5906  -10.6548 C   0  0  0  0  0  0  0  0  0  0  0  0
   -7.8237  -15.6254  -10.6851 C   0  0  0  0  0  0  0  0  0  0  0  0
   -7.7632  -16.4066  -11.9836 C   0  0  0  0  0  0  0  0  0  0  0  0
   -8.8717  -17.4413  -12.0139 C   0  0  0  0  0  0  0  0  0  0  0  0
   -8.8105  -18.2224  -13.3125 C   0  0  0  0  0  0  0  0  0  0  0  0
   -9.9190  -19.2570  -13.3424 C   0  0  0  0  0  0  0  0  0  0  0  0
   -9.8587  -20.0386  -14.6407 C   0  0  0  0  0  0  0  0  0  0  0  0
  -10.9674  -21.0730  -14.6707 C   0  0  0  0  0  0  0  0  0  0  0  0
  -10.9080  -21.8532  -15.9699 C   0  0  0  0  0  0  0  0  0  0  0  0
  -12.0167  -22.8877  -16.0002 C   0  0  0  0  0  0  0  0  0  0  0  0
  -11.9582  -23.6665  -17.3003 C   0  0  0  0  0  0  0  0  0  0  0  0
  -13.0669  -24.7010  -17.3306 C   0  0  0  0  0  0  0  0  0  0  0  0
  -13.0074  -25.4811  -18.6299 C   0  0  0  0  0  0  0  0  0  0  0  0
  -14.1161  -26.5155  -18.6601 C   0  0  0  0  0  0  0  0  0  0  0  0
  -14.0554  -27.2970  -19.9585 C   0  0  0  0  0  0  0  0  0  0  0  0
  -15.1651  -28.3303  -19.9896 C   0  0  0  0  0  0  0  0  0  0  0  0
  -15.1031  -29.1129  -21.2872 C   0  0  0  0  0  0  0  0  0  0  0  0
  -16.2130  -30.1461  -21.3183 C   0  0  0  0  0  0  0  0  0  0  0  0
  -16.1509  -30.9290  -22.6158 C   0  0  0  0  0  0  0  0  0  0  0  0
  -17.2608  -31.9620  -22.6469 C   0  0  0  0  0  0  0  0  0  0  0  0
  -17.1989  -32.7449  -23.9445 C   0  0  0  0  0  0  0  0  0  0  0  0
  -18.3087  -33.7782  -23.9754 C   0  0  0  0  0  0  0  0  0  0  0  0
  -18.2468  -34.5609  -25.2729 C   0  0  0  0  0  0  0  0  0  0  0  0
  -19.3554  -35.5954  -25.3032 C   0  0  0  0  0  0  0  0  0  0  0  0
  -19.2946  -36.3770  -26.6015 C   0  0  0  0  0  0  0  0  0  0  0  0
  -20.4022  -37.4126  -26.6310 C   0  0  0  0  0  0  0  0  0  0  0  0
  -20.3427  -38.1929  -27.9302 C   0  0  0  0  0  0  0  0  0  0  0  0
  -21.4516  -39.2272  -27.9604 C   0  0  0  0  0  0  0  0  0  0  0  0
  -21.3925  -40.0072  -29.2596 C   0  0  0  0  0  0  0  0  0  0  0  0
  -22.5007  -41.0420  -29.2898 C   0  0  0  0  0  0  0  0  0  0  0  0
  -22.4407  -41.8222  -30.5891 C   0  0  0  0  0  0  0  0  0  0  0  0
  -23.5482  -42.8579  -30.6185 C   0  0  0  0  0  0  0  0  0  0  0  0
  -23.4886  -43.6381  -31.9177 C   0  0  0  0  0  0  0  0  0  0  0  0
  -24.5973  -44.6726  -31.9481 C   0  0  0  0  0  0  0  0  0  0  0  0
  -24.5377  -45.4526  -33.2473 C   0  0  0  0  0  0  0  0  0  0  0  0
  -25.6477  -46.4857  -33.2780 C   0  0  0  0  0  0  0  0  0  0  0  0
  -25.5893  -47.2662  -34.5761 C   0  0  0  0  0  0  0  0  0  0  0  0
  -26.6973  -48.3033  -34.6088 C   0  0  0  0  0  0  0  0  0  0  0  0
  -26.6354  -49.0820  -35.9053 C   0  0  0  0  0  0  0  0  0  0  0  0
  -27.7422  -50.1160  -35.9327 C   0  0  0  0  0  0  0  0  0  0  0  0
  -27.6850  -50.8985  -37.2348 C   0  0  0  0  0  0  0  0  0  0  0  0
  -28.7924  -51.9324  -37.2654 C   0  0  0  0  0  0  0  0  0  0  0  0
  -28.7343  -52.7114  -38.5652 C   0  0  0  0  0  0  0  0  0  0  0  0
  -29.8442  -53.7447  -38.5966 C   0  0  0  0  0  0  0  0  0  0  0  0
  -29.7845  -54.5248  -39.8960 C   0  0  0  0  0  0  0  0  0  0  0  0
  -30.8956  -55.5569  -39.9286 C   0  0  0  0  0  0  0  0  0  0  0  0
  -30.8367  -56.3370  -41.2281 C   0  0  0  0  0  0  0  0  0  0  0  0
  -31.9467  -57.3705  -41.2591 C   0  0  0  0  0  0  0  0  0  0  0  0
  -31.8883  -58.1501  -42.5592 C   0  0  0  0  0  0  0  0  0  0  0  0
  -32.9998  -59.1823  -42.5924 C   0  0  0  0  0  0  0  0  0  0  0  0
  -32.9401  -59.9629  -43.8924 C   0  0  0  0  0  0  0  0  0  0  0  0
  -34.0513  -60.9960  -43.9287 C   0  0  0  0  0  0  0  0  0  0  0  0
  -33.9912  -61.7775  -45.2303 C   0  0  0  0  0  0  0  0  0  0  0  0
  -35.1030  -62.8101  -45.2668 C   0  0  0  0  0  0  0  0  0  0  0  0
  -35.0602  -63.5967  -46.5663 C   0  0  0  0  0  0  0  0  0  0  0  0
  -36.1790  -64.6187  -46.5802 C   0  0  0  0  0  0  0  0  0  0  0  0
  -36.1172  -65.3512  -47.7980 O   0  0  0  0  0  0  0  0  0  0  0  0
  -37.1431  -66.3366  -47.8545 C   0  0  0  0  0  0  0  0  0  0  0  0
  -37.0347  -67.2965  -46.8133 O   0  0  0  0  0  0  0  0  0  0  0  0
    0.5071    1.8407    0.8142 H   0  0  0  0  0  0  0  0  0  0  0  0
    0.6221    1.6905   -0.9700 H   0  0  0  0  0  0  0  0  0  0  0  0
    2.1052    0.0120    1.1252 H   0  0  0  0  0  0  0  0  0  0  0  0
    2.4294    0.0481   -0.6189 H   0  0  0  0  0  0  0  0  0  0  0  0
    0.5061   -1.7387    0.8223 H   0  0  0  0  0  0  0  0  0  0  0  0
    1.6108   -2.3591   -1.4311 H   0  0  0  0  0  0  0  0  0  0  0  0
    0.5587   -1.1818   -2.2182 H   0  0  0  0  0  0  0  0  0  0  0  0
   -1.4505   -2.4073   -1.2916 H   0  0  0  0  0  0  0  0  0  0  0  0
   -0.3713   -3.5749   -0.5372 H   0  0  0  0  0  0  0  0  0  0  0  0
    0.5498   -4.1816   -2.7844 H   0  0  0  0  0  0  0  0  0  0  0  0
   -0.5275   -3.0052   -3.5427 H   0  0  0  0  0  0  0  0  0  0  0  0
   -2.5097   -4.2254   -2.6196 H   0  0  0  0  0  0  0  0  0  0  0  0
   -1.4328   -5.4015   -1.8612 H   0  0  0  0  0  0  0  0  0  0  0  0
   -0.5040   -5.9997   -4.1075 H   0  0  0  0  0  0  0  0  0  0  0  0
   -1.5810   -4.8234   -4.8660 H   0  0  0  0  0  0  0  0  0  0  0  0
   -3.5627   -6.0461   -3.9504 H   0  0  0  0  0  0  0  0  0  0  0  0
   -2.4867   -7.2219   -3.1897 H   0  0  0  0  0  0  0  0  0  0  0  0
   -1.5510   -7.8175   -5.4337 H   0  0  0  0  0  0  0  0  0  0  0  0
   -2.6273   -6.6419   -6.1943 H   0  0  0  0  0  0  0  0  0  0  0  0
   -4.6100   -7.8646   -5.2784 H   0  0  0  0  0  0  0  0  0  0  0  0
   -3.5336   -9.0401   -4.5179 H   0  0  0  0  0  0  0  0  0  0  0  0
   -2.5981   -9.6349   -6.7619 H   0  0  0  0  0  0  0  0  0  0  0  0
   -3.6743   -8.4592   -7.5225 H   0  0  0  0  0  0  0  0  0  0  0  0
   -5.6570   -9.6823   -6.6070 H   0  0  0  0  0  0  0  0  0  0  0  0
   -4.5806  -10.8578   -5.8463 H   0  0  0  0  0  0  0  0  0  0  0  0
   -3.6443  -11.4525   -8.0901 H   0  0  0  0  0  0  0  0  0  0  0  0
   -4.7207  -10.2769   -8.8507 H   0  0  0  0  0  0  0  0  0  0  0  0
   -6.7032  -11.4998   -7.9332 H   0  0  0  0  0  0  0  0  0  0  0  0
   -5.6261  -12.6760   -7.1748 H   0  0  0  0  0  0  0  0  0  0  0  0
   -4.6924  -13.2685   -9.4202 H   0  0  0  0  0  0  0  0  0  0  0  0
   -5.7696  -12.0921  -10.1784 H   0  0  0  0  0  0  0  0  0  0  0  0
   -7.7512  -13.3157   -9.2618 H   0  0  0  0  0  0  0  0  0  0  0  0
   -6.6741  -14.4922   -8.5036 H   0  0  0  0  0  0  0  0  0  0  0  0
   -5.7401  -15.0840  -10.7493 H   0  0  0  0  0  0  0  0  0  0  0  0
   -6.8176  -13.9078  -11.5073 H   0  0  0  0  0  0  0  0  0  0  0  0
   -8.7989  -15.1320  -10.5905 H   0  0  0  0  0  0  0  0  0  0  0  0
   -7.7212  -16.3083   -9.8327 H   0  0  0  0  0  0  0  0  0  0  0  0
   -6.7882  -16.9002  -12.0782 H   0  0  0  0  0  0  0  0  0  0  0  0
   -7.8657  -15.7239  -12.8362 H   0  0  0  0  0  0  0  0  0  0  0  0
   -9.8470  -16.9479  -11.9197 H   0  0  0  0  0  0  0  0  0  0  0  0
   -8.7698  -18.1241  -11.1614 H   0  0  0  0  0  0  0  0  0  0  0  0
   -7.8352  -18.7158  -13.4066 H   0  0  0  0  0  0  0  0  0  0  0  0
   -8.9123  -17.5396  -14.1650 H   0  0  0  0  0  0  0  0  0  0  0  0
  -10.8941  -18.7632  -13.2481 H   0  0  0  0  0  0  0  0  0  0  0  0
   -9.8170  -19.9395  -12.4898 H   0  0  0  0  0  0  0  0  0  0  0  0
   -8.8837  -20.5324  -14.7351 H   0  0  0  0  0  0  0  0  0  0  0  0
   -9.9608  -19.3559  -15.4934 H   0  0  0  0  0  0  0  0  0  0  0  0
  -11.9424  -20.5794  -14.5751 H   0  0  0  0  0  0  0  0  0  0  0  0
  -10.8647  -21.7565  -13.8188 H   0  0  0  0  0  0  0  0  0  0  0  0
   -9.9330  -22.3469  -16.0657 H   0  0  0  0  0  0  0  0  0  0  0  0
  -11.0108  -21.1697  -16.8218 H   0  0  0  0  0  0  0  0  0  0  0  0
  -12.9916  -22.3942  -15.9032 H   0  0  0  0  0  0  0  0  0  0  0  0
  -11.9132  -23.5720  -15.1491 H   0  0  0  0  0  0  0  0  0  0  0  0
  -10.9833  -24.1600  -17.3972 H   0  0  0  0  0  0  0  0  0  0  0  0
  -12.0618  -22.9822  -18.1514 H   0  0  0  0  0  0  0  0  0  0  0  0
  -14.0419  -24.2074  -17.2348 H   0  0  0  0  0  0  0  0  0  0  0  0
  -12.9641  -25.3847  -16.4789 H   0  0  0  0  0  0  0  0  0  0  0  0
  -12.0324  -25.9748  -18.7254 H   0  0  0  0  0  0  0  0  0  0  0  0
  -13.1100  -24.7977  -19.4818 H   0  0  0  0  0  0  0  0  0  0  0  0
  -15.0911  -26.0217  -18.5658 H   0  0  0  0  0  0  0  0  0  0  0  0
  -14.0143  -27.1983  -17.8075 H   0  0  0  0  0  0  0  0  0  0  0  0
  -13.0808  -27.7918  -20.0519 H   0  0  0  0  0  0  0  0  0  0  0  0
  -14.1559  -26.6143  -20.8112 H   0  0  0  0  0  0  0  0  0  0  0  0
  -16.1398  -27.8353  -19.8973 H   0  0  0  0  0  0  0  0  0  0  0  0
  -15.0654  -29.0123  -19.1362 H   0  0  0  0  0  0  0  0  0  0  0  0
  -14.1285  -29.6079  -21.3793 H   0  0  0  0  0  0  0  0  0  0  0  0
  -15.2027  -28.4309  -22.1407 H   0  0  0  0  0  0  0  0  0  0  0  0
  -17.1876  -29.6511  -21.2263 H   0  0  0  0  0  0  0  0  0  0  0  0
  -16.1134  -30.8280  -20.4647 H   0  0  0  0  0  0  0  0  0  0  0  0
  -15.1763  -31.4241  -22.7076 H   0  0  0  0  0  0  0  0  0  0  0  0
  -16.2502  -30.2471  -23.4694 H   0  0  0  0  0  0  0  0  0  0  0  0
  -18.2354  -31.4670  -22.5549 H   0  0  0  0  0  0  0  0  0  0  0  0
  -17.1613  -32.6440  -21.7934 H   0  0  0  0  0  0  0  0  0  0  0  0
  -16.2243  -33.2398  -24.0365 H   0  0  0  0  0  0  0  0  0  0  0  0
  -17.2986  -32.0630  -24.7981 H   0  0  0  0  0  0  0  0  0  0  0  0
  -19.2834  -33.2833  -23.8832 H   0  0  0  0  0  0  0  0  0  0  0  0
  -18.2089  -34.4601  -23.1219 H   0  0  0  0  0  0  0  0  0  0  0  0
  -17.2717  -35.0549  -25.3658 H   0  0  0  0  0  0  0  0  0  0  0  0
  -18.3478  -33.8790  -26.1263 H   0  0  0  0  0  0  0  0  0  0  0  0
  -20.3305  -35.1017  -25.2091 H   0  0  0  0  0  0  0  0  0  0  0  0
  -19.2535  -36.2779  -24.4505 H   0  0  0  0  0  0  0  0  0  0  0  0
  -18.3190  -36.8698  -26.6964 H   0  0  0  0  0  0  0  0  0  0  0  0
  -19.3977  -35.6944  -27.4541 H   0  0  0  0  0  0  0  0  0  0  0  0
  -21.3776  -36.9201  -26.5347 H   0  0  0  0  0  0  0  0  0  0  0  0
  -20.2982  -38.0960  -25.7791 H   0  0  0  0  0  0  0  0  0  0  0  0
  -19.3676  -38.6864  -28.0258 H   0  0  0  0  0  0  0  0  0  0  0  0
  -20.4454  -37.5095  -28.7822 H   0  0  0  0  0  0  0  0  0  0  0  0
  -22.4264  -38.7335  -27.8643 H   0  0  0  0  0  0  0  0  0  0  0  0
  -21.3485  -39.9109  -27.1087 H   0  0  0  0  0  0  0  0  0  0  0  0
  -20.4178  -40.5014  -29.3532 H   0  0  0  0  0  0  0  0  0  0  0  0
  -21.4943  -39.3244  -30.1122 H   0  0  0  0  0  0  0  0  0  0  0  0
  -23.4758  -40.5488  -29.1941 H   0  0  0  0  0  0  0  0  0  0  0  0
  -22.3974  -41.7254  -28.4379 H   0  0  0  0  0  0  0  0  0  0  0  0
  -21.4652  -42.3147  -30.6854 H   0  0  0  0  0  0  0  0  0  0  0  0
  -22.5447  -41.1388  -31.4409 H   0  0  0  0  0  0  0  0  0  0  0  0
  -24.5237  -42.3653  -30.5222 H   0  0  0  0  0  0  0  0  0  0  0  0
  -23.4442  -43.5413  -29.7667 H   0  0  0  0  0  0  0  0  0  0  0  0
  -22.5136  -44.1316  -32.0134 H   0  0  0  0  0  0  0  0  0  0  0  0
  -23.5914  -42.9546  -32.7696 H   0  0  0  0  0  0  0  0  0  0  0  0
  -25.5722  -44.1789  -31.8524 H   0  0  0  0  0  0  0  0  0  0  0  0
  -24.4946  -45.3561  -31.0961 H   0  0  0  0  0  0  0  0  0  0  0  0
  -23.5632  -45.9475  -33.3422 H   0  0  0  0  0  0  0  0  0  0  0  0
  -24.6392  -44.7691  -34.0992 H   0  0  0  0  0  0  0  0  0  0  0  0
  -26.6221  -45.9911  -33.1832 H   0  0  0  0  0  0  0  0  0  0  0  0
  -25.5462  -47.1694  -32.4261 H   0  0  0  0  0  0  0  0  0  0  0  0
  -24.6135  -47.7601  -34.6726 H   0  0  0  0  0  0  0  0  0  0  0  0
  -25.6909  -46.5830  -35.4292 H   0  0  0  0  0  0  0  0  0  0  0  0
  -27.6722  -47.8072  -34.5148 H   0  0  0  0  0  0  0  0  0  0  0  0
  -26.5956  -48.9833  -33.7539 H   0  0  0  0  0  0  0  0  0  0  0  0
  -25.6576  -49.5745  -36.0003 H   0  0  0  0  0  0  0  0  0  0  0  0
  -26.7393  -48.3990  -36.7577 H   0  0  0  0  0  0  0  0  0  0  0  0
  -28.7194  -49.6256  -35.8394 H   0  0  0  0  0  0  0  0  0  0  0  0
  -27.6404  -50.8022  -35.0838 H   0  0  0  0  0  0  0  0  0  0  0  0
  -26.7087  -51.3914  -37.3305 H   0  0  0  0  0  0  0  0  0  0  0  0
  -27.7865  -50.2141  -38.0867 H   0  0  0  0  0  0  0  0  0  0  0  0
  -29.7674  -51.4390  -37.1681 H   0  0  0  0  0  0  0  0  0  0  0  0
  -28.6889  -52.6167  -36.4140 H   0  0  0  0  0  0  0  0  0  0  0  0
  -27.7598  -53.2059  -38.6616 H   0  0  0  0  0  0  0  0  0  0  0  0
  -28.8365  -52.0269  -39.4163 H   0  0  0  0  0  0  0  0  0  0  0  0
  -30.8187  -53.2499  -38.5016 H   0  0  0  0  0  0  0  0  0  0  0  0
  -29.7430  -54.4284  -37.7447 H   0  0  0  0  0  0  0  0  0  0  0  0
  -28.8104  -55.0207  -39.9902 H   0  0  0  0  0  0  0  0  0  0  0  0
  -29.8843  -53.8408  -40.7478 H   0  0  0  0  0  0  0  0  0  0  0  0
  -31.8695  -55.0609  -39.8337 H   0  0  0  0  0  0  0  0  0  0  0  0
  -30.7956  -56.2406  -39.0765 H   0  0  0  0  0  0  0  0  0  0  0  0
  -29.8624  -56.8321  -41.3230 H   0  0  0  0  0  0  0  0  0  0  0  0
  -30.9380  -55.6538  -42.0804 H   0  0  0  0  0  0  0  0  0  0  0  0
  -32.9210  -56.8758  -41.1628 H   0  0  0  0  0  0  0  0  0  0  0  0
  -31.8445  -58.0547  -40.4077 H   0  0  0  0  0  0  0  0  0  0  0  0
  -30.9144  -58.6458  -42.6541 H   0  0  0  0  0  0  0  0  0  0  0  0
  -31.9884  -57.4653  -43.4102 H   0  0  0  0  0  0  0  0  0  0  0  0
  -33.9735  -58.6859  -42.4978 H   0  0  0  0  0  0  0  0  0  0  0  0
  -32.9001  -59.8660  -41.7402 H   0  0  0  0  0  0  0  0  0  0  0  0
  -31.9660  -60.4587  -43.9851 H   0  0  0  0  0  0  0  0  0  0  0  0
  -33.0382  -59.2782  -44.7438 H   0  0  0  0  0  0  0  0  0  0  0  0
  -35.0250  -60.4992  -43.8348 H   0  0  0  0  0  0  0  0  0  0  0  0
  -33.9530  -61.6793  -43.0761 H   0  0  0  0  0  0  0  0  0  0  0  0
  -33.0173  -62.2728  -45.3231 H   0  0  0  0  0  0  0  0  0  0  0  0
  -34.0910  -61.0918  -46.0803 H   0  0  0  0  0  0  0  0  0  0  0  0
  -36.0752  -62.3116  -45.1661 H   0  0  0  0  0  0  0  0  0  0  0  0
  -35.0019  -63.4926  -44.4134 H   0  0  0  0  0  0  0  0  0  0  0  0
  -34.0925  -64.1017  -46.6788 H   0  0  0  0  0  0  0  0  0  0  0  0
  -35.1566  -62.9263  -47.4289 H   0  0  0  0  0  0  0  0  0  0  0  0
  -37.1512  -64.1196  -46.4987 H   0  0  0  0  0  0  0  0  0  0  0  0
  -36.0563  -65.3008  -45.7310 H   0  0  0  0  0  0  0  0  0  0  0  0
  -37.0823  -66.8523  -48.8164 H   0  0  0  0  0  0  0  0  0  0  0  0
  -38.1224  -65.8498  -47.7896 H   0  0  0  0  0  0  0  0  0  0  0  0
  -36.2182  -67.7970  -46.9792 H   0  0  0  0  0  0  0  0  0  0  0  0
  1  2  2  0  0  0  0
  2  3  1  0  0  0  0
  2  5  1  0  0  0  0
  3  4  1  0  0  0  0
  3 79  1  0  0  0  0
  3 80  1  0  0  0  0
  4  5  1  0  0  0  0
  4 81  1  0  0  0  0
  4 82  1  0  0  0  0
  5  6  1  0  0  0  0
  5 83  1  0  0  0  0
  6  7  1  0  0  0  0
  6 84  1  0  0  0  0
  6 85  1  0  0  0  0
  7  8  1  0  0  0  0
  7 86  1  0  0  0  0
  7 87  1  0  0  0  0
  8  9  1  0  0  0  0
  8 88  1  0  0  0  0
  8 89  1  0  0  0  0
  9 10  1  0  0  0  0
  9 90  1  0  0  0  0
  9 91  1  0  0  0  0
 10 11  1  0  0  0  0
 10 92  1  0  0  0  0
 10 93  1  0  0  0  0
 11 12  1  0  0  0  0
 11 94  1  0  0  0  0
 11 95  1  0  0  0  0
 12 13  1  0  0  0  0
 12 96  1  0  0  0  0
 12 97  1  0  0  0  0
 13 14  1  0  0  0  0
 13 98  1  0  0  0  0
 13 99  1  0  0  0  0
 14 15  1  0  0  0  0
 14100  1  0  0  0  0
 14101  1  0  0  0  0
 15 16  1  0  0  0  0
 15102  1  0  0  0  0
 15103  1  0  0  0  0
 16 17  1  0  0  0  0
 16104  1  0  0  0  0
 16105  1  0  0  0  0
 17 18  1  0  0  0  0
 17106  1  0  0  0  0
 17107  1  0  0  0  0
 18 19  1  0  0  0  0
 18108  1  0  0  0  0
 18109  1  0  0  0  0
 19 20  1  0  0  0  0
 19110  1  0  0  0  0
 19111  1  0  0  0  0
 20 21  1  0  0  0  0
 20112  1  0  0  0  0
 20113  1  0  0  0  0
 21 22  1  0  0  0  0
 21114  1  0  0  0  0
 21115  1  0  0  0  0
 22 23  1  0  0  0  0
 22116  1  0  0  0  0
 22117  1  0  0  0  0
 23 24  1  0  0  0  0
 23118  1  0  0  0  0
 23119  1  0  0  0  0
 24 25  1  0  0  0  0
 24120  1  0  0  0  0
 24121  1  0  0  0  0
 25 26  1  0  0  0  0
 25122  1  0  0  0  0
 25123  1  0  0  0  0
 26 27  1  0  0  0  0
 26124  1  0  0  0  0
 26125  1  0  0  0  0
 27 28  1  0  0  0  0
 27126  1  0  0  0  0
 27127  1  0  0  0  0
 28 29  1  0  0  0  0
 28128  1  0  0  0  0
 28129  1  0  0  0  0
 29 30  1  0  0  0  0
 29130  1  0  0  0  0
 29131  1  0  0  0  0
 30 31  1  0  0  0  0
 30132  1  0  0  0  0
 30133  1  0  0  0  0
 31 32  1  0  0  0  0
 31134  1  0  0  0  0
 31135  1  0  0  0  0
 32 33  1  0  0  0  0
 32136  1  0  0  0  0
 32137  1  0  0  0  0
 33 34  1  0  0  0  0
 33138  1  0  0  0  0
 33139  1  0  0  0  0
 34 35  1  0  0  0  0
 34140  1  0  0  0  0
 34141  1  0  0  0  0
 35 36  1  0  0  0  0
 35142  1  0  0  0  0
 35143  1  0  0  0  0
 36 37  1  0  0  0  0
 36144  1  0  0  0  0
 36145  1  0  0  0  0
 37 38  1  0  0  0  0
 37146  1  0  0  0  0
 37147  1  0  0  0  0
 38 39  1  0  0  0  0
 38148  1  0  0  0  0
 38149  1  0  0  0  0
 39 40  1  0  0  0  0
 39150  1  0  0  0  0
 39151  1  0  0  0  0
 40 41  1  0  0  0  0
 40152  1  0  0  0  0
 40153  1  0  0  0  0
 41 42  1  0  0  0  0
 41154  1  0  0  0  0
 41155  1  0  0  0  0
 42 43  1  0  0  0  0
 42156  1  0  0  0  0
 42157  1  0  0  0  0
 43 44  1  0  0  0  0
 43158  1  0  0  0  0
 43159  1  0  0  0  0
 44 45  1  0  0  0  0
 44160  1  0  0  0  0
 44161  1  0  0  0  0
 45 46  1  0  0  0  0
 45162  1  0  0  0  0
 45163  1  0  0  0  0
 46 47  1  0  0  0  0
 46164  1  0  0  0  0
 46165  1  0  0  0  0
 47 48  1  0  0  0  0
 47166  1  0  0  0  0
 47167  1  0  0  0  0
 48 49  1  0  0  0  0
 48168  1  0  0  0  0
 48169  1  0  0  0  0
 49 50  1  0  0  0  0
 49170  1  0  0  0  0
 49171  1  0  0  0  0
 50 51  1  0  0  0  0
 50172  1  0  0  0  0
 50173  1  0  0  0  0
 51 52  1  0  0  0  0
 51174  1  0  0  0  0
 51175  1  0  0  0  0
 52 53  1  0  0  0  0
 52176  1  0  0  0  0
 52177  1  0  0  0  0
 53 54  1  0  0  0  0
 53178  1  0  0  0  0
 53179  1  0  0  0  0
 54 55  1  0  0  0  0
 54180  1  0  0  0  0
 54181  1  0  0  0  0
 55 56  1  0  0  0  0
 55182  1  0  0  0  0
 55183  1  0  0  0  0
 56 57  1  0  0  0  0
 56184  1  0  0  0  0
 56185  1  0  0  0  0
 57 58  1  0  0  0  0
 57186  1  0  0  0  0
 57187  1  0  0  0  0
 58 59  1  0  0  0  0
 58188  1  0  0  0  0
 58189  1  0  0  0  0
 59 60  1  0  0  0  0
 59190  1  0  0  0  0
 59191  1  0  0  0  0
 60 61  1  0  0  0  0
 60192  1  0  0  0  0
 60193  1  0  0  0  0
 61 62  1  0  0  0  0
 61194  1  0  0  0  0
 61195  1  0  0  0  0
 62 63  1  0  0  0  0
 62196  1  0  0  0  0
 62197  1  0  0  0  0
 63 64  1  0  0  0  0
 63198  1  0  0  0  0
 63199  1  0  0  0  0
 64 65  1  0  0  0  0
 64200  1  0  0  0  0
 64201  1  0  0  0  0
 65 66  1  0  0  0  0
 65202  1  0  0  0  0
 65203  1  0  0  0  0
 66 67  1  0  0  0  0
 66204  1  0  0  0  0
 66205  1  0  0  0  0
 67 68  1  0  0  0  0
 67206  1  0  0  0  0
 67207  1  0  0  0  0
 68 69  1  0  0  0  0
 68208  1  0  0  0  0
 68209  1  0  0  0  0
 69 70  1  0  0  0  0
 69210  1  0  0  0  0
 69211  1  0  0  0  0
 70 71  1  0  0  0  0
 70212  1  0  0  0  0
 70213  1  0  0  0  0
 71 72  1  0  0  0  0
 71214  1  0  0  0  0
 71215  1  0  0  0  0
 72 73  1  0  0  0  0
 72216  1  0  0  0  0
 72217  1  0  0  0  0
 73 74  1  0  0  0  0
 73218  1  0  0  0  0
 73219  1  0  0  0  0
 74 75  1  0  0  0  0
 74220  1  0  0  0  0
 74221  1  0  0  0  0
 75 76  1  0  0  0  0
 75222  1  0  0  0  0
 75223  1  0  0  0  0
 76 77  1  0  0  0  0
 77 78  1  0  0  0  0
 77224  1  0  0  0  0
 77225  1  0  0  0  0
 78226  1  0  0  0  0
M  END
$$$$
