
 OpenBabel04232217003D

231231  0  0  1  0  0  0  0  0999 V2000
    0.9352   -0.0270    0.2172 O   0  0  0  0  0  0  0  0  0  0  0  0
    2.3704   -0.0300    0.2393 C   0  0  3  0  0  0  0  0  0  0  0  0
    3.0102   -0.7930   -0.8745 C   0  0  0  0  0  0  0  0  0  0  0  0
    3.0662    0.7016   -0.8690 C   0  0  3  0  0  0  0  0  0  0  0  0
    4.3260    1.3178   -0.5165 O   0  0  0  0  0  0  0  0  0  0  0  0
    4.0440    2.7441   -0.6020 O   0  0  0  0  0  0  0  0  0  0  0  0
    5.2490    3.4052   -0.2645 C   0  0  0  0  0  0  0  0  0  0  0  0
    4.9789    4.8985   -0.3480 C   0  0  0  0  0  0  0  0  0  0  0  0
    6.2309    5.6839    0.0017 C   0  0  0  0  0  0  0  0  0  0  0  0
    5.9683    7.1782   -0.0791 C   0  0  0  0  0  0  0  0  0  0  0  0
    7.2382    7.9375    0.2733 C   0  0  0  0  0  0  0  0  0  0  0  0
    6.9799    9.4312    0.1933 C   0  0  0  0  0  0  0  0  0  0  0  0
    8.2442   10.1927    0.5446 C   0  0  0  0  0  0  0  0  0  0  0  0
    7.9835   11.6855    0.4640 C   0  0  0  0  0  0  0  0  0  0  0  0
    9.2469   12.4482    0.8150 C   0  0  0  0  0  0  0  0  0  0  0  0
    8.9866   13.9402    0.7346 C   0  0  0  0  0  0  0  0  0  0  0  0
   10.2493   14.7027    1.0875 C   0  0  0  0  0  0  0  0  0  0  0  0
    9.9892   16.1947    1.0071 C   0  0  0  0  0  0  0  0  0  0  0  0
   11.2517   16.9573    1.3599 C   0  0  0  0  0  0  0  0  0  0  0  0
   10.9916   18.4492    1.2795 C   0  0  0  0  0  0  0  0  0  0  0  0
   12.2540   19.2118    1.6324 C   0  0  0  0  0  0  0  0  0  0  0  0
   11.9939   20.7036    1.5520 C   0  0  0  0  0  0  0  0  0  0  0  0
   13.2564   21.4661    1.9048 C   0  0  0  0  0  0  0  0  0  0  0  0
   12.9963   22.9580    1.8245 C   0  0  0  0  0  0  0  0  0  0  0  0
   14.2587   23.7205    2.1773 C   0  0  0  0  0  0  0  0  0  0  0  0
   13.9987   25.2123    2.0969 C   0  0  0  0  0  0  0  0  0  0  0  0
   15.2616   25.9749    2.4478 C   0  0  0  0  0  0  0  0  0  0  0  0
   15.0015   27.4667    2.3674 C   0  0  0  0  0  0  0  0  0  0  0  0
   16.2640   28.2292    2.7202 C   0  0  0  0  0  0  0  0  0  0  0  0
   16.0033   29.7211    2.6418 C   0  0  0  0  0  0  0  0  0  0  0  0
   17.2658   30.4836    2.9946 C   0  0  0  0  0  0  0  0  0  0  0  0
   17.0046   31.9754    2.9181 C   0  0  0  0  0  0  0  0  0  0  0  0
   18.2665   32.7380    3.2729 C   0  0  0  0  0  0  0  0  0  0  0  0
   18.0053   34.2298    3.1964 C   0  0  0  0  0  0  0  0  0  0  0  0
   19.2672   34.9923    3.5511 C   0  0  0  0  0  0  0  0  0  0  0  0
   19.0060   36.4842    3.4746 C   0  0  0  0  0  0  0  0  0  0  0  0
   20.2679   37.2467    3.8294 C   0  0  0  0  0  0  0  0  0  0  0  0
   20.0067   38.7386    3.7529 C   0  0  0  0  0  0  0  0  0  0  0  0
   21.2686   39.5011    4.1077 C   0  0  0  0  0  0  0  0  0  0  0  0
   21.0069   40.9929    4.0331 C   0  0  0  0  0  0  0  0  0  0  0  0
   22.2682   41.7555    4.3898 C   0  0  0  0  0  0  0  0  0  0  0  0
   22.0065   43.2473    4.3153 C   0  0  0  0  0  0  0  0  0  0  0  0
   23.2678   44.0098    4.6720 C   0  0  0  0  0  0  0  0  0  0  0  0
   23.0061   45.5017    4.5974 C   0  0  0  0  0  0  0  0  0  0  0  0
   24.2680   46.2642    4.9522 C   0  0  0  0  0  0  0  0  0  0  0  0
   24.0057   47.7561    4.8796 C   0  0  0  0  0  0  0  0  0  0  0  0
   25.2681   48.5186    5.2324 C   0  0  0  0  0  0  0  0  0  0  0  0
   25.0053   50.0104    5.1617 C   0  0  0  0  0  0  0  0  0  0  0  0
   26.2683   50.7730    5.5126 C   0  0  0  0  0  0  0  0  0  0  0  0
   26.0049   52.2648    5.4439 C   0  0  0  0  0  0  0  0  0  0  0  0
   27.2679   53.0274    5.7948 C   0  0  0  0  0  0  0  0  0  0  0  0
   27.0045   54.5192    5.7260 C   0  0  0  0  0  0  0  0  0  0  0  0
   28.2680   55.2817    6.0750 C   0  0  0  0  0  0  0  0  0  0  0  0
   28.0047   56.7736    6.0062 C   0  0  0  0  0  0  0  0  0  0  0  0
   29.2682   57.5361    6.3552 C   0  0  0  0  0  0  0  0  0  0  0  0
   29.0054   59.0280    6.2845 C   0  0  0  0  0  0  0  0  0  0  0  0
   30.2689   59.7905    6.6334 C   0  0  0  0  0  0  0  0  0  0  0  0
   30.0055   61.2823    6.5647 C   0  0  0  0  0  0  0  0  0  0  0  0
   31.2685   62.0449    6.9156 C   0  0  0  0  0  0  0  0  0  0  0  0
   31.0057   63.5367    6.8449 C   0  0  0  0  0  0  0  0  0  0  0  0
   32.2681   64.2992    7.1977 C   0  0  0  0  0  0  0  0  0  0  0  0
   32.0047   65.7911    7.1290 C   0  0  0  0  0  0  0  0  0  0  0  0
   33.2666   66.5536    7.4838 C   0  0  0  0  0  0  0  0  0  0  0  0
   33.0027   68.0455    7.4170 C   0  0  0  0  0  0  0  0  0  0  0  0
   34.2652   68.8080    7.7698 C   0  0  0  0  0  0  0  0  0  0  0  0
   34.0018   70.2998    7.7011 C   0  0  0  0  0  0  0  0  0  0  0  0
   35.2643   71.0624    8.0539 C   0  0  0  0  0  0  0  0  0  0  0  0
   35.0004   72.5543    7.9871 C   0  0  0  0  0  0  0  0  0  0  0  0
   36.2634   73.3169    8.3380 C   0  0  0  0  0  0  0  0  0  0  0  0
   36.0000   74.8089    8.2693 C   0  0  0  0  0  0  0  0  0  0  0  0
   37.2627   75.5715    8.6222 C   0  0  0  0  0  0  0  0  0  0  0  0
   36.9988   77.0635    8.5553 C   0  0  0  0  0  0  0  0  0  0  0  0
   38.2616   77.8266    8.9083 C   0  0  0  0  0  0  0  0  0  0  0  0
   37.9991   79.3196    8.8399 C   0  0  0  0  0  0  0  0  0  0  0  0
   39.2615   80.0842    9.1948 C   0  0  0  0  0  0  0  0  0  0  0  0
   38.9995   81.5790    9.1264 C   0  0  0  0  0  0  0  0  0  0  0  0
   40.2609   82.3484    9.4811 C   0  0  0  0  0  0  0  0  0  0  0  0
   40.0072   83.8466    9.4130 C   0  0  0  0  0  0  0  0  0  0  0  0
   41.2682   84.6090    9.7675 C   0  0  0  0  0  0  0  0  0  0  0  0
    0.5938   -0.5148    0.9822 H   0  0  0  0  0  0  0  0  0  0  0  0
    2.8483   -0.0277    1.2120 H   0  0  0  0  0  0  0  0  0  0  0  0
    2.3535   -1.2592   -1.5991 H   0  0  0  0  0  0  0  0  0  0  0  0
    3.9115   -1.3567   -0.6630 H   0  0  0  0  0  0  0  0  0  0  0  0
    2.4635    1.1997   -1.6198 H   0  0  0  0  0  0  0  0  0  0  0  0
    6.0401    3.1218   -0.9677 H   0  0  0  0  0  0  0  0  0  0  0  0
    5.5541    3.1302    0.7509 H   0  0  0  0  0  0  0  0  0  0  0  0
    4.1587    5.1675    0.3299 H   0  0  0  0  0  0  0  0  0  0  0  0
    4.6329    5.1616   -1.3560 H   0  0  0  0  0  0  0  0  0  0  0  0
    7.0429    5.4141   -0.6849 H   0  0  0  0  0  0  0  0  0  0  0  0
    6.5622    5.4220    1.0143 H   0  0  0  0  0  0  0  0  0  0  0  0
    5.1649    7.4566    0.6122 H   0  0  0  0  0  0  0  0  0  0  0  0
    5.6403    7.4494   -1.0886 H   0  0  0  0  0  0  0  0  0  0  0  0
    8.0450    7.6609   -0.4159 H   0  0  0  0  0  0  0  0  0  0  0  0
    7.5687    7.6694    1.2835 H   0  0  0  0  0  0  0  0  0  0  0  0
    6.1734    9.7078    0.8827 H   0  0  0  0  0  0  0  0  0  0  0  0
    6.6508    9.6995   -0.8176 H   0  0  0  0  0  0  0  0  0  0  0  0
    9.0514    9.9167   -0.1448 H   0  0  0  0  0  0  0  0  0  0  0  0
    8.5739    9.9251    1.5558 H   0  0  0  0  0  0  0  0  0  0  0  0
    7.1763   11.9619    1.1533 H   0  0  0  0  0  0  0  0  0  0  0  0
    7.6538   11.9535   -0.5472 H   0  0  0  0  0  0  0  0  0  0  0  0
   10.0543   12.1718    0.1258 H   0  0  0  0  0  0  0  0  0  0  0  0
    9.5768   12.1801    1.8263 H   0  0  0  0  0  0  0  0  0  0  0  0
    8.1782   14.2166    1.4227 H   0  0  0  0  0  0  0  0  0  0  0  0
    8.6580   14.2087   -0.2770 H   0  0  0  0  0  0  0  0  0  0  0  0
   11.0578   14.4264    0.3994 H   0  0  0  0  0  0  0  0  0  0  0  0
   10.5779   14.4344    2.0991 H   0  0  0  0  0  0  0  0  0  0  0  0
    9.1806   16.4710    1.6951 H   0  0  0  0  0  0  0  0  0  0  0  0
    9.6604   16.4631   -0.0046 H   0  0  0  0  0  0  0  0  0  0  0  0
   12.0603   16.6809    0.6721 H   0  0  0  0  0  0  0  0  0  0  0  0
   11.5806   16.6889    2.3714 H   0  0  0  0  0  0  0  0  0  0  0  0
   10.1829   18.7256    1.9673 H   0  0  0  0  0  0  0  0  0  0  0  0
   10.6626   18.7176    0.2682 H   0  0  0  0  0  0  0  0  0  0  0  0
   13.0627   18.9352    0.9447 H   0  0  0  0  0  0  0  0  0  0  0  0
   12.5830   18.9431    2.6437 H   0  0  0  0  0  0  0  0  0  0  0  0
   11.1852   20.9800    2.2397 H   0  0  0  0  0  0  0  0  0  0  0  0
   11.6649   20.9721    0.5407 H   0  0  0  0  0  0  0  0  0  0  0  0
   14.0651   21.1897    1.2172 H   0  0  0  0  0  0  0  0  0  0  0  0
   13.5854   21.1976    2.9161 H   0  0  0  0  0  0  0  0  0  0  0  0
   12.1875   23.2345    2.5121 H   0  0  0  0  0  0  0  0  0  0  0  0
   12.6673   23.2264    0.8131 H   0  0  0  0  0  0  0  0  0  0  0  0
   15.0673   23.4438    1.4895 H   0  0  0  0  0  0  0  0  0  0  0  0
   14.5878   23.4521    3.1887 H   0  0  0  0  0  0  0  0  0  0  0  0
   13.1909   25.4889    2.7857 H   0  0  0  0  0  0  0  0  0  0  0  0
   13.6684   25.4809    1.0859 H   0  0  0  0  0  0  0  0  0  0  0  0
   16.0694   25.6983    1.7589 H   0  0  0  0  0  0  0  0  0  0  0  0
   15.5918   25.7063    3.4588 H   0  0  0  0  0  0  0  0  0  0  0  0
   14.1931   27.7431    3.0548 H   0  0  0  0  0  0  0  0  0  0  0  0
   14.6725   27.7352    1.3559 H   0  0  0  0  0  0  0  0  0  0  0  0
   17.0723   27.9537    2.0315 H   0  0  0  0  0  0  0  0  0  0  0  0
   16.5937   27.9599    3.7310 H   0  0  0  0  0  0  0  0  0  0  0  0
   15.1951   29.9962    3.3304 H   0  0  0  0  0  0  0  0  0  0  0  0
   15.6735   29.9909    1.6308 H   0  0  0  0  0  0  0  0  0  0  0  0
   18.0737   30.2093    2.3050 H   0  0  0  0  0  0  0  0  0  0  0  0
   17.5962   30.2130    4.0045 H   0  0  0  0  0  0  0  0  0  0  0  0
   16.1959   32.2497    3.6066 H   0  0  0  0  0  0  0  0  0  0  0  0
   16.6752   32.2462    1.9073 H   0  0  0  0  0  0  0  0  0  0  0  0
   19.0754   32.4638    2.5844 H   0  0  0  0  0  0  0  0  0  0  0  0
   18.5957   32.4671    4.2835 H   0  0  0  0  0  0  0  0  0  0  0  0
   17.1964   34.5039    3.8848 H   0  0  0  0  0  0  0  0  0  0  0  0
   17.6760   34.5007    2.1858 H   0  0  0  0  0  0  0  0  0  0  0  0
   20.0761   34.7182    2.8628 H   0  0  0  0  0  0  0  0  0  0  0  0
   19.5965   34.7214    4.5617 H   0  0  0  0  0  0  0  0  0  0  0  0
   18.1971   36.7583    4.1630 H   0  0  0  0  0  0  0  0  0  0  0  0
   18.6767   36.7551    2.4641 H   0  0  0  0  0  0  0  0  0  0  0  0
   21.0769   36.9726    3.1410 H   0  0  0  0  0  0  0  0  0  0  0  0
   20.5971   36.9758    4.8400 H   0  0  0  0  0  0  0  0  0  0  0  0
   19.1978   39.0124    4.4414 H   0  0  0  0  0  0  0  0  0  0  0  0
   19.6775   39.0097    2.7422 H   0  0  0  0  0  0  0  0  0  0  0  0
   22.0771   39.2281    3.4183 H   0  0  0  0  0  0  0  0  0  0  0  0
   21.5985   39.2292    5.1174 H   0  0  0  0  0  0  0  0  0  0  0  0
   20.1976   41.2659    4.7215 H   0  0  0  0  0  0  0  0  0  0  0  0
   20.6781   41.2650    3.0225 H   0  0  0  0  0  0  0  0  0  0  0  0
   23.0777   41.4826    3.7016 H   0  0  0  0  0  0  0  0  0  0  0  0
   22.5969   41.4833    5.4003 H   0  0  0  0  0  0  0  0  0  0  0  0
   21.1969   43.5202    5.0035 H   0  0  0  0  0  0  0  0  0  0  0  0
   21.6778   43.5195    3.3048 H   0  0  0  0  0  0  0  0  0  0  0  0
   24.0772   43.7368    3.9837 H   0  0  0  0  0  0  0  0  0  0  0  0
   23.5965   43.7377    5.6825 H   0  0  0  0  0  0  0  0  0  0  0  0
   22.1975   45.7745    5.2869 H   0  0  0  0  0  0  0  0  0  0  0  0
   22.6762   45.7738    3.5873 H   0  0  0  0  0  0  0  0  0  0  0  0
   25.0759   45.9921    4.2618 H   0  0  0  0  0  0  0  0  0  0  0  0
   24.5989   45.9914    5.9619 H   0  0  0  0  0  0  0  0  0  0  0  0
   23.1985   48.0280    5.5710 H   0  0  0  0  0  0  0  0  0  0  0  0
   23.6736   48.0291    3.8704 H   0  0  0  0  0  0  0  0  0  0  0  0
   26.0747   48.2474    4.5401 H   0  0  0  0  0  0  0  0  0  0  0  0
   25.6012   48.2449    6.2411 H   0  0  0  0  0  0  0  0  0  0  0  0
   24.1996   50.2815    5.8551 H   0  0  0  0  0  0  0  0  0  0  0  0
   24.6710   50.2844    4.1534 H   0  0  0  0  0  0  0  0  0  0  0  0
   27.0735   50.5027    4.8184 H   0  0  0  0  0  0  0  0  0  0  0  0
   26.6037   50.4985    6.5202 H   0  0  0  0  0  0  0  0  0  0  0  0
   25.1996   52.5351    6.1380 H   0  0  0  0  0  0  0  0  0  0  0  0
   25.6696   52.5395    4.4363 H   0  0  0  0  0  0  0  0  0  0  0  0
   28.0731   52.7569    5.1006 H   0  0  0  0  0  0  0  0  0  0  0  0
   27.6032   52.7527    6.8025 H   0  0  0  0  0  0  0  0  0  0  0  0
   26.2001   54.7895    6.4213 H   0  0  0  0  0  0  0  0  0  0  0  0
   26.6681   54.7940    4.7189 H   0  0  0  0  0  0  0  0  0  0  0  0
   29.0723   55.0113    5.3798 H   0  0  0  0  0  0  0  0  0  0  0  0
   28.6049   55.0071    7.0822 H   0  0  0  0  0  0  0  0  0  0  0  0
   27.2004   57.0441    6.7015 H   0  0  0  0  0  0  0  0  0  0  0  0
   27.6680   57.0478    4.9990 H   0  0  0  0  0  0  0  0  0  0  0  0
   30.0731   57.2649    5.6608 H   0  0  0  0  0  0  0  0  0  0  0  0
   29.6039   57.2625    7.3630 H   0  0  0  0  0  0  0  0  0  0  0  0
   28.2006   59.2992    6.9789 H   0  0  0  0  0  0  0  0  0  0  0  0
   28.6696   59.3016    5.2766 H   0  0  0  0  0  0  0  0  0  0  0  0
   31.0732   59.5200    5.9382 H   0  0  0  0  0  0  0  0  0  0  0  0
   30.6056   59.5163    7.6402 H   0  0  0  0  0  0  0  0  0  0  0  0
   29.2004   61.5527    7.2590 H   0  0  0  0  0  0  0  0  0  0  0  0
   29.6702   61.5569    5.5568 H   0  0  0  0  0  0  0  0  0  0  0  0
   32.0743   61.7738    6.2222 H   0  0  0  0  0  0  0  0  0  0  0  0
   31.6027   61.7710    7.9239 H   0  0  0  0  0  0  0  0  0  0  0  0
   30.1990   63.8075    7.5368 H   0  0  0  0  0  0  0  0  0  0  0  0
   30.6726   63.8107    5.8362 H   0  0  0  0  0  0  0  0  0  0  0  0
   33.0745   64.0292    6.5045 H   0  0  0  0  0  0  0  0  0  0  0  0
   32.6018   64.0244    8.2057 H   0  0  0  0  0  0  0  0  0  0  0  0
   31.1977   66.0610    7.8208 H   0  0  0  0  0  0  0  0  0  0  0  0
   31.6722   66.0663    6.1205 H   0  0  0  0  0  0  0  0  0  0  0  0
   34.0734   66.2848    6.7906 H   0  0  0  0  0  0  0  0  0  0  0  0
   33.5999   66.2776    8.4918 H   0  0  0  0  0  0  0  0  0  0  0  0
   32.1969   68.3144    8.1110 H   0  0  0  0  0  0  0  0  0  0  0  0
   32.6680   68.3213    6.4100 H   0  0  0  0  0  0  0  0  0  0  0  0
   35.0715   68.5383    7.0766 H   0  0  0  0  0  0  0  0  0  0  0  0
   34.5990   68.5328    8.7779 H   0  0  0  0  0  0  0  0  0  0  0  0
   33.1953   70.5698    8.3940 H   0  0  0  0  0  0  0  0  0  0  0  0
   33.6681   70.5749    6.6930 H   0  0  0  0  0  0  0  0  0  0  0  0
   36.0700   70.7933    7.3598 H   0  0  0  0  0  0  0  0  0  0  0  0
   35.5989   70.7865    9.0616 H   0  0  0  0  0  0  0  0  0  0  0  0
   34.1955   72.8233    8.6822 H   0  0  0  0  0  0  0  0  0  0  0  0
   34.6636   72.8296    6.9799 H   0  0  0  0  0  0  0  0  0  0  0  0
   37.0686   73.0469    7.6436 H   0  0  0  0  0  0  0  0  0  0  0  0
   36.5984   73.0422    9.3459 H   0  0  0  0  0  0  0  0  0  0  0  0
   35.1939   75.0787    8.9628 H   0  0  0  0  0  0  0  0  0  0  0  0
   35.6664   75.0837    7.2610 H   0  0  0  0  0  0  0  0  0  0  0  0
   38.0682   75.3024    7.9278 H   0  0  0  0  0  0  0  0  0  0  0  0
   37.5969   75.2953    9.6299 H   0  0  0  0  0  0  0  0  0  0  0  0
   36.1931   77.3321    9.2497 H   0  0  0  0  0  0  0  0  0  0  0  0
   36.6644   77.3392    7.5476 H   0  0  0  0  0  0  0  0  0  0  0  0
   39.0675   77.5563    8.2148 H   0  0  0  0  0  0  0  0  0  0  0  0
   38.5949   77.5511    9.9166 H   0  0  0  0  0  0  0  0  0  0  0  0
   37.1917   79.5884    9.5322 H   0  0  0  0  0  0  0  0  0  0  0  0
   37.6666   79.5939    7.8311 H   0  0  0  0  0  0  0  0  0  0  0  0
   40.0680   79.8131    8.5022 H   0  0  0  0  0  0  0  0  0  0  0  0
   39.5931   79.8076   10.2033 H   0  0  0  0  0  0  0  0  0  0  0  0
   38.1916   81.8459    9.8186 H   0  0  0  0  0  0  0  0  0  0  0  0
   38.6665   81.8513    8.1175 H   0  0  0  0  0  0  0  0  0  0  0  0
   41.0679   82.0733    8.7902 H   0  0  0  0  0  0  0  0  0  0  0  0
   40.5922   82.0700   10.4896 H   0  0  0  0  0  0  0  0  0  0  0  0
   39.2025   84.1211   10.1052 H   0  0  0  0  0  0  0  0  0  0  0  0
   39.6787   84.1245    8.4045 H   0  0  0  0  0  0  0  0  0  0  0  0
   41.5984   84.3582   10.7806 H   0  0  0  0  0  0  0  0  0  0  0  0
   41.0875   85.6859    9.7190 H   0  0  0  0  0  0  0  0  0  0  0  0
   42.0767   84.3616    9.0722 H   0  0  0  0  0  0  0  0  0  0  0  0
  1  2  1  0  0  0  0
  1 80  1  0  0  0  0
  2  3  1  0  0  0  0
  2  4  1  0  0  0  0
  2 81  1  0  0  0  0
  3  4  1  0  0  0  0
  3 82  1  0  0  0  0
  3 83  1  0  0  0  0
  4  5  1  0  0  0  0
  4 84  1  0  0  0  0
  5  6  1  0  0  0  0
  6  7  1  0  0  0  0
  7  8  1  0  0  0  0
  7 85  1  0  0  0  0
  7 86  1  0  0  0  0
  8  9  1  0  0  0  0
  8 87  1  0  0  0  0
  8 88  1  0  0  0  0
  9 10  1  0  0  0  0
  9 89  1  0  0  0  0
  9 90  1  0  0  0  0
 10 11  1  0  0  0  0
 10 91  1  0  0  0  0
 10 92  1  0  0  0  0
 11 12  1  0  0  0  0
 11 93  1  0  0  0  0
 11 94  1  0  0  0  0
 12 13  1  0  0  0  0
 12 95  1  0  0  0  0
 12 96  1  0  0  0  0
 13 14  1  0  0  0  0
 13 97  1  0  0  0  0
 13 98  1  0  0  0  0
 14 15  1  0  0  0  0
 14 99  1  0  0  0  0
 14100  1  0  0  0  0
 15 16  1  0  0  0  0
 15101  1  0  0  0  0
 15102  1  0  0  0  0
 16 17  1  0  0  0  0
 16103  1  0  0  0  0
 16104  1  0  0  0  0
 17 18  1  0  0  0  0
 17105  1  0  0  0  0
 17106  1  0  0  0  0
 18 19  1  0  0  0  0
 18107  1  0  0  0  0
 18108  1  0  0  0  0
 19 20  1  0  0  0  0
 19109  1  0  0  0  0
 19110  1  0  0  0  0
 20 21  1  0  0  0  0
 20111  1  0  0  0  0
 20112  1  0  0  0  0
 21 22  1  0  0  0  0
 21113  1  0  0  0  0
 21114  1  0  0  0  0
 22 23  1  0  0  0  0
 22115  1  0  0  0  0
 22116  1  0  0  0  0
 23 24  1  0  0  0  0
 23117  1  0  0  0  0
 23118  1  0  0  0  0
 24 25  1  0  0  0  0
 24119  1  0  0  0  0
 24120  1  0  0  0  0
 25 26  1  0  0  0  0
 25121  1  0  0  0  0
 25122  1  0  0  0  0
 26 27  1  0  0  0  0
 26123  1  0  0  0  0
 26124  1  0  0  0  0
 27 28  1  0  0  0  0
 27125  1  0  0  0  0
 27126  1  0  0  0  0
 28 29  1  0  0  0  0
 28127  1  0  0  0  0
 28128  1  0  0  0  0
 29 30  1  0  0  0  0
 29129  1  0  0  0  0
 29130  1  0  0  0  0
 30 31  1  0  0  0  0
 30131  1  0  0  0  0
 30132  1  0  0  0  0
 31 32  1  0  0  0  0
 31133  1  0  0  0  0
 31134  1  0  0  0  0
 32 33  1  0  0  0  0
 32135  1  0  0  0  0
 32136  1  0  0  0  0
 33 34  1  0  0  0  0
 33137  1  0  0  0  0
 33138  1  0  0  0  0
 34 35  1  0  0  0  0
 34139  1  0  0  0  0
 34140  1  0  0  0  0
 35 36  1  0  0  0  0
 35141  1  0  0  0  0
 35142  1  0  0  0  0
 36 37  1  0  0  0  0
 36143  1  0  0  0  0
 36144  1  0  0  0  0
 37 38  1  0  0  0  0
 37145  1  0  0  0  0
 37146  1  0  0  0  0
 38 39  1  0  0  0  0
 38147  1  0  0  0  0
 38148  1  0  0  0  0
 39 40  1  0  0  0  0
 39149  1  0  0  0  0
 39150  1  0  0  0  0
 40 41  1  0  0  0  0
 40151  1  0  0  0  0
 40152  1  0  0  0  0
 41 42  1  0  0  0  0
 41153  1  0  0  0  0
 41154  1  0  0  0  0
 42 43  1  0  0  0  0
 42155  1  0  0  0  0
 42156  1  0  0  0  0
 43 44  1  0  0  0  0
 43157  1  0  0  0  0
 43158  1  0  0  0  0
 44 45  1  0  0  0  0
 44159  1  0  0  0  0
 44160  1  0  0  0  0
 45 46  1  0  0  0  0
 45161  1  0  0  0  0
 45162  1  0  0  0  0
 46 47  1  0  0  0  0
 46163  1  0  0  0  0
 46164  1  0  0  0  0
 47 48  1  0  0  0  0
 47165  1  0  0  0  0
 47166  1  0  0  0  0
 48 49  1  0  0  0  0
 48167  1  0  0  0  0
 48168  1  0  0  0  0
 49 50  1  0  0  0  0
 49169  1  0  0  0  0
 49170  1  0  0  0  0
 50 51  1  0  0  0  0
 50171  1  0  0  0  0
 50172  1  0  0  0  0
 51 52  1  0  0  0  0
 51173  1  0  0  0  0
 51174  1  0  0  0  0
 52 53  1  0  0  0  0
 52175  1  0  0  0  0
 52176  1  0  0  0  0
 53 54  1  0  0  0  0
 53177  1  0  0  0  0
 53178  1  0  0  0  0
 54 55  1  0  0  0  0
 54179  1  0  0  0  0
 54180  1  0  0  0  0
 55 56  1  0  0  0  0
 55181  1  0  0  0  0
 55182  1  0  0  0  0
 56 57  1  0  0  0  0
 56183  1  0  0  0  0
 56184  1  0  0  0  0
 57 58  1  0  0  0  0
 57185  1  0  0  0  0
 57186  1  0  0  0  0
 58 59  1  0  0  0  0
 58187  1  0  0  0  0
 58188  1  0  0  0  0
 59 60  1  0  0  0  0
 59189  1  0  0  0  0
 59190  1  0  0  0  0
 60 61  1  0  0  0  0
 60191  1  0  0  0  0
 60192  1  0  0  0  0
 61 62  1  0  0  0  0
 61193  1  0  0  0  0
 61194  1  0  0  0  0
 62 63  1  0  0  0  0
 62195  1  0  0  0  0
 62196  1  0  0  0  0
 63 64  1  0  0  0  0
 63197  1  0  0  0  0
 63198  1  0  0  0  0
 64 65  1  0  0  0  0
 64199  1  0  0  0  0
 64200  1  0  0  0  0
 65 66  1  0  0  0  0
 65201  1  0  0  0  0
 65202  1  0  0  0  0
 66 67  1  0  0  0  0
 66203  1  0  0  0  0
 66204  1  0  0  0  0
 67 68  1  0  0  0  0
 67205  1  0  0  0  0
 67206  1  0  0  0  0
 68 69  1  0  0  0  0
 68207  1  0  0  0  0
 68208  1  0  0  0  0
 69 70  1  0  0  0  0
 69209  1  0  0  0  0
 69210  1  0  0  0  0
 70 71  1  0  0  0  0
 70211  1  0  0  0  0
 70212  1  0  0  0  0
 71 72  1  0  0  0  0
 71213  1  0  0  0  0
 71214  1  0  0  0  0
 72 73  1  0  0  0  0
 72215  1  0  0  0  0
 72216  1  0  0  0  0
 73 74  1  0  0  0  0
 73217  1  0  0  0  0
 73218  1  0  0  0  0
 74 75  1  0  0  0  0
 74219  1  0  0  0  0
 74220  1  0  0  0  0
 75 76  1  0  0  0  0
 75221  1  0  0  0  0
 75222  1  0  0  0  0
 76 77  1  0  0  0  0
 76223  1  0  0  0  0
 76224  1  0  0  0  0
 77 78  1  0  0  0  0
 77225  1  0  0  0  0
 77226  1  0  0  0  0
 78 79  1  0  0  0  0
 78227  1  0  0  0  0
 78228  1  0  0  0  0
 79229  1  0  0  0  0
 79230  1  0  0  0  0
 79231  1  0  0  0  0
M  END
$$$$
