
 OpenBabel04232216493D

 78 78  0  0  1  0  0  0  0  0999 V2000
    0.7188    0.1998    0.4278 C   0  0  0  0  0  0  0  0  0  0  0  0
    2.2491    0.1843    0.3853 C   0  0  3  0  0  0  0  0  0  0  0  0
    2.7347   -1.2099   -0.0339 C   0  0  0  0  0  0  0  0  0  0  0  0
    4.2506   -1.3688   -0.1393 C   0  0  0  0  0  0  0  0  0  0  0  0
    4.8311   -0.6562   -1.3586 C   0  0  0  0  0  0  0  0  0  0  0  0
    5.2166    0.8132   -1.1290 C   0  0  3  0  0  0  0  0  0  0  0  0
    6.6208    0.8866   -0.4998 C   0  0  0  0  0  0  0  0  0  0  0  0
    7.0990    2.3169   -0.2535 C   0  0  0  0  0  0  0  0  0  0  0  0
    8.4838    2.2947    0.3668 C   0  0  0  0  0  0  0  0  0  0  0  0
    8.9800    3.7028    0.6703 C   0  0  0  0  0  0  0  0  0  0  0  0
   10.3446    3.5968    1.3367 C   0  0  0  0  0  0  0  0  0  0  0  0
   10.9278    4.9633    1.6771 C   0  0  0  0  0  0  0  0  0  0  0  0
   12.3000    4.9112    2.3206 C   0  0  0  0  0  0  0  0  0  0  0  0
   12.7587    3.8722    3.0402 C   0  0  0  0  0  0  0  0  0  0  0  0
   13.1819    6.1109    2.0635 C   0  0  0  0  0  0  0  0  0  0  0  0
   12.6120    7.4345    2.5836 C   0  0  0  0  0  0  0  0  0  0  0  0
   12.3024    7.5164    4.1028 C   0  0  3  0  0  0  0  0  0  0  0  0
   13.5742    7.2587    4.9455 C   0  0  0  0  0  0  0  0  0  0  0  0
   13.3431    7.2796    6.4648 C   0  0  0  0  0  0  0  0  0  0  0  0
   14.6250    7.0977    7.2877 C   0  0  0  0  0  0  0  0  0  0  0  0
   15.6561    8.1944    7.0123 C   0  0  0  0  0  0  0  0  0  0  0  0
   16.8998    8.0592    7.8865 C   0  0  0  0  0  0  0  0  0  0  0  0
   17.9170    9.1360    7.5357 C   0  0  0  0  0  0  0  0  0  0  0  0
   11.7148    8.9087    4.4107 C   0  0  0  0  0  0  0  0  0  0  0  0
   10.4063    9.1378    3.6983 C   0  0  0  0  0  0  0  0  0  0  0  0
   10.2054   10.0830    2.9457 O   0  0  0  0  0  0  0  0  0  0  0  0
    4.2143    1.6379   -0.3068 C   0  0  0  0  0  0  0  0  0  0  0  0
    2.7429    1.3155   -0.5288 C   0  0  0  0  0  0  0  0  0  0  0  0
    0.3379   -0.5847    1.0895 H   0  0  0  0  0  0  0  0  0  0  0  0
    0.2915    0.0456   -0.5687 H   0  0  0  0  0  0  0  0  0  0  0  0
    0.3534    1.1598    0.8092 H   0  0  0  0  0  0  0  0  0  0  0  0
    2.6020    0.3755    1.4077 H   0  0  0  0  0  0  0  0  0  0  0  0
    2.2739   -1.4925   -0.9890 H   0  0  0  0  0  0  0  0  0  0  0  0
    2.3721   -1.9373    0.7044 H   0  0  0  0  0  0  0  0  0  0  0  0
    4.4605   -2.4404   -0.2476 H   0  0  0  0  0  0  0  0  0  0  0  0
    4.7411   -1.0523    0.7878 H   0  0  0  0  0  0  0  0  0  0  0  0
    4.1255   -0.7185   -2.1961 H   0  0  0  0  0  0  0  0  0  0  0  0
    5.7212   -1.2070   -1.6930 H   0  0  0  0  0  0  0  0  0  0  0  0
    5.2879    1.2762   -2.1233 H   0  0  0  0  0  0  0  0  0  0  0  0
    7.3389    0.3831   -1.1610 H   0  0  0  0  0  0  0  0  0  0  0  0
    6.6329    0.3358    0.4489 H   0  0  0  0  0  0  0  0  0  0  0  0
    6.4227    2.8398    0.4311 H   0  0  0  0  0  0  0  0  0  0  0  0
    7.1123    2.8769   -1.1958 H   0  0  0  0  0  0  0  0  0  0  0  0
    9.1854    1.7914   -0.3089 H   0  0  0  0  0  0  0  0  0  0  0  0
    8.4559    1.7104    1.2959 H   0  0  0  0  0  0  0  0  0  0  0  0
    8.2759    4.2162    1.3368 H   0  0  0  0  0  0  0  0  0  0  0  0
    9.0442    4.2892   -0.2538 H   0  0  0  0  0  0  0  0  0  0  0  0
   11.0323    3.0636    0.6678 H   0  0  0  0  0  0  0  0  0  0  0  0
   10.2335    2.9940    2.2434 H   0  0  0  0  0  0  0  0  0  0  0  0
   10.2442    5.5087    2.3396 H   0  0  0  0  0  0  0  0  0  0  0  0
   10.9919    5.5401    0.7450 H   0  0  0  0  0  0  0  0  0  0  0  0
   12.1632    2.9880    3.2430 H   0  0  0  0  0  0  0  0  0  0  0  0
   13.7615    3.8734    3.4617 H   0  0  0  0  0  0  0  0  0  0  0  0
   13.3204    6.1992    0.9772 H   0  0  0  0  0  0  0  0  0  0  0  0
   14.1888    5.9539    2.4676 H   0  0  0  0  0  0  0  0  0  0  0  0
   11.6977    7.6510    2.0175 H   0  0  0  0  0  0  0  0  0  0  0  0
   13.3202    8.2306    2.3187 H   0  0  0  0  0  0  0  0  0  0  0  0
   11.5540    6.7545    4.3554 H   0  0  0  0  0  0  0  0  0  0  0  0
   14.3168    8.0122    4.6633 H   0  0  0  0  0  0  0  0  0  0  0  0
   14.0020    6.2845    4.6911 H   0  0  0  0  0  0  0  0  0  0  0  0
   12.6378    6.4821    6.7302 H   0  0  0  0  0  0  0  0  0  0  0  0
   12.8857    8.2227    6.7769 H   0  0  0  0  0  0  0  0  0  0  0  0
   15.0608    6.1120    7.0871 H   0  0  0  0  0  0  0  0  0  0  0  0
   14.3568    7.1152    8.3523 H   0  0  0  0  0  0  0  0  0  0  0  0
   15.2005    9.1766    7.1745 H   0  0  0  0  0  0  0  0  0  0  0  0
   15.9743    8.1521    5.9653 H   0  0  0  0  0  0  0  0  0  0  0  0
   17.3539    7.0735    7.7410 H   0  0  0  0  0  0  0  0  0  0  0  0
   16.6273    8.1433    8.9441 H   0  0  0  0  0  0  0  0  0  0  0  0
   18.2043    9.0737    6.4803 H   0  0  0  0  0  0  0  0  0  0  0  0
   18.8220    9.0219    8.1401 H   0  0  0  0  0  0  0  0  0  0  0  0
   17.5074   10.1347    7.7174 H   0  0  0  0  0  0  0  0  0  0  0  0
   12.4204    9.6968    4.1247 H   0  0  0  0  0  0  0  0  0  0  0  0
   11.4924    9.0281    5.4743 H   0  0  0  0  0  0  0  0  0  0  0  0
    9.6054    8.4094    3.9197 H   0  0  0  0  0  0  0  0  0  0  0  0
    4.3621    2.6947   -0.5670 H   0  0  0  0  0  0  0  0  0  0  0  0
    4.4442    1.5609    0.7641 H   0  0  0  0  0  0  0  0  0  0  0  0
    2.5397    1.0986   -1.5839 H   0  0  0  0  0  0  0  0  0  0  0  0
    2.1772    2.2253   -0.2871 H   0  0  0  0  0  0  0  0  0  0  0  0
  1  2  1  0  0  0  0
  1 29  1  0  0  0  0
  1 30  1  0  0  0  0
  1 31  1  0  0  0  0
  2  3  1  0  0  0  0
  2 28  1  0  0  0  0
  2 32  1  0  0  0  0
  3  4  1  0  0  0  0
  3 33  1  0  0  0  0
  3 34  1  0  0  0  0
  4  5  1  0  0  0  0
  4 35  1  0  0  0  0
  4 36  1  0  0  0  0
  5  6  1  0  0  0  0
  5 37  1  0  0  0  0
  5 38  1  0  0  0  0
  6  7  1  0  0  0  0
  6 27  1  0  0  0  0
  6 39  1  0  0  0  0
  7  8  1  0  0  0  0
  7 40  1  0  0  0  0
  7 41  1  0  0  0  0
  8  9  1  0  0  0  0
  8 42  1  0  0  0  0
  8 43  1  0  0  0  0
  9 10  1  0  0  0  0
  9 44  1  0  0  0  0
  9 45  1  0  0  0  0
 10 11  1  0  0  0  0
 10 46  1  0  0  0  0
 10 47  1  0  0  0  0
 11 12  1  0  0  0  0
 11 48  1  0  0  0  0
 11 49  1  0  0  0  0
 12 13  1  0  0  0  0
 12 50  1  0  0  0  0
 12 51  1  0  0  0  0
 13 14  2  0  0  0  0
 13 15  1  0  0  0  0
 14 52  1  0  0  0  0
 14 53  1  0  0  0  0
 15 16  1  0  0  0  0
 15 54  1  0  0  0  0
 15 55  1  0  0  0  0
 16 17  1  0  0  0  0
 16 56  1  0  0  0  0
 16 57  1  0  0  0  0
 17 18  1  0  0  0  0
 17 24  1  0  0  0  0
 17 58  1  0  0  0  0
 18 19  1  0  0  0  0
 18 59  1  0  0  0  0
 18 60  1  0  0  0  0
 19 20  1  0  0  0  0
 19 61  1  0  0  0  0
 19 62  1  0  0  0  0
 20 21  1  0  0  0  0
 20 63  1  0  0  0  0
 20 64  1  0  0  0  0
 21 22  1  0  0  0  0
 21 65  1  0  0  0  0
 21 66  1  0  0  0  0
 22 23  1  0  0  0  0
 22 67  1  0  0  0  0
 22 68  1  0  0  0  0
 23 69  1  0  0  0  0
 23 70  1  0  0  0  0
 23 71  1  0  0  0  0
 24 25  1  0  0  0  0
 24 72  1  0  0  0  0
 24 73  1  0  0  0  0
 25 26  2  0  0  0  0
 25 74  1  0  0  0  0
 27 28  1  0  0  0  0
 27 75  1  0  0  0  0
 27 76  1  0  0  0  0
 28 77  1  0  0  0  0
 28 78  1  0  0  0  0
M  END
$$$$
