
 OpenBabel04232216593D

229229  0  0  1  0  0  0  0  0999 V2000
    1.1543    0.0841    0.3014 O   0  0  0  0  0  0  0  0  0  0  0  0
    2.3522    0.0248    0.0471 C   0  0  0  0  0  0  0  0  0  0  0  0
    2.9238    0.5436   -1.2146 C   0  0  3  0  0  3  0  0  0  0  0  0
    2.2456    0.5711   -2.5012 C   0  0  0  0  0  0  0  0  0  0  0  0
    2.6150    1.8395   -1.8054 C   0  0  3  0  0  0  0  0  0  0  0  0
    3.7168    2.7004   -2.3388 C   0  0  0  0  0  0  0  0  0  0  0  0
    3.9153    3.9267   -1.4518 C   0  0  0  0  0  0  0  0  0  0  0  0
    5.0328    4.8199   -1.9757 C   0  0  0  0  0  0  0  0  0  0  0  0
    5.2041    6.0360   -1.0734 C   0  0  0  0  0  0  0  0  0  0  0  0
    6.3188    6.9319   -1.5897 C   0  0  0  0  0  0  0  0  0  0  0  0
    6.4893    8.1439   -0.6888 C   0  0  0  0  0  0  0  0  0  0  0  0
    7.6046    9.0316   -1.2144 C   0  0  0  0  0  0  0  0  0  0  0  0
    7.7767   10.2422   -0.3149 C   0  0  0  0  0  0  0  0  0  0  0  0
    8.8914   11.1261   -0.8433 C   0  0  0  0  0  0  0  0  0  0  0  0
    9.0634   12.3367    0.0559 C   0  0  0  0  0  0  0  0  0  0  0  0
   10.1774   13.2190   -0.4730 C   0  0  0  0  0  0  0  0  0  0  0  0
   10.3501   14.4287    0.4283 C   0  0  0  0  0  0  0  0  0  0  0  0
   11.4644   15.3116   -0.1005 C   0  0  0  0  0  0  0  0  0  0  0  0
   11.6362   16.5197    0.8007 C   0  0  0  0  0  0  0  0  0  0  0  0
   12.7506   17.4025    0.2720 C   0  0  0  0  0  0  0  0  0  0  0  0
   12.9219   18.6103    1.1733 C   0  0  0  0  0  0  0  0  0  0  0  0
   14.0361   19.4932    0.6448 C   0  0  0  0  0  0  0  0  0  0  0  0
   14.2071   20.7008    1.5463 C   0  0  0  0  0  0  0  0  0  0  0  0
   15.3213   21.5838    1.0179 C   0  0  0  0  0  0  0  0  0  0  0  0
   15.4923   22.7914    1.9193 C   0  0  0  0  0  0  0  0  0  0  0  0
   16.6065   23.6742    1.3907 C   0  0  0  0  0  0  0  0  0  0  0  0
   16.7763   24.8829    2.2910 C   0  0  0  0  0  0  0  0  0  0  0  0
   17.8905   25.7657    1.7624 C   0  0  0  0  0  0  0  0  0  0  0  0
   18.0590   26.9754    2.6615 C   0  0  0  0  0  0  0  0  0  0  0  0
   19.1732   27.8581    2.1328 C   0  0  0  0  0  0  0  0  0  0  0  0
   19.3429   29.0668    3.0330 C   0  0  0  0  0  0  0  0  0  0  0  0
   20.4571   29.9496    2.5044 C   0  0  0  0  0  0  0  0  0  0  0  0
   20.6257   31.1593    3.4035 C   0  0  0  0  0  0  0  0  0  0  0  0
   21.7413   32.0412    2.8760 C   0  0  0  0  0  0  0  0  0  0  0  0
   21.9111   33.2500    3.7763 C   0  0  0  0  0  0  0  0  0  0  0  0
   23.0267   34.1317    3.2487 C   0  0  0  0  0  0  0  0  0  0  0  0
   23.1964   35.3402    4.1489 C   0  0  0  0  0  0  0  0  0  0  0  0
   24.3118   36.2219    3.6214 C   0  0  0  0  0  0  0  0  0  0  0  0
   24.4817   37.4305    4.5216 C   0  0  0  0  0  0  0  0  0  0  0  0
   25.5971   38.3123    3.9940 C   0  0  0  0  0  0  0  0  0  0  0  0
   25.7685   39.5201    4.8954 C   0  0  0  0  0  0  0  0  0  0  0  0
   26.8826   40.4030    4.3667 C   0  0  0  0  0  0  0  0  0  0  0  0
   27.0553   41.6096    5.2693 C   0  0  0  0  0  0  0  0  0  0  0  0
   28.1680   42.4935    4.7395 C   0  0  0  0  0  0  0  0  0  0  0  0
   28.3420   43.6991    5.6431 C   0  0  0  0  0  0  0  0  0  0  0  0
   29.4533   44.5838    5.1122 C   0  0  0  0  0  0  0  0  0  0  0  0
   29.6257   45.7904    6.0145 C   0  0  0  0  0  0  0  0  0  0  0  0
   30.7372   46.6751    5.4838 C   0  0  0  0  0  0  0  0  0  0  0  0
   30.9096   47.8818    6.3862 C   0  0  0  0  0  0  0  0  0  0  0  0
   32.0213   48.7667    5.8554 C   0  0  0  0  0  0  0  0  0  0  0  0
   32.1924   49.9745    6.7568 C   0  0  0  0  0  0  0  0  0  0  0  0
   33.3040   50.8592    6.2258 C   0  0  0  0  0  0  0  0  0  0  0  0
   33.4764   52.0659    7.1282 C   0  0  0  0  0  0  0  0  0  0  0  0
   34.5880   52.9506    6.5973 C   0  0  0  0  0  0  0  0  0  0  0  0
   34.7617   54.1563    7.5009 C   0  0  0  0  0  0  0  0  0  0  0  0
   35.8733   55.0412    6.9702 C   0  0  0  0  0  0  0  0  0  0  0  0
   36.0457   56.2479    7.8727 C   0  0  0  0  0  0  0  0  0  0  0  0
   37.1560   57.1338    7.3408 C   0  0  0  0  0  0  0  0  0  0  0  0
   37.3268   58.3413    8.2422 C   0  0  0  0  0  0  0  0  0  0  0  0
   38.4358   59.2283    7.7091 C   0  0  0  0  0  0  0  0  0  0  0  0
   38.6082   60.4352    8.6117 C   0  0  0  0  0  0  0  0  0  0  0  0
   39.7185   61.3211    8.0796 C   0  0  0  0  0  0  0  0  0  0  0  0
   39.8897   62.5289    8.9812 C   0  0  0  0  0  0  0  0  0  0  0  0
   40.9987   63.4161    8.4482 C   0  0  0  0  0  0  0  0  0  0  0  0
   41.1712   64.6230    9.3507 C   0  0  0  0  0  0  0  0  0  0  0  0
   42.2802   65.5103    8.8180 C   0  0  0  0  0  0  0  0  0  0  0  0
   42.4543   66.7165    9.7215 C   0  0  0  0  0  0  0  0  0  0  0  0
   43.5620   67.6052    9.1881 C   0  0  0  0  0  0  0  0  0  0  0  0
   43.7348   68.8126   10.0908 C   0  0  0  0  0  0  0  0  0  0  0  0
   44.8442   69.7015    9.5589 C   0  0  0  0  0  0  0  0  0  0  0  0
   45.0174   70.9116   10.4602 C   0  0  0  0  0  0  0  0  0  0  0  0
   46.1266   71.8007    9.9285 C   0  0  0  0  0  0  0  0  0  0  0  0
   46.3003   73.0142   10.8287 C   0  0  0  0  0  0  0  0  0  0  0  0
   47.4087   73.9059   10.2975 C   0  0  0  0  0  0  0  0  0  0  0  0
   47.5861   75.1246   11.1969 C   0  0  0  0  0  0  0  0  0  0  0  0
   48.6956   76.0175   10.6650 C   0  0  0  0  0  0  0  0  0  0  0  0
   48.8827   77.2409   11.5573 C   0  0  0  0  0  0  0  0  0  0  0  0
   49.9881   78.1280   11.0252 C   0  0  0  0  0  0  0  0  0  0  0  0
    3.0827   -0.3977    0.7452 H   0  0  0  0  0  0  0  0  0  0  0  0
    1.2020    0.2817   -2.5014 H   0  0  0  0  0  0  0  0  0  0  0  0
    2.8292    0.2379   -3.3455 H   0  0  0  0  0  0  0  0  0  0  0  0
    1.8101    2.4022   -1.3464 H   0  0  0  0  0  0  0  0  0  0  0  0
    3.4575    3.0251   -3.3541 H   0  0  0  0  0  0  0  0  0  0  0  0
    4.6581    2.1401   -2.4131 H   0  0  0  0  0  0  0  0  0  0  0  0
    4.1425    3.6127   -0.4254 H   0  0  0  0  0  0  0  0  0  0  0  0
    2.9816    4.5018   -1.4076 H   0  0  0  0  0  0  0  0  0  0  0  0
    4.8017    5.1469   -2.9971 H   0  0  0  0  0  0  0  0  0  0  0  0
    5.9729    4.2564   -2.0206 H   0  0  0  0  0  0  0  0  0  0  0  0
    5.4338    5.7114   -0.0512 H   0  0  0  0  0  0  0  0  0  0  0  0
    4.2652    6.6012   -1.0299 H   0  0  0  0  0  0  0  0  0  0  0  0
    6.0883    7.2587   -2.6131 H   0  0  0  0  0  0  0  0  0  0  0  0
    7.2589    6.3667   -1.6357 H   0  0  0  0  0  0  0  0  0  0  0  0
    6.7207    7.8181    0.3326 H   0  0  0  0  0  0  0  0  0  0  0  0
    5.5509    8.7100   -0.6443 H   0  0  0  0  0  0  0  0  0  0  0  0
    7.3724    9.3561   -2.2364 H   0  0  0  0  0  0  0  0  0  0  0  0
    8.5423    8.4641   -1.2594 H   0  0  0  0  0  0  0  0  0  0  0  0
    8.0097    9.9188    0.7067 H   0  0  0  0  0  0  0  0  0  0  0  0
    6.8397   10.8104   -0.2702 H   0  0  0  0  0  0  0  0  0  0  0  0
    8.6596   11.4509   -1.8654 H   0  0  0  0  0  0  0  0  0  0  0  0
    9.8296   10.5590   -0.8886 H   0  0  0  0  0  0  0  0  0  0  0  0
    9.2964   12.0130    1.0777 H   0  0  0  0  0  0  0  0  0  0  0  0
    8.1263   12.9050    0.1011 H   0  0  0  0  0  0  0  0  0  0  0  0
    9.9451   13.5458   -1.4940 H   0  0  0  0  0  0  0  0  0  0  0  0
   11.1157   12.6524   -0.5190 H   0  0  0  0  0  0  0  0  0  0  0  0
   10.5834   14.1036    1.4497 H   0  0  0  0  0  0  0  0  0  0  0  0
    9.4130   14.9971    0.4747 H   0  0  0  0  0  0  0  0  0  0  0  0
   11.2314   15.6371   -1.1217 H   0  0  0  0  0  0  0  0  0  0  0  0
   12.4019   14.7436   -0.1468 H   0  0  0  0  0  0  0  0  0  0  0  0
   11.8694   16.1945    1.8221 H   0  0  0  0  0  0  0  0  0  0  0  0
   10.6990   17.0880    0.8470 H   0  0  0  0  0  0  0  0  0  0  0  0
   12.5175   17.7279   -0.7493 H   0  0  0  0  0  0  0  0  0  0  0  0
   13.6880   16.8344    0.2257 H   0  0  0  0  0  0  0  0  0  0  0  0
   13.1551   18.2849    2.1946 H   0  0  0  0  0  0  0  0  0  0  0  0
   11.9846   19.1784    1.2196 H   0  0  0  0  0  0  0  0  0  0  0  0
   13.8031   19.8187   -0.3765 H   0  0  0  0  0  0  0  0  0  0  0  0
   14.9735   18.9252    0.5985 H   0  0  0  0  0  0  0  0  0  0  0  0
   14.4402   20.3753    2.5676 H   0  0  0  0  0  0  0  0  0  0  0  0
   13.2697   21.2688    1.5926 H   0  0  0  0  0  0  0  0  0  0  0  0
   15.0882   21.9093   -0.0035 H   0  0  0  0  0  0  0  0  0  0  0  0
   16.2587   21.0158    0.9715 H   0  0  0  0  0  0  0  0  0  0  0  0
   15.7254   22.4660    2.9407 H   0  0  0  0  0  0  0  0  0  0  0  0
   14.5549   23.3594    1.9656 H   0  0  0  0  0  0  0  0  0  0  0  0
   16.3741   23.9986    0.3689 H   0  0  0  0  0  0  0  0  0  0  0  0
   17.5441   23.1065    1.3457 H   0  0  0  0  0  0  0  0  0  0  0  0
   17.0087   24.5587    3.3129 H   0  0  0  0  0  0  0  0  0  0  0  0
   15.8386   25.4505    2.3359 H   0  0  0  0  0  0  0  0  0  0  0  0
   17.6587   26.0889    0.7400 H   0  0  0  0  0  0  0  0  0  0  0  0
   18.8283   25.1984    1.7187 H   0  0  0  0  0  0  0  0  0  0  0  0
   18.2907   26.6522    3.6838 H   0  0  0  0  0  0  0  0  0  0  0  0
   17.1211   27.5427    2.7051 H   0  0  0  0  0  0  0  0  0  0  0  0
   18.9408   28.1823    1.1109 H   0  0  0  0  0  0  0  0  0  0  0  0
   20.1109   27.2905    2.0879 H   0  0  0  0  0  0  0  0  0  0  0  0
   19.5755   28.7427    4.0549 H   0  0  0  0  0  0  0  0  0  0  0  0
   18.4053   29.6344    3.0780 H   0  0  0  0  0  0  0  0  0  0  0  0
   20.2255   30.2728    1.4820 H   0  0  0  0  0  0  0  0  0  0  0  0
   21.3950   29.3822    2.4608 H   0  0  0  0  0  0  0  0  0  0  0  0
   20.8560   30.8361    4.4262 H   0  0  0  0  0  0  0  0  0  0  0  0
   19.6881   31.7273    3.4460 H   0  0  0  0  0  0  0  0  0  0  0  0
   21.5101   32.3653    1.8538 H   0  0  0  0  0  0  0  0  0  0  0  0
   22.6785   31.4728    2.8323 H   0  0  0  0  0  0  0  0  0  0  0  0
   22.1421   32.9256    4.7984 H   0  0  0  0  0  0  0  0  0  0  0  0
   20.9738   33.8183    3.8201 H   0  0  0  0  0  0  0  0  0  0  0  0
   22.7956   34.4560    2.2266 H   0  0  0  0  0  0  0  0  0  0  0  0
   23.9638   33.5633    3.2049 H   0  0  0  0  0  0  0  0  0  0  0  0
   23.4276   35.0162    5.1711 H   0  0  0  0  0  0  0  0  0  0  0  0
   22.2594   35.9089    4.1928 H   0  0  0  0  0  0  0  0  0  0  0  0
   24.0810   36.5467    2.5993 H   0  0  0  0  0  0  0  0  0  0  0  0
   25.2491   35.6540    3.5774 H   0  0  0  0  0  0  0  0  0  0  0  0
   24.7132   37.1065    5.5438 H   0  0  0  0  0  0  0  0  0  0  0  0
   23.5450   37.9994    4.5657 H   0  0  0  0  0  0  0  0  0  0  0  0
   25.3656   38.6382    2.9723 H   0  0  0  0  0  0  0  0  0  0  0  0
   26.5343   37.7442    3.9487 H   0  0  0  0  0  0  0  0  0  0  0  0
   26.0019   39.1945    5.9169 H   0  0  0  0  0  0  0  0  0  0  0  0
   24.8315   40.0883    4.9420 H   0  0  0  0  0  0  0  0  0  0  0  0
   26.6485   40.7296    3.3458 H   0  0  0  0  0  0  0  0  0  0  0  0
   27.8195   39.8347    4.3189 H   0  0  0  0  0  0  0  0  0  0  0  0
   27.2905   41.2826    6.2898 H   0  0  0  0  0  0  0  0  0  0  0  0
   26.1180   42.1771    5.3183 H   0  0  0  0  0  0  0  0  0  0  0  0
   27.9317   42.8210    3.7194 H   0  0  0  0  0  0  0  0  0  0  0  0
   29.1049   41.9254    4.6890 H   0  0  0  0  0  0  0  0  0  0  0  0
   28.5792   43.3710    6.6627 H   0  0  0  0  0  0  0  0  0  0  0  0
   27.4043   44.2659    5.6945 H   0  0  0  0  0  0  0  0  0  0  0  0
   29.2164   44.9105    4.0921 H   0  0  0  0  0  0  0  0  0  0  0  0
   30.3909   44.0168    5.0620 H   0  0  0  0  0  0  0  0  0  0  0  0
   29.8626   45.4636    7.0348 H   0  0  0  0  0  0  0  0  0  0  0  0
   28.6880   46.3572    6.0647 H   0  0  0  0  0  0  0  0  0  0  0  0
   30.5004   47.0021    4.4636 H   0  0  0  0  0  0  0  0  0  0  0  0
   31.6751   46.1086    5.4336 H   0  0  0  0  0  0  0  0  0  0  0  0
   31.1465   47.5554    7.4065 H   0  0  0  0  0  0  0  0  0  0  0  0
   29.9719   48.4488    6.4363 H   0  0  0  0  0  0  0  0  0  0  0  0
   31.7852   49.0922    4.8347 H   0  0  0  0  0  0  0  0  0  0  0  0
   32.9593   48.2002    5.8068 H   0  0  0  0  0  0  0  0  0  0  0  0
   32.4284   49.6489    7.7774 H   0  0  0  0  0  0  0  0  0  0  0  0
   31.2543   50.5410    6.8054 H   0  0  0  0  0  0  0  0  0  0  0  0
   33.0671   51.1856    5.2056 H   0  0  0  0  0  0  0  0  0  0  0  0
   34.2417   50.2924    6.1759 H   0  0  0  0  0  0  0  0  0  0  0  0
   33.7131   51.7392    8.1483 H   0  0  0  0  0  0  0  0  0  0  0  0
   32.5387   52.6328    7.1782 H   0  0  0  0  0  0  0  0  0  0  0  0
   34.3507   53.2782    5.5777 H   0  0  0  0  0  0  0  0  0  0  0  0
   35.5256   52.3834    6.5461 H   0  0  0  0  0  0  0  0  0  0  0  0
   34.9991   53.8287    8.5206 H   0  0  0  0  0  0  0  0  0  0  0  0
   33.8241   54.7235    7.5521 H   0  0  0  0  0  0  0  0  0  0  0  0
   35.6366   55.3678    5.9500 H   0  0  0  0  0  0  0  0  0  0  0  0
   36.8112   54.4744    6.9201 H   0  0  0  0  0  0  0  0  0  0  0  0
   36.2837   55.9214    8.8926 H   0  0  0  0  0  0  0  0  0  0  0  0
   35.1074   56.8140    7.9237 H   0  0  0  0  0  0  0  0  0  0  0  0
   36.9186   57.4592    6.3204 H   0  0  0  0  0  0  0  0  0  0  0  0
   38.0946   56.5681    7.2911 H   0  0  0  0  0  0  0  0  0  0  0  0
   37.5660   58.0160    9.2622 H   0  0  0  0  0  0  0  0  0  0  0  0
   36.3882   58.9064    8.2932 H   0  0  0  0  0  0  0  0  0  0  0  0
   38.1960   59.5553    6.6896 H   0  0  0  0  0  0  0  0  0  0  0  0
   39.3743   58.6635    7.6564 H   0  0  0  0  0  0  0  0  0  0  0  0
   38.8467   60.1086    9.6315 H   0  0  0  0  0  0  0  0  0  0  0  0
   37.6700   61.0010    8.6629 H   0  0  0  0  0  0  0  0  0  0  0  0
   39.4809   61.6466    7.0592 H   0  0  0  0  0  0  0  0  0  0  0  0
   40.6572   60.7554    8.0299 H   0  0  0  0  0  0  0  0  0  0  0  0
   40.1285   62.2034   10.0012 H   0  0  0  0  0  0  0  0  0  0  0  0
   38.9508   63.0940    9.0319 H   0  0  0  0  0  0  0  0  0  0  0  0
   40.7591   63.7425    7.4286 H   0  0  0  0  0  0  0  0  0  0  0  0
   41.9374   62.8509    8.3959 H   0  0  0  0  0  0  0  0  0  0  0  0
   41.4104   64.2962   10.3701 H   0  0  0  0  0  0  0  0  0  0  0  0
   40.2324   65.1881    9.4028 H   0  0  0  0  0  0  0  0  0  0  0  0
   42.0398   65.8377    7.7989 H   0  0  0  0  0  0  0  0  0  0  0  0
   43.2186   64.9446    8.7643 H   0  0  0  0  0  0  0  0  0  0  0  0
   42.6954   66.3883   10.7402 H   0  0  0  0  0  0  0  0  0  0  0  0
   41.5152   67.2808    9.7762 H   0  0  0  0  0  0  0  0  0  0  0  0
   43.3210   67.9316    8.1690 H   0  0  0  0  0  0  0  0  0  0  0  0
   44.5008   67.0404    9.1347 H   0  0  0  0  0  0  0  0  0  0  0  0
   43.9739   68.4856   11.1102 H   0  0  0  0  0  0  0  0  0  0  0  0
   42.7956   69.3771   10.1430 H   0  0  0  0  0  0  0  0  0  0  0  0
   44.6049   70.0262    8.5387 H   0  0  0  0  0  0  0  0  0  0  0  0
   45.7827   69.1361    9.5079 H   0  0  0  0  0  0  0  0  0  0  0  0
   45.2549   70.5847   11.4801 H   0  0  0  0  0  0  0  0  0  0  0  0
   44.0771   71.4747   10.5109 H   0  0  0  0  0  0  0  0  0  0  0  0
   45.8878   72.1237    8.9078 H   0  0  0  0  0  0  0  0  0  0  0  0
   47.0652   71.2353    9.8786 H   0  0  0  0  0  0  0  0  0  0  0  0
   46.5374   72.6870   11.8482 H   0  0  0  0  0  0  0  0  0  0  0  0
   45.3586   73.5751   10.8785 H   0  0  0  0  0  0  0  0  0  0  0  0
   47.1691   74.2281    9.2768 H   0  0  0  0  0  0  0  0  0  0  0  0
   48.3473   73.3405   10.2471 H   0  0  0  0  0  0  0  0  0  0  0  0
   47.8222   74.7961   12.2166 H   0  0  0  0  0  0  0  0  0  0  0  0
   46.6427   75.6837   11.2464 H   0  0  0  0  0  0  0  0  0  0  0  0
   48.4539   76.3362    9.6439 H   0  0  0  0  0  0  0  0  0  0  0  0
   49.6320   75.4490   10.6134 H   0  0  0  0  0  0  0  0  0  0  0  0
   49.1246   76.9216   12.5774 H   0  0  0  0  0  0  0  0  0  0  0  0
   47.9463   77.8088   11.6080 H   0  0  0  0  0  0  0  0  0  0  0  0
   50.9401   77.5888   10.9904 H   0  0  0  0  0  0  0  0  0  0  0  0
   50.1181   79.0065   11.6702 H   0  0  0  0  0  0  0  0  0  0  0  0
   49.7558   78.4802   10.0156 H   0  0  0  0  0  0  0  0  0  0  0  0
  1  2  2  0  0  0  0
  2  3  1  0  0  0  0
  2 79  1  0  0  0  0
  3  4  1  0  0  0  0
  3  5  1  0  0  0  0
  4  5  1  0  0  0  0
  4 80  1  0  0  0  0
  4 81  1  0  0  0  0
  5  6  1  0  0  0  0
  5 82  1  0  0  0  0
  6  7  1  0  0  0  0
  6 83  1  0  0  0  0
  6 84  1  0  0  0  0
  7  8  1  0  0  0  0
  7 85  1  0  0  0  0
  7 86  1  0  0  0  0
  8  9  1  0  0  0  0
  8 87  1  0  0  0  0
  8 88  1  0  0  0  0
  9 10  1  0  0  0  0
  9 89  1  0  0  0  0
  9 90  1  0  0  0  0
 10 11  1  0  0  0  0
 10 91  1  0  0  0  0
 10 92  1  0  0  0  0
 11 12  1  0  0  0  0
 11 93  1  0  0  0  0
 11 94  1  0  0  0  0
 12 13  1  0  0  0  0
 12 95  1  0  0  0  0
 12 96  1  0  0  0  0
 13 14  1  0  0  0  0
 13 97  1  0  0  0  0
 13 98  1  0  0  0  0
 14 15  1  0  0  0  0
 14 99  1  0  0  0  0
 14100  1  0  0  0  0
 15 16  1  0  0  0  0
 15101  1  0  0  0  0
 15102  1  0  0  0  0
 16 17  1  0  0  0  0
 16103  1  0  0  0  0
 16104  1  0  0  0  0
 17 18  1  0  0  0  0
 17105  1  0  0  0  0
 17106  1  0  0  0  0
 18 19  1  0  0  0  0
 18107  1  0  0  0  0
 18108  1  0  0  0  0
 19 20  1  0  0  0  0
 19109  1  0  0  0  0
 19110  1  0  0  0  0
 20 21  1  0  0  0  0
 20111  1  0  0  0  0
 20112  1  0  0  0  0
 21 22  1  0  0  0  0
 21113  1  0  0  0  0
 21114  1  0  0  0  0
 22 23  1  0  0  0  0
 22115  1  0  0  0  0
 22116  1  0  0  0  0
 23 24  1  0  0  0  0
 23117  1  0  0  0  0
 23118  1  0  0  0  0
 24 25  1  0  0  0  0
 24119  1  0  0  0  0
 24120  1  0  0  0  0
 25 26  1  0  0  0  0
 25121  1  0  0  0  0
 25122  1  0  0  0  0
 26 27  1  0  0  0  0
 26123  1  0  0  0  0
 26124  1  0  0  0  0
 27 28  1  0  0  0  0
 27125  1  0  0  0  0
 27126  1  0  0  0  0
 28 29  1  0  0  0  0
 28127  1  0  0  0  0
 28128  1  0  0  0  0
 29 30  1  0  0  0  0
 29129  1  0  0  0  0
 29130  1  0  0  0  0
 30 31  1  0  0  0  0
 30131  1  0  0  0  0
 30132  1  0  0  0  0
 31 32  1  0  0  0  0
 31133  1  0  0  0  0
 31134  1  0  0  0  0
 32 33  1  0  0  0  0
 32135  1  0  0  0  0
 32136  1  0  0  0  0
 33 34  1  0  0  0  0
 33137  1  0  0  0  0
 33138  1  0  0  0  0
 34 35  1  0  0  0  0
 34139  1  0  0  0  0
 34140  1  0  0  0  0
 35 36  1  0  0  0  0
 35141  1  0  0  0  0
 35142  1  0  0  0  0
 36 37  1  0  0  0  0
 36143  1  0  0  0  0
 36144  1  0  0  0  0
 37 38  1  0  0  0  0
 37145  1  0  0  0  0
 37146  1  0  0  0  0
 38 39  1  0  0  0  0
 38147  1  0  0  0  0
 38148  1  0  0  0  0
 39 40  1  0  0  0  0
 39149  1  0  0  0  0
 39150  1  0  0  0  0
 40 41  1  0  0  0  0
 40151  1  0  0  0  0
 40152  1  0  0  0  0
 41 42  1  0  0  0  0
 41153  1  0  0  0  0
 41154  1  0  0  0  0
 42 43  1  0  0  0  0
 42155  1  0  0  0  0
 42156  1  0  0  0  0
 43 44  1  0  0  0  0
 43157  1  0  0  0  0
 43158  1  0  0  0  0
 44 45  1  0  0  0  0
 44159  1  0  0  0  0
 44160  1  0  0  0  0
 45 46  1  0  0  0  0
 45161  1  0  0  0  0
 45162  1  0  0  0  0
 46 47  1  0  0  0  0
 46163  1  0  0  0  0
 46164  1  0  0  0  0
 47 48  1  0  0  0  0
 47165  1  0  0  0  0
 47166  1  0  0  0  0
 48 49  1  0  0  0  0
 48167  1  0  0  0  0
 48168  1  0  0  0  0
 49 50  1  0  0  0  0
 49169  1  0  0  0  0
 49170  1  0  0  0  0
 50 51  1  0  0  0  0
 50171  1  0  0  0  0
 50172  1  0  0  0  0
 51 52  1  0  0  0  0
 51173  1  0  0  0  0
 51174  1  0  0  0  0
 52 53  1  0  0  0  0
 52175  1  0  0  0  0
 52176  1  0  0  0  0
 53 54  1  0  0  0  0
 53177  1  0  0  0  0
 53178  1  0  0  0  0
 54 55  1  0  0  0  0
 54179  1  0  0  0  0
 54180  1  0  0  0  0
 55 56  1  0  0  0  0
 55181  1  0  0  0  0
 55182  1  0  0  0  0
 56 57  1  0  0  0  0
 56183  1  0  0  0  0
 56184  1  0  0  0  0
 57 58  1  0  0  0  0
 57185  1  0  0  0  0
 57186  1  0  0  0  0
 58 59  1  0  0  0  0
 58187  1  0  0  0  0
 58188  1  0  0  0  0
 59 60  1  0  0  0  0
 59189  1  0  0  0  0
 59190  1  0  0  0  0
 60 61  1  0  0  0  0
 60191  1  0  0  0  0
 60192  1  0  0  0  0
 61 62  1  0  0  0  0
 61193  1  0  0  0  0
 61194  1  0  0  0  0
 62 63  1  0  0  0  0
 62195  1  0  0  0  0
 62196  1  0  0  0  0
 63 64  1  0  0  0  0
 63197  1  0  0  0  0
 63198  1  0  0  0  0
 64 65  1  0  0  0  0
 64199  1  0  0  0  0
 64200  1  0  0  0  0
 65 66  1  0  0  0  0
 65201  1  0  0  0  0
 65202  1  0  0  0  0
 66 67  1  0  0  0  0
 66203  1  0  0  0  0
 66204  1  0  0  0  0
 67 68  1  0  0  0  0
 67205  1  0  0  0  0
 67206  1  0  0  0  0
 68 69  1  0  0  0  0
 68207  1  0  0  0  0
 68208  1  0  0  0  0
 69 70  1  0  0  0  0
 69209  1  0  0  0  0
 69210  1  0  0  0  0
 70 71  1  0  0  0  0
 70211  1  0  0  0  0
 70212  1  0  0  0  0
 71 72  1  0  0  0  0
 71213  1  0  0  0  0
 71214  1  0  0  0  0
 72 73  1  0  0  0  0
 72215  1  0  0  0  0
 72216  1  0  0  0  0
 73 74  1  0  0  0  0
 73217  1  0  0  0  0
 73218  1  0  0  0  0
 74 75  1  0  0  0  0
 74219  1  0  0  0  0
 74220  1  0  0  0  0
 75 76  1  0  0  0  0
 75221  1  0  0  0  0
 75222  1  0  0  0  0
 76 77  1  0  0  0  0
 76223  1  0  0  0  0
 76224  1  0  0  0  0
 77 78  1  0  0  0  0
 77225  1  0  0  0  0
 77226  1  0  0  0  0
 78227  1  0  0  0  0
 78228  1  0  0  0  0
 78229  1  0  0  0  0
M  END
$$$$
