
 OpenBabel04232217003D

213212  0  0  1  0  0  0  0  0999 V2000
    0.9081   -0.0763    0.0497 O   0  0  0  0  0  0  0  0  0  0  0  0
    2.3418   -0.0543    0.0574 C   0  0  3  0  0  0  0  0  0  0  0  0
    2.8547   -0.2654   -1.3684 C   0  0  0  0  0  0  0  0  0  0  0  0
    2.3874   -1.5191   -1.8628 O   0  0  0  0  0  0  0  0  0  0  0  0
    2.8342    1.2646    0.6357 C   0  0  0  0  0  0  0  0  0  0  0  0
    4.2629    1.2877    0.6519 O   0  0  0  0  0  0  0  0  0  0  0  0
    4.7326    2.5158    1.1860 C   0  0  0  0  0  0  0  0  0  0  0  0
    6.2485    2.4904    1.1767 C   0  0  0  0  0  0  0  0  0  0  0  0
    6.7795    3.7922    1.7501 C   0  0  0  0  0  0  0  0  0  0  0  0
    8.2974    3.7965    1.7550 C   0  0  0  0  0  0  0  0  0  0  0  0
    8.8121    5.1037    2.3329 C   0  0  0  0  0  0  0  0  0  0  0  0
   10.3324    5.1132    2.3424 C   0  0  0  0  0  0  0  0  0  0  0  0
   10.8323    6.4244    2.9241 C   0  0  0  0  0  0  0  0  0  0  0  0
   12.2888    6.4214    2.9255 N   0  0  0  0  0  0  0  0  0  0  0  0
   12.7768    7.6755    3.4840 C   0  0  0  0  0  0  0  0  0  0  0  0
   14.2972    7.6720    3.4858 C   0  0  0  0  0  0  0  0  0  0  0  0
   14.8133    8.9816    4.0671 C   0  0  0  0  0  0  0  0  0  0  0  0
   16.3326    8.9954    4.0786 C   0  0  0  0  0  0  0  0  0  0  0  0
   16.8487   10.3061    4.6583 C   0  0  0  0  0  0  0  0  0  0  0  0
   18.3692   10.3033    4.6603 C   0  0  0  0  0  0  0  0  0  0  0  0
   18.8580   11.5582    5.2163 N   0  0  0  0  0  0  0  0  0  0  0  0
   20.3152   11.5561    5.2165 C   0  0  0  0  0  0  0  0  0  0  0  0
   20.8189   12.8687    5.7968 C   0  0  0  0  0  0  0  0  0  0  0  0
   22.3418   12.8766    5.8037 C   0  0  0  0  0  0  0  0  0  0  0  0
   22.8661   14.1810    6.3821 C   0  0  0  0  0  0  0  0  0  0  0  0
   24.3907   14.1883    6.3882 C   0  0  0  0  0  0  0  0  0  0  0  0
   24.9006   15.5001    6.9676 C   0  0  0  0  0  0  0  0  0  0  0  0
   26.3599   15.5085    6.9762 N   0  0  0  0  0  0  0  0  0  0  0  0
   26.8405   16.7660    7.5327 C   0  0  0  0  0  0  0  0  0  0  0  0
   28.3688   16.7673    7.5352 C   0  0  0  0  0  0  0  0  0  0  0  0
   28.8815   18.0793    8.1150 C   0  0  0  0  0  0  0  0  0  0  0  0
   30.3393   18.0918    8.1282 N   0  0  0  0  0  0  0  0  0  0  0  0
   30.8295   19.3461    8.6799 C   0  0  0  0  0  0  0  0  0  0  0  0
   32.3518   19.3170    8.6700 C   0  0  0  0  0  0  0  0  0  0  0  0
   32.8320   20.5741    9.2282 N   0  0  0  0  0  0  0  0  0  0  0  0
   34.2899   20.5886    9.2425 C   0  0  0  0  0  0  0  0  0  0  0  0
   34.8040   21.9018    9.8183 C   0  0  0  0  0  0  0  0  0  0  0  0
   36.3311   21.8958    9.8142 C   0  0  0  0  0  0  0  0  0  0  0  0
   36.8148   23.1533   10.3612 N   0  0  0  0  0  0  0  0  0  0  0  0
   38.2804   23.1681   10.3750 C   0  0  0  0  0  0  0  0  0  0  0  0
   38.7851   24.4855   10.9642 C   0  0  0  0  0  0  0  0  0  0  0  0
   38.2897   24.6151   12.3339 N   0  0  0  0  0  0  0  0  0  0  0  0
   38.7769   25.8620   12.8719 N   0  0  0  0  0  0  0  0  0  0  0  0
   38.2820   26.0070   14.2440 C   0  0  0  0  0  0  0  0  0  0  0  0
   38.7933   27.3215   14.8256 C   0  0  0  0  0  0  0  0  0  0  0  0
   38.3068   27.4868   16.1979 N   0  0  0  0  0  0  0  0  0  0  0  0
   38.7992   28.7587   16.7650 C   0  0  0  0  0  0  0  0  0  0  0  0
   38.3022   28.9558   18.2097 C   0  0  0  0  0  0  0  0  0  0  0  0
   38.8022   30.2269   18.7701 N   0  0  0  0  0  0  0  0  0  0  0  0
   38.3136   30.3677   20.1152 N   0  0  0  0  0  0  0  0  0  0  0  0
   38.8229   31.6292   20.6322 C   0  0  0  0  0  0  0  0  0  0  0  0
   38.3106   31.7828   22.0597 C   0  0  0  0  0  0  0  0  0  0  0  0
   38.7998   33.0446   22.6101 N   0  0  0  0  0  0  0  0  0  0  0  0
   38.3220   33.2177   23.9836 C   0  0  0  0  0  0  0  0  0  0  0  0
   38.8322   34.5364   24.5756 C   0  0  0  0  0  0  0  0  0  0  0  0
   38.3346   34.6797   25.9493 N   0  0  0  0  0  0  0  0  0  0  0  0
   38.8257   35.9261   26.4908 N   0  0  0  0  0  0  0  0  0  0  0  0
   38.3302   36.0644   27.8644 C   0  0  0  0  0  0  0  0  0  0  0  0
   38.8544   37.3832   28.4205 C   0  0  0  0  0  0  0  0  0  0  0  0
   38.3782   37.5536   29.7842 N   0  0  0  0  0  0  0  0  0  0  0  0
   38.8637   38.8097   30.3495 C   0  0  0  0  0  0  0  0  0  0  0  0
   38.3457   38.9509   31.7762 C   0  0  0  0  0  0  0  0  0  0  0  0
   38.8314   40.2085   32.3407 N   0  0  0  0  0  0  0  0  0  0  0  0
   38.3506   40.3720   33.7100 C   0  0  0  0  0  0  0  0  0  0  0  0
   38.8700   41.6916   34.2793 C   0  0  0  0  0  0  0  0  0  0  0  0
   38.3771   41.8345   35.6465 N   0  0  0  0  0  0  0  0  0  0  0  0
   38.8742   43.0763   36.1635 N   0  0  0  0  0  0  0  0  0  0  0  0
   38.3790   43.2254   37.5410 C   0  0  0  0  0  0  0  0  0  0  0  0
   38.8879   44.5449   38.1322 C   0  0  0  0  0  0  0  0  0  0  0  0
   38.4044   44.7121   39.5100 N   0  0  0  0  0  0  0  0  0  0  0  0
   38.8967   45.9717   40.0648 C   0  0  0  0  0  0  0  0  0  0  0  0
   38.3858   46.1315   41.4926 C   0  0  0  0  0  0  0  0  0  0  0  0
   38.8751   47.3910   42.0524 N   0  0  0  0  0  0  0  0  0  0  0  0
   38.3923   47.5497   43.4178 C   0  0  0  0  0  0  0  0  0  0  0  0
   38.9073   48.8635   43.9896 C   0  0  0  0  0  0  0  0  0  0  0  0
   38.4090   49.0390   45.4198 C   0  0  0  0  0  0  0  0  0  0  0  0
   38.9164   50.3482   46.0067 C   0  0  0  0  0  0  0  0  0  0  0  0
   38.4182   50.5287   47.4357 C   0  0  0  0  0  0  0  0  0  0  0  0
   38.9267   51.8348   48.0173 C   0  0  0  0  0  0  0  0  0  0  0  0
    0.7131   -0.8405   -0.5315 H   0  0  0  0  0  0  0  0  0  0  0  0
    2.6705   -0.8890    0.6870 H   0  0  0  0  0  0  0  0  0  0  0  0
    3.9494   -0.2572   -1.4082 H   0  0  0  0  0  0  0  0  0  0  0  0
    2.4783    0.5133   -2.0399 H   0  0  0  0  0  0  0  0  0  0  0  0
    2.7742   -2.2165   -1.3057 H   0  0  0  0  0  0  0  0  0  0  0  0
    2.4524    1.3877    1.6563 H   0  0  0  0  0  0  0  0  0  0  0  0
    2.4552    2.1031    0.0378 H   0  0  0  0  0  0  0  0  0  0  0  0
    4.3629    2.6302    2.2105 H   0  0  0  0  0  0  0  0  0  0  0  0
    4.3668    3.3479    0.5738 H   0  0  0  0  0  0  0  0  0  0  0  0
    6.6149    2.3392    0.1536 H   0  0  0  0  0  0  0  0  0  0  0  0
    6.6117    1.6336    1.7579 H   0  0  0  0  0  0  0  0  0  0  0  0
    6.4044    3.9266    2.7723 H   0  0  0  0  0  0  0  0  0  0  0  0
    6.4077    4.6373    1.1570 H   0  0  0  0  0  0  0  0  0  0  0  0
    8.6740    3.6667    0.7330 H   0  0  0  0  0  0  0  0  0  0  0  0
    8.6706    2.9534    2.3497 H   0  0  0  0  0  0  0  0  0  0  0  0
    8.4312    5.2358    3.3539 H   0  0  0  0  0  0  0  0  0  0  0  0
    8.4373    5.9470    1.7384 H   0  0  0  0  0  0  0  0  0  0  0  0
   10.7087    4.9825    1.3198 H   0  0  0  0  0  0  0  0  0  0  0  0
   10.7044    4.2691    2.9369 H   0  0  0  0  0  0  0  0  0  0  0  0
   10.4544    6.5372    3.9474 H   0  0  0  0  0  0  0  0  0  0  0  0
   10.4529    7.2620    2.3261 H   0  0  0  0  0  0  0  0  0  0  0  0
   12.6333    6.3039    1.9723 H   0  0  0  0  0  0  0  0  0  0  0  0
   12.4134    7.7948    4.5118 H   0  0  0  0  0  0  0  0  0  0  0  0
   12.4110    8.5242    2.8932 H   0  0  0  0  0  0  0  0  0  0  0  0
   14.6774    7.5451    2.4642 H   0  0  0  0  0  0  0  0  0  0  0  0
   14.6721    6.8290    4.0799 H   0  0  0  0  0  0  0  0  0  0  0  0
   14.4335    9.1111    5.0881 H   0  0  0  0  0  0  0  0  0  0  0  0
   14.4393    9.8248    3.4733 H   0  0  0  0  0  0  0  0  0  0  0  0
   16.7125    8.8644    3.0578 H   0  0  0  0  0  0  0  0  0  0  0  0
   16.7066    8.1530    4.6736 H   0  0  0  0  0  0  0  0  0  0  0  0
   16.4682   10.4346    5.6793 H   0  0  0  0  0  0  0  0  0  0  0  0
   16.4739   11.1480    4.0623 H   0  0  0  0  0  0  0  0  0  0  0  0
   18.7323   10.1820    3.6327 H   0  0  0  0  0  0  0  0  0  0  0  0
   18.7354    9.4526    5.2531 H   0  0  0  0  0  0  0  0  0  0  0  0
   18.5179   11.6777    6.1701 H   0  0  0  0  0  0  0  0  0  0  0  0
   20.6914   11.4422    4.1930 H   0  0  0  0  0  0  0  0  0  0  0  0
   20.6948   10.7192    5.8150 H   0  0  0  0  0  0  0  0  0  0  0  0
   20.4432   13.0003    6.8196 H   0  0  0  0  0  0  0  0  0  0  0  0
   20.4454   13.7119    5.2022 H   0  0  0  0  0  0  0  0  0  0  0  0
   22.7182   12.7461    4.7816 H   0  0  0  0  0  0  0  0  0  0  0  0
   22.7143   12.0319    6.3963 H   0  0  0  0  0  0  0  0  0  0  0  0
   22.4883   14.3108    7.4039 H   0  0  0  0  0  0  0  0  0  0  0  0
   22.4919   15.0251    5.7897 H   0  0  0  0  0  0  0  0  0  0  0  0
   24.7643   14.0555    5.3652 H   0  0  0  0  0  0  0  0  0  0  0  0
   24.7611   13.3437    6.9830 H   0  0  0  0  0  0  0  0  0  0  0  0
   24.5218   15.6104    7.9914 H   0  0  0  0  0  0  0  0  0  0  0  0
   24.5154   16.3375    6.3732 H   0  0  0  0  0  0  0  0  0  0  0  0
   26.7278   15.4086    6.0308 H   0  0  0  0  0  0  0  0  0  0  0  0
   26.4723   16.8903    8.5572 H   0  0  0  0  0  0  0  0  0  0  0  0
   26.4762   17.6089    6.9324 H   0  0  0  0  0  0  0  0  0  0  0  0
   28.7449   16.6344    6.5113 H   0  0  0  0  0  0  0  0  0  0  0  0
   28.7402   15.9204    8.1283 H   0  0  0  0  0  0  0  0  0  0  0  0
   28.4995   18.1933    9.1372 H   0  0  0  0  0  0  0  0  0  0  0  0
   28.4999   18.9163    7.5156 H   0  0  0  0  0  0  0  0  0  0  0  0
   30.6992   17.9707    7.1792 H   0  0  0  0  0  0  0  0  0  0  0  0
   30.4632   19.4677    9.7058 H   0  0  0  0  0  0  0  0  0  0  0  0
   30.4669   20.1956    8.0839 H   0  0  0  0  0  0  0  0  0  0  0  0
   32.7210   19.1893    7.6464 H   0  0  0  0  0  0  0  0  0  0  0  0
   32.7106   18.4732    9.2742 H   0  0  0  0  0  0  0  0  0  0  0  0
   32.4513   20.6615   10.1694 H   0  0  0  0  0  0  0  0  0  0  0  0
   34.6703   20.4764    8.2188 H   0  0  0  0  0  0  0  0  0  0  0  0
   34.6753   19.7513    9.8368 H   0  0  0  0  0  0  0  0  0  0  0  0
   34.4280   22.0349   10.8411 H   0  0  0  0  0  0  0  0  0  0  0  0
   34.4326   22.7457    9.2222 H   0  0  0  0  0  0  0  0  0  0  0  0
   36.6981   21.7718    8.7898 H   0  0  0  0  0  0  0  0  0  0  0  0
   36.6968   21.0567   10.4183 H   0  0  0  0  0  0  0  0  0  0  0  0
   36.4588   23.2680   11.3100 H   0  0  0  0  0  0  0  0  0  0  0  0
   38.6650   23.0599    9.3526 H   0  0  0  0  0  0  0  0  0  0  0  0
   38.6619   22.3309   10.9720 H   0  0  0  0  0  0  0  0  0  0  0  0
   38.4374   25.3234   10.3454 H   0  0  0  0  0  0  0  0  0  0  0  0
   39.8832   24.4914   10.9530 H   0  0  0  0  0  0  0  0  0  0  0  0
   38.6362   23.8218   12.8855 H   0  0  0  0  0  0  0  0  0  0  0  0
   38.4361   26.6549   12.3189 H   0  0  0  0  0  0  0  0  0  0  0  0
   38.6387   25.1728   14.8618 H   0  0  0  0  0  0  0  0  0  0  0  0
   37.1843   25.9956   14.2576 H   0  0  0  0  0  0  0  0  0  0  0  0
   38.4373   28.1571   14.2090 H   0  0  0  0  0  0  0  0  0  0  0  0
   39.8904   27.3356   14.8098 H   0  0  0  0  0  0  0  0  0  0  0  0
   38.6335   26.7276   16.7991 H   0  0  0  0  0  0  0  0  0  0  0  0
   38.4549   29.5967   16.1469 H   0  0  0  0  0  0  0  0  0  0  0  0
   39.8969   28.7627   16.7601 H   0  0  0  0  0  0  0  0  0  0  0  0
   38.6573   28.1179   18.8241 H   0  0  0  0  0  0  0  0  0  0  0  0
   37.2046   28.9403   18.2213 H   0  0  0  0  0  0  0  0  0  0  0  0
   38.4431   30.9937   18.1998 H   0  0  0  0  0  0  0  0  0  0  0  0
   38.6732   29.6091   20.6982 H   0  0  0  0  0  0  0  0  0  0  0  0
   38.4692   32.4659   20.0160 H   0  0  0  0  0  0  0  0  0  0  0  0
   39.9208   31.6374   20.6237 H   0  0  0  0  0  0  0  0  0  0  0  0
   38.6566   30.9413   22.6746 H   0  0  0  0  0  0  0  0  0  0  0  0
   37.2123   31.7748   22.0587 H   0  0  0  0  0  0  0  0  0  0  0  0
   38.4739   33.7892   21.9923 H   0  0  0  0  0  0  0  0  0  0  0  0
   38.6820   32.3840   24.6004 H   0  0  0  0  0  0  0  0  0  0  0  0
   37.2251   33.2012   24.0045 H   0  0  0  0  0  0  0  0  0  0  0  0
   38.4749   35.3688   23.9566 H   0  0  0  0  0  0  0  0  0  0  0  0
   39.9299   34.5465   24.5607 H   0  0  0  0  0  0  0  0  0  0  0  0
   38.6826   33.8918   26.5062 H   0  0  0  0  0  0  0  0  0  0  0  0
   38.4677   36.7280   25.9632 H   0  0  0  0  0  0  0  0  0  0  0  0
   38.6824   35.2270   28.4794 H   0  0  0  0  0  0  0  0  0  0  0  0
   37.2321   36.0591   27.8709 H   0  0  0  0  0  0  0  0  0  0  0  0
   38.4967   38.2132   27.7975 H   0  0  0  0  0  0  0  0  0  0  0  0
   39.9513   37.3869   28.3956 H   0  0  0  0  0  0  0  0  0  0  0  0
   38.6839   36.7724   30.3726 H   0  0  0  0  0  0  0  0  0  0  0  0
   38.5085   39.6496   29.7391 H   0  0  0  0  0  0  0  0  0  0  0  0
   39.9604   38.8234   30.3463 H   0  0  0  0  0  0  0  0  0  0  0  0
   38.7004   38.1099   32.3844 H   0  0  0  0  0  0  0  0  0  0  0  0
   37.2486   38.9356   31.7778 H   0  0  0  0  0  0  0  0  0  0  0  0
   38.4990   40.9845   31.7732 H   0  0  0  0  0  0  0  0  0  0  0  0
   38.7072   39.5406   34.3292 H   0  0  0  0  0  0  0  0  0  0  0  0
   37.2539   40.3684   33.7276 H   0  0  0  0  0  0  0  0  0  0  0  0
   38.5135   42.5255   33.6601 H   0  0  0  0  0  0  0  0  0  0  0  0
   39.9679   41.7021   34.2629 H   0  0  0  0  0  0  0  0  0  0  0  0
   38.7204   41.0582   36.2235 H   0  0  0  0  0  0  0  0  0  0  0  0
   38.5336   43.8670   35.6063 H   0  0  0  0  0  0  0  0  0  0  0  0
   38.7303   42.3905   38.1617 H   0  0  0  0  0  0  0  0  0  0  0  0
   37.2810   43.2181   37.5544 H   0  0  0  0  0  0  0  0  0  0  0  0
   38.5391   45.3818   37.5160 H   0  0  0  0  0  0  0  0  0  0  0  0
   39.9854   44.5481   38.1236 H   0  0  0  0  0  0  0  0  0  0  0  0
   38.7286   43.9181   40.0622 H   0  0  0  0  0  0  0  0  0  0  0  0
   38.5389   46.8103   39.4542 H   0  0  0  0  0  0  0  0  0  0  0  0
   39.9936   45.9894   40.0579 H   0  0  0  0  0  0  0  0  0  0  0  0
   38.7395   45.2927   42.1051 H   0  0  0  0  0  0  0  0  0  0  0  0
   37.2885   46.1185   41.4986 H   0  0  0  0  0  0  0  0  0  0  0  0
   38.5584   48.1761   41.4809 H   0  0  0  0  0  0  0  0  0  0  0  0
   38.7471   46.7194   44.0403 H   0  0  0  0  0  0  0  0  0  0  0  0
   37.2957   47.5459   43.4369 H   0  0  0  0  0  0  0  0  0  0  0  0
   38.5648   49.7047   43.3735 H   0  0  0  0  0  0  0  0  0  0  0  0
   40.0045   48.8761   43.9755 H   0  0  0  0  0  0  0  0  0  0  0  0
   38.7505   48.1986   46.0365 H   0  0  0  0  0  0  0  0  0  0  0  0
   37.3121   49.0259   45.4339 H   0  0  0  0  0  0  0  0  0  0  0  0
   38.5762   51.1867   45.3863 H   0  0  0  0  0  0  0  0  0  0  0  0
   40.0131   50.3586   45.9915 H   0  0  0  0  0  0  0  0  0  0  0  0
   38.7585   49.6933   48.0587 H   0  0  0  0  0  0  0  0  0  0  0  0
   37.3221   50.5223   47.4534 H   0  0  0  0  0  0  0  0  0  0  0  0
   40.0217   51.8522   48.0310 H   0  0  0  0  0  0  0  0  0  0  0  0
   38.5675   51.9603   49.0416 H   0  0  0  0  0  0  0  0  0  0  0  0
   38.5780   52.6853   47.4225 H   0  0  0  0  0  0  0  0  0  0  0  0
  1  2  1  0  0  0  0
  1 80  1  0  0  0  0
  2  3  1  0  0  0  0
  2  5  1  0  0  0  0
  2 81  1  0  0  0  0
  3  4  1  0  0  0  0
  3 82  1  0  0  0  0
  3 83  1  0  0  0  0
  4 84  1  0  0  0  0
  5  6  1  0  0  0  0
  5 85  1  0  0  0  0
  5 86  1  0  0  0  0
  6  7  1  0  0  0  0
  7  8  1  0  0  0  0
  7 87  1  0  0  0  0
  7 88  1  0  0  0  0
  8  9  1  0  0  0  0
  8 89  1  0  0  0  0
  8 90  1  0  0  0  0
  9 10  1  0  0  0  0
  9 91  1  0  0  0  0
  9 92  1  0  0  0  0
 10 11  1  0  0  0  0
 10 93  1  0  0  0  0
 10 94  1  0  0  0  0
 11 12  1  0  0  0  0
 11 95  1  0  0  0  0
 11 96  1  0  0  0  0
 12 13  1  0  0  0  0
 12 97  1  0  0  0  0
 12 98  1  0  0  0  0
 13 14  1  0  0  0  0
 13 99  1  0  0  0  0
 13100  1  0  0  0  0
 14 15  1  0  0  0  0
 14101  1  0  0  0  0
 15 16  1  0  0  0  0
 15102  1  0  0  0  0
 15103  1  0  0  0  0
 16 17  1  0  0  0  0
 16104  1  0  0  0  0
 16105  1  0  0  0  0
 17 18  1  0  0  0  0
 17106  1  0  0  0  0
 17107  1  0  0  0  0
 18 19  1  0  0  0  0
 18108  1  0  0  0  0
 18109  1  0  0  0  0
 19 20  1  0  0  0  0
 19110  1  0  0  0  0
 19111  1  0  0  0  0
 20 21  1  0  0  0  0
 20112  1  0  0  0  0
 20113  1  0  0  0  0
 21 22  1  0  0  0  0
 21114  1  0  0  0  0
 22 23  1  0  0  0  0
 22115  1  0  0  0  0
 22116  1  0  0  0  0
 23 24  1  0  0  0  0
 23117  1  0  0  0  0
 23118  1  0  0  0  0
 24 25  1  0  0  0  0
 24119  1  0  0  0  0
 24120  1  0  0  0  0
 25 26  1  0  0  0  0
 25121  1  0  0  0  0
 25122  1  0  0  0  0
 26 27  1  0  0  0  0
 26123  1  0  0  0  0
 26124  1  0  0  0  0
 27 28  1  0  0  0  0
 27125  1  0  0  0  0
 27126  1  0  0  0  0
 28 29  1  0  0  0  0
 28127  1  0  0  0  0
 29 30  1  0  0  0  0
 29128  1  0  0  0  0
 29129  1  0  0  0  0
 30 31  1  0  0  0  0
 30130  1  0  0  0  0
 30131  1  0  0  0  0
 31 32  1  0  0  0  0
 31132  1  0  0  0  0
 31133  1  0  0  0  0
 32 33  1  0  0  0  0
 32134  1  0  0  0  0
 33 34  1  0  0  0  0
 33135  1  0  0  0  0
 33136  1  0  0  0  0
 34 35  1  0  0  0  0
 34137  1  0  0  0  0
 34138  1  0  0  0  0
 35 36  1  0  0  0  0
 35139  1  0  0  0  0
 36 37  1  0  0  0  0
 36140  1  0  0  0  0
 36141  1  0  0  0  0
 37 38  1  0  0  0  0
 37142  1  0  0  0  0
 37143  1  0  0  0  0
 38 39  1  0  0  0  0
 38144  1  0  0  0  0
 38145  1  0  0  0  0
 39 40  1  0  0  0  0
 39146  1  0  0  0  0
 40 41  1  0  0  0  0
 40147  1  0  0  0  0
 40148  1  0  0  0  0
 41 42  1  0  0  0  0
 41149  1  0  0  0  0
 41150  1  0  0  0  0
 42 43  1  0  0  0  0
 42151  1  0  0  0  0
 43 44  1  0  0  0  0
 43152  1  0  0  0  0
 44 45  1  0  0  0  0
 44153  1  0  0  0  0
 44154  1  0  0  0  0
 45 46  1  0  0  0  0
 45155  1  0  0  0  0
 45156  1  0  0  0  0
 46 47  1  0  0  0  0
 46157  1  0  0  0  0
 47 48  1  0  0  0  0
 47158  1  0  0  0  0
 47159  1  0  0  0  0
 48 49  1  0  0  0  0
 48160  1  0  0  0  0
 48161  1  0  0  0  0
 49 50  1  0  0  0  0
 49162  1  0  0  0  0
 50 51  1  0  0  0  0
 50163  1  0  0  0  0
 51 52  1  0  0  0  0
 51164  1  0  0  0  0
 51165  1  0  0  0  0
 52 53  1  0  0  0  0
 52166  1  0  0  0  0
 52167  1  0  0  0  0
 53 54  1  0  0  0  0
 53168  1  0  0  0  0
 54 55  1  0  0  0  0
 54169  1  0  0  0  0
 54170  1  0  0  0  0
 55 56  1  0  0  0  0
 55171  1  0  0  0  0
 55172  1  0  0  0  0
 56 57  1  0  0  0  0
 56173  1  0  0  0  0
 57 58  1  0  0  0  0
 57174  1  0  0  0  0
 58 59  1  0  0  0  0
 58175  1  0  0  0  0
 58176  1  0  0  0  0
 59 60  1  0  0  0  0
 59177  1  0  0  0  0
 59178  1  0  0  0  0
 60 61  1  0  0  0  0
 60179  1  0  0  0  0
 61 62  1  0  0  0  0
 61180  1  0  0  0  0
 61181  1  0  0  0  0
 62 63  1  0  0  0  0
 62182  1  0  0  0  0
 62183  1  0  0  0  0
 63 64  1  0  0  0  0
 63184  1  0  0  0  0
 64 65  1  0  0  0  0
 64185  1  0  0  0  0
 64186  1  0  0  0  0
 65 66  1  0  0  0  0
 65187  1  0  0  0  0
 65188  1  0  0  0  0
 66 67  1  0  0  0  0
 66189  1  0  0  0  0
 67 68  1  0  0  0  0
 67190  1  0  0  0  0
 68 69  1  0  0  0  0
 68191  1  0  0  0  0
 68192  1  0  0  0  0
 69 70  1  0  0  0  0
 69193  1  0  0  0  0
 69194  1  0  0  0  0
 70 71  1  0  0  0  0
 70195  1  0  0  0  0
 71 72  1  0  0  0  0
 71196  1  0  0  0  0
 71197  1  0  0  0  0
 72 73  1  0  0  0  0
 72198  1  0  0  0  0
 72199  1  0  0  0  0
 73 74  1  0  0  0  0
 73200  1  0  0  0  0
 74 75  1  0  0  0  0
 74201  1  0  0  0  0
 74202  1  0  0  0  0
 75 76  1  0  0  0  0
 75203  1  0  0  0  0
 75204  1  0  0  0  0
 76 77  1  0  0  0  0
 76205  1  0  0  0  0
 76206  1  0  0  0  0
 77 78  1  0  0  0  0
 77207  1  0  0  0  0
 77208  1  0  0  0  0
 78 79  1  0  0  0  0
 78209  1  0  0  0  0
 78210  1  0  0  0  0
 79211  1  0  0  0  0
 79212  1  0  0  0  0
 79213  1  0  0  0  0
M  END
$$$$
