
 OpenBabel04232216593D

230229  0  0  0  0  0  0  0  0999 V2000
    2.8199   -1.5797   -1.9676 O   0  0  0  0  0  0  0  0  0  0  0  0
    2.2854   -0.5873   -1.4599 C   0  0  0  0  0  0  0  0  0  0  0  0
    0.7987   -0.4647   -1.3453 C   0  0  0  0  0  0  0  0  0  0  0  0
    3.0155    0.4864   -1.0144 N   0  0  0  0  0  0  0  0  0  0  0  0
    4.4439    0.4894   -1.0462 N   0  0  0  0  0  0  0  0  0  0  0  0
    4.9311    1.0729   -2.3057 C   0  0  0  0  0  0  0  0  0  0  0  0
    6.4586    1.0757   -2.3206 C   0  0  0  0  0  0  0  0  0  0  0  0
    6.9799    1.6835   -3.6184 C   0  0  0  0  0  0  0  0  0  0  0  0
    8.5008    1.6870   -3.6307 C   0  0  0  0  0  0  0  0  0  0  0  0
    9.0147    2.2930   -4.9260 C   0  0  0  0  0  0  0  0  0  0  0  0
   10.5332    2.2923   -4.9342 C   0  0  0  0  0  0  0  0  0  0  0  0
   11.0450    2.8961   -6.2293 C   0  0  0  0  0  0  0  0  0  0  0  0
   12.5619    2.8965   -6.2350 C   0  0  0  0  0  0  0  0  0  0  0  0
   13.0724    3.5018   -7.5288 C   0  0  0  0  0  0  0  0  0  0  0  0
   14.5892    3.5040   -7.5335 C   0  0  0  0  0  0  0  0  0  0  0  0
   15.0993    4.1093   -8.8272 C   0  0  0  0  0  0  0  0  0  0  0  0
   16.6159    4.1132   -8.8307 C   0  0  0  0  0  0  0  0  0  0  0  0
   17.1262    4.7203  -10.1235 C   0  0  0  0  0  0  0  0  0  0  0  0
   18.6427    4.7261  -10.1262 C   0  0  0  0  0  0  0  0  0  0  0  0
   19.1528    5.3350  -11.4181 C   0  0  0  0  0  0  0  0  0  0  0  0
   20.6694    5.3387  -11.4216 C   0  0  0  0  0  0  0  0  0  0  0  0
   21.1793    5.9460  -12.7144 C   0  0  0  0  0  0  0  0  0  0  0  0
   22.6960    5.9516  -12.7170 C   0  0  0  0  0  0  0  0  0  0  0  0
   23.2060    6.5605  -14.0091 C   0  0  0  0  0  0  0  0  0  0  0  0
   24.7227    6.5680  -14.0108 C   0  0  0  0  0  0  0  0  0  0  0  0
   25.2326    7.1771  -15.3029 C   0  0  0  0  0  0  0  0  0  0  0  0
   26.7493    7.1828  -15.3053 C   0  0  0  0  0  0  0  0  0  0  0  0
   27.2594    7.7918  -16.5973 C   0  0  0  0  0  0  0  0  0  0  0  0
   28.7761    7.7974  -16.5998 C   0  0  0  0  0  0  0  0  0  0  0  0
   29.2859    8.4065  -17.8920 C   0  0  0  0  0  0  0  0  0  0  0  0
   30.8027    8.4103  -17.8953 C   0  0  0  0  0  0  0  0  0  0  0  0
   31.3127    9.0190  -19.1874 C   0  0  0  0  0  0  0  0  0  0  0  0
   32.8293    9.0231  -19.1908 C   0  0  0  0  0  0  0  0  0  0  0  0
   33.3393    9.6321  -20.4828 C   0  0  0  0  0  0  0  0  0  0  0  0
   34.8559    9.6376  -20.4855 C   0  0  0  0  0  0  0  0  0  0  0  0
   35.3660   10.2448  -21.7782 C   0  0  0  0  0  0  0  0  0  0  0  0
   36.8826   10.2487  -21.7817 C   0  0  0  0  0  0  0  0  0  0  0  0
   37.3926   10.8575  -23.0738 C   0  0  0  0  0  0  0  0  0  0  0  0
   38.9093   10.8597  -23.0780 C   0  0  0  0  0  0  0  0  0  0  0  0
   39.4193   11.4668  -24.3708 C   0  0  0  0  0  0  0  0  0  0  0  0
   40.9360   11.4688  -24.3750 C   0  0  0  0  0  0  0  0  0  0  0  0
   41.4459   12.0760  -25.6681 C   0  0  0  0  0  0  0  0  0  0  0  0
   42.9627   12.0778  -25.6722 C   0  0  0  0  0  0  0  0  0  0  0  0
   43.4725   12.6851  -26.9653 C   0  0  0  0  0  0  0  0  0  0  0  0
   44.9894   12.6871  -26.9693 C   0  0  0  0  0  0  0  0  0  0  0  0
   45.4993   13.2942  -28.2623 C   0  0  0  0  0  0  0  0  0  0  0  0
   47.0159   13.2963  -28.2666 C   0  0  0  0  0  0  0  0  0  0  0  0
   47.5259   13.9032  -29.5596 C   0  0  0  0  0  0  0  0  0  0  0  0
   49.0426   13.9036  -29.5646 C   0  0  0  0  0  0  0  0  0  0  0  0
   49.5526   14.5090  -30.8584 C   0  0  0  0  0  0  0  0  0  0  0  0
   51.0693   14.5107  -30.8626 C   0  0  0  0  0  0  0  0  0  0  0  0
   51.5793   15.1161  -32.1564 C   0  0  0  0  0  0  0  0  0  0  0  0
   53.0959   15.1199  -32.1599 C   0  0  0  0  0  0  0  0  0  0  0  0
   53.6059   15.7234  -33.4545 C   0  0  0  0  0  0  0  0  0  0  0  0
   55.1226   15.7291  -33.4571 C   0  0  0  0  0  0  0  0  0  0  0  0
   55.6325   16.3326  -34.7517 C   0  0  0  0  0  0  0  0  0  0  0  0
   57.1492   16.3401  -34.7534 C   0  0  0  0  0  0  0  0  0  0  0  0
   57.6591   16.9436  -36.0481 C   0  0  0  0  0  0  0  0  0  0  0  0
   59.1760   16.9510  -36.0495 C   0  0  0  0  0  0  0  0  0  0  0  0
   59.6858   17.5547  -37.3443 C   0  0  0  0  0  0  0  0  0  0  0  0
   61.2026   17.5620  -37.3459 C   0  0  0  0  0  0  0  0  0  0  0  0
   61.7124   18.1657  -38.6407 C   0  0  0  0  0  0  0  0  0  0  0  0
   63.2292   18.1730  -38.6422 C   0  0  0  0  0  0  0  0  0  0  0  0
   63.7392   18.7765  -39.9369 C   0  0  0  0  0  0  0  0  0  0  0  0
   65.2559   18.7840  -39.9386 C   0  0  0  0  0  0  0  0  0  0  0  0
   65.7659   19.3876  -41.2332 C   0  0  0  0  0  0  0  0  0  0  0  0
   67.2825   19.3969  -41.2341 C   0  0  0  0  0  0  0  0  0  0  0  0
   67.7925   20.0003  -42.5286 C   0  0  0  0  0  0  0  0  0  0  0  0
   69.3090   20.0097  -42.5296 C   0  0  0  0  0  0  0  0  0  0  0  0
   69.8193   20.6132  -43.8241 C   0  0  0  0  0  0  0  0  0  0  0  0
   71.3360   20.6227  -43.8253 C   0  0  0  0  0  0  0  0  0  0  0  0
   71.8462   21.2261  -45.1198 C   0  0  0  0  0  0  0  0  0  0  0  0
   73.3633   21.2376  -45.1205 C   0  0  0  0  0  0  0  0  0  0  0  0
   73.8753   21.8412  -46.4154 C   0  0  0  0  0  0  0  0  0  0  0  0
   75.3941   21.8529  -46.4165 C   0  0  0  0  0  0  0  0  0  0  0  0
   75.9094   22.4586  -47.7110 C   0  0  0  0  0  0  0  0  0  0  0  0
   77.4305   22.4762  -47.7201 C   0  0  0  0  0  0  0  0  0  0  0  0
   77.9410   23.0811  -49.0129 C   0  0  0  0  0  0  0  0  0  0  0  0
    0.3275   -1.3750   -1.7281 H   0  0  0  0  0  0  0  0  0  0  0  0
    0.4234    0.3828   -1.9290 H   0  0  0  0  0  0  0  0  0  0  0  0
    0.5108   -0.3510   -0.2953 H   0  0  0  0  0  0  0  0  0  0  0  0
    2.5447    1.2313   -0.5147 H   0  0  0  0  0  0  0  0  0  0  0  0
    4.7793   -0.4849   -1.0024 H   0  0  0  0  0  0  0  0  0  0  0  0
    4.5673    2.1018   -2.4062 H   0  0  0  0  0  0  0  0  0  0  0  0
    4.5632    0.4972   -3.1638 H   0  0  0  0  0  0  0  0  0  0  0  0
    6.8414    0.0519   -2.2206 H   0  0  0  0  0  0  0  0  0  0  0  0
    6.8447    1.6506   -1.4686 H   0  0  0  0  0  0  0  0  0  0  0  0
    6.6084    2.7099   -3.7273 H   0  0  0  0  0  0  0  0  0  0  0  0
    6.6062    1.1111   -4.4763 H   0  0  0  0  0  0  0  0  0  0  0  0
    8.8784    0.6624   -3.5263 H   0  0  0  0  0  0  0  0  0  0  0  0
    8.8806    2.2618   -2.7772 H   0  0  0  0  0  0  0  0  0  0  0  0
    8.6431    3.3195   -5.0327 H   0  0  0  0  0  0  0  0  0  0  0  0
    8.6384    1.7206   -5.7827 H   0  0  0  0  0  0  0  0  0  0  0  0
   10.9077    1.2667   -4.8278 H   0  0  0  0  0  0  0  0  0  0  0  0
   10.9123    2.8669   -4.0799 H   0  0  0  0  0  0  0  0  0  0  0  0
   10.6708    3.9216   -6.3371 H   0  0  0  0  0  0  0  0  0  0  0  0
   10.6684    2.3211   -7.0842 H   0  0  0  0  0  0  0  0  0  0  0  0
   12.9368    1.8711   -6.1290 H   0  0  0  0  0  0  0  0  0  0  0  0
   12.9391    3.4705   -5.3798 H   0  0  0  0  0  0  0  0  0  0  0  0
   12.6969    4.5271   -7.6360 H   0  0  0  0  0  0  0  0  0  0  0  0
   12.6968    2.9272   -8.3846 H   0  0  0  0  0  0  0  0  0  0  0  0
   14.9650    2.4790   -7.4266 H   0  0  0  0  0  0  0  0  0  0  0  0
   14.9649    4.0789   -6.6781 H   0  0  0  0  0  0  0  0  0  0  0  0
   14.7226    5.1340   -8.9348 H   0  0  0  0  0  0  0  0  0  0  0  0
   14.7249    3.5337   -9.6827 H   0  0  0  0  0  0  0  0  0  0  0  0
   16.9929    3.0885   -8.7245 H   0  0  0  0  0  0  0  0  0  0  0  0
   16.9905    4.6877   -7.9744 H   0  0  0  0  0  0  0  0  0  0  0  0
   16.7481    5.7446  -10.2304 H   0  0  0  0  0  0  0  0  0  0  0  0
   16.7527    4.1451  -10.9797 H   0  0  0  0  0  0  0  0  0  0  0  0
   19.0207    3.7016  -10.0206 H   0  0  0  0  0  0  0  0  0  0  0  0
   19.0161    5.3001   -9.2692 H   0  0  0  0  0  0  0  0  0  0  0  0
   18.7759    6.3599  -11.5229 H   0  0  0  0  0  0  0  0  0  0  0  0
   18.7782    4.7618  -12.2752 H   0  0  0  0  0  0  0  0  0  0  0  0
   21.0463    4.3141  -11.3154 H   0  0  0  0  0  0  0  0  0  0  0  0
   21.0438    5.9133  -10.5653 H   0  0  0  0  0  0  0  0  0  0  0  0
   20.8014    6.9702  -12.8213 H   0  0  0  0  0  0  0  0  0  0  0  0
   20.8061    5.3707  -13.5706 H   0  0  0  0  0  0  0  0  0  0  0  0
   23.0741    4.9273  -12.6116 H   0  0  0  0  0  0  0  0  0  0  0  0
   23.0694    6.5258  -11.8600 H   0  0  0  0  0  0  0  0  0  0  0  0
   22.8269    7.5845  -14.1152 H   0  0  0  0  0  0  0  0  0  0  0  0
   22.8339    5.9857  -14.8659 H   0  0  0  0  0  0  0  0  0  0  0  0
   25.1019    5.5442  -13.9046 H   0  0  0  0  0  0  0  0  0  0  0  0
   25.0949    7.1431  -13.1538 H   0  0  0  0  0  0  0  0  0  0  0  0
   24.8547    8.2015  -15.4082 H   0  0  0  0  0  0  0  0  0  0  0  0
   24.8594    6.6030  -16.1597 H   0  0  0  0  0  0  0  0  0  0  0  0
   27.1274    6.1584  -15.1999 H   0  0  0  0  0  0  0  0  0  0  0  0
   27.1227    7.7568  -14.4483 H   0  0  0  0  0  0  0  0  0  0  0  0
   26.8813    8.8161  -16.7028 H   0  0  0  0  0  0  0  0  0  0  0  0
   26.8860    7.2176  -17.4543 H   0  0  0  0  0  0  0  0  0  0  0  0
   29.1540    6.7730  -16.4945 H   0  0  0  0  0  0  0  0  0  0  0  0
   29.1493    8.3715  -15.7429 H   0  0  0  0  0  0  0  0  0  0  0  0
   28.9091    9.4312  -17.9966 H   0  0  0  0  0  0  0  0  0  0  0  0
   28.9115    7.8331  -18.7490 H   0  0  0  0  0  0  0  0  0  0  0  0
   31.1795    7.3853  -17.7906 H   0  0  0  0  0  0  0  0  0  0  0  0
   31.1772    8.9834  -17.0383 H   0  0  0  0  0  0  0  0  0  0  0  0
   30.9358   10.0440  -19.2921 H   0  0  0  0  0  0  0  0  0  0  0  0
   30.9382    8.4459  -20.0444 H   0  0  0  0  0  0  0  0  0  0  0  0
   33.2062    7.9981  -19.0861 H   0  0  0  0  0  0  0  0  0  0  0  0
   33.2038    9.5962  -18.3337 H   0  0  0  0  0  0  0  0  0  0  0  0
   32.9614   10.6564  -20.5883 H   0  0  0  0  0  0  0  0  0  0  0  0
   32.9660    9.0579  -21.3398 H   0  0  0  0  0  0  0  0  0  0  0  0
   35.2340    8.6134  -20.3785 H   0  0  0  0  0  0  0  0  0  0  0  0
   35.2293   10.2129  -19.6292 H   0  0  0  0  0  0  0  0  0  0  0  0
   34.9891   11.2695  -21.8844 H   0  0  0  0  0  0  0  0  0  0  0  0
   34.9915    9.6703  -22.6345 H   0  0  0  0  0  0  0  0  0  0  0  0
   37.2594    9.2237  -21.6769 H   0  0  0  0  0  0  0  0  0  0  0  0
   37.2572   10.8219  -20.9247 H   0  0  0  0  0  0  0  0  0  0  0  0
   37.0170   11.8829  -23.1777 H   0  0  0  0  0  0  0  0  0  0  0  0
   37.0170   10.2852  -23.9308 H   0  0  0  0  0  0  0  0  0  0  0  0
   39.2850    9.8344  -22.9725 H   0  0  0  0  0  0  0  0  0  0  0  0
   39.2849   11.4332  -22.2217 H   0  0  0  0  0  0  0  0  0  0  0  0
   39.0436   12.4920  -24.4763 H   0  0  0  0  0  0  0  0  0  0  0  0
   39.0436   10.8931  -25.2271 H   0  0  0  0  0  0  0  0  0  0  0  0
   41.3116   10.4435  -24.2697 H   0  0  0  0  0  0  0  0  0  0  0  0
   41.3116   12.0423  -23.5189 H   0  0  0  0  0  0  0  0  0  0  0  0
   41.0703   13.1011  -25.7735 H   0  0  0  0  0  0  0  0  0  0  0  0
   41.0703   11.5023  -26.5243 H   0  0  0  0  0  0  0  0  0  0  0  0
   43.3383   11.0526  -25.5668 H   0  0  0  0  0  0  0  0  0  0  0  0
   43.3383   12.6515  -24.8160 H   0  0  0  0  0  0  0  0  0  0  0  0
   43.0970   13.7103  -27.0707 H   0  0  0  0  0  0  0  0  0  0  0  0
   43.0970   12.1114  -27.8215 H   0  0  0  0  0  0  0  0  0  0  0  0
   45.3649   11.6618  -26.8640 H   0  0  0  0  0  0  0  0  0  0  0  0
   45.3649   13.2606  -26.1132 H   0  0  0  0  0  0  0  0  0  0  0  0
   45.1236   14.3194  -28.3678 H   0  0  0  0  0  0  0  0  0  0  0  0
   45.1236   12.7206  -29.1186 H   0  0  0  0  0  0  0  0  0  0  0  0
   47.3916   12.2709  -28.1611 H   0  0  0  0  0  0  0  0  0  0  0  0
   47.3916   13.8698  -27.4103 H   0  0  0  0  0  0  0  0  0  0  0  0
   47.1514   14.9291  -29.6643 H   0  0  0  0  0  0  0  0  0  0  0  0
   47.1491   13.3306  -30.4159 H   0  0  0  0  0  0  0  0  0  0  0  0
   49.4171   12.8779  -29.4585 H   0  0  0  0  0  0  0  0  0  0  0  0
   49.4194   14.4774  -28.7091 H   0  0  0  0  0  0  0  0  0  0  0  0
   49.1770   15.5339  -30.9653 H   0  0  0  0  0  0  0  0  0  0  0  0
   49.1769   13.9340  -31.7139 H   0  0  0  0  0  0  0  0  0  0  0  0
   51.4449   13.4858  -30.7557 H   0  0  0  0  0  0  0  0  0  0  0  0
   51.4449   15.0856  -30.0072 H   0  0  0  0  0  0  0  0  0  0  0  0
   51.2025   16.1407  -32.2641 H   0  0  0  0  0  0  0  0  0  0  0  0
   51.2047   14.5405  -33.0118 H   0  0  0  0  0  0  0  0  0  0  0  0
   53.4728   14.0956  -32.0508 H   0  0  0  0  0  0  0  0  0  0  0  0
   53.4704   15.6968  -31.3052 H   0  0  0  0  0  0  0  0  0  0  0  0
   53.2279   16.7474  -33.5642 H   0  0  0  0  0  0  0  0  0  0  0  0
   53.2326   15.1458  -34.3090 H   0  0  0  0  0  0  0  0  0  0  0  0
   55.5006   14.7052  -33.3472 H   0  0  0  0  0  0  0  0  0  0  0  0
   55.4959   16.3069  -32.6025 H   0  0  0  0  0  0  0  0  0  0  0  0
   55.2534   17.3561  -34.8621 H   0  0  0  0  0  0  0  0  0  0  0  0
   55.2604   15.7541  -35.6061 H   0  0  0  0  0  0  0  0  0  0  0  0
   57.5284   15.3167  -34.6428 H   0  0  0  0  0  0  0  0  0  0  0  0
   57.5213   16.9187  -33.8989 H   0  0  0  0  0  0  0  0  0  0  0  0
   57.2800   17.9670  -36.1584 H   0  0  0  0  0  0  0  0  0  0  0  0
   57.2871   16.3650  -36.9024 H   0  0  0  0  0  0  0  0  0  0  0  0
   59.5551   15.9277  -35.9392 H   0  0  0  0  0  0  0  0  0  0  0  0
   59.5480   17.5297  -35.1952 H   0  0  0  0  0  0  0  0  0  0  0  0
   59.3067   18.5780  -37.4547 H   0  0  0  0  0  0  0  0  0  0  0  0
   59.3138   16.9760  -38.1987 H   0  0  0  0  0  0  0  0  0  0  0  0
   61.5817   16.5387  -37.2355 H   0  0  0  0  0  0  0  0  0  0  0  0
   61.5746   18.1407  -36.4915 H   0  0  0  0  0  0  0  0  0  0  0  0
   61.3333   19.1890  -38.7510 H   0  0  0  0  0  0  0  0  0  0  0  0
   61.3404   17.5870  -39.4950 H   0  0  0  0  0  0  0  0  0  0  0  0
   63.6084   17.1497  -38.5318 H   0  0  0  0  0  0  0  0  0  0  0  0
   63.6013   18.7517  -37.7878 H   0  0  0  0  0  0  0  0  0  0  0  0
   63.3600   19.8000  -40.0473 H   0  0  0  0  0  0  0  0  0  0  0  0
   63.3671   18.1980  -40.7913 H   0  0  0  0  0  0  0  0  0  0  0  0
   65.6350   17.7607  -39.8281 H   0  0  0  0  0  0  0  0  0  0  0  0
   65.6279   19.3627  -39.0841 H   0  0  0  0  0  0  0  0  0  0  0  0
   65.3855   20.4105  -41.3444 H   0  0  0  0  0  0  0  0  0  0  0  0
   65.3948   18.8081  -42.0876 H   0  0  0  0  0  0  0  0  0  0  0  0
   67.6628   18.3740  -41.1229 H   0  0  0  0  0  0  0  0  0  0  0  0
   67.6534   19.9763  -40.3797 H   0  0  0  0  0  0  0  0  0  0  0  0
   67.4121   21.0233  -42.6398 H   0  0  0  0  0  0  0  0  0  0  0  0
   67.4215   19.4209  -43.3831 H   0  0  0  0  0  0  0  0  0  0  0  0
   69.6895   18.9868  -42.4184 H   0  0  0  0  0  0  0  0  0  0  0  0
   69.6801   20.5892  -41.6752 H   0  0  0  0  0  0  0  0  0  0  0  0
   69.4387   21.6362  -43.9353 H   0  0  0  0  0  0  0  0  0  0  0  0
   69.4481   20.0337  -44.6786 H   0  0  0  0  0  0  0  0  0  0  0  0
   71.7160   19.5997  -43.7139 H   0  0  0  0  0  0  0  0  0  0  0  0
   71.7065   21.2020  -42.9707 H   0  0  0  0  0  0  0  0  0  0  0  0
   71.4644   22.2485  -45.2316 H   0  0  0  0  0  0  0  0  0  0  0  0
   71.4761   20.6457  -45.9741 H   0  0  0  0  0  0  0  0  0  0  0  0
   73.7441   20.2152  -45.0083 H   0  0  0  0  0  0  0  0  0  0  0  0
   73.7324   21.8176  -44.2659 H   0  0  0  0  0  0  0  0  0  0  0  0
   73.4925   22.8634  -46.5273 H   0  0  0  0  0  0  0  0  0  0  0  0
   73.5044   21.2610  -47.2696 H   0  0  0  0  0  0  0  0  0  0  0  0
   75.7733   20.8298  -46.3049 H   0  0  0  0  0  0  0  0  0  0  0  0
   75.7615   22.4314  -45.5602 H   0  0  0  0  0  0  0  0  0  0  0  0
   75.5226   23.4794  -47.8207 H   0  0  0  0  0  0  0  0  0  0  0  0
   75.5366   21.8783  -48.5642 H   0  0  0  0  0  0  0  0  0  0  0  0
   77.8164   21.4559  -47.6122 H   0  0  0  0  0  0  0  0  0  0  0  0
   77.8023   23.0576  -46.8684 H   0  0  0  0  0  0  0  0  0  0  0  0
   77.5949   22.4996  -49.8736 H   0  0  0  0  0  0  0  0  0  0  0  0
   79.0336   23.0940  -49.0200 H   0  0  0  0  0  0  0  0  0  0  0  0
   77.5808   24.1088  -49.1263 H   0  0  0  0  0  0  0  0  0  0  0  0
  1  2  2  0  0  0  0
  2  3  1  0  0  0  0
  2  4  1  0  0  0  0
  3 79  1  0  0  0  0
  3 80  1  0  0  0  0
  3 81  1  0  0  0  0
  4  5  1  0  0  0  0
  4 82  1  0  0  0  0
  5  6  1  0  0  0  0
  5 83  1  0  0  0  0
  6  7  1  0  0  0  0
  6 84  1  0  0  0  0
  6 85  1  0  0  0  0
  7  8  1  0  0  0  0
  7 86  1  0  0  0  0
  7 87  1  0  0  0  0
  8  9  1  0  0  0  0
  8 88  1  0  0  0  0
  8 89  1  0  0  0  0
  9 10  1  0  0  0  0
  9 90  1  0  0  0  0
  9 91  1  0  0  0  0
 10 11  1  0  0  0  0
 10 92  1  0  0  0  0
 10 93  1  0  0  0  0
 11 12  1  0  0  0  0
 11 94  1  0  0  0  0
 11 95  1  0  0  0  0
 12 13  1  0  0  0  0
 12 96  1  0  0  0  0
 12 97  1  0  0  0  0
 13 14  1  0  0  0  0
 13 98  1  0  0  0  0
 13 99  1  0  0  0  0
 14 15  1  0  0  0  0
 14100  1  0  0  0  0
 14101  1  0  0  0  0
 15 16  1  0  0  0  0
 15102  1  0  0  0  0
 15103  1  0  0  0  0
 16 17  1  0  0  0  0
 16104  1  0  0  0  0
 16105  1  0  0  0  0
 17 18  1  0  0  0  0
 17106  1  0  0  0  0
 17107  1  0  0  0  0
 18 19  1  0  0  0  0
 18108  1  0  0  0  0
 18109  1  0  0  0  0
 19 20  1  0  0  0  0
 19110  1  0  0  0  0
 19111  1  0  0  0  0
 20 21  1  0  0  0  0
 20112  1  0  0  0  0
 20113  1  0  0  0  0
 21 22  1  0  0  0  0
 21114  1  0  0  0  0
 21115  1  0  0  0  0
 22 23  1  0  0  0  0
 22116  1  0  0  0  0
 22117  1  0  0  0  0
 23 24  1  0  0  0  0
 23118  1  0  0  0  0
 23119  1  0  0  0  0
 24 25  1  0  0  0  0
 24120  1  0  0  0  0
 24121  1  0  0  0  0
 25 26  1  0  0  0  0
 25122  1  0  0  0  0
 25123  1  0  0  0  0
 26 27  1  0  0  0  0
 26124  1  0  0  0  0
 26125  1  0  0  0  0
 27 28  1  0  0  0  0
 27126  1  0  0  0  0
 27127  1  0  0  0  0
 28 29  1  0  0  0  0
 28128  1  0  0  0  0
 28129  1  0  0  0  0
 29 30  1  0  0  0  0
 29130  1  0  0  0  0
 29131  1  0  0  0  0
 30 31  1  0  0  0  0
 30132  1  0  0  0  0
 30133  1  0  0  0  0
 31 32  1  0  0  0  0
 31134  1  0  0  0  0
 31135  1  0  0  0  0
 32 33  1  0  0  0  0
 32136  1  0  0  0  0
 32137  1  0  0  0  0
 33 34  1  0  0  0  0
 33138  1  0  0  0  0
 33139  1  0  0  0  0
 34 35  1  0  0  0  0
 34140  1  0  0  0  0
 34141  1  0  0  0  0
 35 36  1  0  0  0  0
 35142  1  0  0  0  0
 35143  1  0  0  0  0
 36 37  1  0  0  0  0
 36144  1  0  0  0  0
 36145  1  0  0  0  0
 37 38  1  0  0  0  0
 37146  1  0  0  0  0
 37147  1  0  0  0  0
 38 39  1  0  0  0  0
 38148  1  0  0  0  0
 38149  1  0  0  0  0
 39 40  1  0  0  0  0
 39150  1  0  0  0  0
 39151  1  0  0  0  0
 40 41  1  0  0  0  0
 40152  1  0  0  0  0
 40153  1  0  0  0  0
 41 42  1  0  0  0  0
 41154  1  0  0  0  0
 41155  1  0  0  0  0
 42 43  1  0  0  0  0
 42156  1  0  0  0  0
 42157  1  0  0  0  0
 43 44  1  0  0  0  0
 43158  1  0  0  0  0
 43159  1  0  0  0  0
 44 45  1  0  0  0  0
 44160  1  0  0  0  0
 44161  1  0  0  0  0
 45 46  1  0  0  0  0
 45162  1  0  0  0  0
 45163  1  0  0  0  0
 46 47  1  0  0  0  0
 46164  1  0  0  0  0
 46165  1  0  0  0  0
 47 48  1  0  0  0  0
 47166  1  0  0  0  0
 47167  1  0  0  0  0
 48 49  1  0  0  0  0
 48168  1  0  0  0  0
 48169  1  0  0  0  0
 49 50  1  0  0  0  0
 49170  1  0  0  0  0
 49171  1  0  0  0  0
 50 51  1  0  0  0  0
 50172  1  0  0  0  0
 50173  1  0  0  0  0
 51 52  1  0  0  0  0
 51174  1  0  0  0  0
 51175  1  0  0  0  0
 52 53  1  0  0  0  0
 52176  1  0  0  0  0
 52177  1  0  0  0  0
 53 54  1  0  0  0  0
 53178  1  0  0  0  0
 53179  1  0  0  0  0
 54 55  1  0  0  0  0
 54180  1  0  0  0  0
 54181  1  0  0  0  0
 55 56  1  0  0  0  0
 55182  1  0  0  0  0
 55183  1  0  0  0  0
 56 57  1  0  0  0  0
 56184  1  0  0  0  0
 56185  1  0  0  0  0
 57 58  1  0  0  0  0
 57186  1  0  0  0  0
 57187  1  0  0  0  0
 58 59  1  0  0  0  0
 58188  1  0  0  0  0
 58189  1  0  0  0  0
 59 60  1  0  0  0  0
 59190  1  0  0  0  0
 59191  1  0  0  0  0
 60 61  1  0  0  0  0
 60192  1  0  0  0  0
 60193  1  0  0  0  0
 61 62  1  0  0  0  0
 61194  1  0  0  0  0
 61195  1  0  0  0  0
 62 63  1  0  0  0  0
 62196  1  0  0  0  0
 62197  1  0  0  0  0
 63 64  1  0  0  0  0
 63198  1  0  0  0  0
 63199  1  0  0  0  0
 64 65  1  0  0  0  0
 64200  1  0  0  0  0
 64201  1  0  0  0  0
 65 66  1  0  0  0  0
 65202  1  0  0  0  0
 65203  1  0  0  0  0
 66 67  1  0  0  0  0
 66204  1  0  0  0  0
 66205  1  0  0  0  0
 67 68  1  0  0  0  0
 67206  1  0  0  0  0
 67207  1  0  0  0  0
 68 69  1  0  0  0  0
 68208  1  0  0  0  0
 68209  1  0  0  0  0
 69 70  1  0  0  0  0
 69210  1  0  0  0  0
 69211  1  0  0  0  0
 70 71  1  0  0  0  0
 70212  1  0  0  0  0
 70213  1  0  0  0  0
 71 72  1  0  0  0  0
 71214  1  0  0  0  0
 71215  1  0  0  0  0
 72 73  1  0  0  0  0
 72216  1  0  0  0  0
 72217  1  0  0  0  0
 73 74  1  0  0  0  0
 73218  1  0  0  0  0
 73219  1  0  0  0  0
 74 75  1  0  0  0  0
 74220  1  0  0  0  0
 74221  1  0  0  0  0
 75 76  1  0  0  0  0
 75222  1  0  0  0  0
 75223  1  0  0  0  0
 76 77  1  0  0  0  0
 76224  1  0  0  0  0
 76225  1  0  0  0  0
 77 78  1  0  0  0  0
 77226  1  0  0  0  0
 77227  1  0  0  0  0
 78228  1  0  0  0  0
 78229  1  0  0  0  0
 78230  1  0  0  0  0
M  END
$$$$
