
 OpenBabel04232217033D

 94 93  0  0  0  0  0  0  0  0999 V2000
   10.6505   19.3835    0.8249 S   0  0  0  0  0  0  0  0  0  0  0  0
   10.0983   18.0540    1.6897 O   0  0  0  0  0  0  0  0  0  0  0  0
   10.8117   18.0812    3.2072 S   0  0  0  0  0  0  0  0  0  0  0  0
   10.0121   16.3934    4.1080 S   0  0  0  0  0  0  0  0  0  0  0  0
   10.6490   14.9755    3.1853 C   0  0  0  0  0  0  0  0  0  0  0  0
   12.1068   14.9489    3.1609 N   0  0  0  0  0  0  0  0  0  0  0  0
   12.5458   13.8312    2.3682 N   0  0  0  0  0  0  0  0  0  0  0  0
   13.9887   13.8061    2.3545 N   0  0  0  0  0  0  0  0  0  0  0  0
   14.4492   12.6977    1.5588 N   0  0  0  0  0  0  0  0  0  0  0  0
   15.8764   12.6962    1.5584 N   0  0  0  0  0  0  0  0  0  0  0  0
   16.3284   11.5931    0.7711 N   0  0  0  0  0  0  0  0  0  0  0  0
   17.7508   11.5951    0.7569 N   0  0  0  0  0  0  0  0  0  0  0  0
   18.2296   10.4714   -0.0234 N   0  0  0  0  0  0  0  0  0  0  0  0
   17.7866   10.4943   -1.4125 N   0  0  0  0  0  0  0  0  0  0  0  0
   18.4436    9.2044   -2.2247 S   0  0  0  0  0  0  0  0  0  0  0  0
   17.7096    9.4072   -4.1425 S   0  0  0  0  0  0  0  0  0  0  0  0
   18.4209   11.1705   -4.9589 S   0  0  0  0  0  0  0  0  0  0  0  0
   20.4975   11.1497   -5.0134 S   0  0  0  0  0  0  0  0  0  0  0  0
   21.1747   12.9832   -5.8037 S   0  0  0  0  0  0  0  0  0  0  0  0
   23.2855   12.9731   -5.7995 S   0  0  0  0  0  0  0  0  0  0  0  0
   23.9769   14.7958   -6.6059 S   0  0  0  0  0  0  0  0  0  0  0  0
   26.0864   14.7839   -6.6006 S   0  0  0  0  0  0  0  0  0  0  0  0
   26.7771   16.6067   -7.4067 S   0  0  0  0  0  0  0  0  0  0  0  0
   28.8864   16.5946   -7.4014 S   0  0  0  0  0  0  0  0  0  0  0  0
   29.5771   18.4174   -8.2075 S   0  0  0  0  0  0  0  0  0  0  0  0
   31.6864   18.4053   -8.2022 S   0  0  0  0  0  0  0  0  0  0  0  0
   32.3771   20.2281   -9.0083 S   0  0  0  0  0  0  0  0  0  0  0  0
   34.4864   20.2161   -9.0030 S   0  0  0  0  0  0  0  0  0  0  0  0
   35.1771   22.0389   -9.8091 S   0  0  0  0  0  0  0  0  0  0  0  0
   37.2864   22.0268   -9.8038 S   0  0  0  0  0  0  0  0  0  0  0  0
   37.9771   23.8496  -10.6099 S   0  0  0  0  0  0  0  0  0  0  0  0
   40.0864   23.8375  -10.6046 S   0  0  0  0  0  0  0  0  0  0  0  0
   40.7770   25.6603  -11.4108 S   0  0  0  0  0  0  0  0  0  0  0  0
   42.8864   25.6482  -11.4054 S   0  0  0  0  0  0  0  0  0  0  0  0
   43.5770   27.4710  -12.2116 S   0  0  0  0  0  0  0  0  0  0  0  0
   45.6864   27.4590  -12.2062 S   0  0  0  0  0  0  0  0  0  0  0  0
   46.3770   29.2818  -13.0124 S   0  0  0  0  0  0  0  0  0  0  0  0
   48.4864   29.2697  -13.0070 S   0  0  0  0  0  0  0  0  0  0  0  0
   49.1770   31.0925  -13.8132 S   0  0  0  0  0  0  0  0  0  0  0  0
   51.2864   31.0804  -13.8078 S   0  0  0  0  0  0  0  0  0  0  0  0
   51.9770   32.9032  -14.6140 S   0  0  0  0  0  0  0  0  0  0  0  0
   54.0864   32.8911  -14.6087 S   0  0  0  0  0  0  0  0  0  0  0  0
   54.7770   34.7139  -15.4148 S   0  0  0  0  0  0  0  0  0  0  0  0
   56.8863   34.7019  -15.4095 S   0  0  0  0  0  0  0  0  0  0  0  0
   57.5770   36.5246  -16.2156 S   0  0  0  0  0  0  0  0  0  0  0  0
   59.6863   36.5126  -16.2103 S   0  0  0  0  0  0  0  0  0  0  0  0
   60.3770   38.3354  -17.0164 S   0  0  0  0  0  0  0  0  0  0  0  0
   62.4863   38.3233  -17.0111 S   0  0  0  0  0  0  0  0  0  0  0  0
   63.1770   40.1461  -17.8172 S   0  0  0  0  0  0  0  0  0  0  0  0
   65.2863   40.1340  -17.8119 S   0  0  0  0  0  0  0  0  0  0  0  0
   65.9770   41.9568  -18.6180 S   0  0  0  0  0  0  0  0  0  0  0  0
   68.0863   41.9447  -18.6127 S   0  0  0  0  0  0  0  0  0  0  0  0
   68.7770   43.7675  -19.4188 S   0  0  0  0  0  0  0  0  0  0  0  0
   70.8863   43.7555  -19.4135 S   0  0  0  0  0  0  0  0  0  0  0  0
   71.5770   45.5783  -20.2197 S   0  0  0  0  0  0  0  0  0  0  0  0
   73.6863   45.5662  -20.2143 S   0  0  0  0  0  0  0  0  0  0  0  0
   74.3770   47.3890  -21.0205 S   0  0  0  0  0  0  0  0  0  0  0  0
   76.4863   47.3769  -21.0151 S   0  0  0  0  0  0  0  0  0  0  0  0
   77.1769   49.1997  -21.8213 S   0  0  0  0  0  0  0  0  0  0  0  0
   79.2863   49.1876  -21.8159 S   0  0  0  0  0  0  0  0  0  0  0  0
   79.9769   51.0104  -22.6221 S   0  0  0  0  0  0  0  0  0  0  0  0
   82.0863   50.9984  -22.6167 S   0  0  0  0  0  0  0  0  0  0  0  0
   82.7769   52.8212  -23.4229 S   0  0  0  0  0  0  0  0  0  0  0  0
   84.8863   52.8091  -23.4175 S   0  0  0  0  0  0  0  0  0  0  0  0
   85.5769   54.6319  -24.2237 S   0  0  0  0  0  0  0  0  0  0  0  0
   87.6863   54.6198  -24.2184 S   0  0  0  0  0  0  0  0  0  0  0  0
   88.3769   56.4426  -25.0245 S   0  0  0  0  0  0  0  0  0  0  0  0
   90.4863   56.4305  -25.0192 S   0  0  0  0  0  0  0  0  0  0  0  0
   91.1769   58.2533  -25.8253 S   0  0  0  0  0  0  0  0  0  0  0  0
   93.2862   58.2412  -25.8200 S   0  0  0  0  0  0  0  0  0  0  0  0
   93.9769   60.0640  -26.6261 S   0  0  0  0  0  0  0  0  0  0  0  0
   96.0862   60.0520  -26.6208 S   0  0  0  0  0  0  0  0  0  0  0  0
   96.7769   61.8748  -27.4269 S   0  0  0  0  0  0  0  0  0  0  0  0
   98.8862   61.8627  -27.4216 S   0  0  0  0  0  0  0  0  0  0  0  0
   99.5769   63.6855  -28.2277 S   0  0  0  0  0  0  0  0  0  0  0  0
  101.6853   63.6732  -28.2227 S   0  0  0  0  0  0  0  0  0  0  0  0
  102.3747   65.4942  -29.0278 S   0  0  0  0  0  0  0  0  0  0  0  0
  104.4749   65.4794  -29.0015 S   0  0  0  0  0  0  0  0  0  0  0  0
  105.1667   67.2525  -29.8524 S   0  0  0  0  0  0  0  0  0  0  0  0
  107.2543   67.2366  -29.7965 S   0  0  0  0  0  0  0  0  0  0  0  0
  107.8753   65.6901  -31.0058 S   0  0  0  0  0  0  0  0  0  0  0  0
   10.0768   19.2481   -0.3875 H   0  0  0  0  0  0  0  0  0  0  0  0
   10.2518   15.0396    2.1686 H   0  0  0  0  0  0  0  0  0  0  0  0
   10.2639   14.0414    3.6182 H   0  0  0  0  0  0  0  0  0  0  0  0
   12.4536   14.8273    4.1065 H   0  0  0  0  0  0  0  0  0  0  0  0
   12.1921   13.9311    1.4259 H   0  0  0  0  0  0  0  0  0  0  0  0
   14.3711   13.7305    3.2843 H   0  0  0  0  0  0  0  0  0  0  0  0
   14.1063   12.7711    0.6190 H   0  0  0  0  0  0  0  0  0  0  0  0
   16.2291   12.6453    2.5024 H   0  0  0  0  0  0  0  0  0  0  0  0
   16.0294   11.6348   -0.1905 H   0  0  0  0  0  0  0  0  0  0  0  0
   18.1302   11.4891    1.6883 H   0  0  0  0  0  0  0  0  0  0  0  0
   17.9086    9.6248    0.4248 H   0  0  0  0  0  0  0  0  0  0  0  0
   18.1201   11.3709   -1.8009 H   0  0  0  0  0  0  0  0  0  0  0  0
  109.2251   65.7349  -30.9407 H   0  0  0  0  0  0  0  0  0  0  0  0
  1  2  1  0  0  0  0
  1 82  1  0  0  0  0
  2  3  1  0  0  0  0
  3  4  1  0  0  0  0
  4  5  1  0  0  0  0
  5  6  1  0  0  0  0
  5 83  1  0  0  0  0
  5 84  1  0  0  0  0
  6  7  1  0  0  0  0
  6 85  1  0  0  0  0
  7  8  1  0  0  0  0
  7 86  1  0  0  0  0
  8  9  1  0  0  0  0
  8 87  1  0  0  0  0
  9 10  1  0  0  0  0
  9 88  1  0  0  0  0
 10 11  1  0  0  0  0
 10 89  1  0  0  0  0
 11 12  1  0  0  0  0
 11 90  1  0  0  0  0
 12 13  1  0  0  0  0
 12 91  1  0  0  0  0
 13 14  1  0  0  0  0
 13 92  1  0  0  0  0
 14 15  1  0  0  0  0
 14 93  1  0  0  0  0
 15 16  1  0  0  0  0
 16 17  1  0  0  0  0
 17 18  1  0  0  0  0
 18 19  1  0  0  0  0
 19 20  1  0  0  0  0
 20 21  1  0  0  0  0
 21 22  1  0  0  0  0
 22 23  1  0  0  0  0
 23 24  1  0  0  0  0
 24 25  1  0  0  0  0
 25 26  1  0  0  0  0
 26 27  1  0  0  0  0
 27 28  1  0  0  0  0
 28 29  1  0  0  0  0
 29 30  1  0  0  0  0
 30 31  1  0  0  0  0
 31 32  1  0  0  0  0
 32 33  1  0  0  0  0
 33 34  1  0  0  0  0
 34 35  1  0  0  0  0
 35 36  1  0  0  0  0
 36 37  1  0  0  0  0
 37 38  1  0  0  0  0
 38 39  1  0  0  0  0
 39 40  1  0  0  0  0
 40 41  1  0  0  0  0
 41 42  1  0  0  0  0
 42 43  1  0  0  0  0
 43 44  1  0  0  0  0
 44 45  1  0  0  0  0
 45 46  1  0  0  0  0
 46 47  1  0  0  0  0
 47 48  1  0  0  0  0
 48 49  1  0  0  0  0
 49 50  1  0  0  0  0
 50 51  1  0  0  0  0
 51 52  1  0  0  0  0
 52 53  1  0  0  0  0
 53 54  1  0  0  0  0
 54 55  1  0  0  0  0
 55 56  1  0  0  0  0
 56 57  1  0  0  0  0
 57 58  1  0  0  0  0
 58 59  1  0  0  0  0
 59 60  1  0  0  0  0
 60 61  1  0  0  0  0
 61 62  1  0  0  0  0
 62 63  1  0  0  0  0
 63 64  1  0  0  0  0
 64 65  1  0  0  0  0
 65 66  1  0  0  0  0
 66 67  1  0  0  0  0
 67 68  1  0  0  0  0
 68 69  1  0  0  0  0
 69 70  1  0  0  0  0
 70 71  1  0  0  0  0
 71 72  1  0  0  0  0
 72 73  1  0  0  0  0
 73 74  1  0  0  0  0
 74 75  1  0  0  0  0
 75 76  1  0  0  0  0
 76 77  1  0  0  0  0
 77 78  1  0  0  0  0
 78 79  1  0  0  0  0
 79 80  1  0  0  0  0
 80 81  1  0  0  0  0
 81 94  1  0  0  0  0
M  END
$$$$
