
 OpenBabel04232216553D

 46 48  0  0  0  0  0  0  0  0999 V2000
    3.6580   -2.7573   -3.3059 C   0  0  0  0  0  0  0  0  0  0  0  0
    4.9579   -2.1725   -3.7687 N   0  0  0  0  0  0  0  0  0  0  0  0
    4.7239   -0.7303   -3.6091 C   0  0  0  0  0  0  0  0  0  0  0  0
    3.7921   -0.0909   -4.0948 O   0  0  0  0  0  0  0  0  0  0  0  0
    5.3118   -0.2895   -2.3012 C   0  0  0  0  0  0  0  0  0  0  0  0
    6.6078   -0.3731   -2.5339 C   0  0  0  0  0  0  0  0  0  0  0  0
    7.7986   -0.5882   -1.7781 C   0  0  0  0  0  0  0  0  0  0  0  0
    8.0700   -0.1341   -0.4247 C   0  0  0  0  0  0  0  0  0  0  0  0
    8.6442    1.2529   -0.4213 C   0  0  0  0  0  0  0  0  0  0  0  0
    8.6755   -1.1569   -2.6437 C   0  0  0  0  0  0  0  0  0  0  0  0
   10.0728   -1.3181   -2.6538 C   0  0  0  0  0  0  0  0  0  0  0  0
   10.5364   -1.4370   -3.9100 C   0  0  0  0  0  0  0  0  0  0  0  0
   11.8605   -1.9364   -4.1059 C   0  0  0  0  0  0  0  0  0  0  0  0
   12.6595   -1.7774   -3.1772 O   0  0  0  0  0  0  0  0  0  0  0  0
   12.2143   -2.5671   -5.4345 C   0  0  0  0  0  0  0  0  0  0  0  0
   13.7911   -2.5884   -5.4592 C   0  0  0  0  0  0  0  0  0  0  0  0
   14.3748   -3.0991   -6.5612 C   0  0  0  0  0  0  0  0  0  0  0  0
   11.4944   -3.0991   -6.5612 C   0  0  0  0  0  0  0  0  0  0  0  0
    9.9744   -3.0991   -6.5612 C   0  0  0  0  0  0  0  0  0  0  0  0
    8.9270   -3.0346   -5.5777 N   0  0  0  0  0  0  0  0  0  0  0  0
    7.2803   -2.5794   -5.6161 C   0  0  0  0  0  0  0  0  0  0  0  0
    6.8460   -1.9066   -6.7424 C   0  0  0  0  0  0  0  0  0  0  0  0
    5.5111   -2.0889   -7.1733 C   0  0  0  0  0  0  0  0  0  0  0  0
    4.7242   -3.1132   -6.6260 C   0  0  0  0  0  0  0  0  0  0  0  0
    5.1427   -3.7805   -5.4802 C   0  0  0  0  0  0  0  0  0  0  0  0
    6.0564   -3.0460   -4.7287 C   0  0  0  0  0  0  0  0  0  0  0  0
    3.4472   -2.3751   -2.2882 H   0  0  0  0  0  0  0  0  0  0  0  0
    3.6257   -3.8402   -3.2318 H   0  0  0  0  0  0  0  0  0  0  0  0
    2.8022   -2.3783   -3.8937 H   0  0  0  0  0  0  0  0  0  0  0  0
    4.7670   -0.2633   -1.3722 H   0  0  0  0  0  0  0  0  0  0  0  0
    6.8139   -0.3580   -3.6179 H   0  0  0  0  0  0  0  0  0  0  0  0
    8.7884   -0.8330    0.0674 H   0  0  0  0  0  0  0  0  0  0  0  0
    7.1621   -0.1946    0.2176 H   0  0  0  0  0  0  0  0  0  0  0  0
    9.5134    1.3080   -1.0880 H   0  0  0  0  0  0  0  0  0  0  0  0
    8.9674    1.5489    0.5789 H   0  0  0  0  0  0  0  0  0  0  0  0
    7.9003    1.9711   -0.7802 H   0  0  0  0  0  0  0  0  0  0  0  0
    8.2566   -1.5518   -3.5570 H   0  0  0  0  0  0  0  0  0  0  0  0
   10.6539   -1.4062   -1.7538 H   0  0  0  0  0  0  0  0  0  0  0  0
    9.9256   -1.2515   -4.7796 H   0  0  0  0  0  0  0  0  0  0  0  0
   14.3956   -2.1985   -4.6176 H   0  0  0  0  0  0  0  0  0  0  0  0
   14.2707   -3.5542   -7.5444 H   0  0  0  0  0  0  0  0  0  0  0  0
    9.5508   -2.9475   -7.5695 H   0  0  0  0  0  0  0  0  0  0  0  0
    7.5154   -1.2975   -7.3225 H   0  0  0  0  0  0  0  0  0  0  0  0
    5.1133   -1.4995   -7.9945 H   0  0  0  0  0  0  0  0  0  0  0  0
    3.7485   -3.3423   -7.0521 H   0  0  0  0  0  0  0  0  0  0  0  0
    4.4507   -4.4839   -5.0240 H   0  0  0  0  0  0  0  0  0  0  0  0
  1  2  1  0  0  0  0
  1 27  1  0  0  0  0
  1 28  1  0  0  0  0
  1 29  1  0  0  0  0
  2  3  1  0  0  0  0
  2 26  1  0  0  0  0
  3  4  2  0  0  0  0
  3  5  1  0  0  0  0
  5  6  2  3  0  0  0
  5 30  1  0  0  0  0
  6  7  1  0  0  0  0
  6 31  1  0  0  0  0
  7  8  1  0  0  0  0
  7 10  2  3  0  0  0
  8  9  1  0  0  0  0
  8 32  1  0  0  0  0
  8 33  1  0  0  0  0
  9 34  1  0  0  0  0
  9 35  1  0  0  0  0
  9 36  1  0  0  0  0
 10 11  1  0  0  0  0
 10 37  1  0  0  0  0
 11 12  2  3  0  0  0
 11 38  1  0  0  0  0
 12 13  1  0  0  0  0
 12 39  1  0  0  0  0
 13 14  2  0  0  0  0
 13 15  1  0  0  0  0
 15 16  1  0  0  0  0
 15 18  2  0  0  0  0
 16 17  2  0  0  0  0
 16 40  1  0  0  0  0
 17 18  1  0  0  0  0
 17 41  1  0  0  0  0
 18 19  1  0  0  0  0
 19 20  2  3  0  0  0
 19 42  1  0  0  0  0
 20 21  1  0  0  0  0
 21 22  1  0  0  0  0
 21 26  2  0  0  0  0
 22 23  2  0  0  0  0
 22 43  1  0  0  0  0
 23 24  1  0  0  0  0
 23 44  1  0  0  0  0
 24 25  2  0  0  0  0
 24 45  1  0  0  0  0
 25 26  1  0  0  0  0
 25 46  1  0  0  0  0
M  END
$$$$
