
 OpenBabel04232216553D

 47 49  0  0  0  0  0  0  0  0999 V2000
    1.0683    0.3035    0.2528 C   0  0  0  0  0  0  0  0  0  0  0  0
    2.3557    0.8802    0.6843 N   0  0  0  0  0  0  0  0  0  0  0  0
    3.1660    1.4636   -0.2817 C   0  0  0  0  0  0  0  0  0  0  0  0
    4.5112    1.4041   -0.4026 C   0  0  0  0  0  0  0  0  0  0  0  0
    5.2473    0.2161    0.2067 C   0  0  0  0  0  0  0  0  0  0  0  0
    5.2751    2.4102   -1.0472 N   0  0  0  0  0  0  0  0  0  0  0  0
    4.6848    3.7290   -1.4195 C   0  0  0  0  0  0  0  0  0  0  0  0
    4.8959    4.0349   -2.8942 C   0  0  0  0  0  0  0  0  0  0  0  0
    4.2329    5.3202   -3.2970 C   0  0  0  0  0  0  0  0  0  0  0  0
    3.5736    6.1329   -2.4936 N   0  0  0  0  0  0  0  0  0  0  0  0
    3.0882    7.2131   -3.2073 C   0  0  0  0  0  0  0  0  0  0  0  0
    3.3995    7.2191   -4.5485 C   0  0  0  0  0  0  0  0  0  0  0  0
    4.3226    5.8288   -4.9410 S   0  0  0  0  0  0  0  0  0  0  0  0
    6.6858    2.4844   -0.8282 C   0  0  0  0  0  0  0  0  0  0  0  0
    7.4529    1.6999   -1.6266 N   0  0  0  0  0  0  0  0  0  0  0  0
    8.7940    1.7917   -1.5152 C   0  0  0  0  0  0  0  0  0  0  0  0
    9.4418    2.6729   -0.6699 C   0  0  0  0  0  0  0  0  0  0  0  0
    8.6690    3.4604    0.1757 C   0  0  0  0  0  0  0  0  0  0  0  0
    7.2754    3.3390    0.1528 C   0  0  0  0  0  0  0  0  0  0  0  0
    6.4858    4.1643    1.0915 C   0  0  0  0  0  0  0  0  0  0  0  0
    5.4817    3.5970    1.7805 C   0  0  0  0  0  0  0  0  0  0  0  0
    4.2587    4.3068    2.0436 C   0  0  0  0  0  0  0  0  0  0  0  0
    3.0751    3.7303    2.3404 C   0  0  0  0  0  0  0  0  0  0  0  0
    2.7958    2.3556    2.7183 C   0  0  0  0  0  0  0  0  0  0  0  0
    2.4786    1.2419    2.0308 C   0  0  0  0  0  0  0  0  0  0  0  0
    0.3814    1.0973   -0.0632 H   0  0  0  0  0  0  0  0  0  0  0  0
    0.5897   -0.2567    1.0645 H   0  0  0  0  0  0  0  0  0  0  0  0
    1.2109   -0.3905   -0.5838 H   0  0  0  0  0  0  0  0  0  0  0  0
    2.5711    2.1320   -0.8930 H   0  0  0  0  0  0  0  0  0  0  0  0
    4.5660   -0.5762    0.5377 H   0  0  0  0  0  0  0  0  0  0  0  0
    5.8617    0.5030    1.0635 H   0  0  0  0  0  0  0  0  0  0  0  0
    5.8964   -0.2536   -0.5425 H   0  0  0  0  0  0  0  0  0  0  0  0
    5.0795    4.5587   -0.8312 H   0  0  0  0  0  0  0  0  0  0  0  0
    3.6127    3.7628   -1.2063 H   0  0  0  0  0  0  0  0  0  0  0  0
    4.4942    3.2118   -3.4953 H   0  0  0  0  0  0  0  0  0  0  0  0
    5.9696    4.1097   -3.0978 H   0  0  0  0  0  0  0  0  0  0  0  0
    2.5102    7.9751   -2.6936 H   0  0  0  0  0  0  0  0  0  0  0  0
    3.1382    7.9560   -5.3007 H   0  0  0  0  0  0  0  0  0  0  0  0
    9.3528    1.1176   -2.1581 H   0  0  0  0  0  0  0  0  0  0  0  0
   10.5241    2.7354   -0.6626 H   0  0  0  0  0  0  0  0  0  0  0  0
    9.1557    4.1585    0.8516 H   0  0  0  0  0  0  0  0  0  0  0  0
    6.5559    5.2378    0.9396 H   0  0  0  0  0  0  0  0  0  0  0  0
    5.4321    2.5185    1.8847 H   0  0  0  0  0  0  0  0  0  0  0  0
    4.2658    5.3821    1.8645 H   0  0  0  0  0  0  0  0  0  0  0  0
    2.2147    4.3947    2.4313 H   0  0  0  0  0  0  0  0  0  0  0  0
    2.7350    2.2659    3.8020 H   0  0  0  0  0  0  0  0  0  0  0  0
    2.1942    0.3836    2.6386 H   0  0  0  0  0  0  0  0  0  0  0  0
  1  2  1  0  0  0  0
  1 26  1  0  0  0  0
  1 27  1  0  0  0  0
  1 28  1  0  0  0  0
  2  3  1  0  0  0  0
  2 25  1  0  0  0  0
  3  4  2  0  0  0  0
  3 29  1  0  0  0  0
  4  5  1  0  0  0  0
  4  6  1  0  0  0  0
  5 30  1  0  0  0  0
  5 31  1  0  0  0  0
  5 32  1  0  0  0  0
  6  7  1  0  0  0  0
  6 14  1  0  0  0  0
  7  8  1  0  0  0  0
  7 33  1  0  0  0  0
  7 34  1  0  0  0  0
  8  9  1  0  0  0  0
  8 35  1  0  0  0  0
  8 36  1  0  0  0  0
  9 10  2  0  0  0  0
  9 13  1  0  0  0  0
 10 11  1  0  0  0  0
 11 12  2  0  0  0  0
 11 37  1  0  0  0  0
 12 13  1  0  0  0  0
 12 38  1  0  0  0  0
 14 15  1  0  0  0  0
 14 19  2  0  0  0  0
 15 16  2  0  0  0  0
 16 17  1  0  0  0  0
 16 39  1  0  0  0  0
 17 18  2  0  0  0  0
 17 40  1  0  0  0  0
 18 19  1  0  0  0  0
 18 41  1  0  0  0  0
 19 20  1  0  0  0  0
 20 21  2  0  0  0  0
 20 42  1  0  0  0  0
 21 22  1  0  0  0  0
 21 43  1  0  0  0  0
 22 23  2  0  0  0  0
 22 44  1  0  0  0  0
 23 24  1  0  0  0  0
 23 45  1  0  0  0  0
 24 25  2  0  0  0  0
 24 46  1  0  0  0  0
 25 47  1  0  0  0  0
M  END
$$$$
