
 OpenBabel04232216513D

 53 55  0  0  0  0  0  0  0  0999 V2000
    7.2983    8.7755   -6.6195 C   0  0  0  0  0  0  0  0  0  0  0  0
    8.2666    7.8872   -7.4186 C   0  0  0  0  0  0  0  0  0  0  0  0
    7.9410    7.6573   -8.6663 N   0  0  0  0  0  0  0  0  0  0  0  0
    6.6598    8.1539   -9.0541 O   0  0  0  0  0  0  0  0  0  0  0  0
    6.0778    7.0935   -9.7638 C   0  0  0  0  0  0  0  0  0  0  0  0
    4.8786    6.5463   -9.0151 C   0  0  0  0  0  0  0  0  0  0  0  0
    6.8195    6.4790  -10.7145 C   0  0  0  0  0  0  0  0  0  0  0  0
    7.7758    7.3717  -11.5202 C   0  0  0  0  0  0  0  0  0  0  0  0
    7.6810    7.2219  -13.0358 C   0  0  0  0  0  0  0  0  0  0  0  0
    8.4913    8.3320  -13.7378 C   0  0  0  0  0  0  0  0  0  0  0  0
    8.4534    8.1456  -15.2334 C   0  0  0  0  0  0  0  0  0  0  0  0
    7.4565    8.7579  -16.0038 C   0  0  0  0  0  0  0  0  0  0  0  0
    7.3268    8.4496  -17.3588 C   0  0  0  0  0  0  0  0  0  0  0  0
    8.1972    7.5378  -17.9532 C   0  0  0  0  0  0  0  0  0  0  0  0
    9.2216    6.9615  -17.2053 C   0  0  0  0  0  0  0  0  0  0  0  0
    9.3540    7.2689  -15.8511 C   0  0  0  0  0  0  0  0  0  0  0  0
    7.1738    5.0725  -10.3694 C   0  0  0  0  0  0  0  0  0  0  0  0
    8.4468    4.7885   -9.9639 C   0  0  0  0  0  0  0  0  0  0  0  0
    8.5614    4.2640   -8.5955 C   0  0  0  0  0  0  0  0  0  0  0  0
    9.5990    4.7425   -7.8522 C   0  0  0  0  0  0  0  0  0  0  0  0
    9.3833    5.0919   -6.4534 C   0  0  0  0  0  0  0  0  0  0  0  0
    9.8198    6.3462   -6.1624 C   0  0  0  0  0  0  0  0  0  0  0  0
   11.2415    6.2010   -5.6095 C   0  0  0  0  0  0  0  0  0  0  0  0
   12.2126    6.9522   -6.1220 C   0  0  0  0  0  0  0  0  0  0  0  0
   11.9066    8.0573   -6.9953 C   0  0  0  0  0  0  0  0  0  0  0  0
   10.6355    8.2136   -7.4146 C   0  0  0  0  0  0  0  0  0  0  0  0
    9.5325    7.5257   -6.8873 N   0  0  0  0  0  0  0  0  0  0  0  0
    7.1980    9.7356   -7.1513 H   0  0  0  0  0  0  0  0  0  0  0  0
    7.6357    8.9764   -5.6067 H   0  0  0  0  0  0  0  0  0  0  0  0
    6.3015    8.3212   -6.5964 H   0  0  0  0  0  0  0  0  0  0  0  0
    3.9765    7.0823   -9.3173 H   0  0  0  0  0  0  0  0  0  0  0  0
    5.0040    6.6874   -7.9346 H   0  0  0  0  0  0  0  0  0  0  0  0
    4.6928    5.4880   -9.1900 H   0  0  0  0  0  0  0  0  0  0  0  0
    8.8139    7.2494  -11.2047 H   0  0  0  0  0  0  0  0  0  0  0  0
    7.5326    8.4221  -11.3119 H   0  0  0  0  0  0  0  0  0  0  0  0
    6.6342    7.2794  -13.3614 H   0  0  0  0  0  0  0  0  0  0  0  0
    8.0574    6.2366  -13.3321 H   0  0  0  0  0  0  0  0  0  0  0  0
    9.5334    8.3284  -13.3925 H   0  0  0  0  0  0  0  0  0  0  0  0
    8.0927    9.3226  -13.4800 H   0  0  0  0  0  0  0  0  0  0  0  0
    6.7573    9.4543  -15.5466 H   0  0  0  0  0  0  0  0  0  0  0  0
    6.5314    8.9032  -17.9438 H   0  0  0  0  0  0  0  0  0  0  0  0
    8.0731    7.2705  -18.9989 H   0  0  0  0  0  0  0  0  0  0  0  0
    9.9038    6.2541  -17.6674 H   0  0  0  0  0  0  0  0  0  0  0  0
   10.1423    6.7959  -15.2702 H   0  0  0  0  0  0  0  0  0  0  0  0
    6.3818    4.5351   -9.8547 H   0  0  0  0  0  0  0  0  0  0  0  0
    9.2747    5.3710  -10.3107 H   0  0  0  0  0  0  0  0  0  0  0  0
    7.6869    3.8872   -8.0965 H   0  0  0  0  0  0  0  0  0  0  0  0
   10.4442    5.1912   -8.3397 H   0  0  0  0  0  0  0  0  0  0  0  0
    9.6428    4.2379   -5.8205 H   0  0  0  0  0  0  0  0  0  0  0  0
   11.4972    5.3099   -5.0337 H   0  0  0  0  0  0  0  0  0  0  0  0
   13.2621    6.6938   -5.9884 H   0  0  0  0  0  0  0  0  0  0  0  0
   12.4600    8.9566   -6.7719 H   0  0  0  0  0  0  0  0  0  0  0  0
   10.4965    8.3297   -8.5035 H   0  0  0  0  0  0  0  0  0  0  0  0
  1  2  1  0  0  0  0
  1 28  1  0  0  0  0
  1 29  1  0  0  0  0
  1 30  1  0  0  0  0
  2  3  2  0  0  0  0
  2 27  1  0  0  0  0
  3  4  1  0  0  0  0
  4  5  1  0  0  0  0
  5  6  1  0  0  0  0
  5  7  2  0  0  0  0
  6 31  1  0  0  0  0
  6 32  1  0  0  0  0
  6 33  1  0  0  0  0
  7  8  1  0  0  0  0
  7 17  1  0  0  0  0
  8  9  1  0  0  0  0
  8 34  1  0  0  0  0
  8 35  1  0  0  0  0
  9 10  1  0  0  0  0
  9 36  1  0  0  0  0
  9 37  1  0  0  0  0
 10 11  1  0  0  0  0
 10 38  1  0  0  0  0
 10 39  1  0  0  0  0
 11 12  1  0  0  0  0
 11 16  2  0  0  0  0
 12 13  2  0  0  0  0
 12 40  1  0  0  0  0
 13 14  1  0  0  0  0
 13 41  1  0  0  0  0
 14 15  2  0  0  0  0
 14 42  1  0  0  0  0
 15 16  1  0  0  0  0
 15 43  1  0  0  0  0
 16 44  1  0  0  0  0
 17 18  2  0  0  0  0
 17 45  1  0  0  0  0
 18 19  1  0  0  0  0
 18 46  1  0  0  0  0
 19 20  2  0  0  0  0
 19 47  1  0  0  0  0
 20 21  1  0  0  0  0
 20 48  1  0  0  0  0
 21 22  2  0  0  0  0
 21 49  1  0  0  0  0
 22 23  1  0  0  0  0
 22 27  1  0  0  0  0
 23 24  2  0  0  0  0
 23 50  1  0  0  0  0
 24 25  1  0  0  0  0
 24 51  1  0  0  0  0
 25 26  2  0  0  0  0
 25 52  1  0  0  0  0
 26 27  1  0  0  0  0
 26 53  1  0  0  0  0
M  END
$$$$
