
 OpenBabel04232216463D

 50 51  0  0  1  0  0  0  0  0999 V2000
    5.4755    2.2247    1.6973 C   0  0  0  0  0  0  0  0  0  0  0  0
    6.4255    1.2234    2.3317 C   0  0  0  0  0  0  0  0  0  0  0  0
    5.7198   -0.0565    2.6851 C   0  0  0  0  0  3  0  0  0  0  0  0
    5.5826   -0.9942    1.6314 C   0  0  0  0  0  0  0  0  0  0  0  0
    4.4818   -1.5839    0.9299 C   0  0  3  0  0  0  0  0  0  0  0  0
    4.4986   -1.4313   -0.5735 C   0  0  0  0  0  0  0  0  0  0  0  0
    3.5062   -2.3246   -1.3349 C   0  0  0  0  0  0  0  0  0  0  0  0
    3.5209   -1.9887   -2.8379 C   0  0  0  0  0  0  0  0  0  0  0  0
    2.5537   -2.8396   -3.6491 C   0  0  0  0  0  0  0  0  0  0  0  0
    5.4626   -2.4422    1.8029 C   0  0  0  0  0  0  0  0  0  0  0  0
    4.8279   -3.0330    3.0418 C   0  0  0  0  0  0  0  0  0  0  0  0
    6.7944   -2.9442    1.3176 C   0  0  0  0  0  0  0  0  0  0  0  0
    7.9602   -2.7045    1.9755 C   0  0  0  0  0  0  0  0  0  0  0  0
    8.0225   -2.6928    3.5003 C   0  0  0  0  0  0  0  0  0  0  0  0
    9.0510   -1.9749    1.2479 C   0  0  0  0  0  0  0  0  0  0  0  0
    8.9132   -1.6205   -0.2244 C   0  0  0  0  0  0  0  0  0  0  0  0
    9.8728   -1.1826    1.9727 C   0  0  0  0  0  0  0  0  0  0  0  0
    9.5506    0.2697    1.9028 C   0  0  0  0  0  0  0  0  0  0  0  0
    8.6832    0.7465    2.8359 C   0  0  0  0  0  0  0  0  0  0  0  0
    9.3361    1.1090    4.1624 C   0  0  0  0  0  0  0  0  0  0  0  0
    7.6680    1.5914    2.4260 N   0  0  0  0  0  0  0  0  0  0  0  0
    4.6410    2.4314    2.3708 H   0  0  0  0  0  0  0  0  0  0  0  0
    5.0760    1.7926    0.7682 H   0  0  0  0  0  0  0  0  0  0  0  0
    5.9873    3.1523    1.4516 H   0  0  0  0  0  0  0  0  0  0  0  0
    4.9010    0.0428    3.3906 H   0  0  0  0  0  0  0  0  0  0  0  0
    3.4880   -1.4062    1.3256 H   0  0  0  0  0  0  0  0  0  0  0  0
    5.5019   -1.5923   -0.9803 H   0  0  0  0  0  0  0  0  0  0  0  0
    4.2405   -0.3858   -0.7936 H   0  0  0  0  0  0  0  0  0  0  0  0
    2.4916   -2.1886   -0.9423 H   0  0  0  0  0  0  0  0  0  0  0  0
    3.7684   -3.3790   -1.1902 H   0  0  0  0  0  0  0  0  0  0  0  0
    4.5324   -2.1297   -3.2376 H   0  0  0  0  0  0  0  0  0  0  0  0
    3.2630   -0.9327   -2.9871 H   0  0  0  0  0  0  0  0  0  0  0  0
    2.7475   -3.9070   -3.5078 H   0  0  0  0  0  0  0  0  0  0  0  0
    2.6609   -2.6155   -4.7169 H   0  0  0  0  0  0  0  0  0  0  0  0
    1.5155   -2.6345   -3.3698 H   0  0  0  0  0  0  0  0  0  0  0  0
    3.7322   -3.0532    2.9681 H   0  0  0  0  0  0  0  0  0  0  0  0
    5.0528   -2.4433    3.9381 H   0  0  0  0  0  0  0  0  0  0  0  0
    5.1600   -4.0612    3.2180 H   0  0  0  0  0  0  0  0  0  0  0  0
    6.8182   -3.0579    0.2372 H   0  0  0  0  0  0  0  0  0  0  0  0
    7.0768   -2.9121    3.9880 H   0  0  0  0  0  0  0  0  0  0  0  0
    8.3256   -1.7343    3.9292 H   0  0  0  0  0  0  0  0  0  0  0  0
    8.7232   -3.4609    3.8409 H   0  0  0  0  0  0  0  0  0  0  0  0
    7.8933   -1.3654   -0.5190 H   0  0  0  0  0  0  0  0  0  0  0  0
    9.2829   -2.4480   -0.8379 H   0  0  0  0  0  0  0  0  0  0  0  0
    9.5271   -0.7498   -0.4953 H   0  0  0  0  0  0  0  0  0  0  0  0
   10.1752   -1.4608    2.9814 H   0  0  0  0  0  0  0  0  0  0  0  0
   10.5232    0.7722    1.8586 H   0  0  0  0  0  0  0  0  0  0  0  0
    8.6977    0.8338    5.0056 H   0  0  0  0  0  0  0  0  0  0  0  0
    9.5739    2.1759    4.2096 H   0  0  0  0  0  0  0  0  0  0  0  0
   10.2832    0.5658    4.3014 H   0  0  0  0  0  0  0  0  0  0  0  0
  1  2  1  0  0  0  0
  1 22  1  0  0  0  0
  1 23  1  0  0  0  0
  1 24  1  0  0  0  0
  2  3  1  0  0  0  0
  2 21  2  3  0  0  0
  3  4  1  0  0  0  0
  3 25  1  0  0  0  0
  4  5  1  0  0  0  0
  4 10  2  0  0  0  0
  5  6  1  0  0  0  0
  5 10  1  0  0  0  0
  5 26  1  0  0  0  0
  6  7  1  0  0  0  0
  6 27  1  0  0  0  0
  6 28  1  0  0  0  0
  7  8  1  0  0  0  0
  7 29  1  0  0  0  0
  7 30  1  0  0  0  0
  8  9  1  0  0  0  0
  8 31  1  0  0  0  0
  8 32  1  0  0  0  0
  9 33  1  0  0  0  0
  9 34  1  0  0  0  0
  9 35  1  0  0  0  0
 10 11  1  0  0  0  0
 10 12  1  0  0  0  0
 11 36  1  0  0  0  0
 11 37  1  0  0  0  0
 11 38  1  0  0  0  0
 12 13  2  3  0  0  0
 12 39  1  0  0  0  0
 13 14  1  0  0  0  0
 13 15  1  0  0  0  0
 14 40  1  0  0  0  0
 14 41  1  0  0  0  0
 14 42  1  0  0  0  0
 15 16  1  0  0  0  0
 15 17  2  3  0  0  0
 16 43  1  0  0  0  0
 16 44  1  0  0  0  0
 16 45  1  0  0  0  0
 17 18  1  0  0  0  0
 17 46  1  0  0  0  0
 18 19  2  3  0  0  0
 18 47  1  0  0  0  0
 19 20  1  0  0  0  0
 19 21  1  0  0  0  0
 20 48  1  0  0  0  0
 20 49  1  0  0  0  0
 20 50  1  0  0  0  0
M  END
$$$$
