
 OpenBabel04232216493D

 63 63  0  0  0  0  0  0  0  0999 V2000
    8.9369   -1.2891   -4.1758 C   0  0  0  0  0  0  0  0  0  0  0  0
    9.2692   -2.7893   -3.9871 C   0  0  0  0  0  0  0  0  0  0  0  0
    7.9313   -3.2644   -3.2464 C   0  0  0  0  0  0  0  0  0  0  0  0
    7.1045   -2.5815   -2.3524 C   0  0  0  0  0  0  0  0  0  0  0  0
    6.1628   -3.0763   -1.2815 C   0  0  0  0  0  0  0  0  0  0  0  0
    6.6703   -3.6891   -0.2159 C   0  0  0  0  0  0  0  0  0  0  0  0
    7.6862   -4.6673   -0.5862 C   0  0  0  0  0  0  0  0  0  0  0  0
    7.0743   -5.8149   -1.4633 C   0  0  0  0  0  0  0  0  0  0  0  0
    8.9878   -4.2777   -0.6441 C   0  0  0  0  0  0  0  0  0  0  0  0
    9.5258   -2.8731   -0.4088 C   0  0  0  0  0  0  0  0  0  0  0  0
    9.8569   -5.3006   -1.1513 C   0  0  0  0  0  0  0  0  0  0  0  0
   11.1122   -5.4218   -1.4112 C   0  0  0  0  0  0  0  0  0  0  0  0
   12.2155   -4.3467   -1.2622 C   0  0  0  0  0  0  0  0  0  0  0  0
   12.7356   -4.2103    0.1548 C   0  0  0  0  0  0  0  0  0  0  0  0
   11.4815   -6.6544   -1.9538 N   0  0  0  0  0  0  0  0  0  0  0  0
   10.7238   -7.3925   -3.0311 C   0  0  0  0  0  0  0  0  0  0  0  0
   12.6626   -7.1192   -1.5090 N   0  0  0  0  0  0  0  0  0  0  0  0
   13.3807   -7.5334   -2.4779 C   0  0  0  0  0  0  0  0  0  0  0  0
   14.7765   -7.9492   -2.4062 C   0  0  0  0  0  0  0  0  0  0  0  0
   14.6974   -9.2573   -3.3207 C   0  0  0  0  0  0  0  0  0  0  0  0
   15.5185   -9.3200   -4.6797 C   0  0  0  0  0  0  0  0  0  0  0  0
   16.2768   -8.0432   -5.0283 C   0  0  0  0  0  0  0  0  0  0  0  0
   15.5088   -6.5768   -5.0317 C   0  0  0  0  0  0  0  0  0  0  0  0
   14.2713   -6.0508   -5.4639 C   0  0  0  0  0  0  0  0  0  0  0  0
   13.2322   -4.7563   -4.8173 C   0  0  0  0  0  0  0  0  0  0  0  0
   11.8065   -4.5673   -4.6679 C   0  0  0  0  0  0  0  0  0  0  0  0
   10.5926   -3.3130   -4.3249 C   0  0  0  0  0  0  0  0  0  0  0  0
    8.1869   -1.3866   -4.9802 H   0  0  0  0  0  0  0  0  0  0  0  0
    8.0280   -0.7795   -3.7542 H   0  0  0  0  0  0  0  0  0  0  0  0
    9.2938   -0.9114   -3.2161 H   0  0  0  0  0  0  0  0  0  0  0  0
    7.5892   -4.2409   -3.5679 H   0  0  0  0  0  0  0  0  0  0  0  0
    7.2664   -1.5402   -2.0663 H   0  0  0  0  0  0  0  0  0  0  0  0
    5.1788   -3.4576   -1.5635 H   0  0  0  0  0  0  0  0  0  0  0  0
    7.0629   -3.0854    0.6405 H   0  0  0  0  0  0  0  0  0  0  0  0
    6.0242   -5.6323   -1.7099 H   0  0  0  0  0  0  0  0  0  0  0  0
    7.1544   -6.8121   -1.0290 H   0  0  0  0  0  0  0  0  0  0  0  0
    7.5528   -5.8599   -2.4565 H   0  0  0  0  0  0  0  0  0  0  0  0
    8.7533   -2.1097   -0.2708 H   0  0  0  0  0  0  0  0  0  0  0  0
   10.0860   -2.5097   -1.2797 H   0  0  0  0  0  0  0  0  0  0  0  0
   10.1727   -2.8066    0.4617 H   0  0  0  0  0  0  0  0  0  0  0  0
    9.2992   -6.1920   -1.4130 H   0  0  0  0  0  0  0  0  0  0  0  0
   11.8893   -3.3568   -1.6157 H   0  0  0  0  0  0  0  0  0  0  0  0
   13.0769   -4.5644   -1.9021 H   0  0  0  0  0  0  0  0  0  0  0  0
   11.9661   -3.8285    0.8251 H   0  0  0  0  0  0  0  0  0  0  0  0
   13.5762   -3.5030    0.1822 H   0  0  0  0  0  0  0  0  0  0  0  0
   13.0843   -5.1690    0.5369 H   0  0  0  0  0  0  0  0  0  0  0  0
    9.6735   -7.0965   -3.1384 H   0  0  0  0  0  0  0  0  0  0  0  0
   10.7750   -8.4674   -2.8657 H   0  0  0  0  0  0  0  0  0  0  0  0
   11.1350   -7.2252   -4.0391 H   0  0  0  0  0  0  0  0  0  0  0  0
   12.9416   -7.5843   -3.4843 H   0  0  0  0  0  0  0  0  0  0  0  0
   15.0594   -8.1134   -1.3590 H   0  0  0  0  0  0  0  0  0  0  0  0
   15.3691   -7.0646   -2.7338 H   0  0  0  0  0  0  0  0  0  0  0  0
   13.9440   -8.9116   -4.0382 H   0  0  0  0  0  0  0  0  0  0  0  0
   15.5880   -9.6921   -2.8522 H   0  0  0  0  0  0  0  0  0  0  0  0
   16.1377  -10.2465   -4.6118 H   0  0  0  0  0  0  0  0  0  0  0  0
   14.8243   -9.5840   -5.4811 H   0  0  0  0  0  0  0  0  0  0  0  0
   16.8168   -8.2464   -5.9689 H   0  0  0  0  0  0  0  0  0  0  0  0
   17.0940   -8.0204   -4.2769 H   0  0  0  0  0  0  0  0  0  0  0  0
   16.4065   -5.8888   -5.0905 H   0  0  0  0  0  0  0  0  0  0  0  0
   14.5697   -5.4469   -6.3550 H   0  0  0  0  0  0  0  0  0  0  0  0
   13.5986   -5.1175   -3.8428 H   0  0  0  0  0  0  0  0  0  0  0  0
   11.4440   -5.3817   -4.0693 H   0  0  0  0  0  0  0  0  0  0  0  0
   10.4745   -3.9675   -3.4291 H   0  0  0  0  0  0  0  0  0  0  0  0
  1  2  1  0  0  0  0
  1 28  1  0  0  0  0
  1 29  1  0  0  0  0
  1 30  1  0  0  0  0
  2  3  1  0  0  0  0
  2 27  2  3  0  0  0
  3  4  2  3  0  0  0
  3 31  1  0  0  0  0
  4  5  1  0  0  0  0
  4 32  1  0  0  0  0
  5  6  2  3  0  0  0
  5 33  1  0  0  0  0
  6  7  1  0  0  0  0
  6 34  1  0  0  0  0
  7  8  1  0  0  0  0
  7  9  2  3  0  0  0
  8 35  1  0  0  0  0
  8 36  1  0  0  0  0
  8 37  1  0  0  0  0
  9 10  1  0  0  0  0
  9 11  1  0  0  0  0
 10 38  1  0  0  0  0
 10 39  1  0  0  0  0
 10 40  1  0  0  0  0
 11 12  2  3  0  0  0
 11 41  1  0  0  0  0
 12 13  1  0  0  0  0
 12 15  1  0  0  0  0
 13 14  1  0  0  0  0
 13 42  1  0  0  0  0
 13 43  1  0  0  0  0
 14 44  1  0  0  0  0
 14 45  1  0  0  0  0
 14 46  1  0  0  0  0
 15 16  1  0  0  0  0
 15 17  1  0  0  0  0
 16 47  1  0  0  0  0
 16 48  1  0  0  0  0
 16 49  1  0  0  0  0
 17 18  2  3  0  0  0
 18 19  1  0  0  0  0
 18 50  1  0  0  0  0
 19 20  1  0  0  0  0
 19 51  1  0  0  0  0
 19 52  1  0  0  0  0
 20 21  1  0  0  0  0
 20 53  1  0  0  0  0
 20 54  1  0  0  0  0
 21 22  1  0  0  0  0
 21 55  1  0  0  0  0
 21 56  1  0  0  0  0
 22 23  1  0  0  0  0
 22 57  1  0  0  0  0
 22 58  1  0  0  0  0
 23 24  2  3  0  0  0
 23 59  1  0  0  0  0
 24 25  1  0  0  0  0
 24 60  1  0  0  0  0
 25 26  2  3  0  0  0
 25 61  1  0  0  0  0
 26 27  1  0  0  0  0
 26 62  1  0  0  0  0
 27 63  1  0  0  0  0
M  END
$$$$
