
 OpenBabel04232216583D

 29 28  0  0  0  0  0  0  0  0999 V2000
    4.5917   -0.8016   -3.6234 N   0  0  0  0  0  0  0  0  0  0  0  0
    4.1486   -1.3758   -2.3993 N   0  0  0  0  0  0  0  0  0  0  0  0
    4.6542   -2.6896   -2.2280 N   0  0  0  0  0  0  0  0  0  0  0  0
    6.0875   -2.7125   -2.1878 N   0  0  0  0  0  0  0  0  0  0  0  0
    6.6018   -2.0098   -1.0441 N   0  0  0  0  0  0  0  0  0  0  0  0
    6.1856   -2.6067    0.1895 N   0  0  0  0  0  0  0  0  0  0  0  0
    6.6884   -3.9432    0.3298 N   0  0  0  0  0  0  0  0  0  0  0  0
    8.1149   -3.9806    0.4943 N   0  0  0  0  0  0  0  0  0  0  0  0
    8.5303   -3.1829    1.6227 N   0  0  0  0  0  0  0  0  0  0  0  0
    8.0861   -3.8172    2.8664 C   0  0  0  0  0  0  0  0  0  0  0  0
    8.5335   -2.9652    4.0514 C   0  0  0  0  0  0  0  0  0  0  0  0
    7.9969   -3.5392    5.3523 C   0  0  0  0  0  0  0  0  0  0  0  0
    4.3775    0.1956   -3.6484 H   0  0  0  0  0  0  0  0  0  0  0  0
    4.1241   -1.2174   -4.4324 H   0  0  0  0  0  0  0  0  0  0  0  0
    3.1278   -1.3563   -2.2712 H   0  0  0  0  0  0  0  0  0  0  0  0
    4.3224   -3.3281   -2.9565 H   0  0  0  0  0  0  0  0  0  0  0  0
    6.4280   -2.2347   -3.0313 H   0  0  0  0  0  0  0  0  0  0  0  0
    6.2437   -1.0480   -1.0869 H   0  0  0  0  0  0  0  0  0  0  0  0
    5.1602   -2.6377    0.1929 H   0  0  0  0  0  0  0  0  0  0  0  0
    6.4286   -4.4650   -0.5144 H   0  0  0  0  0  0  0  0  0  0  0  0
    8.5289   -3.5870   -0.3606 H   0  0  0  0  0  0  0  0  0  0  0  0
    8.0486   -2.2834    1.5331 H   0  0  0  0  0  0  0  0  0  0  0  0
    8.5075   -4.8255    2.9534 H   0  0  0  0  0  0  0  0  0  0  0  0
    6.9927   -3.9042    2.8949 H   0  0  0  0  0  0  0  0  0  0  0  0
    8.1712   -1.9355    3.9400 H   0  0  0  0  0  0  0  0  0  0  0  0
    9.6283   -2.9224    4.0915 H   0  0  0  0  0  0  0  0  0  0  0  0
    6.9016   -3.5356    5.3554 H   0  0  0  0  0  0  0  0  0  0  0  0
    8.3407   -2.9425    6.2016 H   0  0  0  0  0  0  0  0  0  0  0  0
    8.3371   -4.5689    5.4962 H   0  0  0  0  0  0  0  0  0  0  0  0
  1  2  1  0  0  0  0
  1 13  1  0  0  0  0
  1 14  1  0  0  0  0
  2  3  1  0  0  0  0
  2 15  1  0  0  0  0
  3  4  1  0  0  0  0
  3 16  1  0  0  0  0
  4  5  1  0  0  0  0
  4 17  1  0  0  0  0
  5  6  1  0  0  0  0
  5 18  1  0  0  0  0
  6  7  1  0  0  0  0
  6 19  1  0  0  0  0
  7  8  1  0  0  0  0
  7 20  1  0  0  0  0
  8  9  1  0  0  0  0
  8 21  1  0  0  0  0
  9 10  1  0  0  0  0
  9 22  1  0  0  0  0
 10 11  1  0  0  0  0
 10 23  1  0  0  0  0
 10 24  1  0  0  0  0
 11 12  1  0  0  0  0
 11 25  1  0  0  0  0
 11 26  1  0  0  0  0
 12 27  1  0  0  0  0
 12 28  1  0  0  0  0
 12 29  1  0  0  0  0
M  END
$$$$
