
 OpenBabel04232216433D

 19 20  0  0  0  0  0  0  0  0999 V2000
    1.7097    0.0192   -0.3041 C   0  0  0  0  0  0  0  0  0  0  0  0
    1.9460   -0.3420    0.9720 C   0  0  0  0  0  0  0  0  0  0  0  0
    2.8295    0.5953    1.6695 C   0  0  0  0  0  0  0  0  0  0  0  0
    4.0030    0.9661    1.1031 C   0  0  0  0  0  0  0  0  0  0  0  0
    4.7924    1.9764    1.8061 C   0  0  0  0  0  0  0  0  0  0  0  0
    6.1288    2.0763    1.8031 C   0  0  0  0  0  0  0  0  0  0  0  0
    7.0598    1.1690    1.1814 C   0  0  0  0  0  0  0  0  0  0  0  0
    6.8423    0.3787    0.1235 C   0  0  0  0  0  0  0  0  0  0  0  0
    5.6252    0.2389   -0.6479 C   0  0  0  0  0  0  0  0  0  0  0  0
    4.3571    0.4436   -0.2435 C   0  0  0  0  0  0  0  0  0  0  0  0
    3.0781    0.0096   -1.4064 S   0  0  0  0  0  0  0  0  0  0  0  0
    1.0751    0.8865   -0.4766 H   0  0  0  0  0  0  0  0  0  0  0  0
    2.3821   -1.3365    1.1321 H   0  0  0  0  0  0  0  0  0  0  0  0
    2.4950    0.9654    2.6338 H   0  0  0  0  0  0  0  0  0  0  0  0
    4.2267    2.7153    2.3719 H   0  0  0  0  0  0  0  0  0  0  0  0
    6.5840    2.8813    2.3774 H   0  0  0  0  0  0  0  0  0  0  0  0
    8.0512    1.1575    1.6317 H   0  0  0  0  0  0  0  0  0  0  0  0
    7.6678   -0.2379   -0.2279 H   0  0  0  0  0  0  0  0  0  0  0  0
    5.8015   -0.1585   -1.6480 H   0  0  0  0  0  0  0  0  0  0  0  0
  1  2  2  0  0  0  0
  1 11  1  0  0  0  0
  1 12  1  0  0  0  0
  2  3  1  0  0  0  0
  2 13  1  0  0  0  0
  3  4  2  0  0  0  0
  3 14  1  0  0  0  0
  4  5  1  0  0  0  0
  4 10  1  0  0  0  0
  5  6  2  0  0  0  0
  5 15  1  0  0  0  0
  6  7  1  0  0  0  0
  6 16  1  0  0  0  0
  7  8  2  0  0  0  0
  7 17  1  0  0  0  0
  8  9  1  0  0  0  0
  8 18  1  0  0  0  0
  9 10  2  0  0  0  0
  9 19  1  0  0  0  0
 10 11  1  0  0  0  0
M  END
$$$$
