
 OpenBabel04232216523D

 38 37  0  0  0  0  0  0  0  0999 V2000
    0.9610   -0.0418   -0.1156 C   0  0  0  0  0  0  0  0  0  0  0  0
    2.4798   -0.0428   -0.1065 C   0  0  0  0  0  0  0  0  0  0  0  0
    3.0109    0.4341    1.2382 C   0  0  0  0  0  0  0  0  0  0  0  0
    4.5317    0.4362    1.2485 C   0  0  0  0  0  0  0  0  0  0  0  0
    5.0481    0.9140    2.5976 C   0  0  0  0  0  0  0  0  0  0  0  0
    6.5717    0.9189    2.6094 C   0  0  0  0  0  0  0  0  0  0  0  0
    7.0838    1.3907    3.9604 C   0  0  0  0  0  0  0  0  0  0  0  0
    8.6051    1.3922    3.9724 C   0  0  0  0  0  0  0  0  0  0  0  0
    9.1236    1.8675    5.3234 C   0  0  0  0  0  0  0  0  0  0  0  0
   10.6456    1.8695    5.3343 C   0  0  0  0  0  0  0  0  0  0  0  0
   11.1757    2.3435    6.6811 C   0  0  0  0  0  0  0  0  0  0  0  0
   12.6932    2.3444    6.6897 C   0  0  0  0  0  0  0  0  0  0  0  0
    0.5872   -0.3846   -1.0820 H   0  0  0  0  0  0  0  0  0  0  0  0
    0.5732    0.9658    0.0661 H   0  0  0  0  0  0  0  0  0  0  0  0
    0.5686   -0.7060    0.6610 H   0  0  0  0  0  0  0  0  0  0  0  0
    2.8496    0.6079   -0.9080 H   0  0  0  0  0  0  0  0  0  0  0  0
    2.8452   -1.0551   -0.3163 H   0  0  0  0  0  0  0  0  0  0  0  0
    2.6367   -0.2183    2.0374 H   0  0  0  0  0  0  0  0  0  0  0  0
    2.6392    1.4458    1.4464 H   0  0  0  0  0  0  0  0  0  0  0  0
    4.9112    1.0910    0.4560 H   0  0  0  0  0  0  0  0  0  0  0  0
    4.9095   -0.5733    1.0454 H   0  0  0  0  0  0  0  0  0  0  0  0
    4.6819    0.2579    3.3931 H   0  0  0  0  0  0  0  0  0  0  0  0
    4.6745    1.9237    2.8073 H   0  0  0  0  0  0  0  0  0  0  0  0
    6.9472    1.5708    1.8187 H   0  0  0  0  0  0  0  0  0  0  0  0
    6.9452   -0.0922    2.4038 H   0  0  0  0  0  0  0  0  0  0  0  0
    6.7071    0.7347    4.7548 H   0  0  0  0  0  0  0  0  0  0  0  0
    6.7098    2.4006    4.1684 H   0  0  0  0  0  0  0  0  0  0  0  0
    8.9818    2.0479    3.1777 H   0  0  0  0  0  0  0  0  0  0  0  0
    8.9794    0.3822    3.7640 H   0  0  0  0  0  0  0  0  0  0  0  0
    8.7445    1.2113    6.1159 H   0  0  0  0  0  0  0  0  0  0  0  0
    8.7468    2.8764    5.5292 H   0  0  0  0  0  0  0  0  0  0  0  0
   11.0180    2.5240    4.5361 H   0  0  0  0  0  0  0  0  0  0  0  0
   11.0164    0.8592    5.1224 H   0  0  0  0  0  0  0  0  0  0  0  0
   10.8052    1.6892    7.4788 H   0  0  0  0  0  0  0  0  0  0  0  0
   10.8075    3.3543    6.8923 H   0  0  0  0  0  0  0  0  0  0  0  0
   13.0828    1.3382    6.5052 H   0  0  0  0  0  0  0  0  0  0  0  0
   13.0663    2.6853    7.6593 H   0  0  0  0  0  0  0  0  0  0  0  0
   13.0852    3.0120    5.9158 H   0  0  0  0  0  0  0  0  0  0  0  0
  1  2  1  0  0  0  0
  1 13  1  0  0  0  0
  1 14  1  0  0  0  0
  1 15  1  0  0  0  0
  2  3  1  0  0  0  0
  2 16  1  0  0  0  0
  2 17  1  0  0  0  0
  3  4  1  0  0  0  0
  3 18  1  0  0  0  0
  3 19  1  0  0  0  0
  4  5  1  0  0  0  0
  4 20  1  0  0  0  0
  4 21  1  0  0  0  0
  5  6  1  0  0  0  0
  5 22  1  0  0  0  0
  5 23  1  0  0  0  0
  6  7  1  0  0  0  0
  6 24  1  0  0  0  0
  6 25  1  0  0  0  0
  7  8  1  0  0  0  0
  7 26  1  0  0  0  0
  7 27  1  0  0  0  0
  8  9  1  0  0  0  0
  8 28  1  0  0  0  0
  8 29  1  0  0  0  0
  9 10  1  0  0  0  0
  9 30  1  0  0  0  0
  9 31  1  0  0  0  0
 10 11  1  0  0  0  0
 10 32  1  0  0  0  0
 10 33  1  0  0  0  0
 11 12  1  0  0  0  0
 11 34  1  0  0  0  0
 11 35  1  0  0  0  0
 12 36  1  0  0  0  0
 12 37  1  0  0  0  0
 12 38  1  0  0  0  0
M  END
$$$$
