
 OpenBabel04232217003D

230229  0  0  0  0  0  0  0  0999 V2000
    2.6711   -0.9790   -0.5857 O   0  0  0  0  0  0  0  0  0  0  0  0
    2.1445    0.0207   -0.1293 C   0  0  0  0  0  0  0  0  0  0  0  0
    2.9015    1.1839    0.4123 C   0  0  0  0  0  0  0  0  0  0  0  0
    4.3794    0.9315    0.3099 C   0  0  0  0  0  0  0  0  0  0  0  0
    5.0005    2.0773    0.8425 O   0  0  0  0  0  0  0  0  0  0  0  0
    6.4009    1.8031    0.7293 O   0  0  0  0  0  0  0  0  0  0  0  0
    7.1390    2.9114    1.2435 O   0  0  0  0  0  0  0  0  0  0  0  0
    8.5369    2.6354    1.1317 O   0  0  0  0  0  0  0  0  0  0  0  0
    9.1510    3.7859    1.6640 C   0  0  0  0  0  0  0  0  0  0  0  0
   10.6303    3.5330    1.5613 C   0  0  0  0  0  0  0  0  0  0  0  0
   11.3859    4.7168    2.1122 C   0  0  0  0  0  0  0  0  0  0  0  0
   12.8726    4.4566    2.0041 C   0  0  0  0  0  0  0  0  0  0  0  0
   13.6325    5.6448    2.5548 C   0  0  0  0  0  0  0  0  0  0  0  0
   15.1223    5.3917    2.4477 C   0  0  0  0  0  0  0  0  0  0  0  0
   15.8833    6.5811    2.9990 C   0  0  0  0  0  0  0  0  0  0  0  0
   17.3746    6.3303    2.8907 C   0  0  0  0  0  0  0  0  0  0  0  0
   18.1366    7.5207    3.4403 C   0  0  0  0  0  0  0  0  0  0  0  0
   19.6284    7.2695    3.3340 C   0  0  0  0  0  0  0  0  0  0  0  0
   20.3907    8.4589    3.8854 C   0  0  0  0  0  0  0  0  0  0  0  0
   21.8827    8.2086    3.7774 C   0  0  0  0  0  0  0  0  0  0  0  0
   22.6451    9.3973    4.3306 C   0  0  0  0  0  0  0  0  0  0  0  0
   24.1370    9.1479    4.2207 C   0  0  0  0  0  0  0  0  0  0  0  0
   24.8995   10.3356    4.7758 C   0  0  0  0  0  0  0  0  0  0  0  0
   26.3914   10.0871    4.6641 C   0  0  0  0  0  0  0  0  0  0  0  0
   27.1539   11.2749    5.2191 C   0  0  0  0  0  0  0  0  0  0  0  0
   28.6458   11.0272    5.1056 C   0  0  0  0  0  0  0  0  0  0  0  0
   29.4083   12.2149    5.6607 C   0  0  0  0  0  0  0  0  0  0  0  0
   30.9003   11.9672    5.5471 C   0  0  0  0  0  0  0  0  0  0  0  0
   31.6627   13.1550    6.1022 C   0  0  0  0  0  0  0  0  0  0  0  0
   33.1547   12.9073    5.9887 C   0  0  0  0  0  0  0  0  0  0  0  0
   33.9171   14.0951    6.5437 C   0  0  0  0  0  0  0  0  0  0  0  0
   35.4091   13.8474    6.4302 C   0  0  0  0  0  0  0  0  0  0  0  0
   36.1715   15.0360    6.9834 C   0  0  0  0  0  0  0  0  0  0  0  0
   37.6635   14.7883    6.8699 C   0  0  0  0  0  0  0  0  0  0  0  0
   38.4259   15.9769    7.4231 C   0  0  0  0  0  0  0  0  0  0  0  0
   39.9179   15.7293    7.3096 C   0  0  0  0  0  0  0  0  0  0  0  0
   40.6803   16.9170    7.8646 C   0  0  0  0  0  0  0  0  0  0  0  0
   42.1723   16.6702    7.7493 C   0  0  0  0  0  0  0  0  0  0  0  0
   42.9347   17.8588    8.3026 C   0  0  0  0  0  0  0  0  0  0  0  0
   44.4267   17.6111    8.1890 C   0  0  0  0  0  0  0  0  0  0  0  0
   45.1891   18.7989    8.7440 C   0  0  0  0  0  0  0  0  0  0  0  0
   46.6811   18.5521    8.6287 C   0  0  0  0  0  0  0  0  0  0  0  0
   47.4436   19.7398    9.1838 C   0  0  0  0  0  0  0  0  0  0  0  0
   48.9355   19.4930    9.0684 C   0  0  0  0  0  0  0  0  0  0  0  0
   49.6980   20.6808    9.6235 C   0  0  0  0  0  0  0  0  0  0  0  0
   51.1899   20.4339    9.5081 C   0  0  0  0  0  0  0  0  0  0  0  0
   51.9524   21.6217   10.0632 C   0  0  0  0  0  0  0  0  0  0  0  0
   53.4443   21.3757    9.9460 C   0  0  0  0  0  0  0  0  0  0  0  0
   54.2068   22.5626   10.5029 C   0  0  0  0  0  0  0  0  0  0  0  0
   55.6987   22.3158   10.3875 C   0  0  0  0  0  0  0  0  0  0  0  0
   56.4612   23.5027   10.9444 C   0  0  0  0  0  0  0  0  0  0  0  0
   57.9531   23.2567   10.8272 C   0  0  0  0  0  0  0  0  0  0  0  0
   58.7156   24.4445   11.3823 C   0  0  0  0  0  0  0  0  0  0  0  0
   60.2076   24.1994   11.2633 C   0  0  0  0  0  0  0  0  0  0  0  0
   60.9700   25.3863   11.8201 C   0  0  0  0  0  0  0  0  0  0  0  0
   62.4620   25.1403   11.7029 C   0  0  0  0  0  0  0  0  0  0  0  0
   63.2244   26.3281   12.2580 C   0  0  0  0  0  0  0  0  0  0  0  0
   64.7164   26.0821   12.1409 C   0  0  0  0  0  0  0  0  0  0  0  0
   65.4788   27.2690   12.6977 C   0  0  0  0  0  0  0  0  0  0  0  0
   66.9708   27.0230   12.5805 C   0  0  0  0  0  0  0  0  0  0  0  0
   67.7332   28.2099   13.1374 C   0  0  0  0  0  0  0  0  0  0  0  0
   69.2252   27.9639   13.0203 C   0  0  0  0  0  0  0  0  0  0  0  0
   69.9876   29.1509   13.5771 C   0  0  0  0  0  0  0  0  0  0  0  0
   71.4796   28.9049   13.4600 C   0  0  0  0  0  0  0  0  0  0  0  0
   72.2420   30.0918   14.0168 C   0  0  0  0  0  0  0  0  0  0  0  0
   73.7340   29.8458   13.8997 C   0  0  0  0  0  0  0  0  0  0  0  0
   74.4965   31.0327   14.4565 C   0  0  0  0  0  0  0  0  0  0  0  0
   75.9884   30.7867   14.3394 C   0  0  0  0  0  0  0  0  0  0  0  0
   76.7509   31.9745   14.8944 C   0  0  0  0  0  0  0  0  0  0  0  0
   78.2428   31.7285   14.7772 C   0  0  0  0  0  0  0  0  0  0  0  0
   79.0053   32.9163   15.3323 C   0  0  0  0  0  0  0  0  0  0  0  0
   80.4973   32.6703   15.2151 C   0  0  0  0  0  0  0  0  0  0  0  0
   81.2599   33.8582   15.7702 C   0  0  0  0  0  0  0  0  0  0  0  0
   82.7522   33.6123   15.6531 C   0  0  0  0  0  0  0  0  0  0  0  0
   83.5151   34.7996   16.2101 C   0  0  0  0  0  0  0  0  0  0  0  0
   85.0084   34.5547   16.0935 C   0  0  0  0  0  0  0  0  0  0  0  0
   85.7728   35.7427   16.6509 C   0  0  0  0  0  0  0  0  0  0  0  0
   87.2680   35.4993   16.5371 C   0  0  0  0  0  0  0  0  0  0  0  0
   88.0415   36.6842   17.0953 C   0  0  0  0  0  0  0  0  0  0  0  0
   89.5332   36.4379   16.9802 C   0  0  0  0  0  0  0  0  0  0  0  0
    1.0424    0.1092   -0.0974 H   0  0  0  0  0  0  0  0  0  0  0  0
    2.6226    1.3494    1.4588 H   0  0  0  0  0  0  0  0  0  0  0  0
    2.6374    2.0878   -0.1476 H   0  0  0  0  0  0  0  0  0  0  0  0
    4.6991    0.7900   -0.7327 H   0  0  0  0  0  0  0  0  0  0  0  0
    4.6841    0.0458    0.8862 H   0  0  0  0  0  0  0  0  0  0  0  0
    8.8425    3.9233    2.7066 H   0  0  0  0  0  0  0  0  0  0  0  0
    8.8570    4.6671    1.0824 H   0  0  0  0  0  0  0  0  0  0  0  0
   10.8999    3.3473    0.5140 H   0  0  0  0  0  0  0  0  0  0  0  0
   10.8855    2.6155    2.1063 H   0  0  0  0  0  0  0  0  0  0  0  0
   11.1059    4.8836    3.1595 H   0  0  0  0  0  0  0  0  0  0  0  0
   11.1184    5.6226    1.5544 H   0  0  0  0  0  0  0  0  0  0  0  0
   13.1475    4.2855    0.9557 H   0  0  0  0  0  0  0  0  0  0  0  0
   13.1354    3.5488    2.5614 H   0  0  0  0  0  0  0  0  0  0  0  0
   13.3539    5.8129    3.6025 H   0  0  0  0  0  0  0  0  0  0  0  0
   13.3639    6.5506    1.9974 H   0  0  0  0  0  0  0  0  0  0  0  0
   15.3984    5.2227    1.3996 H   0  0  0  0  0  0  0  0  0  0  0  0
   15.3886    4.4849    3.0047 H   0  0  0  0  0  0  0  0  0  0  0  0
   15.6066    6.7488    4.0472 H   0  0  0  0  0  0  0  0  0  0  0  0
   15.6144    7.4876    2.4427 H   0  0  0  0  0  0  0  0  0  0  0  0
   17.6503    6.1610    1.8425 H   0  0  0  0  0  0  0  0  0  0  0  0
   17.6428    5.4243    3.4480 H   0  0  0  0  0  0  0  0  0  0  0  0
   17.8595    7.6908    4.4880 H   0  0  0  0  0  0  0  0  0  0  0  0
   17.8689    8.4262    2.8820 H   0  0  0  0  0  0  0  0  0  0  0  0
   19.9054    7.1006    2.2860 H   0  0  0  0  0  0  0  0  0  0  0  0
   19.8957    6.3630    3.8911 H   0  0  0  0  0  0  0  0  0  0  0  0
   20.1145    8.6267    4.9338 H   0  0  0  0  0  0  0  0  0  0  0  0
   20.1224    9.3656    3.3292 H   0  0  0  0  0  0  0  0  0  0  0  0
   22.1589    8.0422    2.7288 H   0  0  0  0  0  0  0  0  0  0  0  0
   22.1508    7.3011    4.3324 H   0  0  0  0  0  0  0  0  0  0  0  0
   22.3698    9.5628    5.3796 H   0  0  0  0  0  0  0  0  0  0  0  0
   22.3759   10.3051    3.7765 H   0  0  0  0  0  0  0  0  0  0  0  0
   24.4125    8.9837    3.1716 H   0  0  0  0  0  0  0  0  0  0  0  0
   24.4061    8.2393    4.7736 H   0  0  0  0  0  0  0  0  0  0  0  0
   24.6250   10.4989    5.8253 H   0  0  0  0  0  0  0  0  0  0  0  0
   24.6294   11.2445    4.2239 H   0  0  0  0  0  0  0  0  0  0  0  0
   26.6658    9.9239    3.6145 H   0  0  0  0  0  0  0  0  0  0  0  0
   26.6616    9.1782    5.2160 H   0  0  0  0  0  0  0  0  0  0  0  0
   26.8805   11.4372    6.2691 H   0  0  0  0  0  0  0  0  0  0  0  0
   26.8827   12.1839    4.6682 H   0  0  0  0  0  0  0  0  0  0  0  0
   28.9192   10.8648    4.0556 H   0  0  0  0  0  0  0  0  0  0  0  0
   28.9170   10.1181    5.6566 H   0  0  0  0  0  0  0  0  0  0  0  0
   29.1350   12.3773    6.7107 H   0  0  0  0  0  0  0  0  0  0  0  0
   29.1371   13.1240    5.1097 H   0  0  0  0  0  0  0  0  0  0  0  0
   31.1736   11.8049    4.4972 H   0  0  0  0  0  0  0  0  0  0  0  0
   31.1714   11.0582    6.0981 H   0  0  0  0  0  0  0  0  0  0  0  0
   31.3894   13.3174    7.1522 H   0  0  0  0  0  0  0  0  0  0  0  0
   31.3915   14.0641    5.5512 H   0  0  0  0  0  0  0  0  0  0  0  0
   33.4280   12.7450    4.9387 H   0  0  0  0  0  0  0  0  0  0  0  0
   33.4258   11.9982    6.5396 H   0  0  0  0  0  0  0  0  0  0  0  0
   33.6438   14.2575    7.5937 H   0  0  0  0  0  0  0  0  0  0  0  0
   33.6459   15.0042    5.9927 H   0  0  0  0  0  0  0  0  0  0  0  0
   35.6822   13.6837    5.3804 H   0  0  0  0  0  0  0  0  0  0  0  0
   35.6804   12.9391    6.9823 H   0  0  0  0  0  0  0  0  0  0  0  0
   35.8984   15.1998    8.0333 H   0  0  0  0  0  0  0  0  0  0  0  0
   35.9001   15.9443    6.4313 H   0  0  0  0  0  0  0  0  0  0  0  0
   37.9366   14.6246    5.8201 H   0  0  0  0  0  0  0  0  0  0  0  0
   37.9349   13.8800    7.4221 H   0  0  0  0  0  0  0  0  0  0  0  0
   38.1528   16.1407    8.4730 H   0  0  0  0  0  0  0  0  0  0  0  0
   38.1545   16.8852    6.8710 H   0  0  0  0  0  0  0  0  0  0  0  0
   40.1911   15.5669    6.2596 H   0  0  0  0  0  0  0  0  0  0  0  0
   40.1891   14.8202    7.8606 H   0  0  0  0  0  0  0  0  0  0  0  0
   40.4081   17.0785    8.9150 H   0  0  0  0  0  0  0  0  0  0  0  0
   40.4081   17.8264    7.3146 H   0  0  0  0  0  0  0  0  0  0  0  0
   42.4444   16.5073    6.6991 H   0  0  0  0  0  0  0  0  0  0  0  0
   42.4447   15.7616    8.3005 H   0  0  0  0  0  0  0  0  0  0  0  0
   42.6616   18.0226    9.3524 H   0  0  0  0  0  0  0  0  0  0  0  0
   42.6633   18.7671    7.7504 H   0  0  0  0  0  0  0  0  0  0  0  0
   44.7000   17.4487    7.1390 H   0  0  0  0  0  0  0  0  0  0  0  0
   44.6980   16.7021    8.7400 H   0  0  0  0  0  0  0  0  0  0  0  0
   44.9169   18.9603    9.7944 H   0  0  0  0  0  0  0  0  0  0  0  0
   44.9169   19.7082    8.1940 H   0  0  0  0  0  0  0  0  0  0  0  0
   46.9534   18.3906    7.5783 H   0  0  0  0  0  0  0  0  0  0  0  0
   46.9534   17.6427    9.1787 H   0  0  0  0  0  0  0  0  0  0  0  0
   47.1713   19.9013   10.2342 H   0  0  0  0  0  0  0  0  0  0  0  0
   47.1713   20.6492    8.6337 H   0  0  0  0  0  0  0  0  0  0  0  0
   49.2078   19.3315    8.0180 H   0  0  0  0  0  0  0  0  0  0  0  0
   49.2078   18.5837    9.6184 H   0  0  0  0  0  0  0  0  0  0  0  0
   49.4257   20.8422   10.6739 H   0  0  0  0  0  0  0  0  0  0  0  0
   49.4257   21.5901    9.0735 H   0  0  0  0  0  0  0  0  0  0  0  0
   51.4622   20.2725    8.4577 H   0  0  0  0  0  0  0  0  0  0  0  0
   51.4622   19.5246   10.0581 H   0  0  0  0  0  0  0  0  0  0  0  0
   51.6811   21.7822   11.1140 H   0  0  0  0  0  0  0  0  0  0  0  0
   51.6791   22.5313    9.5141 H   0  0  0  0  0  0  0  0  0  0  0  0
   53.7158   21.2166    8.8950 H   0  0  0  0  0  0  0  0  0  0  0  0
   53.7174   20.4653   10.4939 H   0  0  0  0  0  0  0  0  0  0  0  0
   53.9343   22.7227   11.5534 H   0  0  0  0  0  0  0  0  0  0  0  0
   53.9347   23.4727    9.9541 H   0  0  0  0  0  0  0  0  0  0  0  0
   55.9712   22.1558    9.3369 H   0  0  0  0  0  0  0  0  0  0  0  0
   55.9708   21.4057   10.9363 H   0  0  0  0  0  0  0  0  0  0  0  0
   56.1898   23.6619   11.9954 H   0  0  0  0  0  0  0  0  0  0  0  0
   56.1881   24.4131   10.3965 H   0  0  0  0  0  0  0  0  0  0  0  0
   58.2243   23.0962    9.7764 H   0  0  0  0  0  0  0  0  0  0  0  0
   58.2265   22.3471   11.3763 H   0  0  0  0  0  0  0  0  0  0  0  0
   58.4454   24.6041   12.4335 H   0  0  0  0  0  0  0  0  0  0  0  0
   58.4413   25.3544   10.8342 H   0  0  0  0  0  0  0  0  0  0  0  0
   60.4779   24.0411   10.2119 H   0  0  0  0  0  0  0  0  0  0  0  0
   60.4817   23.2887   11.8102 H   0  0  0  0  0  0  0  0  0  0  0  0
   60.6987   25.5455   12.8711 H   0  0  0  0  0  0  0  0  0  0  0  0
   60.6968   26.2966   11.2723 H   0  0  0  0  0  0  0  0  0  0  0  0
   62.7332   24.9798   10.6521 H   0  0  0  0  0  0  0  0  0  0  0  0
   62.7353   24.2307   12.2520 H   0  0  0  0  0  0  0  0  0  0  0  0
   62.9532   26.4886   13.3089 H   0  0  0  0  0  0  0  0  0  0  0  0
   62.9511   27.2377   11.7090 H   0  0  0  0  0  0  0  0  0  0  0  0
   64.9877   25.9229   11.0899 H   0  0  0  0  0  0  0  0  0  0  0  0
   64.9895   25.1717   12.6887 H   0  0  0  0  0  0  0  0  0  0  0  0
   65.2074   27.4281   13.7487 H   0  0  0  0  0  0  0  0  0  0  0  0
   65.2057   28.1794   12.1499 H   0  0  0  0  0  0  0  0  0  0  0  0
   67.2422   26.8639   11.5296 H   0  0  0  0  0  0  0  0  0  0  0  0
   67.2439   26.1126   13.1284 H   0  0  0  0  0  0  0  0  0  0  0  0
   67.4618   28.3691   14.1884 H   0  0  0  0  0  0  0  0  0  0  0  0
   67.4601   29.1203   12.5896 H   0  0  0  0  0  0  0  0  0  0  0  0
   69.4966   27.8048   11.9693 H   0  0  0  0  0  0  0  0  0  0  0  0
   69.4983   27.0536   13.5681 H   0  0  0  0  0  0  0  0  0  0  0  0
   69.7162   29.3100   14.6281 H   0  0  0  0  0  0  0  0  0  0  0  0
   69.7145   30.0612   13.0293 H   0  0  0  0  0  0  0  0  0  0  0  0
   71.7510   28.7457   12.4090 H   0  0  0  0  0  0  0  0  0  0  0  0
   71.7527   27.9945   14.0078 H   0  0  0  0  0  0  0  0  0  0  0  0
   71.9706   30.2509   15.0678 H   0  0  0  0  0  0  0  0  0  0  0  0
   71.9689   31.0022   13.4690 H   0  0  0  0  0  0  0  0  0  0  0  0
   74.0054   29.6867   12.8487 H   0  0  0  0  0  0  0  0  0  0  0  0
   74.0071   28.9354   14.4475 H   0  0  0  0  0  0  0  0  0  0  0  0
   74.2251   31.1919   15.5075 H   0  0  0  0  0  0  0  0  0  0  0  0
   74.2233   31.9431   13.9086 H   0  0  0  0  0  0  0  0  0  0  0  0
   76.2596   30.6262   13.2885 H   0  0  0  0  0  0  0  0  0  0  0  0
   76.2617   29.8771   14.8884 H   0  0  0  0  0  0  0  0  0  0  0  0
   76.4797   32.1351   15.9452 H   0  0  0  0  0  0  0  0  0  0  0  0
   76.4775   32.8841   14.3453 H   0  0  0  0  0  0  0  0  0  0  0  0
   78.5140   31.5680   13.7264 H   0  0  0  0  0  0  0  0  0  0  0  0
   78.5162   30.8189   15.3263 H   0  0  0  0  0  0  0  0  0  0  0  0
   78.7341   33.0769   16.3831 H   0  0  0  0  0  0  0  0  0  0  0  0
   78.7319   33.8259   14.7832 H   0  0  0  0  0  0  0  0  0  0  0  0
   80.7685   32.5097   14.1643 H   0  0  0  0  0  0  0  0  0  0  0  0
   80.7706   31.7607   15.7642 H   0  0  0  0  0  0  0  0  0  0  0  0
   80.9886   34.0187   16.8210 H   0  0  0  0  0  0  0  0  0  0  0  0
   80.9865   34.7677   15.2211 H   0  0  0  0  0  0  0  0  0  0  0  0
   83.0233   33.4530   14.6021 H   0  0  0  0  0  0  0  0  0  0  0  0
   83.0251   32.7019   16.2009 H   0  0  0  0  0  0  0  0  0  0  0  0
   83.2431   34.9584   17.2608 H   0  0  0  0  0  0  0  0  0  0  0  0
   83.2414   35.7096   15.6622 H   0  0  0  0  0  0  0  0  0  0  0  0
   85.2788   34.3949   15.0424 H   0  0  0  0  0  0  0  0  0  0  0  0
   85.2804   33.6438   16.6409 H   0  0  0  0  0  0  0  0  0  0  0  0
   85.4981   35.9016   17.7009 H   0  0  0  0  0  0  0  0  0  0  0  0
   85.4985   36.6518   16.1016 H   0  0  0  0  0  0  0  0  0  0  0  0
   87.5371   35.3382   15.4859 H   0  0  0  0  0  0  0  0  0  0  0  0
   87.5363   34.5864   17.0832 H   0  0  0  0  0  0  0  0  0  0  0  0
   87.7730   36.8439   18.1465 H   0  0  0  0  0  0  0  0  0  0  0  0
   87.7739   37.5962   16.5482 H   0  0  0  0  0  0  0  0  0  0  0  0
   89.8198   35.5422   17.5392 H   0  0  0  0  0  0  0  0  0  0  0  0
   90.0885   37.2900   17.3816 H   0  0  0  0  0  0  0  0  0  0  0  0
   89.8207   36.2978   15.9339 H   0  0  0  0  0  0  0  0  0  0  0  0
  1  2  2  0  0  0  0
  2  3  1  0  0  0  0
  2 81  1  0  0  0  0
  3  4  1  0  0  0  0
  3 82  1  0  0  0  0
  3 83  1  0  0  0  0
  4  5  1  0  0  0  0
  4 84  1  0  0  0  0
  4 85  1  0  0  0  0
  5  6  1  0  0  0  0
  6  7  1  0  0  0  0
  7  8  1  0  0  0  0
  8  9  1  0  0  0  0
  9 10  1  0  0  0  0
  9 86  1  0  0  0  0
  9 87  1  0  0  0  0
 10 11  1  0  0  0  0
 10 88  1  0  0  0  0
 10 89  1  0  0  0  0
 11 12  1  0  0  0  0
 11 90  1  0  0  0  0
 11 91  1  0  0  0  0
 12 13  1  0  0  0  0
 12 92  1  0  0  0  0
 12 93  1  0  0  0  0
 13 14  1  0  0  0  0
 13 94  1  0  0  0  0
 13 95  1  0  0  0  0
 14 15  1  0  0  0  0
 14 96  1  0  0  0  0
 14 97  1  0  0  0  0
 15 16  1  0  0  0  0
 15 98  1  0  0  0  0
 15 99  1  0  0  0  0
 16 17  1  0  0  0  0
 16100  1  0  0  0  0
 16101  1  0  0  0  0
 17 18  1  0  0  0  0
 17102  1  0  0  0  0
 17103  1  0  0  0  0
 18 19  1  0  0  0  0
 18104  1  0  0  0  0
 18105  1  0  0  0  0
 19 20  1  0  0  0  0
 19106  1  0  0  0  0
 19107  1  0  0  0  0
 20 21  1  0  0  0  0
 20108  1  0  0  0  0
 20109  1  0  0  0  0
 21 22  1  0  0  0  0
 21110  1  0  0  0  0
 21111  1  0  0  0  0
 22 23  1  0  0  0  0
 22112  1  0  0  0  0
 22113  1  0  0  0  0
 23 24  1  0  0  0  0
 23114  1  0  0  0  0
 23115  1  0  0  0  0
 24 25  1  0  0  0  0
 24116  1  0  0  0  0
 24117  1  0  0  0  0
 25 26  1  0  0  0  0
 25118  1  0  0  0  0
 25119  1  0  0  0  0
 26 27  1  0  0  0  0
 26120  1  0  0  0  0
 26121  1  0  0  0  0
 27 28  1  0  0  0  0
 27122  1  0  0  0  0
 27123  1  0  0  0  0
 28 29  1  0  0  0  0
 28124  1  0  0  0  0
 28125  1  0  0  0  0
 29 30  1  0  0  0  0
 29126  1  0  0  0  0
 29127  1  0  0  0  0
 30 31  1  0  0  0  0
 30128  1  0  0  0  0
 30129  1  0  0  0  0
 31 32  1  0  0  0  0
 31130  1  0  0  0  0
 31131  1  0  0  0  0
 32 33  1  0  0  0  0
 32132  1  0  0  0  0
 32133  1  0  0  0  0
 33 34  1  0  0  0  0
 33134  1  0  0  0  0
 33135  1  0  0  0  0
 34 35  1  0  0  0  0
 34136  1  0  0  0  0
 34137  1  0  0  0  0
 35 36  1  0  0  0  0
 35138  1  0  0  0  0
 35139  1  0  0  0  0
 36 37  1  0  0  0  0
 36140  1  0  0  0  0
 36141  1  0  0  0  0
 37 38  1  0  0  0  0
 37142  1  0  0  0  0
 37143  1  0  0  0  0
 38 39  1  0  0  0  0
 38144  1  0  0  0  0
 38145  1  0  0  0  0
 39 40  1  0  0  0  0
 39146  1  0  0  0  0
 39147  1  0  0  0  0
 40 41  1  0  0  0  0
 40148  1  0  0  0  0
 40149  1  0  0  0  0
 41 42  1  0  0  0  0
 41150  1  0  0  0  0
 41151  1  0  0  0  0
 42 43  1  0  0  0  0
 42152  1  0  0  0  0
 42153  1  0  0  0  0
 43 44  1  0  0  0  0
 43154  1  0  0  0  0
 43155  1  0  0  0  0
 44 45  1  0  0  0  0
 44156  1  0  0  0  0
 44157  1  0  0  0  0
 45 46  1  0  0  0  0
 45158  1  0  0  0  0
 45159  1  0  0  0  0
 46 47  1  0  0  0  0
 46160  1  0  0  0  0
 46161  1  0  0  0  0
 47 48  1  0  0  0  0
 47162  1  0  0  0  0
 47163  1  0  0  0  0
 48 49  1  0  0  0  0
 48164  1  0  0  0  0
 48165  1  0  0  0  0
 49 50  1  0  0  0  0
 49166  1  0  0  0  0
 49167  1  0  0  0  0
 50 51  1  0  0  0  0
 50168  1  0  0  0  0
 50169  1  0  0  0  0
 51 52  1  0  0  0  0
 51170  1  0  0  0  0
 51171  1  0  0  0  0
 52 53  1  0  0  0  0
 52172  1  0  0  0  0
 52173  1  0  0  0  0
 53 54  1  0  0  0  0
 53174  1  0  0  0  0
 53175  1  0  0  0  0
 54 55  1  0  0  0  0
 54176  1  0  0  0  0
 54177  1  0  0  0  0
 55 56  1  0  0  0  0
 55178  1  0  0  0  0
 55179  1  0  0  0  0
 56 57  1  0  0  0  0
 56180  1  0  0  0  0
 56181  1  0  0  0  0
 57 58  1  0  0  0  0
 57182  1  0  0  0  0
 57183  1  0  0  0  0
 58 59  1  0  0  0  0
 58184  1  0  0  0  0
 58185  1  0  0  0  0
 59 60  1  0  0  0  0
 59186  1  0  0  0  0
 59187  1  0  0  0  0
 60 61  1  0  0  0  0
 60188  1  0  0  0  0
 60189  1  0  0  0  0
 61 62  1  0  0  0  0
 61190  1  0  0  0  0
 61191  1  0  0  0  0
 62 63  1  0  0  0  0
 62192  1  0  0  0  0
 62193  1  0  0  0  0
 63 64  1  0  0  0  0
 63194  1  0  0  0  0
 63195  1  0  0  0  0
 64 65  1  0  0  0  0
 64196  1  0  0  0  0
 64197  1  0  0  0  0
 65 66  1  0  0  0  0
 65198  1  0  0  0  0
 65199  1  0  0  0  0
 66 67  1  0  0  0  0
 66200  1  0  0  0  0
 66201  1  0  0  0  0
 67 68  1  0  0  0  0
 67202  1  0  0  0  0
 67203  1  0  0  0  0
 68 69  1  0  0  0  0
 68204  1  0  0  0  0
 68205  1  0  0  0  0
 69 70  1  0  0  0  0
 69206  1  0  0  0  0
 69207  1  0  0  0  0
 70 71  1  0  0  0  0
 70208  1  0  0  0  0
 70209  1  0  0  0  0
 71 72  1  0  0  0  0
 71210  1  0  0  0  0
 71211  1  0  0  0  0
 72 73  1  0  0  0  0
 72212  1  0  0  0  0
 72213  1  0  0  0  0
 73 74  1  0  0  0  0
 73214  1  0  0  0  0
 73215  1  0  0  0  0
 74 75  1  0  0  0  0
 74216  1  0  0  0  0
 74217  1  0  0  0  0
 75 76  1  0  0  0  0
 75218  1  0  0  0  0
 75219  1  0  0  0  0
 76 77  1  0  0  0  0
 76220  1  0  0  0  0
 76221  1  0  0  0  0
 77 78  1  0  0  0  0
 77222  1  0  0  0  0
 77223  1  0  0  0  0
 78 79  1  0  0  0  0
 78224  1  0  0  0  0
 78225  1  0  0  0  0
 79 80  1  0  0  0  0
 79226  1  0  0  0  0
 79227  1  0  0  0  0
 80228  1  0  0  0  0
 80229  1  0  0  0  0
 80230  1  0  0  0  0
M  END
$$$$
