
 OpenBabel04232217013D

242241  0  0  0  0  0  0  0  0999 V2000
    0.9916    0.0599    0.0143 O   0  0  0  0  0  0  0  0  0  0  0  0
    2.4431    0.0167   -0.0089 N   0  0  0  0  0  0  0  0  0  0  0  0
    2.8745    0.6816    1.2211 C   0  0  0  0  0  0  0  0  0  0  0  0
    4.4005    0.6960    1.2587 C   0  0  0  0  0  0  0  0  0  0  0  0
    4.9184    1.3796    2.5199 C   0  0  0  0  0  0  0  0  0  0  0  0
    6.4418    1.3790    2.5360 C   0  0  0  0  0  0  0  0  0  0  0  0
    6.9631    2.0594    3.7927 C   0  0  0  0  0  0  0  0  0  0  0  0
    8.4834    2.0542    3.8041 C   0  0  0  0  0  0  0  0  0  0  0  0
    8.9991    2.7345    5.0607 C   0  0  0  0  0  0  0  0  0  0  0  0
   10.5177    2.7307    5.0708 C   0  0  0  0  0  0  0  0  0  0  0  0
   11.0298    3.4094    6.3283 C   0  0  0  0  0  0  0  0  0  0  0  0
   12.5473    3.4071    6.3368 C   0  0  0  0  0  0  0  0  0  0  0  0
   13.0582    4.0873    7.5932 C   0  0  0  0  0  0  0  0  0  0  0  0
   14.5752    4.0864    7.6000 C   0  0  0  0  0  0  0  0  0  0  0  0
   15.0857    4.7666    8.8561 C   0  0  0  0  0  0  0  0  0  0  0  0
   16.6025    4.7672    8.8614 C   0  0  0  0  0  0  0  0  0  0  0  0
   17.1127    5.4490   10.1165 C   0  0  0  0  0  0  0  0  0  0  0  0
   18.6294    5.4478   10.1224 C   0  0  0  0  0  0  0  0  0  0  0  0
   19.1396    6.1277   11.3784 C   0  0  0  0  0  0  0  0  0  0  0  0
   20.6563    6.1280   11.3831 C   0  0  0  0  0  0  0  0  0  0  0  0
   21.1665    6.8063   12.6398 C   0  0  0  0  0  0  0  0  0  0  0  0
   22.6836    6.8081   12.6432 C   0  0  0  0  0  0  0  0  0  0  0  0
   23.1932    7.4886   13.9001 C   0  0  0  0  0  0  0  0  0  0  0  0
   24.7099    7.4926   13.9032 C   0  0  0  0  0  0  0  0  0  0  0  0
   25.2208    8.1727   15.1591 C   0  0  0  0  0  0  0  0  0  0  0  0
   26.7376    8.1754   15.1644 C   0  0  0  0  0  0  0  0  0  0  0  0
   27.2476    8.8563   16.4219 C   0  0  0  0  0  0  0  0  0  0  0  0
   28.7639    8.8591   16.4250 C   0  0  0  0  0  0  0  0  0  0  0  0
   29.2739    9.5356   17.6823 C   0  0  0  0  0  0  0  0  0  0  0  0
   30.7914    9.5410   17.6882 C   0  0  0  0  0  0  0  0  0  0  0  0
   31.3004   10.2203   18.9399 C   0  0  0  0  0  0  0  0  0  0  0  0
   32.8178   10.2208   18.9485 C   0  0  0  0  0  0  0  0  0  0  0  0
   33.3264   10.9032   20.2005 C   0  0  0  0  0  0  0  0  0  0  0  0
   34.8433   10.9034   20.2074 C   0  0  0  0  0  0  0  0  0  0  0  0
   35.3540   11.5834   21.4627 C   0  0  0  0  0  0  0  0  0  0  0  0
   36.8701   11.5855   21.4669 C   0  0  0  0  0  0  0  0  0  0  0  0
   37.3799   12.2638   22.7236 C   0  0  0  0  0  0  0  0  0  0  0  0
   38.8965   12.2678   22.7268 C   0  0  0  0  0  0  0  0  0  0  0  0
   39.4065   12.9478   23.9828 C   0  0  0  0  0  0  0  0  0  0  0  0
   40.9231   12.9501   23.9870 C   0  0  0  0  0  0  0  0  0  0  0  0
   41.4330   13.6284   25.2441 C   0  0  0  0  0  0  0  0  0  0  0  0
   42.9498   13.6307   25.2481 C   0  0  0  0  0  0  0  0  0  0  0  0
   43.4598   14.3090   26.5051 C   0  0  0  0  0  0  0  0  0  0  0  0
   44.9764   14.3113   26.5093 C   0  0  0  0  0  0  0  0  0  0  0  0
   45.4865   14.9895   27.7663 C   0  0  0  0  0  0  0  0  0  0  0  0
   47.0031   14.9918   27.7704 C   0  0  0  0  0  0  0  0  0  0  0  0
   47.5131   15.6701   29.0274 C   0  0  0  0  0  0  0  0  0  0  0  0
   49.0298   15.6724   29.0316 C   0  0  0  0  0  0  0  0  0  0  0  0
   49.5398   16.3507   30.2886 C   0  0  0  0  0  0  0  0  0  0  0  0
   51.0564   16.3512   30.2937 C   0  0  0  0  0  0  0  0  0  0  0  0
   51.5665   17.0295   31.5507 C   0  0  0  0  0  0  0  0  0  0  0  0
   53.0831   17.0317   31.5549 C   0  0  0  0  0  0  0  0  0  0  0  0
   53.5931   17.7082   32.8129 C   0  0  0  0  0  0  0  0  0  0  0  0
   55.1097   17.7123   32.8160 C   0  0  0  0  0  0  0  0  0  0  0  0
   55.6198   18.3906   34.0730 C   0  0  0  0  0  0  0  0  0  0  0  0
   57.1364   18.3928   34.0772 C   0  0  0  0  0  0  0  0  0  0  0  0
   57.6464   19.0729   35.3332 C   0  0  0  0  0  0  0  0  0  0  0  0
   59.1631   19.0770   35.3365 C   0  0  0  0  0  0  0  0  0  0  0  0
   59.6731   19.7570   36.5925 C   0  0  0  0  0  0  0  0  0  0  0  0
   61.1898   19.7593   36.5967 C   0  0  0  0  0  0  0  0  0  0  0  0
   61.6998   20.4394   37.8527 C   0  0  0  0  0  0  0  0  0  0  0  0
   63.2165   20.4417   37.8569 C   0  0  0  0  0  0  0  0  0  0  0  0
   63.7266   21.1217   39.1130 C   0  0  0  0  0  0  0  0  0  0  0  0
   65.2432   21.1240   39.1172 C   0  0  0  0  0  0  0  0  0  0  0  0
   65.7533   21.8041   40.3732 C   0  0  0  0  0  0  0  0  0  0  0  0
   67.2700   21.8065   40.3775 C   0  0  0  0  0  0  0  0  0  0  0  0
   67.7801   22.4866   41.6337 C   0  0  0  0  0  0  0  0  0  0  0  0
   69.2970   22.4889   41.6381 C   0  0  0  0  0  0  0  0  0  0  0  0
   69.8075   23.1691   42.8942 C   0  0  0  0  0  0  0  0  0  0  0  0
   71.3247   23.1735   42.8982 C   0  0  0  0  0  0  0  0  0  0  0  0
   71.8352   23.8538   44.1545 C   0  0  0  0  0  0  0  0  0  0  0  0
   73.3527   23.8587   44.1592 C   0  0  0  0  0  0  0  0  0  0  0  0
   73.8641   24.5388   45.4156 C   0  0  0  0  0  0  0  0  0  0  0  0
   75.3823   24.5439   45.4206 C   0  0  0  0  0  0  0  0  0  0  0  0
   75.8953   25.2243   46.6772 C   0  0  0  0  0  0  0  0  0  0  0  0
   77.4146   25.2316   46.6823 C   0  0  0  0  0  0  0  0  0  0  0  0
   77.9315   25.9122   47.9392 C   0  0  0  0  0  0  0  0  0  0  0  0
   79.4527   25.9203   47.9457 C   0  0  0  0  0  0  0  0  0  0  0  0
   79.9737   26.6035   49.2037 C   0  0  0  0  0  0  0  0  0  0  0  0
   81.4951   26.6162   49.2221 C   0  0  0  0  0  0  0  0  0  0  0  0
   82.0105   27.2982   50.4777 C   0  0  0  0  0  0  0  0  0  0  0  0
    0.7643   -0.7947   -0.4138 H   0  0  0  0  0  0  0  0  0  0  0  0
    2.6690    0.6388   -0.7919 H   0  0  0  0  0  0  0  0  0  0  0  0
    2.4856    0.1519    2.0989 H   0  0  0  0  0  0  0  0  0  0  0  0
    2.4958    1.7116    1.2499 H   0  0  0  0  0  0  0  0  0  0  0  0
    4.7919    1.2212    0.3786 H   0  0  0  0  0  0  0  0  0  0  0  0
    4.7850   -0.3318    1.2185 H   0  0  0  0  0  0  0  0  0  0  0  0
    4.5391    0.8628    3.4096 H   0  0  0  0  0  0  0  0  0  0  0  0
    4.5502    2.4122    2.5621 H   0  0  0  0  0  0  0  0  0  0  0  0
    6.8248    1.8994    1.6494 H   0  0  0  0  0  0  0  0  0  0  0  0
    6.8154    0.3485    2.4923 H   0  0  0  0  0  0  0  0  0  0  0  0
    6.5843    1.5413    4.6822 H   0  0  0  0  0  0  0  0  0  0  0  0
    6.5962    3.0921    3.8376 H   0  0  0  0  0  0  0  0  0  0  0  0
    8.8662    2.5735    2.9168 H   0  0  0  0  0  0  0  0  0  0  0  0
    8.8546    1.0228    3.7612 H   0  0  0  0  0  0  0  0  0  0  0  0
    8.6201    2.2150    5.9494 H   0  0  0  0  0  0  0  0  0  0  0  0
    8.6295    3.7663    5.1059 H   0  0  0  0  0  0  0  0  0  0  0  0
   10.8988    3.2521    4.1841 H   0  0  0  0  0  0  0  0  0  0  0  0
   10.8896    1.6997    5.0258 H   0  0  0  0  0  0  0  0  0  0  0  0
   10.6510    2.8875    7.2157 H   0  0  0  0  0  0  0  0  0  0  0  0
   10.6581    4.4404    6.3749 H   0  0  0  0  0  0  0  0  0  0  0  0
   12.9272    3.9282    5.4493 H   0  0  0  0  0  0  0  0  0  0  0  0
   12.9202    2.3764    6.2923 H   0  0  0  0  0  0  0  0  0  0  0  0
   12.6802    3.5657    8.4812 H   0  0  0  0  0  0  0  0  0  0  0  0
   12.6850    5.1179    7.6389 H   0  0  0  0  0  0  0  0  0  0  0  0
   14.9536    4.6083    6.7123 H   0  0  0  0  0  0  0  0  0  0  0  0
   14.9490    3.0561    7.5546 H   0  0  0  0  0  0  0  0  0  0  0  0
   14.7089    4.2441    9.7440 H   0  0  0  0  0  0  0  0  0  0  0  0
   14.7112    5.7967    8.9024 H   0  0  0  0  0  0  0  0  0  0  0  0
   16.9796    5.2886    7.9730 H   0  0  0  0  0  0  0  0  0  0  0  0
   16.9771    3.7371    8.8166 H   0  0  0  0  0  0  0  0  0  0  0  0
   16.7347    4.9286   11.0051 H   0  0  0  0  0  0  0  0  0  0  0  0
   16.7394    6.4796   10.1605 H   0  0  0  0  0  0  0  0  0  0  0  0
   19.0074    5.9695    9.2346 H   0  0  0  0  0  0  0  0  0  0  0  0
   19.0029    4.4173   10.0770 H   0  0  0  0  0  0  0  0  0  0  0  0
   18.7628    5.6050   12.2662 H   0  0  0  0  0  0  0  0  0  0  0  0
   18.7652    7.1578   11.4248 H   0  0  0  0  0  0  0  0  0  0  0  0
   21.0330    6.6518   10.4959 H   0  0  0  0  0  0  0  0  0  0  0  0
   21.0308    5.0980   11.3352 H   0  0  0  0  0  0  0  0  0  0  0  0
   20.7906    6.2820   13.5271 H   0  0  0  0  0  0  0  0  0  0  0  0
   20.7910    7.8360   12.6878 H   0  0  0  0  0  0  0  0  0  0  0  0
   23.0584    7.3329   11.7564 H   0  0  0  0  0  0  0  0  0  0  0  0
   23.0591    5.7792   12.5960 H   0  0  0  0  0  0  0  0  0  0  0  0
   22.8185    6.9643   14.7878 H   0  0  0  0  0  0  0  0  0  0  0  0
   22.8163    8.5178   13.9477 H   0  0  0  0  0  0  0  0  0  0  0  0
   25.0844    8.0169   13.0154 H   0  0  0  0  0  0  0  0  0  0  0  0
   25.0859    6.4631   13.8550 H   0  0  0  0  0  0  0  0  0  0  0  0
   24.8449    7.6496   16.0472 H   0  0  0  0  0  0  0  0  0  0  0  0
   24.8455    9.2023   15.2057 H   0  0  0  0  0  0  0  0  0  0  0  0
   27.1139    8.6989   14.2769 H   0  0  0  0  0  0  0  0  0  0  0  0
   27.1136    7.1458   15.1178 H   0  0  0  0  0  0  0  0  0  0  0  0
   26.8712    8.3319   17.3086 H   0  0  0  0  0  0  0  0  0  0  0  0
   26.8705    9.8851   16.4682 H   0  0  0  0  0  0  0  0  0  0  0  0
   29.1395    9.3821   15.5380 H   0  0  0  0  0  0  0  0  0  0  0  0
   29.1394    7.8286   16.3778 H   0  0  0  0  0  0  0  0  0  0  0  0
   28.8996    9.0136   18.5685 H   0  0  0  0  0  0  0  0  0  0  0  0
   28.8989   10.5671   17.7295 H   0  0  0  0  0  0  0  0  0  0  0  0
   31.1681   10.0632   16.7974 H   0  0  0  0  0  0  0  0  0  0  0  0
   31.1670    8.5102   17.6398 H   0  0  0  0  0  0  0  0  0  0  0  0
   30.9274    9.6962   19.8279 H   0  0  0  0  0  0  0  0  0  0  0  0
   30.9248   11.2487   18.9924 H   0  0  0  0  0  0  0  0  0  0  0  0
   33.1941   10.7465   18.0575 H   0  0  0  0  0  0  0  0  0  0  0  0
   33.1948    9.1931   18.9005 H   0  0  0  0  0  0  0  0  0  0  0  0
   32.9502   10.3812   21.0907 H   0  0  0  0  0  0  0  0  0  0  0  0
   32.9530   11.9335   20.2475 H   0  0  0  0  0  0  0  0  0  0  0  0
   35.2207   11.4260   19.3191 H   0  0  0  0  0  0  0  0  0  0  0  0
   35.2184    9.8732   20.1605 H   0  0  0  0  0  0  0  0  0  0  0  0
   34.9776   11.0598   22.3507 H   0  0  0  0  0  0  0  0  0  0  0  0
   34.9776   12.6129   21.5096 H   0  0  0  0  0  0  0  0  0  0  0  0
   37.2456   12.1101   20.5794 H   0  0  0  0  0  0  0  0  0  0  0  0
   37.2457   10.5559   21.4184 H   0  0  0  0  0  0  0  0  0  0  0  0
   37.0052   11.7382   23.6106 H   0  0  0  0  0  0  0  0  0  0  0  0
   37.0029   13.2928   22.7726 H   0  0  0  0  0  0  0  0  0  0  0  0
   39.2712   12.7922   21.8390 H   0  0  0  0  0  0  0  0  0  0  0  0
   39.2734   11.2387   22.6791 H   0  0  0  0  0  0  0  0  0  0  0  0
   39.0307   12.4243   24.8706 H   0  0  0  0  0  0  0  0  0  0  0  0
   39.0307   13.9774   24.0297 H   0  0  0  0  0  0  0  0  0  0  0  0
   41.2989   13.4749   23.0999 H   0  0  0  0  0  0  0  0  0  0  0  0
   41.2990   11.9207   23.9386 H   0  0  0  0  0  0  0  0  0  0  0  0
   41.0574   13.1037   26.1310 H   0  0  0  0  0  0  0  0  0  0  0  0
   41.0573   14.6579   25.2923 H   0  0  0  0  0  0  0  0  0  0  0  0
   43.3256   14.1554   24.3611 H   0  0  0  0  0  0  0  0  0  0  0  0
   43.3256   12.6012   25.1997 H   0  0  0  0  0  0  0  0  0  0  0  0
   43.0840   13.7842   27.3921 H   0  0  0  0  0  0  0  0  0  0  0  0
   43.0840   15.3385   26.5535 H   0  0  0  0  0  0  0  0  0  0  0  0
   45.3522   14.8360   25.6222 H   0  0  0  0  0  0  0  0  0  0  0  0
   45.3522   13.2818   26.4609 H   0  0  0  0  0  0  0  0  0  0  0  0
   45.1107   14.4648   28.6533 H   0  0  0  0  0  0  0  0  0  0  0  0
   45.1107   16.0190   27.8146 H   0  0  0  0  0  0  0  0  0  0  0  0
   47.3789   15.5166   26.8834 H   0  0  0  0  0  0  0  0  0  0  0  0
   47.3789   13.9623   27.7221 H   0  0  0  0  0  0  0  0  0  0  0  0
   47.1373   15.1453   29.9145 H   0  0  0  0  0  0  0  0  0  0  0  0
   47.1373   16.6996   29.0758 H   0  0  0  0  0  0  0  0  0  0  0  0
   49.4056   16.1971   28.1446 H   0  0  0  0  0  0  0  0  0  0  0  0
   49.4055   14.6429   28.9832 H   0  0  0  0  0  0  0  0  0  0  0  0
   49.1629   15.8268   31.1757 H   0  0  0  0  0  0  0  0  0  0  0  0
   49.1651   17.3806   30.3362 H   0  0  0  0  0  0  0  0  0  0  0  0
   51.4333   16.8751   29.4066 H   0  0  0  0  0  0  0  0  0  0  0  0
   51.4311   15.3212   30.2461 H   0  0  0  0  0  0  0  0  0  0  0  0
   51.1906   16.5047   32.4377 H   0  0  0  0  0  0  0  0  0  0  0  0
   51.1907   18.0589   31.5991 H   0  0  0  0  0  0  0  0  0  0  0  0
   53.4588   17.5577   30.6686 H   0  0  0  0  0  0  0  0  0  0  0  0
   53.4590   16.0023   31.5051 H   0  0  0  0  0  0  0  0  0  0  0  0
   53.2185   17.1814   33.6991 H   0  0  0  0  0  0  0  0  0  0  0  0
   53.2161   18.7372   32.8633 H   0  0  0  0  0  0  0  0  0  0  0  0
   55.4844   18.2379   31.9291 H   0  0  0  0  0  0  0  0  0  0  0  0
   55.4867   16.6832   32.7669 H   0  0  0  0  0  0  0  0  0  0  0  0
   55.2441   17.8658   34.9601 H   0  0  0  0  0  0  0  0  0  0  0  0
   55.2439   19.4200   34.1214 H   0  0  0  0  0  0  0  0  0  0  0  0
   57.5122   18.9164   33.1894 H   0  0  0  0  0  0  0  0  0  0  0  0
   57.5122   17.3633   34.0303 H   0  0  0  0  0  0  0  0  0  0  0  0
   57.2718   18.5486   36.2210 H   0  0  0  0  0  0  0  0  0  0  0  0
   57.2695   20.1020   35.3809 H   0  0  0  0  0  0  0  0  0  0  0  0
   59.5377   19.6013   34.4487 H   0  0  0  0  0  0  0  0  0  0  0  0
   59.5400   18.0479   35.2888 H   0  0  0  0  0  0  0  0  0  0  0  0
   59.2974   19.2335   37.4803 H   0  0  0  0  0  0  0  0  0  0  0  0
   59.2973   20.7866   36.6394 H   0  0  0  0  0  0  0  0  0  0  0  0
   61.5655   20.2828   35.7089 H   0  0  0  0  0  0  0  0  0  0  0  0
   61.5656   18.7298   36.5498 H   0  0  0  0  0  0  0  0  0  0  0  0
   61.3240   19.9159   38.7405 H   0  0  0  0  0  0  0  0  0  0  0  0
   61.3240   21.4690   37.8997 H   0  0  0  0  0  0  0  0  0  0  0  0
   63.5922   20.9652   36.9692 H   0  0  0  0  0  0  0  0  0  0  0  0
   63.5923   19.4121   37.8100 H   0  0  0  0  0  0  0  0  0  0  0  0
   63.3508   20.5983   40.0008 H   0  0  0  0  0  0  0  0  0  0  0  0
   63.3508   22.1513   39.1599 H   0  0  0  0  0  0  0  0  0  0  0  0
   65.6190   21.6475   38.2294 H   0  0  0  0  0  0  0  0  0  0  0  0
   65.6190   20.0945   39.0702 H   0  0  0  0  0  0  0  0  0  0  0  0
   65.3775   21.2807   41.2610 H   0  0  0  0  0  0  0  0  0  0  0  0
   65.3775   22.8337   40.4201 H   0  0  0  0  0  0  0  0  0  0  0  0
   67.6458   22.3300   39.4898 H   0  0  0  0  0  0  0  0  0  0  0  0
   67.6458   20.7769   40.3306 H   0  0  0  0  0  0  0  0  0  0  0  0
   67.4042   21.9630   42.5214 H   0  0  0  0  0  0  0  0  0  0  0  0
   67.4041   23.5160   41.6806 H   0  0  0  0  0  0  0  0  0  0  0  0
   69.6726   23.0122   40.7501 H   0  0  0  0  0  0  0  0  0  0  0  0
   69.6724   21.4593   41.5913 H   0  0  0  0  0  0  0  0  0  0  0  0
   69.4326   22.6445   43.7818 H   0  0  0  0  0  0  0  0  0  0  0  0
   69.4302   24.1981   42.9419 H   0  0  0  0  0  0  0  0  0  0  0  0
   71.6992   23.6977   42.0103 H   0  0  0  0  0  0  0  0  0  0  0  0
   71.7013   22.1443   42.8506 H   0  0  0  0  0  0  0  0  0  0  0  0
   71.4601   23.3293   45.0419 H   0  0  0  0  0  0  0  0  0  0  0  0
   71.4579   24.8828   44.2019 H   0  0  0  0  0  0  0  0  0  0  0  0
   73.7269   24.3829   43.2712 H   0  0  0  0  0  0  0  0  0  0  0  0
   73.7294   22.8295   44.1112 H   0  0  0  0  0  0  0  0  0  0  0  0
   73.4891   24.0143   46.3031 H   0  0  0  0  0  0  0  0  0  0  0  0
   73.4866   25.5677   45.4630 H   0  0  0  0  0  0  0  0  0  0  0  0
   75.7560   25.0678   44.5322 H   0  0  0  0  0  0  0  0  0  0  0  0
   75.7584   23.5146   45.3723 H   0  0  0  0  0  0  0  0  0  0  0  0
   75.5209   24.6988   47.5643 H   0  0  0  0  0  0  0  0  0  0  0  0
   75.5163   26.2526   46.7251 H   0  0  0  0  0  0  0  0  0  0  0  0
   77.7864   25.7562   45.7936 H   0  0  0  0  0  0  0  0  0  0  0  0
   77.7911   24.2025   46.6329 H   0  0  0  0  0  0  0  0  0  0  0  0
   77.5564   25.3868   48.8261 H   0  0  0  0  0  0  0  0  0  0  0  0
   77.5516   26.9401   47.9870 H   0  0  0  0  0  0  0  0  0  0  0  0
   79.8240   26.4435   47.0561 H   0  0  0  0  0  0  0  0  0  0  0  0
   79.8284   24.8911   47.8978 H   0  0  0  0  0  0  0  0  0  0  0  0
   79.5932   26.0797   50.0895 H   0  0  0  0  0  0  0  0  0  0  0  0
   79.5907   27.6311   49.2476 H   0  0  0  0  0  0  0  0  0  0  0  0
   81.8757   27.1419   48.3389 H   0  0  0  0  0  0  0  0  0  0  0  0
   81.8781   25.5901   49.1809 H   0  0  0  0  0  0  0  0  0  0  0  0
   81.6592   28.3340   50.5277 H   0  0  0  0  0  0  0  0  0  0  0  0
   83.1028   27.3041   50.4849 H   0  0  0  0  0  0  0  0  0  0  0  0
   81.6620   26.7746   51.3738 H   0  0  0  0  0  0  0  0  0  0  0  0
  1  2  1  0  0  0  0
  1 82  1  0  0  0  0
  2  3  1  0  0  0  0
  2 83  1  0  0  0  0
  3  4  1  0  0  0  0
  3 84  1  0  0  0  0
  3 85  1  0  0  0  0
  4  5  1  0  0  0  0
  4 86  1  0  0  0  0
  4 87  1  0  0  0  0
  5  6  1  0  0  0  0
  5 88  1  0  0  0  0
  5 89  1  0  0  0  0
  6  7  1  0  0  0  0
  6 90  1  0  0  0  0
  6 91  1  0  0  0  0
  7  8  1  0  0  0  0
  7 92  1  0  0  0  0
  7 93  1  0  0  0  0
  8  9  1  0  0  0  0
  8 94  1  0  0  0  0
  8 95  1  0  0  0  0
  9 10  1  0  0  0  0
  9 96  1  0  0  0  0
  9 97  1  0  0  0  0
 10 11  1  0  0  0  0
 10 98  1  0  0  0  0
 10 99  1  0  0  0  0
 11 12  1  0  0  0  0
 11100  1  0  0  0  0
 11101  1  0  0  0  0
 12 13  1  0  0  0  0
 12102  1  0  0  0  0
 12103  1  0  0  0  0
 13 14  1  0  0  0  0
 13104  1  0  0  0  0
 13105  1  0  0  0  0
 14 15  1  0  0  0  0
 14106  1  0  0  0  0
 14107  1  0  0  0  0
 15 16  1  0  0  0  0
 15108  1  0  0  0  0
 15109  1  0  0  0  0
 16 17  1  0  0  0  0
 16110  1  0  0  0  0
 16111  1  0  0  0  0
 17 18  1  0  0  0  0
 17112  1  0  0  0  0
 17113  1  0  0  0  0
 18 19  1  0  0  0  0
 18114  1  0  0  0  0
 18115  1  0  0  0  0
 19 20  1  0  0  0  0
 19116  1  0  0  0  0
 19117  1  0  0  0  0
 20 21  1  0  0  0  0
 20118  1  0  0  0  0
 20119  1  0  0  0  0
 21 22  1  0  0  0  0
 21120  1  0  0  0  0
 21121  1  0  0  0  0
 22 23  1  0  0  0  0
 22122  1  0  0  0  0
 22123  1  0  0  0  0
 23 24  1  0  0  0  0
 23124  1  0  0  0  0
 23125  1  0  0  0  0
 24 25  1  0  0  0  0
 24126  1  0  0  0  0
 24127  1  0  0  0  0
 25 26  1  0  0  0  0
 25128  1  0  0  0  0
 25129  1  0  0  0  0
 26 27  1  0  0  0  0
 26130  1  0  0  0  0
 26131  1  0  0  0  0
 27 28  1  0  0  0  0
 27132  1  0  0  0  0
 27133  1  0  0  0  0
 28 29  1  0  0  0  0
 28134  1  0  0  0  0
 28135  1  0  0  0  0
 29 30  1  0  0  0  0
 29136  1  0  0  0  0
 29137  1  0  0  0  0
 30 31  1  0  0  0  0
 30138  1  0  0  0  0
 30139  1  0  0  0  0
 31 32  1  0  0  0  0
 31140  1  0  0  0  0
 31141  1  0  0  0  0
 32 33  1  0  0  0  0
 32142  1  0  0  0  0
 32143  1  0  0  0  0
 33 34  1  0  0  0  0
 33144  1  0  0  0  0
 33145  1  0  0  0  0
 34 35  1  0  0  0  0
 34146  1  0  0  0  0
 34147  1  0  0  0  0
 35 36  1  0  0  0  0
 35148  1  0  0  0  0
 35149  1  0  0  0  0
 36 37  1  0  0  0  0
 36150  1  0  0  0  0
 36151  1  0  0  0  0
 37 38  1  0  0  0  0
 37152  1  0  0  0  0
 37153  1  0  0  0  0
 38 39  1  0  0  0  0
 38154  1  0  0  0  0
 38155  1  0  0  0  0
 39 40  1  0  0  0  0
 39156  1  0  0  0  0
 39157  1  0  0  0  0
 40 41  1  0  0  0  0
 40158  1  0  0  0  0
 40159  1  0  0  0  0
 41 42  1  0  0  0  0
 41160  1  0  0  0  0
 41161  1  0  0  0  0
 42 43  1  0  0  0  0
 42162  1  0  0  0  0
 42163  1  0  0  0  0
 43 44  1  0  0  0  0
 43164  1  0  0  0  0
 43165  1  0  0  0  0
 44 45  1  0  0  0  0
 44166  1  0  0  0  0
 44167  1  0  0  0  0
 45 46  1  0  0  0  0
 45168  1  0  0  0  0
 45169  1  0  0  0  0
 46 47  1  0  0  0  0
 46170  1  0  0  0  0
 46171  1  0  0  0  0
 47 48  1  0  0  0  0
 47172  1  0  0  0  0
 47173  1  0  0  0  0
 48 49  1  0  0  0  0
 48174  1  0  0  0  0
 48175  1  0  0  0  0
 49 50  1  0  0  0  0
 49176  1  0  0  0  0
 49177  1  0  0  0  0
 50 51  1  0  0  0  0
 50178  1  0  0  0  0
 50179  1  0  0  0  0
 51 52  1  0  0  0  0
 51180  1  0  0  0  0
 51181  1  0  0  0  0
 52 53  1  0  0  0  0
 52182  1  0  0  0  0
 52183  1  0  0  0  0
 53 54  1  0  0  0  0
 53184  1  0  0  0  0
 53185  1  0  0  0  0
 54 55  1  0  0  0  0
 54186  1  0  0  0  0
 54187  1  0  0  0  0
 55 56  1  0  0  0  0
 55188  1  0  0  0  0
 55189  1  0  0  0  0
 56 57  1  0  0  0  0
 56190  1  0  0  0  0
 56191  1  0  0  0  0
 57 58  1  0  0  0  0
 57192  1  0  0  0  0
 57193  1  0  0  0  0
 58 59  1  0  0  0  0
 58194  1  0  0  0  0
 58195  1  0  0  0  0
 59 60  1  0  0  0  0
 59196  1  0  0  0  0
 59197  1  0  0  0  0
 60 61  1  0  0  0  0
 60198  1  0  0  0  0
 60199  1  0  0  0  0
 61 62  1  0  0  0  0
 61200  1  0  0  0  0
 61201  1  0  0  0  0
 62 63  1  0  0  0  0
 62202  1  0  0  0  0
 62203  1  0  0  0  0
 63 64  1  0  0  0  0
 63204  1  0  0  0  0
 63205  1  0  0  0  0
 64 65  1  0  0  0  0
 64206  1  0  0  0  0
 64207  1  0  0  0  0
 65 66  1  0  0  0  0
 65208  1  0  0  0  0
 65209  1  0  0  0  0
 66 67  1  0  0  0  0
 66210  1  0  0  0  0
 66211  1  0  0  0  0
 67 68  1  0  0  0  0
 67212  1  0  0  0  0
 67213  1  0  0  0  0
 68 69  1  0  0  0  0
 68214  1  0  0  0  0
 68215  1  0  0  0  0
 69 70  1  0  0  0  0
 69216  1  0  0  0  0
 69217  1  0  0  0  0
 70 71  1  0  0  0  0
 70218  1  0  0  0  0
 70219  1  0  0  0  0
 71 72  1  0  0  0  0
 71220  1  0  0  0  0
 71221  1  0  0  0  0
 72 73  1  0  0  0  0
 72222  1  0  0  0  0
 72223  1  0  0  0  0
 73 74  1  0  0  0  0
 73224  1  0  0  0  0
 73225  1  0  0  0  0
 74 75  1  0  0  0  0
 74226  1  0  0  0  0
 74227  1  0  0  0  0
 75 76  1  0  0  0  0
 75228  1  0  0  0  0
 75229  1  0  0  0  0
 76 77  1  0  0  0  0
 76230  1  0  0  0  0
 76231  1  0  0  0  0
 77 78  1  0  0  0  0
 77232  1  0  0  0  0
 77233  1  0  0  0  0
 78 79  1  0  0  0  0
 78234  1  0  0  0  0
 78235  1  0  0  0  0
 79 80  1  0  0  0  0
 79236  1  0  0  0  0
 79237  1  0  0  0  0
 80 81  1  0  0  0  0
 80238  1  0  0  0  0
 80239  1  0  0  0  0
 81240  1  0  0  0  0
 81241  1  0  0  0  0
 81242  1  0  0  0  0
M  END
$$$$
