
 OpenBabel04232216503D

 85 85  0  0  0  0  0  0  0  0999 V2000
   15.2126   -2.2619    7.4291 C   0  0  0  0  0  0  0  0  0  0  0  0
   17.6376   -2.3590    7.8051 C   0  0  0  0  0  0  0  0  0  0  0  0
   15.6098   -2.0936    6.5653 C   0  0  0  0  0  0  0  0  0  0  0  0
   13.3150   -1.8144    5.3007 C   0  0  0  0  0  0  0  0  0  0  0  0
   11.2968   -1.5075    4.3860 C   0  0  0  0  0  0  0  0  0  0  0  0
    9.3199   -0.7822    3.1795 C   0  0  0  0  0  0  0  0  0  0  0  0
    8.4438    0.1537    4.2651 C   0  0  0  0  0  0  0  0  0  0  0  0
   10.0161    0.6849    4.0931 C   0  0  0  0  0  0  0  0  0  0  0  0
   10.1730    0.3473    5.4930 C   0  0  0  0  0  0  0  0  0  0  0  0
   11.6316    0.4729    5.7266 C   0  0  0  0  0  0  0  0  0  0  0  0
   12.4409    0.1947    6.7374 C   0  0  0  0  0  0  0  0  0  0  0  0
   14.1023    0.2071    6.2379 C   0  0  0  0  0  0  0  0  0  0  0  0
   14.5192   -0.0181    7.5866 C   0  0  0  0  0  0  0  0  0  0  0  0
   15.9398   -0.1013    7.7305 C   0  0  0  0  0  0  0  0  0  0  0  0
   16.4274   -0.5405    8.9018 C   0  0  0  0  0  0  0  0  0  0  0  0
   17.8798   -0.4556    8.9516 C   0  0  0  0  0  0  0  0  0  0  0  0
   18.4660   -0.8176   10.1049 C   0  0  0  0  0  0  0  0  0  0  0  0
   19.9366   -0.6276   10.1784 C   0  0  0  0  0  0  0  0  0  0  0  0
   20.6448   -1.0115   11.2122 C   0  0  0  0  0  0  0  0  0  0  0  0
   21.9815   -0.5694   11.0918 C   0  0  0  0  0  0  0  0  0  0  0  0
   22.5832   -0.8580   12.2530 C   0  0  0  0  0  0  0  0  0  0  0  0
   23.9626   -0.5968   12.2617 C   0  0  0  0  0  0  0  0  0  0  0  0
   24.7182   -0.9949   13.3244 C   0  0  0  0  0  0  0  0  0  0  0  0
   26.1773   -0.8079   13.3301 C   0  0  0  0  0  0  0  0  0  0  0  0
   26.8331   -1.1531   14.5027 C   0  0  0  0  0  0  0  0  0  0  0  0
   28.2505   -0.9373   14.6850 C   0  0  0  0  0  0  0  0  0  0  0  0
   29.0043   -1.2687   15.7712 C   0  0  0  0  0  0  0  0  0  0  0  0
   30.4487   -0.9816   15.7934 C   0  0  0  0  0  0  0  0  0  0  0  0
   31.0845   -1.2805   17.0078 C   0  0  0  0  0  0  0  0  0  0  0  0
   32.3930   -1.0516   17.4304 C   0  0  0  0  0  0  0  0  0  0  0  0
   33.1271   -1.4273   18.4815 C   0  0  0  0  0  0  0  0  0  0  0  0
   34.5647   -0.9178   18.2253 C   0  0  0  0  0  0  0  0  0  0  0  0
   35.1380   -1.5572   19.3338 C   0  0  0  0  0  0  0  0  0  0  0  0
   35.0804   -2.2233   17.7467 C   0  0  0  0  0  0  0  0  0  0  0  0
   33.5074   -2.7980   16.6418 C   0  0  0  0  0  0  0  0  0  0  0  0
   31.3586   -2.9828   15.5753 C   0  0  0  0  0  0  0  0  0  0  0  0
   29.3754   -2.9790   14.1772 C   0  0  0  0  0  0  0  0  0  0  0  0
   26.9458   -2.9467   12.8990 C   0  0  0  0  0  0  0  0  0  0  0  0
   24.8540   -2.8566   11.6872 C   0  0  0  0  0  0  0  0  0  0  0  0
   22.3515   -2.7903   10.2924 C   0  0  0  0  0  0  0  0  0  0  0  0
   19.9221   -2.5682    9.2712 C   0  0  0  0  0  0  0  0  0  0  0  0
   13.5577   -1.9126    7.0528 H   0  0  0  0  0  0  0  0  0  0  0  0
   13.5665   -2.4411    6.9393 H   0  0  0  0  0  0  0  0  0  0  0  0
   13.7226   -1.5394    6.9476 H   0  0  0  0  0  0  0  0  0  0  0  0
   14.3684   -1.7790    5.4668 H   0  0  0  0  0  0  0  0  0  0  0  0
   11.9175   -1.4068    4.4545 H   0  0  0  0  0  0  0  0  0  0  0  0
    9.6204   -1.4077    4.0042 H   0  0  0  0  0  0  0  0  0  0  0  0
    8.1370    0.3116    2.3829 H   0  0  0  0  0  0  0  0  0  0  0  0
    8.0062   -1.0837    2.1087 H   0  0  0  0  0  0  0  0  0  0  0  0
    7.8808   -0.9792    4.7251 H   0  0  0  0  0  0  0  0  0  0  0  0
    7.5115    0.7644    4.5153 H   0  0  0  0  0  0  0  0  0  0  0  0
   10.4897    0.1536    2.8331 H   0  0  0  0  0  0  0  0  0  0  0  0
    9.3098   -0.4773    6.0111 H   0  0  0  0  0  0  0  0  0  0  0  0
   12.0954    0.2590    4.6492 H   0  0  0  0  0  0  0  0  0  0  0  0
   11.6142   -0.6335    7.2513 H   0  0  0  0  0  0  0  0  0  0  0  0
   14.6250   -0.2169    4.9384 H   0  0  0  0  0  0  0  0  0  0  0  0
   13.7537   -0.7493    8.3693 H   0  0  0  0  0  0  0  0  0  0  0  0
   16.4203   -0.3482    6.6245 H   0  0  0  0  0  0  0  0  0  0  0  0
   15.7241   -1.0110    9.6234 H   0  0  0  0  0  0  0  0  0  0  0  0
   18.5637   -0.3711    7.8685 H   0  0  0  0  0  0  0  0  0  0  0  0
   17.8241   -1.1677   10.9240 H   0  0  0  0  0  0  0  0  0  0  0  0
   20.7264   -0.6778    9.2392 H   0  0  0  0  0  0  0  0  0  0  0  0
   20.1054   -1.3143   12.0637 H   0  0  0  0  0  0  0  0  0  0  0  0
   22.5735   -0.6408   10.0071 H   0  0  0  0  0  0  0  0  0  0  0  0
   22.2140   -1.3911   13.1300 H   0  0  0  0  0  0  0  0  0  0  0  0
   24.2673   -0.4662   11.0847 H   0  0  0  0  0  0  0  0  0  0  0  0
   24.4160   -1.5112   14.2637 H   0  0  0  0  0  0  0  0  0  0  0  0
   26.7842   -0.8864   12.1468 H   0  0  0  0  0  0  0  0  0  0  0  0
   26.5393   -1.6558   15.4356 H   0  0  0  0  0  0  0  0  0  0  0  0
   28.8222   -0.8413   13.6902 H   0  0  0  0  0  0  0  0  0  0  0  0
   28.7833   -1.8100   16.6849 H   0  0  0  0  0  0  0  0  0  0  0  0
   30.9353   -1.0644   14.5621 H   0  0  0  0  0  0  0  0  0  0  0  0
   30.8326   -1.9654   17.8191 H   0  0  0  0  0  0  0  0  0  0  0  0
   32.9865   -0.8861   16.5141 H   0  0  0  0  0  0  0  0  0  0  0  0
   33.0889   -2.1095   19.3377 H   0  0  0  0  0  0  0  0  0  0  0  0
   35.1727   -1.0463   16.7852 H   0  0  0  0  0  0  0  0  0  0  0  0
   35.1120   -2.1217   20.3569 H   0  0  0  0  0  0  0  0  0  0  0  0
   36.6332   -1.4308   17.7322 H   0  0  0  0  0  0  0  0  0  0  0  0
   34.8736   -2.9474   17.7972 H   0  0  0  0  0  0  0  0  0  0  0  0
   33.0267   -2.8005   15.9647 H   0  0  0  0  0  0  0  0  0  0  0  0
   31.0021   -2.6958   14.7963 H   0  0  0  0  0  0  0  0  0  0  0  0
   28.5107   -2.5637   13.4523 H   0  0  0  0  0  0  0  0  0  0  0  0
   26.2470   -2.3532   12.2384 H   0  0  0  0  0  0  0  0  0  0  0  0
   23.5850   -2.0412   10.7750 H   0  0  0  0  0  0  0  0  0  0  0  0
   19.1772   -1.8852    8.2412 H   0  0  0  0  0  0  0  0  0  0  0  0
  1  2  1  0  0  0  0
  1 42  1  0  0  0  0
  1 43  1  0  0  0  0
  1 44  1  0  0  0  0
  2  3  2  3  0  0  0
  2 41  1  0  0  0  0
  3  4  1  0  0  0  0
  3 45  1  0  0  0  0
  4  5  2  3  0  0  0
  4 46  1  0  0  0  0
  5  6  1  0  0  0  0
  5 47  1  0  0  0  0
  6  7  1  0  0  0  0
  6 48  1  0  0  0  0
  6 49  1  0  0  0  0
  7  8  1  0  0  0  0
  7 50  1  0  0  0  0
  7 51  1  0  0  0  0
  8  9  2  3  0  0  0
  8 52  1  0  0  0  0
  9 10  1  0  0  0  0
  9 53  1  0  0  0  0
 10 11  2  3  0  0  0
 10 54  1  0  0  0  0
 11 12  1  0  0  0  0
 11 55  1  0  0  0  0
 12 13  2  3  0  0  0
 12 56  1  0  0  0  0
 13 14  1  0  0  0  0
 13 57  1  0  0  0  0
 14 15  2  3  0  0  0
 14 58  1  0  0  0  0
 15 16  1  0  0  0  0
 15 59  1  0  0  0  0
 16 17  2  3  0  0  0
 16 60  1  0  0  0  0
 17 18  1  0  0  0  0
 17 61  1  0  0  0  0
 18 19  2  3  0  0  0
 18 62  1  0  0  0  0
 19 20  1  0  0  0  0
 19 63  1  0  0  0  0
 20 21  2  3  0  0  0
 20 64  1  0  0  0  0
 21 22  1  0  0  0  0
 21 65  1  0  0  0  0
 22 23  2  3  0  0  0
 22 66  1  0  0  0  0
 23 24  1  0  0  0  0
 23 67  1  0  0  0  0
 24 25  2  3  0  0  0
 24 68  1  0  0  0  0
 25 26  1  0  0  0  0
 25 69  1  0  0  0  0
 26 27  2  3  0  0  0
 26 70  1  0  0  0  0
 27 28  1  0  0  0  0
 27 71  1  0  0  0  0
 28 29  2  3  0  0  0
 28 72  1  0  0  0  0
 29 30  1  0  0  0  0
 29 73  1  0  0  0  0
 30 31  2  3  0  0  0
 30 74  1  0  0  0  0
 31 32  1  0  0  0  0
 31 75  1  0  0  0  0
 32 33  2  3  0  0  0
 32 76  1  0  0  0  0
 33 34  1  0  0  0  0
 33 77  1  0  0  0  0
 34 35  2  3  0  0  0
 34 78  1  0  0  0  0
 35 36  1  0  0  0  0
 35 79  1  0  0  0  0
 36 37  2  3  0  0  0
 36 80  1  0  0  0  0
 37 38  1  0  0  0  0
 37 81  1  0  0  0  0
 38 39  2  3  0  0  0
 38 82  1  0  0  0  0
 39 40  1  0  0  0  0
 39 83  1  0  0  0  0
 40 41  2  3  0  0  0
 40 84  1  0  0  0  0
 41 85  1  0  0  0  0
M  END
$$$$
