
 OpenBabel04232216503D

205205  0  0  1  0  0  0  0  0999 V2000
   -3.7521   -7.5108   21.7475 C   0  0  0  0  0  0  0  0  0  0  0  0
   -3.9581   -8.0865   23.1161 C   0  0  0  0  0  0  0  0  0  0  0  0
   -4.7698   -7.5398   24.0383 C   0  0  0  0  0  0  0  0  0  0  0  0
   -4.9285   -8.1664   25.3130 C   0  0  0  0  0  0  0  0  0  0  0  0
   -4.2622   -9.3097   25.5947 C   0  0  0  0  0  0  0  0  0  0  0  0
   -3.4083   -9.9338   24.7591 O   0  0  0  0  0  0  0  0  0  0  0  0
   -3.2377   -9.3772   23.4322 C   0  0  3  0  0  0  0  0  0  0  0  0
   -3.7325  -10.4189   22.4577 C   0  0  0  0  0  0  0  0  0  0  0  0
   -2.9857  -11.6054   22.6719 O   0  0  0  0  0  0  0  0  0  0  0  0
   -3.4118  -12.5648   21.7063 C   0  0  0  0  0  0  0  0  0  0  0  0
   -3.2151  -12.0761   20.3949 O   0  0  0  0  0  0  0  0  0  0  0  0
   -1.8008  -11.7481   20.4055 O   0  0  0  0  0  0  0  0  0  0  0  0
   -1.0573  -12.9927   20.5463 O   0  0  0  0  0  0  0  0  0  0  0  0
   -1.5347  -13.9066   19.5270 O   0  0  0  0  0  0  0  0  0  0  0  0
   -1.0927  -13.2746   18.3313 C   0  0  0  0  0  0  0  0  0  0  0  0
    0.3046  -13.0145   18.3936 O   0  0  0  0  0  0  0  0  0  0  0  0
    0.9650  -14.2608   18.5320 C   0  0  0  0  0  0  0  0  0  0  0  0
    0.6348  -15.0524   17.4203 O   0  0  0  0  0  0  0  0  0  0  0  0
    1.2922  -16.3023   17.4855 C   0  0  0  0  0  0  0  0  0  0  0  0
    0.9477  -17.0737   16.3410 O   0  0  0  0  0  0  0  0  0  0  0  0
    1.4130  -16.4032   15.1685 C   0  0  0  0  0  0  0  0  0  0  0  0
    2.8186  -16.1712   15.1857 O   0  0  0  0  0  0  0  0  0  0  0  0
    3.4949  -17.4170   15.3002 C   0  0  0  0  0  0  0  0  0  0  0  0
    4.9021  -17.2047   15.3674 O   0  0  0  0  0  0  0  0  0  0  0  0
    5.5616  -18.4588   15.4424 C   0  0  0  0  0  0  0  0  0  0  0  0
    5.2887  -19.2531   14.2993 O   0  0  0  0  0  0  0  0  0  0  0  0
    5.9442  -20.4971   14.4021 C   0  0  0  0  0  0  0  0  0  0  0  0
    5.6290  -21.2772   13.2681 O   0  0  0  0  0  0  0  0  0  0  0  0
    6.3072  -22.5180   13.3408 C   0  0  0  0  0  0  0  0  0  0  0  0
    5.9206  -23.2479   14.4971 O   0  0  0  0  0  0  0  0  0  0  0  0
    6.6137  -24.4837   14.5478 C   0  0  0  0  0  0  0  0  0  0  0  0
    6.1809  -25.2208   15.7951 C   0  0  0  0  0  0  0  0  0  0  0  0
    6.9069  -26.5502   15.8700 C   0  0  0  0  0  0  0  0  0  0  0  0
    6.4865  -27.3077   17.1136 C   0  0  0  0  0  0  0  0  0  0  0  0
    7.2177  -28.6357   17.1798 C   0  0  0  0  0  0  0  0  0  0  0  0
    6.7954  -29.3946   18.4233 C   0  0  0  0  0  0  0  0  0  0  0  0
    7.5243  -30.7231   18.4893 C   0  0  0  0  0  0  0  0  0  0  0  0
    7.1027  -31.4801   19.7340 C   0  0  0  0  0  0  0  0  0  0  0  0
    7.8328  -32.8075   19.8014 C   0  0  0  0  0  0  0  0  0  0  0  0
    7.4130  -33.5638   21.0468 C   0  0  0  0  0  0  0  0  0  0  0  0
    8.1442  -34.8902   21.1156 C   0  0  0  0  0  0  0  0  0  0  0  0
    7.7248  -35.6466   22.3606 C   0  0  0  0  0  0  0  0  0  0  0  0
    8.4542  -36.9737   22.4287 C   0  0  0  0  0  0  0  0  0  0  0  0
    8.0336  -37.7312   23.6724 C   0  0  0  0  0  0  0  0  0  0  0  0
    8.7628  -39.0582   23.7407 C   0  0  0  0  0  0  0  0  0  0  0  0
    8.3423  -39.8157   24.9843 C   0  0  0  0  0  0  0  0  0  0  0  0
    9.0714  -41.1427   25.0526 C   0  0  0  0  0  0  0  0  0  0  0  0
    8.6509  -41.9002   26.2962 C   0  0  0  0  0  0  0  0  0  0  0  0
    9.3800  -43.2271   26.3645 C   0  0  0  0  0  0  0  0  0  0  0  0
    8.9596  -43.9846   27.6081 C   0  0  0  0  0  0  0  0  0  0  0  0
    9.6902  -45.3106   27.6774 C   0  0  0  0  0  0  0  0  0  0  0  0
    9.2682  -46.0690   28.9200 C   0  0  0  0  0  0  0  0  0  0  0  0
    9.9988  -47.3951   28.9893 C   0  0  0  0  0  0  0  0  0  0  0  0
    9.5754  -48.1543   30.2308 C   0  0  0  0  0  0  0  0  0  0  0  0
   10.3059  -49.4803   30.3001 C   0  0  0  0  0  0  0  0  0  0  0  0
    9.8825  -50.2396   31.5416 C   0  0  0  0  0  0  0  0  0  0  0  0
   10.6131  -51.5656   31.6110 C   0  0  0  0  0  0  0  0  0  0  0  0
   10.1897  -52.3249   32.8524 C   0  0  0  0  0  0  0  0  0  0  0  0
   10.9217  -53.6501   32.9228 C   0  0  0  0  0  0  0  0  0  0  0  0
   10.4968  -54.4102   34.1633 C   0  0  0  0  0  0  0  0  0  0  0  0
   11.2274  -55.7362   34.2326 C   0  0  0  0  0  0  0  0  0  0  0  0
   10.8010  -56.4972   35.4720 C   0  0  0  0  0  0  0  0  0  0  0  0
   11.5330  -57.8224   35.5424 C   0  0  0  0  0  0  0  0  0  0  0  0
   11.1052  -58.5843   36.7807 C   0  0  0  0  0  0  0  0  0  0  0  0
   11.8387  -59.9086   36.8522 C   0  0  0  0  0  0  0  0  0  0  0  0
   11.4123  -60.6696   38.0916 C   0  0  0  0  0  0  0  0  0  0  0  0
   12.1459  -61.9940   38.1630 C   0  0  0  0  0  0  0  0  0  0  0  0
   11.7193  -62.7549   39.4027 C   0  0  0  0  0  0  0  0  0  0  0  0
   12.4532  -64.0795   39.4737 C   0  0  0  0  0  0  0  0  0  0  0  0
   12.0262  -64.8402   40.7138 C   0  0  0  0  0  0  0  0  0  0  0  0
   12.7607  -66.1651   40.7844 C   0  0  0  0  0  0  0  0  0  0  0  0
   12.3347  -66.9247   42.0260 C   0  0  0  0  0  0  0  0  0  0  0  0
   13.0694  -68.2499   42.0965 C   0  0  0  0  0  0  0  0  0  0  0  0
   12.6435  -69.0102   43.3384 C   0  0  0  0  0  0  0  0  0  0  0  0
   13.3762  -70.3371   43.4093 C   0  0  0  0  0  0  0  0  0  0  0  0
   12.9488  -71.0995   44.6514 C   0  0  0  0  0  0  0  0  0  0  0  0
   13.6812  -72.4286   44.7246 C   0  0  0  0  0  0  0  0  0  0  0  0
   13.2604  -73.1986   45.9675 C   0  0  0  0  0  0  0  0  0  0  0  0
   13.9925  -74.5237   46.0377 C   0  0  0  0  0  0  0  0  0  0  0  0
   -4.3063   -6.5786   21.6055 H   0  0  0  0  0  0  0  0  0  0  0  0
   -4.1017   -8.1914   20.9642 H   0  0  0  0  0  0  0  0  0  0  0  0
   -2.6883   -7.3176   21.5747 H   0  0  0  0  0  0  0  0  0  0  0  0
   -5.3253   -6.6307   23.8370 H   0  0  0  0  0  0  0  0  0  0  0  0
   -5.5753   -7.7120   26.0393 H   0  0  0  0  0  0  0  0  0  0  0  0
   -4.3429   -9.8229   26.5373 H   0  0  0  0  0  0  0  0  0  0  0  0
   -2.1575   -9.2276   23.3262 H   0  0  0  0  0  0  0  0  0  0  0  0
   -3.6043  -10.0770   21.4278 H   0  0  0  0  0  0  0  0  0  0  0  0
   -4.7928  -10.6493   22.6137 H   0  0  0  0  0  0  0  0  0  0  0  0
   -4.4600  -12.8101   21.8678 H   0  0  0  0  0  0  0  0  0  0  0  0
   -2.8348  -13.4844   21.8562 H   0  0  0  0  0  0  0  0  0  0  0  0
   -1.6212  -12.3162   18.2238 H   0  0  0  0  0  0  0  0  0  0  0  0
   -1.3710  -13.8743   17.4706 H   0  0  0  0  0  0  0  0  0  0  0  0
    0.6463  -14.7833   19.4432 H   0  0  0  0  0  0  0  0  0  0  0  0
    2.0384  -14.0885   18.5843 H   0  0  0  0  0  0  0  0  0  0  0  0
    0.9630  -16.8398   18.3781 H   0  0  0  0  0  0  0  0  0  0  0  0
    2.3769  -16.1455   17.5498 H   0  0  0  0  0  0  0  0  0  0  0  0
    0.9062  -15.4371   15.0797 H   0  0  0  0  0  0  0  0  0  0  0  0
    1.1580  -16.9968   14.2857 H   0  0  0  0  0  0  0  0  0  0  0  0
    3.2373  -18.0200   14.4230 H   0  0  0  0  0  0  0  0  0  0  0  0
    3.1819  -17.9522   16.2053 H   0  0  0  0  0  0  0  0  0  0  0  0
    5.2506  -18.9740   16.3593 H   0  0  0  0  0  0  0  0  0  0  0  0
    6.6369  -18.2623   15.4921 H   0  0  0  0  0  0  0  0  0  0  0  0
    5.6170  -21.0074   15.3152 H   0  0  0  0  0  0  0  0  0  0  0  0
    7.0249  -20.3170   14.4400 H   0  0  0  0  0  0  0  0  0  0  0  0
    7.3894  -22.3392   13.3583 H   0  0  0  0  0  0  0  0  0  0  0  0
    6.0559  -23.0973   12.4481 H   0  0  0  0  0  0  0  0  0  0  0  0
    7.6932  -24.2970   14.5741 H   0  0  0  0  0  0  0  0  0  0  0  0
    6.3700  -25.0702   13.6555 H   0  0  0  0  0  0  0  0  0  0  0  0
    5.0942  -25.3719   15.7813 H   0  0  0  0  0  0  0  0  0  0  0  0
    6.3927  -24.6119   16.6829 H   0  0  0  0  0  0  0  0  0  0  0  0
    7.9912  -26.3825   15.8842 H   0  0  0  0  0  0  0  0  0  0  0  0
    6.6846  -27.1471   14.9767 H   0  0  0  0  0  0  0  0  0  0  0  0
    5.4031  -27.4781   17.0987 H   0  0  0  0  0  0  0  0  0  0  0  0
    6.7111  -26.7127   18.0072 H   0  0  0  0  0  0  0  0  0  0  0  0
    8.3015  -28.4663   17.1956 H   0  0  0  0  0  0  0  0  0  0  0  0
    6.9952  -29.2309   16.2854 H   0  0  0  0  0  0  0  0  0  0  0  0
    5.7116  -29.5635   18.4081 H   0  0  0  0  0  0  0  0  0  0  0  0
    7.0195  -28.8005   19.3178 H   0  0  0  0  0  0  0  0  0  0  0  0
    8.6082  -30.5547   18.5032 H   0  0  0  0  0  0  0  0  0  0  0  0
    7.2991  -31.3181   17.5956 H   0  0  0  0  0  0  0  0  0  0  0  0
    6.0190  -31.6497   19.7195 H   0  0  0  0  0  0  0  0  0  0  0  0
    7.3266  -30.8845   20.6276 H   0  0  0  0  0  0  0  0  0  0  0  0
    8.9166  -32.6380   19.8144 H   0  0  0  0  0  0  0  0  0  0  0  0
    7.6079  -33.4038   18.9083 H   0  0  0  0  0  0  0  0  0  0  0  0
    6.3293  -33.7344   21.0332 H   0  0  0  0  0  0  0  0  0  0  0  0
    7.6365  -32.9669   21.9399 H   0  0  0  0  0  0  0  0  0  0  0  0
    9.2281  -34.7195   21.1290 H   0  0  0  0  0  0  0  0  0  0  0  0
    7.9209  -35.4871   20.2222 H   0  0  0  0  0  0  0  0  0  0  0  0
    6.6405  -35.8158   22.3481 H   0  0  0  0  0  0  0  0  0  0  0  0
    7.9491  -35.0501   23.2542 H   0  0  0  0  0  0  0  0  0  0  0  0
    9.5387  -36.8045   22.4423 H   0  0  0  0  0  0  0  0  0  0  0  0
    8.2312  -37.5697   21.5343 H   0  0  0  0  0  0  0  0  0  0  0  0
    6.9490  -37.9004   23.6589 H   0  0  0  0  0  0  0  0  0  0  0  0
    8.2565  -37.1352   24.5670 H   0  0  0  0  0  0  0  0  0  0  0  0
    9.8474  -38.8891   23.7543 H   0  0  0  0  0  0  0  0  0  0  0  0
    8.5400  -39.6543   22.8461 H   0  0  0  0  0  0  0  0  0  0  0  0
    7.2576  -39.9848   24.9708 H   0  0  0  0  0  0  0  0  0  0  0  0
    8.5651  -39.2197   25.8790 H   0  0  0  0  0  0  0  0  0  0  0  0
   10.1561  -40.9736   25.0662 H   0  0  0  0  0  0  0  0  0  0  0  0
    8.8486  -41.7387   24.1580 H   0  0  0  0  0  0  0  0  0  0  0  0
    7.5663  -42.0693   26.2827 H   0  0  0  0  0  0  0  0  0  0  0  0
    8.8737  -41.3041   27.1908 H   0  0  0  0  0  0  0  0  0  0  0  0
   10.4647  -43.0580   26.3780 H   0  0  0  0  0  0  0  0  0  0  0  0
    9.1573  -43.8232   25.4699 H   0  0  0  0  0  0  0  0  0  0  0  0
    7.8751  -44.1549   27.5939 H   0  0  0  0  0  0  0  0  0  0  0  0
    9.1811  -43.3880   28.5027 H   0  0  0  0  0  0  0  0  0  0  0  0
   10.7746  -45.1402   27.6931 H   0  0  0  0  0  0  0  0  0  0  0  0
    9.4698  -45.9067   26.7822 H   0  0  0  0  0  0  0  0  0  0  0  0
    8.1838  -46.2394   28.9043 H   0  0  0  0  0  0  0  0  0  0  0  0
    9.4886  -45.4730   29.8152 H   0  0  0  0  0  0  0  0  0  0  0  0
   11.0832  -47.2246   29.0064 H   0  0  0  0  0  0  0  0  0  0  0  0
    9.7796  -47.9905   28.0934 H   0  0  0  0  0  0  0  0  0  0  0  0
    8.4910  -48.3248   30.2137 H   0  0  0  0  0  0  0  0  0  0  0  0
    9.7946  -47.5588   31.1267 H   0  0  0  0  0  0  0  0  0  0  0  0
   11.3903  -49.3099   30.3173 H   0  0  0  0  0  0  0  0  0  0  0  0
   10.0868  -50.0758   29.4042 H   0  0  0  0  0  0  0  0  0  0  0  0
    8.7981  -50.4101   31.5245 H   0  0  0  0  0  0  0  0  0  0  0  0
   10.1017  -49.6441   32.4375 H   0  0  0  0  0  0  0  0  0  0  0  0
   11.6975  -51.3951   31.6281 H   0  0  0  0  0  0  0  0  0  0  0  0
   10.3939  -52.1611   30.7151 H   0  0  0  0  0  0  0  0  0  0  0  0
    9.1055  -52.4966   32.8346 H   0  0  0  0  0  0  0  0  0  0  0  0
   10.4075  -51.7289   33.7483 H   0  0  0  0  0  0  0  0  0  0  0  0
   12.0059  -53.4783   32.9421 H   0  0  0  0  0  0  0  0  0  0  0  0
   10.7050  -54.2455   32.0263 H   0  0  0  0  0  0  0  0  0  0  0  0
    9.4124  -54.5807   34.1447 H   0  0  0  0  0  0  0  0  0  0  0  0
   10.7148  -53.8153   35.0599 H   0  0  0  0  0  0  0  0  0  0  0  0
   12.3117  -55.5656   34.2526 H   0  0  0  0  0  0  0  0  0  0  0  0
   11.0105  -56.3305   33.3354 H   0  0  0  0  0  0  0  0  0  0  0  0
    9.7169  -56.6690   35.4512 H   0  0  0  0  0  0  0  0  0  0  0  0
   11.0166  -55.9024   36.3692 H   0  0  0  0  0  0  0  0  0  0  0  0
   12.6171  -57.6504   35.5645 H   0  0  0  0  0  0  0  0  0  0  0  0
   11.3186  -58.4167   34.6446 H   0  0  0  0  0  0  0  0  0  0  0  0
   10.0213  -58.7574   36.7579 H   0  0  0  0  0  0  0  0  0  0  0  0
   11.3183  -57.9894   37.6785 H   0  0  0  0  0  0  0  0  0  0  0  0
   12.9226  -59.7355   36.8736 H   0  0  0  0  0  0  0  0  0  0  0  0
   11.6244  -60.5040   35.9550 H   0  0  0  0  0  0  0  0  0  0  0  0
   10.3284  -60.8427   38.0701 H   0  0  0  0  0  0  0  0  0  0  0  0
   11.6265  -60.0741   38.9887 H   0  0  0  0  0  0  0  0  0  0  0  0
   13.2297  -61.8208   38.1845 H   0  0  0  0  0  0  0  0  0  0  0  0
   11.9316  -62.5894   37.2660 H   0  0  0  0  0  0  0  0  0  0  0  0
   10.6357  -62.9282   39.3810 H   0  0  0  0  0  0  0  0  0  0  0  0
   11.9338  -62.1596   40.2995 H   0  0  0  0  0  0  0  0  0  0  0  0
   13.5366  -63.9061   39.4959 H   0  0  0  0  0  0  0  0  0  0  0  0
   12.2383  -64.6747   38.5773 H   0  0  0  0  0  0  0  0  0  0  0  0
   10.9432  -65.0138   40.6915 H   0  0  0  0  0  0  0  0  0  0  0  0
   12.2414  -64.2452   41.6100 H   0  0  0  0  0  0  0  0  0  0  0  0
   13.8437  -65.9915   40.8054 H   0  0  0  0  0  0  0  0  0  0  0  0
   12.5443  -66.7607   39.8888 H   0  0  0  0  0  0  0  0  0  0  0  0
   11.2517  -67.0982   42.0048 H   0  0  0  0  0  0  0  0  0  0  0  0
   12.5512  -66.3290   42.9213 H   0  0  0  0  0  0  0  0  0  0  0  0
   14.1523  -68.0760   42.1174 H   0  0  0  0  0  0  0  0  0  0  0  0
   12.8528  -68.8452   41.2008 H   0  0  0  0  0  0  0  0  0  0  0  0
   11.5602  -69.1817   43.3176 H   0  0  0  0  0  0  0  0  0  0  0  0
   12.8611  -68.4143   44.2335 H   0  0  0  0  0  0  0  0  0  0  0  0
   14.4593  -70.1638   43.4302 H   0  0  0  0  0  0  0  0  0  0  0  0
   13.1597  -70.9305   42.5124 H   0  0  0  0  0  0  0  0  0  0  0  0
   11.8655  -71.2699   44.6281 H   0  0  0  0  0  0  0  0  0  0  0  0
   13.1653  -70.5030   45.5460 H   0  0  0  0  0  0  0  0  0  0  0  0
   14.7640  -72.2532   44.7419 H   0  0  0  0  0  0  0  0  0  0  0  0
   13.4638  -73.0201   43.8265 H   0  0  0  0  0  0  0  0  0  0  0  0
   12.1785  -73.3750   45.9488 H   0  0  0  0  0  0  0  0  0  0  0  0
   13.4794  -72.6078   46.8646 H   0  0  0  0  0  0  0  0  0  0  0  0
   13.7681  -75.1357   45.1582 H   0  0  0  0  0  0  0  0  0  0  0  0
   13.6901  -75.0767   46.9306 H   0  0  0  0  0  0  0  0  0  0  0  0
   15.0748  -74.3650   46.0781 H   0  0  0  0  0  0  0  0  0  0  0  0
  1  2  1  0  0  0  0
  1 80  1  0  0  0  0
  1 81  1  0  0  0  0
  1 82  1  0  0  0  0
  2  3  2  0  0  0  0
  2  7  1  0  0  0  0
  3  4  1  0  0  0  0
  3 83  1  0  0  0  0
  4  5  2  0  0  0  0
  4 84  1  0  0  0  0
  5  6  1  0  0  0  0
  5 85  1  0  0  0  0
  6  7  1  0  0  0  0
  7  8  1  0  0  0  0
  7 86  1  0  0  0  0
  8  9  1  0  0  0  0
  8 87  1  0  0  0  0
  8 88  1  0  0  0  0
  9 10  1  0  0  0  0
 10 11  1  0  0  0  0
 10 89  1  0  0  0  0
 10 90  1  0  0  0  0
 11 12  1  0  0  0  0
 12 13  1  0  0  0  0
 13 14  1  0  0  0  0
 14 15  1  0  0  0  0
 15 16  1  0  0  0  0
 15 91  1  0  0  0  0
 15 92  1  0  0  0  0
 16 17  1  0  0  0  0
 17 18  1  0  0  0  0
 17 93  1  0  0  0  0
 17 94  1  0  0  0  0
 18 19  1  0  0  0  0
 19 20  1  0  0  0  0
 19 95  1  0  0  0  0
 19 96  1  0  0  0  0
 20 21  1  0  0  0  0
 21 22  1  0  0  0  0
 21 97  1  0  0  0  0
 21 98  1  0  0  0  0
 22 23  1  0  0  0  0
 23 24  1  0  0  0  0
 23 99  1  0  0  0  0
 23100  1  0  0  0  0
 24 25  1  0  0  0  0
 25 26  1  0  0  0  0
 25101  1  0  0  0  0
 25102  1  0  0  0  0
 26 27  1  0  0  0  0
 27 28  1  0  0  0  0
 27103  1  0  0  0  0
 27104  1  0  0  0  0
 28 29  1  0  0  0  0
 29 30  1  0  0  0  0
 29105  1  0  0  0  0
 29106  1  0  0  0  0
 30 31  1  0  0  0  0
 31 32  1  0  0  0  0
 31107  1  0  0  0  0
 31108  1  0  0  0  0
 32 33  1  0  0  0  0
 32109  1  0  0  0  0
 32110  1  0  0  0  0
 33 34  1  0  0  0  0
 33111  1  0  0  0  0
 33112  1  0  0  0  0
 34 35  1  0  0  0  0
 34113  1  0  0  0  0
 34114  1  0  0  0  0
 35 36  1  0  0  0  0
 35115  1  0  0  0  0
 35116  1  0  0  0  0
 36 37  1  0  0  0  0
 36117  1  0  0  0  0
 36118  1  0  0  0  0
 37 38  1  0  0  0  0
 37119  1  0  0  0  0
 37120  1  0  0  0  0
 38 39  1  0  0  0  0
 38121  1  0  0  0  0
 38122  1  0  0  0  0
 39 40  1  0  0  0  0
 39123  1  0  0  0  0
 39124  1  0  0  0  0
 40 41  1  0  0  0  0
 40125  1  0  0  0  0
 40126  1  0  0  0  0
 41 42  1  0  0  0  0
 41127  1  0  0  0  0
 41128  1  0  0  0  0
 42 43  1  0  0  0  0
 42129  1  0  0  0  0
 42130  1  0  0  0  0
 43 44  1  0  0  0  0
 43131  1  0  0  0  0
 43132  1  0  0  0  0
 44 45  1  0  0  0  0
 44133  1  0  0  0  0
 44134  1  0  0  0  0
 45 46  1  0  0  0  0
 45135  1  0  0  0  0
 45136  1  0  0  0  0
 46 47  1  0  0  0  0
 46137  1  0  0  0  0
 46138  1  0  0  0  0
 47 48  1  0  0  0  0
 47139  1  0  0  0  0
 47140  1  0  0  0  0
 48 49  1  0  0  0  0
 48141  1  0  0  0  0
 48142  1  0  0  0  0
 49 50  1  0  0  0  0
 49143  1  0  0  0  0
 49144  1  0  0  0  0
 50 51  1  0  0  0  0
 50145  1  0  0  0  0
 50146  1  0  0  0  0
 51 52  1  0  0  0  0
 51147  1  0  0  0  0
 51148  1  0  0  0  0
 52 53  1  0  0  0  0
 52149  1  0  0  0  0
 52150  1  0  0  0  0
 53 54  1  0  0  0  0
 53151  1  0  0  0  0
 53152  1  0  0  0  0
 54 55  1  0  0  0  0
 54153  1  0  0  0  0
 54154  1  0  0  0  0
 55 56  1  0  0  0  0
 55155  1  0  0  0  0
 55156  1  0  0  0  0
 56 57  1  0  0  0  0
 56157  1  0  0  0  0
 56158  1  0  0  0  0
 57 58  1  0  0  0  0
 57159  1  0  0  0  0
 57160  1  0  0  0  0
 58 59  1  0  0  0  0
 58161  1  0  0  0  0
 58162  1  0  0  0  0
 59 60  1  0  0  0  0
 59163  1  0  0  0  0
 59164  1  0  0  0  0
 60 61  1  0  0  0  0
 60165  1  0  0  0  0
 60166  1  0  0  0  0
 61 62  1  0  0  0  0
 61167  1  0  0  0  0
 61168  1  0  0  0  0
 62 63  1  0  0  0  0
 62169  1  0  0  0  0
 62170  1  0  0  0  0
 63 64  1  0  0  0  0
 63171  1  0  0  0  0
 63172  1  0  0  0  0
 64 65  1  0  0  0  0
 64173  1  0  0  0  0
 64174  1  0  0  0  0
 65 66  1  0  0  0  0
 65175  1  0  0  0  0
 65176  1  0  0  0  0
 66 67  1  0  0  0  0
 66177  1  0  0  0  0
 66178  1  0  0  0  0
 67 68  1  0  0  0  0
 67179  1  0  0  0  0
 67180  1  0  0  0  0
 68 69  1  0  0  0  0
 68181  1  0  0  0  0
 68182  1  0  0  0  0
 69 70  1  0  0  0  0
 69183  1  0  0  0  0
 69184  1  0  0  0  0
 70 71  1  0  0  0  0
 70185  1  0  0  0  0
 70186  1  0  0  0  0
 71 72  1  0  0  0  0
 71187  1  0  0  0  0
 71188  1  0  0  0  0
 72 73  1  0  0  0  0
 72189  1  0  0  0  0
 72190  1  0  0  0  0
 73 74  1  0  0  0  0
 73191  1  0  0  0  0
 73192  1  0  0  0  0
 74 75  1  0  0  0  0
 74193  1  0  0  0  0
 74194  1  0  0  0  0
 75 76  1  0  0  0  0
 75195  1  0  0  0  0
 75196  1  0  0  0  0
 76 77  1  0  0  0  0
 76197  1  0  0  0  0
 76198  1  0  0  0  0
 77 78  1  0  0  0  0
 77199  1  0  0  0  0
 77200  1  0  0  0  0
 78 79  1  0  0  0  0
 78201  1  0  0  0  0
 78202  1  0  0  0  0
 79203  1  0  0  0  0
 79204  1  0  0  0  0
 79205  1  0  0  0  0
M  END
$$$$
