
 OpenBabel04232216553D

232232  0  0  0  0  0  0  0  0999 V2000
  -16.0238    1.8451  -22.8961 C   0  0  0  0  0  0  0  0  0  0  0  0
  -14.6564    2.0128  -22.9176 N   0  0  0  0  0  0  0  0  0  0  0  0
  -13.5361    1.7685  -23.4370 C   0  0  0  0  0  0  0  0  0  0  0  0
  -13.6735    2.6568  -22.2450 C   0  0  0  0  0  0  0  0  0  0  0  0
  -14.6395    3.4986  -20.9652 C   0  0  0  0  0  0  0  0  0  0  0  0
  -13.8369    4.3897  -19.9509 C   0  0  0  0  0  0  0  0  0  0  0  0
  -14.6802    5.1038  -18.8567 C   0  0  0  0  0  0  0  0  0  0  0  0
  -13.7911    5.9378  -17.9368 C   0  0  0  0  0  0  0  0  0  0  0  0
  -13.0965    6.9356  -18.6880 O   0  0  0  0  0  0  0  0  0  0  0  0
  -12.2744    7.6997  -17.8068 C   0  0  0  0  0  0  0  0  0  0  0  0
  -11.5377    8.7529  -18.5955 C   0  0  0  0  0  0  0  0  0  0  0  0
  -10.6614    9.5704  -17.6697 C   0  0  0  0  0  0  0  0  0  0  0  0
   -9.9233   10.6249  -18.4565 C   0  0  0  0  0  0  0  0  0  0  0  0
   -9.0391   11.4544  -17.5420 C   0  0  0  0  0  0  0  0  0  0  0  0
   -8.2940   12.5150  -18.3201 C   0  0  0  0  0  0  0  0  0  0  0  0
   -7.4169   13.3356  -17.4035 C   0  0  0  0  0  0  0  0  0  0  0  0
   -6.6762   14.3948  -18.1840 C   0  0  0  0  0  0  0  0  0  0  0  0
   -5.8000   15.2144  -17.2676 C   0  0  0  0  0  0  0  0  0  0  0  0
   -5.0595   16.2734  -18.0481 C   0  0  0  0  0  0  0  0  0  0  0  0
   -4.1834   17.0929  -17.1317 C   0  0  0  0  0  0  0  0  0  0  0  0
   -3.4428   18.1519  -17.9123 C   0  0  0  0  0  0  0  0  0  0  0  0
   -2.5667   18.9714  -16.9958 C   0  0  0  0  0  0  0  0  0  0  0  0
   -1.8261   20.0304  -17.7764 C   0  0  0  0  0  0  0  0  0  0  0  0
   -0.9500   20.8499  -16.8600 C   0  0  0  0  0  0  0  0  0  0  0  0
   -0.2095   21.9089  -17.6405 C   0  0  0  0  0  0  0  0  0  0  0  0
    0.6667   22.7285  -16.7241 C   0  0  0  0  0  0  0  0  0  0  0  0
    1.4088   23.7862  -17.5049 C   0  0  0  0  0  0  0  0  0  0  0  0
    0.4390   24.7169  -18.1923 C   0  0  0  0  0  0  0  0  0  0  0  0
    1.1810   25.7734  -18.9747 C   0  0  0  0  0  0  0  0  0  0  0  0
    0.2112   26.7053  -19.6604 C   0  0  0  0  0  0  0  0  0  0  0  0
    0.9533   27.7619  -20.4428 C   0  0  0  0  0  0  0  0  0  0  0  0
   -0.0166   28.6949  -21.1269 C   0  0  0  0  0  0  0  0  0  0  0  0
    0.7255   29.7527  -21.9077 C   0  0  0  0  0  0  0  0  0  0  0  0
   -0.2443   30.6857  -22.5918 C   0  0  0  0  0  0  0  0  0  0  0  0
    0.4978   31.7434  -23.3726 C   0  0  0  0  0  0  0  0  0  0  0  0
   -0.4721   32.6765  -24.0567 C   0  0  0  0  0  0  0  0  0  0  0  0
    0.2700   33.7342  -24.8375 C   0  0  0  0  0  0  0  0  0  0  0  0
   -0.6998   34.6673  -25.5216 C   0  0  0  0  0  0  0  0  0  0  0  0
    0.0423   35.7250  -26.3024 C   0  0  0  0  0  0  0  0  0  0  0  0
   -0.9275   36.6569  -26.9881 C   0  0  0  0  0  0  0  0  0  0  0  0
   -0.1854   37.7158  -27.7673 C   0  0  0  0  0  0  0  0  0  0  0  0
   -1.1553   38.6477  -28.4530 C   0  0  0  0  0  0  0  0  0  0  0  0
   -0.4132   39.7066  -29.2322 C   0  0  0  0  0  0  0  0  0  0  0  0
   -1.3830   40.6385  -29.9178 C   0  0  0  0  0  0  0  0  0  0  0  0
   -0.6409   41.6962  -30.6987 C   0  0  0  0  0  0  0  0  0  0  0  0
   -1.6108   42.6293  -31.3827 C   0  0  0  0  0  0  0  0  0  0  0  0
   -0.8687   43.6882  -32.1620 C   0  0  0  0  0  0  0  0  0  0  0  0
   -1.8385   44.6201  -32.8476 C   0  0  0  0  0  0  0  0  0  0  0  0
   -1.0964   45.6802  -33.6252 C   0  0  0  0  0  0  0  0  0  0  0  0
   -2.0663   46.6133  -34.3093 C   0  0  0  0  0  0  0  0  0  0  0  0
   -1.3242   47.6734  -35.0869 C   0  0  0  0  0  0  0  0  0  0  0  0
   -2.2940   48.6064  -35.7710 C   0  0  0  0  0  0  0  0  0  0  0  0
   -1.5519   49.6653  -36.5502 C   0  0  0  0  0  0  0  0  0  0  0  0
   -2.5218   50.5984  -37.2343 C   0  0  0  0  0  0  0  0  0  0  0  0
   -1.7797   51.6573  -38.0135 C   0  0  0  0  0  0  0  0  0  0  0  0
   -2.7495   52.5892  -38.6992 C   0  0  0  0  0  0  0  0  0  0  0  0
   -2.0074   53.6481  -39.4784 C   0  0  0  0  0  0  0  0  0  0  0  0
   -2.9772   54.5812  -40.1625 C   0  0  0  0  0  0  0  0  0  0  0  0
   -2.2351   55.6413  -40.9401 C   0  0  0  0  0  0  0  0  0  0  0  0
   -3.2050   56.5732  -41.6257 C   0  0  0  0  0  0  0  0  0  0  0  0
   -2.4629   57.6321  -42.4050 C   0  0  0  0  0  0  0  0  0  0  0  0
   -3.4327   58.5628  -43.0922 C   0  0  0  0  0  0  0  0  0  0  0  0
   -2.6906   59.6229  -43.8698 C   0  0  0  0  0  0  0  0  0  0  0  0
   -3.6605   60.5524  -44.5587 C   0  0  0  0  0  0  0  0  0  0  0  0
   -2.9184   61.6113  -45.3380 C   0  0  0  0  0  0  0  0  0  0  0  0
   -3.8882   62.5420  -46.0253 C   0  0  0  0  0  0  0  0  0  0  0  0
   -3.1461   63.6009  -46.8045 C   0  0  0  0  0  0  0  0  0  0  0  0
   -4.1159   64.5328  -47.4902 C   0  0  0  0  0  0  0  0  0  0  0  0
   -3.3738   65.5905  -48.2710 C   0  0  0  0  0  0  0  0  0  0  0  0
   -4.3437   66.5236  -48.9550 C   0  0  0  0  0  0  0  0  0  0  0  0
   -3.6016   67.5800  -49.7374 C   0  0  0  0  0  0  0  0  0  0  0  0
   -4.5714   68.5141  -50.4197 C   0  0  0  0  0  0  0  0  0  0  0  0
   -3.8294   69.5702  -51.2018 C   0  0  0  0  0  0  0  0  0  0  0  0
   -4.8005   70.5060  -51.8829 C   0  0  0  0  0  0  0  0  0  0  0  0
   -4.0498   71.5646  -52.6645 C   0  0  0  0  0  0  0  0  0  0  0  0
   -4.9882   72.5548  -53.3857 C   0  0  0  0  0  0  0  0  0  0  0  0
   -4.2564   73.5641  -54.1309 C   0  0  0  0  0  0  0  0  0  0  0  0
   -5.2519   74.4672  -54.7854 C   0  0  0  0  0  0  0  0  0  0  0  0
   -4.5015   75.5466  -55.5821 C   0  0  0  0  0  0  0  0  0  0  0  0
  -16.3443    1.1964  -23.6930 H   0  0  0  0  0  0  0  0  0  0  0  0
  -16.5132    2.8152  -22.9880 H   0  0  0  0  0  0  0  0  0  0  0  0
  -16.3265    1.4289  -21.9347 H   0  0  0  0  0  0  0  0  0  0  0  0
  -13.3991    1.1184  -24.3181 H   0  0  0  0  0  0  0  0  0  0  0  0
  -15.2217    2.8112  -20.2997 H   0  0  0  0  0  0  0  0  0  0  0  0
  -15.4194    4.1979  -21.3617 H   0  0  0  0  0  0  0  0  0  0  0  0
  -13.3101    5.1731  -20.4992 H   0  0  0  0  0  0  0  0  0  0  0  0
  -13.1070    3.7696  -19.4268 H   0  0  0  0  0  0  0  0  0  0  0  0
  -15.2207    4.3779  -18.2412 H   0  0  0  0  0  0  0  0  0  0  0  0
  -15.4241    5.7691  -19.3059 H   0  0  0  0  0  0  0  0  0  0  0  0
  -13.0587    5.2932  -17.4413 H   0  0  0  0  0  0  0  0  0  0  0  0
  -14.4018    6.4297  -17.1736 H   0  0  0  0  0  0  0  0  0  0  0  0
  -11.5546    7.0417  -17.3126 H   0  0  0  0  0  0  0  0  0  0  0  0
  -12.8969    8.1796  -17.0468 H   0  0  0  0  0  0  0  0  0  0  0  0
  -12.2517    9.4096  -19.1027 H   0  0  0  0  0  0  0  0  0  0  0  0
  -10.9202    8.2809  -19.3663 H   0  0  0  0  0  0  0  0  0  0  0  0
   -9.9380    8.9242  -17.1691 H   0  0  0  0  0  0  0  0  0  0  0  0
  -11.2716   10.0547  -16.9050 H   0  0  0  0  0  0  0  0  0  0  0  0
  -10.6283   11.2892  -18.9581 H   0  0  0  0  0  0  0  0  0  0  0  0
   -9.2984   10.1619  -19.2214 H   0  0  0  0  0  0  0  0  0  0  0  0
   -8.3198   10.8049  -17.0357 H   0  0  0  0  0  0  0  0  0  0  0  0
   -9.6505   11.9330  -16.7723 H   0  0  0  0  0  0  0  0  0  0  0  0
   -9.0085   13.1688  -18.8244 H   0  0  0  0  0  0  0  0  0  0  0  0
   -7.6786   12.0414  -19.0876 H   0  0  0  0  0  0  0  0  0  0  0  0
   -6.7006   12.6830  -16.8999 H   0  0  0  0  0  0  0  0  0  0  0  0
   -8.0312   13.8090  -16.6347 H   0  0  0  0  0  0  0  0  0  0  0  0
   -7.3924   15.0476  -18.6876 H   0  0  0  0  0  0  0  0  0  0  0  0
   -6.0617   13.9216  -18.9528 H   0  0  0  0  0  0  0  0  0  0  0  0
   -5.0839   14.5616  -16.7640 H   0  0  0  0  0  0  0  0  0  0  0  0
   -6.4145   15.6876  -16.4988 H   0  0  0  0  0  0  0  0  0  0  0  0
   -5.7757   16.9261  -18.5517 H   0  0  0  0  0  0  0  0  0  0  0  0
   -4.4450   15.8001  -18.8169 H   0  0  0  0  0  0  0  0  0  0  0  0
   -3.4672   16.4401  -16.6281 H   0  0  0  0  0  0  0  0  0  0  0  0
   -4.7978   17.5661  -16.3630 H   0  0  0  0  0  0  0  0  0  0  0  0
   -4.1590   18.8046  -18.4159 H   0  0  0  0  0  0  0  0  0  0  0  0
   -2.8284   17.6786  -18.6810 H   0  0  0  0  0  0  0  0  0  0  0  0
   -1.8505   18.3187  -16.4923 H   0  0  0  0  0  0  0  0  0  0  0  0
   -3.1811   19.4446  -16.2271 H   0  0  0  0  0  0  0  0  0  0  0  0
   -2.5423   20.6832  -18.2800 H   0  0  0  0  0  0  0  0  0  0  0  0
   -1.2117   19.5572  -18.5452 H   0  0  0  0  0  0  0  0  0  0  0  0
   -0.2338   20.1972  -16.3564 H   0  0  0  0  0  0  0  0  0  0  0  0
   -1.5644   21.3232  -16.0912 H   0  0  0  0  0  0  0  0  0  0  0  0
   -0.9256   22.5616  -18.1441 H   0  0  0  0  0  0  0  0  0  0  0  0
    0.4050   21.4357  -18.4093 H   0  0  0  0  0  0  0  0  0  0  0  0
    1.3819   22.0755  -16.2194 H   0  0  0  0  0  0  0  0  0  0  0  0
    0.0521   23.2029  -15.9562 H   0  0  0  0  0  0  0  0  0  0  0  0
    2.0507   23.3102  -18.2492 H   0  0  0  0  0  0  0  0  0  0  0  0
    2.0504   24.3574  -16.8308 H   0  0  0  0  0  0  0  0  0  0  0  0
   -0.2020   25.1940  -17.4479 H   0  0  0  0  0  0  0  0  0  0  0  0
   -0.2036   24.1455  -18.8654 H   0  0  0  0  0  0  0  0  0  0  0  0
    1.8209   25.2964  -19.7200 H   0  0  0  0  0  0  0  0  0  0  0  0
    1.8247   26.3439  -18.3018 H   0  0  0  0  0  0  0  0  0  0  0  0
   -0.4287   27.1823  -18.9150 H   0  0  0  0  0  0  0  0  0  0  0  0
   -0.4325   26.1348  -20.3332 H   0  0  0  0  0  0  0  0  0  0  0  0
    1.5920   27.2849  -21.1891 H   0  0  0  0  0  0  0  0  0  0  0  0
    1.5980   28.3314  -19.7702 H   0  0  0  0  0  0  0  0  0  0  0  0
   -0.6563   29.1708  -20.3807 H   0  0  0  0  0  0  0  0  0  0  0  0
   -0.6604   28.1256  -21.8006 H   0  0  0  0  0  0  0  0  0  0  0  0
    1.3653   29.2768  -22.6539 H   0  0  0  0  0  0  0  0  0  0  0  0
    1.3693   30.3220  -21.2340 H   0  0  0  0  0  0  0  0  0  0  0  0
   -0.8840   31.1616  -21.8456 H   0  0  0  0  0  0  0  0  0  0  0  0
   -0.8881   30.1163  -23.2655 H   0  0  0  0  0  0  0  0  0  0  0  0
    1.1375   31.2676  -24.1188 H   0  0  0  0  0  0  0  0  0  0  0  0
    1.1416   32.3128  -22.6989 H   0  0  0  0  0  0  0  0  0  0  0  0
   -1.1118   33.1524  -23.3105 H   0  0  0  0  0  0  0  0  0  0  0  0
   -1.1158   32.1071  -24.7304 H   0  0  0  0  0  0  0  0  0  0  0  0
    0.9098   33.2584  -25.5837 H   0  0  0  0  0  0  0  0  0  0  0  0
    0.9138   34.3036  -24.1638 H   0  0  0  0  0  0  0  0  0  0  0  0
   -1.3395   35.1432  -24.7754 H   0  0  0  0  0  0  0  0  0  0  0  0
   -1.3436   34.0979  -26.1952 H   0  0  0  0  0  0  0  0  0  0  0  0
    0.6831   35.2491  -27.0476 H   0  0  0  0  0  0  0  0  0  0  0  0
    0.6850   36.2954  -25.6284 H   0  0  0  0  0  0  0  0  0  0  0  0
   -1.5693   37.1318  -26.2430 H   0  0  0  0  0  0  0  0  0  0  0  0
   -1.5693   36.0868  -27.6631 H   0  0  0  0  0  0  0  0  0  0  0  0
    0.4563   37.2410  -28.5124 H   0  0  0  0  0  0  0  0  0  0  0  0
    0.4563   38.2859  -27.0923 H   0  0  0  0  0  0  0  0  0  0  0  0
   -1.7971   39.1226  -27.7079 H   0  0  0  0  0  0  0  0  0  0  0  0
   -1.7970   38.0776  -29.1280 H   0  0  0  0  0  0  0  0  0  0  0  0
    0.2286   39.2318  -29.9773 H   0  0  0  0  0  0  0  0  0  0  0  0
    0.2286   40.2767  -28.5572 H   0  0  0  0  0  0  0  0  0  0  0  0
   -2.0239   41.1144  -29.1726 H   0  0  0  0  0  0  0  0  0  0  0  0
   -2.0257   40.0682  -30.5918 H   0  0  0  0  0  0  0  0  0  0  0  0
   -0.0012   41.2203  -31.4449 H   0  0  0  0  0  0  0  0  0  0  0  0
    0.0028   42.2656  -30.0250 H   0  0  0  0  0  0  0  0  0  0  0  0
   -2.2515   43.1041  -30.6367 H   0  0  0  0  0  0  0  0  0  0  0  0
   -2.2536   42.0601  -32.0575 H   0  0  0  0  0  0  0  0  0  0  0  0
   -0.2269   43.2134  -32.9071 H   0  0  0  0  0  0  0  0  0  0  0  0
   -0.2269   44.2583  -31.4869 H   0  0  0  0  0  0  0  0  0  0  0  0
   -2.4812   45.0939  -32.1027 H   0  0  0  0  0  0  0  0  0  0  0  0
   -2.4793   44.0502  -33.5237 H   0  0  0  0  0  0  0  0  0  0  0  0
   -0.4548   45.2065  -34.3712 H   0  0  0  0  0  0  0  0  0  0  0  0
   -0.4545   46.2492  -32.9494 H   0  0  0  0  0  0  0  0  0  0  0  0
   -2.7079   47.0870  -33.5634 H   0  0  0  0  0  0  0  0  0  0  0  0
   -2.7081   46.0443  -34.9852 H   0  0  0  0  0  0  0  0  0  0  0  0
   -0.6825   47.1996  -35.8328 H   0  0  0  0  0  0  0  0  0  0  0  0
   -0.6823   48.2423  -34.4111 H   0  0  0  0  0  0  0  0  0  0  0  0
   -2.9347   49.0812  -35.0249 H   0  0  0  0  0  0  0  0  0  0  0  0
   -2.9368   48.0372  -36.4458 H   0  0  0  0  0  0  0  0  0  0  0  0
   -0.9112   49.1905  -37.2963 H   0  0  0  0  0  0  0  0  0  0  0  0
   -0.9091   50.2345  -35.8754 H   0  0  0  0  0  0  0  0  0  0  0  0
   -3.1624   51.0732  -36.4882 H   0  0  0  0  0  0  0  0  0  0  0  0
   -3.1646   50.0292  -37.9090 H   0  0  0  0  0  0  0  0  0  0  0  0
   -1.1379   51.1825  -38.7586 H   0  0  0  0  0  0  0  0  0  0  0  0
   -1.1379   52.2274  -37.3385 H   0  0  0  0  0  0  0  0  0  0  0  0
   -3.3913   53.0640  -37.9541 H   0  0  0  0  0  0  0  0  0  0  0  0
   -3.3912   52.0191  -39.3742 H   0  0  0  0  0  0  0  0  0  0  0  0
   -1.3667   53.1733  -40.2244 H   0  0  0  0  0  0  0  0  0  0  0  0
   -1.3646   54.2173  -38.8036 H   0  0  0  0  0  0  0  0  0  0  0  0
   -3.6189   55.0549  -39.4165 H   0  0  0  0  0  0  0  0  0  0  0  0
   -3.6191   54.0122  -40.8383 H   0  0  0  0  0  0  0  0  0  0  0  0
   -1.5924   55.1675  -41.6850 H   0  0  0  0  0  0  0  0  0  0  0  0
   -1.5944   56.2112  -40.2640 H   0  0  0  0  0  0  0  0  0  0  0  0
   -3.8468   57.0480  -40.8806 H   0  0  0  0  0  0  0  0  0  0  0  0
   -3.8467   56.0030  -42.3008 H   0  0  0  0  0  0  0  0  0  0  0  0
   -1.8200   57.1572  -43.1491 H   0  0  0  0  0  0  0  0  0  0  0  0
   -1.8222   58.2031  -41.7297 H   0  0  0  0  0  0  0  0  0  0  0  0
   -4.0765   59.0366  -42.3482 H   0  0  0  0  0  0  0  0  0  0  0  0
   -4.0724   57.9919  -43.7686 H   0  0  0  0  0  0  0  0  0  0  0  0
   -2.0457   59.1490  -44.6129 H   0  0  0  0  0  0  0  0  0  0  0  0
   -2.0520   60.1946  -43.1933 H   0  0  0  0  0  0  0  0  0  0  0  0
   -4.3044   61.0273  -43.8156 H   0  0  0  0  0  0  0  0  0  0  0  0
   -4.3000   59.9804  -45.2342 H   0  0  0  0  0  0  0  0  0  0  0  0
   -2.2755   61.1364  -46.0821 H   0  0  0  0  0  0  0  0  0  0  0  0
   -2.2777   62.1823  -44.6627 H   0  0  0  0  0  0  0  0  0  0  0  0
   -4.5311   63.0169  -45.2811 H   0  0  0  0  0  0  0  0  0  0  0  0
   -4.5289   61.9709  -46.7005 H   0  0  0  0  0  0  0  0  0  0  0  0
   -2.5043   63.1260  -47.5496 H   0  0  0  0  0  0  0  0  0  0  0  0
   -2.5043   64.1710  -46.1295 H   0  0  0  0  0  0  0  0  0  0  0  0
   -4.7568   65.0087  -46.7449 H   0  0  0  0  0  0  0  0  0  0  0  0
   -4.7586   63.9625  -48.1641 H   0  0  0  0  0  0  0  0  0  0  0  0
   -2.7341   65.1146  -49.0172 H   0  0  0  0  0  0  0  0  0  0  0  0
   -2.7300   66.1599  -47.5973 H   0  0  0  0  0  0  0  0  0  0  0  0
   -4.9824   67.0005  -48.2087 H   0  0  0  0  0  0  0  0  0  0  0  0
   -4.9884   65.9540  -49.6277 H   0  0  0  0  0  0  0  0  0  0  0  0
   -2.9639   67.1032  -50.4847 H   0  0  0  0  0  0  0  0  0  0  0  0
   -2.9557   68.1487  -49.0651 H   0  0  0  0  0  0  0  0  0  0  0  0
   -5.2091   68.9913  -49.6726 H   0  0  0  0  0  0  0  0  0  0  0  0
   -5.2172   67.9457  -51.0923 H   0  0  0  0  0  0  0  0  0  0  0  0
   -3.1927   69.0939  -51.9505 H   0  0  0  0  0  0  0  0  0  0  0  0
   -3.1824   70.1385  -50.5301 H   0  0  0  0  0  0  0  0  0  0  0  0
   -5.4366   70.9825  -51.1353 H   0  0  0  0  0  0  0  0  0  0  0  0
   -5.4450   69.9392  -52.5567 H   0  0  0  0  0  0  0  0  0  0  0  0
   -3.4193   71.0864  -53.4110 H   0  0  0  0  0  0  0  0  0  0  0  0
   -3.4110   72.1300  -51.9894 H   0  0  0  0  0  0  0  0  0  0  0  0
   -5.6542   72.9738  -52.6063 H   0  0  0  0  0  0  0  0  0  0  0  0
   -5.6621   71.9402  -54.0144 H   0  0  0  0  0  0  0  0  0  0  0  0
   -3.6435   73.0808  -54.8783 H   0  0  0  0  0  0  0  0  0  0  0  0
   -3.6330   74.1268  -53.4508 H   0  0  0  0  0  0  0  0  0  0  0  0
   -5.8856   74.9734  -54.0596 H   0  0  0  0  0  0  0  0  0  0  0  0
   -5.8963   73.9321  -55.4803 H   0  0  0  0  0  0  0  0  0  0  0  0
   -3.8666   76.1338  -54.9145 H   0  0  0  0  0  0  0  0  0  0  0  0
   -5.2101   76.2262  -56.0749 H   0  0  0  0  0  0  0  0  0  0  0  0
   -3.8774   75.0823  -56.3492 H   0  0  0  0  0  0  0  0  0  0  0  0
  1  2  1  0  0  0  0
  1 80  1  0  0  0  0
  1 81  1  0  0  0  0
  1 82  1  0  0  0  0
  2  3  1  0  0  0  0
  2  4  1  0  0  0  0
  3  4  2  0  0  0  0
  3 83  1  0  0  0  0
  4  5  1  0  0  0  0
  5  6  1  0  0  0  0
  5 84  1  0  0  0  0
  5 85  1  0  0  0  0
  6  7  1  0  0  0  0
  6 86  1  0  0  0  0
  6 87  1  0  0  0  0
  7  8  1  0  0  0  0
  7 88  1  0  0  0  0
  7 89  1  0  0  0  0
  8  9  1  0  0  0  0
  8 90  1  0  0  0  0
  8 91  1  0  0  0  0
  9 10  1  0  0  0  0
 10 11  1  0  0  0  0
 10 92  1  0  0  0  0
 10 93  1  0  0  0  0
 11 12  1  0  0  0  0
 11 94  1  0  0  0  0
 11 95  1  0  0  0  0
 12 13  1  0  0  0  0
 12 96  1  0  0  0  0
 12 97  1  0  0  0  0
 13 14  1  0  0  0  0
 13 98  1  0  0  0  0
 13 99  1  0  0  0  0
 14 15  1  0  0  0  0
 14100  1  0  0  0  0
 14101  1  0  0  0  0
 15 16  1  0  0  0  0
 15102  1  0  0  0  0
 15103  1  0  0  0  0
 16 17  1  0  0  0  0
 16104  1  0  0  0  0
 16105  1  0  0  0  0
 17 18  1  0  0  0  0
 17106  1  0  0  0  0
 17107  1  0  0  0  0
 18 19  1  0  0  0  0
 18108  1  0  0  0  0
 18109  1  0  0  0  0
 19 20  1  0  0  0  0
 19110  1  0  0  0  0
 19111  1  0  0  0  0
 20 21  1  0  0  0  0
 20112  1  0  0  0  0
 20113  1  0  0  0  0
 21 22  1  0  0  0  0
 21114  1  0  0  0  0
 21115  1  0  0  0  0
 22 23  1  0  0  0  0
 22116  1  0  0  0  0
 22117  1  0  0  0  0
 23 24  1  0  0  0  0
 23118  1  0  0  0  0
 23119  1  0  0  0  0
 24 25  1  0  0  0  0
 24120  1  0  0  0  0
 24121  1  0  0  0  0
 25 26  1  0  0  0  0
 25122  1  0  0  0  0
 25123  1  0  0  0  0
 26 27  1  0  0  0  0
 26124  1  0  0  0  0
 26125  1  0  0  0  0
 27 28  1  0  0  0  0
 27126  1  0  0  0  0
 27127  1  0  0  0  0
 28 29  1  0  0  0  0
 28128  1  0  0  0  0
 28129  1  0  0  0  0
 29 30  1  0  0  0  0
 29130  1  0  0  0  0
 29131  1  0  0  0  0
 30 31  1  0  0  0  0
 30132  1  0  0  0  0
 30133  1  0  0  0  0
 31 32  1  0  0  0  0
 31134  1  0  0  0  0
 31135  1  0  0  0  0
 32 33  1  0  0  0  0
 32136  1  0  0  0  0
 32137  1  0  0  0  0
 33 34  1  0  0  0  0
 33138  1  0  0  0  0
 33139  1  0  0  0  0
 34 35  1  0  0  0  0
 34140  1  0  0  0  0
 34141  1  0  0  0  0
 35 36  1  0  0  0  0
 35142  1  0  0  0  0
 35143  1  0  0  0  0
 36 37  1  0  0  0  0
 36144  1  0  0  0  0
 36145  1  0  0  0  0
 37 38  1  0  0  0  0
 37146  1  0  0  0  0
 37147  1  0  0  0  0
 38 39  1  0  0  0  0
 38148  1  0  0  0  0
 38149  1  0  0  0  0
 39 40  1  0  0  0  0
 39150  1  0  0  0  0
 39151  1  0  0  0  0
 40 41  1  0  0  0  0
 40152  1  0  0  0  0
 40153  1  0  0  0  0
 41 42  1  0  0  0  0
 41154  1  0  0  0  0
 41155  1  0  0  0  0
 42 43  1  0  0  0  0
 42156  1  0  0  0  0
 42157  1  0  0  0  0
 43 44  1  0  0  0  0
 43158  1  0  0  0  0
 43159  1  0  0  0  0
 44 45  1  0  0  0  0
 44160  1  0  0  0  0
 44161  1  0  0  0  0
 45 46  1  0  0  0  0
 45162  1  0  0  0  0
 45163  1  0  0  0  0
 46 47  1  0  0  0  0
 46164  1  0  0  0  0
 46165  1  0  0  0  0
 47 48  1  0  0  0  0
 47166  1  0  0  0  0
 47167  1  0  0  0  0
 48 49  1  0  0  0  0
 48168  1  0  0  0  0
 48169  1  0  0  0  0
 49 50  1  0  0  0  0
 49170  1  0  0  0  0
 49171  1  0  0  0  0
 50 51  1  0  0  0  0
 50172  1  0  0  0  0
 50173  1  0  0  0  0
 51 52  1  0  0  0  0
 51174  1  0  0  0  0
 51175  1  0  0  0  0
 52 53  1  0  0  0  0
 52176  1  0  0  0  0
 52177  1  0  0  0  0
 53 54  1  0  0  0  0
 53178  1  0  0  0  0
 53179  1  0  0  0  0
 54 55  1  0  0  0  0
 54180  1  0  0  0  0
 54181  1  0  0  0  0
 55 56  1  0  0  0  0
 55182  1  0  0  0  0
 55183  1  0  0  0  0
 56 57  1  0  0  0  0
 56184  1  0  0  0  0
 56185  1  0  0  0  0
 57 58  1  0  0  0  0
 57186  1  0  0  0  0
 57187  1  0  0  0  0
 58 59  1  0  0  0  0
 58188  1  0  0  0  0
 58189  1  0  0  0  0
 59 60  1  0  0  0  0
 59190  1  0  0  0  0
 59191  1  0  0  0  0
 60 61  1  0  0  0  0
 60192  1  0  0  0  0
 60193  1  0  0  0  0
 61 62  1  0  0  0  0
 61194  1  0  0  0  0
 61195  1  0  0  0  0
 62 63  1  0  0  0  0
 62196  1  0  0  0  0
 62197  1  0  0  0  0
 63 64  1  0  0  0  0
 63198  1  0  0  0  0
 63199  1  0  0  0  0
 64 65  1  0  0  0  0
 64200  1  0  0  0  0
 64201  1  0  0  0  0
 65 66  1  0  0  0  0
 65202  1  0  0  0  0
 65203  1  0  0  0  0
 66 67  1  0  0  0  0
 66204  1  0  0  0  0
 66205  1  0  0  0  0
 67 68  1  0  0  0  0
 67206  1  0  0  0  0
 67207  1  0  0  0  0
 68 69  1  0  0  0  0
 68208  1  0  0  0  0
 68209  1  0  0  0  0
 69 70  1  0  0  0  0
 69210  1  0  0  0  0
 69211  1  0  0  0  0
 70 71  1  0  0  0  0
 70212  1  0  0  0  0
 70213  1  0  0  0  0
 71 72  1  0  0  0  0
 71214  1  0  0  0  0
 71215  1  0  0  0  0
 72 73  1  0  0  0  0
 72216  1  0  0  0  0
 72217  1  0  0  0  0
 73 74  1  0  0  0  0
 73218  1  0  0  0  0
 73219  1  0  0  0  0
 74 75  1  0  0  0  0
 74220  1  0  0  0  0
 74221  1  0  0  0  0
 75 76  1  0  0  0  0
 75222  1  0  0  0  0
 75223  1  0  0  0  0
 76 77  1  0  0  0  0
 76224  1  0  0  0  0
 76225  1  0  0  0  0
 77 78  1  0  0  0  0
 77226  1  0  0  0  0
 77227  1  0  0  0  0
 78 79  1  0  0  0  0
 78228  1  0  0  0  0
 78229  1  0  0  0  0
 79230  1  0  0  0  0
 79231  1  0  0  0  0
 79232  1  0  0  0  0
M  END
$$$$
