
 OpenBabel04232216523D

 65 65  0  0  1  0  0  0  0  0999 V2000
    7.1466   -3.4426   -1.5811 C   0  0  0  0  0  0  0  0  0  0  0  0
    5.7680   -3.3135   -0.9525 C   0  0  0  0  0  0  0  0  0  0  0  0
    5.8189   -2.7710    0.4921 C   0  0  0  0  0  0  0  0  0  0  0  0
    6.4382   -3.6608    1.6390 C   0  0  0  0  0  0  0  0  0  0  0  0
    7.3898   -3.0955    2.8466 C   0  0  3  0  0  0  0  0  0  0  0  0
    7.8683   -1.5982    2.7821 C   0  0  3  0  0  0  0  0  0  0  0  0
    7.1156   -0.3982    2.1710 C   0  0  0  0  0  0  0  0  0  0  0  0
    8.0463   -1.1410    4.2455 C   0  0  0  0  0  0  0  0  0  0  0  0
    9.4675   -0.6987    4.4749 C   0  0  0  0  0  0  0  0  0  0  0  0
    9.7577   -0.8539    5.8715 N   0  0  0  0  0  0  0  0  0  0  0  0
   11.0763   -1.0057    6.2363 C   0  0  0  0  0  0  0  0  0  0  0  0
   12.0194   -0.7478    5.4972 O   0  0  0  0  0  0  0  0  0  0  0  0
   11.1474   -1.6816    7.4565 N   0  0  0  0  0  0  0  0  0  0  0  0
   12.0833   -2.6954    7.4760 C   0  0  0  0  0  0  0  0  0  0  0  0
   11.5762   -3.9182    7.1811 C   0  0  0  0  0  0  0  0  0  0  0  0
   11.8688   -4.4353    5.7963 C   0  0  0  0  0  0  0  0  0  0  0  0
   13.4456   -4.5854    5.8162 C   0  0  0  0  0  0  0  0  0  0  0  0
   14.3554   -5.5221    5.0283 C   0  0  0  0  0  0  0  0  0  0  0  0
   14.5125   -5.1467    3.5661 C   0  0  0  0  0  0  0  0  0  0  0  0
   15.0581   -3.7326    3.2983 C   0  0  0  0  0  0  0  0  0  0  0  0
   16.4857   -3.4426    3.7911 C   0  0  0  0  0  0  0  0  0  0  0  0
   17.5662   -4.3338    3.1716 C   0  0  0  0  0  0  0  0  0  0  0  0
   18.9235   -3.9571    3.6403 C   0  0  0  0  0  0  0  0  0  0  0  0
   19.7411   -4.7461    4.0922 O   0  0  0  0  0  0  0  0  0  0  0  0
   10.8093   -4.8823    5.0236 C   0  0  0  0  0  0  0  0  0  0  0  0
    9.8993   -4.0281    3.9936 C   0  0  0  0  0  0  0  0  0  0  0  0
    8.5395   -4.1128    3.6852 C   0  0  0  0  0  0  0  0  0  0  0  0
    7.0649   -3.7901   -2.6171 H   0  0  0  0  0  0  0  0  0  0  0  0
    7.7618   -4.1526   -1.0257 H   0  0  0  0  0  0  0  0  0  0  0  0
    7.6616   -2.4749   -1.6022 H   0  0  0  0  0  0  0  0  0  0  0  0
    5.2193   -4.2572   -1.0106 H   0  0  0  0  0  0  0  0  0  0  0  0
    5.2046   -2.5952   -1.5728 H   0  0  0  0  0  0  0  0  0  0  0  0
    4.7794   -2.5147    0.7541 H   0  0  0  0  0  0  0  0  0  0  0  0
    6.3353   -1.8401    0.3708 H   0  0  0  0  0  0  0  0  0  0  0  0
    6.8185   -4.6013    1.2368 H   0  0  0  0  0  0  0  0  0  0  0  0
    5.5173   -3.9635    2.1741 H   0  0  0  0  0  0  0  0  0  0  0  0
    6.6191   -3.0733    3.6405 H   0  0  0  0  0  0  0  0  0  0  0  0
    8.8193   -1.6403    2.2401 H   0  0  0  0  0  0  0  0  0  0  0  0
    6.1808   -0.1631    2.6927 H   0  0  0  0  0  0  0  0  0  0  0  0
    6.9344   -0.4027    1.1052 H   0  0  0  0  0  0  0  0  0  0  0  0
    7.7656    0.4848    2.2742 H   0  0  0  0  0  0  0  0  0  0  0  0
    7.7558   -1.9366    4.9445 H   0  0  0  0  0  0  0  0  0  0  0  0
    7.3701   -0.3203    4.5251 H   0  0  0  0  0  0  0  0  0  0  0  0
    9.6202    0.3422    4.1772 H   0  0  0  0  0  0  0  0  0  0  0  0
   10.1642   -1.2996    3.8881 H   0  0  0  0  0  0  0  0  0  0  0  0
    9.1504   -1.5048    6.3405 H   0  0  0  0  0  0  0  0  0  0  0  0
   10.2375   -1.9519    7.8021 H   0  0  0  0  0  0  0  0  0  0  0  0
   13.0217   -2.3398    7.0523 H   0  0  0  0  0  0  0  0  0  0  0  0
   10.6418   -4.2410    7.6222 H   0  0  0  0  0  0  0  0  0  0  0  0
   13.7130   -4.8637    6.8528 H   0  0  0  0  0  0  0  0  0  0  0  0
   13.8782   -3.5851    5.7023 H   0  0  0  0  0  0  0  0  0  0  0  0
   14.0371   -6.5616    5.1488 H   0  0  0  0  0  0  0  0  0  0  0  0
   15.3568   -5.4776    5.4939 H   0  0  0  0  0  0  0  0  0  0  0  0
   13.5296   -5.2401    3.0951 H   0  0  0  0  0  0  0  0  0  0  0  0
   15.1645   -5.8842    3.0880 H   0  0  0  0  0  0  0  0  0  0  0  0
   14.3811   -2.9833    3.7275 H   0  0  0  0  0  0  0  0  0  0  0  0
   15.0265   -3.5667    2.2164 H   0  0  0  0  0  0  0  0  0  0  0  0
   16.5371   -3.4856    4.8820 H   0  0  0  0  0  0  0  0  0  0  0  0
   16.7187   -2.3915    3.5293 H   0  0  0  0  0  0  0  0  0  0  0  0
   17.5264   -4.2616    2.0932 H   0  0  0  0  0  0  0  0  0  0  0  0
   17.3500   -5.3873    3.4242 H   0  0  0  0  0  0  0  0  0  0  0  0
   19.1862   -2.8944    3.4938 H   0  0  0  0  0  0  0  0  0  0  0  0
    9.9985   -5.2973    5.6456 H   0  0  0  0  0  0  0  0  0  0  0  0
   10.5144   -3.2715    3.5186 H   0  0  0  0  0  0  0  0  0  0  0  0
    7.9809   -4.9012    4.2000 H   0  0  0  0  0  0  0  0  0  0  0  0
  1  2  1  0  0  0  0
  1 28  1  0  0  0  0
  1 29  1  0  0  0  0
  1 30  1  0  0  0  0
  2  3  1  0  0  0  0
  2 31  1  0  0  0  0
  2 32  1  0  0  0  0
  3  4  1  0  0  0  0
  3 33  1  0  0  0  0
  3 34  1  0  0  0  0
  4  5  1  0  0  0  0
  4 35  1  0  0  0  0
  4 36  1  0  0  0  0
  5  6  1  0  0  0  0
  5 27  1  0  0  0  0
  5 37  1  0  0  0  0
  6  7  1  0  0  0  0
  6  8  1  0  0  0  0
  6 38  1  0  0  0  0
  7 39  1  0  0  0  0
  7 40  1  0  0  0  0
  7 41  1  0  0  0  0
  8  9  1  0  0  0  0
  8 42  1  0  0  0  0
  8 43  1  0  0  0  0
  9 10  1  0  0  0  0
  9 44  1  0  0  0  0
  9 45  1  0  0  0  0
 10 11  1  0  0  0  0
 10 46  1  0  0  0  0
 11 12  2  0  0  0  0
 11 13  1  0  0  0  0
 13 14  1  0  0  0  0
 13 47  1  0  0  0  0
 14 15  2  3  0  0  0
 14 48  1  0  0  0  0
 15 16  1  0  0  0  0
 15 49  1  0  0  0  0
 16 17  1  0  0  0  0
 16 25  2  3  0  0  0
 17 18  1  0  0  0  0
 17 50  1  0  0  0  0
 17 51  1  0  0  0  0
 18 19  1  0  0  0  0
 18 52  1  0  0  0  0
 18 53  1  0  0  0  0
 19 20  1  0  0  0  0
 19 54  1  0  0  0  0
 19 55  1  0  0  0  0
 20 21  1  0  0  0  0
 20 56  1  0  0  0  0
 20 57  1  0  0  0  0
 21 22  1  0  0  0  0
 21 58  1  0  0  0  0
 21 59  1  0  0  0  0
 22 23  1  0  0  0  0
 22 60  1  0  0  0  0
 22 61  1  0  0  0  0
 23 24  2  0  0  0  0
 23 62  1  0  0  0  0
 25 26  1  0  0  0  0
 25 63  1  0  0  0  0
 26 27  2  3  0  0  0
 26 64  1  0  0  0  0
 27 65  1  0  0  0  0
M  END
$$$$
