
 OpenBabel04232216523D

 74 75  0  0  1  0  0  0  0  0999 V2000
    0.7904   -0.0778    0.1620 C   0  0  0  0  0  0  0  0  0  0  0  0
    2.3077   -0.0821    0.1966 C   0  0  0  0  0  0  0  0  0  0  0  0
    2.8430    1.1642    0.8929 C   0  0  0  0  0  0  0  0  0  0  0  0
    4.3652    1.1514    0.9177 C   0  0  0  0  0  0  0  0  0  0  0  0
    4.9051    2.3950    1.6094 C   0  0  0  0  0  0  0  0  0  0  0  0
    6.4256    2.3609    1.6209 C   0  0  0  0  0  0  0  0  0  0  0  0
    6.9824    3.5920    2.3125 C   0  0  0  0  0  0  0  0  0  0  0  0
    8.5019    3.5350    2.3253 C   0  0  0  0  0  0  0  0  0  0  0  0
    9.0519    4.7535    3.0402 C   0  0  0  0  0  0  0  0  0  0  0  0
   10.5684    4.7055    3.0980 C   0  0  0  0  0  0  0  0  0  0  0  0
   11.0685    5.9300    3.8450 C   0  0  0  0  0  0  0  0  0  0  0  0
   12.5918    5.9709    3.8626 C   0  0  0  0  0  0  0  0  0  0  0  0
   13.1195    7.2756    4.4865 C   0  0  3  0  0  0  0  0  0  0  0  0
   12.6879    8.4395    3.6312 C   0  0  0  0  0  0  0  0  0  0  0  0
   12.3132    8.3020    2.4598 O   0  0  0  0  0  0  0  0  0  0  0  0
   12.7360    9.8301    4.1680 C   0  0  0  0  0  0  0  0  0  0  0  0
   13.9801   10.2732    4.4154 C   0  0  0  0  0  0  0  0  0  0  0  0
   15.0636    9.6562    5.1586 C   0  0  0  0  0  0  0  0  0  0  0  0
   16.0172   10.5621    5.9430 C   0  0  0  0  0  0  0  0  0  0  0  0
   16.1186   12.0756    5.6667 C   0  0  0  0  0  0  0  0  0  0  0  0
   15.0762   12.9376    6.4004 C   0  0  0  0  0  0  0  0  0  0  0  0
   13.8779   13.3643    5.5395 C   0  0  0  0  0  0  0  0  0  0  0  0
   12.5678   12.8583    6.1219 C   0  0  0  0  0  0  0  0  0  0  0  0
   11.4239   12.8864    5.1064 C   0  0  0  0  0  0  0  0  0  0  0  0
   10.8339   11.4997    4.8176 C   0  0  0  0  0  0  0  0  0  0  0  0
   11.5669   10.6904    3.7202 C   0  0  0  0  0  0  0  0  0  0  0  0
   15.3171    8.3363    5.2249 C   0  0  0  0  0  0  0  0  0  0  0  0
   14.6424    7.2193    4.5073 C   0  0  0  0  0  0  0  0  0  0  0  0
    0.4120   -0.9795   -0.3389 H   0  0  0  0  0  0  0  0  0  0  0  0
    0.4167    0.7968   -0.3812 H   0  0  0  0  0  0  0  0  0  0  0  0
    0.3788   -0.0538    1.1769 H   0  0  0  0  0  0  0  0  0  0  0  0
    2.6961   -0.1314   -0.8291 H   0  0  0  0  0  0  0  0  0  0  0  0
    2.6586   -0.9796    0.7185 H   0  0  0  0  0  0  0  0  0  0  0  0
    2.4590    1.2121    1.9192 H   0  0  0  0  0  0  0  0  0  0  0  0
    2.4914    2.0632    0.3722 H   0  0  0  0  0  0  0  0  0  0  0  0
    4.7548    1.1032   -0.1073 H   0  0  0  0  0  0  0  0  0  0  0  0
    4.7225    0.2555    1.4412 H   0  0  0  0  0  0  0  0  0  0  0  0
    4.5267    2.4472    2.6380 H   0  0  0  0  0  0  0  0  0  0  0  0
    4.5577    3.2962    1.0891 H   0  0  0  0  0  0  0  0  0  0  0  0
    6.8056    2.3116    0.5930 H   0  0  0  0  0  0  0  0  0  0  0  0
    6.7733    1.4582    2.1386 H   0  0  0  0  0  0  0  0  0  0  0  0
    6.6038    3.6464    3.3410 H   0  0  0  0  0  0  0  0  0  0  0  0
    6.6465    4.4988    1.7955 H   0  0  0  0  0  0  0  0  0  0  0  0
    8.8849    3.4985    1.2980 H   0  0  0  0  0  0  0  0  0  0  0  0
    8.8384    2.6218    2.8309 H   0  0  0  0  0  0  0  0  0  0  0  0
    8.6451    4.8034    4.0576 H   0  0  0  0  0  0  0  0  0  0  0  0
    8.7270    5.6634    2.5190 H   0  0  0  0  0  0  0  0  0  0  0  0
   10.9785    4.6878    2.0801 H   0  0  0  0  0  0  0  0  0  0  0  0
   10.9056    3.7935    3.6034 H   0  0  0  0  0  0  0  0  0  0  0  0
   10.6886    5.9299    4.8719 H   0  0  0  0  0  0  0  0  0  0  0  0
   10.6527    6.8178    3.3583 H   0  0  0  0  0  0  0  0  0  0  0  0
   12.9735    5.8675    2.8372 H   0  0  0  0  0  0  0  0  0  0  0  0
   12.9679    5.1072    4.4240 H   0  0  0  0  0  0  0  0  0  0  0  0
   12.7043    7.3898    5.4962 H   0  0  0  0  0  0  0  0  0  0  0  0
   14.1937   11.2786    4.0954 H   0  0  0  0  0  0  0  0  0  0  0  0
   17.0304   10.1698    5.7656 H   0  0  0  0  0  0  0  0  0  0  0  0
   15.8263   10.4131    7.0149 H   0  0  0  0  0  0  0  0  0  0  0  0
   16.1446   12.2903    4.5912 H   0  0  0  0  0  0  0  0  0  0  0  0
   17.1019   12.3893    6.0476 H   0  0  0  0  0  0  0  0  0  0  0  0
   15.5828   13.8546    6.7173 H   0  0  0  0  0  0  0  0  0  0  0  0
   14.7535   12.4396    7.3189 H   0  0  0  0  0  0  0  0  0  0  0  0
   13.9982   13.0837    4.4930 H   0  0  0  0  0  0  0  0  0  0  0  0
   13.8437   14.4658    5.4993 H   0  0  0  0  0  0  0  0  0  0  0  0
   12.3036   13.5065    6.9695 H   0  0  0  0  0  0  0  0  0  0  0  0
   12.6815   11.8519    6.5378 H   0  0  0  0  0  0  0  0  0  0  0  0
   11.7173   13.3753    4.1708 H   0  0  0  0  0  0  0  0  0  0  0  0
   10.6226   13.5083    5.5270 H   0  0  0  0  0  0  0  0  0  0  0  0
    9.8103   11.6727    4.4542 H   0  0  0  0  0  0  0  0  0  0  0  0
   10.7213   10.9234    5.7450 H   0  0  0  0  0  0  0  0  0  0  0  0
   11.8652   11.3435    2.9015 H   0  0  0  0  0  0  0  0  0  0  0  0
   10.7931   10.0222    3.3178 H   0  0  0  0  0  0  0  0  0  0  0  0
   16.1390    8.0036    5.8605 H   0  0  0  0  0  0  0  0  0  0  0  0
   14.9534    6.2856    4.9918 H   0  0  0  0  0  0  0  0  0  0  0  0
   15.0424    7.1867    3.4846 H   0  0  0  0  0  0  0  0  0  0  0  0
  1  2  1  0  0  0  0
  1 29  1  0  0  0  0
  1 30  1  0  0  0  0
  1 31  1  0  0  0  0
  2  3  1  0  0  0  0
  2 32  1  0  0  0  0
  2 33  1  0  0  0  0
  3  4  1  0  0  0  0
  3 34  1  0  0  0  0
  3 35  1  0  0  0  0
  4  5  1  0  0  0  0
  4 36  1  0  0  0  0
  4 37  1  0  0  0  0
  5  6  1  0  0  0  0
  5 38  1  0  0  0  0
  5 39  1  0  0  0  0
  6  7  1  0  0  0  0
  6 40  1  0  0  0  0
  6 41  1  0  0  0  0
  7  8  1  0  0  0  0
  7 42  1  0  0  0  0
  7 43  1  0  0  0  0
  8  9  1  0  0  0  0
  8 44  1  0  0  0  0
  8 45  1  0  0  0  0
  9 10  1  0  0  0  0
  9 46  1  0  0  0  0
  9 47  1  0  0  0  0
 10 11  1  0  0  0  0
 10 48  1  0  0  0  0
 10 49  1  0  0  0  0
 11 12  1  0  0  0  0
 11 50  1  0  0  0  0
 11 51  1  0  0  0  0
 12 13  1  0  0  0  0
 12 52  1  0  0  0  0
 12 53  1  0  0  0  0
 13 14  1  0  0  0  0
 13 28  1  0  0  0  0
 13 54  1  0  0  0  0
 14 15  2  0  0  0  0
 14 16  1  0  0  0  0
 16 17  2  0  0  0  0
 16 26  1  0  0  0  0
 17 18  1  0  0  0  0
 17 55  1  0  0  0  0
 18 19  1  0  0  0  0
 18 27  2  0  0  0  0
 19 20  1  0  0  0  0
 19 56  1  0  0  0  0
 19 57  1  0  0  0  0
 20 21  1  0  0  0  0
 20 58  1  0  0  0  0
 20 59  1  0  0  0  0
 21 22  1  0  0  0  0
 21 60  1  0  0  0  0
 21 61  1  0  0  0  0
 22 23  1  0  0  0  0
 22 62  1  0  0  0  0
 22 63  1  0  0  0  0
 23 24  1  0  0  0  0
 23 64  1  0  0  0  0
 23 65  1  0  0  0  0
 24 25  1  0  0  0  0
 24 66  1  0  0  0  0
 24 67  1  0  0  0  0
 25 26  1  0  0  0  0
 25 68  1  0  0  0  0
 25 69  1  0  0  0  0
 26 70  1  0  0  0  0
 26 71  1  0  0  0  0
 27 28  1  0  0  0  0
 27 72  1  0  0  0  0
 28 73  1  0  0  0  0
 28 74  1  0  0  0  0
M  END
$$$$
