
 OpenBabel04232216433D

 49 51  0  0  0  0  0  0  0  0999 V2000
    3.7234   -1.6344   -1.3116 C   0  0  0  0  0  0  0  0  0  0  0  0
    3.8858   -0.1308   -1.4778 C   0  0  0  0  0  3  0  0  0  0  0  0
    5.1141    0.6712   -1.0597 C   0  0  0  0  0  0  0  0  0  0  0  0
    6.2201   -0.1246   -0.4146 C   0  0  0  0  0  0  0  0  0  0  0  0
    5.8028   -0.6592    0.7509 C   0  0  0  0  0  0  0  0  0  0  0  0
    6.5394   -1.4502    1.7501 C   0  0  0  0  0  0  0  0  0  0  0  0
    5.6455   -1.3676    3.0518 C   0  0  0  0  0  0  0  0  0  0  0  0
    6.1037   -2.1067    4.3063 C   0  0  0  0  0  0  0  0  0  0  0  0
    7.9680   -0.8486    2.0660 C   0  0  0  0  0  0  0  0  0  0  0  0
    8.3401    0.6388    1.7051 C   0  0  0  0  0  0  0  0  0  0  0  0
    7.9961    1.2171    0.3176 C   0  0  0  0  0  0  0  0  0  0  0  0
    7.6827    0.0778   -0.6472 C   0  0  0  0  0  0  0  0  0  0  0  0
    8.8048   -0.4920   -1.1702 C   0  0  0  0  0  0  0  0  0  0  0  0
    9.5203   -1.5814   -1.8685 C   0  0  0  0  0  0  0  0  0  0  0  0
    9.3398   -2.7951   -2.4728 C   0  0  0  0  0  0  0  0  0  0  0  0
   10.5228   -3.6214   -2.9342 C   0  0  0  0  0  0  0  0  0  0  0  0
    8.1109   -3.4972   -2.5618 C   0  0  0  0  0  0  0  0  0  0  0  0
    6.9646   -2.8032   -2.5991 C   0  0  0  0  0  0  0  0  0  0  0  0
    6.4983   -2.8773    1.2167 C   0  0  0  0  0  0  0  0  0  0  0  0
    6.4062   -3.3608   -0.1759 C   0  0  0  0  0  3  0  0  0  0  0  0
    5.9684   -2.9179   -1.5423 C   0  0  0  0  0  0  0  0  0  0  0  0
    4.8484   -2.3168   -1.9831 C   0  0  0  0  0  0  0  0  0  0  0  0
    2.7953   -1.9250   -1.8232 H   0  0  0  0  0  0  0  0  0  0  0  0
    3.5936   -1.9286   -0.2678 H   0  0  0  0  0  0  0  0  0  0  0  0
    2.9853    0.4438   -1.6701 H   0  0  0  0  0  0  0  0  0  0  0  0
    4.7396    1.3554   -0.2805 H   0  0  0  0  0  0  0  0  0  0  0  0
    5.4690    1.3297   -1.8540 H   0  0  0  0  0  0  0  0  0  0  0  0
    4.7364   -0.5939    0.9627 H   0  0  0  0  0  0  0  0  0  0  0  0
    4.6336   -1.7523    2.8302 H   0  0  0  0  0  0  0  0  0  0  0  0
    5.5097   -0.3124    3.3178 H   0  0  0  0  0  0  0  0  0  0  0  0
    5.7751   -3.1512    4.2912 H   0  0  0  0  0  0  0  0  0  0  0  0
    5.6508   -1.6381    5.1845 H   0  0  0  0  0  0  0  0  0  0  0  0
    7.1865   -2.1002    4.4544 H   0  0  0  0  0  0  0  0  0  0  0  0
    8.7345   -1.5065    1.6408 H   0  0  0  0  0  0  0  0  0  0  0  0
    8.1493   -0.8900    3.1406 H   0  0  0  0  0  0  0  0  0  0  0  0
    9.4294    0.7134    1.8162 H   0  0  0  0  0  0  0  0  0  0  0  0
    7.9291    1.3133    2.4654 H   0  0  0  0  0  0  0  0  0  0  0  0
    8.8167    1.8493   -0.0536 H   0  0  0  0  0  0  0  0  0  0  0  0
    7.1607    1.9237    0.4034 H   0  0  0  0  0  0  0  0  0  0  0  0
    9.6611    0.1686   -0.9470 H   0  0  0  0  0  0  0  0  0  0  0  0
   10.5878   -1.3355   -1.8172 H   0  0  0  0  0  0  0  0  0  0  0  0
   11.4827   -3.2189   -2.5922 H   0  0  0  0  0  0  0  0  0  0  0  0
   10.5496   -3.6780   -4.0268 H   0  0  0  0  0  0  0  0  0  0  0  0
   10.4582   -4.6410   -2.5428 H   0  0  0  0  0  0  0  0  0  0  0  0
    8.1149   -4.5246   -2.1903 H   0  0  0  0  0  0  0  0  0  0  0  0
    7.0264   -1.7816   -3.0260 H   0  0  0  0  0  0  0  0  0  0  0  0
    6.5200   -3.6910    1.9418 H   0  0  0  0  0  0  0  0  0  0  0  0
    7.2317   -4.0718   -0.2653 H   0  0  0  0  0  0  0  0  0  0  0  0
    4.7883   -2.1113   -3.0566 H   0  0  0  0  0  0  0  0  0  0  0  0
  1  2  1  0  0  0  0
  1 22  1  0  0  0  0
  1 23  1  0  0  0  0
  1 24  1  0  0  0  0
  2  3  1  0  0  0  0
  2 25  1  0  0  0  0
  3  4  1  0  0  0  0
  3 26  1  0  0  0  0
  3 27  1  0  0  0  0
  4  5  2  0  0  0  0
  4 12  1  0  0  0  0
  5  6  1  0  0  0  0
  5 28  1  0  0  0  0
  6  7  1  0  0  0  0
  6  9  1  0  0  0  0
  6 19  2  0  0  0  0
  7  8  1  0  0  0  0
  7 29  1  0  0  0  0
  7 30  1  0  0  0  0
  8 31  1  0  0  0  0
  8 32  1  0  0  0  0
  8 33  1  0  0  0  0
  9 10  1  0  0  0  0
  9 34  1  0  0  0  0
  9 35  1  0  0  0  0
 10 11  1  0  0  0  0
 10 36  1  0  0  0  0
 10 37  1  0  0  0  0
 11 12  1  0  0  0  0
 11 38  1  0  0  0  0
 11 39  1  0  0  0  0
 12 13  2  3  0  0  0
 13 14  1  0  0  0  0
 13 40  1  0  0  0  0
 14 15  2  3  0  0  0
 14 41  1  0  0  0  0
 15 16  1  0  0  0  0
 15 17  1  0  0  0  0
 16 42  1  0  0  0  0
 16 43  1  0  0  0  0
 16 44  1  0  0  0  0
 17 18  2  3  0  0  0
 17 45  1  0  0  0  0
 18 21  1  0  0  0  0
 18 46  1  0  0  0  0
 19 20  1  0  0  0  0
 19 47  1  0  0  0  0
 20 21  1  0  0  0  0
 20 48  1  0  0  0  0
 21 22  2  3  0  0  0
 22 49  1  0  0  0  0
M  END
$$$$
