
 OpenBabel04232216453D

 55 55  0  0  0  0  0  0  0  0999 V2000
   -0.9385   -2.3992    3.1421 C   0  0  0  0  0  0  0  0  0  0  0  0
    0.5421   -2.3516    3.0998 C   0  0  0  0  0  0  0  0  0  0  0  0
    1.3744   -1.1993    3.0935 C   0  0  0  0  0  0  0  0  0  0  0  0
    2.6924   -1.6164    3.0503 C   0  0  0  0  0  0  0  0  0  0  0  0
    3.9379   -0.8038    3.0334 C   0  0  0  0  0  0  0  0  0  0  0  0
    2.6805   -2.9912    3.0243 N   0  0  0  0  0  0  0  0  0  0  0  0
    3.8408   -3.8657    2.9805 C   0  0  0  0  0  0  0  0  0  0  0  0
    4.2603   -4.1765    1.5486 C   0  0  0  0  0  0  0  0  0  0  0  0
    5.4801   -5.0880    1.5188 C   0  0  0  0  0  0  0  0  0  0  0  0
    5.8868   -5.3807    0.0815 C   0  0  0  0  0  0  0  0  0  0  0  0
    7.0983   -6.2737    0.0751 C   0  0  0  0  0  0  0  0  0  0  0  0
    8.2320   -5.7954    0.0780 O   0  0  0  0  0  0  0  0  0  0  0  0
    6.8448   -7.7659    0.0860 C   0  0  0  0  0  0  0  0  0  0  0  0
    7.9685   -8.4813    0.8179 C   0  0  0  0  0  0  0  0  0  0  0  0
    7.7423   -9.9849    0.8449 C   0  0  0  0  0  0  0  0  0  0  0  0
    8.8869  -10.6716    1.5787 C   0  0  0  0  0  0  0  0  0  0  0  0
    8.6800  -12.1809    1.6118 C   0  0  0  0  0  0  0  0  0  0  0  0
    9.8311  -12.8530    2.3478 C   0  0  0  0  0  0  0  0  0  0  0  0
    9.6637  -14.3678    2.4048 C   0  0  0  0  0  0  0  0  0  0  0  0
   10.8221  -14.9975    3.1408 C   0  0  0  0  0  0  0  0  0  0  0  0
   11.7632  -14.3796    3.6252 O   0  0  0  0  0  0  0  0  0  0  0  0
   10.6484  -16.3583    3.1781 O   0  0  0  0  0  0  0  0  0  0  0  0
   11.7884  -16.9176    3.8980 O   0  0  0  0  0  0  0  0  0  0  0  0
    1.3863   -3.4397    3.0512 C   0  0  0  0  0  0  0  0  0  0  0  0
   -1.3738   -1.3964    3.1769 H   0  0  0  0  0  0  0  0  0  0  0  0
   -1.2678   -2.9480    4.0301 H   0  0  0  0  0  0  0  0  0  0  0  0
   -1.3266   -2.9131    2.2569 H   0  0  0  0  0  0  0  0  0  0  0  0
    1.0488   -0.1674    3.1233 H   0  0  0  0  0  0  0  0  0  0  0  0
    3.7048    0.2651    3.0587 H   0  0  0  0  0  0  0  0  0  0  0  0
    4.5186   -0.9987    2.1263 H   0  0  0  0  0  0  0  0  0  0  0  0
    4.5609   -1.0299    3.9046 H   0  0  0  0  0  0  0  0  0  0  0  0
    3.5820   -4.7848    3.5199 H   0  0  0  0  0  0  0  0  0  0  0  0
    4.6522   -3.3821    3.5341 H   0  0  0  0  0  0  0  0  0  0  0  0
    4.4874   -3.2470    1.0124 H   0  0  0  0  0  0  0  0  0  0  0  0
    3.4325   -4.6553    1.0105 H   0  0  0  0  0  0  0  0  0  0  0  0
    5.2611   -6.0241    2.0479 H   0  0  0  0  0  0  0  0  0  0  0  0
    6.3149   -4.6173    2.0542 H   0  0  0  0  0  0  0  0  0  0  0  0
    6.1378   -4.4590   -0.4547 H   0  0  0  0  0  0  0  0  0  0  0  0
    5.0784   -5.8694   -0.4727 H   0  0  0  0  0  0  0  0  0  0  0  0
    6.7617   -8.1070   -0.9511 H   0  0  0  0  0  0  0  0  0  0  0  0
    5.8921   -7.9667    0.5898 H   0  0  0  0  0  0  0  0  0  0  0  0
    8.0413   -8.0965    1.8433 H   0  0  0  0  0  0  0  0  0  0  0  0
    8.9276   -8.2643    0.3316 H   0  0  0  0  0  0  0  0  0  0  0  0
    7.6749  -10.3684   -0.1803 H   0  0  0  0  0  0  0  0  0  0  0  0
    6.7917  -10.2118    1.3422 H   0  0  0  0  0  0  0  0  0  0  0  0
    8.9561  -10.2820    2.6024 H   0  0  0  0  0  0  0  0  0  0  0  0
    9.8375  -10.4369    1.0825 H   0  0  0  0  0  0  0  0  0  0  0  0
    8.6146  -12.5670    0.5876 H   0  0  0  0  0  0  0  0  0  0  0  0
    7.7311  -12.4123    2.1104 H   0  0  0  0  0  0  0  0  0  0  0  0
    9.8978  -12.4516    3.3671 H   0  0  0  0  0  0  0  0  0  0  0  0
   10.7776  -12.6059    1.8504 H   0  0  0  0  0  0  0  0  0  0  0  0
    9.6275  -14.7778    1.3896 H   0  0  0  0  0  0  0  0  0  0  0  0
    8.7352  -14.6212    2.9279 H   0  0  0  0  0  0  0  0  0  0  0  0
   11.5135  -17.8469    3.8319 H   0  0  0  0  0  0  0  0  0  0  0  0
    1.1596   -4.4973    3.0324 H   0  0  0  0  0  0  0  0  0  0  0  0
  1  2  1  0  0  0  0
  1 25  1  0  0  0  0
  1 26  1  0  0  0  0
  1 27  1  0  0  0  0
  2  3  1  0  0  0  0
  2 24  2  0  0  0  0
  3  4  2  0  0  0  0
  3 28  1  0  0  0  0
  4  5  1  0  0  0  0
  4  6  1  0  0  0  0
  5 29  1  0  0  0  0
  5 30  1  0  0  0  0
  5 31  1  0  0  0  0
  6  7  1  0  0  0  0
  6 24  1  0  0  0  0
  7  8  1  0  0  0  0
  7 32  1  0  0  0  0
  7 33  1  0  0  0  0
  8  9  1  0  0  0  0
  8 34  1  0  0  0  0
  8 35  1  0  0  0  0
  9 10  1  0  0  0  0
  9 36  1  0  0  0  0
  9 37  1  0  0  0  0
 10 11  1  0  0  0  0
 10 38  1  0  0  0  0
 10 39  1  0  0  0  0
 11 12  2  0  0  0  0
 11 13  1  0  0  0  0
 13 14  1  0  0  0  0
 13 40  1  0  0  0  0
 13 41  1  0  0  0  0
 14 15  1  0  0  0  0
 14 42  1  0  0  0  0
 14 43  1  0  0  0  0
 15 16  1  0  0  0  0
 15 44  1  0  0  0  0
 15 45  1  0  0  0  0
 16 17  1  0  0  0  0
 16 46  1  0  0  0  0
 16 47  1  0  0  0  0
 17 18  1  0  0  0  0
 17 48  1  0  0  0  0
 17 49  1  0  0  0  0
 18 19  1  0  0  0  0
 18 50  1  0  0  0  0
 18 51  1  0  0  0  0
 19 20  1  0  0  0  0
 19 52  1  0  0  0  0
 19 53  1  0  0  0  0
 20 21  2  0  0  0  0
 20 22  1  0  0  0  0
 22 23  1  0  0  0  0
 23 54  1  0  0  0  0
 24 55  1  0  0  0  0
M  END
$$$$
