
 OpenBabel04232216523D

 33 33  0  0  1  0  0  0  0  0999 V2000
    4.5513   -3.1562    0.7677 C   0  0  0  0  0  0  0  0  0  0  0  0
    4.2101   -1.7221    0.3847 C   0  0  0  0  0  0  0  0  0  0  0  0
    4.7587   -1.3754   -1.0016 C   0  0  0  0  0  0  0  0  0  0  0  0
    4.4297    0.0631   -1.4258 C   0  0  0  0  0  0  0  0  0  0  0  0
    4.9730    0.4004   -2.8280 C   0  0  3  0  0  0  0  0  0  0  0  0
    4.3725   -0.4943   -3.9139 C   0  0  0  0  0  0  0  0  0  0  0  0
    4.6543    0.2379   -5.2103 C   0  0  0  0  0  0  0  0  0  0  0  0
    4.6383    1.7206   -4.8597 C   0  0  0  0  0  0  0  0  0  0  0  0
    4.6280    1.8235   -3.3219 C   0  0  3  0  0  0  0  0  0  0  0  0
    5.5952    2.9063   -2.8168 C   0  0  0  0  0  0  0  0  0  0  0  0
    5.2515    4.3080   -3.3196 C   0  0  0  0  0  0  0  0  0  0  0  0
    4.1621   -3.3898    1.7627 H   0  0  0  0  0  0  0  0  0  0  0  0
    5.6353   -3.3105    0.7812 H   0  0  0  0  0  0  0  0  0  0  0  0
    4.1144   -3.8664    0.0573 H   0  0  0  0  0  0  0  0  0  0  0  0
    4.6263   -1.0372    1.1339 H   0  0  0  0  0  0  0  0  0  0  0  0
    3.1206   -1.5963    0.3974 H   0  0  0  0  0  0  0  0  0  0  0  0
    4.3390   -2.0850   -1.7236 H   0  0  0  0  0  0  0  0  0  0  0  0
    5.8473   -1.5153   -1.0083 H   0  0  0  0  0  0  0  0  0  0  0  0
    4.8500    0.7620   -0.6954 H   0  0  0  0  0  0  0  0  0  0  0  0
    3.3409    0.2032   -1.4101 H   0  0  0  0  0  0  0  0  0  0  0  0
    6.0665    0.2714   -2.8281 H   0  0  0  0  0  0  0  0  0  0  0  0
    3.2876   -0.6018   -3.7729 H   0  0  0  0  0  0  0  0  0  0  0  0
    4.8149   -1.4958   -3.9242 H   0  0  0  0  0  0  0  0  0  0  0  0
    3.9225   -0.0075   -5.9864 H   0  0  0  0  0  0  0  0  0  0  0  0
    5.6430   -0.0397   -5.5892 H   0  0  0  0  0  0  0  0  0  0  0  0
    3.7497    2.2088   -5.2746 H   0  0  0  0  0  0  0  0  0  0  0  0
    5.5125    2.2057   -5.3088 H   0  0  0  0  0  0  0  0  0  0  0  0
    3.6094    2.0801   -3.0006 H   0  0  0  0  0  0  0  0  0  0  0  0
    6.6166    2.6601   -3.1358 H   0  0  0  0  0  0  0  0  0  0  0  0
    5.6014    2.9167   -1.7190 H   0  0  0  0  0  0  0  0  0  0  0  0
    5.1250    4.3383   -4.4059 H   0  0  0  0  0  0  0  0  0  0  0  0
    6.0553    5.0030   -3.0601 H   0  0  0  0  0  0  0  0  0  0  0  0
    4.3277    4.6684   -2.8579 H   0  0  0  0  0  0  0  0  0  0  0  0
  1  2  1  0  0  0  0
  1 12  1  0  0  0  0
  1 13  1  0  0  0  0
  1 14  1  0  0  0  0
  2  3  1  0  0  0  0
  2 15  1  0  0  0  0
  2 16  1  0  0  0  0
  3  4  1  0  0  0  0
  3 17  1  0  0  0  0
  3 18  1  0  0  0  0
  4  5  1  0  0  0  0
  4 19  1  0  0  0  0
  4 20  1  0  0  0  0
  5  6  1  0  0  0  0
  5  9  1  0  0  0  0
  5 21  1  0  0  0  0
  6  7  1  0  0  0  0
  6 22  1  0  0  0  0
  6 23  1  0  0  0  0
  7  8  1  0  0  0  0
  7 24  1  0  0  0  0
  7 25  1  0  0  0  0
  8  9  1  0  0  0  0
  8 26  1  0  0  0  0
  8 27  1  0  0  0  0
  9 10  1  0  0  0  0
  9 28  1  0  0  0  0
 10 11  1  0  0  0  0
 10 29  1  0  0  0  0
 10 30  1  0  0  0  0
 11 31  1  0  0  0  0
 11 32  1  0  0  0  0
 11 33  1  0  0  0  0
M  END
$$$$
