
 OpenBabel04232217023D

 87 86  0  0  0  0  0  0  0  0999 V2000
   12.4578   -8.9549    7.5042 O   0  0  0  0  0  0  0  0  0  0  0  0
   12.0155   -9.5193    6.2400 O   0  0  0  0  0  0  0  0  0  0  0  0
   10.3790   -9.8397    6.2715 S   0  0  0  0  0  0  0  0  0  0  0  0
    9.6350   -7.9116    6.5182 S   0  0  0  0  0  0  0  0  0  0  0  0
   10.1217   -6.9844    4.9957 C   0  0  0  0  0  0  0  0  0  0  0  0
    9.5927   -7.5970    3.7814 N   0  0  0  0  0  0  0  0  0  0  0  0
    9.9887   -6.8540    2.5851 N   0  0  0  0  0  0  0  0  0  0  0  0
    9.4117   -7.6756    1.2504 S   0  0  0  0  0  0  0  0  0  0  0  0
   10.0609   -6.5587   -0.3603 S   0  0  0  0  0  0  0  0  0  0  0  0
   12.1318   -6.5730   -0.4014 S   0  0  0  0  0  0  0  0  0  0  0  0
   12.8275   -8.5213   -0.5942 S   0  0  0  0  0  0  0  0  0  0  0  0
   14.9356   -8.4982   -0.5740 S   0  0  0  0  0  0  0  0  0  0  0  0
   15.6283  -10.4875   -0.7127 S   0  0  0  0  0  0  0  0  0  0  0  0
   17.7381  -10.4748   -0.7122 S   0  0  0  0  0  0  0  0  0  0  0  0
   18.4289  -12.4634   -0.8505 S   0  0  0  0  0  0  0  0  0  0  0  0
   20.5383  -12.4502   -0.8496 S   0  0  0  0  0  0  0  0  0  0  0  0
   21.2289  -14.4385   -0.9880 S   0  0  0  0  0  0  0  0  0  0  0  0
   23.3383  -14.4253   -0.9871 S   0  0  0  0  0  0  0  0  0  0  0  0
   24.0289  -16.4137   -1.1255 S   0  0  0  0  0  0  0  0  0  0  0  0
   26.1383  -16.4004   -1.1246 S   0  0  0  0  0  0  0  0  0  0  0  0
   26.8289  -18.3888   -1.2630 S   0  0  0  0  0  0  0  0  0  0  0  0
   28.9383  -18.3756   -1.2621 S   0  0  0  0  0  0  0  0  0  0  0  0
   29.6289  -20.3639   -1.4005 S   0  0  0  0  0  0  0  0  0  0  0  0
   31.7383  -20.3507   -1.3996 S   0  0  0  0  0  0  0  0  0  0  0  0
   32.4289  -22.3390   -1.5380 S   0  0  0  0  0  0  0  0  0  0  0  0
   34.5383  -22.3258   -1.5371 S   0  0  0  0  0  0  0  0  0  0  0  0
   35.2289  -24.3142   -1.6755 S   0  0  0  0  0  0  0  0  0  0  0  0
   37.3383  -24.3009   -1.6746 S   0  0  0  0  0  0  0  0  0  0  0  0
   38.0289  -26.2893   -1.8130 S   0  0  0  0  0  0  0  0  0  0  0  0
   40.1383  -26.2761   -1.8121 S   0  0  0  0  0  0  0  0  0  0  0  0
   40.8289  -28.2644   -1.9505 S   0  0  0  0  0  0  0  0  0  0  0  0
   42.9383  -28.2512   -1.9496 S   0  0  0  0  0  0  0  0  0  0  0  0
   43.6289  -30.2395   -2.0880 S   0  0  0  0  0  0  0  0  0  0  0  0
   45.7383  -30.2263   -2.0871 S   0  0  0  0  0  0  0  0  0  0  0  0
   46.4289  -32.2146   -2.2255 S   0  0  0  0  0  0  0  0  0  0  0  0
   48.5382  -32.2014   -2.2246 S   0  0  0  0  0  0  0  0  0  0  0  0
   49.2289  -34.1898   -2.3630 S   0  0  0  0  0  0  0  0  0  0  0  0
   51.3382  -34.1765   -2.3621 S   0  0  0  0  0  0  0  0  0  0  0  0
   52.0289  -36.1649   -2.5005 S   0  0  0  0  0  0  0  0  0  0  0  0
   54.1382  -36.1517   -2.4996 S   0  0  0  0  0  0  0  0  0  0  0  0
   54.8289  -38.1400   -2.6380 S   0  0  0  0  0  0  0  0  0  0  0  0
   56.9382  -38.1268   -2.6371 S   0  0  0  0  0  0  0  0  0  0  0  0
   57.6288  -40.1151   -2.7755 S   0  0  0  0  0  0  0  0  0  0  0  0
   59.7382  -40.1019   -2.7746 S   0  0  0  0  0  0  0  0  0  0  0  0
   60.4288  -42.0902   -2.9130 S   0  0  0  0  0  0  0  0  0  0  0  0
   62.5382  -42.0770   -2.9121 S   0  0  0  0  0  0  0  0  0  0  0  0
   63.2288  -44.0654   -3.0505 S   0  0  0  0  0  0  0  0  0  0  0  0
   65.3382  -44.0522   -3.0495 S   0  0  0  0  0  0  0  0  0  0  0  0
   66.0288  -46.0405   -3.1880 S   0  0  0  0  0  0  0  0  0  0  0  0
   68.1382  -46.0273   -3.1870 S   0  0  0  0  0  0  0  0  0  0  0  0
   68.8288  -48.0156   -3.3255 S   0  0  0  0  0  0  0  0  0  0  0  0
   70.9382  -48.0024   -3.3245 S   0  0  0  0  0  0  0  0  0  0  0  0
   71.6288  -49.9907   -3.4630 S   0  0  0  0  0  0  0  0  0  0  0  0
   73.7382  -49.9775   -3.4620 S   0  0  0  0  0  0  0  0  0  0  0  0
   74.4288  -51.9659   -3.6005 S   0  0  0  0  0  0  0  0  0  0  0  0
   76.5382  -51.9526   -3.5995 S   0  0  0  0  0  0  0  0  0  0  0  0
   77.2288  -53.9410   -3.7380 S   0  0  0  0  0  0  0  0  0  0  0  0
   79.3382  -53.9278   -3.7370 S   0  0  0  0  0  0  0  0  0  0  0  0
   80.0288  -55.9161   -3.8754 S   0  0  0  0  0  0  0  0  0  0  0  0
   82.1382  -55.9029   -3.8745 S   0  0  0  0  0  0  0  0  0  0  0  0
   82.8288  -57.8912   -4.0129 S   0  0  0  0  0  0  0  0  0  0  0  0
   84.9381  -57.8780   -4.0120 S   0  0  0  0  0  0  0  0  0  0  0  0
   85.6288  -59.8663   -4.1504 S   0  0  0  0  0  0  0  0  0  0  0  0
   87.7381  -59.8531   -4.1495 S   0  0  0  0  0  0  0  0  0  0  0  0
   88.4288  -61.8415   -4.2879 S   0  0  0  0  0  0  0  0  0  0  0  0
   90.5381  -61.8282   -4.2870 S   0  0  0  0  0  0  0  0  0  0  0  0
   91.2288  -63.8166   -4.4254 S   0  0  0  0  0  0  0  0  0  0  0  0
   93.3381  -63.8034   -4.4245 S   0  0  0  0  0  0  0  0  0  0  0  0
   94.0287  -65.7917   -4.5629 S   0  0  0  0  0  0  0  0  0  0  0  0
   96.1381  -65.7785   -4.5620 S   0  0  0  0  0  0  0  0  0  0  0  0
   96.8287  -67.7668   -4.7004 S   0  0  0  0  0  0  0  0  0  0  0  0
   98.9381  -67.7536   -4.6995 S   0  0  0  0  0  0  0  0  0  0  0  0
   99.6287  -69.7420   -4.8379 S   0  0  0  0  0  0  0  0  0  0  0  0
  101.7381  -69.7287   -4.8370 S   0  0  0  0  0  0  0  0  0  0  0  0
  102.4287  -71.7171   -4.9753 S   0  0  0  0  0  0  0  0  0  0  0  0
  104.5372  -71.7036   -4.9749 S   0  0  0  0  0  0  0  0  0  0  0  0
  105.2264  -73.6906   -5.1129 S   0  0  0  0  0  0  0  0  0  0  0  0
  107.3271  -73.6675   -5.0935 S   0  0  0  0  0  0  0  0  0  0  0  0
  108.0206  -75.6245   -5.2900 S   0  0  0  0  0  0  0  0  0  0  0  0
  110.1082  -75.5874   -5.2457 S   0  0  0  0  0  0  0  0  0  0  0  0
  110.7264  -74.5420   -6.9081 S   0  0  0  0  0  0  0  0  0  0  0  0
   13.4337   -8.8807    7.2267 H   0  0  0  0  0  0  0  0  0  0  0  0
   11.2154   -6.9297    4.9997 H   0  0  0  0  0  0  0  0  0  0  0  0
    9.7460   -5.9556    5.1130 H   0  0  0  0  0  0  0  0  0  0  0  0
    8.5809   -7.6096    3.8531 H   0  0  0  0  0  0  0  0  0  0  0  0
   11.0177   -6.8613    2.5574 H   0  0  0  0  0  0  0  0  0  0  0  0
  112.0762  -74.5593   -6.8331 H   0  0  0  0  0  0  0  0  0  0  0  0
  1  2  1  0  0  0  0
  1 82  1  0  0  0  0
  2  3  1  0  0  0  0
  3  4  1  0  0  0  0
  4  5  1  0  0  0  0
  5  6  1  0  0  0  0
  5 83  1  0  0  0  0
  5 84  1  0  0  0  0
  6  7  1  0  0  0  0
  6 85  1  0  0  0  0
  7  8  1  0  0  0  0
  7 86  1  0  0  0  0
  8  9  1  0  0  0  0
  9 10  1  0  0  0  0
 10 11  1  0  0  0  0
 11 12  1  0  0  0  0
 12 13  1  0  0  0  0
 13 14  1  0  0  0  0
 14 15  1  0  0  0  0
 15 16  1  0  0  0  0
 16 17  1  0  0  0  0
 17 18  1  0  0  0  0
 18 19  1  0  0  0  0
 19 20  1  0  0  0  0
 20 21  1  0  0  0  0
 21 22  1  0  0  0  0
 22 23  1  0  0  0  0
 23 24  1  0  0  0  0
 24 25  1  0  0  0  0
 25 26  1  0  0  0  0
 26 27  1  0  0  0  0
 27 28  1  0  0  0  0
 28 29  1  0  0  0  0
 29 30  1  0  0  0  0
 30 31  1  0  0  0  0
 31 32  1  0  0  0  0
 32 33  1  0  0  0  0
 33 34  1  0  0  0  0
 34 35  1  0  0  0  0
 35 36  1  0  0  0  0
 36 37  1  0  0  0  0
 37 38  1  0  0  0  0
 38 39  1  0  0  0  0
 39 40  1  0  0  0  0
 40 41  1  0  0  0  0
 41 42  1  0  0  0  0
 42 43  1  0  0  0  0
 43 44  1  0  0  0  0
 44 45  1  0  0  0  0
 45 46  1  0  0  0  0
 46 47  1  0  0  0  0
 47 48  1  0  0  0  0
 48 49  1  0  0  0  0
 49 50  1  0  0  0  0
 50 51  1  0  0  0  0
 51 52  1  0  0  0  0
 52 53  1  0  0  0  0
 53 54  1  0  0  0  0
 54 55  1  0  0  0  0
 55 56  1  0  0  0  0
 56 57  1  0  0  0  0
 57 58  1  0  0  0  0
 58 59  1  0  0  0  0
 59 60  1  0  0  0  0
 60 61  1  0  0  0  0
 61 62  1  0  0  0  0
 62 63  1  0  0  0  0
 63 64  1  0  0  0  0
 64 65  1  0  0  0  0
 65 66  1  0  0  0  0
 66 67  1  0  0  0  0
 67 68  1  0  0  0  0
 68 69  1  0  0  0  0
 69 70  1  0  0  0  0
 70 71  1  0  0  0  0
 71 72  1  0  0  0  0
 72 73  1  0  0  0  0
 73 74  1  0  0  0  0
 74 75  1  0  0  0  0
 75 76  1  0  0  0  0
 76 77  1  0  0  0  0
 77 78  1  0  0  0  0
 78 79  1  0  0  0  0
 79 80  1  0  0  0  0
 80 81  1  0  0  0  0
 81 87  1  0  0  0  0
M  END
$$$$
