
 OpenBabel04232217003D

210209  0  0  0  0  0  0  0  0999 V2000
   62.5472   -1.2621   29.0642 O   0  0  0  0  0  0  0  0  0  0  0  0
   62.1157   -0.1259   29.2486 C   0  0  0  0  0  0  0  0  0  0  0  0
   60.6471    0.1826   29.2698 C   0  0  0  0  0  0  0  0  0  0  0  0
   59.8457   -1.0743   29.0368 C   0  0  0  0  0  0  0  0  0  0  0  0
   58.4922   -0.6787   29.0872 O   0  0  0  0  0  0  0  0  0  0  0  0
   57.7613   -1.9031   28.8692 O   0  0  0  0  0  0  0  0  0  0  0  0
   56.3567   -1.6091   28.8773 O   0  0  0  0  0  0  0  0  0  0  0  0
   56.0752   -0.6513   27.8400 O   0  0  0  0  0  0  0  0  0  0  0  0
   54.6963   -0.4220   27.9486 C   0  0  0  0  0  0  0  0  0  0  0  0
   54.3516    0.5678   26.8760 C   0  0  0  0  0  0  0  0  0  0  0  0
   52.9634    0.8029   26.9595 O   0  0  0  0  0  0  0  0  0  0  0  0
   52.6958    1.7656   25.9188 O   0  0  0  0  0  0  0  0  0  0  0  0
   51.2969    1.9989   25.9957 C   0  0  0  0  0  0  0  0  0  0  0  0
   50.9398    2.9958   24.9146 C   0  0  0  0  0  0  0  0  0  0  0  0
   51.3041    2.4300   23.5528 C   0  0  0  0  0  0  0  0  0  0  0  0
   50.9598    3.3677   22.5515 O   0  0  0  0  0  0  0  0  0  0  0  0
   51.3076    2.8472   21.2696 C   0  0  0  0  0  0  0  0  0  0  0  0
   50.9368    3.8632   20.1958 C   0  0  0  0  0  0  0  0  0  0  0  0
   51.7044    5.1532   20.4305 C   0  0  0  0  0  0  0  0  0  0  0  0
   51.3732    6.0955   19.4254 O   0  0  0  0  0  0  0  0  0  0  0  0
   52.0848    7.3084   19.6535 C   0  0  0  0  0  0  0  0  0  0  0  0
   51.7238    8.3155   18.5707 C   0  0  0  0  0  0  0  0  0  0  0  0
   50.2329    8.5975   18.6198 C   0  0  0  0  0  0  0  0  0  0  0  0
   49.8986    9.5416   17.6137 O   0  0  0  0  0  0  0  0  0  0  0  0
   48.4996    9.8108   17.6567 C   0  0  0  0  0  0  0  0  0  0  0  0
   48.1409   10.8188   16.5840 C   0  0  0  0  0  0  0  0  0  0  0  0
   46.6515   11.1018   16.6349 C   0  0  0  0  0  0  0  0  0  0  0  0
   46.3130   12.0483   15.6338 O   0  0  0  0  0  0  0  0  0  0  0  0
   44.9143   12.3157   15.6758 C   0  0  0  0  0  0  0  0  0  0  0  0
   44.5588   13.3288   14.5986 C   0  0  0  0  0  0  0  0  0  0  0  0
   44.9254   12.7700   13.2364 C   0  0  0  0  0  0  0  0  0  0  0  0
   44.5812   13.7142   12.2236 O   0  0  0  0  0  0  0  0  0  0  0  0
   44.9298   13.1878   10.9483 C   0  0  0  0  0  0  0  0  0  0  0  0
   44.5714   14.1966    9.8742 C   0  0  0  0  0  0  0  0  0  0  0  0
   44.9354   13.6359    8.5140 C   0  0  0  0  0  0  0  0  0  0  0  0
   44.5937   14.5736    7.5046 O   0  0  0  0  0  0  0  0  0  0  0  0
   44.9429   14.0538    6.2296 C   0  0  0  0  0  0  0  0  0  0  0  0
   44.5809   15.0656    5.1511 C   0  0  0  0  0  0  0  0  0  0  0  0
   45.3416   16.3586    5.3877 C   0  0  0  0  0  0  0  0  0  0  0  0
   45.0014   17.3015    4.3776 O   0  0  0  0  0  0  0  0  0  0  0  0
   45.7163   18.5109    4.6023 C   0  0  0  0  0  0  0  0  0  0  0  0
   45.3513   19.5215    3.5291 C   0  0  0  0  0  0  0  0  0  0  0  0
   46.1103   20.8233    3.7700 C   0  0  0  0  0  0  0  0  0  0  0  0
   47.5081   20.5661    3.7133 O   0  0  0  0  0  0  0  0  0  0  0  0
   48.2205   21.7715    3.9432 C   0  0  0  0  0  0  0  0  0  0  0  0
   49.7069   21.4913    3.8924 C   0  0  0  0  0  0  0  0  0  0  0  0
   50.4762   22.7787    4.1283 C   0  0  0  0  0  0  0  0  0  0  0  0
   51.9686   22.5150    4.0779 C   0  0  0  0  0  0  0  0  0  0  0  0
   52.7318   23.8045    4.3161 C   0  0  0  0  0  0  0  0  0  0  0  0
   54.2239   23.5379    4.2673 C   0  0  0  0  0  0  0  0  0  0  0  0
   54.9870   24.8263    4.5054 C   0  0  0  0  0  0  0  0  0  0  0  0
   56.4788   24.5599    4.4545 C   0  0  0  0  0  0  0  0  0  0  0  0
   57.2416   25.8487    4.6906 C   0  0  0  0  0  0  0  0  0  0  0  0
   58.7331   25.5826    4.6377 C   0  0  0  0  0  0  0  0  0  0  0  0
   59.4962   26.8705    4.8757 C   0  0  0  0  0  0  0  0  0  0  0  0
   60.9875   26.6043    4.8249 C   0  0  0  0  0  0  0  0  0  0  0  0
   61.7507   27.8915    5.0648 C   0  0  0  0  0  0  0  0  0  0  0  0
   63.2419   27.6256    5.0140 C   0  0  0  0  0  0  0  0  0  0  0  0
   64.0051   28.9131    5.2519 C   0  0  0  0  0  0  0  0  0  0  0  0
   65.4963   28.6473    5.2012 C   0  0  0  0  0  0  0  0  0  0  0  0
   66.2596   29.9347    5.4391 C   0  0  0  0  0  0  0  0  0  0  0  0
   67.7507   29.6689    5.3883 C   0  0  0  0  0  0  0  0  0  0  0  0
   68.5140   30.9563    5.6262 C   0  0  0  0  0  0  0  0  0  0  0  0
   70.0051   30.6905    5.5755 C   0  0  0  0  0  0  0  0  0  0  0  0
   70.7684   31.9779    5.8133 C   0  0  0  0  0  0  0  0  0  0  0  0
   72.2595   31.7121    5.7626 C   0  0  0  0  0  0  0  0  0  0  0  0
   73.0228   32.9995    6.0005 C   0  0  0  0  0  0  0  0  0  0  0  0
   74.5139   32.7336    5.9497 C   0  0  0  0  0  0  0  0  0  0  0  0
   75.2771   34.0215    6.1856 C   0  0  0  0  0  0  0  0  0  0  0  0
   76.7683   33.7554    6.1348 C   0  0  0  0  0  0  0  0  0  0  0  0
   77.5313   35.0437    6.3708 C   0  0  0  0  0  0  0  0  0  0  0  0
   79.0228   34.7773    6.3199 C   0  0  0  0  0  0  0  0  0  0  0  0
   79.7856   36.0659    6.5560 C   0  0  0  0  0  0  0  0  0  0  0  0
   81.2774   35.7990    6.5051 C   0  0  0  0  0  0  0  0  0  0  0  0
   82.0402   37.0878    6.7432 C   0  0  0  0  0  0  0  0  0  0  0  0
   83.5330   36.8209    6.6923 C   0  0  0  0  0  0  0  0  0  0  0  0
   84.2963   38.1112    6.9306 C   0  0  0  0  0  0  0  0  0  0  0  0
   85.7907   37.8474    6.8782 C   0  0  0  0  0  0  0  0  0  0  0  0
   86.5620   39.1361    7.1143 C   0  0  0  0  0  0  0  0  0  0  0  0
   88.0518   38.8690    7.0613 C   0  0  0  0  0  0  0  0  0  0  0  0
   62.7941    0.7076   29.4054 H   0  0  0  0  0  0  0  0  0  0  0  0
   60.4179    0.9201   28.4945 H   0  0  0  0  0  0  0  0  0  0  0  0
   60.3801    0.6209   30.2362 H   0  0  0  0  0  0  0  0  0  0  0  0
   60.0301   -1.8198   29.8170 H   0  0  0  0  0  0  0  0  0  0  0  0
   60.0662   -1.5166   28.0586 H   0  0  0  0  0  0  0  0  0  0  0  0
   54.4487   -0.0286   28.9420 H   0  0  0  0  0  0  0  0  0  0  0  0
   54.1495   -1.3614   27.8082 H   0  0  0  0  0  0  0  0  0  0  0  0
   54.6206    0.1666   25.8912 H   0  0  0  0  0  0  0  0  0  0  0  0
   54.9148    1.4976   27.0237 H   0  0  0  0  0  0  0  0  0  0  0  0
   51.0532    2.3970   26.9821 H   0  0  0  0  0  0  0  0  0  0  0  0
   50.7620    1.0545   25.8426 H   0  0  0  0  0  0  0  0  0  0  0  0
   51.4783    3.9388   25.0755 H   0  0  0  0  0  0  0  0  0  0  0  0
   49.8713    3.2329   24.9550 H   0  0  0  0  0  0  0  0  0  0  0  0
   50.7554    1.4973   23.3788 H   0  0  0  0  0  0  0  0  0  0  0  0
   52.3787    2.2234   23.4989 H   0  0  0  0  0  0  0  0  0  0  0  0
   50.7460    1.9196   21.0962 H   0  0  0  0  0  0  0  0  0  0  0  0
   52.3731    2.6401   21.2307 H   0  0  0  0  0  0  0  0  0  0  0  0
   49.8588    4.0676   20.2090 H   0  0  0  0  0  0  0  0  0  0  0  0
   51.1670    3.4622   19.2020 H   0  0  0  0  0  0  0  0  0  0  0  0
   52.7819    4.9550   20.3961 H   0  0  0  0  0  0  0  0  0  0  0  0
   51.4534    5.5695   21.4128 H   0  0  0  0  0  0  0  0  0  0  0  0
   53.1637    7.1054   19.6114 H   0  0  0  0  0  0  0  0  0  0  0  0
   51.8310    7.7095   20.6319 H   0  0  0  0  0  0  0  0  0  0  0  0
   51.9944    7.9328   17.5787 H   0  0  0  0  0  0  0  0  0  0  0  0
   52.2894    9.2434   18.7132 H   0  0  0  0  0  0  0  0  0  0  0  0
   49.9632    9.0019   19.6033 H   0  0  0  0  0  0  0  0  0  0  0  0
   49.6655    7.6751   18.4506 H   0  0  0  0  0  0  0  0  0  0  0  0
   48.2378   10.2081   18.6447 H   0  0  0  0  0  0  0  0  0  0  0  0
   47.9461    8.8784   17.4927 H   0  0  0  0  0  0  0  0  0  0  0  0
   48.4271   10.4443   15.5937 H   0  0  0  0  0  0  0  0  0  0  0  0
   48.7125   11.7448   16.7205 H   0  0  0  0  0  0  0  0  0  0  0  0
   46.3815   11.5050   17.6182 H   0  0  0  0  0  0  0  0  0  0  0  0
   46.0893   10.1754   16.4651 H   0  0  0  0  0  0  0  0  0  0  0  0
   44.6510   12.7207   16.6591 H   0  0  0  0  0  0  0  0  0  0  0  0
   44.3599   11.3886   15.5094 H   0  0  0  0  0  0  0  0  0  0  0  0
   45.0942   14.2717   14.7652 H   0  0  0  0  0  0  0  0  0  0  0  0
   43.4894   13.5635   14.6369 H   0  0  0  0  0  0  0  0  0  0  0  0
   44.3744   11.8379   13.0568 H   0  0  0  0  0  0  0  0  0  0  0  0
   45.9994   12.5601   13.1848 H   0  0  0  0  0  0  0  0  0  0  0  0
   44.3809   12.2531   10.7802 H   0  0  0  0  0  0  0  0  0  0  0  0
   46.0056   12.9769   10.9183 H   0  0  0  0  0  0  0  0  0  0  0  0
   45.0909   15.1456   10.0509 H   0  0  0  0  0  0  0  0  0  0  0  0
   43.5025   14.4381    9.9166 H   0  0  0  0  0  0  0  0  0  0  0  0
   44.3873   12.7036    8.3350 H   0  0  0  0  0  0  0  0  0  0  0  0
   46.0116   13.4285    8.4709 H   0  0  0  0  0  0  0  0  0  0  0  0
   44.3924   13.1221    6.0523 H   0  0  0  0  0  0  0  0  0  0  0  0
   46.0170   13.8478    6.1935 H   0  0  0  0  0  0  0  0  0  0  0  0
   43.5023   15.2668    5.1600 H   0  0  0  0  0  0  0  0  0  0  0  0
   44.8162   14.6653    4.1584 H   0  0  0  0  0  0  0  0  0  0  0  0
   46.4210   16.1647    5.3567 H   0  0  0  0  0  0  0  0  0  0  0  0
   45.0870   16.7747    6.3692 H   0  0  0  0  0  0  0  0  0  0  0  0
   46.7922   18.3028    4.5775 H   0  0  0  0  0  0  0  0  0  0  0  0
   45.4576   18.9102    5.5908 H   0  0  0  0  0  0  0  0  0  0  0  0
   44.2713   19.7072    3.5366 H   0  0  0  0  0  0  0  0  0  0  0  0
   45.5918   19.1113    2.5403 H   0  0  0  0  0  0  0  0  0  0  0  0
   45.8461   21.2257    4.7471 H   0  0  0  0  0  0  0  0  0  0  0  0
   45.8438   21.5446    2.9907 H   0  0  0  0  0  0  0  0  0  0  0  0
   47.9495   22.1764    4.9258 H   0  0  0  0  0  0  0  0  0  0  0  0
   47.9506   22.5000    3.1701 H   0  0  0  0  0  0  0  0  0  0  0  0
   49.9724   21.0575    2.9205 H   0  0  0  0  0  0  0  0  0  0  0  0
   49.9724   20.7411    4.6475 H   0  0  0  0  0  0  0  0  0  0  0  0
   50.2066   23.2019    5.1043 H   0  0  0  0  0  0  0  0  0  0  0  0
   50.2046   23.5214    3.3673 H   0  0  0  0  0  0  0  0  0  0  0  0
   52.2405   22.0963    3.1011 H   0  0  0  0  0  0  0  0  0  0  0  0
   52.2422   21.7742    4.8393 H   0  0  0  0  0  0  0  0  0  0  0  0
   52.4600   24.2251    5.2922 H   0  0  0  0  0  0  0  0  0  0  0  0
   52.4603   24.5459    3.5544 H   0  0  0  0  0  0  0  0  0  0  0  0
   54.4963   23.1177    3.2913 H   0  0  0  0  0  0  0  0  0  0  0  0
   54.4959   22.7969    5.0291 H   0  0  0  0  0  0  0  0  0  0  0  0
   54.7158   25.2461    5.4821 H   0  0  0  0  0  0  0  0  0  0  0  0
   54.7141   25.5681    3.7444 H   0  0  0  0  0  0  0  0  0  0  0  0
   56.7499   24.1391    3.4783 H   0  0  0  0  0  0  0  0  0  0  0  0
   56.7521   23.8193    5.2165 H   0  0  0  0  0  0  0  0  0  0  0  0
   56.9716   26.2690    5.6674 H   0  0  0  0  0  0  0  0  0  0  0  0
   56.9674   26.5899    3.9296 H   0  0  0  0  0  0  0  0  0  0  0  0
   59.0033   25.1635    3.6604 H   0  0  0  0  0  0  0  0  0  0  0  0
   59.0071   24.8402    5.3978 H   0  0  0  0  0  0  0  0  0  0  0  0
   59.2249   27.2902    5.8525 H   0  0  0  0  0  0  0  0  0  0  0  0
   59.2231   27.6124    4.1148 H   0  0  0  0  0  0  0  0  0  0  0  0
   61.2590   26.1857    3.8476 H   0  0  0  0  0  0  0  0  0  0  0  0
   61.2603   25.8613    5.5849 H   0  0  0  0  0  0  0  0  0  0  0  0
   61.4791   28.3102    6.0421 H   0  0  0  0  0  0  0  0  0  0  0  0
   61.4778   28.6346    4.3048 H   0  0  0  0  0  0  0  0  0  0  0  0
   63.5133   27.2057    4.0372 H   0  0  0  0  0  0  0  0  0  0  0  0
   63.5150   26.8835    5.7750 H   0  0  0  0  0  0  0  0  0  0  0  0
   63.7337   29.3331    6.2288 H   0  0  0  0  0  0  0  0  0  0  0  0
   63.7321   29.6552    4.4910 H   0  0  0  0  0  0  0  0  0  0  0  0
   65.7677   28.2273    4.2243 H   0  0  0  0  0  0  0  0  0  0  0  0
   65.7694   27.9052    5.9621 H   0  0  0  0  0  0  0  0  0  0  0  0
   65.9882   30.3547    6.4159 H   0  0  0  0  0  0  0  0  0  0  0  0
   65.9865   30.6768    4.6781 H   0  0  0  0  0  0  0  0  0  0  0  0
   68.0221   29.2489    4.4115 H   0  0  0  0  0  0  0  0  0  0  0  0
   68.0238   28.9268    6.1492 H   0  0  0  0  0  0  0  0  0  0  0  0
   68.2426   31.3763    6.6030 H   0  0  0  0  0  0  0  0  0  0  0  0
   68.2409   31.6984    4.8653 H   0  0  0  0  0  0  0  0  0  0  0  0
   70.2765   30.2705    4.5986 H   0  0  0  0  0  0  0  0  0  0  0  0
   70.2782   29.9484    6.3364 H   0  0  0  0  0  0  0  0  0  0  0  0
   70.4970   32.3979    6.7902 H   0  0  0  0  0  0  0  0  0  0  0  0
   70.4953   32.7200    5.0524 H   0  0  0  0  0  0  0  0  0  0  0  0
   72.5309   31.2921    4.7857 H   0  0  0  0  0  0  0  0  0  0  0  0
   72.5327   30.9700    6.5235 H   0  0  0  0  0  0  0  0  0  0  0  0
   72.7514   33.4196    6.9773 H   0  0  0  0  0  0  0  0  0  0  0  0
   72.7497   33.7416    5.2395 H   0  0  0  0  0  0  0  0  0  0  0  0
   74.7851   32.3123    4.9734 H   0  0  0  0  0  0  0  0  0  0  0  0
   74.7872   31.9926    6.7116 H   0  0  0  0  0  0  0  0  0  0  0  0
   75.0060   34.4428    7.1619 H   0  0  0  0  0  0  0  0  0  0  0  0
   75.0038   34.7625    5.4237 H   0  0  0  0  0  0  0  0  0  0  0  0
   77.0394   33.3342    5.1586 H   0  0  0  0  0  0  0  0  0  0  0  0
   77.0416   33.0145    6.8967 H   0  0  0  0  0  0  0  0  0  0  0  0
   77.2602   35.4648    7.3470 H   0  0  0  0  0  0  0  0  0  0  0  0
   77.2580   35.7844    5.6090 H   0  0  0  0  0  0  0  0  0  0  0  0
   79.2938   34.3562    5.3438 H   0  0  0  0  0  0  0  0  0  0  0  0
   79.2959   34.0366    7.0818 H   0  0  0  0  0  0  0  0  0  0  0  0
   79.5147   36.4868    7.5322 H   0  0  0  0  0  0  0  0  0  0  0  0
   79.5126   36.8065    5.7942 H   0  0  0  0  0  0  0  0  0  0  0  0
   81.5484   35.3794    5.5283 H   0  0  0  0  0  0  0  0  0  0  0  0
   81.5502   35.0573    7.2660 H   0  0  0  0  0  0  0  0  0  0  0  0
   81.7687   37.5071    7.7199 H   0  0  0  0  0  0  0  0  0  0  0  0
   81.7670   37.8292    5.9821 H   0  0  0  0  0  0  0  0  0  0  0  0
   83.8031   36.4016    5.7156 H   0  0  0  0  0  0  0  0  0  0  0  0
   83.8049   36.0796    7.4532 H   0  0  0  0  0  0  0  0  0  0  0  0
   84.0249   38.5288    7.9079 H   0  0  0  0  0  0  0  0  0  0  0  0
   84.0210   38.8521    6.1702 H   0  0  0  0  0  0  0  0  0  0  0  0
   86.0575   37.4251    5.9014 H   0  0  0  0  0  0  0  0  0  0  0  0
   86.0618   37.1043    7.6385 H   0  0  0  0  0  0  0  0  0  0  0  0
   86.2961   39.5565    8.0912 H   0  0  0  0  0  0  0  0  0  0  0  0
   86.2918   39.8774    6.3532 H   0  0  0  0  0  0  0  0  0  0  0  0
   88.3401   38.1438    7.8289 H   0  0  0  0  0  0  0  0  0  0  0  0
   88.6081   39.7941    7.2307 H   0  0  0  0  0  0  0  0  0  0  0  0
   88.3358   38.4660    6.0838 H   0  0  0  0  0  0  0  0  0  0  0  0
  1  2  2  0  0  0  0
  2  3  1  0  0  0  0
  2 81  1  0  0  0  0
  3  4  1  0  0  0  0
  3 82  1  0  0  0  0
  3 83  1  0  0  0  0
  4  5  1  0  0  0  0
  4 84  1  0  0  0  0
  4 85  1  0  0  0  0
  5  6  1  0  0  0  0
  6  7  1  0  0  0  0
  7  8  1  0  0  0  0
  8  9  1  0  0  0  0
  9 10  1  0  0  0  0
  9 86  1  0  0  0  0
  9 87  1  0  0  0  0
 10 11  1  0  0  0  0
 10 88  1  0  0  0  0
 10 89  1  0  0  0  0
 11 12  1  0  0  0  0
 12 13  1  0  0  0  0
 13 14  1  0  0  0  0
 13 90  1  0  0  0  0
 13 91  1  0  0  0  0
 14 15  1  0  0  0  0
 14 92  1  0  0  0  0
 14 93  1  0  0  0  0
 15 16  1  0  0  0  0
 15 94  1  0  0  0  0
 15 95  1  0  0  0  0
 16 17  1  0  0  0  0
 17 18  1  0  0  0  0
 17 96  1  0  0  0  0
 17 97  1  0  0  0  0
 18 19  1  0  0  0  0
 18 98  1  0  0  0  0
 18 99  1  0  0  0  0
 19 20  1  0  0  0  0
 19100  1  0  0  0  0
 19101  1  0  0  0  0
 20 21  1  0  0  0  0
 21 22  1  0  0  0  0
 21102  1  0  0  0  0
 21103  1  0  0  0  0
 22 23  1  0  0  0  0
 22104  1  0  0  0  0
 22105  1  0  0  0  0
 23 24  1  0  0  0  0
 23106  1  0  0  0  0
 23107  1  0  0  0  0
 24 25  1  0  0  0  0
 25 26  1  0  0  0  0
 25108  1  0  0  0  0
 25109  1  0  0  0  0
 26 27  1  0  0  0  0
 26110  1  0  0  0  0
 26111  1  0  0  0  0
 27 28  1  0  0  0  0
 27112  1  0  0  0  0
 27113  1  0  0  0  0
 28 29  1  0  0  0  0
 29 30  1  0  0  0  0
 29114  1  0  0  0  0
 29115  1  0  0  0  0
 30 31  1  0  0  0  0
 30116  1  0  0  0  0
 30117  1  0  0  0  0
 31 32  1  0  0  0  0
 31118  1  0  0  0  0
 31119  1  0  0  0  0
 32 33  1  0  0  0  0
 33 34  1  0  0  0  0
 33120  1  0  0  0  0
 33121  1  0  0  0  0
 34 35  1  0  0  0  0
 34122  1  0  0  0  0
 34123  1  0  0  0  0
 35 36  1  0  0  0  0
 35124  1  0  0  0  0
 35125  1  0  0  0  0
 36 37  1  0  0  0  0
 37 38  1  0  0  0  0
 37126  1  0  0  0  0
 37127  1  0  0  0  0
 38 39  1  0  0  0  0
 38128  1  0  0  0  0
 38129  1  0  0  0  0
 39 40  1  0  0  0  0
 39130  1  0  0  0  0
 39131  1  0  0  0  0
 40 41  1  0  0  0  0
 41 42  1  0  0  0  0
 41132  1  0  0  0  0
 41133  1  0  0  0  0
 42 43  1  0  0  0  0
 42134  1  0  0  0  0
 42135  1  0  0  0  0
 43 44  1  0  0  0  0
 43136  1  0  0  0  0
 43137  1  0  0  0  0
 44 45  1  0  0  0  0
 45 46  1  0  0  0  0
 45138  1  0  0  0  0
 45139  1  0  0  0  0
 46 47  1  0  0  0  0
 46140  1  0  0  0  0
 46141  1  0  0  0  0
 47 48  1  0  0  0  0
 47142  1  0  0  0  0
 47143  1  0  0  0  0
 48 49  1  0  0  0  0
 48144  1  0  0  0  0
 48145  1  0  0  0  0
 49 50  1  0  0  0  0
 49146  1  0  0  0  0
 49147  1  0  0  0  0
 50 51  1  0  0  0  0
 50148  1  0  0  0  0
 50149  1  0  0  0  0
 51 52  1  0  0  0  0
 51150  1  0  0  0  0
 51151  1  0  0  0  0
 52 53  1  0  0  0  0
 52152  1  0  0  0  0
 52153  1  0  0  0  0
 53 54  1  0  0  0  0
 53154  1  0  0  0  0
 53155  1  0  0  0  0
 54 55  1  0  0  0  0
 54156  1  0  0  0  0
 54157  1  0  0  0  0
 55 56  1  0  0  0  0
 55158  1  0  0  0  0
 55159  1  0  0  0  0
 56 57  1  0  0  0  0
 56160  1  0  0  0  0
 56161  1  0  0  0  0
 57 58  1  0  0  0  0
 57162  1  0  0  0  0
 57163  1  0  0  0  0
 58 59  1  0  0  0  0
 58164  1  0  0  0  0
 58165  1  0  0  0  0
 59 60  1  0  0  0  0
 59166  1  0  0  0  0
 59167  1  0  0  0  0
 60 61  1  0  0  0  0
 60168  1  0  0  0  0
 60169  1  0  0  0  0
 61 62  1  0  0  0  0
 61170  1  0  0  0  0
 61171  1  0  0  0  0
 62 63  1  0  0  0  0
 62172  1  0  0  0  0
 62173  1  0  0  0  0
 63 64  1  0  0  0  0
 63174  1  0  0  0  0
 63175  1  0  0  0  0
 64 65  1  0  0  0  0
 64176  1  0  0  0  0
 64177  1  0  0  0  0
 65 66  1  0  0  0  0
 65178  1  0  0  0  0
 65179  1  0  0  0  0
 66 67  1  0  0  0  0
 66180  1  0  0  0  0
 66181  1  0  0  0  0
 67 68  1  0  0  0  0
 67182  1  0  0  0  0
 67183  1  0  0  0  0
 68 69  1  0  0  0  0
 68184  1  0  0  0  0
 68185  1  0  0  0  0
 69 70  1  0  0  0  0
 69186  1  0  0  0  0
 69187  1  0  0  0  0
 70 71  1  0  0  0  0
 70188  1  0  0  0  0
 70189  1  0  0  0  0
 71 72  1  0  0  0  0
 71190  1  0  0  0  0
 71191  1  0  0  0  0
 72 73  1  0  0  0  0
 72192  1  0  0  0  0
 72193  1  0  0  0  0
 73 74  1  0  0  0  0
 73194  1  0  0  0  0
 73195  1  0  0  0  0
 74 75  1  0  0  0  0
 74196  1  0  0  0  0
 74197  1  0  0  0  0
 75 76  1  0  0  0  0
 75198  1  0  0  0  0
 75199  1  0  0  0  0
 76 77  1  0  0  0  0
 76200  1  0  0  0  0
 76201  1  0  0  0  0
 77 78  1  0  0  0  0
 77202  1  0  0  0  0
 77203  1  0  0  0  0
 78 79  1  0  0  0  0
 78204  1  0  0  0  0
 78205  1  0  0  0  0
 79 80  1  0  0  0  0
 79206  1  0  0  0  0
 79207  1  0  0  0  0
 80208  1  0  0  0  0
 80209  1  0  0  0  0
 80210  1  0  0  0  0
M  END
$$$$
