
 OpenBabel04232217023D

162161  0  0  0  0  0  0  0  0999 V2000
   19.7527   25.6052    7.9239 O   0  0  0  0  0  0  0  0  0  0  0  0
   21.1912   25.3982    7.9319 N   0  0  0  0  0  0  0  0  0  0  0  0
   21.4558   24.0703    7.3999 O   0  0  0  0  0  0  0  0  0  0  0  0
   21.0712   24.0017    6.0067 N   0  0  0  0  0  0  0  0  0  0  0  0
   21.7316   24.9921    5.2047 N   0  0  0  0  0  0  0  0  0  0  0  0
   23.1450   24.7725    5.2126 N   0  0  0  0  0  0  0  0  0  0  0  0
   23.4525   23.4743    4.6941 N   0  0  0  0  0  0  0  0  0  0  0  0
   22.9888   23.3680    3.3366 N   0  0  0  0  0  0  0  0  0  0  0  0
   23.6233   24.3678    2.5249 N   0  0  0  0  0  0  0  0  0  0  0  0
   25.0541   24.1818    2.5601 N   0  0  0  0  0  0  0  0  0  0  0  0
   25.3760   22.8660    2.0661 N   0  0  0  0  0  0  0  0  0  0  0  0
   24.8906   22.7331    0.7144 N   0  0  0  0  0  0  0  0  0  0  0  0
   25.5040   23.7446   -0.1114 N   0  0  0  0  0  0  0  0  0  0  0  0
   26.9373   23.5835   -0.0697 N   0  0  0  0  0  0  0  0  0  0  0  0
   27.2792   22.2643   -0.5449 N   0  0  0  0  0  0  0  0  0  0  0  0
   26.7903   22.1053   -1.8931 N   0  0  0  0  0  0  0  0  0  0  0  0
   27.3828   23.1181   -2.7329 N   0  0  0  0  0  0  0  0  0  0  0  0
   28.8184   22.9854   -2.6919 N   0  0  0  0  0  0  0  0  0  0  0  0
   29.1829   21.6716   -3.1487 N   0  0  0  0  0  0  0  0  0  0  0  0
   28.6913   21.4895   -4.4971 N   0  0  0  0  0  0  0  0  0  0  0  0
   29.2674   22.4934   -5.3506 N   0  0  0  0  0  0  0  0  0  0  0  0
   30.7038   22.3844   -5.3180 N   0  0  0  0  0  0  0  0  0  0  0  0
   31.0921   21.0681   -5.7642 N   0  0  0  0  0  0  0  0  0  0  0  0
   30.6026   20.8579   -7.1052 N   0  0  0  0  0  0  0  0  0  0  0  0
   31.1534   21.8691   -7.9756 N   0  0  0  0  0  0  0  0  0  0  0  0
   32.5940   21.7879   -7.9446 N   0  0  0  0  0  0  0  0  0  0  0  0
   33.0040   20.4729   -8.3754 N   0  0  0  0  0  0  0  0  0  0  0  0
   32.5120   20.2365   -9.7115 N   0  0  0  0  0  0  0  0  0  0  0  0
   33.0399   21.2467  -10.5967 N   0  0  0  0  0  0  0  0  0  0  0  0
   34.4818   21.1907  -10.5721 N   0  0  0  0  0  0  0  0  0  0  0  0
   34.9114   19.8757  -10.9848 N   0  0  0  0  0  0  0  0  0  0  0  0
   34.4193   19.6131  -12.3163 N   0  0  0  0  0  0  0  0  0  0  0  0
   34.9270   20.6213  -13.2160 N   0  0  0  0  0  0  0  0  0  0  0  0
   36.3699   20.5909  -13.1961 N   0  0  0  0  0  0  0  0  0  0  0  0
   36.8210   19.2803  -13.5986 N   0  0  0  0  0  0  0  0  0  0  0  0
   36.3251   18.9951  -14.9241 N   0  0  0  0  0  0  0  0  0  0  0  0
   36.8097   20.0019  -15.8381 N   0  0  0  0  0  0  0  0  0  0  0  0
   38.2530   19.9982  -15.8253 N   0  0  0  0  0  0  0  0  0  0  0  0
   38.7274   18.6910  -16.2131 N   0  0  0  0  0  0  0  0  0  0  0  0
   38.2319   18.3792  -17.5324 N   0  0  0  0  0  0  0  0  0  0  0  0
   38.6946   19.3821  -18.4616 N   0  0  0  0  0  0  0  0  0  0  0  0
   40.1378   19.4049  -18.4547 N   0  0  0  0  0  0  0  0  0  0  0  0
   40.6342   18.1016  -18.8273 N   0  0  0  0  0  0  0  0  0  0  0  0
   40.1391   17.7634  -20.1403 N   0  0  0  0  0  0  0  0  0  0  0  0
   40.5794   18.7622  -21.0846 N   0  0  0  0  0  0  0  0  0  0  0  0
   42.0219   18.8115  -21.0843 N   0  0  0  0  0  0  0  0  0  0  0  0
   42.5407   17.5128  -21.4417 N   0  0  0  0  0  0  0  0  0  0  0  0
   42.0465   17.1480  -22.7480 N   0  0  0  0  0  0  0  0  0  0  0  0
   42.4644   18.1420  -23.7074 N   0  0  0  0  0  0  0  0  0  0  0  0
   43.9058   18.2177  -23.7141 N   0  0  0  0  0  0  0  0  0  0  0  0
   44.4468   16.9241  -24.0564 N   0  0  0  0  0  0  0  0  0  0  0  0
   43.9540   16.5330  -25.3555 N   0  0  0  0  0  0  0  0  0  0  0  0
   44.3497   17.5217  -26.3299 N   0  0  0  0  0  0  0  0  0  0  0  0
   45.7894   17.6237  -26.3437 N   0  0  0  0  0  0  0  0  0  0  0  0
   46.3526   16.3356  -26.6712 N   0  0  0  0  0  0  0  0  0  0  0  0
   45.8620   15.9184  -27.9628 N   0  0  0  0  0  0  0  0  0  0  0  0
   46.2357   16.9013  -28.9516 N   0  0  0  0  0  0  0  0  0  0  0  0
   47.6734   17.0289  -28.9733 N   0  0  0  0  0  0  0  0  0  0  0  0
   48.2583   15.7468  -29.2863 N   0  0  0  0  0  0  0  0  0  0  0  0
   47.7704   15.3041  -30.5705 N   0  0  0  0  0  0  0  0  0  0  0  0
   48.1235   16.2801  -31.5735 N   0  0  0  0  0  0  0  0  0  0  0  0
   49.5587   16.4326  -31.6020 N   0  0  0  0  0  0  0  0  0  0  0  0
   50.1649   15.1574  -31.9013 N   0  0  0  0  0  0  0  0  0  0  0  0
   49.6789   14.6894  -33.1774 N   0  0  0  0  0  0  0  0  0  0  0  0
   50.0093   15.6581  -34.1946 N   0  0  0  0  0  0  0  0  0  0  0  0
   51.4410   15.8366  -34.2323 N   0  0  0  0  0  0  0  0  0  0  0  0
   52.0697   14.5691  -34.5171 N   0  0  0  0  0  0  0  0  0  0  0  0
   51.5861   14.0743  -35.7836 N   0  0  0  0  0  0  0  0  0  0  0  0
   51.8909   15.0361  -36.8158 N   0  0  0  0  0  0  0  0  0  0  0  0
   53.3182   15.2411  -36.8669 N   0  0  0  0  0  0  0  0  0  0  0  0
   53.9676   13.9814  -37.1394 N   0  0  0  0  0  0  0  0  0  0  0  0
   53.4892   13.4625  -38.3981 N   0  0  0  0  0  0  0  0  0  0  0  0
   53.7739   14.4148  -39.4439 N   0  0  0  0  0  0  0  0  0  0  0  0
   55.1975   14.6474  -39.5074 N   0  0  0  0  0  0  0  0  0  0  0  0
   55.8767   13.4022  -39.7722 N   0  0  0  0  0  0  0  0  0  0  0  0
   55.4118   12.8528  -41.0209 N   0  0  0  0  0  0  0  0  0  0  0  0
   55.6645   13.7883  -42.0889 N   0  0  0  0  0  0  0  0  0  0  0  0
   57.0821   14.0438  -42.1972 N   0  0  0  0  0  0  0  0  0  0  0  0
   57.7934   12.8140  -42.4862 N   0  0  0  0  0  0  0  0  0  0  0  0
   57.3220   12.2236  -43.7051 N   0  0  0  0  0  0  0  0  0  0  0  0
   57.5677   13.1562  -44.7692 N   0  0  0  0  0  0  0  0  0  0  0  0
   19.6949   26.5639    7.7470 H   0  0  0  0  0  0  0  0  0  0  0  0
   21.3684   25.2082    8.9200 H   0  0  0  0  0  0  0  0  0  0  0  0
   20.0763   24.2142    6.1008 H   0  0  0  0  0  0  0  0  0  0  0  0
   21.5333   25.9265    5.5782 H   0  0  0  0  0  0  0  0  0  0  0  0
   23.5060   24.8580    6.1695 H   0  0  0  0  0  0  0  0  0  0  0  0
   22.9496   22.7835    5.2608 H   0  0  0  0  0  0  0  0  0  0  0  0
   21.9767   23.5391    3.3464 H   0  0  0  0  0  0  0  0  0  0  0  0
   23.4002   25.2806    2.9392 H   0  0  0  0  0  0  0  0  0  0  0  0
   25.3368   24.2391    3.5472 H   0  0  0  0  0  0  0  0  0  0  0  0
   24.8717   22.1951    2.6618 H   0  0  0  0  0  0  0  0  0  0  0  0
   23.8767   22.9075    0.7472 H   0  0  0  0  0  0  0  0  0  0  0  0
   25.2650   24.6522    0.3116 H   0  0  0  0  0  0  0  0  0  0  0  0
   27.2099   23.6537    0.9206 H   0  0  0  0  0  0  0  0  0  0  0  0
   26.7831   21.5974    0.0628 H   0  0  0  0  0  0  0  0  0  0  0  0
   25.7737   22.2651   -1.8562 H   0  0  0  0  0  0  0  0  0  0  0  0
   27.1282   24.0258   -2.3199 H   0  0  0  0  0  0  0  0  0  0  0  0
   29.0920   23.0688   -1.7019 H   0  0  0  0  0  0  0  0  0  0  0  0
   28.7016   20.9997   -2.5381 H   0  0  0  0  0  0  0  0  0  0  0  0
   27.6752   21.6401   -4.4485 H   0  0  0  0  0  0  0  0  0  0  0  0
   28.9995   23.4053   -4.9536 H   0  0  0  0  0  0  0  0  0  0  0  0
   30.9778   22.4879   -4.3302 H   0  0  0  0  0  0  0  0  0  0  0  0
   30.6252   20.3981   -5.1367 H   0  0  0  0  0  0  0  0  0  0  0  0
   29.5812   20.9830   -7.0646 H   0  0  0  0  0  0  0  0  0  0  0  0
   30.8692   22.7773   -7.5819 H   0  0  0  0  0  0  0  0  0  0  0  0
   32.8703   21.9095   -6.9599 H   0  0  0  0  0  0  0  0  0  0  0  0
   32.5502   19.8035   -7.7377 H   0  0  0  0  0  0  0  0  0  0  0  0
   31.4887   20.3434   -9.6673 H   0  0  0  0  0  0  0  0  0  0  0  0
   32.7413   22.1542  -10.2119 H   0  0  0  0  0  0  0  0  0  0  0  0
   34.7605   21.3320   -9.5907 H   0  0  0  0  0  0  0  0  0  0  0  0
   34.4687   19.2095  -10.3359 H   0  0  0  0  0  0  0  0  0  0  0  0
   33.3944   19.7038  -12.2697 H   0  0  0  0  0  0  0  0  0  0  0  0
   34.6144   21.5283  -12.8404 H   0  0  0  0  0  0  0  0  0  0  0  0
   36.6498   20.7465  -12.2171 H   0  0  0  0  0  0  0  0  0  0  0  0
   36.3949   18.6127  -12.9402 H   0  0  0  0  0  0  0  0  0  0  0  0
   35.2991   19.0686  -14.8715 H   0  0  0  0  0  0  0  0  0  0  0  0
   36.4822   20.9073  -15.4721 H   0  0  0  0  0  0  0  0  0  0  0  0
   38.5345   20.1713  -14.8498 H   0  0  0  0  0  0  0  0  0  0  0  0
   38.3176   18.0236  -15.5441 H   0  0  0  0  0  0  0  0  0  0  0  0
   37.2049   18.4343  -17.4771 H   0  0  0  0  0  0  0  0  0  0  0  0
   38.3521   20.2864  -18.1067 H   0  0  0  0  0  0  0  0  0  0  0  0
   40.4203   19.5964  -17.4829 H   0  0  0  0  0  0  0  0  0  0  0  0
   40.2395   17.4358  -18.1480 H   0  0  0  0  0  0  0  0  0  0  0  0
   39.1116   17.8004  -20.0812 H   0  0  0  0  0  0  0  0  0  0  0  0
   40.2218   19.6647  -20.7404 H   0  0  0  0  0  0  0  0  0  0  0  0
   42.3049   19.0211  -20.1164 H   0  0  0  0  0  0  0  0  0  0  0  0
   42.1610   16.8488  -20.7519 H   0  0  0  0  0  0  0  0  0  0  0  0
   41.0188   17.1669  -22.6850 H   0  0  0  0  0  0  0  0  0  0  0  0
   42.0917   19.0423  -23.3735 H   0  0  0  0  0  0  0  0  0  0  0  0
   44.1888   18.4454  -22.7502 H   0  0  0  0  0  0  0  0  0  0  0  0
   44.0823   16.2626  -23.3562 H   0  0  0  0  0  0  0  0  0  0  0  0
   42.9263   16.5338  -25.2883 H   0  0  0  0  0  0  0  0  0  0  0  0
   43.9618   18.4193  -26.0063 H   0  0  0  0  0  0  0  0  0  0  0  0
   46.0720   17.8693  -25.3843 H   0  0  0  0  0  0  0  0  0  0  0  0
   46.0030   15.6770  -25.9606 H   0  0  0  0  0  0  0  0  0  0  0  0
   44.8347   15.9012  -27.8915 H   0  0  0  0  0  0  0  0  0  0  0  0
   45.8329   17.7959  -28.6383 H   0  0  0  0  0  0  0  0  0  0  0  0
   47.9562   17.2922  -28.0187 H   0  0  0  0  0  0  0  0  0  0  0  0
   47.9232   15.0914  -28.5660 H   0  0  0  0  0  0  0  0  0  0  0  0
   46.7440   15.2699  -30.4953 H   0  0  0  0  0  0  0  0  0  0  0  0
   47.7064   17.1716  -31.2708 H   0  0  0  0  0  0  0  0  0  0  0  0
   49.8402   16.7128  -30.6519 H   0  0  0  0  0  0  0  0  0  0  0  0
   49.8451   14.5051  -31.1714 H   0  0  0  0  0  0  0  0  0  0  0  0
   48.6536   14.6372  -33.0969 H   0  0  0  0  0  0  0  0  0  0  0  0
   49.5772   16.5459  -33.9025 H   0  0  0  0  0  0  0  0  0  0  0  0
   51.7221   16.1354  -33.2878 H   0  0  0  0  0  0  0  0  0  0  0  0
   51.7666   13.9208  -33.7766 H   0  0  0  0  0  0  0  0  0  0  0  0
   50.5627   14.0029  -35.6967 H   0  0  0  0  0  0  0  0  0  0  0  0
   51.4441   15.9193  -36.5317 H   0  0  0  0  0  0  0  0  0  0  0  0
   53.6014   15.5578  -35.9291 H   0  0  0  0  0  0  0  0  0  0  0  0
   53.6766   13.3376  -36.3900 H   0  0  0  0  0  0  0  0  0  0  0  0
   52.4675   13.3751  -38.3072 H   0  0  0  0  0  0  0  0  0  0  0  0
   53.3144   15.2940  -39.1667 H   0  0  0  0  0  0  0  0  0  0  0  0
   55.4798   14.9782  -38.5789 H   0  0  0  0  0  0  0  0  0  0  0  0
   55.6055   12.7586  -39.0149 H   0  0  0  0  0  0  0  0  0  0  0  0
   54.3921   12.7384  -40.9269 H   0  0  0  0  0  0  0  0  0  0  0  0
   55.1945   14.6637  -41.8263 H   0  0  0  0  0  0  0  0  0  0  0  0
   57.3862   14.3840  -41.2813 H   0  0  0  0  0  0  0  0  0  0  0  0
   57.5687   12.1736  -41.7086 H   0  0  0  0  0  0  0  0  0  0  0  0
   56.3069   12.0788  -43.5909 H   0  0  0  0  0  0  0  0  0  0  0  0
   58.5662   13.3554  -44.7634 H   0  0  0  0  0  0  0  0  0  0  0  0
   57.1580   14.0414  -44.4371 H   0  0  0  0  0  0  0  0  0  0  0  0
  1  2  1  0  0  0  0
  1 82  1  0  0  0  0
  2  3  1  0  0  0  0
  2 83  1  0  0  0  0
  3  4  1  0  0  0  0
  4  5  1  0  0  0  0
  4 84  1  0  0  0  0
  5  6  1  0  0  0  0
  5 85  1  0  0  0  0
  6  7  1  0  0  0  0
  6 86  1  0  0  0  0
  7  8  1  0  0  0  0
  7 87  1  0  0  0  0
  8  9  1  0  0  0  0
  8 88  1  0  0  0  0
  9 10  1  0  0  0  0
  9 89  1  0  0  0  0
 10 11  1  0  0  0  0
 10 90  1  0  0  0  0
 11 12  1  0  0  0  0
 11 91  1  0  0  0  0
 12 13  1  0  0  0  0
 12 92  1  0  0  0  0
 13 14  1  0  0  0  0
 13 93  1  0  0  0  0
 14 15  1  0  0  0  0
 14 94  1  0  0  0  0
 15 16  1  0  0  0  0
 15 95  1  0  0  0  0
 16 17  1  0  0  0  0
 16 96  1  0  0  0  0
 17 18  1  0  0  0  0
 17 97  1  0  0  0  0
 18 19  1  0  0  0  0
 18 98  1  0  0  0  0
 19 20  1  0  0  0  0
 19 99  1  0  0  0  0
 20 21  1  0  0  0  0
 20100  1  0  0  0  0
 21 22  1  0  0  0  0
 21101  1  0  0  0  0
 22 23  1  0  0  0  0
 22102  1  0  0  0  0
 23 24  1  0  0  0  0
 23103  1  0  0  0  0
 24 25  1  0  0  0  0
 24104  1  0  0  0  0
 25 26  1  0  0  0  0
 25105  1  0  0  0  0
 26 27  1  0  0  0  0
 26106  1  0  0  0  0
 27 28  1  0  0  0  0
 27107  1  0  0  0  0
 28 29  1  0  0  0  0
 28108  1  0  0  0  0
 29 30  1  0  0  0  0
 29109  1  0  0  0  0
 30 31  1  0  0  0  0
 30110  1  0  0  0  0
 31 32  1  0  0  0  0
 31111  1  0  0  0  0
 32 33  1  0  0  0  0
 32112  1  0  0  0  0
 33 34  1  0  0  0  0
 33113  1  0  0  0  0
 34 35  1  0  0  0  0
 34114  1  0  0  0  0
 35 36  1  0  0  0  0
 35115  1  0  0  0  0
 36 37  1  0  0  0  0
 36116  1  0  0  0  0
 37 38  1  0  0  0  0
 37117  1  0  0  0  0
 38 39  1  0  0  0  0
 38118  1  0  0  0  0
 39 40  1  0  0  0  0
 39119  1  0  0  0  0
 40 41  1  0  0  0  0
 40120  1  0  0  0  0
 41 42  1  0  0  0  0
 41121  1  0  0  0  0
 42 43  1  0  0  0  0
 42122  1  0  0  0  0
 43 44  1  0  0  0  0
 43123  1  0  0  0  0
 44 45  1  0  0  0  0
 44124  1  0  0  0  0
 45 46  1  0  0  0  0
 45125  1  0  0  0  0
 46 47  1  0  0  0  0
 46126  1  0  0  0  0
 47 48  1  0  0  0  0
 47127  1  0  0  0  0
 48 49  1  0  0  0  0
 48128  1  0  0  0  0
 49 50  1  0  0  0  0
 49129  1  0  0  0  0
 50 51  1  0  0  0  0
 50130  1  0  0  0  0
 51 52  1  0  0  0  0
 51131  1  0  0  0  0
 52 53  1  0  0  0  0
 52132  1  0  0  0  0
 53 54  1  0  0  0  0
 53133  1  0  0  0  0
 54 55  1  0  0  0  0
 54134  1  0  0  0  0
 55 56  1  0  0  0  0
 55135  1  0  0  0  0
 56 57  1  0  0  0  0
 56136  1  0  0  0  0
 57 58  1  0  0  0  0
 57137  1  0  0  0  0
 58 59  1  0  0  0  0
 58138  1  0  0  0  0
 59 60  1  0  0  0  0
 59139  1  0  0  0  0
 60 61  1  0  0  0  0
 60140  1  0  0  0  0
 61 62  1  0  0  0  0
 61141  1  0  0  0  0
 62 63  1  0  0  0  0
 62142  1  0  0  0  0
 63 64  1  0  0  0  0
 63143  1  0  0  0  0
 64 65  1  0  0  0  0
 64144  1  0  0  0  0
 65 66  1  0  0  0  0
 65145  1  0  0  0  0
 66 67  1  0  0  0  0
 66146  1  0  0  0  0
 67 68  1  0  0  0  0
 67147  1  0  0  0  0
 68 69  1  0  0  0  0
 68148  1  0  0  0  0
 69 70  1  0  0  0  0
 69149  1  0  0  0  0
 70 71  1  0  0  0  0
 70150  1  0  0  0  0
 71 72  1  0  0  0  0
 71151  1  0  0  0  0
 72 73  1  0  0  0  0
 72152  1  0  0  0  0
 73 74  1  0  0  0  0
 73153  1  0  0  0  0
 74 75  1  0  0  0  0
 74154  1  0  0  0  0
 75 76  1  0  0  0  0
 75155  1  0  0  0  0
 76 77  1  0  0  0  0
 76156  1  0  0  0  0
 77 78  1  0  0  0  0
 77157  1  0  0  0  0
 78 79  1  0  0  0  0
 78158  1  0  0  0  0
 79 80  1  0  0  0  0
 79159  1  0  0  0  0
 80 81  1  0  0  0  0
 80160  1  0  0  0  0
 81161  1  0  0  0  0
 81162  1  0  0  0  0
M  END
$$$$
