
 OpenBabel04232217033D

 87 86  0  0  0  0  0  0  0  0999 V2000
    8.7206    5.4249    8.7963 S   0  0  0  0  0  0  0  0  0  0  0  0
    8.1820    4.0272    8.0182 O   0  0  0  0  0  0  0  0  0  0  0  0
    8.9174    2.7187    8.7109 S   0  0  0  0  0  0  0  0  0  0  0  0
    8.1087    1.1983    7.5720 S   0  0  0  0  0  0  0  0  0  0  0  0
    8.7915    1.4704    5.8906 C   0  0  0  0  0  0  0  0  0  0  0  0
   10.2772    1.5397    5.8126 C   0  0  0  0  0  0  0  0  0  0  0  0
   10.9634    1.8416    4.1223 S   0  0  0  0  0  0  0  0  0  0  0  0
   10.2431    3.6907    3.5416 S   0  0  0  0  0  0  0  0  0  0  0  0
   10.9446    5.1021    4.8854 S   0  0  0  0  0  0  0  0  0  0  0  0
   13.0183    5.1349    4.8085 S   0  0  0  0  0  0  0  0  0  0  0  0
   13.6746    6.5456    6.2181 S   0  0  0  0  0  0  0  0  0  0  0  0
   15.7755    6.5361    6.2033 S   0  0  0  0  0  0  0  0  0  0  0  0
   16.4620    7.9680    7.5872 S   0  0  0  0  0  0  0  0  0  0  0  0
   18.5708    7.9577    7.5775 S   0  0  0  0  0  0  0  0  0  0  0  0
   19.2610    9.3902    8.9632 S   0  0  0  0  0  0  0  0  0  0  0  0
   21.3703    9.3805    8.9538 S   0  0  0  0  0  0  0  0  0  0  0  0
   22.0608   10.8130   10.3395 S   0  0  0  0  0  0  0  0  0  0  0  0
   24.1702   10.8035   10.3303 S   0  0  0  0  0  0  0  0  0  0  0  0
   24.8608   12.2361   11.7161 S   0  0  0  0  0  0  0  0  0  0  0  0
   26.9701   12.2266   11.7069 S   0  0  0  0  0  0  0  0  0  0  0  0
   27.6608   13.6592   13.0926 S   0  0  0  0  0  0  0  0  0  0  0  0
   29.7701   13.6496   13.0834 S   0  0  0  0  0  0  0  0  0  0  0  0
   30.4608   15.0822   14.4692 S   0  0  0  0  0  0  0  0  0  0  0  0
   32.5701   15.0727   14.4600 S   0  0  0  0  0  0  0  0  0  0  0  0
   33.2607   16.5053   15.8457 S   0  0  0  0  0  0  0  0  0  0  0  0
   35.3701   16.4958   15.8365 S   0  0  0  0  0  0  0  0  0  0  0  0
   36.0607   17.9284   17.2223 S   0  0  0  0  0  0  0  0  0  0  0  0
   38.1701   17.9188   17.2131 S   0  0  0  0  0  0  0  0  0  0  0  0
   38.8607   19.3514   18.5988 S   0  0  0  0  0  0  0  0  0  0  0  0
   40.9701   19.3419   18.5896 S   0  0  0  0  0  0  0  0  0  0  0  0
   41.6607   20.7745   19.9754 S   0  0  0  0  0  0  0  0  0  0  0  0
   43.7701   20.7650   19.9662 S   0  0  0  0  0  0  0  0  0  0  0  0
   44.4607   22.1976   21.3519 S   0  0  0  0  0  0  0  0  0  0  0  0
   46.5701   22.1880   21.3427 S   0  0  0  0  0  0  0  0  0  0  0  0
   47.2607   23.6206   22.7285 S   0  0  0  0  0  0  0  0  0  0  0  0
   49.3701   23.6111   22.7193 S   0  0  0  0  0  0  0  0  0  0  0  0
   50.0607   25.0437   24.1050 S   0  0  0  0  0  0  0  0  0  0  0  0
   52.1701   25.0342   24.0958 S   0  0  0  0  0  0  0  0  0  0  0  0
   52.8607   26.4668   25.4816 S   0  0  0  0  0  0  0  0  0  0  0  0
   54.9701   26.4572   25.4724 S   0  0  0  0  0  0  0  0  0  0  0  0
   55.6607   27.8898   26.8581 S   0  0  0  0  0  0  0  0  0  0  0  0
   57.7701   27.8803   26.8489 S   0  0  0  0  0  0  0  0  0  0  0  0
   58.4607   29.3129   28.2347 S   0  0  0  0  0  0  0  0  0  0  0  0
   60.5701   29.3034   28.2255 S   0  0  0  0  0  0  0  0  0  0  0  0
   61.2607   30.7360   29.6112 S   0  0  0  0  0  0  0  0  0  0  0  0
   63.3700   30.7264   29.6020 S   0  0  0  0  0  0  0  0  0  0  0  0
   64.0607   32.1590   30.9878 S   0  0  0  0  0  0  0  0  0  0  0  0
   66.1700   32.1495   30.9786 S   0  0  0  0  0  0  0  0  0  0  0  0
   66.8607   33.5821   32.3643 S   0  0  0  0  0  0  0  0  0  0  0  0
   68.9700   33.5726   32.3551 S   0  0  0  0  0  0  0  0  0  0  0  0
   69.6606   35.0052   33.7409 S   0  0  0  0  0  0  0  0  0  0  0  0
   71.7700   34.9956   33.7317 S   0  0  0  0  0  0  0  0  0  0  0  0
   72.4606   36.4282   35.1174 S   0  0  0  0  0  0  0  0  0  0  0  0
   74.5700   36.4187   35.1082 S   0  0  0  0  0  0  0  0  0  0  0  0
   75.2606   37.8513   36.4940 S   0  0  0  0  0  0  0  0  0  0  0  0
   77.3700   37.8418   36.4848 S   0  0  0  0  0  0  0  0  0  0  0  0
   78.0606   39.2744   37.8705 S   0  0  0  0  0  0  0  0  0  0  0  0
   80.1700   39.2648   37.8613 S   0  0  0  0  0  0  0  0  0  0  0  0
   80.8606   40.6974   39.2471 S   0  0  0  0  0  0  0  0  0  0  0  0
   82.9700   40.6879   39.2379 S   0  0  0  0  0  0  0  0  0  0  0  0
   83.6606   42.1205   40.6236 S   0  0  0  0  0  0  0  0  0  0  0  0
   85.7700   42.1110   40.6144 S   0  0  0  0  0  0  0  0  0  0  0  0
   86.4606   43.5436   42.0002 S   0  0  0  0  0  0  0  0  0  0  0  0
   88.5700   43.5340   41.9910 S   0  0  0  0  0  0  0  0  0  0  0  0
   89.2606   44.9666   43.3767 S   0  0  0  0  0  0  0  0  0  0  0  0
   91.3700   44.9571   43.3675 S   0  0  0  0  0  0  0  0  0  0  0  0
   92.0606   46.3897   44.7533 S   0  0  0  0  0  0  0  0  0  0  0  0
   94.1700   46.3802   44.7441 S   0  0  0  0  0  0  0  0  0  0  0  0
   94.8606   47.8128   46.1298 S   0  0  0  0  0  0  0  0  0  0  0  0
   96.9700   47.8032   46.1206 S   0  0  0  0  0  0  0  0  0  0  0  0
   97.6606   49.2358   47.5064 S   0  0  0  0  0  0  0  0  0  0  0  0
   99.7699   49.2263   47.4972 S   0  0  0  0  0  0  0  0  0  0  0  0
  100.4603   50.6588   48.8828 S   0  0  0  0  0  0  0  0  0  0  0  0
  102.5689   50.6488   48.8732 S   0  0  0  0  0  0  0  0  0  0  0  0
  103.2577   52.0805   50.2584 S   0  0  0  0  0  0  0  0  0  0  0  0
  105.3624   52.0691   50.2460 S   0  0  0  0  0  0  0  0  0  0  0  0
  106.0441   53.4970   51.6280 S   0  0  0  0  0  0  0  0  0  0  0  0
  108.1366   53.4488   51.6201 S   0  0  0  0  0  0  0  0  0  0  0  0
  108.8233   54.9259   52.9161 S   0  0  0  0  0  0  0  0  0  0  0  0
  110.8942   54.8330   52.9359 S   0  0  0  0  0  0  0  0  0  0  0  0
  111.5084   55.4025   51.0428 S   0  0  0  0  0  0  0  0  0  0  0  0
    8.0890    6.3673    8.0945 H   0  0  0  0  0  0  0  0  0  0  0  0
    8.3254    2.4030    5.5416 H   0  0  0  0  0  0  0  0  0  0  0  0
    8.3885    0.6614    5.2357 H   0  0  0  0  0  0  0  0  0  0  0  0
   10.7238    0.5593    6.1409 H   0  0  0  0  0  0  0  0  0  0  0  0
   10.6953    2.2947    6.4562 H   0  0  0  0  0  0  0  0  0  0  0  0
  112.8505   55.3390   51.1373 H   0  0  0  0  0  0  0  0  0  0  0  0
  1  2  1  0  0  0  0
  1 82  1  0  0  0  0
  2  3  1  0  0  0  0
  3  4  1  0  0  0  0
  4  5  1  0  0  0  0
  5  6  1  0  0  0  0
  5 83  1  0  0  0  0
  5 84  1  0  0  0  0
  6  7  1  0  0  0  0
  6 85  1  0  0  0  0
  6 86  1  0  0  0  0
  7  8  1  0  0  0  0
  8  9  1  0  0  0  0
  9 10  1  0  0  0  0
 10 11  1  0  0  0  0
 11 12  1  0  0  0  0
 12 13  1  0  0  0  0
 13 14  1  0  0  0  0
 14 15  1  0  0  0  0
 15 16  1  0  0  0  0
 16 17  1  0  0  0  0
 17 18  1  0  0  0  0
 18 19  1  0  0  0  0
 19 20  1  0  0  0  0
 20 21  1  0  0  0  0
 21 22  1  0  0  0  0
 22 23  1  0  0  0  0
 23 24  1  0  0  0  0
 24 25  1  0  0  0  0
 25 26  1  0  0  0  0
 26 27  1  0  0  0  0
 27 28  1  0  0  0  0
 28 29  1  0  0  0  0
 29 30  1  0  0  0  0
 30 31  1  0  0  0  0
 31 32  1  0  0  0  0
 32 33  1  0  0  0  0
 33 34  1  0  0  0  0
 34 35  1  0  0  0  0
 35 36  1  0  0  0  0
 36 37  1  0  0  0  0
 37 38  1  0  0  0  0
 38 39  1  0  0  0  0
 39 40  1  0  0  0  0
 40 41  1  0  0  0  0
 41 42  1  0  0  0  0
 42 43  1  0  0  0  0
 43 44  1  0  0  0  0
 44 45  1  0  0  0  0
 45 46  1  0  0  0  0
 46 47  1  0  0  0  0
 47 48  1  0  0  0  0
 48 49  1  0  0  0  0
 49 50  1  0  0  0  0
 50 51  1  0  0  0  0
 51 52  1  0  0  0  0
 52 53  1  0  0  0  0
 53 54  1  0  0  0  0
 54 55  1  0  0  0  0
 55 56  1  0  0  0  0
 56 57  1  0  0  0  0
 57 58  1  0  0  0  0
 58 59  1  0  0  0  0
 59 60  1  0  0  0  0
 60 61  1  0  0  0  0
 61 62  1  0  0  0  0
 62 63  1  0  0  0  0
 63 64  1  0  0  0  0
 64 65  1  0  0  0  0
 65 66  1  0  0  0  0
 66 67  1  0  0  0  0
 67 68  1  0  0  0  0
 68 69  1  0  0  0  0
 69 70  1  0  0  0  0
 70 71  1  0  0  0  0
 71 72  1  0  0  0  0
 72 73  1  0  0  0  0
 73 74  1  0  0  0  0
 74 75  1  0  0  0  0
 75 76  1  0  0  0  0
 76 77  1  0  0  0  0
 77 78  1  0  0  0  0
 78 79  1  0  0  0  0
 79 80  1  0  0  0  0
 80 81  1  0  0  0  0
 81 87  1  0  0  0  0
M  END
$$$$
