
 OpenBabel04232216483D

 78 78  0  0  0  0  0  0  0  0999 V2000
    2.5494   -0.0306    0.1686 C   0  0  0  0  0  0  0  0  0  0  0  0
    1.0497    0.0045    0.1251 C   0  0  0  0  0  0  0  0  0  0  0  0
    0.2879    0.0202    1.2970 C   0  0  0  0  0  0  0  0  0  0  0  0
   -1.1110    0.0348    1.2247 C   0  0  0  0  0  0  0  0  0  0  0  0
   -1.7616    0.0281   -0.0090 C   0  0  0  0  0  0  0  0  0  0  0  0
   -3.2704    0.0203   -0.0533 C   0  0  0  0  0  0  0  0  0  0  0  0
   -3.8583    1.4217   -0.0603 C   0  0  0  0  0  0  0  0  0  0  0  0
   -5.3806    1.4101   -0.0890 C   0  0  0  0  0  0  0  0  0  0  0  0
   -5.8763    2.8481   -0.0983 C   0  0  0  0  0  0  0  0  0  0  0  0
   -7.3902    2.8823   -0.1298 C   0  0  0  0  0  0  0  0  0  0  0  0
   -7.8765    4.3186   -0.1395 C   0  0  0  0  0  0  0  0  0  0  0  0
   -9.3918    4.3361   -0.1708 C   0  0  0  0  0  0  0  0  0  0  0  0
   -9.8940    5.7660   -0.1806 C   0  0  0  0  0  0  0  0  0  0  0  0
  -11.4101    5.7737   -0.2124 C   0  0  0  0  0  0  0  0  0  0  0  0
  -11.9164    7.2030   -0.2219 C   0  0  0  0  0  0  0  0  0  0  0  0
  -13.4330    7.2110   -0.2517 C   0  0  0  0  0  0  0  0  0  0  0  0
  -13.9400    8.6408   -0.2642 C   0  0  0  0  0  0  0  0  0  0  0  0
  -15.4571    8.6500   -0.2915 C   0  0  0  0  0  0  0  0  0  0  0  0
  -15.9649   10.0802   -0.3061 C   0  0  0  0  0  0  0  0  0  0  0  0
  -17.4831   10.0920   -0.3315 C   0  0  0  0  0  0  0  0  0  0  0  0
  -17.9928   11.5230   -0.3479 C   0  0  0  0  0  0  0  0  0  0  0  0
  -19.5126   11.5383   -0.3715 C   0  0  0  0  0  0  0  0  0  0  0  0
  -20.0265   12.9704   -0.3860 C   0  0  0  0  0  0  0  0  0  0  0  0
  -21.5488   12.9868   -0.4095 C   0  0  0  0  0  0  0  0  0  0  0  0
  -22.0751   14.4167   -0.4262 C   0  0  0  0  0  0  0  0  0  0  0  0
  -23.5923   14.4312   -0.4496 C   0  0  0  0  0  0  0  0  0  0  0  0
   -0.9912    0.0273   -1.1831 C   0  0  0  0  0  0  0  0  0  0  0  0
    0.4097    0.0116   -1.1095 C   0  0  0  0  0  0  0  0  0  0  0  0
    2.9227   -0.0144    1.1966 H   0  0  0  0  0  0  0  0  0  0  0  0
    2.9564    0.8383   -0.3567 H   0  0  0  0  0  0  0  0  0  0  0  0
    2.9106   -0.9443   -0.3122 H   0  0  0  0  0  0  0  0  0  0  0  0
    0.7637    0.0164    2.2718 H   0  0  0  0  0  0  0  0  0  0  0  0
   -1.6884    0.0397    2.1493 H   0  0  0  0  0  0  0  0  0  0  0  0
   -3.6483   -0.5289    0.8178 H   0  0  0  0  0  0  0  0  0  0  0  0
   -3.6076   -0.5271   -0.9392 H   0  0  0  0  0  0  0  0  0  0  0  0
   -3.4955    1.9788   -0.9347 H   0  0  0  0  0  0  0  0  0  0  0  0
   -3.5321    1.9762    0.8339 H   0  0  0  0  0  0  0  0  0  0  0  0
   -5.7778    0.8821    0.7873 H   0  0  0  0  0  0  0  0  0  0  0  0
   -5.7415    0.8831   -0.9811 H   0  0  0  0  0  0  0  0  0  0  0  0
   -5.4752    3.3788   -0.9717 H   0  0  0  0  0  0  0  0  0  0  0  0
   -5.5119    3.3777    0.7916 H   0  0  0  0  0  0  0  0  0  0  0  0
   -7.7918    2.3579    0.7456 H   0  0  0  0  0  0  0  0  0  0  0  0
   -7.7552    2.3585   -1.0214 H   0  0  0  0  0  0  0  0  0  0  0  0
   -7.4764    4.8473   -1.0139 H   0  0  0  0  0  0  0  0  0  0  0  0
   -7.5131    4.8465    0.7517 H   0  0  0  0  0  0  0  0  0  0  0  0
   -9.7888    3.8062    0.7039 H   0  0  0  0  0  0  0  0  0  0  0  0
   -9.7521    3.8069   -1.0616 H   0  0  0  0  0  0  0  0  0  0  0  0
   -9.4978    6.2961   -1.0554 H   0  0  0  0  0  0  0  0  0  0  0  0
   -9.5347    6.2952    0.7106 H   0  0  0  0  0  0  0  0  0  0  0  0
  -11.8052    5.2421    0.6623 H   0  0  0  0  0  0  0  0  0  0  0  0
  -11.7683    5.2433   -1.1032 H   0  0  0  0  0  0  0  0  0  0  0  0
  -11.5219    7.7328   -1.0978 H   0  0  0  0  0  0  0  0  0  0  0  0
  -11.5563    7.7333    0.6680 H   0  0  0  0  0  0  0  0  0  0  0  0
  -13.8262    6.6825    0.6255 H   0  0  0  0  0  0  0  0  0  0  0  0
  -13.7931    6.6779   -1.1403 H   0  0  0  0  0  0  0  0  0  0  0  0
  -13.5465    9.1690   -1.1414 H   0  0  0  0  0  0  0  0  0  0  0  0
  -13.5787    9.1731    0.6242 H   0  0  0  0  0  0  0  0  0  0  0  0
  -15.8496    8.1223    0.5864 H   0  0  0  0  0  0  0  0  0  0  0  0
  -15.8177    8.1158   -1.1792 H   0  0  0  0  0  0  0  0  0  0  0  0
  -15.5716   10.6064   -1.1848 H   0  0  0  0  0  0  0  0  0  0  0  0
  -15.6015   10.6138    0.5809 H   0  0  0  0  0  0  0  0  0  0  0  0
  -17.8738    9.5657    0.5481 H   0  0  0  0  0  0  0  0  0  0  0  0
  -17.8446    9.5557   -1.2175 H   0  0  0  0  0  0  0  0  0  0  0  0
  -17.6002   12.0469   -1.2281 H   0  0  0  0  0  0  0  0  0  0  0  0
  -17.6274   12.0575    0.5376 H   0  0  0  0  0  0  0  0  0  0  0  0
  -19.9019   11.0103    0.5078 H   0  0  0  0  0  0  0  0  0  0  0  0
  -19.8746   11.0021   -1.2575 H   0  0  0  0  0  0  0  0  0  0  0  0
  -19.6334   13.4951   -1.2653 H   0  0  0  0  0  0  0  0  0  0  0  0
  -19.6607   13.5033    0.5002 H   0  0  0  0  0  0  0  0  0  0  0  0
  -21.9357   12.4581    0.4703 H   0  0  0  0  0  0  0  0  0  0  0  0
  -21.9086   12.4476   -1.2945 H   0  0  0  0  0  0  0  0  0  0  0  0
  -21.6908   14.9452   -1.3063 H   0  0  0  0  0  0  0  0  0  0  0  0
  -21.7179   14.9558    0.4590 H   0  0  0  0  0  0  0  0  0  0  0  0
  -23.9724   13.9195   -1.3397 H   0  0  0  0  0  0  0  0  0  0  0  0
  -23.9614   15.4605   -0.4615 H   0  0  0  0  0  0  0  0  0  0  0  0
  -23.9997   13.9301    0.4343 H   0  0  0  0  0  0  0  0  0  0  0  0
   -1.4513    0.0258   -2.1659 H   0  0  0  0  0  0  0  0  0  0  0  0
    0.9854   -0.0001   -2.0340 H   0  0  0  0  0  0  0  0  0  0  0  0
  1  2  1  0  0  0  0
  1 29  1  0  0  0  0
  1 30  1  0  0  0  0
  1 31  1  0  0  0  0
  2  3  1  0  0  0  0
  2 28  2  0  0  0  0
  3  4  2  0  0  0  0
  3 32  1  0  0  0  0
  4  5  1  0  0  0  0
  4 33  1  0  0  0  0
  5  6  1  0  0  0  0
  5 27  2  0  0  0  0
  6  7  1  0  0  0  0
  6 34  1  0  0  0  0
  6 35  1  0  0  0  0
  7  8  1  0  0  0  0
  7 36  1  0  0  0  0
  7 37  1  0  0  0  0
  8  9  1  0  0  0  0
  8 38  1  0  0  0  0
  8 39  1  0  0  0  0
  9 10  1  0  0  0  0
  9 40  1  0  0  0  0
  9 41  1  0  0  0  0
 10 11  1  0  0  0  0
 10 42  1  0  0  0  0
 10 43  1  0  0  0  0
 11 12  1  0  0  0  0
 11 44  1  0  0  0  0
 11 45  1  0  0  0  0
 12 13  1  0  0  0  0
 12 46  1  0  0  0  0
 12 47  1  0  0  0  0
 13 14  1  0  0  0  0
 13 48  1  0  0  0  0
 13 49  1  0  0  0  0
 14 15  1  0  0  0  0
 14 50  1  0  0  0  0
 14 51  1  0  0  0  0
 15 16  1  0  0  0  0
 15 52  1  0  0  0  0
 15 53  1  0  0  0  0
 16 17  1  0  0  0  0
 16 54  1  0  0  0  0
 16 55  1  0  0  0  0
 17 18  1  0  0  0  0
 17 56  1  0  0  0  0
 17 57  1  0  0  0  0
 18 19  1  0  0  0  0
 18 58  1  0  0  0  0
 18 59  1  0  0  0  0
 19 20  1  0  0  0  0
 19 60  1  0  0  0  0
 19 61  1  0  0  0  0
 20 21  1  0  0  0  0
 20 62  1  0  0  0  0
 20 63  1  0  0  0  0
 21 22  1  0  0  0  0
 21 64  1  0  0  0  0
 21 65  1  0  0  0  0
 22 23  1  0  0  0  0
 22 66  1  0  0  0  0
 22 67  1  0  0  0  0
 23 24  1  0  0  0  0
 23 68  1  0  0  0  0
 23 69  1  0  0  0  0
 24 25  1  0  0  0  0
 24 70  1  0  0  0  0
 24 71  1  0  0  0  0
 25 26  1  0  0  0  0
 25 72  1  0  0  0  0
 25 73  1  0  0  0  0
 26 74  1  0  0  0  0
 26 75  1  0  0  0  0
 26 76  1  0  0  0  0
 27 28  1  0  0  0  0
 27 77  1  0  0  0  0
 28 78  1  0  0  0  0
M  END
$$$$
