
 OpenBabel04232216493D

 58 59  0  0  1  0  0  0  0  0999 V2000
    8.7060   -0.6238   -0.5628 C   0  0  0  0  0  0  0  0  0  0  0  0
    9.0757   -1.4694   -2.1091 C   0  0  3  0  0  0  0  0  0  0  0  0
    7.1928   -1.3473   -2.2930 C   0  0  0  0  0  0  0  0  0  0  0  0
    5.9674   -2.3211   -1.4908 C   0  0  0  0  0  0  0  0  0  0  0  0
    4.9998   -3.0282   -2.5330 C   0  0  0  0  0  0  0  0  0  0  0  0
    6.1000   -3.3727   -3.3858 C   0  0  0  0  0  0  0  0  0  0  0  0
    6.5771   -4.0967   -4.5054 C   0  0  0  0  0  0  0  0  0  0  0  0
    8.0370   -3.6668   -4.2208 C   0  0  0  0  0  0  0  0  0  0  0  0
    8.6373   -4.4772   -5.1943 C   0  0  0  0  0  0  0  0  0  0  0  0
   10.0942   -4.4295   -4.9628 C   0  0  0  0  0  0  0  0  0  0  0  0
   10.3440   -5.4858   -5.9425 C   0  0  0  0  0  0  0  0  0  0  0  0
   11.7618   -5.5566   -6.0735 C   0  0  0  0  0  0  0  0  0  0  0  0
   11.8604   -6.2681   -7.3617 C   0  0  0  0  0  0  0  0  0  0  0  0
   11.5059   -7.4072   -7.5486 O   0  0  0  0  0  0  0  0  0  0  0  0
   12.5095   -5.4291   -8.2826 N   0  0  0  0  0  0  0  0  0  0  0  0
   13.8298   -5.6252   -8.0520 C   0  0  0  0  0  0  0  0  0  0  0  0
   14.4373   -5.0142   -7.0031 C   0  0  0  0  0  0  0  0  0  0  0  0
   13.8003   -3.7002   -6.0157 C   0  0  0  0  0  0  0  0  0  0  0  0
   13.4963   -3.7211   -4.5935 C   0  0  0  0  0  0  0  0  0  0  0  0
   14.9714   -4.6861   -4.2525 C   0  0  0  0  0  0  0  0  0  0  0  0
   16.0026   -5.6171   -5.3202 C   0  0  0  0  0  0  0  0  0  0  0  0
   17.1041   -6.0688   -4.9663 O   0  0  0  0  0  0  0  0  0  0  0  0
   15.6366   -5.8698   -6.7321 C   0  0  0  0  0  0  0  0  0  0  0  0
   12.1516   -3.0356   -3.3941 C   0  0  0  0  0  0  0  0  0  0  0  0
   10.6944   -2.2924   -2.9558 C   0  0  0  0  0  0  0  0  0  0  0  0
    8.4722    0.3333   -1.1064 H   0  0  0  0  0  0  0  0  0  0  0  0
    7.7019   -0.1570   -0.1518 H   0  0  0  0  0  0  0  0  0  0  0  0
    8.1220   -1.4602   -0.1142 H   0  0  0  0  0  0  0  0  0  0  0  0
    9.3210   -0.5150   -2.6251 H   0  0  0  0  0  0  0  0  0  0  0  0
    6.9425   -0.9173   -3.2726 H   0  0  0  0  0  0  0  0  0  0  0  0
    6.8032   -0.4386   -1.7863 H   0  0  0  0  0  0  0  0  0  0  0  0
    5.3255   -1.8109   -0.7614 H   0  0  0  0  0  0  0  0  0  0  0  0
    6.5093   -3.0770   -0.8966 H   0  0  0  0  0  0  0  0  0  0  0  0
    4.3190   -2.3512   -3.0573 H   0  0  0  0  0  0  0  0  0  0  0  0
    4.4796   -3.9321   -2.2061 H   0  0  0  0  0  0  0  0  0  0  0  0
    6.7736   -3.8003   -2.6251 H   0  0  0  0  0  0  0  0  0  0  0  0
    6.2792   -2.4033   -3.8432 H   0  0  0  0  0  0  0  0  0  0  0  0
    6.2493   -3.7139   -5.4728 H   0  0  0  0  0  0  0  0  0  0  0  0
    6.4224   -5.1647   -4.3921 H   0  0  0  0  0  0  0  0  0  0  0  0
    8.4420   -3.8912   -3.2459 H   0  0  0  0  0  0  0  0  0  0  0  0
    8.2679   -2.5978   -4.4420 H   0  0  0  0  0  0  0  0  0  0  0  0
    8.3794   -4.1780   -6.1789 H   0  0  0  0  0  0  0  0  0  0  0  0
    8.3170   -5.5569   -5.0014 H   0  0  0  0  0  0  0  0  0  0  0  0
   10.4044   -4.7252   -3.9597 H   0  0  0  0  0  0  0  0  0  0  0  0
   10.4629   -3.4206   -5.2383 H   0  0  0  0  0  0  0  0  0  0  0  0
    9.9484   -5.1320   -6.9153 H   0  0  0  0  0  0  0  0  0  0  0  0
    9.9324   -6.4798   -5.7022 H   0  0  0  0  0  0  0  0  0  0  0  0
   12.3127   -5.9828   -5.2349 H   0  0  0  0  0  0  0  0  0  0  0  0
   11.9724   -4.5120   -6.2224 H   0  0  0  0  0  0  0  0  0  0  0  0
   12.3332   -4.4423   -8.0876 H   0  0  0  0  0  0  0  0  0  0  0  0
   14.1482   -6.6026   -8.4730 H   0  0  0  0  0  0  0  0  0  0  0  0
   14.7799   -3.1679   -6.1847 H   0  0  0  0  0  0  0  0  0  0  0  0
   14.8953   -5.3224   -3.3742 H   0  0  0  0  0  0  0  0  0  0  0  0
   15.7358   -3.9070   -4.1249 H   0  0  0  0  0  0  0  0  0  0  0  0
   15.4722   -6.9757   -6.8731 H   0  0  0  0  0  0  0  0  0  0  0  0
   16.4342   -5.7005   -7.4940 H   0  0  0  0  0  0  0  0  0  0  0  0
   12.6080   -3.4634   -2.4792 H   0  0  0  0  0  0  0  0  0  0  0  0
   10.8679   -2.5134   -1.8904 H   0  0  0  0  0  0  0  0  0  0  0  0
  1  2  1  0  0  0  0
  1 26  1  0  0  0  0
  1 27  1  0  0  0  0
  1 28  1  0  0  0  0
  2  3  1  0  0  0  0
  2 25  1  0  0  0  0
  2 29  1  0  0  0  0
  3  4  1  0  0  0  0
  3 30  1  0  0  0  0
  3 31  1  0  0  0  0
  4  5  1  0  0  0  0
  4 32  1  0  0  0  0
  4 33  1  0  0  0  0
  5  6  1  0  0  0  0
  5 34  1  0  0  0  0
  5 35  1  0  0  0  0
  6  7  1  0  0  0  0
  6 36  1  0  0  0  0
  6 37  1  0  0  0  0
  7  8  1  0  0  0  0
  7 38  1  0  0  0  0
  7 39  1  0  0  0  0
  8  9  1  0  0  0  0
  8 40  1  0  0  0  0
  8 41  1  0  0  0  0
  9 10  1  0  0  0  0
  9 42  1  0  0  0  0
  9 43  1  0  0  0  0
 10 11  1  0  0  0  0
 10 44  1  0  0  0  0
 10 45  1  0  0  0  0
 11 12  1  0  0  0  0
 11 46  1  0  0  0  0
 11 47  1  0  0  0  0
 12 13  1  0  0  0  0
 12 48  1  0  0  0  0
 12 49  1  0  0  0  0
 13 14  2  0  0  0  0
 13 15  1  0  0  0  0
 15 16  1  0  0  0  0
 15 50  1  0  0  0  0
 16 17  2  3  0  0  0
 16 51  1  0  0  0  0
 17 18  1  0  0  0  0
 17 23  1  0  0  0  0
 18 19  2  0  0  0  0
 18 52  1  0  0  0  0
 19 20  1  0  0  0  0
 19 24  1  0  0  0  0
 20 21  1  0  0  0  0
 20 53  1  0  0  0  0
 20 54  1  0  0  0  0
 21 22  2  0  0  0  0
 21 23  1  0  0  0  0
 23 55  1  0  0  0  0
 23 56  1  0  0  0  0
 24 25  2  3  0  0  0
 24 57  1  0  0  0  0
 25 58  1  0  0  0  0
M  END
$$$$
