
 OpenBabel04232216543D

203202  0  0  0  0  0  0  0  0999 V2000
   23.8962   21.0305  -18.5847 C   0  0  0  0  0  0  0  0  0  0  0  0
   23.5102   19.7042  -19.2037 C   0  0  0  0  0  0  0  0  0  0  0  0
   24.3167   19.4581  -20.4684 C   0  0  0  0  0  0  0  0  0  0  0  0
   23.9269   18.1229  -21.0875 C   0  0  0  0  0  0  0  0  0  0  0  0
   24.6886   17.9791  -22.2953 N   0  0  0  0  0  0  0  0  0  0  0  0
   24.3650   16.6746  -22.8776 N   0  0  0  0  0  0  0  0  0  0  0  0
   25.1179   16.4595  -24.0669 N   0  0  0  0  0  0  0  0  0  0  0  0
   26.5059   16.4264  -23.7757 N   0  0  0  0  0  0  0  0  0  0  0  0
   26.7652   15.3987  -22.8258 N   0  0  0  0  0  0  0  0  0  0  0  0
   26.3801   14.1439  -23.3851 N   0  0  0  0  0  0  0  0  0  0  0  0
   27.1299   13.8945  -24.5931 N   0  0  0  0  0  0  0  0  0  0  0  0
   28.5401   13.8979  -24.3237 N   0  0  0  0  0  0  0  0  0  0  0  0
   28.8491   12.8753  -23.3637 N   0  0  0  0  0  0  0  0  0  0  0  0
   28.4404   11.6072  -23.8914 N   0  0  0  0  0  0  0  0  0  0  0  0
   29.1335   11.3805  -25.1262 N   0  0  0  0  0  0  0  0  0  0  0  0
   30.5601   11.3798  -24.8782 N   0  0  0  0  0  0  0  0  0  0  0  0
   30.8634   10.3844  -23.8982 N   0  0  0  0  0  0  0  0  0  0  0  0
   30.4645    9.1014  -24.4181 N   0  0  0  0  0  0  0  0  0  0  0  0
   31.1811    8.8040  -25.6691 N   0  0  0  0  0  0  0  0  0  0  0  0
   32.5952    8.8127  -25.4642 N   0  0  0  0  0  0  0  0  0  0  0  0
   32.9180    7.8371  -24.4845 N   0  0  0  0  0  0  0  0  0  0  0  0
   32.5191    6.5150  -24.9750 N   0  0  0  0  0  0  0  0  0  0  0  0
   33.1420    6.2313  -26.2339 N   0  0  0  0  0  0  0  0  0  0  0  0
   34.5491    6.2712  -26.0400 N   0  0  0  0  0  0  0  0  0  0  0  0
   34.9128    5.2572  -25.0365 N   0  0  0  0  0  0  0  0  0  0  0  0
   34.4656    3.9699  -25.4794 N   0  0  0  0  0  0  0  0  0  0  0  0
   35.0978    3.6589  -26.7200 N   0  0  0  0  0  0  0  0  0  0  0  0
   36.5305    3.6615  -26.5624 N   0  0  0  0  0  0  0  0  0  0  0  0
   36.9106    2.7243  -25.5648 N   0  0  0  0  0  0  0  0  0  0  0  0
   36.4900    1.4130  -25.9826 N   0  0  0  0  0  0  0  0  0  0  0  0
   37.0819    1.0734  -27.2510 N   0  0  0  0  0  0  0  0  0  0  0  0
   38.5008    1.0895  -27.1382 N   0  0  0  0  0  0  0  0  0  0  0  0
   38.9311    0.1438  -26.1516 N   0  0  0  0  0  0  0  0  0  0  0  0
   38.4535   -1.1418  -26.5089 N   0  0  0  0  0  0  0  0  0  0  0  0
   39.0198   -1.4798  -27.7978 N   0  0  0  0  0  0  0  0  0  0  0  0
   40.4610   -1.4318  -27.7020 N   0  0  0  0  0  0  0  0  0  0  0  0
   40.9110   -2.4000  -26.7195 N   0  0  0  0  0  0  0  0  0  0  0  0
   40.4737   -3.7167  -27.0666 N   0  0  0  0  0  0  0  0  0  0  0  0
   41.0240   -4.0953  -28.3356 N   0  0  0  0  0  0  0  0  0  0  0  0
   42.4415   -4.0428  -28.2867 N   0  0  0  0  0  0  0  0  0  0  0  0
   42.9155   -4.9613  -27.2996 N   0  0  0  0  0  0  0  0  0  0  0  0
   42.4722   -6.2900  -27.5965 N   0  0  0  0  0  0  0  0  0  0  0  0
   42.9766   -6.6828  -28.8829 N   0  0  0  0  0  0  0  0  0  0  0  0
   44.4052   -6.6379  -28.8722 N   0  0  0  0  0  0  0  0  0  0  0  0
   44.8834   -7.5221  -27.8551 N   0  0  0  0  0  0  0  0  0  0  0  0
   44.4187   -8.8760  -28.1790 C   0  0  0  0  0  0  0  0  0  0  0  0
   44.9204   -9.3178  -29.4930 N   0  0  0  0  0  0  0  0  0  0  0  0
   46.3825   -9.2915  -29.4944 C   0  0  0  0  0  0  0  0  0  0  0  0
   46.8874   -9.7067  -30.8557 C   0  0  0  0  0  0  0  0  0  0  0  0
   48.4056   -9.7037  -30.8620 C   0  0  0  0  0  0  0  0  0  0  0  0
   48.9194  -10.1298  -32.2228 C   0  0  0  0  0  0  0  0  0  0  0  0
   50.4352  -10.1306  -32.2296 C   0  0  0  0  0  0  0  0  0  0  0  0
   50.9468  -10.5552  -33.5916 C   0  0  0  0  0  0  0  0  0  0  0  0
   52.4623  -10.5540  -33.5990 C   0  0  0  0  0  0  0  0  0  0  0  0
   52.9736  -10.9804  -34.9603 C   0  0  0  0  0  0  0  0  0  0  0  0
   54.4890  -10.9812  -34.9670 C   0  0  0  0  0  0  0  0  0  0  0  0
   55.0003  -11.4056  -36.3288 C   0  0  0  0  0  0  0  0  0  0  0  0
   56.5157  -11.4083  -36.3349 C   0  0  0  0  0  0  0  0  0  0  0  0
   57.0270  -11.8328  -37.6968 C   0  0  0  0  0  0  0  0  0  0  0  0
   58.5423  -11.8373  -37.7022 C   0  0  0  0  0  0  0  0  0  0  0  0
   59.0536  -12.2618  -39.0641 C   0  0  0  0  0  0  0  0  0  0  0  0
   60.5690  -12.2664  -39.0696 C   0  0  0  0  0  0  0  0  0  0  0  0
   61.0803  -12.6909  -40.4314 C   0  0  0  0  0  0  0  0  0  0  0  0
   62.5956  -12.6955  -40.4369 C   0  0  0  0  0  0  0  0  0  0  0  0
   63.1070  -13.1199  -41.7988 C   0  0  0  0  0  0  0  0  0  0  0  0
   64.6223  -13.1245  -41.8043 C   0  0  0  0  0  0  0  0  0  0  0  0
   65.1336  -13.5490  -43.1661 C   0  0  0  0  0  0  0  0  0  0  0  0
   66.6490  -13.5536  -43.1716 C   0  0  0  0  0  0  0  0  0  0  0  0
   67.1603  -13.9780  -44.5335 C   0  0  0  0  0  0  0  0  0  0  0  0
   68.6756  -13.9845  -44.5383 C   0  0  0  0  0  0  0  0  0  0  0  0
   69.1869  -14.4090  -45.9002 C   0  0  0  0  0  0  0  0  0  0  0  0
   70.7023  -14.4155  -45.9051 C   0  0  0  0  0  0  0  0  0  0  0  0
   71.2136  -14.8400  -47.2669 C   0  0  0  0  0  0  0  0  0  0  0  0
   72.7289  -14.8465  -47.2718 C   0  0  0  0  0  0  0  0  0  0  0  0
   73.2402  -15.2709  -48.6337 C   0  0  0  0  0  0  0  0  0  0  0  0
   74.7556  -15.2755  -48.6391 C   0  0  0  0  0  0  0  0  0  0  0  0
   75.2670  -15.7000  -50.0010 C   0  0  0  0  0  0  0  0  0  0  0  0
   76.7827  -15.7045  -50.0062 C   0  0  0  0  0  0  0  0  0  0  0  0
   77.2953  -16.1270  -51.3687 C   0  0  0  0  0  0  0  0  0  0  0  0
   78.8128  -16.1345  -51.3766 C   0  0  0  0  0  0  0  0  0  0  0  0
   79.3203  -16.5564  -52.7371 C   0  0  0  0  0  0  0  0  0  0  0  0
   23.3162   21.2060  -17.6753 H   0  0  0  0  0  0  0  0  0  0  0  0
   23.7035   21.8487  -19.2857 H   0  0  0  0  0  0  0  0  0  0  0  0
   24.9600   21.0357  -18.3274 H   0  0  0  0  0  0  0  0  0  0  0  0
   22.4404   19.7096  -19.4406 H   0  0  0  0  0  0  0  0  0  0  0  0
   23.6938   18.8985  -18.4844 H   0  0  0  0  0  0  0  0  0  0  0  0
   25.3874   19.4659  -20.2241 H   0  0  0  0  0  0  0  0  0  0  0  0
   24.1335   20.2744  -21.1808 H   0  0  0  0  0  0  0  0  0  0  0  0
   22.8630   18.1394  -21.3321 H   0  0  0  0  0  0  0  0  0  0  0  0
   24.1199   17.3184  -20.3707 H   0  0  0  0  0  0  0  0  0  0  0  0
   25.6751   17.9623  -22.0154 H   0  0  0  0  0  0  0  0  0  0  0  0
   23.3685   16.6652  -23.1213 H   0  0  0  0  0  0  0  0  0  0  0  0
   24.8865   17.1943  -24.7533 H   0  0  0  0  0  0  0  0  0  0  0  0
   26.7984   17.3029  -23.3703 H   0  0  0  0  0  0  0  0  0  0  0  0
   26.1967   15.5344  -21.9999 H   0  0  0  0  0  0  0  0  0  0  0  0
   25.3923   14.1771  -23.6232 H   0  0  0  0  0  0  0  0  0  0  0  0
   26.8952   14.6593  -25.2436 H   0  0  0  0  0  0  0  0  0  0  0  0
   28.7807   14.8342  -23.9532 H   0  0  0  0  0  0  0  0  0  0  0  0
   28.3078   13.0487  -22.5175 H   0  0  0  0  0  0  0  0  0  0  0  0
   27.4431   11.6501  -24.0959 H   0  0  0  0  0  0  0  0  0  0  0  0
   28.8728   12.1317  -25.7793 H   0  0  0  0  0  0  0  0  0  0  0  0
   30.8332   12.2837  -24.4919 H   0  0  0  0  0  0  0  0  0  0  0  0
   30.3658   10.5981  -23.0189 H   0  0  0  0  0  0  0  0  0  0  0  0
   29.4549    9.0679  -24.5966 H   0  0  0  0  0  0  0  0  0  0  0  0
   30.9595    9.5238  -26.3573 H   0  0  0  0  0  0  0  0  0  0  0  0
   32.8868    9.7228  -25.1143 H   0  0  0  0  0  0  0  0  0  0  0  0
   32.4445    8.0698  -23.6007 H   0  0  0  0  0  0  0  0  0  0  0  0
   31.5036    6.5196  -25.1253 H   0  0  0  0  0  0  0  0  0  0  0  0
   32.8832    6.9575  -26.9055 H   0  0  0  0  0  0  0  0  0  0  0  0
   34.7986    7.2153  -25.7205 H   0  0  0  0  0  0  0  0  0  0  0  0
   34.4234    5.5083  -24.1602 H   0  0  0  0  0  0  0  0  0  0  0  0
   33.4571    3.9495  -25.6257 H   0  0  0  0  0  0  0  0  0  0  0  0
   34.8606    4.3352  -27.4359 H   0  0  0  0  0  0  0  0  0  0  0  0
   36.8358    4.5773  -26.2563 H   0  0  0  0  0  0  0  0  0  0  0  0
   36.4487    2.9501  -24.6877 H   0  0  0  0  0  0  0  0  0  0  0  0
   35.4609    1.4359  -26.0699 H   0  0  0  0  0  0  0  0  0  0  0  0
   36.8167    1.7658  -27.9506 H   0  0  0  0  0  0  0  0  0  0  0  0
   38.8089    2.0163  -26.8469 H   0  0  0  0  0  0  0  0  0  0  0  0
   38.5059    0.4175  -25.2595 H   0  0  0  0  0  0  0  0  0  0  0  0
   37.4315   -1.1019  -26.5653 H   0  0  0  0  0  0  0  0  0  0  0  0
   38.7013   -0.7594  -28.4646 H   0  0  0  0  0  0  0  0  0  0  0  0
   40.7658   -0.4820  -27.4294 H   0  0  0  0  0  0  0  0  0  0  0  0
   40.5413   -2.1617  -25.7858 H   0  0  0  0  0  0  0  0  0  0  0  0
   39.4634   -3.7844  -27.1298 H   0  0  0  0  0  0  0  0  0  0  0  0
   40.7106   -3.4395  -29.0422 H   0  0  0  0  0  0  0  0  0  0  0  0
   42.7450   -3.1087  -28.0299 H   0  0  0  0  0  0  0  0  0  0  0  0
   42.5328   -4.6934  -26.3915 H   0  0  0  0  0  0  0  0  0  0  0  0
   41.4578   -6.3031  -27.6327 H   0  0  0  0  0  0  0  0  0  0  0  0
   42.6417   -6.0148  -29.5666 H   0  0  0  0  0  0  0  0  0  0  0  0
   44.6686   -5.6765  -28.6332 H   0  0  0  0  0  0  0  0  0  0  0  0
   44.4916   -7.2208  -26.9569 H   0  0  0  0  0  0  0  0  0  0  0  0
   43.3200   -8.9254  -28.1834 H   0  0  0  0  0  0  0  0  0  0  0  0
   44.7475   -9.5783  -27.4089 H   0  0  0  0  0  0  0  0  0  0  0  0
   44.5699   -8.6212  -30.1572 H   0  0  0  0  0  0  0  0  0  0  0  0
   46.7550   -9.9758  -28.7269 H   0  0  0  0  0  0  0  0  0  0  0  0
   46.7612   -8.2845  -29.2669 H   0  0  0  0  0  0  0  0  0  0  0  0
   46.5169   -9.0169  -31.6234 H   0  0  0  0  0  0  0  0  0  0  0  0
   46.5204  -10.7107  -31.0934 H   0  0  0  0  0  0  0  0  0  0  0  0
   48.7821  -10.3902  -30.0940 H   0  0  0  0  0  0  0  0  0  0  0  0
   48.7781   -8.6996  -30.6250 H   0  0  0  0  0  0  0  0  0  0  0  0
   48.5467   -9.4422  -32.9910 H   0  0  0  0  0  0  0  0  0  0  0  0
   48.5482  -11.1336  -32.4607 H   0  0  0  0  0  0  0  0  0  0  0  0
   50.8089  -10.8195  -31.4629 H   0  0  0  0  0  0  0  0  0  0  0  0
   50.8074   -9.1274  -31.9909 H   0  0  0  0  0  0  0  0  0  0  0  0
   50.5725   -9.8672  -34.3589 H   0  0  0  0  0  0  0  0  0  0  0  0
   50.5762  -11.5591  -33.8300 H   0  0  0  0  0  0  0  0  0  0  0  0
   52.8369  -11.2409  -32.8309 H   0  0  0  0  0  0  0  0  0  0  0  0
   52.8330   -9.5498  -33.3621 H   0  0  0  0  0  0  0  0  0  0  0  0
   52.6002  -10.2927  -35.7282 H   0  0  0  0  0  0  0  0  0  0  0  0
   52.6018  -11.9841  -35.1979 H   0  0  0  0  0  0  0  0  0  0  0  0
   54.8623  -11.6700  -34.2000 H   0  0  0  0  0  0  0  0  0  0  0  0
   54.8609   -9.9778  -34.7280 H   0  0  0  0  0  0  0  0  0  0  0  0
   54.6281  -10.7160  -37.0956 H   0  0  0  0  0  0  0  0  0  0  0  0
   54.6273  -12.4084  -36.5684 H   0  0  0  0  0  0  0  0  0  0  0  0
   56.8878  -12.0980  -35.5681 H   0  0  0  0  0  0  0  0  0  0  0  0
   56.8887  -10.4056  -36.0953 H   0  0  0  0  0  0  0  0  0  0  0  0
   56.6559  -11.1423  -38.4633 H   0  0  0  0  0  0  0  0  0  0  0  0
   56.6528  -12.8349  -37.9370 H   0  0  0  0  0  0  0  0  0  0  0  0
   58.9133  -12.5278  -36.9357 H   0  0  0  0  0  0  0  0  0  0  0  0
   58.9166  -10.8352  -37.4620 H   0  0  0  0  0  0  0  0  0  0  0  0
   58.6826  -11.5713  -39.8307 H   0  0  0  0  0  0  0  0  0  0  0  0
   58.6794  -13.2640  -39.3043 H   0  0  0  0  0  0  0  0  0  0  0  0
   60.9400  -12.9569  -38.3030 H   0  0  0  0  0  0  0  0  0  0  0  0
   60.9432  -11.2643  -38.8293 H   0  0  0  0  0  0  0  0  0  0  0  0
   60.7093  -12.0004  -41.1980 H   0  0  0  0  0  0  0  0  0  0  0  0
   60.7061  -13.6930  -40.6717 H   0  0  0  0  0  0  0  0  0  0  0  0
   62.9666  -13.3859  -39.6703 H   0  0  0  0  0  0  0  0  0  0  0  0
   62.9699  -11.6933  -40.1967 H   0  0  0  0  0  0  0  0  0  0  0  0
   62.7360  -12.4294  -42.5654 H   0  0  0  0  0  0  0  0  0  0  0  0
   62.7327  -14.1221  -42.0390 H   0  0  0  0  0  0  0  0  0  0  0  0
   64.9933  -13.8150  -41.0377 H   0  0  0  0  0  0  0  0  0  0  0  0
   64.9965  -12.1224  -41.5640 H   0  0  0  0  0  0  0  0  0  0  0  0
   64.7626  -12.8585  -43.9327 H   0  0  0  0  0  0  0  0  0  0  0  0
   64.7594  -14.5511  -43.4064 H   0  0  0  0  0  0  0  0  0  0  0  0
   67.0199  -14.2441  -42.4050 H   0  0  0  0  0  0  0  0  0  0  0  0
   67.0232  -12.5514  -42.9314 H   0  0  0  0  0  0  0  0  0  0  0  0
   66.7904  -13.2867  -45.2998 H   0  0  0  0  0  0  0  0  0  0  0  0
   66.7849  -14.9796  -44.7743 H   0  0  0  0  0  0  0  0  0  0  0  0
   69.0454  -14.6759  -43.7720 H   0  0  0  0  0  0  0  0  0  0  0  0
   69.0510  -12.9830  -44.2975 H   0  0  0  0  0  0  0  0  0  0  0  0
   68.8171  -13.7177  -46.6666 H   0  0  0  0  0  0  0  0  0  0  0  0
   68.8115  -15.4105  -46.1411 H   0  0  0  0  0  0  0  0  0  0  0  0
   71.0721  -15.1068  -45.1387 H   0  0  0  0  0  0  0  0  0  0  0  0
   71.0777  -13.4140  -45.6642 H   0  0  0  0  0  0  0  0  0  0  0  0
   70.8438  -14.1486  -48.0333 H   0  0  0  0  0  0  0  0  0  0  0  0
   70.8382  -15.8415  -47.5078 H   0  0  0  0  0  0  0  0  0  0  0  0
   73.0988  -15.5378  -46.5054 H   0  0  0  0  0  0  0  0  0  0  0  0
   73.1043  -13.8449  -47.0310 H   0  0  0  0  0  0  0  0  0  0  0  0
   72.8693  -14.5804  -49.4003 H   0  0  0  0  0  0  0  0  0  0  0  0
   72.8660  -16.2731  -48.8739 H   0  0  0  0  0  0  0  0  0  0  0  0
   75.1266  -15.9660  -47.8726 H   0  0  0  0  0  0  0  0  0  0  0  0
   75.1298  -14.2734  -48.3989 H   0  0  0  0  0  0  0  0  0  0  0  0
   74.8959  -15.0095  -50.7676 H   0  0  0  0  0  0  0  0  0  0  0  0
   74.8927  -16.7021  -50.2413 H   0  0  0  0  0  0  0  0  0  0  0  0
   77.1533  -16.3962  -49.2406 H   0  0  0  0  0  0  0  0  0  0  0  0
   77.1566  -14.7026  -49.7647 H   0  0  0  0  0  0  0  0  0  0  0  0
   76.9240  -15.4348  -52.1338 H   0  0  0  0  0  0  0  0  0  0  0  0
   76.9184  -17.1280  -51.6108 H   0  0  0  0  0  0  0  0  0  0  0  0
   79.1843  -16.8279  -50.6140 H   0  0  0  0  0  0  0  0  0  0  0  0
   79.1899  -15.1341  -51.1372 H   0  0  0  0  0  0  0  0  0  0  0  0
   78.9613  -17.5609  -52.9820 H   0  0  0  0  0  0  0  0  0  0  0  0
   80.4124  -16.5626  -52.7456 H   0  0  0  0  0  0  0  0  0  0  0  0
   78.9669  -15.8628  -53.5066 H   0  0  0  0  0  0  0  0  0  0  0  0
  1  2  1  0  0  0  0
  1 82  1  0  0  0  0
  1 83  1  0  0  0  0
  1 84  1  0  0  0  0
  2  3  1  0  0  0  0
  2 85  1  0  0  0  0
  2 86  1  0  0  0  0
  3  4  1  0  0  0  0
  3 87  1  0  0  0  0
  3 88  1  0  0  0  0
  4  5  1  0  0  0  0
  4 89  1  0  0  0  0
  4 90  1  0  0  0  0
  5  6  1  0  0  0  0
  5 91  1  0  0  0  0
  6  7  1  0  0  0  0
  6 92  1  0  0  0  0
  7  8  1  0  0  0  0
  7 93  1  0  0  0  0
  8  9  1  0  0  0  0
  8 94  1  0  0  0  0
  9 10  1  0  0  0  0
  9 95  1  0  0  0  0
 10 11  1  0  0  0  0
 10 96  1  0  0  0  0
 11 12  1  0  0  0  0
 11 97  1  0  0  0  0
 12 13  1  0  0  0  0
 12 98  1  0  0  0  0
 13 14  1  0  0  0  0
 13 99  1  0  0  0  0
 14 15  1  0  0  0  0
 14100  1  0  0  0  0
 15 16  1  0  0  0  0
 15101  1  0  0  0  0
 16 17  1  0  0  0  0
 16102  1  0  0  0  0
 17 18  1  0  0  0  0
 17103  1  0  0  0  0
 18 19  1  0  0  0  0
 18104  1  0  0  0  0
 19 20  1  0  0  0  0
 19105  1  0  0  0  0
 20 21  1  0  0  0  0
 20106  1  0  0  0  0
 21 22  1  0  0  0  0
 21107  1  0  0  0  0
 22 23  1  0  0  0  0
 22108  1  0  0  0  0
 23 24  1  0  0  0  0
 23109  1  0  0  0  0
 24 25  1  0  0  0  0
 24110  1  0  0  0  0
 25 26  1  0  0  0  0
 25111  1  0  0  0  0
 26 27  1  0  0  0  0
 26112  1  0  0  0  0
 27 28  1  0  0  0  0
 27113  1  0  0  0  0
 28 29  1  0  0  0  0
 28114  1  0  0  0  0
 29 30  1  0  0  0  0
 29115  1  0  0  0  0
 30 31  1  0  0  0  0
 30116  1  0  0  0  0
 31 32  1  0  0  0  0
 31117  1  0  0  0  0
 32 33  1  0  0  0  0
 32118  1  0  0  0  0
 33 34  1  0  0  0  0
 33119  1  0  0  0  0
 34 35  1  0  0  0  0
 34120  1  0  0  0  0
 35 36  1  0  0  0  0
 35121  1  0  0  0  0
 36 37  1  0  0  0  0
 36122  1  0  0  0  0
 37 38  1  0  0  0  0
 37123  1  0  0  0  0
 38 39  1  0  0  0  0
 38124  1  0  0  0  0
 39 40  1  0  0  0  0
 39125  1  0  0  0  0
 40 41  1  0  0  0  0
 40126  1  0  0  0  0
 41 42  1  0  0  0  0
 41127  1  0  0  0  0
 42 43  1  0  0  0  0
 42128  1  0  0  0  0
 43 44  1  0  0  0  0
 43129  1  0  0  0  0
 44 45  1  0  0  0  0
 44130  1  0  0  0  0
 45 46  1  0  0  0  0
 45131  1  0  0  0  0
 46 47  1  0  0  0  0
 46132  1  0  0  0  0
 46133  1  0  0  0  0
 47 48  1  0  0  0  0
 47134  1  0  0  0  0
 48 49  1  0  0  0  0
 48135  1  0  0  0  0
 48136  1  0  0  0  0
 49 50  1  0  0  0  0
 49137  1  0  0  0  0
 49138  1  0  0  0  0
 50 51  1  0  0  0  0
 50139  1  0  0  0  0
 50140  1  0  0  0  0
 51 52  1  0  0  0  0
 51141  1  0  0  0  0
 51142  1  0  0  0  0
 52 53  1  0  0  0  0
 52143  1  0  0  0  0
 52144  1  0  0  0  0
 53 54  1  0  0  0  0
 53145  1  0  0  0  0
 53146  1  0  0  0  0
 54 55  1  0  0  0  0
 54147  1  0  0  0  0
 54148  1  0  0  0  0
 55 56  1  0  0  0  0
 55149  1  0  0  0  0
 55150  1  0  0  0  0
 56 57  1  0  0  0  0
 56151  1  0  0  0  0
 56152  1  0  0  0  0
 57 58  1  0  0  0  0
 57153  1  0  0  0  0
 57154  1  0  0  0  0
 58 59  1  0  0  0  0
 58155  1  0  0  0  0
 58156  1  0  0  0  0
 59 60  1  0  0  0  0
 59157  1  0  0  0  0
 59158  1  0  0  0  0
 60 61  1  0  0  0  0
 60159  1  0  0  0  0
 60160  1  0  0  0  0
 61 62  1  0  0  0  0
 61161  1  0  0  0  0
 61162  1  0  0  0  0
 62 63  1  0  0  0  0
 62163  1  0  0  0  0
 62164  1  0  0  0  0
 63 64  1  0  0  0  0
 63165  1  0  0  0  0
 63166  1  0  0  0  0
 64 65  1  0  0  0  0
 64167  1  0  0  0  0
 64168  1  0  0  0  0
 65 66  1  0  0  0  0
 65169  1  0  0  0  0
 65170  1  0  0  0  0
 66 67  1  0  0  0  0
 66171  1  0  0  0  0
 66172  1  0  0  0  0
 67 68  1  0  0  0  0
 67173  1  0  0  0  0
 67174  1  0  0  0  0
 68 69  1  0  0  0  0
 68175  1  0  0  0  0
 68176  1  0  0  0  0
 69 70  1  0  0  0  0
 69177  1  0  0  0  0
 69178  1  0  0  0  0
 70 71  1  0  0  0  0
 70179  1  0  0  0  0
 70180  1  0  0  0  0
 71 72  1  0  0  0  0
 71181  1  0  0  0  0
 71182  1  0  0  0  0
 72 73  1  0  0  0  0
 72183  1  0  0  0  0
 72184  1  0  0  0  0
 73 74  1  0  0  0  0
 73185  1  0  0  0  0
 73186  1  0  0  0  0
 74 75  1  0  0  0  0
 74187  1  0  0  0  0
 74188  1  0  0  0  0
 75 76  1  0  0  0  0
 75189  1  0  0  0  0
 75190  1  0  0  0  0
 76 77  1  0  0  0  0
 76191  1  0  0  0  0
 76192  1  0  0  0  0
 77 78  1  0  0  0  0
 77193  1  0  0  0  0
 77194  1  0  0  0  0
 78 79  1  0  0  0  0
 78195  1  0  0  0  0
 78196  1  0  0  0  0
 79 80  1  0  0  0  0
 79197  1  0  0  0  0
 79198  1  0  0  0  0
 80 81  1  0  0  0  0
 80199  1  0  0  0  0
 80200  1  0  0  0  0
 81201  1  0  0  0  0
 81202  1  0  0  0  0
 81203  1  0  0  0  0
M  END
$$$$
