
 OpenBabel04232216453D

 70 71  0  0  0  0  0  0  0  0999 V2000
    5.4894   -0.9551   -2.2304 C   0  0  0  0  0  0  0  0  0  0  0  0
    6.5357    0.2307   -2.2963 C   0  0  0  0  0  0  0  0  0  0  0  0
    5.6568    1.3308   -1.9137 C   0  0  0  0  0  0  0  0  0  0  0  0
    5.2307    1.5474   -0.6371 C   0  0  0  0  0  0  0  0  0  0  0  0
    5.4693    0.6938    0.6039 C   0  0  0  0  0  0  0  0  0  0  0  0
    5.1239    2.9985   -0.2902 C   0  0  0  0  0  0  0  0  0  0  0  0
    6.6019    3.2402   -0.1472 C   0  0  0  0  0  0  0  0  0  0  0  0
    7.0543    4.1803   -1.2059 C   0  0  0  0  0  0  0  0  0  0  0  0
    8.5318    4.1997   -1.0040 C   0  0  0  0  0  0  0  0  0  0  0  0
    9.0292    5.0043   -2.1251 C   0  0  0  0  0  0  0  0  0  0  0  0
   10.4708    5.0771   -1.7855 C   0  0  0  0  0  0  0  0  0  0  0  0
   11.1141    4.9873   -3.1130 C   0  0  0  0  0  0  0  0  0  0  0  0
   10.9756    5.8464   -4.0009 O   0  0  0  0  0  0  0  0  0  0  0  0
   12.0304    3.8584   -3.2173 C   0  0  0  0  0  0  0  0  0  0  0  0
   11.4508    2.6677   -3.6254 C   0  0  0  0  0  0  0  0  0  0  0  0
   10.4702    1.5886   -2.8546 C   0  0  0  0  0  0  0  0  0  0  0  0
   11.5433    0.5777   -2.2939 C   0  0  0  0  0  0  0  0  0  0  0  0
   12.2576    0.7920   -0.9115 C   0  0  0  0  0  0  0  0  0  0  0  0
   13.3742    1.8638   -0.6485 C   0  0  0  0  0  0  0  0  0  0  0  0
   13.1497    2.5242    0.7414 C   0  0  0  0  0  0  0  0  0  0  0  0
   14.1975    3.5323    1.2820 C   0  0  0  0  0  0  0  0  0  0  0  0
   13.6720    4.9725    1.5007 C   0  0  0  0  0  0  0  0  0  0  0  0
   14.0995    5.9294    0.3630 C   0  0  0  0  0  0  0  0  0  0  0  0
   13.2661    5.6014   -0.8708 C   0  0  0  0  0  0  0  0  0  0  0  0
   13.7374    5.8041   -2.3186 C   0  0  0  0  0  0  0  0  0  0  0  0
   13.4279    4.5670   -3.3466 C   0  0  0  0  0  0  0  0  0  0  0  0
    9.0516    1.4194   -2.9057 C   0  0  0  0  0  0  0  0  0  0  0  0
    7.9167    0.2566   -2.5484 C   0  0  0  0  0  0  0  0  0  0  0  0
    4.5248   -0.6479   -2.6978 H   0  0  0  0  0  0  0  0  0  0  0  0
    5.1783   -1.1944   -1.2007 H   0  0  0  0  0  0  0  0  0  0  0  0
    5.7650   -1.8860   -2.7182 H   0  0  0  0  0  0  0  0  0  0  0  0
    5.3646    2.0224   -2.7059 H   0  0  0  0  0  0  0  0  0  0  0  0
    4.5226    0.3906    1.0588 H   0  0  0  0  0  0  0  0  0  0  0  0
    6.0151    1.2572    1.3729 H   0  0  0  0  0  0  0  0  0  0  0  0
    6.0793   -0.1877    0.4094 H   0  0  0  0  0  0  0  0  0  0  0  0
    4.6292    3.2286    0.6507 H   0  0  0  0  0  0  0  0  0  0  0  0
    4.6663    3.5949   -1.0891 H   0  0  0  0  0  0  0  0  0  0  0  0
    7.2388    2.3399   -0.3118 H   0  0  0  0  0  0  0  0  0  0  0  0
    6.9120    3.5510    0.8522 H   0  0  0  0  0  0  0  0  0  0  0  0
    6.6291    5.1959   -1.0713 H   0  0  0  0  0  0  0  0  0  0  0  0
    6.8076    3.8485   -2.2234 H   0  0  0  0  0  0  0  0  0  0  0  0
    8.9616    3.1925   -1.0514 H   0  0  0  0  0  0  0  0  0  0  0  0
    8.7907    4.6103   -0.0261 H   0  0  0  0  0  0  0  0  0  0  0  0
    8.6124    6.0071   -2.1836 H   0  0  0  0  0  0  0  0  0  0  0  0
    8.8555    4.4978   -3.0838 H   0  0  0  0  0  0  0  0  0  0  0  0
   10.8322    4.2465   -1.1365 H   0  0  0  0  0  0  0  0  0  0  0  0
   10.6533    5.9986   -1.2524 H   0  0  0  0  0  0  0  0  0  0  0  0
   12.1089    2.0689   -4.2641 H   0  0  0  0  0  0  0  0  0  0  0  0
   12.3576    0.4714   -3.0291 H   0  0  0  0  0  0  0  0  0  0  0  0
   11.0925   -0.4220   -2.2798 H   0  0  0  0  0  0  0  0  0  0  0  0
   12.7723   -0.1616   -0.7145 H   0  0  0  0  0  0  0  0  0  0  0  0
   11.4820    0.8778   -0.1489 H   0  0  0  0  0  0  0  0  0  0  0  0
   13.4381    2.6053   -1.4375 H   0  0  0  0  0  0  0  0  0  0  0  0
   14.3600    1.3732   -0.6340 H   0  0  0  0  0  0  0  0  0  0  0  0
   13.1093    1.7056    1.4705 H   0  0  0  0  0  0  0  0  0  0  0  0
   12.1572    2.9850    0.7382 H   0  0  0  0  0  0  0  0  0  0  0  0
   15.1166    3.5418    0.6874 H   0  0  0  0  0  0  0  0  0  0  0  0
   14.4894    3.1748    2.2802 H   0  0  0  0  0  0  0  0  0  0  0  0
   14.0604    5.3631    2.4512 H   0  0  0  0  0  0  0  0  0  0  0  0
   12.5775    4.9757    1.6134 H   0  0  0  0  0  0  0  0  0  0  0  0
   15.1755    5.8761    0.1901 H   0  0  0  0  0  0  0  0  0  0  0  0
   13.8749    6.9577    0.6912 H   0  0  0  0  0  0  0  0  0  0  0  0
   12.4073    6.2541   -0.7207 H   0  0  0  0  0  0  0  0  0  0  0  0
   12.9294    4.5782   -0.7889 H   0  0  0  0  0  0  0  0  0  0  0  0
   14.7997    6.0736   -2.3499 H   0  0  0  0  0  0  0  0  0  0  0  0
   13.2098    6.6955   -2.6988 H   0  0  0  0  0  0  0  0  0  0  0  0
   14.2340    3.8432   -3.2079 H   0  0  0  0  0  0  0  0  0  0  0  0
   13.5400    4.9905   -4.3521 H   0  0  0  0  0  0  0  0  0  0  0  0
    8.4979    2.2023   -3.4280 H   0  0  0  0  0  0  0  0  0  0  0  0
    8.3665   -0.7398   -2.6548 H   0  0  0  0  0  0  0  0  0  0  0  0
  1  2  1  0  0  0  0
  1 29  1  0  0  0  0
  1 30  1  0  0  0  0
  1 31  1  0  0  0  0
  2  3  1  0  0  0  0
  2 28  2  3  0  0  0
  3  4  2  3  0  0  0
  3 32  1  0  0  0  0
  4  5  1  0  0  0  0
  4  6  1  0  0  0  0
  5 33  1  0  0  0  0
  5 34  1  0  0  0  0
  5 35  1  0  0  0  0
  6  7  1  0  0  0  0
  6 36  1  0  0  0  0
  6 37  1  0  0  0  0
  7  8  1  0  0  0  0
  7 38  1  0  0  0  0
  7 39  1  0  0  0  0
  8  9  1  0  0  0  0
  8 40  1  0  0  0  0
  8 41  1  0  0  0  0
  9 10  1  0  0  0  0
  9 42  1  0  0  0  0
  9 43  1  0  0  0  0
 10 11  1  0  0  0  0
 10 44  1  0  0  0  0
 10 45  1  0  0  0  0
 11 12  1  0  0  0  0
 11 46  1  0  0  0  0
 11 47  1  0  0  0  0
 12 13  2  0  0  0  0
 12 14  1  0  0  0  0
 14 15  2  3  0  0  0
 14 26  1  0  0  0  0
 15 16  1  0  0  0  0
 15 48  1  0  0  0  0
 16 17  1  0  0  0  0
 16 27  2  3  0  0  0
 17 18  1  0  0  0  0
 17 49  1  0  0  0  0
 17 50  1  0  0  0  0
 18 19  1  0  0  0  0
 18 51  1  0  0  0  0
 18 52  1  0  0  0  0
 19 20  1  0  0  0  0
 19 53  1  0  0  0  0
 19 54  1  0  0  0  0
 20 21  1  0  0  0  0
 20 55  1  0  0  0  0
 20 56  1  0  0  0  0
 21 22  1  0  0  0  0
 21 57  1  0  0  0  0
 21 58  1  0  0  0  0
 22 23  1  0  0  0  0
 22 59  1  0  0  0  0
 22 60  1  0  0  0  0
 23 24  1  0  0  0  0
 23 61  1  0  0  0  0
 23 62  1  0  0  0  0
 24 25  1  0  0  0  0
 24 63  1  0  0  0  0
 24 64  1  0  0  0  0
 25 26  1  0  0  0  0
 25 65  1  0  0  0  0
 25 66  1  0  0  0  0
 26 67  1  0  0  0  0
 26 68  1  0  0  0  0
 27 28  1  0  0  0  0
 27 69  1  0  0  0  0
 28 70  1  0  0  0  0
M  END
$$$$
