
 OpenBabel04232216573D

105104  0  0  0  0  0  0  0  0999 V2000
   17.6061    1.1005   19.2263 C   0  0  0  0  0  0  0  0  0  0  0  0
   17.2696    2.1236   18.2825 N   0  0  0  0  0  0  0  0  0  0  0  0
   15.8191    2.2550   18.1300 C   0  0  0  0  0  0  0  0  0  0  0  0
   15.3888    3.2102   16.9870 C   0  0  0  0  0  0  0  0  0  0  0  0
   15.7300    2.8079   15.6235 N   0  0  0  0  0  0  0  0  0  0  0  0
   15.2007    1.5337   15.2983 N   0  0  0  0  0  0  0  0  0  0  0  0
   15.7356    1.1070   14.0664 N   0  0  0  0  0  0  0  0  0  0  0  0
   17.1324    0.9452   14.1022 N   0  0  0  0  0  0  0  0  0  0  0  0
   17.4912    0.0320   15.1358 N   0  0  0  0  0  0  0  0  0  0  0  0
   16.8620   -1.2358   14.8324 N   0  0  0  0  0  0  0  0  0  0  0  0
   17.3086   -1.6891   13.5380 N   0  0  0  0  0  0  0  0  0  0  0  0
   18.7459   -1.8356   13.5241 N   0  0  0  0  0  0  0  0  0  0  0  0
   19.1609   -2.8231   14.5251 N   0  0  0  0  0  0  0  0  0  0  0  0
   18.5997   -4.1135   14.2664 N   0  0  0  0  0  0  0  0  0  0  0  0
   18.9967   -4.5830   13.0063 N   0  0  0  0  0  0  0  0  0  0  0  0
   20.4109   -4.7051   12.9224 N   0  0  0  0  0  0  0  0  0  0  0  0
   20.9289   -5.6547   13.8847 N   0  0  0  0  0  0  0  0  0  0  0  0
   20.3448   -6.9568   13.7139 N   0  0  0  0  0  0  0  0  0  0  0  0
   20.6756   -7.5366   12.4461 N   0  0  0  0  0  0  0  0  0  0  0  0
   20.1340   -9.0880   12.3638 S   0  0  0  0  0  0  0  0  0  0  0  0
   20.7907   -9.5903   10.4827 S   0  0  0  0  0  0  0  0  0  0  0  0
   22.8542   -9.5712   10.5473 S   0  0  0  0  0  0  0  0  0  0  0  0
   23.4884  -11.0590   11.8375 S   0  0  0  0  0  0  0  0  0  0  0  0
   25.5717  -10.9563   11.8600 S   0  0  0  0  0  0  0  0  0  0  0  0
   26.2579  -12.2812   13.3210 S   0  0  0  0  0  0  0  0  0  0  0  0
   28.3552  -12.2660   13.2863 S   0  0  0  0  0  0  0  0  0  0  0  0
   29.0423  -13.6037   14.7558 S   0  0  0  0  0  0  0  0  0  0  0  0
   31.1472  -13.5923   14.7438 S   0  0  0  0  0  0  0  0  0  0  0  0
   31.8352  -14.9364   16.2143 S   0  0  0  0  0  0  0  0  0  0  0  0
   33.9435  -14.9273   16.2045 S   0  0  0  0  0  0  0  0  0  0  0  0
   34.6339  -16.2714   17.6756 S   0  0  0  0  0  0  0  0  0  0  0  0
   36.7432  -16.2621   17.6653 S   0  0  0  0  0  0  0  0  0  0  0  0
   37.4330  -17.6067   19.1363 S   0  0  0  0  0  0  0  0  0  0  0  0
   39.5416  -17.5978   19.1293 S   0  0  0  0  0  0  0  0  0  0  0  0
   40.2276  -18.9439   20.6006 S   0  0  0  0  0  0  0  0  0  0  0  0
   42.3358  -18.9397   20.5899 S   0  0  0  0  0  0  0  0  0  0  0  0
   43.0242  -20.2809   22.0640 S   0  0  0  0  0  0  0  0  0  0  0  0
   45.1329  -20.2707   22.0527 S   0  0  0  0  0  0  0  0  0  0  0  0
   45.8253  -21.6146   23.5231 S   0  0  0  0  0  0  0  0  0  0  0  0
   47.9348  -21.6038   23.5114 S   0  0  0  0  0  0  0  0  0  0  0  0
   48.6289  -22.9477   24.9825 S   0  0  0  0  0  0  0  0  0  0  0  0
   50.7393  -22.9380   24.9717 S   0  0  0  0  0  0  0  0  0  0  0  0
   51.4322  -24.2827   26.4435 S   0  0  0  0  0  0  0  0  0  0  0  0
   53.5426  -24.2747   26.4347 S   0  0  0  0  0  0  0  0  0  0  0  0
   54.2335  -25.6198   27.9068 S   0  0  0  0  0  0  0  0  0  0  0  0
   56.3434  -25.6115   27.8979 S   0  0  0  0  0  0  0  0  0  0  0  0
   57.0342  -26.9562   29.3695 S   0  0  0  0  0  0  0  0  0  0  0  0
   59.1438  -26.9473   29.3598 S   0  0  0  0  0  0  0  0  0  0  0  0
   59.8345  -28.2918   30.8313 S   0  0  0  0  0  0  0  0  0  0  0  0
   61.9438  -28.2827   30.8214 S   0  0  0  0  0  0  0  0  0  0  0  0
   62.6344  -29.6271   32.2927 S   0  0  0  0  0  0  0  0  0  0  0  0
   64.7438  -29.6180   32.2828 S   0  0  0  0  0  0  0  0  0  0  0  0
   65.4340  -30.9625   33.7542 S   0  0  0  0  0  0  0  0  0  0  0  0
   67.5432  -30.9542   33.7452 S   0  0  0  0  0  0  0  0  0  0  0  0
   68.2319  -32.2991   35.2171 S   0  0  0  0  0  0  0  0  0  0  0  0
   70.3411  -32.2915   35.2088 S   0  0  0  0  0  0  0  0  0  0  0  0
   71.0307  -33.6362   36.6805 S   0  0  0  0  0  0  0  0  0  0  0  0
   73.1402  -33.6268   36.6702 S   0  0  0  0  0  0  0  0  0  0  0  0
   73.8326  -34.9707   38.1411 S   0  0  0  0  0  0  0  0  0  0  0  0
   75.9421  -34.9605   38.1298 S   0  0  0  0  0  0  0  0  0  0  0  0
   76.6340  -36.3046   39.6010 S   0  0  0  0  0  0  0  0  0  0  0  0
   78.7434  -36.2955   39.5909 S   0  0  0  0  0  0  0  0  0  0  0  0
   79.4341  -37.6400   41.0624 S   0  0  0  0  0  0  0  0  0  0  0  0
   81.5434  -37.6311   41.0528 S   0  0  0  0  0  0  0  0  0  0  0  0
   82.2340  -38.9756   42.5242 S   0  0  0  0  0  0  0  0  0  0  0  0
   84.3433  -38.9666   42.5144 S   0  0  0  0  0  0  0  0  0  0  0  0
   85.0337  -40.3110   43.9857 S   0  0  0  0  0  0  0  0  0  0  0  0
   87.1427  -40.3019   43.9757 S   0  0  0  0  0  0  0  0  0  0  0  0
   87.8326  -41.6460   45.4468 S   0  0  0  0  0  0  0  0  0  0  0  0
   89.9408  -41.6365   45.4364 S   0  0  0  0  0  0  0  0  0  0  0  0
   90.6293  -42.9800   46.9068 S   0  0  0  0  0  0  0  0  0  0  0  0
   92.7353  -42.9692   46.8952 S   0  0  0  0  0  0  0  0  0  0  0  0
   93.4200  -44.3115   48.3638 S   0  0  0  0  0  0  0  0  0  0  0  0
   95.5210  -44.2977   48.3493 S   0  0  0  0  0  0  0  0  0  0  0  0
   96.1972  -45.6349   49.8167 S   0  0  0  0  0  0  0  0  0  0  0  0
   98.2882  -45.6231   49.7873 S   0  0  0  0  0  0  0  0  0  0  0  0
   98.9529  -46.9479   51.2548 S   0  0  0  0  0  0  0  0  0  0  0  0
  101.0273  -46.8585   51.2588 S   0  0  0  0  0  0  0  0  0  0  0  0
  101.6962  -48.3143   52.5683 S   0  0  0  0  0  0  0  0  0  0  0  0
  103.7542  -48.1471   52.6072 S   0  0  0  0  0  0  0  0  0  0  0  0
  104.3928  -48.9356   50.8197 S   0  0  0  0  0  0  0  0  0  0  0  0
   18.6990    0.9733   19.2683 H   0  0  0  0  0  0  0  0  0  0  0  0
   17.1639    0.1270   18.9880 H   0  0  0  0  0  0  0  0  0  0  0  0
   17.2739    1.4170   20.2315 H   0  0  0  0  0  0  0  0  0  0  0  0
   17.7640    1.8961   17.4157 H   0  0  0  0  0  0  0  0  0  0  0  0
   15.4033    2.6419   19.0655 H   0  0  0  0  0  0  0  0  0  0  0  0
   15.3568    1.2743   17.9465 H   0  0  0  0  0  0  0  0  0  0  0  0
   15.8186    4.1985   17.1746 H   0  0  0  0  0  0  0  0  0  0  0  0
   14.3032    3.3450   17.0267 H   0  0  0  0  0  0  0  0  0  0  0  0
   16.7339    2.7464   15.4777 H   0  0  0  0  0  0  0  0  0  0  0  0
   14.1789    1.5482   15.2067 H   0  0  0  0  0  0  0  0  0  0  0  0
   15.4495    1.6675   13.2823 H   0  0  0  0  0  0  0  0  0  0  0  0
   17.6536    1.8124   14.1498 H   0  0  0  0  0  0  0  0  0  0  0  0
   17.0539    0.3809   15.9884 H   0  0  0  0  0  0  0  0  0  0  0  0
   15.8396   -1.0421   14.7716 H   0  0  0  0  0  0  0  0  0  0  0  0
   16.9992   -1.0078   12.8191 H   0  0  0  0  0  0  0  0  0  0  0  0
   19.1868   -0.9223   13.6971 H   0  0  0  0  0  0  0  0  0  0  0  0
   18.7934   -2.5236   15.4317 H   0  0  0  0  0  0  0  0  0  0  0  0
   17.5664   -4.0126   14.2593 H   0  0  0  0  0  0  0  0  0  0  0  0
   18.6636   -3.9350   12.2814 H   0  0  0  0  0  0  0  0  0  0  0  0
   20.8354   -3.8025   13.1050 H   0  0  0  0  0  0  0  0  0  0  0  0
   20.6311   -5.3105   14.7880 H   0  0  0  0  0  0  0  0  0  0  0  0
   19.3383   -6.7866   13.7463 H   0  0  0  0  0  0  0  0  0  0  0  0
   21.6840   -7.4705   12.3437 H   0  0  0  0  0  0  0  0  0  0  0  0
  105.7234  -48.8093   50.9538 H   0  0  0  0  0  0  0  0  0  0  0  0
  1  2  1  0  0  0  0
  1 82  1  0  0  0  0
  1 83  1  0  0  0  0
  1 84  1  0  0  0  0
  2  3  1  0  0  0  0
  2 85  1  0  0  0  0
  3  4  1  0  0  0  0
  3 86  1  0  0  0  0
  3 87  1  0  0  0  0
  4  5  1  0  0  0  0
  4 88  1  0  0  0  0
  4 89  1  0  0  0  0
  5  6  1  0  0  0  0
  5 90  1  0  0  0  0
  6  7  1  0  0  0  0
  6 91  1  0  0  0  0
  7  8  1  0  0  0  0
  7 92  1  0  0  0  0
  8  9  1  0  0  0  0
  8 93  1  0  0  0  0
  9 10  1  0  0  0  0
  9 94  1  0  0  0  0
 10 11  1  0  0  0  0
 10 95  1  0  0  0  0
 11 12  1  0  0  0  0
 11 96  1  0  0  0  0
 12 13  1  0  0  0  0
 12 97  1  0  0  0  0
 13 14  1  0  0  0  0
 13 98  1  0  0  0  0
 14 15  1  0  0  0  0
 14 99  1  0  0  0  0
 15 16  1  0  0  0  0
 15100  1  0  0  0  0
 16 17  1  0  0  0  0
 16101  1  0  0  0  0
 17 18  1  0  0  0  0
 17102  1  0  0  0  0
 18 19  1  0  0  0  0
 18103  1  0  0  0  0
 19 20  1  0  0  0  0
 19104  1  0  0  0  0
 20 21  1  0  0  0  0
 21 22  1  0  0  0  0
 22 23  1  0  0  0  0
 23 24  1  0  0  0  0
 24 25  1  0  0  0  0
 25 26  1  0  0  0  0
 26 27  1  0  0  0  0
 27 28  1  0  0  0  0
 28 29  1  0  0  0  0
 29 30  1  0  0  0  0
 30 31  1  0  0  0  0
 31 32  1  0  0  0  0
 32 33  1  0  0  0  0
 33 34  1  0  0  0  0
 34 35  1  0  0  0  0
 35 36  1  0  0  0  0
 36 37  1  0  0  0  0
 37 38  1  0  0  0  0
 38 39  1  0  0  0  0
 39 40  1  0  0  0  0
 40 41  1  0  0  0  0
 41 42  1  0  0  0  0
 42 43  1  0  0  0  0
 43 44  1  0  0  0  0
 44 45  1  0  0  0  0
 45 46  1  0  0  0  0
 46 47  1  0  0  0  0
 47 48  1  0  0  0  0
 48 49  1  0  0  0  0
 49 50  1  0  0  0  0
 50 51  1  0  0  0  0
 51 52  1  0  0  0  0
 52 53  1  0  0  0  0
 53 54  1  0  0  0  0
 54 55  1  0  0  0  0
 55 56  1  0  0  0  0
 56 57  1  0  0  0  0
 57 58  1  0  0  0  0
 58 59  1  0  0  0  0
 59 60  1  0  0  0  0
 60 61  1  0  0  0  0
 61 62  1  0  0  0  0
 62 63  1  0  0  0  0
 63 64  1  0  0  0  0
 64 65  1  0  0  0  0
 65 66  1  0  0  0  0
 66 67  1  0  0  0  0
 67 68  1  0  0  0  0
 68 69  1  0  0  0  0
 69 70  1  0  0  0  0
 70 71  1  0  0  0  0
 71 72  1  0  0  0  0
 72 73  1  0  0  0  0
 73 74  1  0  0  0  0
 74 75  1  0  0  0  0
 75 76  1  0  0  0  0
 76 77  1  0  0  0  0
 77 78  1  0  0  0  0
 78 79  1  0  0  0  0
 79 80  1  0  0  0  0
 80 81  1  0  0  0  0
 81105  1  0  0  0  0
M  END
$$$$
