
 OpenBabel04232216573D

134133  0  0  0  0  0  0  0  0999 V2000
   20.8176  -14.2434   19.4823 C   0  0  0  0  0  0  0  0  0  0  0  0
   20.5532  -12.4572   19.4389 S   0  0  0  0  0  0  0  0  0  0  0  0
   18.7164  -12.3224   19.3406 C   0  0  0  0  0  0  0  0  0  0  0  0
   18.3321  -10.8293   19.2679 C   0  0  0  0  0  0  0  0  0  0  0  0
   18.9313  -10.1617   18.1121 N   0  0  0  0  0  0  0  0  0  0  0  0
   18.4749  -10.8303   16.9125 N   0  0  0  0  0  0  0  0  0  0  0  0
   19.0798  -10.2886   15.7510 N   0  0  0  0  0  0  0  0  0  0  0  0
   20.4783  -10.4526   15.7768 N   0  0  0  0  0  0  0  0  0  0  0  0
   20.8010  -11.8497   15.8689 N   0  0  0  0  0  0  0  0  0  0  0  0
   20.2934  -12.5447   14.7096 N   0  0  0  0  0  0  0  0  0  0  0  0
   20.8499  -11.9750   13.5203 N   0  0  0  0  0  0  0  0  0  0  0  0
   22.2837  -12.1102   13.5754 N   0  0  0  0  0  0  0  0  0  0  0  0
   22.6564  -13.5112   13.6475 N   0  0  0  0  0  0  0  0  0  0  0  0
   22.0918  -14.2199   12.5542 N   0  0  0  0  0  0  0  0  0  0  0  0
   22.6560  -13.6675   11.3463 N   0  0  0  0  0  0  0  0  0  0  0  0
   24.1181  -13.7911   11.3591 N   0  0  0  0  0  0  0  0  0  0  0  0
   24.4947  -15.1507   11.5279 N   0  0  0  0  0  0  0  0  0  0  0  0
   24.0157  -15.9004   10.3792 N   0  0  0  0  0  0  0  0  0  0  0  0
   24.5441  -15.3404    9.1366 N   0  0  0  0  0  0  0  0  0  0  0  0
   25.9667  -15.3698    9.1760 N   0  0  0  0  0  0  0  0  0  0  0  0
   26.3630  -16.7496    9.3240 N   0  0  0  0  0  0  0  0  0  0  0  0
   25.8220  -17.5292    8.2056 N   0  0  0  0  0  0  0  0  0  0  0  0
   26.3038  -16.9606    6.9979 N   0  0  0  0  0  0  0  0  0  0  0  0
   27.7532  -17.0345    6.9964 N   0  0  0  0  0  0  0  0  0  0  0  0
   28.1934  -18.4035    7.1417 N   0  0  0  0  0  0  0  0  0  0  0  0
   27.6637  -19.1890    6.0627 N   0  0  0  0  0  0  0  0  0  0  0  0
   28.1712  -18.6608    4.8129 N   0  0  0  0  0  0  0  0  0  0  0  0
   29.5994  -18.6831    4.8313 N   0  0  0  0  0  0  0  0  0  0  0  0
   30.0764  -20.0425    4.9648 N   0  0  0  0  0  0  0  0  0  0  0  0
   29.5434  -20.8649    3.9221 N   0  0  0  0  0  0  0  0  0  0  0  0
   30.0435  -20.3457    2.6750 N   0  0  0  0  0  0  0  0  0  0  0  0
   31.4922  -20.3101    2.7221 N   0  0  0  0  0  0  0  0  0  0  0  0
   32.0147  -21.6627    2.8840 N   0  0  0  0  0  0  0  0  0  0  0  0
   31.5655  -22.5246    1.8181 N   0  0  0  0  0  0  0  0  0  0  0  0
   31.9880  -22.0105    0.5705 N   0  0  0  0  0  0  0  0  0  0  0  0
   33.4217  -21.9679    0.5594 N   0  0  0  0  0  0  0  0  0  0  0  0
   33.9271  -23.2852    0.8175 N   0  0  0  0  0  0  0  0  0  0  0  0
   33.4767  -24.1797   -0.2243 N   0  0  0  0  0  0  0  0  0  0  0  0
   33.8905  -23.6787   -1.4915 N   0  0  0  0  0  0  0  0  0  0  0  0
   35.3245  -23.6238   -1.5639 N   0  0  0  0  0  0  0  0  0  0  0  0
   35.8691  -24.8880   -1.2865 N   0  0  0  0  0  0  0  0  0  0  0  0
   35.4403  -25.8102   -2.2936 N   0  0  0  0  0  0  0  0  0  0  0  0
   35.7993  -25.3172   -3.5732 N   0  0  0  0  0  0  0  0  0  0  0  0
   37.2310  -25.2238   -3.6357 N   0  0  0  0  0  0  0  0  0  0  0  0
   37.8013  -26.5145   -3.3617 N   0  0  0  0  0  0  0  0  0  0  0  0
   37.3616  -27.4632   -4.3490 N   0  0  0  0  0  0  0  0  0  0  0  0
   37.7655  -27.0378   -5.6727 N   0  0  0  0  0  0  0  0  0  0  0  0
   39.2110  -26.9265   -5.7623 N   0  0  0  0  0  0  0  0  0  0  0  0
   39.8540  -28.1888   -5.4922 N   0  0  0  0  0  0  0  0  0  0  0  0
   41.4892  -27.9996   -5.6753 S   0  0  0  0  0  0  0  0  0  0  0  0
   42.2412  -29.8821   -5.2933 S   0  0  0  0  0  0  0  0  0  0  0  0
   41.5708  -31.1929   -6.7538 S   0  0  0  0  0  0  0  0  0  0  0  0
   42.2098  -30.5591   -8.6266 S   0  0  0  0  0  0  0  0  0  0  0  0
   41.4581  -31.9028  -10.0594 S   0  0  0  0  0  0  0  0  0  0  0  0
   42.0216  -31.2127  -11.9675 S   0  0  0  0  0  0  0  0  0  0  0  0
   41.3038  -32.5625  -13.4185 S   0  0  0  0  0  0  0  0  0  0  0  0
   41.8694  -31.8678  -15.3284 S   0  0  0  0  0  0  0  0  0  0  0  0
   41.1501  -33.2175  -16.7812 S   0  0  0  0  0  0  0  0  0  0  0  0
   41.7158  -32.5231  -18.6910 S   0  0  0  0  0  0  0  0  0  0  0  0
   40.9964  -33.8728  -20.1437 S   0  0  0  0  0  0  0  0  0  0  0  0
   41.5621  -33.1785  -22.0536 S   0  0  0  0  0  0  0  0  0  0  0  0
   40.8427  -34.5282  -23.5063 S   0  0  0  0  0  0  0  0  0  0  0  0
   41.4084  -33.8339  -25.4161 S   0  0  0  0  0  0  0  0  0  0  0  0
   40.6890  -35.1836  -26.8688 S   0  0  0  0  0  0  0  0  0  0  0  0
   41.2547  -34.4893  -28.7787 S   0  0  0  0  0  0  0  0  0  0  0  0
   40.5353  -35.8390  -30.2314 S   0  0  0  0  0  0  0  0  0  0  0  0
   41.1010  -35.1447  -32.1413 S   0  0  0  0  0  0  0  0  0  0  0  0
   40.3816  -36.4944  -33.5940 S   0  0  0  0  0  0  0  0  0  0  0  0
   40.9473  -35.8001  -35.5038 S   0  0  0  0  0  0  0  0  0  0  0  0
   40.2279  -37.1498  -36.9565 S   0  0  0  0  0  0  0  0  0  0  0  0
   40.7936  -36.4555  -38.8664 S   0  0  0  0  0  0  0  0  0  0  0  0
   40.0742  -37.8052  -40.3191 S   0  0  0  0  0  0  0  0  0  0  0  0
   40.6399  -37.1108  -42.2289 S   0  0  0  0  0  0  0  0  0  0  0  0
   39.9206  -38.4605  -43.6815 S   0  0  0  0  0  0  0  0  0  0  0  0
   40.4866  -37.7662  -45.5908 S   0  0  0  0  0  0  0  0  0  0  0  0
   39.7665  -39.1141  -47.0417 S   0  0  0  0  0  0  0  0  0  0  0  0
   40.3326  -38.4209  -48.9480 S   0  0  0  0  0  0  0  0  0  0  0  0
   39.6305  -39.7884  -50.3778 S   0  0  0  0  0  0  0  0  0  0  0  0
   40.1055  -39.0662  -52.2758 S   0  0  0  0  0  0  0  0  0  0  0  0
   39.4427  -40.4565  -53.6840 S   0  0  0  0  0  0  0  0  0  0  0  0
   37.3812  -40.4622  -53.5930 S   0  0  0  0  0  0  0  0  0  0  0  0
   21.8982  -14.4140   19.5565 H   0  0  0  0  0  0  0  0  0  0  0  0
   20.4550  -14.7589   18.5914 H   0  0  0  0  0  0  0  0  0  0  0  0
   20.3717  -14.6880   20.3794 H   0  0  0  0  0  0  0  0  0  0  0  0
   18.2430  -12.7592   20.2241 H   0  0  0  0  0  0  0  0  0  0  0  0
   18.3356  -12.8469   18.4553 H   0  0  0  0  0  0  0  0  0  0  0  0
   18.6998  -10.3103   20.1583 H   0  0  0  0  0  0  0  0  0  0  0  0
   17.2493  -10.6941   19.2324 H   0  0  0  0  0  0  0  0  0  0  0  0
   19.9333  -10.3584   18.2338 H   0  0  0  0  0  0  0  0  0  0  0  0
   17.4662  -10.7796   16.8126 H   0  0  0  0  0  0  0  0  0  0  0  0
   18.7981   -9.3037   15.6712 H   0  0  0  0  0  0  0  0  0  0  0  0
   20.9371  -10.0057   16.5586 H   0  0  0  0  0  0  0  0  0  0  0  0
   20.3685  -12.2198   16.7341 H   0  0  0  0  0  0  0  0  0  0  0  0
   19.2688  -12.4214   14.7105 H   0  0  0  0  0  0  0  0  0  0  0  0
   20.6555  -10.9804   13.4814 H   0  0  0  0  0  0  0  0  0  0  0  0
   22.5957  -11.6024   14.4174 H   0  0  0  0  0  0  0  0  0  0  0  0
   22.2337  -13.9083   14.4871 H   0  0  0  0  0  0  0  0  0  0  0  0
   21.0713  -14.0876   12.5865 H   0  0  0  0  0  0  0  0  0  0  0  0
   22.4041  -12.6662   11.3329 H   0  0  0  0  0  0  0  0  0  0  0  0
   24.4682  -13.3033   12.1816 H   0  0  0  0  0  0  0  0  0  0  0  0
   24.0889  -15.4806   12.4141 H   0  0  0  0  0  0  0  0  0  0  0  0
   22.9954  -15.7989   10.3592 H   0  0  0  0  0  0  0  0  0  0  0  0
   24.2635  -14.3561    9.0865 H   0  0  0  0  0  0  0  0  0  0  0  0
   26.2465  -14.7937    9.9840 H   0  0  0  0  0  0  0  0  0  0  0  0
   25.9368  -17.1145   10.1747 H   0  0  0  0  0  0  0  0  0  0  0  0
   24.8055  -17.4165    8.2031 H   0  0  0  0  0  0  0  0  0  0  0  0
   25.9532  -15.9892    6.9320 H   0  0  0  0  0  0  0  0  0  0  0  0
   28.1098  -16.4689    7.7842 H   0  0  0  0  0  0  0  0  0  0  0  0
   27.8266  -18.8242    7.9891 H   0  0  0  0  0  0  0  0  0  0  0  0
   26.6405  -19.1129    6.0984 H   0  0  0  0  0  0  0  0  0  0  0  0
   27.8347  -17.6837    4.7601 H   0  0  0  0  0  0  0  0  0  0  0  0
   29.9791  -18.1113    5.5943 H   0  0  0  0  0  0  0  0  0  0  0  0
   29.7353  -20.4336    5.8395 H   0  0  0  0  0  0  0  0  0  0  0  0
   28.5165  -20.8168    3.9655 H   0  0  0  0  0  0  0  0  0  0  0  0
   29.6967  -19.3717    2.6250 H   0  0  0  0  0  0  0  0  0  0  0  0
   31.7782  -19.7286    3.5239 H   0  0  0  0  0  0  0  0  0  0  0  0
   31.6402  -22.0630    3.7425 H   0  0  0  0  0  0  0  0  0  0  0  0
   30.5571  -22.5439    1.8059 H   0  0  0  0  0  0  0  0  0  0  0  0
   31.5856  -21.0740    0.4544 H   0  0  0  0  0  0  0  0  0  0  0  0
   33.6886  -21.3720    1.3566 H   0  0  0  0  0  0  0  0  0  0  0  0
   33.5287  -23.5943    1.7168 H   0  0  0  0  0  0  0  0  0  0  0  0
   32.4472  -24.1609   -0.1957 H   0  0  0  0  0  0  0  0  0  0  0  0
   33.5587  -22.7309   -1.5921 H   0  0  0  0  0  0  0  0  0  0  0  0
   35.6141  -23.0190   -0.7967 H   0  0  0  0  0  0  0  0  0  0  0  0
   35.4857  -25.2002   -0.4056 H   0  0  0  0  0  0  0  0  0  0  0  0
   34.4250  -25.7757   -2.2502 H   0  0  0  0  0  0  0  0  0  0  0  0
   35.3861  -24.3836   -3.6734 H   0  0  0  0  0  0  0  0  0  0  0  0
   37.5044  -24.5802   -2.8780 H   0  0  0  0  0  0  0  0  0  0  0  0
   37.4661  -26.8237   -2.4359 H   0  0  0  0  0  0  0  0  0  0  0  0
   36.3294  -27.4842   -4.2998 H   0  0  0  0  0  0  0  0  0  0  0  0
   37.3743  -26.1238   -5.8292 H   0  0  0  0  0  0  0  0  0  0  0  0
   39.4950  -26.2524   -5.0374 H   0  0  0  0  0  0  0  0  0  0  0  0
   39.4745  -28.8571   -6.1616 H   0  0  0  0  0  0  0  0  0  0  0  0
   37.0123  -41.3587  -54.5352 H   0  0  0  0  0  0  0  0  0  0  0  0
  1  2  1  0  0  0  0
  1 82  1  0  0  0  0
  1 83  1  0  0  0  0
  1 84  1  0  0  0  0
  2  3  1  0  0  0  0
  3  4  1  0  0  0  0
  3 85  1  0  0  0  0
  3 86  1  0  0  0  0
  4  5  1  0  0  0  0
  4 87  1  0  0  0  0
  4 88  1  0  0  0  0
  5  6  1  0  0  0  0
  5 89  1  0  0  0  0
  6  7  1  0  0  0  0
  6 90  1  0  0  0  0
  7  8  1  0  0  0  0
  7 91  1  0  0  0  0
  8  9  1  0  0  0  0
  8 92  1  0  0  0  0
  9 10  1  0  0  0  0
  9 93  1  0  0  0  0
 10 11  1  0  0  0  0
 10 94  1  0  0  0  0
 11 12  1  0  0  0  0
 11 95  1  0  0  0  0
 12 13  1  0  0  0  0
 12 96  1  0  0  0  0
 13 14  1  0  0  0  0
 13 97  1  0  0  0  0
 14 15  1  0  0  0  0
 14 98  1  0  0  0  0
 15 16  1  0  0  0  0
 15 99  1  0  0  0  0
 16 17  1  0  0  0  0
 16100  1  0  0  0  0
 17 18  1  0  0  0  0
 17101  1  0  0  0  0
 18 19  1  0  0  0  0
 18102  1  0  0  0  0
 19 20  1  0  0  0  0
 19103  1  0  0  0  0
 20 21  1  0  0  0  0
 20104  1  0  0  0  0
 21 22  1  0  0  0  0
 21105  1  0  0  0  0
 22 23  1  0  0  0  0
 22106  1  0  0  0  0
 23 24  1  0  0  0  0
 23107  1  0  0  0  0
 24 25  1  0  0  0  0
 24108  1  0  0  0  0
 25 26  1  0  0  0  0
 25109  1  0  0  0  0
 26 27  1  0  0  0  0
 26110  1  0  0  0  0
 27 28  1  0  0  0  0
 27111  1  0  0  0  0
 28 29  1  0  0  0  0
 28112  1  0  0  0  0
 29 30  1  0  0  0  0
 29113  1  0  0  0  0
 30 31  1  0  0  0  0
 30114  1  0  0  0  0
 31 32  1  0  0  0  0
 31115  1  0  0  0  0
 32 33  1  0  0  0  0
 32116  1  0  0  0  0
 33 34  1  0  0  0  0
 33117  1  0  0  0  0
 34 35  1  0  0  0  0
 34118  1  0  0  0  0
 35 36  1  0  0  0  0
 35119  1  0  0  0  0
 36 37  1  0  0  0  0
 36120  1  0  0  0  0
 37 38  1  0  0  0  0
 37121  1  0  0  0  0
 38 39  1  0  0  0  0
 38122  1  0  0  0  0
 39 40  1  0  0  0  0
 39123  1  0  0  0  0
 40 41  1  0  0  0  0
 40124  1  0  0  0  0
 41 42  1  0  0  0  0
 41125  1  0  0  0  0
 42 43  1  0  0  0  0
 42126  1  0  0  0  0
 43 44  1  0  0  0  0
 43127  1  0  0  0  0
 44 45  1  0  0  0  0
 44128  1  0  0  0  0
 45 46  1  0  0  0  0
 45129  1  0  0  0  0
 46 47  1  0  0  0  0
 46130  1  0  0  0  0
 47 48  1  0  0  0  0
 47131  1  0  0  0  0
 48 49  1  0  0  0  0
 48132  1  0  0  0  0
 49 50  1  0  0  0  0
 49133  1  0  0  0  0
 50 51  1  0  0  0  0
 51 52  1  0  0  0  0
 52 53  1  0  0  0  0
 53 54  1  0  0  0  0
 54 55  1  0  0  0  0
 55 56  1  0  0  0  0
 56 57  1  0  0  0  0
 57 58  1  0  0  0  0
 58 59  1  0  0  0  0
 59 60  1  0  0  0  0
 60 61  1  0  0  0  0
 61 62  1  0  0  0  0
 62 63  1  0  0  0  0
 63 64  1  0  0  0  0
 64 65  1  0  0  0  0
 65 66  1  0  0  0  0
 66 67  1  0  0  0  0
 67 68  1  0  0  0  0
 68 69  1  0  0  0  0
 69 70  1  0  0  0  0
 70 71  1  0  0  0  0
 71 72  1  0  0  0  0
 72 73  1  0  0  0  0
 73 74  1  0  0  0  0
 74 75  1  0  0  0  0
 75 76  1  0  0  0  0
 76 77  1  0  0  0  0
 77 78  1  0  0  0  0
 78 79  1  0  0  0  0
 79 80  1  0  0  0  0
 80 81  1  0  0  0  0
 81134  1  0  0  0  0
M  END
$$$$
