
 OpenBabel04232216583D

121120  0  0  0  0  0  0  0  0999 V2000
    0.9458    0.9037   -9.4191 N   0  0  0  0  0  0  0  0  0  0  0  0
    2.3970    0.9143   -9.4290 N   0  0  0  0  0  0  0  0  0  0  0  0
    2.8796    1.4737   -8.1661 C   0  0  0  0  0  0  0  0  0  0  0  0
    4.4050    1.4811   -8.1784 C   0  0  0  0  0  0  0  0  0  0  0  0
    4.9384    2.0703   -6.8787 C   0  0  0  0  0  0  0  0  0  0  0  0
    6.4014    2.0825   -6.9604 N   0  0  0  0  0  0  0  0  0  0  0  0
    6.9027    2.6670   -5.7361 N   0  0  0  0  0  0  0  0  0  0  0  0
    8.3444    2.6019   -5.6578 N   0  0  0  0  0  0  0  0  0  0  0  0
    8.8434    3.2052   -4.4577 N   0  0  0  0  0  0  0  0  0  0  0  0
   10.3012    3.2350   -4.4907 N   0  0  0  0  0  0  0  0  0  0  0  0
   10.7978    4.0072   -5.5807 N   0  0  0  0  0  0  0  0  0  0  0  0
   12.2021    4.0090   -5.6187 N   0  0  0  0  0  0  0  0  0  0  0  0
   12.6113    4.8491   -6.6373 N   0  0  0  0  0  0  0  0  0  0  0  0
   14.0175    4.8427   -6.6563 N   0  0  0  0  0  0  0  0  0  0  0  0
   14.5146    5.5097   -7.7867 N   0  0  0  0  0  0  0  0  0  0  0  0
   15.9255    5.5379   -7.7680 N   0  0  0  0  0  0  0  0  0  0  0  0
   16.3734    6.3423   -8.8098 N   0  0  0  0  0  0  0  0  0  0  0  0
   17.7895    6.3172   -8.8349 N   0  0  0  0  0  0  0  0  0  0  0  0
   18.2711    7.0857   -9.9185 N   0  0  0  0  0  0  0  0  0  0  0  0
   19.6902    7.1090   -9.9055 N   0  0  0  0  0  0  0  0  0  0  0  0
   20.1690    7.8401  -11.0112 N   0  0  0  0  0  0  0  0  0  0  0  0
   21.5718    7.8625  -11.0093 N   0  0  0  0  0  0  0  0  0  0  0  0
   21.9945    8.7033  -12.0424 N   0  0  0  0  0  0  0  0  0  0  0  0
   23.3958    8.6426  -12.0614 N   0  0  0  0  0  0  0  0  0  0  0  0
   23.9189    9.3938  -13.1866 N   0  0  0  0  0  0  0  0  0  0  0  0
   25.3590    9.4424  -13.1738 N   0  0  0  0  0  0  0  0  0  0  0  0
   25.8816   10.2127  -14.3140 N   0  0  0  0  0  0  0  0  0  0  0  0
   27.3413   10.2747  -14.3273 N   0  0  0  0  0  0  0  0  0  0  0  0
   27.8324   11.0458  -15.4189 N   0  0  0  0  0  0  0  0  0  0  0  0
   29.2448   11.0040  -15.4265 N   0  0  0  0  0  0  0  0  0  0  0  0
   29.6953   11.7843  -16.4904 N   0  0  0  0  0  0  0  0  0  0  0  0
   31.0769   11.8042  -16.4733 N   0  0  0  0  0  0  0  0  0  0  0  0
   31.5604   12.5005  -17.5938 N   0  0  0  0  0  0  0  0  0  0  0  0
   32.9540   12.4965  -17.5112 N   0  0  0  0  0  0  0  0  0  0  0  0
   33.4994   11.1839  -17.6782 N   0  0  0  0  0  0  0  0  0  0  0  0
   35.1326   11.3240  -17.9404 S   0  0  0  0  0  0  0  0  0  0  0  0
   35.6592    9.3495  -18.1353 S   0  0  0  0  0  0  0  0  0  0  0  0
   34.8927    8.7138  -19.9393 S   0  0  0  0  0  0  0  0  0  0  0  0
   35.9644    9.6100  -21.4633 S   0  0  0  0  0  0  0  0  0  0  0  0
   35.1220    8.8989  -23.2294 S   0  0  0  0  0  0  0  0  0  0  0  0
   35.8089   10.0908  -24.7927 S   0  0  0  0  0  0  0  0  0  0  0  0
   35.0942    9.2666  -26.5794 S   0  0  0  0  0  0  0  0  0  0  0  0
   35.8063   10.4457  -28.1601 S   0  0  0  0  0  0  0  0  0  0  0  0
   35.0636    9.6603  -29.9610 S   0  0  0  0  0  0  0  0  0  0  0  0
   35.7893   10.8382  -31.5463 S   0  0  0  0  0  0  0  0  0  0  0  0
   35.0499   10.0554  -33.3559 S   0  0  0  0  0  0  0  0  0  0  0  0
   35.7734   11.2347  -34.9455 S   0  0  0  0  0  0  0  0  0  0  0  0
   35.0342   10.4514  -36.7578 S   0  0  0  0  0  0  0  0  0  0  0  0
   35.7574   11.6305  -38.3495 S   0  0  0  0  0  0  0  0  0  0  0  0
   35.0180   10.8473  -40.1629 S   0  0  0  0  0  0  0  0  0  0  0  0
   35.7412   12.0264  -41.7552 S   0  0  0  0  0  0  0  0  0  0  0  0
   35.0019   11.2433  -43.5689 S   0  0  0  0  0  0  0  0  0  0  0  0
   35.7251   12.4225  -45.1613 S   0  0  0  0  0  0  0  0  0  0  0  0
   34.9858   11.6394  -46.9751 S   0  0  0  0  0  0  0  0  0  0  0  0
   35.7090   12.8186  -48.5676 S   0  0  0  0  0  0  0  0  0  0  0  0
   34.9697   12.0355  -50.3814 S   0  0  0  0  0  0  0  0  0  0  0  0
   35.6929   13.2146  -51.9739 S   0  0  0  0  0  0  0  0  0  0  0  0
   34.9536   12.4315  -53.7877 S   0  0  0  0  0  0  0  0  0  0  0  0
   35.6768   13.6107  -55.3802 S   0  0  0  0  0  0  0  0  0  0  0  0
   34.9375   12.8276  -57.1940 S   0  0  0  0  0  0  0  0  0  0  0  0
   35.6607   14.0068  -58.7865 S   0  0  0  0  0  0  0  0  0  0  0  0
   34.9214   13.2237  -60.6002 S   0  0  0  0  0  0  0  0  0  0  0  0
   35.6446   14.4029  -62.1928 S   0  0  0  0  0  0  0  0  0  0  0  0
   34.9053   13.6198  -64.0065 S   0  0  0  0  0  0  0  0  0  0  0  0
   35.6285   14.7989  -65.5990 S   0  0  0  0  0  0  0  0  0  0  0  0
   34.8892   14.0158  -67.4126 S   0  0  0  0  0  0  0  0  0  0  0  0
   35.6124   15.1950  -69.0049 S   0  0  0  0  0  0  0  0  0  0  0  0
   34.8731   14.4118  -70.8182 S   0  0  0  0  0  0  0  0  0  0  0  0
   35.5963   15.5908  -72.4099 S   0  0  0  0  0  0  0  0  0  0  0  0
   34.8569   14.8075  -74.2221 S   0  0  0  0  0  0  0  0  0  0  0  0
   35.5803   15.9865  -75.8117 S   0  0  0  0  0  0  0  0  0  0  0  0
   34.8414   15.2028  -77.6211 S   0  0  0  0  0  0  0  0  0  0  0  0
   35.5641   16.3833  -79.2052 S   0  0  0  0  0  0  0  0  0  0  0  0
   34.8270   15.5976  -81.0080 S   0  0  0  0  0  0  0  0  0  0  0  0
   35.5568   16.7726  -82.5838 S   0  0  0  0  0  0  0  0  0  0  0  0
   34.7873   16.0009  -84.3673 S   0  0  0  0  0  0  0  0  0  0  0  0
   35.5366   17.1494  -85.9379 S   0  0  0  0  0  0  0  0  0  0  0  0
   34.8418   16.2886  -87.6953 S   0  0  0  0  0  0  0  0  0  0  0  0
   35.3032   17.5892  -89.2355 S   0  0  0  0  0  0  0  0  0  0  0  0
   34.7253   16.6427  -90.9775 S   0  0  0  0  0  0  0  0  0  0  0  0
   32.6991   16.9560  -91.1197 S   0  0  0  0  0  0  0  0  0  0  0  0
    0.5648    0.5027  -10.2788 H   0  0  0  0  0  0  0  0  0  0  0  0
    0.5710    1.8539   -9.3386 H   0  0  0  0  0  0  0  0  0  0  0  0
    2.7950    1.4550  -10.2025 H   0  0  0  0  0  0  0  0  0  0  0  0
    2.5243    0.8747   -7.3200 H   0  0  0  0  0  0  0  0  0  0  0  0
    2.5141    2.5006   -8.0386 H   0  0  0  0  0  0  0  0  0  0  0  0
    4.7685    2.0703   -9.0311 H   0  0  0  0  0  0  0  0  0  0  0  0
    4.7866    0.4592   -8.3068 H   0  0  0  0  0  0  0  0  0  0  0  0
    4.5954    1.4695   -6.0278 H   0  0  0  0  0  0  0  0  0  0  0  0
    4.5591    3.0934   -6.7529 H   0  0  0  0  0  0  0  0  0  0  0  0
    6.6287    2.6260   -7.7972 H   0  0  0  0  0  0  0  0  0  0  0  0
    6.4776    2.1341   -4.9641 H   0  0  0  0  0  0  0  0  0  0  0  0
    8.8109    3.1378   -6.3996 H   0  0  0  0  0  0  0  0  0  0  0  0
    8.5066    2.6987   -3.6288 H   0  0  0  0  0  0  0  0  0  0  0  0
   10.6429    2.2709   -4.5453 H   0  0  0  0  0  0  0  0  0  0  0  0
   10.5135    4.9857   -5.5076 H   0  0  0  0  0  0  0  0  0  0  0  0
   12.6041    3.0953   -5.7903 H   0  0  0  0  0  0  0  0  0  0  0  0
   12.2065    5.7862   -6.4741 H   0  0  0  0  0  0  0  0  0  0  0  0
   14.2845    3.8500   -6.6454 H   0  0  0  0  0  0  0  0  0  0  0  0
   14.2459    6.4983   -7.7830 H   0  0  0  0  0  0  0  0  0  0  0  0
   16.3086    4.6040   -7.8866 H   0  0  0  0  0  0  0  0  0  0  0  0
   16.0601    7.3001   -8.6916 H   0  0  0  0  0  0  0  0  0  0  0  0
   18.0631    5.3350   -8.8932 H   0  0  0  0  0  0  0  0  0  0  0  0
   17.8972    8.0342   -9.8413 H   0  0  0  0  0  0  0  0  0  0  0  0
   20.0498    6.1554   -9.9780 H   0  0  0  0  0  0  0  0  0  0  0  0
   19.8674    8.8097  -10.9705 H   0  0  0  0  0  0  0  0  0  0  0  0
   22.0053    6.9588  -11.1974 H   0  0  0  0  0  0  0  0  0  0  0  0
   21.6059    9.6316  -11.8668 H   0  0  0  0  0  0  0  0  0  0  0  0
   23.6643    7.6550  -12.1146 H   0  0  0  0  0  0  0  0  0  0  0  0
   23.5374   10.3414  -13.1142 H   0  0  0  0  0  0  0  0  0  0  0  0
   25.7323    8.4904  -13.2506 H   0  0  0  0  0  0  0  0  0  0  0  0
   25.5372   11.1787  -14.2617 H   0  0  0  0  0  0  0  0  0  0  0  0
   27.7726    9.3554  -14.4574 H   0  0  0  0  0  0  0  0  0  0  0  0
   27.6165   12.0394  -15.3696 H   0  0  0  0  0  0  0  0  0  0  0  0
   29.6093   10.0689  -15.5538 H   0  0  0  0  0  0  0  0  0  0  0  0
   29.3499   12.7327  -16.3824 H   0  0  0  0  0  0  0  0  0  0  0  0
   31.4780   10.8751  -16.5381 H   0  0  0  0  0  0  0  0  0  0  0  0
   31.2146   13.4533  -17.5198 H   0  0  0  0  0  0  0  0  0  0  0  0
   33.1802   12.8187  -16.5747 H   0  0  0  0  0  0  0  0  0  0  0  0
   33.0461   10.7584  -18.4871 H   0  0  0  0  0  0  0  0  0  0  0  0
   32.4408   16.3719  -92.3019 H   0  0  0  0  0  0  0  0  0  0  0  0
  1  2  1  0  0  0  0
  1 82  1  0  0  0  0
  1 83  1  0  0  0  0
  2  3  1  0  0  0  0
  2 84  1  0  0  0  0
  3  4  1  0  0  0  0
  3 85  1  0  0  0  0
  3 86  1  0  0  0  0
  4  5  1  0  0  0  0
  4 87  1  0  0  0  0
  4 88  1  0  0  0  0
  5  6  1  0  0  0  0
  5 89  1  0  0  0  0
  5 90  1  0  0  0  0
  6  7  1  0  0  0  0
  6 91  1  0  0  0  0
  7  8  1  0  0  0  0
  7 92  1  0  0  0  0
  8  9  1  0  0  0  0
  8 93  1  0  0  0  0
  9 10  1  0  0  0  0
  9 94  1  0  0  0  0
 10 11  1  0  0  0  0
 10 95  1  0  0  0  0
 11 12  1  0  0  0  0
 11 96  1  0  0  0  0
 12 13  1  0  0  0  0
 12 97  1  0  0  0  0
 13 14  1  0  0  0  0
 13 98  1  0  0  0  0
 14 15  1  0  0  0  0
 14 99  1  0  0  0  0
 15 16  1  0  0  0  0
 15100  1  0  0  0  0
 16 17  1  0  0  0  0
 16101  1  0  0  0  0
 17 18  1  0  0  0  0
 17102  1  0  0  0  0
 18 19  1  0  0  0  0
 18103  1  0  0  0  0
 19 20  1  0  0  0  0
 19104  1  0  0  0  0
 20 21  1  0  0  0  0
 20105  1  0  0  0  0
 21 22  1  0  0  0  0
 21106  1  0  0  0  0
 22 23  1  0  0  0  0
 22107  1  0  0  0  0
 23 24  1  0  0  0  0
 23108  1  0  0  0  0
 24 25  1  0  0  0  0
 24109  1  0  0  0  0
 25 26  1  0  0  0  0
 25110  1  0  0  0  0
 26 27  1  0  0  0  0
 26111  1  0  0  0  0
 27 28  1  0  0  0  0
 27112  1  0  0  0  0
 28 29  1  0  0  0  0
 28113  1  0  0  0  0
 29 30  1  0  0  0  0
 29114  1  0  0  0  0
 30 31  1  0  0  0  0
 30115  1  0  0  0  0
 31 32  1  0  0  0  0
 31116  1  0  0  0  0
 32 33  1  0  0  0  0
 32117  1  0  0  0  0
 33 34  1  0  0  0  0
 33118  1  0  0  0  0
 34 35  1  0  0  0  0
 34119  1  0  0  0  0
 35 36  1  0  0  0  0
 35120  1  0  0  0  0
 36 37  1  0  0  0  0
 37 38  1  0  0  0  0
 38 39  1  0  0  0  0
 39 40  1  0  0  0  0
 40 41  1  0  0  0  0
 41 42  1  0  0  0  0
 42 43  1  0  0  0  0
 43 44  1  0  0  0  0
 44 45  1  0  0  0  0
 45 46  1  0  0  0  0
 46 47  1  0  0  0  0
 47 48  1  0  0  0  0
 48 49  1  0  0  0  0
 49 50  1  0  0  0  0
 50 51  1  0  0  0  0
 51 52  1  0  0  0  0
 52 53  1  0  0  0  0
 53 54  1  0  0  0  0
 54 55  1  0  0  0  0
 55 56  1  0  0  0  0
 56 57  1  0  0  0  0
 57 58  1  0  0  0  0
 58 59  1  0  0  0  0
 59 60  1  0  0  0  0
 60 61  1  0  0  0  0
 61 62  1  0  0  0  0
 62 63  1  0  0  0  0
 63 64  1  0  0  0  0
 64 65  1  0  0  0  0
 65 66  1  0  0  0  0
 66 67  1  0  0  0  0
 67 68  1  0  0  0  0
 68 69  1  0  0  0  0
 69 70  1  0  0  0  0
 70 71  1  0  0  0  0
 71 72  1  0  0  0  0
 72 73  1  0  0  0  0
 73 74  1  0  0  0  0
 74 75  1  0  0  0  0
 75 76  1  0  0  0  0
 76 77  1  0  0  0  0
 77 78  1  0  0  0  0
 78 79  1  0  0  0  0
 79 80  1  0  0  0  0
 80 81  1  0  0  0  0
 81121  1  0  0  0  0
M  END
$$$$
