
 OpenBabel04232217003D

208207  0  0  0  0  0  0  0  0999 V2000
    1.3773    0.4748   -0.6740 O   0  0  0  0  0  0  0  0  0  0  0  0
    2.1819    0.0037    0.1248 C   0  0  0  0  0  0  0  0  0  0  0  0
    2.9283   -1.2644   -0.1686 C   0  0  0  0  0  0  0  0  0  0  0  0
    4.4009   -0.9878   -0.1096 C   0  0  0  0  0  0  0  0  0  0  0  0
    5.1293   -2.2553   -0.4166 C   0  0  0  0  0  0  0  0  0  0  0  0
    6.4683   -1.8823   -0.3317 O   0  0  0  0  0  0  0  0  0  0  0  0
    7.1233   -3.0872   -0.6249 O   0  0  0  0  0  0  0  0  0  0  0  0
    8.4903   -2.8301   -0.5668 O   0  0  0  0  0  0  0  0  0  0  0  0
    9.1430   -4.0258   -0.8574 O   0  0  0  0  0  0  0  0  0  0  0  0
   10.5003   -3.7359   -0.7936 O   0  0  0  0  0  0  0  0  0  0  0  0
   11.1693   -4.9244   -1.0805 O   0  0  0  0  0  0  0  0  0  0  0  0
   12.5131   -4.6187   -1.0106 O   0  0  0  0  0  0  0  0  0  0  0  0
   13.1817   -5.8075   -1.2953 O   0  0  0  0  0  0  0  0  0  0  0  0
   14.5376   -5.5167   -1.2313 O   0  0  0  0  0  0  0  0  0  0  0  0
   15.1908   -6.7135   -1.5201 O   0  0  0  0  0  0  0  0  0  0  0  0
   16.5561   -6.4558   -1.4619 O   0  0  0  0  0  0  0  0  0  0  0  0
   17.2106   -7.6589   -1.7542 O   0  0  0  0  0  0  0  0  0  0  0  0
   18.5474   -7.2842   -1.6656 C   0  0  0  0  0  0  0  0  0  0  0  0
   19.2688   -8.5506   -1.9712 C   0  0  0  0  0  0  0  0  0  0  0  0
   20.7414   -8.2794   -1.9098 C   0  0  0  0  0  0  0  0  0  0  0  0
   21.4876   -9.5533   -2.2193 C   0  0  0  0  0  0  0  0  0  0  0  0
   22.9748   -9.2863   -2.1569 C   0  0  0  0  0  0  0  0  0  0  0  0
   23.7341  -10.5597   -2.4643 C   0  0  0  0  0  0  0  0  0  0  0  0
   25.2247  -10.2947   -2.4003 C   0  0  0  0  0  0  0  0  0  0  0  0
   25.9869  -11.5684   -2.7077 C   0  0  0  0  0  0  0  0  0  0  0  0
   27.4784  -11.3034   -2.6457 C   0  0  0  0  0  0  0  0  0  0  0  0
   28.2410  -12.5772   -2.9532 C   0  0  0  0  0  0  0  0  0  0  0  0
   29.7327  -12.3124   -2.8913 C   0  0  0  0  0  0  0  0  0  0  0  0
   30.4954  -13.5863   -3.1988 C   0  0  0  0  0  0  0  0  0  0  0  0
   31.9871  -13.3216   -3.1370 C   0  0  0  0  0  0  0  0  0  0  0  0
   32.7499  -14.5955   -3.4444 C   0  0  0  0  0  0  0  0  0  0  0  0
   34.2416  -14.3308   -3.3826 C   0  0  0  0  0  0  0  0  0  0  0  0
   35.0044  -15.6052   -3.6881 C   0  0  0  0  0  0  0  0  0  0  0  0
   36.4962  -15.3405   -3.6262 C   0  0  0  0  0  0  0  0  0  0  0  0
   37.2592  -16.6149   -3.9317 C   0  0  0  0  0  0  0  0  0  0  0  0
   38.7508  -16.3512   -3.8701 C   0  0  0  0  0  0  0  0  0  0  0  0
   39.5144  -17.6235   -4.1772 C   0  0  0  0  0  0  0  0  0  0  0  0
   41.0064  -17.3588   -4.1175 C   0  0  0  0  0  0  0  0  0  0  0  0
   41.7713  -18.6292   -4.4262 C   0  0  0  0  0  0  0  0  0  0  0  0
   43.2617  -18.3715   -4.3660 C   0  0  0  0  0  0  0  0  0  0  0  0
   44.0294  -19.6447   -4.6734 C   0  0  0  0  0  0  0  0  0  0  0  0
   45.5150  -19.3699   -4.6070 C   0  0  0  0  0  0  0  0  0  0  0  0
   46.2232  -20.5684   -4.8965 O   0  0  0  0  0  0  0  0  0  0  0  0
   47.6212  -20.3146   -4.8351 C   0  0  0  0  0  0  0  0  0  0  0  0
   48.3733  -21.5908   -5.1431 C   0  0  0  0  0  0  0  0  0  0  0  0
   49.8687  -21.3322   -5.0807 C   0  0  0  0  0  0  0  0  0  0  0  0
   50.6342  -22.6057   -5.3881 C   0  0  0  0  0  0  0  0  0  0  0  0
   52.1270  -22.3427   -5.3266 C   0  0  0  0  0  0  0  0  0  0  0  0
   52.8951  -23.6146   -5.6324 C   0  0  0  0  0  0  0  0  0  0  0  0
   54.3773  -23.3374   -5.5714 C   0  0  0  0  0  0  0  0  0  0  0  0
   55.0804  -24.5392   -5.8752 O   0  0  0  0  0  0  0  0  0  0  0  0
   56.4837  -24.3022   -5.7923 C   0  0  0  0  0  0  0  0  0  0  0  0
   56.8821  -23.8575   -4.4972 O   0  0  0  0  0  0  0  0  0  0  0  0
   56.5280  -24.8395   -3.5289 C   0  0  0  0  0  0  0  0  0  0  0  0
   56.9276  -24.3360   -2.1637 C   0  0  0  0  0  0  0  0  0  0  0  0
   56.5719  -25.3740   -1.1168 C   0  0  0  0  0  0  0  0  0  0  0  0
   56.9713  -24.8834    0.2605 C   0  0  0  0  0  0  0  0  0  0  0  0
   56.6143  -25.9250    1.3037 C   0  0  0  0  0  0  0  0  0  0  0  0
   57.0125  -25.4325    2.6814 C   0  0  0  0  0  0  0  0  0  0  0  0
   56.6558  -26.4736    3.7249 C   0  0  0  0  0  0  0  0  0  0  0  0
   57.0542  -25.9805    5.1025 C   0  0  0  0  0  0  0  0  0  0  0  0
   56.6976  -27.0215    6.1458 C   0  0  0  0  0  0  0  0  0  0  0  0
   57.0959  -26.5284    7.5233 C   0  0  0  0  0  0  0  0  0  0  0  0
   56.7393  -27.5694    8.5666 C   0  0  0  0  0  0  0  0  0  0  0  0
   57.1376  -27.0763    9.9440 C   0  0  0  0  0  0  0  0  0  0  0  0
   56.7810  -28.1173   10.9872 C   0  0  0  0  0  0  0  0  0  0  0  0
   57.1794  -27.6242   12.3646 C   0  0  0  0  0  0  0  0  0  0  0  0
   56.8227  -28.6652   13.4078 C   0  0  0  0  0  0  0  0  0  0  0  0
   57.2229  -28.1729   14.7850 C   0  0  0  0  0  0  0  0  0  0  0  0
   56.8663  -29.2139   15.8281 C   0  0  0  0  0  0  0  0  0  0  0  0
   57.2664  -28.7216   17.2052 C   0  0  0  0  0  0  0  0  0  0  0  0
   56.9098  -29.7626   18.2483 C   0  0  0  0  0  0  0  0  0  0  0  0
   57.3100  -29.2702   19.6253 C   0  0  0  0  0  0  0  0  0  0  0  0
   56.9533  -30.3113   20.6683 C   0  0  0  0  0  0  0  0  0  0  0  0
   57.3515  -29.8185   22.0458 C   0  0  0  0  0  0  0  0  0  0  0  0
   56.9947  -30.8598   23.0891 C   0  0  0  0  0  0  0  0  0  0  0  0
   57.3930  -30.3673   24.4678 C   0  0  0  0  0  0  0  0  0  0  0  0
   57.0394  -31.4073   25.5143 C   0  0  0  0  0  0  0  0  0  0  0  0
   57.4382  -30.9196   26.8975 C   0  0  0  0  0  0  0  0  0  0  0  0
   57.0838  -31.9601   27.9388 C   0  0  0  0  0  0  0  0  0  0  0  0
    2.3344    0.4432    1.1173 H   0  0  0  0  0  0  0  0  0  0  0  0
    2.6595   -1.6199   -1.1697 H   0  0  0  0  0  0  0  0  0  0  0  0
    2.6627   -2.0322    0.5645 H   0  0  0  0  0  0  0  0  0  0  0  0
    4.7139   -0.6197    0.8765 H   0  0  0  0  0  0  0  0  0  0  0  0
    4.7065   -0.2125   -0.8256 H   0  0  0  0  0  0  0  0  0  0  0  0
    4.9225   -2.6314   -1.4261 H   0  0  0  0  0  0  0  0  0  0  0  0
    4.9293   -3.0478    0.3152 H   0  0  0  0  0  0  0  0  0  0  0  0
   18.7546   -6.9122   -0.6550 H   0  0  0  0  0  0  0  0  0  0  0  0
   18.7524   -6.4931   -2.3968 H   0  0  0  0  0  0  0  0  0  0  0  0
   18.9611   -8.9154   -2.9601 H   0  0  0  0  0  0  0  0  0  0  0  0
   18.9654   -9.3247   -1.2539 H   0  0  0  0  0  0  0  0  0  0  0  0
   21.0052   -7.9104   -0.9112 H   0  0  0  0  0  0  0  0  0  0  0  0
   21.0005   -7.4952   -2.6315 H   0  0  0  0  0  0  0  0  0  0  0  0
   21.2080   -9.9155   -3.2162 H   0  0  0  0  0  0  0  0  0  0  0  0
   21.2106  -10.3315   -1.4976 H   0  0  0  0  0  0  0  0  0  0  0  0
   23.2449   -8.9184   -1.1594 H   0  0  0  0  0  0  0  0  0  0  0  0
   23.2427   -8.5048   -2.8785 H   0  0  0  0  0  0  0  0  0  0  0  0
   23.4610  -10.9250   -3.4618 H   0  0  0  0  0  0  0  0  0  0  0  0
   23.4610  -11.3398   -1.7432 H   0  0  0  0  0  0  0  0  0  0  0  0
   25.4959   -9.9284   -1.4026 H   0  0  0  0  0  0  0  0  0  0  0  0
   25.4959   -9.5137   -3.1210 H   0  0  0  0  0  0  0  0  0  0  0  0
   25.7138  -11.9351   -3.7046 H   0  0  0  0  0  0  0  0  0  0  0  0
   25.7159  -12.3486   -1.9860 H   0  0  0  0  0  0  0  0  0  0  0  0
   27.7510  -10.9365   -1.6487 H   0  0  0  0  0  0  0  0  0  0  0  0
   27.7489  -10.5229   -3.3674 H   0  0  0  0  0  0  0  0  0  0  0  0
   27.9681  -12.9440   -3.9502 H   0  0  0  0  0  0  0  0  0  0  0  0
   27.9703  -13.3575   -2.2316 H   0  0  0  0  0  0  0  0  0  0  0  0
   30.0055  -11.9456   -1.8943 H   0  0  0  0  0  0  0  0  0  0  0  0
   30.0034  -11.5321   -3.6130 H   0  0  0  0  0  0  0  0  0  0  0  0
   30.2226  -13.9532   -4.1958 H   0  0  0  0  0  0  0  0  0  0  0  0
   30.2247  -14.3667   -2.4772 H   0  0  0  0  0  0  0  0  0  0  0  0
   32.2599  -12.9547   -2.1400 H   0  0  0  0  0  0  0  0  0  0  0  0
   32.2578  -12.5412   -3.8586 H   0  0  0  0  0  0  0  0  0  0  0  0
   32.4770  -14.9623   -4.4414 H   0  0  0  0  0  0  0  0  0  0  0  0
   32.4791  -15.3758   -2.7228 H   0  0  0  0  0  0  0  0  0  0  0  0
   34.5142  -13.9626   -2.3860 H   0  0  0  0  0  0  0  0  0  0  0  0
   34.5125  -13.5514   -4.1052 H   0  0  0  0  0  0  0  0  0  0  0  0
   34.7317  -15.9733   -4.6846 H   0  0  0  0  0  0  0  0  0  0  0  0
   34.7334  -16.3845   -2.9654 H   0  0  0  0  0  0  0  0  0  0  0  0
   36.7687  -14.9723   -2.6297 H   0  0  0  0  0  0  0  0  0  0  0  0
   36.7670  -14.5611   -4.3489 H   0  0  0  0  0  0  0  0  0  0  0  0
   36.9866  -16.9830   -4.9283 H   0  0  0  0  0  0  0  0  0  0  0  0
   36.9883  -17.3941   -3.2091 H   0  0  0  0  0  0  0  0  0  0  0  0
   39.0238  -15.9834   -2.8729 H   0  0  0  0  0  0  0  0  0  0  0  0
   39.0216  -15.5698   -4.5916 H   0  0  0  0  0  0  0  0  0  0  0  0
   39.2403  -17.9916   -5.1738 H   0  0  0  0  0  0  0  0  0  0  0  0
   39.2445  -18.4039   -3.4549 H   0  0  0  0  0  0  0  0  0  0  0  0
   41.2797  -16.9920   -3.1199 H   0  0  0  0  0  0  0  0  0  0  0  0
   41.2751  -16.5771   -4.8393 H   0  0  0  0  0  0  0  0  0  0  0  0
   41.4963  -18.9967   -5.4235 H   0  0  0  0  0  0  0  0  0  0  0  0
   41.4989  -19.4123   -3.7066 H   0  0  0  0  0  0  0  0  0  0  0  0
   43.5337  -18.0028   -3.3684 H   0  0  0  0  0  0  0  0  0  0  0  0
   43.5316  -17.5891   -5.0873 H   0  0  0  0  0  0  0  0  0  0  0  0
   43.7632  -20.0224   -5.6682 H   0  0  0  0  0  0  0  0  0  0  0  0
   43.7632  -20.4346   -3.9604 H   0  0  0  0  0  0  0  0  0  0  0  0
   45.7860  -19.0199   -3.6043 H   0  0  0  0  0  0  0  0  0  0  0  0
   45.7860  -18.6010   -5.3397 H   0  0  0  0  0  0  0  0  0  0  0  0
   47.8826  -19.9599   -3.8313 H   0  0  0  0  0  0  0  0  0  0  0  0
   47.8826  -19.5411   -5.5665 H   0  0  0  0  0  0  0  0  0  0  0  0
   48.0901  -21.9604   -6.1360 H   0  0  0  0  0  0  0  0  0  0  0  0
   48.0901  -22.3727   -4.4281 H   0  0  0  0  0  0  0  0  0  0  0  0
   50.1429  -20.9655   -4.0835 H   0  0  0  0  0  0  0  0  0  0  0  0
   50.1428  -20.5509   -5.8008 H   0  0  0  0  0  0  0  0  0  0  0  0
   50.3623  -22.9716   -6.3854 H   0  0  0  0  0  0  0  0  0  0  0  0
   50.3644  -23.3854   -4.6657 H   0  0  0  0  0  0  0  0  0  0  0  0
   52.3994  -21.9726   -4.3300 H   0  0  0  0  0  0  0  0  0  0  0  0
   52.3976  -21.5616   -6.0485 H   0  0  0  0  0  0  0  0  0  0  0  0
   52.6319  -23.9947   -6.6260 H   0  0  0  0  0  0  0  0  0  0  0  0
   52.6322  -24.4044   -4.9180 H   0  0  0  0  0  0  0  0  0  0  0  0
   54.6454  -22.9840   -4.5663 H   0  0  0  0  0  0  0  0  0  0  0  0
   54.6543  -22.5699   -6.3007 H   0  0  0  0  0  0  0  0  0  0  0  0
   56.7593  -23.5425   -6.5319 H   0  0  0  0  0  0  0  0  0  0  0  0
   57.0173  -25.2297   -6.0277 H   0  0  0  0  0  0  0  0  0  0  0  0
   57.0501  -25.7727   -3.7615 H   0  0  0  0  0  0  0  0  0  0  0  0
   55.4451  -25.0240   -3.5513 H   0  0  0  0  0  0  0  0  0  0  0  0
   56.4219  -23.3859   -1.9514 H   0  0  0  0  0  0  0  0  0  0  0  0
   58.0029  -24.1252   -2.1483 H   0  0  0  0  0  0  0  0  0  0  0  0
   57.0850  -26.3182   -1.3386 H   0  0  0  0  0  0  0  0  0  0  0  0
   55.4935  -25.5755   -1.1416 H   0  0  0  0  0  0  0  0  0  0  0  0
   56.4571  -23.9409    0.4840 H   0  0  0  0  0  0  0  0  0  0  0  0
   58.0493  -24.6839    0.2869 H   0  0  0  0  0  0  0  0  0  0  0  0
   57.1293  -26.8679    1.0819 H   0  0  0  0  0  0  0  0  0  0  0  0
   55.5364  -26.1265    1.2772 H   0  0  0  0  0  0  0  0  0  0  0  0
   56.4975  -24.4899    2.9040 H   0  0  0  0  0  0  0  0  0  0  0  0
   58.0904  -25.2313    2.7088 H   0  0  0  0  0  0  0  0  0  0  0  0
   57.1708  -27.4161    3.5028 H   0  0  0  0  0  0  0  0  0  0  0  0
   55.5780  -26.6747    3.6980 H   0  0  0  0  0  0  0  0  0  0  0  0
   56.5392  -25.0380    5.3247 H   0  0  0  0  0  0  0  0  0  0  0  0
   58.1320  -25.7793    5.1295 H   0  0  0  0  0  0  0  0  0  0  0  0
   57.2125  -27.9640    5.9237 H   0  0  0  0  0  0  0  0  0  0  0  0
   55.6197  -27.2227    6.1189 H   0  0  0  0  0  0  0  0  0  0  0  0
   56.5810  -25.5858    7.7456 H   0  0  0  0  0  0  0  0  0  0  0  0
   58.1738  -26.3272    7.5504 H   0  0  0  0  0  0  0  0  0  0  0  0
   57.2542  -28.5120    8.3444 H   0  0  0  0  0  0  0  0  0  0  0  0
   55.6614  -27.7706    8.5397 H   0  0  0  0  0  0  0  0  0  0  0  0
   56.6227  -26.1337   10.1663 H   0  0  0  0  0  0  0  0  0  0  0  0
   58.2155  -26.8751    9.9710 H   0  0  0  0  0  0  0  0  0  0  0  0
   57.2959  -29.0599   10.7650 H   0  0  0  0  0  0  0  0  0  0  0  0
   55.7032  -28.3185   10.9603 H   0  0  0  0  0  0  0  0  0  0  0  0
   56.6645  -26.6816   12.5869 H   0  0  0  0  0  0  0  0  0  0  0  0
   58.2572  -27.4229   12.3916 H   0  0  0  0  0  0  0  0  0  0  0  0
   57.3365  -29.6082   13.1848 H   0  0  0  0  0  0  0  0  0  0  0  0
   55.7447  -28.8654   13.3818 H   0  0  0  0  0  0  0  0  0  0  0  0
   56.7091  -27.2299   15.0080 H   0  0  0  0  0  0  0  0  0  0  0  0
   58.3010  -27.9727   14.8110 H   0  0  0  0  0  0  0  0  0  0  0  0
   57.3800  -30.1569   15.6051 H   0  0  0  0  0  0  0  0  0  0  0  0
   55.7882  -29.4141   15.8021 H   0  0  0  0  0  0  0  0  0  0  0  0
   56.7526  -27.7786   17.4283 H   0  0  0  0  0  0  0  0  0  0  0  0
   58.3445  -28.5214   17.2313 H   0  0  0  0  0  0  0  0  0  0  0  0
   57.4236  -30.7056   18.0253 H   0  0  0  0  0  0  0  0  0  0  0  0
   55.8317  -29.9628   18.2224 H   0  0  0  0  0  0  0  0  0  0  0  0
   56.7962  -28.3272   19.8484 H   0  0  0  0  0  0  0  0  0  0  0  0
   58.3881  -29.0700   19.6514 H   0  0  0  0  0  0  0  0  0  0  0  0
   57.4683  -31.2537   20.4460 H   0  0  0  0  0  0  0  0  0  0  0  0
   55.8754  -30.5124   20.6413 H   0  0  0  0  0  0  0  0  0  0  0  0
   56.8366  -28.8757   22.2680 H   0  0  0  0  0  0  0  0  0  0  0  0
   58.4295  -29.6171   22.0727 H   0  0  0  0  0  0  0  0  0  0  0  0
   57.5098  -31.8024   22.8659 H   0  0  0  0  0  0  0  0  0  0  0  0
   55.9166  -31.0609   23.0613 H   0  0  0  0  0  0  0  0  0  0  0  0
   56.8769  -29.4251   24.6884 H   0  0  0  0  0  0  0  0  0  0  0  0
   58.4704  -30.1643   24.4921 H   0  0  0  0  0  0  0  0  0  0  0  0
   57.5541  -32.3496   25.2877 H   0  0  0  0  0  0  0  0  0  0  0  0
   55.9611  -31.6088   25.4857 H   0  0  0  0  0  0  0  0  0  0  0  0
   56.9229  -29.9791   27.1245 H   0  0  0  0  0  0  0  0  0  0  0  0
   58.5157  -30.7198   26.9265 H   0  0  0  0  0  0  0  0  0  0  0  0
   56.0068  -32.1565   27.9339 H   0  0  0  0  0  0  0  0  0  0  0  0
   57.3696  -31.6116   28.9339 H   0  0  0  0  0  0  0  0  0  0  0  0
   57.6063  -32.9003   27.7350 H   0  0  0  0  0  0  0  0  0  0  0  0
  1  2  2  0  0  0  0
  2  3  1  0  0  0  0
  2 81  1  0  0  0  0
  3  4  1  0  0  0  0
  3 82  1  0  0  0  0
  3 83  1  0  0  0  0
  4  5  1  0  0  0  0
  4 84  1  0  0  0  0
  4 85  1  0  0  0  0
  5  6  1  0  0  0  0
  5 86  1  0  0  0  0
  5 87  1  0  0  0  0
  6  7  1  0  0  0  0
  7  8  1  0  0  0  0
  8  9  1  0  0  0  0
  9 10  1  0  0  0  0
 10 11  1  0  0  0  0
 11 12  1  0  0  0  0
 12 13  1  0  0  0  0
 13 14  1  0  0  0  0
 14 15  1  0  0  0  0
 15 16  1  0  0  0  0
 16 17  1  0  0  0  0
 17 18  1  0  0  0  0
 18 19  1  0  0  0  0
 18 88  1  0  0  0  0
 18 89  1  0  0  0  0
 19 20  1  0  0  0  0
 19 90  1  0  0  0  0
 19 91  1  0  0  0  0
 20 21  1  0  0  0  0
 20 92  1  0  0  0  0
 20 93  1  0  0  0  0
 21 22  1  0  0  0  0
 21 94  1  0  0  0  0
 21 95  1  0  0  0  0
 22 23  1  0  0  0  0
 22 96  1  0  0  0  0
 22 97  1  0  0  0  0
 23 24  1  0  0  0  0
 23 98  1  0  0  0  0
 23 99  1  0  0  0  0
 24 25  1  0  0  0  0
 24100  1  0  0  0  0
 24101  1  0  0  0  0
 25 26  1  0  0  0  0
 25102  1  0  0  0  0
 25103  1  0  0  0  0
 26 27  1  0  0  0  0
 26104  1  0  0  0  0
 26105  1  0  0  0  0
 27 28  1  0  0  0  0
 27106  1  0  0  0  0
 27107  1  0  0  0  0
 28 29  1  0  0  0  0
 28108  1  0  0  0  0
 28109  1  0  0  0  0
 29 30  1  0  0  0  0
 29110  1  0  0  0  0
 29111  1  0  0  0  0
 30 31  1  0  0  0  0
 30112  1  0  0  0  0
 30113  1  0  0  0  0
 31 32  1  0  0  0  0
 31114  1  0  0  0  0
 31115  1  0  0  0  0
 32 33  1  0  0  0  0
 32116  1  0  0  0  0
 32117  1  0  0  0  0
 33 34  1  0  0  0  0
 33118  1  0  0  0  0
 33119  1  0  0  0  0
 34 35  1  0  0  0  0
 34120  1  0  0  0  0
 34121  1  0  0  0  0
 35 36  1  0  0  0  0
 35122  1  0  0  0  0
 35123  1  0  0  0  0
 36 37  1  0  0  0  0
 36124  1  0  0  0  0
 36125  1  0  0  0  0
 37 38  1  0  0  0  0
 37126  1  0  0  0  0
 37127  1  0  0  0  0
 38 39  1  0  0  0  0
 38128  1  0  0  0  0
 38129  1  0  0  0  0
 39 40  1  0  0  0  0
 39130  1  0  0  0  0
 39131  1  0  0  0  0
 40 41  1  0  0  0  0
 40132  1  0  0  0  0
 40133  1  0  0  0  0
 41 42  1  0  0  0  0
 41134  1  0  0  0  0
 41135  1  0  0  0  0
 42 43  1  0  0  0  0
 42136  1  0  0  0  0
 42137  1  0  0  0  0
 43 44  1  0  0  0  0
 44 45  1  0  0  0  0
 44138  1  0  0  0  0
 44139  1  0  0  0  0
 45 46  1  0  0  0  0
 45140  1  0  0  0  0
 45141  1  0  0  0  0
 46 47  1  0  0  0  0
 46142  1  0  0  0  0
 46143  1  0  0  0  0
 47 48  1  0  0  0  0
 47144  1  0  0  0  0
 47145  1  0  0  0  0
 48 49  1  0  0  0  0
 48146  1  0  0  0  0
 48147  1  0  0  0  0
 49 50  1  0  0  0  0
 49148  1  0  0  0  0
 49149  1  0  0  0  0
 50 51  1  0  0  0  0
 50150  1  0  0  0  0
 50151  1  0  0  0  0
 51 52  1  0  0  0  0
 52 53  1  0  0  0  0
 52152  1  0  0  0  0
 52153  1  0  0  0  0
 53 54  1  0  0  0  0
 54 55  1  0  0  0  0
 54154  1  0  0  0  0
 54155  1  0  0  0  0
 55 56  1  0  0  0  0
 55156  1  0  0  0  0
 55157  1  0  0  0  0
 56 57  1  0  0  0  0
 56158  1  0  0  0  0
 56159  1  0  0  0  0
 57 58  1  0  0  0  0
 57160  1  0  0  0  0
 57161  1  0  0  0  0
 58 59  1  0  0  0  0
 58162  1  0  0  0  0
 58163  1  0  0  0  0
 59 60  1  0  0  0  0
 59164  1  0  0  0  0
 59165  1  0  0  0  0
 60 61  1  0  0  0  0
 60166  1  0  0  0  0
 60167  1  0  0  0  0
 61 62  1  0  0  0  0
 61168  1  0  0  0  0
 61169  1  0  0  0  0
 62 63  1  0  0  0  0
 62170  1  0  0  0  0
 62171  1  0  0  0  0
 63 64  1  0  0  0  0
 63172  1  0  0  0  0
 63173  1  0  0  0  0
 64 65  1  0  0  0  0
 64174  1  0  0  0  0
 64175  1  0  0  0  0
 65 66  1  0  0  0  0
 65176  1  0  0  0  0
 65177  1  0  0  0  0
 66 67  1  0  0  0  0
 66178  1  0  0  0  0
 66179  1  0  0  0  0
 67 68  1  0  0  0  0
 67180  1  0  0  0  0
 67181  1  0  0  0  0
 68 69  1  0  0  0  0
 68182  1  0  0  0  0
 68183  1  0  0  0  0
 69 70  1  0  0  0  0
 69184  1  0  0  0  0
 69185  1  0  0  0  0
 70 71  1  0  0  0  0
 70186  1  0  0  0  0
 70187  1  0  0  0  0
 71 72  1  0  0  0  0
 71188  1  0  0  0  0
 71189  1  0  0  0  0
 72 73  1  0  0  0  0
 72190  1  0  0  0  0
 72191  1  0  0  0  0
 73 74  1  0  0  0  0
 73192  1  0  0  0  0
 73193  1  0  0  0  0
 74 75  1  0  0  0  0
 74194  1  0  0  0  0
 74195  1  0  0  0  0
 75 76  1  0  0  0  0
 75196  1  0  0  0  0
 75197  1  0  0  0  0
 76 77  1  0  0  0  0
 76198  1  0  0  0  0
 76199  1  0  0  0  0
 77 78  1  0  0  0  0
 77200  1  0  0  0  0
 77201  1  0  0  0  0
 78 79  1  0  0  0  0
 78202  1  0  0  0  0
 78203  1  0  0  0  0
 79 80  1  0  0  0  0
 79204  1  0  0  0  0
 79205  1  0  0  0  0
 80206  1  0  0  0  0
 80207  1  0  0  0  0
 80208  1  0  0  0  0
M  END
$$$$
