
 OpenBabel04232216423D

 59 62  0  0  1  0  0  0  0  0999 V2000
    0.6958    1.0217   -0.0120 C   0  0  0  0  0  0  0  0  0  0  0  0
    2.1078    0.5537    0.0217 C   0  0  0  0  0  0  0  0  0  0  0  0
    2.4873   -0.5201    0.7228 C   0  0  0  0  0  0  0  0  0  0  0  0
    3.5312   -0.4346    1.6419 N   0  0  0  0  0  0  0  0  0  0  0  0
    4.8904   -0.2562    1.1079 C   0  0  0  0  0  0  0  0  0  0  0  0
    5.6884    0.9383    1.6110 C   0  0  0  0  0  0  0  0  0  0  0  0
    4.8883    2.1690    2.0036 C   0  0  0  0  0  0  0  0  0  0  0  0
    4.4269    2.0461    3.4388 C   0  0  0  0  0  0  0  0  0  0  0  0
    3.2096    1.1613    3.5947 C   0  0  0  0  0  0  0  0  0  0  0  0
    3.2518   -0.3083    3.1184 C   0  0  3  0  0  0  0  0  0  0  0  0
    1.8314   -0.8368    3.5431 C   0  0  0  0  0  0  0  0  0  0  0  0
    1.7037   -2.2934    4.0068 C   0  0  0  0  0  0  0  0  0  0  0  0
    0.4748   -3.0051    3.4076 C   0  0  0  0  0  0  0  0  0  0  0  0
    0.8652   -4.1686    2.4874 C   0  0  0  0  0  0  0  0  0  0  0  0
   -0.1040   -4.3449    1.3084 C   0  0  0  0  0  0  0  0  0  0  0  0
    0.3740   -3.6742    0.0067 C   0  0  0  0  0  0  0  0  0  0  0  0
    1.9477   -1.8319    0.4557 C   0  0  0  0  0  0  0  0  0  0  0  0
    0.6890   -2.1933    0.1532 C   0  0  0  0  0  0  0  0  0  0  0  0
   -0.4437   -1.2899    0.0800 C   0  0  0  0  0  0  0  0  0  0  0  0
   -0.4561    0.0564    0.0444 C   0  0  0  0  0  0  0  0  0  0  0  0
   -1.7773    0.7948    0.1993 C   0  0  0  0  0  0  0  0  0  0  0  0
   -2.3243    1.4576   -1.0189 C   0  0  0  0  0  0  0  0  0  0  0  0
   -2.0375    1.3968   -2.3677 C   0  0  0  0  0  0  0  0  0  0  0  0
   -2.9232    2.2980   -3.0032 C   0  0  0  0  0  0  0  0  0  0  0  0
   -3.6877    2.8461   -2.0025 C   0  0  0  0  0  0  0  0  0  0  0  0
   -3.3300    2.3440   -0.7949 O   0  0  0  0  0  0  0  0  0  0  0  0
    0.6212    1.6514    0.8903 H   0  0  0  0  0  0  0  0  0  0  0  0
    0.5811    1.7011   -0.8623 H   0  0  0  0  0  0  0  0  0  0  0  0
    2.7815    1.4015   -0.0154 H   0  0  0  0  0  0  0  0  0  0  0  0
    4.8350   -0.1489    0.0155 H   0  0  0  0  0  0  0  0  0  0  0  0
    5.4662   -1.1766    1.2673 H   0  0  0  0  0  0  0  0  0  0  0  0
    6.3918    1.2303    0.8203 H   0  0  0  0  0  0  0  0  0  0  0  0
    6.3173    0.6189    2.4517 H   0  0  0  0  0  0  0  0  0  0  0  0
    4.0418    2.3538    1.3349 H   0  0  0  0  0  0  0  0  0  0  0  0
    5.5278    3.0543    1.9219 H   0  0  0  0  0  0  0  0  0  0  0  0
    4.1612    3.0450    3.8072 H   0  0  0  0  0  0  0  0  0  0  0  0
    5.2406    1.6939    4.0841 H   0  0  0  0  0  0  0  0  0  0  0  0
    2.3570    1.6662    3.1212 H   0  0  0  0  0  0  0  0  0  0  0  0
    2.9982    1.1536    4.6733 H   0  0  0  0  0  0  0  0  0  0  0  0
    4.0255   -0.8611    3.6664 H   0  0  0  0  0  0  0  0  0  0  0  0
    1.0856   -0.6021    2.7894 H   0  0  0  0  0  0  0  0  0  0  0  0
    1.4727   -0.2601    4.4047 H   0  0  0  0  0  0  0  0  0  0  0  0
    1.5506   -2.2694    5.0970 H   0  0  0  0  0  0  0  0  0  0  0  0
    2.6303   -2.8620    3.8509 H   0  0  0  0  0  0  0  0  0  0  0  0
   -0.1771   -2.2876    2.8991 H   0  0  0  0  0  0  0  0  0  0  0  0
   -0.1385   -3.4130    4.2236 H   0  0  0  0  0  0  0  0  0  0  0  0
    0.8633   -5.0834    3.0920 H   0  0  0  0  0  0  0  0  0  0  0  0
    1.8909   -4.0658    2.1196 H   0  0  0  0  0  0  0  0  0  0  0  0
   -1.1061   -3.9867    1.5747 H   0  0  0  0  0  0  0  0  0  0  0  0
   -0.2078   -5.4188    1.1107 H   0  0  0  0  0  0  0  0  0  0  0  0
   -0.3783   -3.8290   -0.7780 H   0  0  0  0  0  0  0  0  0  0  0  0
    1.2634   -4.2134   -0.3487 H   0  0  0  0  0  0  0  0  0  0  0  0
    2.7060   -2.6118    0.5301 H   0  0  0  0  0  0  0  0  0  0  0  0
   -1.4085   -1.7988    0.1078 H   0  0  0  0  0  0  0  0  0  0  0  0
   -1.6426    1.5637    0.9703 H   0  0  0  0  0  0  0  0  0  0  0  0
   -2.5476    0.1243    0.5975 H   0  0  0  0  0  0  0  0  0  0  0  0
   -1.2800    0.7813   -2.8334 H   0  0  0  0  0  0  0  0  0  0  0  0
   -2.9984    2.5235   -4.0577 H   0  0  0  0  0  0  0  0  0  0  0  0
   -4.4978    3.5682   -1.9834 H   0  0  0  0  0  0  0  0  0  0  0  0
  1  2  1  0  0  0  0
  1 20  1  0  0  0  0
  1 27  1  0  0  0  0
  1 28  1  0  0  0  0
  2  3  2  0  0  0  0
  2 29  1  0  0  0  0
  3  4  1  0  0  0  0
  3 17  1  0  0  0  0
  4  5  1  0  0  0  0
  4 10  1  0  0  0  0
  5  6  1  0  0  0  0
  5 30  1  0  0  0  0
  5 31  1  0  0  0  0
  6  7  1  0  0  0  0
  6 32  1  0  0  0  0
  6 33  1  0  0  0  0
  7  8  1  0  0  0  0
  7 34  1  0  0  0  0
  7 35  1  0  0  0  0
  8  9  1  0  0  0  0
  8 36  1  0  0  0  0
  8 37  1  0  0  0  0
  9 10  1  0  0  0  0
  9 38  1  0  0  0  0
  9 39  1  0  0  0  0
 10 11  1  0  0  0  0
 10 40  1  0  0  0  0
 11 12  1  0  0  0  0
 11 41  1  0  0  0  0
 11 42  1  0  0  0  0
 12 13  1  0  0  0  0
 12 43  1  0  0  0  0
 12 44  1  0  0  0  0
 13 14  1  0  0  0  0
 13 45  1  0  0  0  0
 13 46  1  0  0  0  0
 14 15  1  0  0  0  0
 14 47  1  0  0  0  0
 14 48  1  0  0  0  0
 15 16  1  0  0  0  0
 15 49  1  0  0  0  0
 15 50  1  0  0  0  0
 16 18  1  0  0  0  0
 16 51  1  0  0  0  0
 16 52  1  0  0  0  0
 17 18  2  0  0  0  0
 17 53  1  0  0  0  0
 18 19  1  0  0  0  0
 19 20  2  0  0  0  0
 19 54  1  0  0  0  0
 20 21  1  0  0  0  0
 21 22  1  0  0  0  0
 21 55  1  0  0  0  0
 21 56  1  0  0  0  0
 22 23  2  0  0  0  0
 22 26  1  0  0  0  0
 23 24  1  0  0  0  0
 23 57  1  0  0  0  0
 24 25  2  0  0  0  0
 24 58  1  0  0  0  0
 25 26  1  0  0  0  0
 25 59  1  0  0  0  0
M  END
$$$$
