
 OpenBabel04232216573D

 47 46  0  0  0  0  0  0  0  0999 V2000
    1.5121    0.9709   -0.4237 N   0  0  0  0  0  0  0  0  0  0  0  0
    2.3334    0.0749    0.0053 C   0  0  0  0  0  0  0  0  0  0  0  0
    3.1155    0.2742    1.2797 C   0  0  0  0  0  0  0  0  0  0  0  0
    4.5531    0.2140    0.9698 N   0  0  0  0  0  0  0  0  0  0  0  0
    5.2802    0.4136    2.2148 N   0  0  0  0  0  0  0  0  0  0  0  0
    6.7176    0.3682    1.9402 C   0  0  0  0  0  0  0  0  0  0  0  0
    7.4809    0.5746    3.2459 C   0  0  0  0  0  0  0  0  0  0  0  0
    8.9828    0.5324    2.9935 C   0  0  0  0  0  0  0  0  0  0  0  0
    9.7582    0.7356    4.2902 C   0  0  0  0  0  0  0  0  0  0  0  0
   11.2541    0.6909    4.0110 C   0  0  0  0  0  0  0  0  0  0  0  0
   11.9879    0.8858    5.2550 N   0  0  0  0  0  0  0  0  0  0  0  0
   13.4219    0.8446    4.9936 C   0  0  0  0  0  0  0  0  0  0  0  0
   14.1809    1.0481    6.2968 C   0  0  0  0  0  0  0  0  0  0  0  0
   15.6826    1.0070    6.0359 C   0  0  0  0  0  0  0  0  0  0  0  0
   16.4571    1.2098    7.3306 C   0  0  0  0  0  0  0  0  0  0  0  0
   17.9594    1.1693    7.0763 C   0  0  0  0  0  0  0  0  0  0  0  0
   18.7260    1.3721    8.3701 C   0  0  0  0  0  0  0  0  0  0  0  0
    1.0703    0.6515   -1.2962 H   0  0  0  0  0  0  0  0  0  0  0  0
    2.4686   -0.8749   -0.5429 H   0  0  0  0  0  0  0  0  0  0  0  0
    2.8382   -0.5268    1.9738 H   0  0  0  0  0  0  0  0  0  0  0  0
    2.8451    1.2441    1.7123 H   0  0  0  0  0  0  0  0  0  0  0  0
    4.7625    0.9836    0.3223 H   0  0  0  0  0  0  0  0  0  0  0  0
    5.0598   -0.3209    2.8954 H   0  0  0  0  0  0  0  0  0  0  0  0
    6.9950    1.1572    1.2301 H   0  0  0  0  0  0  0  0  0  0  0  0
    6.9923   -0.5988    1.5012 H   0  0  0  0  0  0  0  0  0  0  0  0
    7.2097   -0.2037    3.9706 H   0  0  0  0  0  0  0  0  0  0  0  0
    7.2106    1.5405    3.6916 H   0  0  0  0  0  0  0  0  0  0  0  0
    9.2592    1.3113    2.2720 H   0  0  0  0  0  0  0  0  0  0  0  0
    9.2560   -0.4321    2.5476 H   0  0  0  0  0  0  0  0  0  0  0  0
    9.4848   -0.0451    5.0111 H   0  0  0  0  0  0  0  0  0  0  0  0
    9.4875    1.7007    4.7370 H   0  0  0  0  0  0  0  0  0  0  0  0
   11.5142    1.4800    3.2953 H   0  0  0  0  0  0  0  0  0  0  0  0
   11.5157   -0.2751    3.5619 H   0  0  0  0  0  0  0  0  0  0  0  0
   11.7379    0.1579    5.9239 H   0  0  0  0  0  0  0  0  0  0  0  0
   13.6972    1.6357    4.2856 H   0  0  0  0  0  0  0  0  0  0  0  0
   13.7008   -0.1199    4.5520 H   0  0  0  0  0  0  0  0  0  0  0  0
   13.9093    0.2669    7.0182 H   0  0  0  0  0  0  0  0  0  0  0  0
   13.9082    2.0124    6.7440 H   0  0  0  0  0  0  0  0  0  0  0  0
   15.9545    1.7873    5.3145 H   0  0  0  0  0  0  0  0  0  0  0  0
   15.9537    0.0431    5.5879 H   0  0  0  0  0  0  0  0  0  0  0  0
   16.1812    0.4293    8.0502 H   0  0  0  0  0  0  0  0  0  0  0  0
   16.1818    2.1734    7.7766 H   0  0  0  0  0  0  0  0  0  0  0  0
   18.2384    1.9501    6.3590 H   0  0  0  0  0  0  0  0  0  0  0  0
   18.2376    0.2060    6.6328 H   0  0  0  0  0  0  0  0  0  0  0  0
   18.4814    2.3405    8.8182 H   0  0  0  0  0  0  0  0  0  0  0  0
   19.8029    1.3422    8.1829 H   0  0  0  0  0  0  0  0  0  0  0  0
   18.4806    0.5878    9.0934 H   0  0  0  0  0  0  0  0  0  0  0  0
  1  2  2  0  0  0  0
  1 18  1  0  0  0  0
  2  3  1  0  0  0  0
  2 19  1  0  0  0  0
  3  4  1  0  0  0  0
  3 20  1  0  0  0  0
  3 21  1  0  0  0  0
  4  5  1  0  0  0  0
  4 22  1  0  0  0  0
  5  6  1  0  0  0  0
  5 23  1  0  0  0  0
  6  7  1  0  0  0  0
  6 24  1  0  0  0  0
  6 25  1  0  0  0  0
  7  8  1  0  0  0  0
  7 26  1  0  0  0  0
  7 27  1  0  0  0  0
  8  9  1  0  0  0  0
  8 28  1  0  0  0  0
  8 29  1  0  0  0  0
  9 10  1  0  0  0  0
  9 30  1  0  0  0  0
  9 31  1  0  0  0  0
 10 11  1  0  0  0  0
 10 32  1  0  0  0  0
 10 33  1  0  0  0  0
 11 12  1  0  0  0  0
 11 34  1  0  0  0  0
 12 13  1  0  0  0  0
 12 35  1  0  0  0  0
 12 36  1  0  0  0  0
 13 14  1  0  0  0  0
 13 37  1  0  0  0  0
 13 38  1  0  0  0  0
 14 15  1  0  0  0  0
 14 39  1  0  0  0  0
 14 40  1  0  0  0  0
 15 16  1  0  0  0  0
 15 41  1  0  0  0  0
 15 42  1  0  0  0  0
 16 17  1  0  0  0  0
 16 43  1  0  0  0  0
 16 44  1  0  0  0  0
 17 45  1  0  0  0  0
 17 46  1  0  0  0  0
 17 47  1  0  0  0  0
M  END
$$$$
