
 OpenBabel04232216443D

 53 54  0  0  0  0  0  0  0  0999 V2000
    0.7870   -0.4184    0.0157 C   0  0  0  0  0  0  0  0  0  0  0  0
    2.3062   -0.2079    0.0417 C   0  0  0  0  0  0  0  0  0  0  0  0
    2.7880    1.0691   -0.0964 C   0  0  0  0  0  0  0  0  0  0  0  0
    1.9337    2.3110   -0.3944 C   0  0  0  0  0  0  0  0  0  0  0  0
    1.8917    2.6013   -1.9039 C   0  0  0  0  0  0  0  0  0  0  0  0
    1.2344    3.9355   -2.2776 C   0  0  0  0  0  0  0  0  0  0  0  0
    2.0082    5.1477   -1.7505 C   0  0  0  0  0  0  0  0  0  0  0  0
    1.4012    6.4701   -2.2227 C   0  0  0  0  0  0  0  0  0  0  0  0
    2.1763    7.6574   -1.6463 C   0  0  0  0  0  0  0  0  0  0  0  0
    1.5762    8.9866   -2.1007 C   0  0  0  0  0  0  0  0  0  0  0  0
    2.3382   10.1711   -1.5279 C   0  0  0  0  0  0  0  0  0  0  0  0
    4.2456    1.4847    0.0422 C   0  0  0  0  0  0  0  0  0  0  0  0
    4.7400    1.5235    1.4892 C   0  0  0  0  0  0  0  0  0  0  0  0
    4.5457    0.2502    2.3048 C   0  0  0  0  0  0  0  0  0  0  0  0
    5.1922   -0.9903    1.6993 C   0  0  0  0  0  0  0  0  0  0  0  0
    4.6507   -1.4619    0.3503 C   0  0  0  0  0  0  0  0  0  0  0  0
    3.1286   -1.5078    0.2561 C   0  0  0  0  0  0  0  0  0  0  0  0
    2.5074   -2.6531    1.0473 C   0  0  0  0  0  0  0  0  0  0  0  0
    2.6030   -2.7596   -0.4448 C   0  0  0  0  0  0  0  0  0  0  0  0
    0.1910    0.4875   -0.0807 H   0  0  0  0  0  0  0  0  0  0  0  0
    0.4467   -0.8739    0.9494 H   0  0  0  0  0  0  0  0  0  0  0  0
    0.4882   -1.0483   -0.8250 H   0  0  0  0  0  0  0  0  0  0  0  0
    2.3679    3.1594    0.1478 H   0  0  0  0  0  0  0  0  0  0  0  0
    0.9203    2.2533    0.0085 H   0  0  0  0  0  0  0  0  0  0  0  0
    1.3413    1.7941   -2.4032 H   0  0  0  0  0  0  0  0  0  0  0  0
    2.9071    2.5848   -2.3214 H   0  0  0  0  0  0  0  0  0  0  0  0
    0.2018    3.9591   -1.9108 H   0  0  0  0  0  0  0  0  0  0  0  0
    1.1824    3.9958   -3.3724 H   0  0  0  0  0  0  0  0  0  0  0  0
    3.0523    5.0874   -2.0830 H   0  0  0  0  0  0  0  0  0  0  0  0
    2.0145    5.1394   -0.6554 H   0  0  0  0  0  0  0  0  0  0  0  0
    0.3521    6.5251   -1.9069 H   0  0  0  0  0  0  0  0  0  0  0  0
    1.4146    6.5156   -3.3181 H   0  0  0  0  0  0  0  0  0  0  0  0
    3.2256    7.6000   -1.9603 H   0  0  0  0  0  0  0  0  0  0  0  0
    2.1656    7.6068   -0.5499 H   0  0  0  0  0  0  0  0  0  0  0  0
    0.5282    9.0479   -1.7854 H   0  0  0  0  0  0  0  0  0  0  0  0
    1.5905    9.0453   -3.1951 H   0  0  0  0  0  0  0  0  0  0  0  0
    2.3162   10.1606   -0.4334 H   0  0  0  0  0  0  0  0  0  0  0  0
    1.8879   11.1093   -1.8673 H   0  0  0  0  0  0  0  0  0  0  0  0
    3.3839   10.1595   -1.8512 H   0  0  0  0  0  0  0  0  0  0  0  0
    4.3810    2.5010   -0.3561 H   0  0  0  0  0  0  0  0  0  0  0  0
    4.8985    0.9133   -0.6147 H   0  0  0  0  0  0  0  0  0  0  0  0
    4.2304    2.3414    2.0153 H   0  0  0  0  0  0  0  0  0  0  0  0
    5.8058    1.7847    1.4841 H   0  0  0  0  0  0  0  0  0  0  0  0
    3.4810    0.0718    2.4967 H   0  0  0  0  0  0  0  0  0  0  0  0
    4.9869    0.4135    3.2966 H   0  0  0  0  0  0  0  0  0  0  0  0
    5.0740   -1.8072    2.4227 H   0  0  0  0  0  0  0  0  0  0  0  0
    6.2732   -0.8290    1.6059 H   0  0  0  0  0  0  0  0  0  0  0  0
    5.0510   -2.4800    0.2170 H   0  0  0  0  0  0  0  0  0  0  0  0
    5.0883   -0.9421   -0.4988 H   0  0  0  0  0  0  0  0  0  0  0  0
    1.5297   -2.5596    1.5002 H   0  0  0  0  0  0  0  0  0  0  0  0
    3.1583   -3.2928    1.6354 H   0  0  0  0  0  0  0  0  0  0  0  0
    1.6838   -2.7454   -1.0158 H   0  0  0  0  0  0  0  0  0  0  0  0
    3.3129   -3.4676   -0.8569 H   0  0  0  0  0  0  0  0  0  0  0  0
  1  2  1  0  0  0  0
  1 20  1  0  0  0  0
  1 21  1  0  0  0  0
  1 22  1  0  0  0  0
  2  3  2  0  0  0  0
  2 17  1  0  0  0  0
  3  4  1  0  0  0  0
  3 12  1  0  0  0  0
  4  5  1  0  0  0  0
  4 23  1  0  0  0  0
  4 24  1  0  0  0  0
  5  6  1  0  0  0  0
  5 25  1  0  0  0  0
  5 26  1  0  0  0  0
  6  7  1  0  0  0  0
  6 27  1  0  0  0  0
  6 28  1  0  0  0  0
  7  8  1  0  0  0  0
  7 29  1  0  0  0  0
  7 30  1  0  0  0  0
  8  9  1  0  0  0  0
  8 31  1  0  0  0  0
  8 32  1  0  0  0  0
  9 10  1  0  0  0  0
  9 33  1  0  0  0  0
  9 34  1  0  0  0  0
 10 11  1  0  0  0  0
 10 35  1  0  0  0  0
 10 36  1  0  0  0  0
 11 37  1  0  0  0  0
 11 38  1  0  0  0  0
 11 39  1  0  0  0  0
 12 13  1  0  0  0  0
 12 40  1  0  0  0  0
 12 41  1  0  0  0  0
 13 14  1  0  0  0  0
 13 42  1  0  0  0  0
 13 43  1  0  0  0  0
 14 15  1  0  0  0  0
 14 44  1  0  0  0  0
 14 45  1  0  0  0  0
 15 16  1  0  0  0  0
 15 46  1  0  0  0  0
 15 47  1  0  0  0  0
 16 17  1  0  0  0  0
 16 48  1  0  0  0  0
 16 49  1  0  0  0  0
 17 18  1  0  0  0  0
 17 19  1  0  0  0  0
 18 19  1  0  0  0  0
 18 50  1  0  0  0  0
 18 51  1  0  0  0  0
 19 52  1  0  0  0  0
 19 53  1  0  0  0  0
M  END
$$$$
