
 OpenBabel04232216473D

197197  0  0  1  0  0  0  0  0999 V2000
   -4.7346   12.5763  -39.4507 C   0  0  0  0  0  0  0  0  0  0  0  0
   -4.3067   11.1661  -39.5700 C   0  0  3  0  0  0  0  0  0  0  0  0
   -3.3860   10.7894  -40.5130 C   0  0  0  0  0  0  0  0  0  0  0  0
   -4.6184   10.4340  -40.9321 C   0  0  0  0  0  0  0  0  0  0  0  0
   -6.1608   10.2799  -40.8808 C   0  0  0  0  0  0  0  0  0  0  0  0
   -6.8188    9.0411  -41.5464 C   0  0  0  0  0  0  0  0  0  0  0  0
   -8.3691    8.9962  -41.4481 C   0  0  0  0  0  0  0  0  0  0  0  0
   -8.7804    8.9698  -40.0786 O   0  0  0  0  0  0  0  0  0  0  0  0
  -10.2034    8.8885  -39.9542 C   0  0  0  0  0  0  0  0  0  0  0  0
  -10.7446    7.7209  -40.5595 O   0  0  0  0  0  0  0  0  0  0  0  0
  -10.1917    6.5588  -39.9577 C   0  0  0  0  0  0  0  0  0  0  0  0
  -10.7188    5.3822  -40.5689 O   0  0  0  0  0  0  0  0  0  0  0  0
  -10.1660    4.2203  -39.9553 C   0  0  0  0  0  0  0  0  0  0  0  0
  -10.4882    4.1537  -38.5674 O   0  0  0  0  0  0  0  0  0  0  0  0
   -9.9177    3.0007  -37.9870 C   0  0  0  0  0  0  0  0  0  0  0  0
   -8.5078    2.9888  -38.1265 O   0  0  0  0  0  0  0  0  0  0  0  0
   -7.9751    1.8214  -37.5335 C   0  0  0  0  0  0  0  0  0  0  0  0
   -6.4769    1.8416  -37.7104 C   0  0  0  0  0  0  0  0  0  0  0  0
   -5.9468    0.6663  -37.1053 O   0  0  0  0  0  0  0  0  0  0  0  0
   -4.5103    0.7031  -37.2900 N   0  0  0  0  0  0  0  0  0  0  0  0
   -4.0108   -0.5154  -36.6619 C   0  0  0  0  0  0  0  0  0  0  0  0
   -2.5083   -0.5188  -36.8237 C   0  0  0  0  0  0  0  0  0  0  0  0
   -1.9928   -1.6850  -36.2108 O   0  0  0  0  0  0  0  0  0  0  0  0
   -0.5489   -1.6409  -36.3999 N   0  0  0  0  0  0  0  0  0  0  0  0
   -0.0484   -2.8737  -35.7776 C   0  0  0  0  0  0  0  0  0  0  0  0
   -0.6491   -4.0917  -36.4690 C   0  0  0  0  0  0  0  0  0  0  0  0
   -0.1536   -5.2896  -35.8762 O   0  0  0  0  0  0  0  0  0  0  0  0
   -0.7815   -6.4079  -36.5718 N   0  0  0  0  0  0  0  0  0  0  0  0
   -0.2400   -7.5914  -35.9268 C   0  0  0  0  0  0  0  0  0  0  0  0
   -0.8568   -8.7903  -36.6234 C   0  0  0  0  0  0  0  0  0  0  0  0
   -0.3523   -9.9829  -36.0288 O   0  0  0  0  0  0  0  0  0  0  0  0
   -0.9805  -11.0902  -36.7267 N   0  0  0  0  0  0  0  0  0  0  0  0
   -0.4518  -12.3001  -36.1000 C   0  0  0  0  0  0  0  0  0  0  0  0
   -1.0677  -13.5083  -36.7960 C   0  0  0  0  0  0  0  0  0  0  0  0
   -0.5438  -14.7941  -36.1729 C   0  0  0  0  0  0  0  0  0  0  0  0
   -1.1371  -15.9418  -36.8352 N   0  0  0  0  0  0  0  0  0  0  0  0
   -0.6387  -17.1906  -36.2519 C   0  0  0  0  0  0  0  0  0  0  0  0
   -1.2748  -18.3825  -36.9682 C   0  0  0  0  0  0  0  0  0  0  0  0
   -0.9161  -18.3608  -38.4522 C   0  0  0  0  0  0  0  0  0  0  0  0
   -1.5175  -19.5017  -39.1466 N   0  0  0  0  0  0  0  0  0  0  0  0
   -1.1652  -19.4582  -40.5559 C   0  0  0  0  0  0  0  0  0  0  0  0
   -1.7921  -20.6478  -41.2654 C   0  0  0  0  0  0  0  0  0  0  0  0
   -1.4250  -20.6119  -42.7420 C   0  0  0  0  0  0  0  0  0  0  0  0
   -2.0291  -21.7558  -43.4117 N   0  0  0  0  0  0  0  0  0  0  0  0
   -1.6785  -21.7241  -44.8311 C   0  0  0  0  0  0  0  0  0  0  0  0
   -2.3044  -22.9141  -45.5530 C   0  0  0  0  0  0  0  0  0  0  0  0
   -1.9380  -22.8748  -47.0261 C   0  0  0  0  0  0  0  0  0  0  0  0
   -0.5179  -22.9340  -47.1607 O   0  0  0  0  0  0  0  0  0  0  0  0
   -0.2224  -22.9090  -48.5775 N   0  0  0  0  0  0  0  0  0  0  0  0
    1.2414  -22.9588  -48.6689 C   0  0  0  0  0  0  0  0  0  0  0  0
    1.6349  -22.9398  -50.1470 C   0  0  0  0  0  0  0  0  0  0  0  0
    1.1600  -21.7526  -50.7736 O   0  0  0  0  0  0  0  0  0  0  0  0
    1.5643  -21.7657  -52.1815 N   0  0  0  0  0  0  0  0  0  0  0  0
    1.0569  -20.4998  -52.7058 C   0  0  0  0  0  0  0  0  0  0  0  0
    1.7129  -19.3695  -51.9361 C   0  0  0  0  0  0  0  0  0  0  0  0
    1.2293  -18.0351  -52.4522 C   0  0  0  0  0  0  0  0  0  0  0  0
    1.8652  -16.9623  -51.6920 N   0  0  0  0  0  0  0  0  0  0  0  0
    1.4118  -15.6674  -52.1798 C   0  0  0  0  0  0  0  0  0  0  0  0
    2.0818  -14.5644  -51.3815 C   0  0  0  0  0  0  0  0  0  0  0  0
    1.6014  -13.2180  -51.8972 C   0  0  0  0  0  0  0  0  0  0  0  0
    2.2553  -12.1635  -51.1210 N   0  0  0  0  0  0  0  0  0  0  0  0
    1.7922  -10.9003  -51.6236 N   0  0  0  0  0  0  0  0  0  0  0  0
    2.4337   -9.8387  -50.8516 C   0  0  0  0  0  0  0  0  0  0  0  0
    1.9620   -8.4759  -51.3607 C   0  0  0  0  0  0  0  0  0  0  0  0
    2.6295   -7.3557  -50.5675 C   0  0  0  0  0  0  0  0  0  0  0  0
    2.1705   -6.0535  -51.0628 N   0  0  0  0  0  0  0  0  0  0  0  0
    2.8031   -4.9851  -50.3054 C   0  0  0  0  0  0  0  0  0  0  0  0
    2.3227   -3.6282  -50.8161 C   0  0  0  0  0  0  0  0  0  0  0  0
    2.9882   -2.5103  -50.0202 C   0  0  0  0  0  0  0  0  0  0  0  0
    2.5285   -1.2126  -50.5033 N   0  0  0  0  0  0  0  0  0  0  0  0
    3.1626   -0.1373  -49.7463 C   0  0  0  0  0  0  0  0  0  0  0  0
    2.6791    1.2184  -50.2615 C   0  0  0  0  0  0  0  0  0  0  0  0
    3.3395    2.3401  -49.4678 C   0  0  0  0  0  0  0  0  0  0  0  0
    2.8844    3.6465  -49.9449 N   0  0  0  0  0  0  0  0  0  0  0  0
    3.5263    4.7106  -49.1846 C   0  0  0  0  0  0  0  0  0  0  0  0
    3.0393    6.0610  -49.6999 C   0  0  0  0  0  0  0  0  0  0  0  0
    3.7003    7.1805  -48.9097 C   0  0  0  0  0  0  0  0  0  0  0  0
    3.2457    8.4870  -49.3924 N   0  0  0  0  0  0  0  0  0  0  0  0
    3.8834    9.5503  -48.6321 C   0  0  0  0  0  0  0  0  0  0  0  0
   -4.1657   13.0816  -38.6663 H   0  0  0  0  0  0  0  0  0  0  0  0
   -5.8015   12.6130  -39.2122 H   0  0  0  0  0  0  0  0  0  0  0  0
   -4.5810   13.1212  -40.3901 H   0  0  0  0  0  0  0  0  0  0  0  0
   -4.3823   10.5599  -38.6708 H   0  0  0  0  0  0  0  0  0  0  0  0
   -2.3542   10.8729  -40.6191 H   0  0  0  0  0  0  0  0  0  0  0  0
   -6.6139   11.1594  -41.3627 H   0  0  0  0  0  0  0  0  0  0  0  0
   -6.5021   10.3087  -39.8360 H   0  0  0  0  0  0  0  0  0  0  0  0
   -6.4250    8.1376  -41.0719 H   0  0  0  0  0  0  0  0  0  0  0  0
   -6.5490    9.0101  -42.6077 H   0  0  0  0  0  0  0  0  0  0  0  0
   -8.7428    8.0869  -41.9474 H   0  0  0  0  0  0  0  0  0  0  0  0
   -8.8280    9.8591  -41.9443 H   0  0  0  0  0  0  0  0  0  0  0  0
  -10.6599    9.7713  -40.4196 H   0  0  0  0  0  0  0  0  0  0  0  0
  -10.4685    8.8991  -38.8883 H   0  0  0  0  0  0  0  0  0  0  0  0
  -10.4404    6.5533  -38.8897 H   0  0  0  0  0  0  0  0  0  0  0  0
   -9.1012    6.5528  -40.0777 H   0  0  0  0  0  0  0  0  0  0  0  0
   -9.0785    4.2239  -40.1040 H   0  0  0  0  0  0  0  0  0  0  0  0
  -10.5861    3.3400  -40.4592 H   0  0  0  0  0  0  0  0  0  0  0  0
  -10.3558    2.1211  -38.4689 H   0  0  0  0  0  0  0  0  0  0  0  0
  -10.1842    2.9989  -36.9251 H   0  0  0  0  0  0  0  0  0  0  0  0
   -8.3993    0.9299  -38.0082 H   0  0  0  0  0  0  0  0  0  0  0  0
   -8.2288    1.7953  -36.4687 H   0  0  0  0  0  0  0  0  0  0  0  0
   -6.0590    2.7347  -37.2277 H   0  0  0  0  0  0  0  0  0  0  0  0
   -6.2204    1.8828  -38.7774 H   0  0  0  0  0  0  0  0  0  0  0  0
   -4.2549    1.5005  -36.7064 H   0  0  0  0  0  0  0  0  0  0  0  0
   -4.4439   -1.4049  -37.1336 H   0  0  0  0  0  0  0  0  0  0  0  0
   -4.2771   -0.5538  -35.5974 H   0  0  0  0  0  0  0  0  0  0  0  0
   -2.0754    0.3573  -36.3263 H   0  0  0  0  0  0  0  0  0  0  0  0
   -2.2382   -0.4985  -37.8862 H   0  0  0  0  0  0  0  0  0  0  0  0
   -0.3055   -0.8509  -35.8117 H   0  0  0  0  0  0  0  0  0  0  0  0
   -0.2836   -2.8934  -34.7058 H   0  0  0  0  0  0  0  0  0  0  0  0
    1.0467   -2.9116  -35.8516 H   0  0  0  0  0  0  0  0  0  0  0  0
   -0.3723   -4.0798  -37.5298 H   0  0  0  0  0  0  0  0  0  0  0  0
   -1.7429   -4.0679  -36.3886 H   0  0  0  0  0  0  0  0  0  0  0  0
   -0.3731   -6.3413  -37.5072 H   0  0  0  0  0  0  0  0  0  0  0  0
   -0.4856   -7.6160  -34.8598 H   0  0  0  0  0  0  0  0  0  0  0  0
    0.8532   -7.6365  -36.0116 H   0  0  0  0  0  0  0  0  0  0  0  0
   -0.5909   -8.7864  -37.6893 H   0  0  0  0  0  0  0  0  0  0  0  0
   -1.9513   -8.7651  -36.5324 H   0  0  0  0  0  0  0  0  0  0  0  0
   -0.5700  -11.0057  -37.6568 H   0  0  0  0  0  0  0  0  0  0  0  0
   -0.7087  -12.3116  -35.0350 H   0  0  0  0  0  0  0  0  0  0  0  0
    0.6422  -12.3341  -36.1848 H   0  0  0  0  0  0  0  0  0  0  0  0
   -0.8271  -13.4865  -37.8678 H   0  0  0  0  0  0  0  0  0  0  0  0
   -2.1614  -13.4710  -36.7074 H   0  0  0  0  0  0  0  0  0  0  0  0
   -0.8027  -14.8194  -35.1102 H   0  0  0  0  0  0  0  0  0  0  0  0
    0.5452  -14.8348  -36.2656 H   0  0  0  0  0  0  0  0  0  0  0  0
   -0.9085  -15.9182  -37.8301 H   0  0  0  0  0  0  0  0  0  0  0  0
   -0.8905  -17.2328  -35.1880 H   0  0  0  0  0  0  0  0  0  0  0  0
    0.4536  -17.2516  -36.3483 H   0  0  0  0  0  0  0  0  0  0  0  0
   -2.3655  -18.3658  -36.8424 H   0  0  0  0  0  0  0  0  0  0  0  0
   -0.9217  -19.3115  -36.5042 H   0  0  0  0  0  0  0  0  0  0  0  0
    0.1755  -18.3891  -38.5568 H   0  0  0  0  0  0  0  0  0  0  0  0
   -1.2745  -17.4337  -38.9105 H   0  0  0  0  0  0  0  0  0  0  0  0
   -2.5301  -19.4630  -39.0200 H   0  0  0  0  0  0  0  0  0  0  0  0
   -0.0750  -19.4980  -40.6663 H   0  0  0  0  0  0  0  0  0  0  0  0
   -1.5210  -18.5250  -41.0063 H   0  0  0  0  0  0  0  0  0  0  0  0
   -2.8831  -20.6211  -41.1491 H   0  0  0  0  0  0  0  0  0  0  0  0
   -1.4375  -21.5844  -40.8142 H   0  0  0  0  0  0  0  0  0  0  0  0
   -0.3333  -20.6459  -42.8480 H   0  0  0  0  0  0  0  0  0  0  0  0
   -1.7794  -19.6734  -43.1873 H   0  0  0  0  0  0  0  0  0  0  0  0
   -3.0427  -21.7194  -43.3173 H   0  0  0  0  0  0  0  0  0  0  0  0
   -0.5869  -21.7568  -44.9483 H   0  0  0  0  0  0  0  0  0  0  0  0
   -2.0322  -20.7922  -45.2944 H   0  0  0  0  0  0  0  0  0  0  0  0
   -3.3949  -22.8971  -45.4473 H   0  0  0  0  0  0  0  0  0  0  0  0
   -1.9467  -23.8512  -45.1098 H   0  0  0  0  0  0  0  0  0  0  0  0
   -2.3024  -21.9435  -47.4765 H   0  0  0  0  0  0  0  0  0  0  0  0
   -2.3956  -23.7236  -47.5473 H   0  0  0  0  0  0  0  0  0  0  0  0
   -0.5126  -21.9614  -48.8400 H   0  0  0  0  0  0  0  0  0  0  0  0
    1.6180  -23.8785  -48.2074 H   0  0  0  0  0  0  0  0  0  0  0  0
    1.6974  -22.1093  -48.1441 H   0  0  0  0  0  0  0  0  0  0  0  0
    1.1736  -23.7890  -50.6578 H   0  0  0  0  0  0  0  0  0  0  0  0
    2.7216  -23.0013  -50.2430 H   0  0  0  0  0  0  0  0  0  0  0  0
    0.9853  -22.5103  -52.5657 H   0  0  0  0  0  0  0  0  0  0  0  0
   -0.0379  -20.4623  -52.6201 H   0  0  0  0  0  0  0  0  0  0  0  0
    1.2984  -20.4327  -53.7762 H   0  0  0  0  0  0  0  0  0  0  0  0
    2.8023  -19.4513  -52.0293 H   0  0  0  0  0  0  0  0  0  0  0  0
    1.4711  -19.4626  -50.8712 H   0  0  0  0  0  0  0  0  0  0  0  0
    0.1396  -17.9706  -52.3515 H   0  0  0  0  0  0  0  0  0  0  0  0
    1.4808  -17.9413  -53.5147 H   0  0  0  0  0  0  0  0  0  0  0  0
    2.8796  -17.0349  -51.7800 H   0  0  0  0  0  0  0  0  0  0  0  0
    0.3234  -15.5868  -52.0722 H   0  0  0  0  0  0  0  0  0  0  0  0
    1.6571  -15.5566  -53.2434 H   0  0  0  0  0  0  0  0  0  0  0  0
    3.1730  -14.6380  -51.4764 H   0  0  0  0  0  0  0  0  0  0  0  0
    1.8373  -14.6663  -50.3162 H   0  0  0  0  0  0  0  0  0  0  0  0
    0.5113  -13.1473  -51.7919 H   0  0  0  0  0  0  0  0  0  0  0  0
    1.8469  -13.1160  -52.9637 H   0  0  0  0  0  0  0  0  0  0  0  0
    3.2617  -12.2686  -51.2652 H   0  0  0  0  0  0  0  0  0  0  0  0
    0.7798  -10.8435  -51.4946 H   0  0  0  0  0  0  0  0  0  0  0  0
    3.5243   -9.8989  -50.9569 H   0  0  0  0  0  0  0  0  0  0  0  0
    2.1894   -9.9316  -49.7861 H   0  0  0  0  0  0  0  0  0  0  0  0
    0.8713   -8.3966  -51.2660 H   0  0  0  0  0  0  0  0  0  0  0  0
    2.2053   -8.3669  -52.4255 H   0  0  0  0  0  0  0  0  0  0  0  0
    3.7197   -7.4296  -50.6712 H   0  0  0  0  0  0  0  0  0  0  0  0
    2.3819   -7.4609  -49.5024 H   0  0  0  0  0  0  0  0  0  0  0  0
    1.1561   -5.9988  -50.9680 H   0  0  0  0  0  0  0  0  0  0  0  0
    3.8916   -5.0437  -50.4153 H   0  0  0  0  0  0  0  0  0  0  0  0
    2.5635   -5.0773  -49.2398 H   0  0  0  0  0  0  0  0  0  0  0  0
    1.2314   -3.5552  -50.7192 H   0  0  0  0  0  0  0  0  0  0  0  0
    2.5653   -3.5204  -51.8816 H   0  0  0  0  0  0  0  0  0  0  0  0
    4.0773   -2.5825  -50.1264 H   0  0  0  0  0  0  0  0  0  0  0  0
    2.7429   -2.6187  -48.9575 H   0  0  0  0  0  0  0  0  0  0  0  0
    1.5147   -1.1398  -50.4148 H   0  0  0  0  0  0  0  0  0  0  0  0
    4.2532   -0.1959  -49.8517 H   0  0  0  0  0  0  0  0  0  0  0  0
    2.9207   -0.2315  -48.6800 H   0  0  0  0  0  0  0  0  0  0  0  0
    1.5879    1.2860  -50.1656 H   0  0  0  0  0  0  0  0  0  0  0  0
    2.9235    1.3211  -51.3267 H   0  0  0  0  0  0  0  0  0  0  0  0
    4.4285    2.2656  -49.5741 H   0  0  0  0  0  0  0  0  0  0  0  0
    3.0953    2.2278  -48.4058 H   0  0  0  0  0  0  0  0  0  0  0  0
    1.8726    3.7264  -49.8510 H   0  0  0  0  0  0  0  0  0  0  0  0
    4.6158    4.6456  -49.2927 H   0  0  0  0  0  0  0  0  0  0  0  0
    3.2833    4.6104  -48.1190 H   0  0  0  0  0  0  0  0  0  0  0  0
    1.9486    6.1273  -49.6019 H   0  0  0  0  0  0  0  0  0  0  0  0
    3.2807    6.1617  -50.7653 H   0  0  0  0  0  0  0  0  0  0  0  0
    4.7896    7.1054  -49.0165 H   0  0  0  0  0  0  0  0  0  0  0  0
    3.4584    7.0702  -47.8452 H   0  0  0  0  0  0  0  0  0  0  0  0
    2.2334    8.5605  -49.2936 H   0  0  0  0  0  0  0  0  0  0  0  0
    4.9713    9.5131  -48.7463 H   0  0  0  0  0  0  0  0  0  0  0  0
    3.6315    9.4801  -47.5689 H   0  0  0  0  0  0  0  0  0  0  0  0
    3.5413   10.5215  -49.0005 H   0  0  0  0  0  0  0  0  0  0  0  0
  1  2  1  0  0  0  0
  1 80  1  0  0  0  0
  1 81  1  0  0  0  0
  1 82  1  0  0  0  0
  2  3  1  0  0  0  0
  2  4  1  0  0  0  0
  2 83  1  0  0  0  0
  3  4  2  0  0  0  0
  3 84  1  0  0  0  0
  4  5  1  0  0  0  0
  5  6  1  0  0  0  0
  5 85  1  0  0  0  0
  5 86  1  0  0  0  0
  6  7  1  0  0  0  0
  6 87  1  0  0  0  0
  6 88  1  0  0  0  0
  7  8  1  0  0  0  0
  7 89  1  0  0  0  0
  7 90  1  0  0  0  0
  8  9  1  0  0  0  0
  9 10  1  0  0  0  0
  9 91  1  0  0  0  0
  9 92  1  0  0  0  0
 10 11  1  0  0  0  0
 11 12  1  0  0  0  0
 11 93  1  0  0  0  0
 11 94  1  0  0  0  0
 12 13  1  0  0  0  0
 13 14  1  0  0  0  0
 13 95  1  0  0  0  0
 13 96  1  0  0  0  0
 14 15  1  0  0  0  0
 15 16  1  0  0  0  0
 15 97  1  0  0  0  0
 15 98  1  0  0  0  0
 16 17  1  0  0  0  0
 17 18  1  0  0  0  0
 17 99  1  0  0  0  0
 17100  1  0  0  0  0
 18 19  1  0  0  0  0
 18101  1  0  0  0  0
 18102  1  0  0  0  0
 19 20  1  0  0  0  0
 20 21  1  0  0  0  0
 20103  1  0  0  0  0
 21 22  1  0  0  0  0
 21104  1  0  0  0  0
 21105  1  0  0  0  0
 22 23  1  0  0  0  0
 22106  1  0  0  0  0
 22107  1  0  0  0  0
 23 24  1  0  0  0  0
 24 25  1  0  0  0  0
 24108  1  0  0  0  0
 25 26  1  0  0  0  0
 25109  1  0  0  0  0
 25110  1  0  0  0  0
 26 27  1  0  0  0  0
 26111  1  0  0  0  0
 26112  1  0  0  0  0
 27 28  1  0  0  0  0
 28 29  1  0  0  0  0
 28113  1  0  0  0  0
 29 30  1  0  0  0  0
 29114  1  0  0  0  0
 29115  1  0  0  0  0
 30 31  1  0  0  0  0
 30116  1  0  0  0  0
 30117  1  0  0  0  0
 31 32  1  0  0  0  0
 32 33  1  0  0  0  0
 32118  1  0  0  0  0
 33 34  1  0  0  0  0
 33119  1  0  0  0  0
 33120  1  0  0  0  0
 34 35  1  0  0  0  0
 34121  1  0  0  0  0
 34122  1  0  0  0  0
 35 36  1  0  0  0  0
 35123  1  0  0  0  0
 35124  1  0  0  0  0
 36 37  1  0  0  0  0
 36125  1  0  0  0  0
 37 38  1  0  0  0  0
 37126  1  0  0  0  0
 37127  1  0  0  0  0
 38 39  1  0  0  0  0
 38128  1  0  0  0  0
 38129  1  0  0  0  0
 39 40  1  0  0  0  0
 39130  1  0  0  0  0
 39131  1  0  0  0  0
 40 41  1  0  0  0  0
 40132  1  0  0  0  0
 41 42  1  0  0  0  0
 41133  1  0  0  0  0
 41134  1  0  0  0  0
 42 43  1  0  0  0  0
 42135  1  0  0  0  0
 42136  1  0  0  0  0
 43 44  1  0  0  0  0
 43137  1  0  0  0  0
 43138  1  0  0  0  0
 44 45  1  0  0  0  0
 44139  1  0  0  0  0
 45 46  1  0  0  0  0
 45140  1  0  0  0  0
 45141  1  0  0  0  0
 46 47  1  0  0  0  0
 46142  1  0  0  0  0
 46143  1  0  0  0  0
 47 48  1  0  0  0  0
 47144  1  0  0  0  0
 47145  1  0  0  0  0
 48 49  1  0  0  0  0
 49 50  1  0  0  0  0
 49146  1  0  0  0  0
 50 51  1  0  0  0  0
 50147  1  0  0  0  0
 50148  1  0  0  0  0
 51 52  1  0  0  0  0
 51149  1  0  0  0  0
 51150  1  0  0  0  0
 52 53  1  0  0  0  0
 53 54  1  0  0  0  0
 53151  1  0  0  0  0
 54 55  1  0  0  0  0
 54152  1  0  0  0  0
 54153  1  0  0  0  0
 55 56  1  0  0  0  0
 55154  1  0  0  0  0
 55155  1  0  0  0  0
 56 57  1  0  0  0  0
 56156  1  0  0  0  0
 56157  1  0  0  0  0
 57 58  1  0  0  0  0
 57158  1  0  0  0  0
 58 59  1  0  0  0  0
 58159  1  0  0  0  0
 58160  1  0  0  0  0
 59 60  1  0  0  0  0
 59161  1  0  0  0  0
 59162  1  0  0  0  0
 60 61  1  0  0  0  0
 60163  1  0  0  0  0
 60164  1  0  0  0  0
 61 62  1  0  0  0  0
 61165  1  0  0  0  0
 62 63  1  0  0  0  0
 62166  1  0  0  0  0
 63 64  1  0  0  0  0
 63167  1  0  0  0  0
 63168  1  0  0  0  0
 64 65  1  0  0  0  0
 64169  1  0  0  0  0
 64170  1  0  0  0  0
 65 66  1  0  0  0  0
 65171  1  0  0  0  0
 65172  1  0  0  0  0
 66 67  1  0  0  0  0
 66173  1  0  0  0  0
 67 68  1  0  0  0  0
 67174  1  0  0  0  0
 67175  1  0  0  0  0
 68 69  1  0  0  0  0
 68176  1  0  0  0  0
 68177  1  0  0  0  0
 69 70  1  0  0  0  0
 69178  1  0  0  0  0
 69179  1  0  0  0  0
 70 71  1  0  0  0  0
 70180  1  0  0  0  0
 71 72  1  0  0  0  0
 71181  1  0  0  0  0
 71182  1  0  0  0  0
 72 73  1  0  0  0  0
 72183  1  0  0  0  0
 72184  1  0  0  0  0
 73 74  1  0  0  0  0
 73185  1  0  0  0  0
 73186  1  0  0  0  0
 74 75  1  0  0  0  0
 74187  1  0  0  0  0
 75 76  1  0  0  0  0
 75188  1  0  0  0  0
 75189  1  0  0  0  0
 76 77  1  0  0  0  0
 76190  1  0  0  0  0
 76191  1  0  0  0  0
 77 78  1  0  0  0  0
 77192  1  0  0  0  0
 77193  1  0  0  0  0
 78 79  1  0  0  0  0
 78194  1  0  0  0  0
 79195  1  0  0  0  0
 79196  1  0  0  0  0
 79197  1  0  0  0  0
M  END
$$$$
