
 OpenBabel04232216403D

240239  0  0  0  0  0  0  0  0999 V2000
    1.5294    0.6529   -0.8177 C   0  0  0  0  0  0  0  0  0  0  0  0
    2.3787    0.0575    0.0230 C   0  0  0  0  0  0  0  0  0  0  0  0
    3.1613    0.8062    1.0579 C   0  0  0  0  0  0  0  0  0  0  0  0
    4.6609    0.6390    0.8391 C   0  0  0  0  0  0  0  0  0  0  0  0
    5.4338    1.4180    1.8954 C   0  0  0  0  0  0  0  0  0  0  0  0
    6.9306    1.2570    1.6849 C   0  0  0  0  0  0  0  0  0  0  0  0
    7.6959    2.0341    2.7429 C   0  0  0  0  0  0  0  0  0  0  0  0
    9.1903    1.8716    2.5283 C   0  0  0  0  0  0  0  0  0  0  0  0
    9.9547    2.6476    3.5855 C   0  0  0  0  0  0  0  0  0  0  0  0
   11.4477    2.4853    3.3678 C   0  0  0  0  0  0  0  0  0  0  0  0
   12.2111    3.2595    4.4259 C   0  0  0  0  0  0  0  0  0  0  0  0
   13.7033    3.0984    4.2064 C   0  0  0  0  0  0  0  0  0  0  0  0
   14.4653    3.8717    5.2658 C   0  0  0  0  0  0  0  0  0  0  0  0
   15.9584    3.7115    5.0451 C   0  0  0  0  0  0  0  0  0  0  0  0
   16.7208    4.4846    6.1056 C   0  0  0  0  0  0  0  0  0  0  0  0
   18.2128    4.3229    5.8848 C   0  0  0  0  0  0  0  0  0  0  0  0
   18.9753    5.0939    6.9452 C   0  0  0  0  0  0  0  0  0  0  0  0
   20.4673    4.9311    6.7268 C   0  0  0  0  0  0  0  0  0  0  0  0
   21.2297    5.7035    7.7862 C   0  0  0  0  0  0  0  0  0  0  0  0
   22.7216    5.5392    7.5690 C   0  0  0  0  0  0  0  0  0  0  0  0
   23.4841    6.3101    8.6294 C   0  0  0  0  0  0  0  0  0  0  0  0
   24.9760    6.1471    8.4110 C   0  0  0  0  0  0  0  0  0  0  0  0
   25.7384    6.9196    9.4703 C   0  0  0  0  0  0  0  0  0  0  0  0
   27.2305    6.7554    9.2528 C   0  0  0  0  0  0  0  0  0  0  0  0
   27.9929    7.5279   10.3120 C   0  0  0  0  0  0  0  0  0  0  0  0
   29.4849    7.3647   10.0938 C   0  0  0  0  0  0  0  0  0  0  0  0
   30.2473    8.1371   11.1532 C   0  0  0  0  0  0  0  0  0  0  0  0
   31.7393    7.9743   10.9348 C   0  0  0  0  0  0  0  0  0  0  0  0
   32.5018    8.7468   11.9941 C   0  0  0  0  0  0  0  0  0  0  0  0
   33.9938    8.5841   11.7756 C   0  0  0  0  0  0  0  0  0  0  0  0
   34.7562    9.3570   12.8346 C   0  0  0  0  0  0  0  0  0  0  0  0
   36.2480    9.1942   12.6163 C   0  0  0  0  0  0  0  0  0  0  0  0
   37.0107    9.9679   13.6745 C   0  0  0  0  0  0  0  0  0  0  0  0
   38.5027    9.8051   13.4560 C   0  0  0  0  0  0  0  0  0  0  0  0
   39.2651   10.5795   14.5140 C   0  0  0  0  0  0  0  0  0  0  0  0
   40.7571   10.4167   14.2955 C   0  0  0  0  0  0  0  0  0  0  0  0
   41.5194   11.1923   15.3526 C   0  0  0  0  0  0  0  0  0  0  0  0
   43.0115   11.0311   15.1328 C   0  0  0  0  0  0  0  0  0  0  0  0
   43.7738   11.8056   16.1908 C   0  0  0  0  0  0  0  0  0  0  0  0
   45.2658   11.6457   15.9702 C   0  0  0  0  0  0  0  0  0  0  0  0
   46.0282   12.4214   17.0271 C   0  0  0  0  0  0  0  0  0  0  0  0
   47.5202   12.2605   16.8072 C   0  0  0  0  0  0  0  0  0  0  0  0
   48.2829   13.0364   17.8640 C   0  0  0  0  0  0  0  0  0  0  0  0
   49.7745   12.8749   17.6446 C   0  0  0  0  0  0  0  0  0  0  0  0
   50.5372   13.6506   18.7017 C   0  0  0  0  0  0  0  0  0  0  0  0
   52.0292   13.4893   18.4820 C   0  0  0  0  0  0  0  0  0  0  0  0
   52.7914   14.2654   19.5386 C   0  0  0  0  0  0  0  0  0  0  0  0
   54.2834   14.1056   19.3179 C   0  0  0  0  0  0  0  0  0  0  0  0
   55.0460   14.8831   20.3735 C   0  0  0  0  0  0  0  0  0  0  0  0
   56.5376   14.7221   20.1536 C   0  0  0  0  0  0  0  0  0  0  0  0
   57.3002   15.4995   21.2093 C   0  0  0  0  0  0  0  0  0  0  0  0
   58.7922   15.3395   20.9887 C   0  0  0  0  0  0  0  0  0  0  0  0
   59.5547   16.1156   22.0454 C   0  0  0  0  0  0  0  0  0  0  0  0
   61.0466   15.9544   21.8258 C   0  0  0  0  0  0  0  0  0  0  0  0
   61.8091   16.7316   22.8816 C   0  0  0  0  0  0  0  0  0  0  0  0
   63.3008   16.5694   22.6632 C   0  0  0  0  0  0  0  0  0  0  0  0
   64.0635   17.3449   23.7200 C   0  0  0  0  0  0  0  0  0  0  0  0
   65.5557   17.1821   23.5015 C   0  0  0  0  0  0  0  0  0  0  0  0
   66.3181   17.9563   24.5596 C   0  0  0  0  0  0  0  0  0  0  0  0
   67.8099   17.7935   24.3412 C   0  0  0  0  0  0  0  0  0  0  0  0
   68.5727   18.5675   25.3993 C   0  0  0  0  0  0  0  0  0  0  0  0
   70.0647   18.4047   25.1810 C   0  0  0  0  0  0  0  0  0  0  0  0
   70.8272   19.1790   26.2389 C   0  0  0  0  0  0  0  0  0  0  0  0
   72.3198   19.0163   26.0213 C   0  0  0  0  0  0  0  0  0  0  0  0
   73.0822   19.7910   27.0787 C   0  0  0  0  0  0  0  0  0  0  0  0
   74.5748   19.6289   26.8603 C   0  0  0  0  0  0  0  0  0  0  0  0
   75.3363   20.4018   27.9188 C   0  0  0  0  0  0  0  0  0  0  0  0
   76.8279   20.2387   27.6999 C   0  0  0  0  0  0  0  0  0  0  0  0
   77.5904   21.0111   28.7593 C   0  0  0  0  0  0  0  0  0  0  0  0
   79.0824   20.8483   28.5409 C   0  0  0  0  0  0  0  0  0  0  0  0
   79.8451   21.6209   29.6002 C   0  0  0  0  0  0  0  0  0  0  0  0
   81.3374   21.4583   29.3820 C   0  0  0  0  0  0  0  0  0  0  0  0
   82.1009   22.2309   30.4415 C   0  0  0  0  0  0  0  0  0  0  0  0
   83.5940   22.0688   30.2240 C   0  0  0  0  0  0  0  0  0  0  0  0
   84.3585   22.8401   31.2849 C   0  0  0  0  0  0  0  0  0  0  0  0
   85.8534   22.6795   31.0697 C   0  0  0  0  0  0  0  0  0  0  0  0
   86.6210   23.4511   32.1313 C   0  0  0  0  0  0  0  0  0  0  0  0
   88.1185   23.2900   31.9185 C   0  0  0  0  0  0  0  0  0  0  0  0
   88.8977   24.0576   32.9779 C   0  0  0  0  0  0  0  0  0  0  0  0
   90.3906   23.8954   32.7638 C   0  0  0  0  0  0  0  0  0  0  0  0
    0.9773    0.0790   -1.5533 H   0  0  0  0  0  0  0  0  0  0  0  0
    1.3662    1.7292   -0.7917 H   0  0  0  0  0  0  0  0  0  0  0  0
    2.5163   -1.0192   -0.0290 H   0  0  0  0  0  0  0  0  0  0  0  0
    2.8854    0.4337    2.0503 H   0  0  0  0  0  0  0  0  0  0  0  0
    2.9094    1.8733    1.0346 H   0  0  0  0  0  0  0  0  0  0  0  0
    4.9407    0.9975   -0.1599 H   0  0  0  0  0  0  0  0  0  0  0  0
    4.9363   -0.4222    0.8887 H   0  0  0  0  0  0  0  0  0  0  0  0
    5.1603    1.0618    2.8962 H   0  0  0  0  0  0  0  0  0  0  0  0
    5.1664    2.4807    1.8460 H   0  0  0  0  0  0  0  0  0  0  0  0
    7.2084    1.6171    0.6868 H   0  0  0  0  0  0  0  0  0  0  0  0
    7.2029    0.1957    1.7348 H   0  0  0  0  0  0  0  0  0  0  0  0
    7.4223    1.6746    3.7426 H   0  0  0  0  0  0  0  0  0  0  0  0
    7.4266    3.0965    2.6955 H   0  0  0  0  0  0  0  0  0  0  0  0
    9.4661    2.2320    1.5296 H   0  0  0  0  0  0  0  0  0  0  0  0
    9.4618    0.8099    2.5765 H   0  0  0  0  0  0  0  0  0  0  0  0
    9.6818    2.2867    4.5849 H   0  0  0  0  0  0  0  0  0  0  0  0
    9.6842    3.7097    3.5389 H   0  0  0  0  0  0  0  0  0  0  0  0
   11.7217    2.8477    2.3693 H   0  0  0  0  0  0  0  0  0  0  0  0
   11.7193    1.4234    3.4134 H   0  0  0  0  0  0  0  0  0  0  0  0
   11.9387    2.8962    5.4245 H   0  0  0  0  0  0  0  0  0  0  0  0
   11.9393    4.3214    4.3815 H   0  0  0  0  0  0  0  0  0  0  0  0
   13.9763    3.4631    3.2085 H   0  0  0  0  0  0  0  0  0  0  0  0
   13.9756    2.0366    4.2497 H   0  0  0  0  0  0  0  0  0  0  0  0
   14.1945    3.5056    6.2636 H   0  0  0  0  0  0  0  0  0  0  0  0
   14.1934    4.9329    5.2235 H   0  0  0  0  0  0  0  0  0  0  0  0
   16.2302    4.0771    4.0474 H   0  0  0  0  0  0  0  0  0  0  0  0
   16.2311    2.6499    5.0873 H   0  0  0  0  0  0  0  0  0  0  0  0
   16.4480    4.1192    7.1024 H   0  0  0  0  0  0  0  0  0  0  0  0
   16.4489    5.5460    6.0615 H   0  0  0  0  0  0  0  0  0  0  0  0
   18.4858    4.6887    4.8873 H   0  0  0  0  0  0  0  0  0  0  0  0
   18.4845    3.2609    5.9266 H   0  0  0  0  0  0  0  0  0  0  0  0
   18.7013    4.7290    7.9427 H   0  0  0  0  0  0  0  0  0  0  0  0
   18.7046    6.1561    6.9025 H   0  0  0  0  0  0  0  0  0  0  0  0
   20.7414    5.2948    5.7288 H   0  0  0  0  0  0  0  0  0  0  0  0
   20.7380    3.8689    6.7708 H   0  0  0  0  0  0  0  0  0  0  0  0
   20.9547    5.3407    8.7843 H   0  0  0  0  0  0  0  0  0  0  0  0
   20.9599    6.7659    7.7413 H   0  0  0  0  0  0  0  0  0  0  0  0
   22.9967    5.9032    6.5714 H   0  0  0  0  0  0  0  0  0  0  0  0
   22.9914    4.4767    7.6126 H   0  0  0  0  0  0  0  0  0  0  0  0
   23.2099    5.9452    9.6269 H   0  0  0  0  0  0  0  0  0  0  0  0
   23.2135    7.3724    8.5868 H   0  0  0  0  0  0  0  0  0  0  0  0
   25.2501    6.5108    7.4130 H   0  0  0  0  0  0  0  0  0  0  0  0
   25.2466    5.0849    8.4551 H   0  0  0  0  0  0  0  0  0  0  0  0
   25.4637    6.5568   10.4685 H   0  0  0  0  0  0  0  0  0  0  0  0
   25.4686    7.9819    9.4254 H   0  0  0  0  0  0  0  0  0  0  0  0
   27.5052    7.1183    8.2547 H   0  0  0  0  0  0  0  0  0  0  0  0
   27.5003    5.6931    9.2977 H   0  0  0  0  0  0  0  0  0  0  0  0
   27.7189    7.1643   11.3101 H   0  0  0  0  0  0  0  0  0  0  0  0
   27.7224    8.5901   10.2678 H   0  0  0  0  0  0  0  0  0  0  0  0
   29.7590    7.7284    9.0958 H   0  0  0  0  0  0  0  0  0  0  0  0
   29.7555    6.3025   10.1379 H   0  0  0  0  0  0  0  0  0  0  0  0
   29.9734    7.7734   12.1512 H   0  0  0  0  0  0  0  0  0  0  0  0
   29.9766    9.1993   11.1091 H   0  0  0  0  0  0  0  0  0  0  0  0
   32.0132    8.3382    9.9368 H   0  0  0  0  0  0  0  0  0  0  0  0
   32.0102    6.9122   10.9787 H   0  0  0  0  0  0  0  0  0  0  0  0
   32.2279    8.3831   12.9921 H   0  0  0  0  0  0  0  0  0  0  0  0
   32.2310    9.8089   11.9500 H   0  0  0  0  0  0  0  0  0  0  0  0
   34.2675    8.9477   10.7774 H   0  0  0  0  0  0  0  0  0  0  0  0
   34.2648    7.5220   11.8197 H   0  0  0  0  0  0  0  0  0  0  0  0
   34.4824    8.9934   13.8328 H   0  0  0  0  0  0  0  0  0  0  0  0
   34.4853   10.4191   12.7904 H   0  0  0  0  0  0  0  0  0  0  0  0
   36.5219    9.5567   11.6176 H   0  0  0  0  0  0  0  0  0  0  0  0
   36.5191    8.1321   12.6614 H   0  0  0  0  0  0  0  0  0  0  0  0
   36.7371    9.6055   14.6728 H   0  0  0  0  0  0  0  0  0  0  0  0
   36.7398   11.0300   13.6291 H   0  0  0  0  0  0  0  0  0  0  0  0
   38.7766   10.1671   12.4566 H   0  0  0  0  0  0  0  0  0  0  0  0
   38.7737    8.7429   13.5016 H   0  0  0  0  0  0  0  0  0  0  0  0
   38.9916   10.2171   15.5127 H   0  0  0  0  0  0  0  0  0  0  0  0
   38.9938   11.6414   14.4685 H   0  0  0  0  0  0  0  0  0  0  0  0
   41.0304   10.7782   13.2964 H   0  0  0  0  0  0  0  0  0  0  0  0
   41.0284    9.3549   14.3420 H   0  0  0  0  0  0  0  0  0  0  0  0
   41.2470   10.8301   16.3515 H   0  0  0  0  0  0  0  0  0  0  0  0
   41.2474   12.2543   15.3067 H   0  0  0  0  0  0  0  0  0  0  0  0
   43.2840   11.3942   14.1343 H   0  0  0  0  0  0  0  0  0  0  0  0
   43.2837    9.9693   15.1776 H   0  0  0  0  0  0  0  0  0  0  0  0
   43.5021   11.4415   17.1893 H   0  0  0  0  0  0  0  0  0  0  0  0
   43.5007   12.8671   16.1468 H   0  0  0  0  0  0  0  0  0  0  0  0
   45.5373   12.0087   14.9712 H   0  0  0  0  0  0  0  0  0  0  0  0
   45.5389   10.5842   16.0152 H   0  0  0  0  0  0  0  0  0  0  0  0
   45.7561   12.0592   18.0262 H   0  0  0  0  0  0  0  0  0  0  0  0
   45.7556   13.4830   16.9813 H   0  0  0  0  0  0  0  0  0  0  0  0
   47.7923   12.6227   15.8081 H   0  0  0  0  0  0  0  0  0  0  0  0
   47.7927   11.1989   16.8530 H   0  0  0  0  0  0  0  0  0  0  0  0
   48.0102   12.6742   18.8631 H   0  0  0  0  0  0  0  0  0  0  0  0
   48.0104   14.0979   17.8181 H   0  0  0  0  0  0  0  0  0  0  0  0
   50.0478   13.2369   16.6452 H   0  0  0  0  0  0  0  0  0  0  0  0
   50.0504   11.8124   17.6914 H   0  0  0  0  0  0  0  0  0  0  0  0
   50.2647   13.2882   19.7007 H   0  0  0  0  0  0  0  0  0  0  0  0
   50.2648   14.7120   18.6558 H   0  0  0  0  0  0  0  0  0  0  0  0
   52.3012   13.8512   17.4828 H   0  0  0  0  0  0  0  0  0  0  0  0
   52.3016   12.4277   18.5280 H   0  0  0  0  0  0  0  0  0  0  0  0
   52.5201   13.9028   20.5378 H   0  0  0  0  0  0  0  0  0  0  0  0
   52.5181   15.3268   19.4932 H   0  0  0  0  0  0  0  0  0  0  0  0
   54.5547   14.4672   18.3184 H   0  0  0  0  0  0  0  0  0  0  0  0
   54.5569   13.0442   19.3644 H   0  0  0  0  0  0  0  0  0  0  0  0
   54.7740   14.5221   21.3733 H   0  0  0  0  0  0  0  0  0  0  0  0
   54.7730   15.9444   20.3264 H   0  0  0  0  0  0  0  0  0  0  0  0
   56.8100   15.0833   19.1533 H   0  0  0  0  0  0  0  0  0  0  0  0
   56.8126   13.6602   20.1994 H   0  0  0  0  0  0  0  0  0  0  0  0
   57.0289   15.1378   22.2088 H   0  0  0  0  0  0  0  0  0  0  0  0
   57.0269   16.5609   21.1629 H   0  0  0  0  0  0  0  0  0  0  0  0
   59.0637   15.7023   19.9896 H   0  0  0  0  0  0  0  0  0  0  0  0
   59.0654   14.2781   21.0340 H   0  0  0  0  0  0  0  0  0  0  0  0
   59.2824   15.7538   23.0446 H   0  0  0  0  0  0  0  0  0  0  0  0
   59.2822   17.1772   21.9993 H   0  0  0  0  0  0  0  0  0  0  0  0
   61.3189   16.3152   20.8262 H   0  0  0  0  0  0  0  0  0  0  0  0
   61.3191   14.8928   21.8730 H   0  0  0  0  0  0  0  0  0  0  0  0
   61.5360   16.3715   23.8812 H   0  0  0  0  0  0  0  0  0  0  0  0
   61.5374   17.7934   22.8336 H   0  0  0  0  0  0  0  0  0  0  0  0
   63.5743   16.9301   21.6638 H   0  0  0  0  0  0  0  0  0  0  0  0
   63.5729   15.5074   22.7101 H   0  0  0  0  0  0  0  0  0  0  0  0
   63.7900   16.9838   24.7190 H   0  0  0  0  0  0  0  0  0  0  0  0
   63.7923   18.4064   23.6730 H   0  0  0  0  0  0  0  0  0  0  0  0
   65.8291   17.5443   22.5029 H   0  0  0  0  0  0  0  0  0  0  0  0
   65.8266   16.1202   23.5471 H   0  0  0  0  0  0  0  0  0  0  0  0
   66.0442   17.5940   25.5584 H   0  0  0  0  0  0  0  0  0  0  0  0
   66.0463   19.0190   24.5142 H   0  0  0  0  0  0  0  0  0  0  0  0
   68.0836   18.1559   23.3429 H   0  0  0  0  0  0  0  0  0  0  0  0
   68.0809   16.7313   24.3866 H   0  0  0  0  0  0  0  0  0  0  0  0
   68.2988   18.2050   26.3979 H   0  0  0  0  0  0  0  0  0  0  0  0
   68.3015   19.6295   25.3540 H   0  0  0  0  0  0  0  0  0  0  0  0
   70.3383   18.7670   24.1823 H   0  0  0  0  0  0  0  0  0  0  0  0
   70.3357   17.3427   25.2265 H   0  0  0  0  0  0  0  0  0  0  0  0
   70.5536   18.8166   27.2377 H   0  0  0  0  0  0  0  0  0  0  0  0
   70.5562   20.2410   26.1935 H   0  0  0  0  0  0  0  0  0  0  0  0
   72.5937   19.3786   25.0226 H   0  0  0  0  0  0  0  0  0  0  0  0
   72.5906   17.9543   26.0666 H   0  0  0  0  0  0  0  0  0  0  0  0
   72.8098   19.4281   28.0776 H   0  0  0  0  0  0  0  0  0  0  0  0
   72.8114   20.8531   27.0335 H   0  0  0  0  0  0  0  0  0  0  0  0
   74.8480   19.9910   25.8614 H   0  0  0  0  0  0  0  0  0  0  0  0
   74.8458   18.5661   26.9050 H   0  0  0  0  0  0  0  0  0  0  0  0
   75.0634   20.0384   28.9179 H   0  0  0  0  0  0  0  0  0  0  0  0
   75.0653   21.4629   27.8745 H   0  0  0  0  0  0  0  0  0  0  0  0
   77.1017   20.6021   26.7020 H   0  0  0  0  0  0  0  0  0  0  0  0
   77.0990   19.1762   27.7442 H   0  0  0  0  0  0  0  0  0  0  0  0
   77.3165   20.6474   29.7574 H   0  0  0  0  0  0  0  0  0  0  0  0
   77.3195   22.0730   28.7152 H   0  0  0  0  0  0  0  0  0  0  0  0
   79.3561   21.2120   27.5427 H   0  0  0  0  0  0  0  0  0  0  0  0
   79.3531   19.7861   28.5848 H   0  0  0  0  0  0  0  0  0  0  0  0
   79.5710   21.2572   30.5983 H   0  0  0  0  0  0  0  0  0  0  0  0
   79.5740   22.6830   29.5561 H   0  0  0  0  0  0  0  0  0  0  0  0
   81.6109   21.8219   28.3839 H   0  0  0  0  0  0  0  0  0  0  0  0
   81.6079   20.3961   29.4259 H   0  0  0  0  0  0  0  0  0  0  0  0
   81.8262   21.8670   31.4392 H   0  0  0  0  0  0  0  0  0  0  0  0
   81.8294   23.2928   30.3973 H   0  0  0  0  0  0  0  0  0  0  0  0
   83.8672   22.4334   29.2261 H   0  0  0  0  0  0  0  0  0  0  0  0
   83.8638   21.0063   30.2663 H   0  0  0  0  0  0  0  0  0  0  0  0
   84.0827   22.4747   32.2817 H   0  0  0  0  0  0  0  0  0  0  0  0
   84.0862   23.9019   31.2417 H   0  0  0  0  0  0  0  0  0  0  0  0
   86.1261   23.0438   30.0714 H   0  0  0  0  0  0  0  0  0  0  0  0
   86.1223   21.6168   31.1113 H   0  0  0  0  0  0  0  0  0  0  0  0
   86.3430   23.0862   33.1276 H   0  0  0  0  0  0  0  0  0  0  0  0
   86.3486   24.5128   32.0867 H   0  0  0  0  0  0  0  0  0  0  0  0
   88.3896   23.6533   30.9195 H   0  0  0  0  0  0  0  0  0  0  0  0
   88.3836   22.2262   31.9582 H   0  0  0  0  0  0  0  0  0  0  0  0
   88.6283   23.6933   33.9761 H   0  0  0  0  0  0  0  0  0  0  0  0
   88.6344   25.1210   32.9372 H   0  0  0  0  0  0  0  0  0  0  0  0
   90.6786   22.8410   32.8242 H   0  0  0  0  0  0  0  0  0  0  0  0
   90.9451   24.4482   33.5267 H   0  0  0  0  0  0  0  0  0  0  0  0
   90.6848   24.2755   31.7803 H   0  0  0  0  0  0  0  0  0  0  0  0
  1  2  2  0  0  0  0
  1 81  1  0  0  0  0
  1 82  1  0  0  0  0
  2  3  1  0  0  0  0
  2 83  1  0  0  0  0
  3  4  1  0  0  0  0
  3 84  1  0  0  0  0
  3 85  1  0  0  0  0
  4  5  1  0  0  0  0
  4 86  1  0  0  0  0
  4 87  1  0  0  0  0
  5  6  1  0  0  0  0
  5 88  1  0  0  0  0
  5 89  1  0  0  0  0
  6  7  1  0  0  0  0
  6 90  1  0  0  0  0
  6 91  1  0  0  0  0
  7  8  1  0  0  0  0
  7 92  1  0  0  0  0
  7 93  1  0  0  0  0
  8  9  1  0  0  0  0
  8 94  1  0  0  0  0
  8 95  1  0  0  0  0
  9 10  1  0  0  0  0
  9 96  1  0  0  0  0
  9 97  1  0  0  0  0
 10 11  1  0  0  0  0
 10 98  1  0  0  0  0
 10 99  1  0  0  0  0
 11 12  1  0  0  0  0
 11100  1  0  0  0  0
 11101  1  0  0  0  0
 12 13  1  0  0  0  0
 12102  1  0  0  0  0
 12103  1  0  0  0  0
 13 14  1  0  0  0  0
 13104  1  0  0  0  0
 13105  1  0  0  0  0
 14 15  1  0  0  0  0
 14106  1  0  0  0  0
 14107  1  0  0  0  0
 15 16  1  0  0  0  0
 15108  1  0  0  0  0
 15109  1  0  0  0  0
 16 17  1  0  0  0  0
 16110  1  0  0  0  0
 16111  1  0  0  0  0
 17 18  1  0  0  0  0
 17112  1  0  0  0  0
 17113  1  0  0  0  0
 18 19  1  0  0  0  0
 18114  1  0  0  0  0
 18115  1  0  0  0  0
 19 20  1  0  0  0  0
 19116  1  0  0  0  0
 19117  1  0  0  0  0
 20 21  1  0  0  0  0
 20118  1  0  0  0  0
 20119  1  0  0  0  0
 21 22  1  0  0  0  0
 21120  1  0  0  0  0
 21121  1  0  0  0  0
 22 23  1  0  0  0  0
 22122  1  0  0  0  0
 22123  1  0  0  0  0
 23 24  1  0  0  0  0
 23124  1  0  0  0  0
 23125  1  0  0  0  0
 24 25  1  0  0  0  0
 24126  1  0  0  0  0
 24127  1  0  0  0  0
 25 26  1  0  0  0  0
 25128  1  0  0  0  0
 25129  1  0  0  0  0
 26 27  1  0  0  0  0
 26130  1  0  0  0  0
 26131  1  0  0  0  0
 27 28  1  0  0  0  0
 27132  1  0  0  0  0
 27133  1  0  0  0  0
 28 29  1  0  0  0  0
 28134  1  0  0  0  0
 28135  1  0  0  0  0
 29 30  1  0  0  0  0
 29136  1  0  0  0  0
 29137  1  0  0  0  0
 30 31  1  0  0  0  0
 30138  1  0  0  0  0
 30139  1  0  0  0  0
 31 32  1  0  0  0  0
 31140  1  0  0  0  0
 31141  1  0  0  0  0
 32 33  1  0  0  0  0
 32142  1  0  0  0  0
 32143  1  0  0  0  0
 33 34  1  0  0  0  0
 33144  1  0  0  0  0
 33145  1  0  0  0  0
 34 35  1  0  0  0  0
 34146  1  0  0  0  0
 34147  1  0  0  0  0
 35 36  1  0  0  0  0
 35148  1  0  0  0  0
 35149  1  0  0  0  0
 36 37  1  0  0  0  0
 36150  1  0  0  0  0
 36151  1  0  0  0  0
 37 38  1  0  0  0  0
 37152  1  0  0  0  0
 37153  1  0  0  0  0
 38 39  1  0  0  0  0
 38154  1  0  0  0  0
 38155  1  0  0  0  0
 39 40  1  0  0  0  0
 39156  1  0  0  0  0
 39157  1  0  0  0  0
 40 41  1  0  0  0  0
 40158  1  0  0  0  0
 40159  1  0  0  0  0
 41 42  1  0  0  0  0
 41160  1  0  0  0  0
 41161  1  0  0  0  0
 42 43  1  0  0  0  0
 42162  1  0  0  0  0
 42163  1  0  0  0  0
 43 44  1  0  0  0  0
 43164  1  0  0  0  0
 43165  1  0  0  0  0
 44 45  1  0  0  0  0
 44166  1  0  0  0  0
 44167  1  0  0  0  0
 45 46  1  0  0  0  0
 45168  1  0  0  0  0
 45169  1  0  0  0  0
 46 47  1  0  0  0  0
 46170  1  0  0  0  0
 46171  1  0  0  0  0
 47 48  1  0  0  0  0
 47172  1  0  0  0  0
 47173  1  0  0  0  0
 48 49  1  0  0  0  0
 48174  1  0  0  0  0
 48175  1  0  0  0  0
 49 50  1  0  0  0  0
 49176  1  0  0  0  0
 49177  1  0  0  0  0
 50 51  1  0  0  0  0
 50178  1  0  0  0  0
 50179  1  0  0  0  0
 51 52  1  0  0  0  0
 51180  1  0  0  0  0
 51181  1  0  0  0  0
 52 53  1  0  0  0  0
 52182  1  0  0  0  0
 52183  1  0  0  0  0
 53 54  1  0  0  0  0
 53184  1  0  0  0  0
 53185  1  0  0  0  0
 54 55  1  0  0  0  0
 54186  1  0  0  0  0
 54187  1  0  0  0  0
 55 56  1  0  0  0  0
 55188  1  0  0  0  0
 55189  1  0  0  0  0
 56 57  1  0  0  0  0
 56190  1  0  0  0  0
 56191  1  0  0  0  0
 57 58  1  0  0  0  0
 57192  1  0  0  0  0
 57193  1  0  0  0  0
 58 59  1  0  0  0  0
 58194  1  0  0  0  0
 58195  1  0  0  0  0
 59 60  1  0  0  0  0
 59196  1  0  0  0  0
 59197  1  0  0  0  0
 60 61  1  0  0  0  0
 60198  1  0  0  0  0
 60199  1  0  0  0  0
 61 62  1  0  0  0  0
 61200  1  0  0  0  0
 61201  1  0  0  0  0
 62 63  1  0  0  0  0
 62202  1  0  0  0  0
 62203  1  0  0  0  0
 63 64  1  0  0  0  0
 63204  1  0  0  0  0
 63205  1  0  0  0  0
 64 65  1  0  0  0  0
 64206  1  0  0  0  0
 64207  1  0  0  0  0
 65 66  1  0  0  0  0
 65208  1  0  0  0  0
 65209  1  0  0  0  0
 66 67  1  0  0  0  0
 66210  1  0  0  0  0
 66211  1  0  0  0  0
 67 68  1  0  0  0  0
 67212  1  0  0  0  0
 67213  1  0  0  0  0
 68 69  1  0  0  0  0
 68214  1  0  0  0  0
 68215  1  0  0  0  0
 69 70  1  0  0  0  0
 69216  1  0  0  0  0
 69217  1  0  0  0  0
 70 71  1  0  0  0  0
 70218  1  0  0  0  0
 70219  1  0  0  0  0
 71 72  1  0  0  0  0
 71220  1  0  0  0  0
 71221  1  0  0  0  0
 72 73  1  0  0  0  0
 72222  1  0  0  0  0
 72223  1  0  0  0  0
 73 74  1  0  0  0  0
 73224  1  0  0  0  0
 73225  1  0  0  0  0
 74 75  1  0  0  0  0
 74226  1  0  0  0  0
 74227  1  0  0  0  0
 75 76  1  0  0  0  0
 75228  1  0  0  0  0
 75229  1  0  0  0  0
 76 77  1  0  0  0  0
 76230  1  0  0  0  0
 76231  1  0  0  0  0
 77 78  1  0  0  0  0
 77232  1  0  0  0  0
 77233  1  0  0  0  0
 78 79  1  0  0  0  0
 78234  1  0  0  0  0
 78235  1  0  0  0  0
 79 80  1  0  0  0  0
 79236  1  0  0  0  0
 79237  1  0  0  0  0
 80238  1  0  0  0  0
 80239  1  0  0  0  0
 80240  1  0  0  0  0
M  END
$$$$
