
 OpenBabel04232216453D

229229  0  0  0  0  0  0  0  0999 V2000
   31.5399   -3.1689   30.8866 C   0  0  0  0  0  0  0  0  0  0  0  0
   30.0505   -2.8274   30.9410 C   0  0  0  0  0  0  0  0  0  0  0  0
   29.9372   -2.1920   32.2045 C   0  0  0  0  0  3  0  0  0  0  0  0
   29.5364   -1.3929   31.1068 C   0  0  0  0  0  0  0  0  0  0  0  0
   28.0951   -0.9145   31.2028 C   0  0  0  0  0  0  0  0  0  0  0  0
   30.4126   -0.4688   30.2567 C   0  0  0  0  0  0  0  0  0  0  0  0
   31.4630    0.3482   31.0022 C   0  0  0  0  0  0  0  0  0  0  0  0
   32.3124    1.2018   30.0366 C   0  0  0  0  0  0  0  0  0  0  0  0
   31.4805    2.1890   29.2072 C   0  0  0  0  0  0  0  0  0  0  0  0
   30.6905    3.1318   30.1038 C   0  0  0  0  0  0  0  0  0  0  0  0
   29.8244    4.0717   29.2851 C   0  0  0  0  0  0  0  0  0  0  0  0
   29.0466    5.0013   30.2049 C   0  0  0  0  0  0  0  0  0  0  0  0
   28.1787    5.9436   29.3902 C   0  0  0  0  0  0  0  0  0  0  0  0
   27.4109    6.8712   30.3158 C   0  0  0  0  0  0  0  0  0  0  0  0
   26.5423    7.8201   29.5101 C   0  0  0  0  0  0  0  0  0  0  0  0
   25.7793    8.7430   30.4427 C   0  0  0  0  0  0  0  0  0  0  0  0
   24.9120    9.6924   29.6364 C   0  0  0  0  0  0  0  0  0  0  0  0
   24.1475   10.6179   30.5632 C   0  0  0  0  0  0  0  0  0  0  0  0
   23.2861   11.5660   29.7485 C   0  0  0  0  0  0  0  0  0  0  0  0
   22.5185   12.4940   30.6710 C   0  0  0  0  0  0  0  0  0  0  0  0
   21.6536   13.4350   29.8538 C   0  0  0  0  0  0  0  0  0  0  0  0
   20.8872   14.3631   30.7775 C   0  0  0  0  0  0  0  0  0  0  0  0
   20.0214   15.3040   29.9615 C   0  0  0  0  0  0  0  0  0  0  0  0
   19.2576   16.2335   30.8857 C   0  0  0  0  0  0  0  0  0  0  0  0
   18.3947   17.1777   30.0698 C   0  0  0  0  0  0  0  0  0  0  0  0
   17.6315   18.1065   30.9941 C   0  0  0  0  0  0  0  0  0  0  0  0
   16.7675   19.0495   30.1788 C   0  0  0  0  0  0  0  0  0  0  0  0
   16.0056   19.9792   31.1038 C   0  0  0  0  0  0  0  0  0  0  0  0
   15.1361   20.9172   30.2882 C   0  0  0  0  0  0  0  0  0  0  0  0
   14.3775   21.8503   31.2122 C   0  0  0  0  0  0  0  0  0  0  0  0
   13.5107   22.7903   30.3966 C   0  0  0  0  0  0  0  0  0  0  0  0
   12.7528   23.7235   31.3211 C   0  0  0  0  0  0  0  0  0  0  0  0
   11.8858   24.6625   30.5054 C   0  0  0  0  0  0  0  0  0  0  0  0
   11.1275   25.5943   31.4297 C   0  0  0  0  0  0  0  0  0  0  0  0
   10.2616   26.5313   30.6120 C   0  0  0  0  0  0  0  0  0  0  0  0
    9.5005   27.4626   31.5304 C   0  0  0  0  0  0  0  0  0  0  0  0
    8.6292   28.3900   30.7034 C   0  0  0  0  0  0  0  0  0  0  0  0
    7.8733   29.3153   31.6228 C   0  0  0  0  0  0  0  0  0  0  0  0
    7.0054   30.2782   30.8298 C   0  0  0  0  0  0  0  0  0  0  0  0
    6.2570   31.2132   31.7658 C   0  0  0  0  0  0  0  0  0  0  0  0
    7.2194   32.0425   32.6001 C   0  0  0  0  0  0  0  0  0  0  0  0
    6.4687   32.9565   33.5302 C   0  0  0  0  0  0  0  0  0  0  0  0
    7.4575   33.7613   34.3519 C   0  0  0  0  0  0  0  0  0  0  0  0
    6.7071   34.6861   35.2859 C   0  0  0  0  0  0  0  0  0  0  0  0
    7.6916   35.4967   36.1068 C   0  0  0  0  0  0  0  0  0  0  0  0
    6.9365   36.4178   37.0447 C   0  0  0  0  0  0  0  0  0  0  0  0
    7.9185   37.2285   37.8665 C   0  0  0  0  0  0  0  0  0  0  0  0
    7.1644   38.1492   38.8054 C   0  0  0  0  0  0  0  0  0  0  0  0
    8.1460   38.9581   39.6306 C   0  0  0  0  0  0  0  0  0  0  0  0
    7.3919   39.8805   40.5689 C   0  0  0  0  0  0  0  0  0  0  0  0
    8.3737   40.6893   41.3946 C   0  0  0  0  0  0  0  0  0  0  0  0
    7.6199   41.6133   42.3312 C   0  0  0  0  0  0  0  0  0  0  0  0
    8.6019   42.4211   43.1578 C   0  0  0  0  0  0  0  0  0  0  0  0
    7.8474   43.3447   44.0951 C   0  0  0  0  0  0  0  0  0  0  0  0
    8.8288   44.1498   44.9248 C   0  0  0  0  0  0  0  0  0  0  0  0
    8.0737   45.0758   45.8590 C   0  0  0  0  0  0  0  0  0  0  0  0
    9.0553   45.8783   46.6913 C   0  0  0  0  0  0  0  0  0  0  0  0
    8.3014   46.8059   47.6248 C   0  0  0  0  0  0  0  0  0  0  0  0
    9.2830   47.6097   48.4563 C   0  0  0  0  0  0  0  0  0  0  0  0
    8.5312   48.5368   49.3905 C   0  0  0  0  0  0  0  0  0  0  0  0
    9.5199   49.3446   50.2258 C   0  0  0  0  0  0  0  0  0  0  0  0
    8.7536   50.2606   51.1563 C   0  0  0  0  0  0  0  0  0  0  0  0
    9.7391   51.0631   51.9787 C   0  0  0  0  0  0  0  0  0  0  0  0
    8.9773   51.9935   52.9220 C   0  0  0  0  0  0  0  0  0  0  0  0
    9.9350   52.8265   53.7380 C   0  0  0  0  0  0  0  0  0  0  0  0
    9.2317   53.7357   54.6999 C   0  0  0  0  0  0  0  0  0  0  0  0
   10.1880   54.5490   55.5237 C   0  0  0  0  0  0  0  0  0  0  0  0
    9.4347   55.4619   56.4536 C   0  0  0  0  0  0  0  0  0  0  0  0
   10.4160   56.2584   57.2924 C   0  0  0  0  0  0  0  0  0  0  0  0
    9.6640   57.1918   58.2240 C   0  0  0  0  0  0  0  0  0  0  0  0
   10.6469   57.9945   59.0588 C   0  0  0  0  0  0  0  0  0  0  0  0
    9.8967   58.9222   59.9989 C   0  0  0  0  0  0  0  0  0  0  0  0
   10.8775   59.7285   60.8340 C   0  0  0  0  0  0  0  0  0  0  0  0
   10.1261   60.6587   61.7753 C   0  0  0  0  0  0  0  0  0  0  0  0
   11.1047   61.4688   62.6132 C   0  0  0  0  0  0  0  0  0  0  0  0
   10.3622   62.4055   63.5574 C   0  0  0  0  0  0  0  0  0  0  0  0
   11.3388   63.2101   64.3915 C   0  0  0  0  0  0  0  0  0  0  0  0
   31.7497   -4.0608   31.4602 H   0  0  0  0  0  0  0  0  0  0  0  0
   32.1443   -2.3645   31.3619 H   0  0  0  0  0  0  0  0  0  0  0  0
   31.9201   -3.2668   29.8708 H   0  0  0  0  0  0  0  0  0  0  0  0
   29.6506   -2.5706   33.1721 H   0  0  0  0  0  0  0  0  0  0  0  0
   27.4694   -1.5030   31.8631 H   0  0  0  0  0  0  0  0  0  0  0  0
   27.6238   -0.8496   30.2278 H   0  0  0  0  0  0  0  0  0  0  0  0
   28.1069    0.1075   31.6230 H   0  0  0  0  0  0  0  0  0  0  0  0
   29.7331    0.2032   29.7219 H   0  0  0  0  0  0  0  0  0  0  0  0
   30.8968   -1.0329   29.4550 H   0  0  0  0  0  0  0  0  0  0  0  0
   32.1469   -0.2818   31.5702 H   0  0  0  0  0  0  0  0  0  0  0  0
   30.9741    0.9866   31.7451 H   0  0  0  0  0  0  0  0  0  0  0  0
   32.8770    0.5639   29.3487 H   0  0  0  0  0  0  0  0  0  0  0  0
   33.0464    1.7665   30.6106 H   0  0  0  0  0  0  0  0  0  0  0  0
   30.7976    1.6468   28.5474 H   0  0  0  0  0  0  0  0  0  0  0  0
   32.1376    2.7705   28.5472 H   0  0  0  0  0  0  0  0  0  0  0  0
   31.3811    3.7090   30.7383 H   0  0  0  0  0  0  0  0  0  0  0  0
   30.0250    2.5812   30.7796 H   0  0  0  0  0  0  0  0  0  0  0  0
   29.1259    3.4878   28.6738 H   0  0  0  0  0  0  0  0  0  0  0  0
   30.4527    4.6569   28.6000 H   0  0  0  0  0  0  0  0  0  0  0  0
   29.7437    5.5770   30.8253 H   0  0  0  0  0  0  0  0  0  0  0  0
   28.4182    4.4138   30.8878 H   0  0  0  0  0  0  0  0  0  0  0  0
   27.4787    5.3672   28.7731 H   0  0  0  0  0  0  0  0  0  0  0  0
   28.8064    6.5301   28.7084 H   0  0  0  0  0  0  0  0  0  0  0  0
   28.1128    7.4443   30.9343 H   0  0  0  0  0  0  0  0  0  0  0  0
   26.7848    6.2823   30.9974 H   0  0  0  0  0  0  0  0  0  0  0  0
   25.8383    7.2488   28.8918 H   0  0  0  0  0  0  0  0  0  0  0  0
   27.1667    8.4109   28.8281 H   0  0  0  0  0  0  0  0  0  0  0  0
   26.4819    9.3154   31.0612 H   0  0  0  0  0  0  0  0  0  0  0  0
   25.1535    8.1536   31.1241 H   0  0  0  0  0  0  0  0  0  0  0  0
   24.2074    9.1204   29.0190 H   0  0  0  0  0  0  0  0  0  0  0  0
   25.5368   10.2817   28.9545 H   0  0  0  0  0  0  0  0  0  0  0  0
   24.8469   11.1900   31.1849 H   0  0  0  0  0  0  0  0  0  0  0  0
   23.5149   10.0315   31.2428 H   0  0  0  0  0  0  0  0  0  0  0  0
   22.5854   10.9940   29.1280 H   0  0  0  0  0  0  0  0  0  0  0  0
   23.9159   12.1525   29.0692 H   0  0  0  0  0  0  0  0  0  0  0  0
   23.2181   13.0700   31.2892 H   0  0  0  0  0  0  0  0  0  0  0  0
   21.8907   11.9071   31.3528 H   0  0  0  0  0  0  0  0  0  0  0  0
   20.9523   12.8586   29.2375 H   0  0  0  0  0  0  0  0  0  0  0  0
   22.2804   14.0219   29.1712 H   0  0  0  0  0  0  0  0  0  0  0  0
   21.5883   14.9404   31.3935 H   0  0  0  0  0  0  0  0  0  0  0  0
   20.2613   13.7775   31.4619 H   0  0  0  0  0  0  0  0  0  0  0  0
   19.3191   14.7276   29.3464 H   0  0  0  0  0  0  0  0  0  0  0  0
   20.6473   15.8892   29.2765 H   0  0  0  0  0  0  0  0  0  0  0  0
   19.9597   16.8073   31.5020 H   0  0  0  0  0  0  0  0  0  0  0  0
   18.6295   15.6487   31.5685 H   0  0  0  0  0  0  0  0  0  0  0  0
   17.6920   16.6035   29.4524 H   0  0  0  0  0  0  0  0  0  0  0  0
   19.0234   17.7625   29.3876 H   0  0  0  0  0  0  0  0  0  0  0  0
   18.3338   18.6813   31.6104 H   0  0  0  0  0  0  0  0  0  0  0  0
   17.0040   17.5215   31.6779 H   0  0  0  0  0  0  0  0  0  0  0  0
   16.0644   18.4747   29.5638 H   0  0  0  0  0  0  0  0  0  0  0  0
   17.3944   19.6344   29.4944 H   0  0  0  0  0  0  0  0  0  0  0  0
   16.7090   20.5579   31.7151 H   0  0  0  0  0  0  0  0  0  0  0  0
   15.3820   19.3949   31.7918 H   0  0  0  0  0  0  0  0  0  0  0  0
   14.4299   20.3382   29.6796 H   0  0  0  0  0  0  0  0  0  0  0  0
   15.7589   21.4992   29.5975 H   0  0  0  0  0  0  0  0  0  0  0  0
   15.0835   22.4280   31.8223 H   0  0  0  0  0  0  0  0  0  0  0  0
   13.7531   21.2689   31.9017 H   0  0  0  0  0  0  0  0  0  0  0  0
   12.8047   22.2132   29.7862 H   0  0  0  0  0  0  0  0  0  0  0  0
   14.1351   23.3720   29.7074 H   0  0  0  0  0  0  0  0  0  0  0  0
   13.4589   24.3010   31.9305 H   0  0  0  0  0  0  0  0  0  0  0  0
   12.1288   23.1419   32.0106 H   0  0  0  0  0  0  0  0  0  0  0  0
   11.1802   24.0854   29.8946 H   0  0  0  0  0  0  0  0  0  0  0  0
   12.5100   25.2450   29.8164 H   0  0  0  0  0  0  0  0  0  0  0  0
   11.8319   26.1720   32.0407 H   0  0  0  0  0  0  0  0  0  0  0  0
   10.5018   25.0125   32.1180 H   0  0  0  0  0  0  0  0  0  0  0  0
    9.5561   25.9548   30.0016 H   0  0  0  0  0  0  0  0  0  0  0  0
   10.8860   27.1153   29.9242 H   0  0  0  0  0  0  0  0  0  0  0  0
   10.2040   28.0462   32.1403 H   0  0  0  0  0  0  0  0  0  0  0  0
    8.8785   26.8843   32.2258 H   0  0  0  0  0  0  0  0  0  0  0  0
    7.9251   27.8106   30.0934 H   0  0  0  0  0  0  0  0  0  0  0  0
    9.2558   28.9776   30.0207 H   0  0  0  0  0  0  0  0  0  0  0  0
    8.6213   29.8566   32.2194 H   0  0  0  0  0  0  0  0  0  0  0  0
    7.2547   28.7451   32.3254 H   0  0  0  0  0  0  0  0  0  0  0  0
    6.2834   29.7198   30.2277 H   0  0  0  0  0  0  0  0  0  0  0  0
    7.6201   30.8633   30.1395 H   0  0  0  0  0  0  0  0  0  0  0  0
    5.5922   30.6310   32.4214 H   0  0  0  0  0  0  0  0  0  0  0  0
    5.6158   31.8821   31.1742 H   0  0  0  0  0  0  0  0  0  0  0  0
    7.8817   32.6222   31.9467 H   0  0  0  0  0  0  0  0  0  0  0  0
    7.8548   31.4149   33.2190 H   0  0  0  0  0  0  0  0  0  0  0  0
    5.8206   32.3736   34.2002 H   0  0  0  0  0  0  0  0  0  0  0  0
    5.8210   33.6318   32.9518 H   0  0  0  0  0  0  0  0  0  0  0  0
    8.1086   34.3489   33.6872 H   0  0  0  0  0  0  0  0  0  0  0  0
    8.1089   33.0945   34.9293 H   0  0  0  0  0  0  0  0  0  0  0  0
    6.0610   34.0980   35.9518 H   0  0  0  0  0  0  0  0  0  0  0  0
    6.0586   35.3558   34.7102 H   0  0  0  0  0  0  0  0  0  0  0  0
    8.3375   36.0845   35.4421 H   0  0  0  0  0  0  0  0  0  0  0  0
    8.3417   34.8258   36.6825 H   0  0  0  0  0  0  0  0  0  0  0  0
    6.2895   35.8283   37.7067 H   0  0  0  0  0  0  0  0  0  0  0  0
    6.2868   37.0876   36.4676 H   0  0  0  0  0  0  0  0  0  0  0  0
    8.5649   37.8169   37.2033 H   0  0  0  0  0  0  0  0  0  0  0  0
    8.5684   36.5573   38.4417 H   0  0  0  0  0  0  0  0  0  0  0  0
    6.5157   37.5604   39.4661 H   0  0  0  0  0  0  0  0  0  0  0  0
    6.5160   38.8215   38.2294 H   0  0  0  0  0  0  0  0  0  0  0  0
    8.7954   39.5454   38.9699 H   0  0  0  0  0  0  0  0  0  0  0  0
    8.7931   38.2852   40.2074 H   0  0  0  0  0  0  0  0  0  0  0  0
    6.7423   39.2929   41.2294 H   0  0  0  0  0  0  0  0  0  0  0  0
    6.7451   40.5531   39.9919 H   0  0  0  0  0  0  0  0  0  0  0  0
    9.0240   41.2763   40.7338 H   0  0  0  0  0  0  0  0  0  0  0  0
    9.0196   40.0167   41.9723 H   0  0  0  0  0  0  0  0  0  0  0  0
    6.9687   41.0269   42.9918 H   0  0  0  0  0  0  0  0  0  0  0  0
    6.9741   42.2868   41.7541 H   0  0  0  0  0  0  0  0  0  0  0  0
    9.2523   43.0081   42.4978 H   0  0  0  0  0  0  0  0  0  0  0  0
    9.2475   41.7484   43.7352 H   0  0  0  0  0  0  0  0  0  0  0  0
    7.1946   42.7582   44.7531 H   0  0  0  0  0  0  0  0  0  0  0  0
    7.2040   44.0196   43.5171 H   0  0  0  0  0  0  0  0  0  0  0  0
    9.4837   44.7346   44.2670 H   0  0  0  0  0  0  0  0  0  0  0  0
    9.4704   43.4748   45.5046 H   0  0  0  0  0  0  0  0  0  0  0  0
    7.4172   44.4911   46.5151 H   0  0  0  0  0  0  0  0  0  0  0  0
    7.4339   45.7517   45.2788 H   0  0  0  0  0  0  0  0  0  0  0  0
    9.7128   46.4613   46.0348 H   0  0  0  0  0  0  0  0  0  0  0  0
    9.6936   45.2013   47.2719 H   0  0  0  0  0  0  0  0  0  0  0  0
    7.6448   46.2225   48.2818 H   0  0  0  0  0  0  0  0  0  0  0  0
    7.6619   47.4824   47.0444 H   0  0  0  0  0  0  0  0  0  0  0  0
    9.9415   48.1913   47.7988 H   0  0  0  0  0  0  0  0  0  0  0  0
    9.9229   46.9318   49.0368 H   0  0  0  0  0  0  0  0  0  0  0  0
    7.8716   47.9537   50.0453 H   0  0  0  0  0  0  0  0  0  0  0  0
    7.8920   49.2147   48.8080 H   0  0  0  0  0  0  0  0  0  0  0  0
   10.1700   49.9206   49.5679 H   0  0  0  0  0  0  0  0  0  0  0  0
   10.1501   48.6610   50.8034 H   0  0  0  0  0  0  0  0  0  0  0  0
    8.1030   49.6867   51.8131 H   0  0  0  0  0  0  0  0  0  0  0  0
    8.1222   50.9451   50.5756 H   0  0  0  0  0  0  0  0  0  0  0  0
   10.3972   51.6487   51.3365 H   0  0  0  0  0  0  0  0  0  0  0  0
   10.3791   50.3924   52.5705 H   0  0  0  0  0  0  0  0  0  0  0  0
    8.3292   51.4123   53.5781 H   0  0  0  0  0  0  0  0  0  0  0  0
    8.3433   52.6776   52.3320 H   0  0  0  0  0  0  0  0  0  0  0  0
   10.6277   53.3871   53.0914 H   0  0  0  0  0  0  0  0  0  0  0  0
   10.6297   52.1117   54.3346 H   0  0  0  0  0  0  0  0  0  0  0  0
    8.5538   53.1352   55.3433 H   0  0  0  0  0  0  0  0  0  0  0  0
    8.5736   54.3970   54.1037 H   0  0  0  0  0  0  0  0  0  0  0  0
   10.8491   55.1138   54.8634 H   0  0  0  0  0  0  0  0  0  0  0  0
   10.8272   53.8539   56.1028 H   0  0  0  0  0  0  0  0  0  0  0  0
    8.7702   54.8797   57.1058 H   0  0  0  0  0  0  0  0  0  0  0  0
    8.8033   56.1405   55.8698 H   0  0  0  0  0  0  0  0  0  0  0  0
   11.0810   56.8367   56.6410 H   0  0  0  0  0  0  0  0  0  0  0  0
   11.0464   55.5774   57.8764 H   0  0  0  0  0  0  0  0  0  0  0  0
    9.0038   56.6112   58.8792 H   0  0  0  0  0  0  0  0  0  0  0  0
    9.0286   57.8698   57.6413 H   0  0  0  0  0  0  0  0  0  0  0  0
   11.3035   58.5779   58.4023 H   0  0  0  0  0  0  0  0  0  0  0  0
   11.2861   57.3149   59.6362 H   0  0  0  0  0  0  0  0  0  0  0  0
    9.2417   58.3359   60.6553 H   0  0  0  0  0  0  0  0  0  0  0  0
    9.2550   59.5980   59.4204 H   0  0  0  0  0  0  0  0  0  0  0  0
   11.5325   60.3125   60.1759 H   0  0  0  0  0  0  0  0  0  0  0  0
   11.5189   59.0511   61.4109 H   0  0  0  0  0  0  0  0  0  0  0  0
    9.4709   60.0709   62.4301 H   0  0  0  0  0  0  0  0  0  0  0  0
    9.4844   61.3325   61.1945 H   0  0  0  0  0  0  0  0  0  0  0  0
   11.7616   62.0491   61.9535 H   0  0  0  0  0  0  0  0  0  0  0  0
   11.7448   60.7896   63.1902 H   0  0  0  0  0  0  0  0  0  0  0  0
    9.7062   61.8267   64.2181 H   0  0  0  0  0  0  0  0  0  0  0  0
    9.7244   63.0866   62.9819 H   0  0  0  0  0  0  0  0  0  0  0  0
   11.9717   62.5499   64.9956 H   0  0  0  0  0  0  0  0  0  0  0  0
   10.7997   63.8821   65.0682 H   0  0  0  0  0  0  0  0  0  0  0  0
   11.9904   63.8168   63.7523 H   0  0  0  0  0  0  0  0  0  0  0  0
  1  2  1  0  0  0  0
  1 78  1  0  0  0  0
  1 79  1  0  0  0  0
  1 80  1  0  0  0  0
  2  3  1  0  0  0  0
  2  4  2  0  0  0  0
  3  4  1  0  0  0  0
  3 81  1  0  0  0  0
  4  5  1  0  0  0  0
  4  6  1  0  0  0  0
  5 82  1  0  0  0  0
  5 83  1  0  0  0  0
  5 84  1  0  0  0  0
  6  7  1  0  0  0  0
  6 85  1  0  0  0  0
  6 86  1  0  0  0  0
  7  8  1  0  0  0  0
  7 87  1  0  0  0  0
  7 88  1  0  0  0  0
  8  9  1  0  0  0  0
  8 89  1  0  0  0  0
  8 90  1  0  0  0  0
  9 10  1  0  0  0  0
  9 91  1  0  0  0  0
  9 92  1  0  0  0  0
 10 11  1  0  0  0  0
 10 93  1  0  0  0  0
 10 94  1  0  0  0  0
 11 12  1  0  0  0  0
 11 95  1  0  0  0  0
 11 96  1  0  0  0  0
 12 13  1  0  0  0  0
 12 97  1  0  0  0  0
 12 98  1  0  0  0  0
 13 14  1  0  0  0  0
 13 99  1  0  0  0  0
 13100  1  0  0  0  0
 14 15  1  0  0  0  0
 14101  1  0  0  0  0
 14102  1  0  0  0  0
 15 16  1  0  0  0  0
 15103  1  0  0  0  0
 15104  1  0  0  0  0
 16 17  1  0  0  0  0
 16105  1  0  0  0  0
 16106  1  0  0  0  0
 17 18  1  0  0  0  0
 17107  1  0  0  0  0
 17108  1  0  0  0  0
 18 19  1  0  0  0  0
 18109  1  0  0  0  0
 18110  1  0  0  0  0
 19 20  1  0  0  0  0
 19111  1  0  0  0  0
 19112  1  0  0  0  0
 20 21  1  0  0  0  0
 20113  1  0  0  0  0
 20114  1  0  0  0  0
 21 22  1  0  0  0  0
 21115  1  0  0  0  0
 21116  1  0  0  0  0
 22 23  1  0  0  0  0
 22117  1  0  0  0  0
 22118  1  0  0  0  0
 23 24  1  0  0  0  0
 23119  1  0  0  0  0
 23120  1  0  0  0  0
 24 25  1  0  0  0  0
 24121  1  0  0  0  0
 24122  1  0  0  0  0
 25 26  1  0  0  0  0
 25123  1  0  0  0  0
 25124  1  0  0  0  0
 26 27  1  0  0  0  0
 26125  1  0  0  0  0
 26126  1  0  0  0  0
 27 28  1  0  0  0  0
 27127  1  0  0  0  0
 27128  1  0  0  0  0
 28 29  1  0  0  0  0
 28129  1  0  0  0  0
 28130  1  0  0  0  0
 29 30  1  0  0  0  0
 29131  1  0  0  0  0
 29132  1  0  0  0  0
 30 31  1  0  0  0  0
 30133  1  0  0  0  0
 30134  1  0  0  0  0
 31 32  1  0  0  0  0
 31135  1  0  0  0  0
 31136  1  0  0  0  0
 32 33  1  0  0  0  0
 32137  1  0  0  0  0
 32138  1  0  0  0  0
 33 34  1  0  0  0  0
 33139  1  0  0  0  0
 33140  1  0  0  0  0
 34 35  1  0  0  0  0
 34141  1  0  0  0  0
 34142  1  0  0  0  0
 35 36  1  0  0  0  0
 35143  1  0  0  0  0
 35144  1  0  0  0  0
 36 37  1  0  0  0  0
 36145  1  0  0  0  0
 36146  1  0  0  0  0
 37 38  1  0  0  0  0
 37147  1  0  0  0  0
 37148  1  0  0  0  0
 38 39  1  0  0  0  0
 38149  1  0  0  0  0
 38150  1  0  0  0  0
 39 40  1  0  0  0  0
 39151  1  0  0  0  0
 39152  1  0  0  0  0
 40 41  1  0  0  0  0
 40153  1  0  0  0  0
 40154  1  0  0  0  0
 41 42  1  0  0  0  0
 41155  1  0  0  0  0
 41156  1  0  0  0  0
 42 43  1  0  0  0  0
 42157  1  0  0  0  0
 42158  1  0  0  0  0
 43 44  1  0  0  0  0
 43159  1  0  0  0  0
 43160  1  0  0  0  0
 44 45  1  0  0  0  0
 44161  1  0  0  0  0
 44162  1  0  0  0  0
 45 46  1  0  0  0  0
 45163  1  0  0  0  0
 45164  1  0  0  0  0
 46 47  1  0  0  0  0
 46165  1  0  0  0  0
 46166  1  0  0  0  0
 47 48  1  0  0  0  0
 47167  1  0  0  0  0
 47168  1  0  0  0  0
 48 49  1  0  0  0  0
 48169  1  0  0  0  0
 48170  1  0  0  0  0
 49 50  1  0  0  0  0
 49171  1  0  0  0  0
 49172  1  0  0  0  0
 50 51  1  0  0  0  0
 50173  1  0  0  0  0
 50174  1  0  0  0  0
 51 52  1  0  0  0  0
 51175  1  0  0  0  0
 51176  1  0  0  0  0
 52 53  1  0  0  0  0
 52177  1  0  0  0  0
 52178  1  0  0  0  0
 53 54  1  0  0  0  0
 53179  1  0  0  0  0
 53180  1  0  0  0  0
 54 55  1  0  0  0  0
 54181  1  0  0  0  0
 54182  1  0  0  0  0
 55 56  1  0  0  0  0
 55183  1  0  0  0  0
 55184  1  0  0  0  0
 56 57  1  0  0  0  0
 56185  1  0  0  0  0
 56186  1  0  0  0  0
 57 58  1  0  0  0  0
 57187  1  0  0  0  0
 57188  1  0  0  0  0
 58 59  1  0  0  0  0
 58189  1  0  0  0  0
 58190  1  0  0  0  0
 59 60  1  0  0  0  0
 59191  1  0  0  0  0
 59192  1  0  0  0  0
 60 61  1  0  0  0  0
 60193  1  0  0  0  0
 60194  1  0  0  0  0
 61 62  1  0  0  0  0
 61195  1  0  0  0  0
 61196  1  0  0  0  0
 62 63  1  0  0  0  0
 62197  1  0  0  0  0
 62198  1  0  0  0  0
 63 64  1  0  0  0  0
 63199  1  0  0  0  0
 63200  1  0  0  0  0
 64 65  1  0  0  0  0
 64201  1  0  0  0  0
 64202  1  0  0  0  0
 65 66  1  0  0  0  0
 65203  1  0  0  0  0
 65204  1  0  0  0  0
 66 67  1  0  0  0  0
 66205  1  0  0  0  0
 66206  1  0  0  0  0
 67 68  1  0  0  0  0
 67207  1  0  0  0  0
 67208  1  0  0  0  0
 68 69  1  0  0  0  0
 68209  1  0  0  0  0
 68210  1  0  0  0  0
 69 70  1  0  0  0  0
 69211  1  0  0  0  0
 69212  1  0  0  0  0
 70 71  1  0  0  0  0
 70213  1  0  0  0  0
 70214  1  0  0  0  0
 71 72  1  0  0  0  0
 71215  1  0  0  0  0
 71216  1  0  0  0  0
 72 73  1  0  0  0  0
 72217  1  0  0  0  0
 72218  1  0  0  0  0
 73 74  1  0  0  0  0
 73219  1  0  0  0  0
 73220  1  0  0  0  0
 74 75  1  0  0  0  0
 74221  1  0  0  0  0
 74222  1  0  0  0  0
 75 76  1  0  0  0  0
 75223  1  0  0  0  0
 75224  1  0  0  0  0
 76 77  1  0  0  0  0
 76225  1  0  0  0  0
 76226  1  0  0  0  0
 77227  1  0  0  0  0
 77228  1  0  0  0  0
 77229  1  0  0  0  0
M  END
$$$$
