
 OpenBabel04232216423D

 18 18  0  0  0  0  0  0  0  0999 V2000
    3.5268    0.1052   -2.0971 C   0  0  0  0  0  0  0  0  0  0  0  0
    3.4177    0.0638   -0.6129 C   0  0  0  0  0  0  0  0  0  0  0  0
    3.2407   -1.1214    0.0078 C   0  0  0  0  0  0  0  0  0  0  0  0
    4.6498   -1.6125    0.1942 C   0  0  0  0  0  0  0  0  0  0  0  0
    5.5850   -0.7800    1.0511 C   0  0  0  0  0  0  0  0  0  0  0  0
    5.0092   -2.5731   -0.6025 N   0  0  0  0  0  0  0  0  0  0  0  0
    6.2557   -2.3422   -1.1427 N   0  0  0  0  0  0  0  0  0  0  0  0
    6.0571   -1.9859   -2.3297 N   0  0  0  0  0  0  0  0  0  0  0  0
    5.8565   -0.5344   -2.4987 C   0  0  0  0  0  0  0  0  0  0  0  0
    4.4991   -0.1584   -2.8954 N   0  0  0  0  0  0  0  0  0  0  0  0
    2.6062    0.4797   -2.5762 H   0  0  0  0  0  0  0  0  0  0  0  0
    2.9430    0.9389   -0.1711 H   0  0  0  0  0  0  0  0  0  0  0  0
    2.7685   -1.9331   -0.5679 H   0  0  0  0  0  0  0  0  0  0  0  0
    5.0334   -0.3568    1.8961 H   0  0  0  0  0  0  0  0  0  0  0  0
    6.0075    0.0452    0.4725 H   0  0  0  0  0  0  0  0  0  0  0  0
    6.3982   -1.3973    1.4367 H   0  0  0  0  0  0  0  0  0  0  0  0
    6.5150   -0.2371   -3.3224 H   0  0  0  0  0  0  0  0  0  0  0  0
    6.2147    0.0480   -1.6434 H   0  0  0  0  0  0  0  0  0  0  0  0
  1  2  1  0  0  0  0
  1 10  2  3  0  0  0
  1 11  1  0  0  0  0
  2  3  2  3  0  0  0
  2 12  1  0  0  0  0
  3  4  1  0  0  0  0
  3 13  1  0  0  0  0
  4  5  1  0  0  0  0
  4  6  2  3  0  0  0
  5 14  1  0  0  0  0
  5 15  1  0  0  0  0
  5 16  1  0  0  0  0
  6  7  1  0  0  0  0
  7  8  2  3  0  0  0
  8  9  1  0  0  0  0
  9 10  1  0  0  0  0
  9 17  1  0  0  0  0
  9 18  1  0  0  0  0
M  END
$$$$
