
 OpenBabel04232216453D

 48 50  0  0  0  0  0  0  0  0999 V2000
    1.8751    0.2257   -1.0456 C   0  0  0  0  0  0  0  0  0  0  0  0
    3.2432    0.8318   -1.2454 C   0  0  0  0  0  0  0  0  0  0  0  0
    3.7032    1.5484   -0.0571 C   0  0  0  0  0  3  0  0  0  0  0  0
    5.0332    1.3517    0.5090 C   0  0  0  0  0  0  0  0  0  0  0  0
    5.1934   -0.1015    0.9415 C   0  0  0  0  0  0  0  0  0  0  0  0
    5.9969    2.2536    0.1861 C   0  0  0  0  0  0  0  0  0  0  0  0
    5.5889    3.6994   -0.1893 C   0  0  0  0  0  0  0  0  0  0  0  0
    4.9585    4.3688    0.9005 O   0  0  0  0  0  0  0  0  0  0  0  0
    7.4006    1.8022   -0.2784 C   0  0  0  0  0  0  0  0  0  0  0  0
    7.9802    0.5292    0.3379 C   0  0  0  0  0  0  0  0  0  0  0  0
    8.2008    2.7190   -1.1313 N   0  0  0  0  0  0  0  0  0  0  0  0
    9.6382    2.7268   -0.9818 C   0  0  0  0  0  0  0  0  0  0  0  0
   10.2299    2.4547    0.2741 C   0  0  0  0  0  0  0  0  0  0  0  0
   11.6013    2.2917    0.4437 C   0  0  0  0  0  0  0  0  0  0  0  0
   12.4498    2.5622   -0.6129 C   0  0  0  0  0  0  0  0  0  0  0  0
   11.9321    2.9893   -1.8444 C   0  0  0  0  0  0  0  0  0  0  0  0
   12.9343    3.3632   -2.9072 C   0  0  0  0  0  0  0  0  0  0  0  0
   10.5206    3.0663   -2.0428 C   0  0  0  0  0  0  0  0  0  0  0  0
    9.9571    3.5667   -3.3501 C   0  0  0  0  0  0  0  0  0  0  0  0
    7.5268    1.7353   -1.8034 C   0  0  0  0  0  0  0  0  0  0  0  0
    6.2345    1.7817   -2.5080 C   0  0  0  0  0  0  0  0  0  0  0  0
    5.4594    0.6884   -2.4398 C   0  0  0  0  0  0  0  0  0  0  0  0
    4.0070    0.5427   -2.3463 C   0  0  0  0  0  0  0  0  0  0  0  0
    1.0935    0.9926   -1.0915 H   0  0  0  0  0  0  0  0  0  0  0  0
    1.8191   -0.2569   -0.0576 H   0  0  0  0  0  0  0  0  0  0  0  0
    1.6480   -0.5570   -1.7740 H   0  0  0  0  0  0  0  0  0  0  0  0
    2.9417    1.9495    0.6179 H   0  0  0  0  0  0  0  0  0  0  0  0
    4.2304   -0.6049    1.0911 H   0  0  0  0  0  0  0  0  0  0  0  0
    5.7135   -0.1785    1.9006 H   0  0  0  0  0  0  0  0  0  0  0  0
    5.7067   -0.6930    0.1842 H   0  0  0  0  0  0  0  0  0  0  0  0
    4.8894    3.7237   -1.0364 H   0  0  0  0  0  0  0  0  0  0  0  0
    6.4417    4.3158   -0.4787 H   0  0  0  0  0  0  0  0  0  0  0  0
    4.0869    3.9565    1.0099 H   0  0  0  0  0  0  0  0  0  0  0  0
    7.6640    0.4267    1.3771 H   0  0  0  0  0  0  0  0  0  0  0  0
    9.0646    0.4429    0.3616 H   0  0  0  0  0  0  0  0  0  0  0  0
    7.6798   -0.3486   -0.2416 H   0  0  0  0  0  0  0  0  0  0  0  0
    9.6099    2.3049    1.1552 H   0  0  0  0  0  0  0  0  0  0  0  0
   11.9998    1.9615    1.3996 H   0  0  0  0  0  0  0  0  0  0  0  0
   13.5237    2.4725   -0.4571 H   0  0  0  0  0  0  0  0  0  0  0  0
   13.9635    3.2376   -2.5529 H   0  0  0  0  0  0  0  0  0  0  0  0
   12.8179    4.4154   -3.1850 H   0  0  0  0  0  0  0  0  0  0  0  0
   12.8168    2.7232   -3.7864 H   0  0  0  0  0  0  0  0  0  0  0  0
   10.7311    3.7600   -4.0970 H   0  0  0  0  0  0  0  0  0  0  0  0
    9.4270    4.5102   -3.1859 H   0  0  0  0  0  0  0  0  0  0  0  0
    9.2772    2.8307   -3.7880 H   0  0  0  0  0  0  0  0  0  0  0  0
    5.8216    2.7652   -2.7396 H   0  0  0  0  0  0  0  0  0  0  0  0
    5.9472   -0.2590   -2.1875 H   0  0  0  0  0  0  0  0  0  0  0  0
    3.5771   -0.0811   -3.1223 H   0  0  0  0  0  0  0  0  0  0  0  0
  1  2  1  0  0  0  0
  1 24  1  0  0  0  0
  1 25  1  0  0  0  0
  1 26  1  0  0  0  0
  2  3  1  0  0  0  0
  2 23  2  3  0  0  0
  3  4  1  0  0  0  0
  3 27  1  0  0  0  0
  4  5  1  0  0  0  0
  4  6  2  3  0  0  0
  5 28  1  0  0  0  0
  5 29  1  0  0  0  0
  5 30  1  0  0  0  0
  6  7  1  0  0  0  0
  6  9  1  0  0  0  0
  7  8  1  0  0  0  0
  7 31  1  0  0  0  0
  7 32  1  0  0  0  0
  8 33  1  0  0  0  0
  9 10  1  0  0  0  0
  9 11  1  0  0  0  0
  9 20  2  0  0  0  0
 10 34  1  0  0  0  0
 10 35  1  0  0  0  0
 10 36  1  0  0  0  0
 11 12  1  0  0  0  0
 11 20  1  0  0  0  0
 12 13  1  0  0  0  0
 12 18  2  0  0  0  0
 13 14  2  0  0  0  0
 13 37  1  0  0  0  0
 14 15  1  0  0  0  0
 14 38  1  0  0  0  0
 15 16  2  0  0  0  0
 15 39  1  0  0  0  0
 16 17  1  0  0  0  0
 16 18  1  0  0  0  0
 17 40  1  0  0  0  0
 17 41  1  0  0  0  0
 17 42  1  0  0  0  0
 18 19  1  0  0  0  0
 19 43  1  0  0  0  0
 19 44  1  0  0  0  0
 19 45  1  0  0  0  0
 20 21  1  0  0  0  0
 21 22  2  3  0  0  0
 21 46  1  0  0  0  0
 22 23  1  0  0  0  0
 22 47  1  0  0  0  0
 23 48  1  0  0  0  0
M  END
$$$$
