
 OpenBabel04232216593D

238237  0  0  0  0  0  0  0  0999 V2000
    2.8520    0.1288    1.1185 O   0  0  0  0  0  0  0  0  0  0  0  0
    2.3228    0.1382    0.0206 C   0  0  0  0  0  0  0  0  0  0  0  0
    3.0810    0.1570   -1.2814 C   0  0  0  0  0  0  0  0  0  0  0  0
    4.5775    0.1643   -1.0154 C   0  0  0  0  0  0  0  0  0  0  0  0
    5.3481    0.1833   -2.3227 C   0  0  0  0  0  0  0  0  0  0  0  0
    6.8421    0.1906   -2.0502 C   0  0  0  0  0  0  0  0  0  0  0  0
    7.6071    0.2116   -3.3618 C   0  0  0  0  0  0  0  0  0  0  0  0
    9.1003    0.2168   -3.0905 C   0  0  0  0  0  0  0  0  0  0  0  0
    9.8638    0.2378   -4.4016 C   0  0  0  0  0  0  0  0  0  0  0  0
   11.3562    0.2451   -4.1294 C   0  0  0  0  0  0  0  0  0  0  0  0
   12.1190    0.2681   -5.4403 C   0  0  0  0  0  0  0  0  0  0  0  0
   13.6110    0.2733   -5.1679 C   0  0  0  0  0  0  0  0  0  0  0  0
   14.3736    0.2943   -6.4788 C   0  0  0  0  0  0  0  0  0  0  0  0
   15.8656    0.2975   -6.2063 C   0  0  0  0  0  0  0  0  0  0  0  0
   16.6281    0.3185   -7.5172 C   0  0  0  0  0  0  0  0  0  0  0  0
   18.1201    0.3197   -7.2448 C   0  0  0  0  0  0  0  0  0  0  0  0
   18.8826    0.3386   -8.5556 C   0  0  0  0  0  0  0  0  0  0  0  0
   20.3745    0.3378   -8.2832 C   0  0  0  0  0  0  0  0  0  0  0  0
   21.1370    0.3588   -9.5941 C   0  0  0  0  0  0  0  0  0  0  0  0
   22.6289    0.3559   -9.3217 C   0  0  0  0  0  0  0  0  0  0  0  0
   23.3914    0.3789  -10.6325 C   0  0  0  0  0  0  0  0  0  0  0  0
   24.8833    0.3741  -10.3601 C   0  0  0  0  0  0  0  0  0  0  0  0
   25.6458    0.3991  -11.6709 C   0  0  0  0  0  0  0  0  0  0  0  0
   27.1378    0.3962  -11.3985 C   0  0  0  0  0  0  0  0  0  0  0  0
   27.9002    0.4212  -12.7093 C   0  0  0  0  0  0  0  0  0  0  0  0
   29.3922    0.4164  -12.4369 C   0  0  0  0  0  0  0  0  0  0  0  0
   30.1546    0.4414  -13.7477 C   0  0  0  0  0  0  0  0  0  0  0  0
   31.6466    0.4365  -13.4753 C   0  0  0  0  0  0  0  0  0  0  0  0
   32.4090    0.4615  -14.7861 C   0  0  0  0  0  0  0  0  0  0  0  0
   33.9010    0.4566  -14.5137 C   0  0  0  0  0  0  0  0  0  0  0  0
   34.6634    0.4817  -15.8245 C   0  0  0  0  0  0  0  0  0  0  0  0
   36.1554    0.4768  -15.5521 C   0  0  0  0  0  0  0  0  0  0  0  0
   36.9178    0.5038  -16.8629 C   0  0  0  0  0  0  0  0  0  0  0  0
   38.4098    0.4990  -16.5905 C   0  0  0  0  0  0  0  0  0  0  0  0
   39.1722    0.5260  -17.9012 C   0  0  0  0  0  0  0  0  0  0  0  0
   40.6642    0.5211  -17.6289 C   0  0  0  0  0  0  0  0  0  0  0  0
   41.4266    0.5502  -18.9396 C   0  0  0  0  0  0  0  0  0  0  0  0
   42.9186    0.5433  -18.6672 C   0  0  0  0  0  0  0  0  0  0  0  0
   43.6810    0.5743  -19.9779 C   0  0  0  0  0  0  0  0  0  0  0  0
   45.1730    0.5655  -19.7056 C   0  0  0  0  0  0  0  0  0  0  0  0
   45.9354    0.5985  -21.0162 C   0  0  0  0  0  0  0  0  0  0  0  0
   47.4274    0.5917  -20.7439 C   0  0  0  0  0  0  0  0  0  0  0  0
   48.1899    0.6248  -22.0545 C   0  0  0  0  0  0  0  0  0  0  0  0
   49.6818    0.6179  -21.7822 C   0  0  0  0  0  0  0  0  0  0  0  0
   50.4443    0.6510  -23.0928 C   0  0  0  0  0  0  0  0  0  0  0  0
   51.9362    0.6441  -22.8204 C   0  0  0  0  0  0  0  0  0  0  0  0
   52.6987    0.6772  -24.1310 C   0  0  0  0  0  0  0  0  0  0  0  0
   54.1906    0.6683  -23.8588 C   0  0  0  0  0  0  0  0  0  0  0  0
   54.9531    0.7034  -25.1693 C   0  0  0  0  0  0  0  0  0  0  0  0
   56.4450    0.6925  -24.8971 C   0  0  0  0  0  0  0  0  0  0  0  0
   57.2075    0.7276  -26.2076 C   0  0  0  0  0  0  0  0  0  0  0  0
   58.6994    0.7146  -25.9355 C   0  0  0  0  0  0  0  0  0  0  0  0
   59.4619    0.7517  -27.2460 C   0  0  0  0  0  0  0  0  0  0  0  0
   60.9538    0.7368  -26.9739 C   0  0  0  0  0  0  0  0  0  0  0  0
   61.7163    0.7759  -28.2843 C   0  0  0  0  0  0  0  0  0  0  0  0
   63.2082    0.7589  -28.0122 C   0  0  0  0  0  0  0  0  0  0  0  0
   63.9707    0.7961  -29.3227 C   0  0  0  0  0  0  0  0  0  0  0  0
   65.4626    0.7791  -29.0507 C   0  0  0  0  0  0  0  0  0  0  0  0
   66.2251    0.8182  -30.3611 C   0  0  0  0  0  0  0  0  0  0  0  0
   67.7170    0.8013  -30.0891 C   0  0  0  0  0  0  0  0  0  0  0  0
   68.4795    0.8404  -31.3995 C   0  0  0  0  0  0  0  0  0  0  0  0
   69.9714    0.8234  -31.1275 C   0  0  0  0  0  0  0  0  0  0  0  0
   70.7339    0.8626  -32.4379 C   0  0  0  0  0  0  0  0  0  0  0  0
   72.2258    0.8456  -32.1659 C   0  0  0  0  0  0  0  0  0  0  0  0
   72.9883    0.8847  -33.4763 C   0  0  0  0  0  0  0  0  0  0  0  0
   74.4802    0.8678  -33.2043 C   0  0  0  0  0  0  0  0  0  0  0  0
   75.2427    0.9069  -34.5147 C   0  0  0  0  0  0  0  0  0  0  0  0
   76.7346    0.8899  -34.2426 C   0  0  0  0  0  0  0  0  0  0  0  0
   77.4971    0.9311  -35.5530 C   0  0  0  0  0  0  0  0  0  0  0  0
   78.9890    0.9141  -35.2810 C   0  0  0  0  0  0  0  0  0  0  0  0
   79.7516    0.9553  -36.5913 C   0  0  0  0  0  0  0  0  0  0  0  0
   81.2436    0.9383  -36.3193 C   0  0  0  0  0  0  0  0  0  0  0  0
   82.0064    0.9794  -37.6298 C   0  0  0  0  0  0  0  0  0  0  0  0
   83.4987    0.9625  -37.3581 C   0  0  0  0  0  0  0  0  0  0  0  0
   84.2620    1.0057  -38.6687 C   0  0  0  0  0  0  0  0  0  0  0  0
   85.7553    0.9888  -38.3987 C   0  0  0  0  0  0  0  0  0  0  0  0
   86.5200    1.0320  -39.7104 C   0  0  0  0  0  0  0  0  0  0  0  0
   88.0154    1.0131  -39.4427 C   0  0  0  0  0  0  0  0  0  0  0  0
   88.7903    1.0582  -40.7514 C   0  0  0  0  0  0  0  0  0  0  0  0
   90.2815    1.0392  -40.4803 C   0  0  0  0  0  0  0  0  0  0  0  0
    1.2220    0.1330   -0.0711 H   0  0  0  0  0  0  0  0  0  0  0  0
    2.7849    1.0514   -1.8415 H   0  0  0  0  0  0  0  0  0  0  0  0
    2.7969   -0.7293   -1.8602 H   0  0  0  0  0  0  0  0  0  0  0  0
    4.8574   -0.7199   -0.4286 H   0  0  0  0  0  0  0  0  0  0  0  0
    4.8454    1.0398   -0.4101 H   0  0  0  0  0  0  0  0  0  0  0  0
    5.0715    1.0706   -2.9034 H   0  0  0  0  0  0  0  0  0  0  0  0
    5.0835   -0.6952   -2.9220 H   0  0  0  0  0  0  0  0  0  0  0  0
    7.1220   -0.6974   -1.4705 H   0  0  0  0  0  0  0  0  0  0  0  0
    7.1098    1.0684   -1.4495 H   0  0  0  0  0  0  0  0  0  0  0  0
    7.3308    1.1003   -3.9421 H   0  0  0  0  0  0  0  0  0  0  0  0
    7.3411   -0.6655   -3.9644 H   0  0  0  0  0  0  0  0  0  0  0  0
    9.3787   -0.6720   -2.5110 H   0  0  0  0  0  0  0  0  0  0  0  0
    9.3683    1.0940   -2.4887 H   0  0  0  0  0  0  0  0  0  0  0  0
    9.5858    1.1260   -4.9823 H   0  0  0  0  0  0  0  0  0  0  0  0
    9.5982   -0.6401   -5.0033 H   0  0  0  0  0  0  0  0  0  0  0  0
   11.6350   -0.6438   -3.5502 H   0  0  0  0  0  0  0  0  0  0  0  0
   11.6223    1.1222   -3.5268 H   0  0  0  0  0  0  0  0  0  0  0  0
   11.8415    1.1577   -6.0190 H   0  0  0  0  0  0  0  0  0  0  0  0
   11.8522   -0.6084   -6.0436 H   0  0  0  0  0  0  0  0  0  0  0  0
   13.8885   -0.6156   -4.5882 H   0  0  0  0  0  0  0  0  0  0  0  0
   13.8783    1.1505   -4.5658 H   0  0  0  0  0  0  0  0  0  0  0  0
   14.0973    1.1839   -7.0580 H   0  0  0  0  0  0  0  0  0  0  0  0
   14.1055   -0.5821   -7.0816 H   0  0  0  0  0  0  0  0  0  0  0  0
   16.1419   -0.5921   -5.6272 H   0  0  0  0  0  0  0  0  0  0  0  0
   16.1339    1.1739   -5.6036 H   0  0  0  0  0  0  0  0  0  0  0  0
   16.3529    1.2088   -8.0958 H   0  0  0  0  0  0  0  0  0  0  0  0
   16.3589   -0.5572   -8.1205 H   0  0  0  0  0  0  0  0  0  0  0  0
   18.3951   -0.5700   -6.6650 H   0  0  0  0  0  0  0  0  0  0  0  0
   18.3896    1.1960   -6.6426 H   0  0  0  0  0  0  0  0  0  0  0  0
   18.6086    1.2290   -9.1348 H   0  0  0  0  0  0  0  0  0  0  0  0
   18.6121   -0.5370   -9.1584 H   0  0  0  0  0  0  0  0  0  0  0  0
   20.6486   -0.5533   -7.7053 H   0  0  0  0  0  0  0  0  0  0  0  0
   20.6450    1.2127   -7.6793 H   0  0  0  0  0  0  0  0  0  0  0  0
   20.8639    1.2506  -10.1713 H   0  0  0  0  0  0  0  0  0  0  0  0
   20.8656   -0.5153  -10.1987 H   0  0  0  0  0  0  0  0  0  0  0  0
   22.9022   -0.5367   -8.7456 H   0  0  0  0  0  0  0  0  0  0  0  0
   22.9002    1.2292   -8.7159 H   0  0  0  0  0  0  0  0  0  0  0  0
   23.1191    1.2722  -11.2078 H   0  0  0  0  0  0  0  0  0  0  0  0
   23.1191   -0.4937  -11.2389 H   0  0  0  0  0  0  0  0  0  0  0  0
   25.1558   -0.5200   -9.7859 H   0  0  0  0  0  0  0  0  0  0  0  0
   25.1554    1.2459   -9.7525 H   0  0  0  0  0  0  0  0  0  0  0  0
   25.3723    1.2924  -12.2457 H   0  0  0  0  0  0  0  0  0  0  0  0
   25.3747   -0.4735  -12.2779 H   0  0  0  0  0  0  0  0  0  0  0  0
   27.4112   -0.4971  -10.8237 H   0  0  0  0  0  0  0  0  0  0  0  0
   27.4088    1.2688  -10.7915 H   0  0  0  0  0  0  0  0  0  0  0  0
   27.6277    1.3153  -13.2834 H   0  0  0  0  0  0  0  0  0  0  0  0
   27.6282   -0.4506  -13.3169 H   0  0  0  0  0  0  0  0  0  0  0  0
   29.6646   -0.4777  -11.8627 H   0  0  0  0  0  0  0  0  0  0  0  0
   29.6642    1.2882  -11.8292 H   0  0  0  0  0  0  0  0  0  0  0  0
   29.8822    1.3355  -14.3218 H   0  0  0  0  0  0  0  0  0  0  0  0
   29.8825   -0.4304  -14.3553 H   0  0  0  0  0  0  0  0  0  0  0  0
   31.9190   -0.4576  -12.9011 H   0  0  0  0  0  0  0  0  0  0  0  0
   31.9187    1.3083  -12.8677 H   0  0  0  0  0  0  0  0  0  0  0  0
   32.1366    1.3556  -15.3602 H   0  0  0  0  0  0  0  0  0  0  0  0
   32.1369   -0.4103  -15.3937 H   0  0  0  0  0  0  0  0  0  0  0  0
   34.1734   -0.4374  -13.9396 H   0  0  0  0  0  0  0  0  0  0  0  0
   34.1730    1.3284  -13.9061 H   0  0  0  0  0  0  0  0  0  0  0  0
   34.3909    1.3758  -16.3986 H   0  0  0  0  0  0  0  0  0  0  0  0
   34.3914   -0.3901  -16.4322 H   0  0  0  0  0  0  0  0  0  0  0  0
   36.4280   -0.4180  -14.9792 H   0  0  0  0  0  0  0  0  0  0  0  0
   36.4273    1.3478  -14.9433 H   0  0  0  0  0  0  0  0  0  0  0  0
   36.6452    1.3986  -17.4358 H   0  0  0  0  0  0  0  0  0  0  0  0
   36.6460   -0.3672  -17.4717 H   0  0  0  0  0  0  0  0  0  0  0  0
   38.6825   -0.3958  -16.0176 H   0  0  0  0  0  0  0  0  0  0  0  0
   38.6816    1.3700  -15.9817 H   0  0  0  0  0  0  0  0  0  0  0  0
   38.8995    1.4208  -18.4741 H   0  0  0  0  0  0  0  0  0  0  0  0
   38.9004   -0.3450  -18.5101 H   0  0  0  0  0  0  0  0  0  0  0  0
   40.9370   -0.3744  -17.0572 H   0  0  0  0  0  0  0  0  0  0  0  0
   40.9359    1.3914  -17.0188 H   0  0  0  0  0  0  0  0  0  0  0  0
   41.1548    1.4465  -19.5106 H   0  0  0  0  0  0  0  0  0  0  0  0
   41.1540   -0.3193  -19.5503 H   0  0  0  0  0  0  0  0  0  0  0  0
   43.1906   -0.3537  -18.0974 H   0  0  0  0  0  0  0  0  0  0  0  0
   43.1911    1.4120  -18.0554 H   0  0  0  0  0  0  0  0  0  0  0  0
   43.4100    1.4721  -20.5470 H   0  0  0  0  0  0  0  0  0  0  0  0
   43.4075   -0.2936  -20.5904 H   0  0  0  0  0  0  0  0  0  0  0  0
   45.4442   -0.3330  -19.1377 H   0  0  0  0  0  0  0  0  0  0  0  0
   45.4463    1.4326  -19.0919 H   0  0  0  0  0  0  0  0  0  0  0  0
   45.6632    1.4963  -21.5848 H   0  0  0  0  0  0  0  0  0  0  0  0
   45.6631   -0.2694  -21.6293 H   0  0  0  0  0  0  0  0  0  0  0  0
   47.6997   -0.3061  -20.1753 H   0  0  0  0  0  0  0  0  0  0  0  0
   47.6997    1.4596  -20.1308 H   0  0  0  0  0  0  0  0  0  0  0  0
   47.9176    1.5225  -22.6230 H   0  0  0  0  0  0  0  0  0  0  0  0
   47.9176   -0.2432  -22.6676 H   0  0  0  0  0  0  0  0  0  0  0  0
   49.9541   -0.2798  -21.2136 H   0  0  0  0  0  0  0  0  0  0  0  0
   49.9541    1.4858  -21.1691 H   0  0  0  0  0  0  0  0  0  0  0  0
   50.1720    1.5487  -23.6613 H   0  0  0  0  0  0  0  0  0  0  0  0
   50.1720   -0.2169  -23.7058 H   0  0  0  0  0  0  0  0  0  0  0  0
   52.2085   -0.2537  -22.2519 H   0  0  0  0  0  0  0  0  0  0  0  0
   52.2085    1.5120  -22.2074 H   0  0  0  0  0  0  0  0  0  0  0  0
   52.4274    1.5756  -24.6989 H   0  0  0  0  0  0  0  0  0  0  0  0
   52.4254   -0.1900  -24.7448 H   0  0  0  0  0  0  0  0  0  0  0  0
   54.4620   -0.2309  -23.2921 H   0  0  0  0  0  0  0  0  0  0  0  0
   54.4638    1.5346  -23.2439 H   0  0  0  0  0  0  0  0  0  0  0  0
   54.6827    1.6033  -25.7353 H   0  0  0  0  0  0  0  0  0  0  0  0
   54.6789   -0.1622  -25.7848 H   0  0  0  0  0  0  0  0  0  0  0  0
   56.7153   -0.2075  -24.3311 H   0  0  0  0  0  0  0  0  0  0  0  0
   56.7193    1.5580  -24.2816 H   0  0  0  0  0  0  0  0  0  0  0  0
   56.9382    1.6282  -26.7730 H   0  0  0  0  0  0  0  0  0  0  0  0
   56.9323   -0.1373  -26.8238 H   0  0  0  0  0  0  0  0  0  0  0  0
   58.9688   -0.1867  -25.3714 H   0  0  0  0  0  0  0  0  0  0  0  0
   58.9745    1.5786  -25.3182 H   0  0  0  0  0  0  0  0  0  0  0  0
   59.1934    1.6538  -27.8094 H   0  0  0  0  0  0  0  0  0  0  0  0
   59.1858   -0.1115  -27.8639 H   0  0  0  0  0  0  0  0  0  0  0  0
   61.2224   -0.1660  -26.4117 H   0  0  0  0  0  0  0  0  0  0  0  0
   61.2298    1.5993  -26.3547 H   0  0  0  0  0  0  0  0  0  0  0  0
   61.4488    1.6794  -28.8459 H   0  0  0  0  0  0  0  0  0  0  0  0
   61.4393   -0.0858  -28.9040 H   0  0  0  0  0  0  0  0  0  0  0  0
   63.4756   -0.1439  -27.4495 H   0  0  0  0  0  0  0  0  0  0  0  0
   63.4854    1.6214  -27.3937 H   0  0  0  0  0  0  0  0  0  0  0  0
   63.7033    1.6989  -29.8855 H   0  0  0  0  0  0  0  0  0  0  0  0
   63.6935   -0.0664  -29.9413 H   0  0  0  0  0  0  0  0  0  0  0  0
   65.7301   -0.1244  -28.4891 H   0  0  0  0  0  0  0  0  0  0  0  0
   65.7396    1.6408  -28.4310 H   0  0  0  0  0  0  0  0  0  0  0  0
   65.9576    1.7218  -30.9227 H   0  0  0  0  0  0  0  0  0  0  0  0
   65.9481   -0.0435  -30.9809 H   0  0  0  0  0  0  0  0  0  0  0  0
   67.9845   -0.1023  -29.5276 H   0  0  0  0  0  0  0  0  0  0  0  0
   67.9940    1.6629  -29.4694 H   0  0  0  0  0  0  0  0  0  0  0  0
   68.2119    1.7439  -31.9611 H   0  0  0  0  0  0  0  0  0  0  0  0
   68.2025   -0.0213  -32.0193 H   0  0  0  0  0  0  0  0  0  0  0  0
   70.2389   -0.0801  -30.5659 H   0  0  0  0  0  0  0  0  0  0  0  0
   70.2484    1.6851  -30.5077 H   0  0  0  0  0  0  0  0  0  0  0  0
   70.4663    1.7661  -32.9994 H   0  0  0  0  0  0  0  0  0  0  0  0
   70.4569    0.0009  -33.0576 H   0  0  0  0  0  0  0  0  0  0  0  0
   72.4933   -0.0579  -31.6043 H   0  0  0  0  0  0  0  0  0  0  0  0
   72.5028    1.7073  -31.5461 H   0  0  0  0  0  0  0  0  0  0  0  0
   72.7207    1.7883  -34.0378 H   0  0  0  0  0  0  0  0  0  0  0  0
   72.7113    0.0231  -34.0960 H   0  0  0  0  0  0  0  0  0  0  0  0
   74.7477   -0.0358  -32.6427 H   0  0  0  0  0  0  0  0  0  0  0  0
   74.7572    1.7294  -32.5845 H   0  0  0  0  0  0  0  0  0  0  0  0
   74.9751    1.8104  -35.0762 H   0  0  0  0  0  0  0  0  0  0  0  0
   74.9657    0.0452  -35.1345 H   0  0  0  0  0  0  0  0  0  0  0  0
   77.0023   -0.0143  -33.6823 H   0  0  0  0  0  0  0  0  0  0  0  0
   77.0114    1.7508  -33.6217 H   0  0  0  0  0  0  0  0  0  0  0  0
   77.2293    1.8353  -36.1133 H   0  0  0  0  0  0  0  0  0  0  0  0
   77.2203    0.0702  -36.1740 H   0  0  0  0  0  0  0  0  0  0  0  0
   79.2568    0.0099  -34.7207 H   0  0  0  0  0  0  0  0  0  0  0  0
   79.2658    1.7750  -34.6600 H   0  0  0  0  0  0  0  0  0  0  0  0
   79.4838    1.8595  -37.1516 H   0  0  0  0  0  0  0  0  0  0  0  0
   79.4748    0.0944  -37.2123 H   0  0  0  0  0  0  0  0  0  0  0  0
   81.5113    0.0340  -35.7590 H   0  0  0  0  0  0  0  0  0  0  0  0
   81.5202    1.7992  -35.6984 H   0  0  0  0  0  0  0  0  0  0  0  0
   81.7383    1.8837  -38.1899 H   0  0  0  0  0  0  0  0  0  0  0  0
   81.7294    0.1186  -38.2506 H   0  0  0  0  0  0  0  0  0  0  0  0
   83.7663    0.0575  -36.7989 H   0  0  0  0  0  0  0  0  0  0  0  0
   83.7749    1.8226  -36.7359 H   0  0  0  0  0  0  0  0  0  0  0  0
   83.9931    1.9106  -39.2274 H   0  0  0  0  0  0  0  0  0  0  0  0
   83.9845    0.1455  -39.2905 H   0  0  0  0  0  0  0  0  0  0  0  0
   86.0223    0.0839  -37.8389 H   0  0  0  0  0  0  0  0  0  0  0  0
   86.0309    1.8487  -37.7758 H   0  0  0  0  0  0  0  0  0  0  0  0
   86.2506    1.9377  -40.2675 H   0  0  0  0  0  0  0  0  0  0  0  0
   86.2400    0.1726  -40.3319 H   0  0  0  0  0  0  0  0  0  0  0  0
   88.2789    0.1071  -38.8828 H   0  0  0  0  0  0  0  0  0  0  0  0
   88.2892    1.8711  -38.8160 H   0  0  0  0  0  0  0  0  0  0  0  0
   88.5279    1.9644  -41.3094 H   0  0  0  0  0  0  0  0  0  0  0  0
   88.5177    0.1998  -41.3762 H   0  0  0  0  0  0  0  0  0  0  0  0
   90.5746    1.9023  -39.8740 H   0  0  0  0  0  0  0  0  0  0  0  0
   90.8385    1.0716  -41.4201 H   0  0  0  0  0  0  0  0  0  0  0  0
   90.5643    0.1295  -39.9411 H   0  0  0  0  0  0  0  0  0  0  0  0
  1  2  2  0  0  0  0
  2  3  1  0  0  0  0
  2 81  1  0  0  0  0
  3  4  1  0  0  0  0
  3 82  1  0  0  0  0
  3 83  1  0  0  0  0
  4  5  1  0  0  0  0
  4 84  1  0  0  0  0
  4 85  1  0  0  0  0
  5  6  1  0  0  0  0
  5 86  1  0  0  0  0
  5 87  1  0  0  0  0
  6  7  1  0  0  0  0
  6 88  1  0  0  0  0
  6 89  1  0  0  0  0
  7  8  1  0  0  0  0
  7 90  1  0  0  0  0
  7 91  1  0  0  0  0
  8  9  1  0  0  0  0
  8 92  1  0  0  0  0
  8 93  1  0  0  0  0
  9 10  1  0  0  0  0
  9 94  1  0  0  0  0
  9 95  1  0  0  0  0
 10 11  1  0  0  0  0
 10 96  1  0  0  0  0
 10 97  1  0  0  0  0
 11 12  1  0  0  0  0
 11 98  1  0  0  0  0
 11 99  1  0  0  0  0
 12 13  1  0  0  0  0
 12100  1  0  0  0  0
 12101  1  0  0  0  0
 13 14  1  0  0  0  0
 13102  1  0  0  0  0
 13103  1  0  0  0  0
 14 15  1  0  0  0  0
 14104  1  0  0  0  0
 14105  1  0  0  0  0
 15 16  1  0  0  0  0
 15106  1  0  0  0  0
 15107  1  0  0  0  0
 16 17  1  0  0  0  0
 16108  1  0  0  0  0
 16109  1  0  0  0  0
 17 18  1  0  0  0  0
 17110  1  0  0  0  0
 17111  1  0  0  0  0
 18 19  1  0  0  0  0
 18112  1  0  0  0  0
 18113  1  0  0  0  0
 19 20  1  0  0  0  0
 19114  1  0  0  0  0
 19115  1  0  0  0  0
 20 21  1  0  0  0  0
 20116  1  0  0  0  0
 20117  1  0  0  0  0
 21 22  1  0  0  0  0
 21118  1  0  0  0  0
 21119  1  0  0  0  0
 22 23  1  0  0  0  0
 22120  1  0  0  0  0
 22121  1  0  0  0  0
 23 24  1  0  0  0  0
 23122  1  0  0  0  0
 23123  1  0  0  0  0
 24 25  1  0  0  0  0
 24124  1  0  0  0  0
 24125  1  0  0  0  0
 25 26  1  0  0  0  0
 25126  1  0  0  0  0
 25127  1  0  0  0  0
 26 27  1  0  0  0  0
 26128  1  0  0  0  0
 26129  1  0  0  0  0
 27 28  1  0  0  0  0
 27130  1  0  0  0  0
 27131  1  0  0  0  0
 28 29  1  0  0  0  0
 28132  1  0  0  0  0
 28133  1  0  0  0  0
 29 30  1  0  0  0  0
 29134  1  0  0  0  0
 29135  1  0  0  0  0
 30 31  1  0  0  0  0
 30136  1  0  0  0  0
 30137  1  0  0  0  0
 31 32  1  0  0  0  0
 31138  1  0  0  0  0
 31139  1  0  0  0  0
 32 33  1  0  0  0  0
 32140  1  0  0  0  0
 32141  1  0  0  0  0
 33 34  1  0  0  0  0
 33142  1  0  0  0  0
 33143  1  0  0  0  0
 34 35  1  0  0  0  0
 34144  1  0  0  0  0
 34145  1  0  0  0  0
 35 36  1  0  0  0  0
 35146  1  0  0  0  0
 35147  1  0  0  0  0
 36 37  1  0  0  0  0
 36148  1  0  0  0  0
 36149  1  0  0  0  0
 37 38  1  0  0  0  0
 37150  1  0  0  0  0
 37151  1  0  0  0  0
 38 39  1  0  0  0  0
 38152  1  0  0  0  0
 38153  1  0  0  0  0
 39 40  1  0  0  0  0
 39154  1  0  0  0  0
 39155  1  0  0  0  0
 40 41  1  0  0  0  0
 40156  1  0  0  0  0
 40157  1  0  0  0  0
 41 42  1  0  0  0  0
 41158  1  0  0  0  0
 41159  1  0  0  0  0
 42 43  1  0  0  0  0
 42160  1  0  0  0  0
 42161  1  0  0  0  0
 43 44  1  0  0  0  0
 43162  1  0  0  0  0
 43163  1  0  0  0  0
 44 45  1  0  0  0  0
 44164  1  0  0  0  0
 44165  1  0  0  0  0
 45 46  1  0  0  0  0
 45166  1  0  0  0  0
 45167  1  0  0  0  0
 46 47  1  0  0  0  0
 46168  1  0  0  0  0
 46169  1  0  0  0  0
 47 48  1  0  0  0  0
 47170  1  0  0  0  0
 47171  1  0  0  0  0
 48 49  1  0  0  0  0
 48172  1  0  0  0  0
 48173  1  0  0  0  0
 49 50  1  0  0  0  0
 49174  1  0  0  0  0
 49175  1  0  0  0  0
 50 51  1  0  0  0  0
 50176  1  0  0  0  0
 50177  1  0  0  0  0
 51 52  1  0  0  0  0
 51178  1  0  0  0  0
 51179  1  0  0  0  0
 52 53  1  0  0  0  0
 52180  1  0  0  0  0
 52181  1  0  0  0  0
 53 54  1  0  0  0  0
 53182  1  0  0  0  0
 53183  1  0  0  0  0
 54 55  1  0  0  0  0
 54184  1  0  0  0  0
 54185  1  0  0  0  0
 55 56  1  0  0  0  0
 55186  1  0  0  0  0
 55187  1  0  0  0  0
 56 57  1  0  0  0  0
 56188  1  0  0  0  0
 56189  1  0  0  0  0
 57 58  1  0  0  0  0
 57190  1  0  0  0  0
 57191  1  0  0  0  0
 58 59  1  0  0  0  0
 58192  1  0  0  0  0
 58193  1  0  0  0  0
 59 60  1  0  0  0  0
 59194  1  0  0  0  0
 59195  1  0  0  0  0
 60 61  1  0  0  0  0
 60196  1  0  0  0  0
 60197  1  0  0  0  0
 61 62  1  0  0  0  0
 61198  1  0  0  0  0
 61199  1  0  0  0  0
 62 63  1  0  0  0  0
 62200  1  0  0  0  0
 62201  1  0  0  0  0
 63 64  1  0  0  0  0
 63202  1  0  0  0  0
 63203  1  0  0  0  0
 64 65  1  0  0  0  0
 64204  1  0  0  0  0
 64205  1  0  0  0  0
 65 66  1  0  0  0  0
 65206  1  0  0  0  0
 65207  1  0  0  0  0
 66 67  1  0  0  0  0
 66208  1  0  0  0  0
 66209  1  0  0  0  0
 67 68  1  0  0  0  0
 67210  1  0  0  0  0
 67211  1  0  0  0  0
 68 69  1  0  0  0  0
 68212  1  0  0  0  0
 68213  1  0  0  0  0
 69 70  1  0  0  0  0
 69214  1  0  0  0  0
 69215  1  0  0  0  0
 70 71  1  0  0  0  0
 70216  1  0  0  0  0
 70217  1  0  0  0  0
 71 72  1  0  0  0  0
 71218  1  0  0  0  0
 71219  1  0  0  0  0
 72 73  1  0  0  0  0
 72220  1  0  0  0  0
 72221  1  0  0  0  0
 73 74  1  0  0  0  0
 73222  1  0  0  0  0
 73223  1  0  0  0  0
 74 75  1  0  0  0  0
 74224  1  0  0  0  0
 74225  1  0  0  0  0
 75 76  1  0  0  0  0
 75226  1  0  0  0  0
 75227  1  0  0  0  0
 76 77  1  0  0  0  0
 76228  1  0  0  0  0
 76229  1  0  0  0  0
 77 78  1  0  0  0  0
 77230  1  0  0  0  0
 77231  1  0  0  0  0
 78 79  1  0  0  0  0
 78232  1  0  0  0  0
 78233  1  0  0  0  0
 79 80  1  0  0  0  0
 79234  1  0  0  0  0
 79235  1  0  0  0  0
 80236  1  0  0  0  0
 80237  1  0  0  0  0
 80238  1  0  0  0  0
M  END
$$$$
