
 OpenBabel04232216553D

 36 36  0  0  0  0  0  0  0  0999 V2000
    2.1936    3.1980   -0.3325 C   0  0  0  0  0  0  0  0  0  0  0  0
    2.4661    2.4886    0.9865 C   0  0  0  0  0  0  0  0  0  0  0  0
    3.1209    1.1165    0.8259 C   0  0  0  0  0  0  0  0  0  0  0  0
    4.4278    1.2087    0.1671 N   0  0  0  0  0  0  0  0  0  0  0  0
    5.6235    1.2856    0.8317 C   0  0  0  0  0  0  0  0  0  0  0  0
    5.3365    0.1615    0.1870 C   0  0  0  0  0  0  0  0  0  0  0  0
    4.7665   -0.9460   -0.6104 C   0  0  0  0  0  0  0  0  0  0  0  0
    5.7888   -1.8660   -1.2890 C   0  0  0  0  0  0  0  0  0  0  0  0
    5.0188   -2.9524   -2.0561 C   0  0  0  0  0  0  0  0  0  0  0  0
    5.9192   -3.9517   -2.7755 C   0  0  0  0  0  0  0  0  0  0  0  0
    5.0837   -4.9972   -3.5267 C   0  0  0  0  0  0  0  0  0  0  0  0
    5.9824   -5.9987   -4.2504 C   0  0  0  0  0  0  0  0  0  0  0  0
    5.1826   -7.0481   -5.0059 C   0  0  0  0  0  0  0  0  0  0  0  0
    1.6913    4.1529   -0.1440 H   0  0  0  0  0  0  0  0  0  0  0  0
    1.5447    2.5988   -0.9790 H   0  0  0  0  0  0  0  0  0  0  0  0
    3.1209    3.4108   -0.8727 H   0  0  0  0  0  0  0  0  0  0  0  0
    1.5106    2.3545    1.5089 H   0  0  0  0  0  0  0  0  0  0  0  0
    3.0883    3.1307    1.6188 H   0  0  0  0  0  0  0  0  0  0  0  0
    2.4620    0.4763    0.2264 H   0  0  0  0  0  0  0  0  0  0  0  0
    3.2113    0.6463    1.8146 H   0  0  0  0  0  0  0  0  0  0  0  0
    5.5011    2.2852    1.1936 H   0  0  0  0  0  0  0  0  0  0  0  0
    4.0906   -0.5641   -1.3901 H   0  0  0  0  0  0  0  0  0  0  0  0
    4.1627   -1.5631    0.0668 H   0  0  0  0  0  0  0  0  0  0  0  0
    6.4465   -2.3280   -0.5416 H   0  0  0  0  0  0  0  0  0  0  0  0
    6.4259   -1.2969   -1.9769 H   0  0  0  0  0  0  0  0  0  0  0  0
    4.3603   -2.4708   -2.7900 H   0  0  0  0  0  0  0  0  0  0  0  0
    4.3714   -3.4940   -1.3549 H   0  0  0  0  0  0  0  0  0  0  0  0
    6.5680   -4.4540   -2.0486 H   0  0  0  0  0  0  0  0  0  0  0  0
    6.5669   -3.4222   -3.4836 H   0  0  0  0  0  0  0  0  0  0  0  0
    4.4291   -4.4972   -4.2517 H   0  0  0  0  0  0  0  0  0  0  0  0
    4.4321   -5.5280   -2.8210 H   0  0  0  0  0  0  0  0  0  0  0  0
    6.6332   -6.5000   -3.5250 H   0  0  0  0  0  0  0  0  0  0  0  0
    6.6306   -5.4675   -4.9568 H   0  0  0  0  0  0  0  0  0  0  0  0
    4.5469   -7.6254   -4.3271 H   0  0  0  0  0  0  0  0  0  0  0  0
    5.8609   -7.7452   -5.5089 H   0  0  0  0  0  0  0  0  0  0  0  0
    4.5457   -6.5874   -5.7676 H   0  0  0  0  0  0  0  0  0  0  0  0
  1  2  1  0  0  0  0
  1 14  1  0  0  0  0
  1 15  1  0  0  0  0
  1 16  1  0  0  0  0
  2  3  1  0  0  0  0
  2 17  1  0  0  0  0
  2 18  1  0  0  0  0
  3  4  1  0  0  0  0
  3 19  1  0  0  0  0
  3 20  1  0  0  0  0
  4  5  1  0  0  0  0
  4  6  1  0  0  0  0
  5  6  2  0  0  0  0
  5 21  1  0  0  0  0
  6  7  1  0  0  0  0
  7  8  1  0  0  0  0
  7 22  1  0  0  0  0
  7 23  1  0  0  0  0
  8  9  1  0  0  0  0
  8 24  1  0  0  0  0
  8 25  1  0  0  0  0
  9 10  1  0  0  0  0
  9 26  1  0  0  0  0
  9 27  1  0  0  0  0
 10 11  1  0  0  0  0
 10 28  1  0  0  0  0
 10 29  1  0  0  0  0
 11 12  1  0  0  0  0
 11 30  1  0  0  0  0
 11 31  1  0  0  0  0
 12 13  1  0  0  0  0
 12 32  1  0  0  0  0
 12 33  1  0  0  0  0
 13 34  1  0  0  0  0
 13 35  1  0  0  0  0
 13 36  1  0  0  0  0
M  END
$$$$
