
 OpenBabel04232217003D

227226  0  0  1  0  0  0  0  0999 V2000
    0.9465    0.0466   -0.1228 O   0  0  0  0  0  0  0  0  0  0  0  0
    2.3739    0.0888   -0.0466 C   0  0  0  0  0  0  0  0  0  0  0  0
    2.8789   -1.1056    0.7883 C   0  0  3  0  0  0  0  0  0  0  0  0
    2.3040   -1.0533    2.2086 C   0  0  0  0  0  0  0  0  0  0  0  0
    2.4117   -2.3168    0.1759 O   0  0  0  0  0  0  0  0  0  0  0  0
    4.4132   -1.1247    0.7970 C   0  0  0  0  0  0  0  0  0  0  0  0
    4.9862   -2.2858    1.6053 C   0  0  0  0  0  0  0  0  0  0  0  0
    6.4957   -2.2539    1.5795 C   0  0  0  0  0  0  0  0  0  0  0  0
    6.9721   -3.3542    2.3458 O   0  0  0  0  0  0  0  0  0  0  0  0
    8.3876   -3.3620    2.3504 C   0  0  0  0  0  0  0  0  0  0  0  0
    8.8554   -4.5428    3.1716 C   0  0  0  0  0  0  0  0  0  0  0  0
   10.3725   -4.5665    3.1842 C   0  0  0  0  0  0  0  0  0  0  0  0
   10.8818   -5.7376    4.0000 C   0  0  0  0  0  0  0  0  0  0  0  0
   12.3999   -5.7376    4.0000 C   0  0  0  0  0  0  0  0  0  0  0  0
   12.9149   -6.9091    4.8136 C   0  0  0  0  0  0  0  0  0  0  0  0
   14.4319   -6.9102    4.8168 C   0  0  0  0  0  0  0  0  0  0  0  0
   14.9431   -8.0834    5.6315 C   0  0  0  0  0  0  0  0  0  0  0  0
   16.4600   -8.0852    5.6376 C   0  0  0  0  0  0  0  0  0  0  0  0
   16.9702   -9.2572    6.4538 C   0  0  0  0  0  0  0  0  0  0  0  0
   18.4868   -9.2595    6.4582 C   0  0  0  0  0  0  0  0  0  0  0  0
   18.9968  -10.4301    7.2756 C   0  0  0  0  0  0  0  0  0  0  0  0
   20.5125  -10.4326    7.2828 C   0  0  0  0  0  0  0  0  0  0  0  0
   21.0236  -11.6057    8.0996 C   0  0  0  0  0  0  0  0  0  0  0  0
   22.5391  -11.6059    8.1074 C   0  0  0  0  0  0  0  0  0  0  0  0
   23.0517  -12.7754    8.9239 C   0  0  0  0  0  0  0  0  0  0  0  0
   24.5657  -12.7782    8.9310 C   0  0  0  0  0  0  0  0  0  0  0  0
   25.0771  -13.9483    9.7484 C   0  0  0  0  0  0  0  0  0  0  0  0
   26.5935  -13.9506    9.7525 C   0  0  0  0  0  0  0  0  0  0  0  0
   27.1030  -15.1226   10.5712 C   0  0  0  0  0  0  0  0  0  0  0  0
   28.6212  -15.1217   10.5756 C   0  0  0  0  0  0  0  0  0  0  0  0
   29.1303  -16.2954   11.3955 C   0  0  0  0  0  0  0  0  0  0  0  0
   30.6467  -16.2968   11.3990 C   0  0  0  0  0  0  0  0  0  0  0  0
   31.1567  -17.4681   12.2172 C   0  0  0  0  0  0  0  0  0  0  0  0
   32.6735  -17.4709   12.2216 C   0  0  0  0  0  0  0  0  0  0  0  0
   33.1835  -18.6417   13.0396 C   0  0  0  0  0  0  0  0  0  0  0  0
   34.7002  -18.6456   13.0423 C   0  0  0  0  0  0  0  0  0  0  0  0
   35.2101  -19.8154   13.8620 C   0  0  0  0  0  0  0  0  0  0  0  0
   36.7268  -19.8204   13.8630 C   0  0  0  0  0  0  0  0  0  0  0  0
   37.2368  -20.9890   14.6843 C   0  0  0  0  0  0  0  0  0  0  0  0
   38.7535  -20.9929   14.6870 C   0  0  0  0  0  0  0  0  0  0  0  0
   39.2635  -22.1615   15.5083 C   0  0  0  0  0  0  0  0  0  0  0  0
   40.7802  -22.1653   15.5111 C   0  0  0  0  0  0  0  0  0  0  0  0
   41.2902  -23.3339   16.3323 C   0  0  0  0  0  0  0  0  0  0  0  0
   42.8068  -23.3378   16.3351 C   0  0  0  0  0  0  0  0  0  0  0  0
   43.3168  -24.5064   17.1564 C   0  0  0  0  0  0  0  0  0  0  0  0
   44.8335  -24.5103   17.1591 C   0  0  0  0  0  0  0  0  0  0  0  0
   45.3435  -25.6789   17.9804 C   0  0  0  0  0  0  0  0  0  0  0  0
   46.8601  -25.6839   17.9815 C   0  0  0  0  0  0  0  0  0  0  0  0
   47.3701  -26.8514   18.8044 C   0  0  0  0  0  0  0  0  0  0  0  0
   48.8868  -26.8575   18.8038 C   0  0  0  0  0  0  0  0  0  0  0  0
   49.3968  -28.0250   19.6268 C   0  0  0  0  0  0  0  0  0  0  0  0
   50.9135  -28.0300   19.6278 C   0  0  0  0  0  0  0  0  0  0  0  0
   51.4235  -29.1974   20.4508 C   0  0  0  0  0  0  0  0  0  0  0  0
   52.9401  -29.2036   20.4502 C   0  0  0  0  0  0  0  0  0  0  0  0
   53.4501  -30.3711   21.2731 C   0  0  0  0  0  0  0  0  0  0  0  0
   54.9667  -30.3762   21.2742 C   0  0  0  0  0  0  0  0  0  0  0  0
   55.4767  -31.5436   22.0972 C   0  0  0  0  0  0  0  0  0  0  0  0
   56.9933  -31.5487   22.0983 C   0  0  0  0  0  0  0  0  0  0  0  0
   57.5037  -32.7160   22.9212 C   0  0  0  0  0  0  0  0  0  0  0  0
   59.0205  -32.7205   22.9219 C   0  0  0  0  0  0  0  0  0  0  0  0
   59.5315  -33.8876   23.7446 C   0  0  0  0  0  0  0  0  0  0  0  0
   61.0490  -33.8933   23.7460 C   0  0  0  0  0  0  0  0  0  0  0  0
   61.5573  -35.0599   24.5685 C   0  0  0  0  0  0  0  0  0  0  0  0
   63.0739  -35.0661   24.5704 C   0  0  0  0  0  0  0  0  0  0  0  0
   63.5832  -36.2334   25.3932 C   0  0  0  0  0  0  0  0  0  0  0  0
   65.0997  -36.2396   25.3927 C   0  0  0  0  0  0  0  0  0  0  0  0
   65.6097  -37.4071   26.2157 C   0  0  0  0  0  0  0  0  0  0  0  0
   67.1264  -37.4135   26.2152 C   0  0  0  0  0  0  0  0  0  0  0  0
   67.6362  -38.5813   27.0384 C   0  0  0  0  0  0  0  0  0  0  0  0
   69.1536  -38.5901   27.0396 C   0  0  0  0  0  0  0  0  0  0  0  0
   69.6650  -39.7586   27.8635 C   0  0  0  0  0  0  0  0  0  0  0  0
   71.1836  -39.7677   27.8624 C   0  0  0  0  0  0  0  0  0  0  0  0
   71.7008  -40.9354   28.6854 C   0  0  0  0  0  0  0  0  0  0  0  0
   73.2217  -40.9457   28.6853 C   0  0  0  0  0  0  0  0  0  0  0  0
   73.7404  -42.1144   29.5115 C   0  0  0  0  0  0  0  0  0  0  0  0
   75.2641  -42.1337   29.5202 C   0  0  0  0  0  0  0  0  0  0  0  0
   75.7768  -43.2997   30.3446 C   0  0  0  0  0  0  0  0  0  0  0  0
    0.6576    0.8519   -0.5883 H   0  0  0  0  0  0  0  0  0  0  0  0
    2.6770    1.0397    0.4044 H   0  0  0  0  0  0  0  0  0  0  0  0
    2.7553    0.0382   -1.0725 H   0  0  0  0  0  0  0  0  0  0  0  0
    1.2104   -1.0462    2.1933 H   0  0  0  0  0  0  0  0  0  0  0  0
    2.6562   -0.1646    2.7418 H   0  0  0  0  0  0  0  0  0  0  0  0
    2.5755   -1.9411    2.7877 H   0  0  0  0  0  0  0  0  0  0  0  0
    1.4663   -2.1335   -0.0062 H   0  0  0  0  0  0  0  0  0  0  0  0
    4.7952   -0.1762    1.1962 H   0  0  0  0  0  0  0  0  0  0  0  0
    4.7843   -1.2095   -0.2338 H   0  0  0  0  0  0  0  0  0  0  0  0
    4.6316   -3.2488    1.2152 H   0  0  0  0  0  0  0  0  0  0  0  0
    4.6661   -2.2425    2.6503 H   0  0  0  0  0  0  0  0  0  0  0  0
    6.8586   -1.3203    2.0255 H   0  0  0  0  0  0  0  0  0  0  0  0
    6.8659   -2.3302    0.5509 H   0  0  0  0  0  0  0  0  0  0  0  0
    8.7560   -2.4281    2.7912 H   0  0  0  0  0  0  0  0  0  0  0  0
    8.7588   -3.4442    1.3235 H   0  0  0  0  0  0  0  0  0  0  0  0
    8.4555   -5.4748    2.7498 H   0  0  0  0  0  0  0  0  0  0  0  0
    8.4573   -4.4755    4.1907 H   0  0  0  0  0  0  0  0  0  0  0  0
   10.7535   -3.6273    3.6046 H   0  0  0  0  0  0  0  0  0  0  0  0
   10.7512   -4.6365    2.1570 H   0  0  0  0  0  0  0  0  0  0  0  0
   10.5077   -6.6785    3.5785 H   0  0  0  0  0  0  0  0  0  0  0  0
   10.5075   -5.6689    5.0287 H   0  0  0  0  0  0  0  0  0  0  0  0
   12.7751   -4.7962    4.4208 H   0  0  0  0  0  0  0  0  0  0  0  0
   12.7748   -5.8035    2.9709 H   0  0  0  0  0  0  0  0  0  0  0  0
   12.5416   -7.8499    4.3907 H   0  0  0  0  0  0  0  0  0  0  0  0
   12.5391   -6.8434    5.8420 H   0  0  0  0  0  0  0  0  0  0  0  0
   14.8060   -5.9696    5.2397 H   0  0  0  0  0  0  0  0  0  0  0  0
   14.8085   -6.9762    3.7886 H   0  0  0  0  0  0  0  0  0  0  0  0
   14.5698   -9.0238    5.2077 H   0  0  0  0  0  0  0  0  0  0  0  0
   14.5651   -8.0178    6.6592 H   0  0  0  0  0  0  0  0  0  0  0  0
   16.8332   -7.1442    6.0602 H   0  0  0  0  0  0  0  0  0  0  0  0
   16.8379   -8.1521    4.6100 H   0  0  0  0  0  0  0  0  0  0  0  0
   16.5963  -10.1984    6.0321 H   0  0  0  0  0  0  0  0  0  0  0  0
   16.5934   -9.1900    7.4818 H   0  0  0  0  0  0  0  0  0  0  0  0
   18.8614   -8.3184    6.8794 H   0  0  0  0  0  0  0  0  0  0  0  0
   18.8643   -9.3286    5.4306 H   0  0  0  0  0  0  0  0  0  0  0  0
   18.6229  -11.3719    6.8549 H   0  0  0  0  0  0  0  0  0  0  0  0
   18.6161  -10.3611    8.3033 H   0  0  0  0  0  0  0  0  0  0  0  0
   20.8876   -9.4923    7.7055 H   0  0  0  0  0  0  0  0  0  0  0  0
   20.8921  -10.5001    6.2557 H   0  0  0  0  0  0  0  0  0  0  0  0
   20.6503  -12.5462    7.6761 H   0  0  0  0  0  0  0  0  0  0  0  0
   20.6434  -11.5389    9.1264 H   0  0  0  0  0  0  0  0  0  0  0  0
   22.9122  -10.6638    8.5286 H   0  0  0  0  0  0  0  0  0  0  0  0
   22.9192  -11.6733    7.0791 H   0  0  0  0  0  0  0  0  0  0  0  0
   22.6764  -13.7174    8.5034 H   0  0  0  0  0  0  0  0  0  0  0  0
   22.6718  -12.7069    9.9524 H   0  0  0  0  0  0  0  0  0  0  0  0
   24.9402  -11.8356    9.3520 H   0  0  0  0  0  0  0  0  0  0  0  0
   24.9449  -12.8457    7.9027 H   0  0  0  0  0  0  0  0  0  0  0  0
   24.7022  -14.8898    9.3279 H   0  0  0  0  0  0  0  0  0  0  0  0
   24.6998  -13.8792   10.7763 H   0  0  0  0  0  0  0  0  0  0  0  0
   26.9679  -13.0096   10.1731 H   0  0  0  0  0  0  0  0  0  0  0  0
   26.9704  -14.0203    8.7251 H   0  0  0  0  0  0  0  0  0  0  0  0
   26.7305  -16.0629   10.1495 H   0  0  0  0  0  0  0  0  0  0  0  0
   26.7259  -15.0533   11.5979 H   0  0  0  0  0  0  0  0  0  0  0  0
   28.9936  -14.1823   10.9979 H   0  0  0  0  0  0  0  0  0  0  0  0
   28.9983  -15.1922    9.5495 H   0  0  0  0  0  0  0  0  0  0  0  0
   28.7558  -17.2353   10.9745 H   0  0  0  0  0  0  0  0  0  0  0  0
   28.7533  -16.2249   12.4222 H   0  0  0  0  0  0  0  0  0  0  0  0
   31.0216  -15.3557   11.8196 H   0  0  0  0  0  0  0  0  0  0  0  0
   31.0239  -16.3665   10.3714 H   0  0  0  0  0  0  0  0  0  0  0  0
   30.7822  -18.4095   11.7968 H   0  0  0  0  0  0  0  0  0  0  0  0
   30.7798  -17.3988   13.2451 H   0  0  0  0  0  0  0  0  0  0  0  0
   33.0481  -16.5294   12.6420 H   0  0  0  0  0  0  0  0  0  0  0  0
   33.0505  -17.5401   11.1937 H   0  0  0  0  0  0  0  0  0  0  0  0
   32.8078  -19.5831   12.6201 H   0  0  0  0  0  0  0  0  0  0  0  0
   32.8077  -18.5717   14.0678 H   0  0  0  0  0  0  0  0  0  0  0  0
   35.0760  -17.7037   13.4605 H   0  0  0  0  0  0  0  0  0  0  0  0
   35.0759  -18.7171   12.0142 H   0  0  0  0  0  0  0  0  0  0  0  0
   34.8333  -20.7573   13.4446 H   0  0  0  0  0  0  0  0  0  0  0  0
   34.8355  -19.7431   14.8904 H   0  0  0  0  0  0  0  0  0  0  0  0
   37.1038  -18.8779   14.2791 H   0  0  0  0  0  0  0  0  0  0  0  0
   37.1015  -19.8941   12.8346 H   0  0  0  0  0  0  0  0  0  0  0  0
   36.8610  -21.9315   14.2674 H   0  0  0  0  0  0  0  0  0  0  0  0
   36.8611  -20.9161   15.7124 H   0  0  0  0  0  0  0  0  0  0  0  0
   39.1293  -20.0503   15.1039 H   0  0  0  0  0  0  0  0  0  0  0  0
   39.1293  -21.0658   13.6590 H   0  0  0  0  0  0  0  0  0  0  0  0
   38.8877  -23.1040   15.0915 H   0  0  0  0  0  0  0  0  0  0  0  0
   38.8877  -22.0885   16.5364 H   0  0  0  0  0  0  0  0  0  0  0  0
   41.1559  -21.2228   15.9279 H   0  0  0  0  0  0  0  0  0  0  0  0
   41.1559  -22.2383   14.4830 H   0  0  0  0  0  0  0  0  0  0  0  0
   40.9144  -24.2765   15.9155 H   0  0  0  0  0  0  0  0  0  0  0  0
   40.9144  -23.2610   17.3604 H   0  0  0  0  0  0  0  0  0  0  0  0
   43.1826  -22.3953   16.7520 H   0  0  0  0  0  0  0  0  0  0  0  0
   43.1826  -23.4108   15.3070 H   0  0  0  0  0  0  0  0  0  0  0  0
   42.9410  -25.4489   16.7395 H   0  0  0  0  0  0  0  0  0  0  0  0
   42.9410  -24.4335   18.1844 H   0  0  0  0  0  0  0  0  0  0  0  0
   45.2093  -23.5678   17.5760 H   0  0  0  0  0  0  0  0  0  0  0  0
   45.2092  -24.5832   16.1310 H   0  0  0  0  0  0  0  0  0  0  0  0
   44.9666  -26.6214   17.5644 H   0  0  0  0  0  0  0  0  0  0  0  0
   44.9688  -25.6051   19.0088 H   0  0  0  0  0  0  0  0  0  0  0  0
   47.2371  -24.7409   18.3962 H   0  0  0  0  0  0  0  0  0  0  0  0
   47.2347  -25.7591   16.9531 H   0  0  0  0  0  0  0  0  0  0  0  0
   46.9920  -27.7943   18.3906 H   0  0  0  0  0  0  0  0  0  0  0  0
   46.9967  -26.7754   19.8331 H   0  0  0  0  0  0  0  0  0  0  0  0
   49.2649  -25.9146   19.2177 H   0  0  0  0  0  0  0  0  0  0  0  0
   49.2603  -26.9335   17.7752 H   0  0  0  0  0  0  0  0  0  0  0  0
   49.0198  -28.9680   19.2121 H   0  0  0  0  0  0  0  0  0  0  0  0
   49.0222  -27.9498   20.6551 H   0  0  0  0  0  0  0  0  0  0  0  0
   51.2905  -27.0870   20.0425 H   0  0  0  0  0  0  0  0  0  0  0  0
   51.2880  -28.1052   18.5995 H   0  0  0  0  0  0  0  0  0  0  0  0
   51.0454  -30.1404   20.0370 H   0  0  0  0  0  0  0  0  0  0  0  0
   51.0500  -29.1215   21.4794 H   0  0  0  0  0  0  0  0  0  0  0  0
   53.3182  -28.2607   20.8640 H   0  0  0  0  0  0  0  0  0  0  0  0
   53.3136  -29.2796   19.4216 H   0  0  0  0  0  0  0  0  0  0  0  0
   53.0731  -31.3141   20.8585 H   0  0  0  0  0  0  0  0  0  0  0  0
   53.0755  -30.2959   22.3015 H   0  0  0  0  0  0  0  0  0  0  0  0
   55.3437  -29.4331   21.6889 H   0  0  0  0  0  0  0  0  0  0  0  0
   55.3414  -30.4513   20.2459 H   0  0  0  0  0  0  0  0  0  0  0  0
   55.0997  -32.4866   21.6825 H   0  0  0  0  0  0  0  0  0  0  0  0
   55.1020  -31.4684   23.1255 H   0  0  0  0  0  0  0  0  0  0  0  0
   57.3702  -30.6055   22.5129 H   0  0  0  0  0  0  0  0  0  0  0  0
   57.3678  -31.6237   21.0699 H   0  0  0  0  0  0  0  0  0  0  0  0
   57.1267  -33.6591   22.5066 H   0  0  0  0  0  0  0  0  0  0  0  0
   57.1290  -32.6409   23.9495 H   0  0  0  0  0  0  0  0  0  0  0  0
   59.3970  -31.7773   23.3365 H   0  0  0  0  0  0  0  0  0  0  0  0
   59.3947  -32.7956   21.8935 H   0  0  0  0  0  0  0  0  0  0  0  0
   59.1552  -34.8306   23.3300 H   0  0  0  0  0  0  0  0  0  0  0  0
   59.1575  -33.8127   24.7728 H   0  0  0  0  0  0  0  0  0  0  0  0
   61.4264  -32.9498   24.1603 H   0  0  0  0  0  0  0  0  0  0  0  0
   61.4240  -33.9677   22.7176 H   0  0  0  0  0  0  0  0  0  0  0  0
   61.1800  -36.0036   24.1540 H   0  0  0  0  0  0  0  0  0  0  0  0
   61.1823  -34.9854   25.5972 H   0  0  0  0  0  0  0  0  0  0  0  0
   63.4508  -34.1231   24.9851 H   0  0  0  0  0  0  0  0  0  0  0  0
   63.4485  -35.1412   23.5421 H   0  0  0  0  0  0  0  0  0  0  0  0
   63.2050  -37.1764   24.9794 H   0  0  0  0  0  0  0  0  0  0  0  0
   63.2096  -36.1575   26.4219 H   0  0  0  0  0  0  0  0  0  0  0  0
   65.4778  -35.2968   25.8065 H   0  0  0  0  0  0  0  0  0  0  0  0
   65.4731  -36.3157   24.3641 H   0  0  0  0  0  0  0  0  0  0  0  0
   65.2313  -38.3501   25.8019 H   0  0  0  0  0  0  0  0  0  0  0  0
   65.2360  -37.3310   27.2443 H   0  0  0  0  0  0  0  0  0  0  0  0
   67.5041  -36.4701   26.6288 H   0  0  0  0  0  0  0  0  0  0  0  0
   67.4996  -37.4889   25.1863 H   0  0  0  0  0  0  0  0  0  0  0  0
   67.2569  -39.5235   26.6241 H   0  0  0  0  0  0  0  0  0  0  0  0
   67.2615  -38.5048   28.0666 H   0  0  0  0  0  0  0  0  0  0  0  0
   69.5315  -37.6469   27.4531 H   0  0  0  0  0  0  0  0  0  0  0  0
   69.5267  -38.6656   26.0109 H   0  0  0  0  0  0  0  0  0  0  0  0
   69.2844  -40.7008   27.4501 H   0  0  0  0  0  0  0  0  0  0  0  0
   69.2914  -39.6815   28.8918 H   0  0  0  0  0  0  0  0  0  0  0  0
   71.5613  -38.8239   28.2745 H   0  0  0  0  0  0  0  0  0  0  0  0
   71.5543  -39.8433   26.8327 H   0  0  0  0  0  0  0  0  0  0  0  0
   71.3202  -41.8778   28.2723 H   0  0  0  0  0  0  0  0  0  0  0  0
   71.3272  -40.8583   29.7141 H   0  0  0  0  0  0  0  0  0  0  0  0
   73.5984  -40.0008   29.0959 H   0  0  0  0  0  0  0  0  0  0  0  0
   73.5913  -41.0224   27.6554 H   0  0  0  0  0  0  0  0  0  0  0  0
   73.3581  -43.0550   29.0977 H   0  0  0  0  0  0  0  0  0  0  0  0
   73.3629  -42.0348   30.5378 H   0  0  0  0  0  0  0  0  0  0  0  0
   75.6465  -41.1942   29.9353 H   0  0  0  0  0  0  0  0  0  0  0  0
   75.6417  -42.2149   28.4946 H   0  0  0  0  0  0  0  0  0  0  0  0
   75.4293  -43.2251   31.3799 H   0  0  0  0  0  0  0  0  0  0  0  0
   76.8700  -43.3099   30.3482 H   0  0  0  0  0  0  0  0  0  0  0  0
   75.4246  -44.2506   29.9324 H   0  0  0  0  0  0  0  0  0  0  0  0
  1  2  1  0  0  0  0
  1 78  1  0  0  0  0
  2  3  1  0  0  0  0
  2 79  1  0  0  0  0
  2 80  1  0  0  0  0
  3  4  1  0  0  0  0
  3  5  1  0  0  0  0
  3  6  1  0  0  0  0
  4 81  1  0  0  0  0
  4 82  1  0  0  0  0
  4 83  1  0  0  0  0
  5 84  1  0  0  0  0
  6  7  1  0  0  0  0
  6 85  1  0  0  0  0
  6 86  1  0  0  0  0
  7  8  1  0  0  0  0
  7 87  1  0  0  0  0
  7 88  1  0  0  0  0
  8  9  1  0  0  0  0
  8 89  1  0  0  0  0
  8 90  1  0  0  0  0
  9 10  1  0  0  0  0
 10 11  1  0  0  0  0
 10 91  1  0  0  0  0
 10 92  1  0  0  0  0
 11 12  1  0  0  0  0
 11 93  1  0  0  0  0
 11 94  1  0  0  0  0
 12 13  1  0  0  0  0
 12 95  1  0  0  0  0
 12 96  1  0  0  0  0
 13 14  1  0  0  0  0
 13 97  1  0  0  0  0
 13 98  1  0  0  0  0
 14 15  1  0  0  0  0
 14 99  1  0  0  0  0
 14100  1  0  0  0  0
 15 16  1  0  0  0  0
 15101  1  0  0  0  0
 15102  1  0  0  0  0
 16 17  1  0  0  0  0
 16103  1  0  0  0  0
 16104  1  0  0  0  0
 17 18  1  0  0  0  0
 17105  1  0  0  0  0
 17106  1  0  0  0  0
 18 19  1  0  0  0  0
 18107  1  0  0  0  0
 18108  1  0  0  0  0
 19 20  1  0  0  0  0
 19109  1  0  0  0  0
 19110  1  0  0  0  0
 20 21  1  0  0  0  0
 20111  1  0  0  0  0
 20112  1  0  0  0  0
 21 22  1  0  0  0  0
 21113  1  0  0  0  0
 21114  1  0  0  0  0
 22 23  1  0  0  0  0
 22115  1  0  0  0  0
 22116  1  0  0  0  0
 23 24  1  0  0  0  0
 23117  1  0  0  0  0
 23118  1  0  0  0  0
 24 25  1  0  0  0  0
 24119  1  0  0  0  0
 24120  1  0  0  0  0
 25 26  1  0  0  0  0
 25121  1  0  0  0  0
 25122  1  0  0  0  0
 26 27  1  0  0  0  0
 26123  1  0  0  0  0
 26124  1  0  0  0  0
 27 28  1  0  0  0  0
 27125  1  0  0  0  0
 27126  1  0  0  0  0
 28 29  1  0  0  0  0
 28127  1  0  0  0  0
 28128  1  0  0  0  0
 29 30  1  0  0  0  0
 29129  1  0  0  0  0
 29130  1  0  0  0  0
 30 31  1  0  0  0  0
 30131  1  0  0  0  0
 30132  1  0  0  0  0
 31 32  1  0  0  0  0
 31133  1  0  0  0  0
 31134  1  0  0  0  0
 32 33  1  0  0  0  0
 32135  1  0  0  0  0
 32136  1  0  0  0  0
 33 34  1  0  0  0  0
 33137  1  0  0  0  0
 33138  1  0  0  0  0
 34 35  1  0  0  0  0
 34139  1  0  0  0  0
 34140  1  0  0  0  0
 35 36  1  0  0  0  0
 35141  1  0  0  0  0
 35142  1  0  0  0  0
 36 37  1  0  0  0  0
 36143  1  0  0  0  0
 36144  1  0  0  0  0
 37 38  1  0  0  0  0
 37145  1  0  0  0  0
 37146  1  0  0  0  0
 38 39  1  0  0  0  0
 38147  1  0  0  0  0
 38148  1  0  0  0  0
 39 40  1  0  0  0  0
 39149  1  0  0  0  0
 39150  1  0  0  0  0
 40 41  1  0  0  0  0
 40151  1  0  0  0  0
 40152  1  0  0  0  0
 41 42  1  0  0  0  0
 41153  1  0  0  0  0
 41154  1  0  0  0  0
 42 43  1  0  0  0  0
 42155  1  0  0  0  0
 42156  1  0  0  0  0
 43 44  1  0  0  0  0
 43157  1  0  0  0  0
 43158  1  0  0  0  0
 44 45  1  0  0  0  0
 44159  1  0  0  0  0
 44160  1  0  0  0  0
 45 46  1  0  0  0  0
 45161  1  0  0  0  0
 45162  1  0  0  0  0
 46 47  1  0  0  0  0
 46163  1  0  0  0  0
 46164  1  0  0  0  0
 47 48  1  0  0  0  0
 47165  1  0  0  0  0
 47166  1  0  0  0  0
 48 49  1  0  0  0  0
 48167  1  0  0  0  0
 48168  1  0  0  0  0
 49 50  1  0  0  0  0
 49169  1  0  0  0  0
 49170  1  0  0  0  0
 50 51  1  0  0  0  0
 50171  1  0  0  0  0
 50172  1  0  0  0  0
 51 52  1  0  0  0  0
 51173  1  0  0  0  0
 51174  1  0  0  0  0
 52 53  1  0  0  0  0
 52175  1  0  0  0  0
 52176  1  0  0  0  0
 53 54  1  0  0  0  0
 53177  1  0  0  0  0
 53178  1  0  0  0  0
 54 55  1  0  0  0  0
 54179  1  0  0  0  0
 54180  1  0  0  0  0
 55 56  1  0  0  0  0
 55181  1  0  0  0  0
 55182  1  0  0  0  0
 56 57  1  0  0  0  0
 56183  1  0  0  0  0
 56184  1  0  0  0  0
 57 58  1  0  0  0  0
 57185  1  0  0  0  0
 57186  1  0  0  0  0
 58 59  1  0  0  0  0
 58187  1  0  0  0  0
 58188  1  0  0  0  0
 59 60  1  0  0  0  0
 59189  1  0  0  0  0
 59190  1  0  0  0  0
 60 61  1  0  0  0  0
 60191  1  0  0  0  0
 60192  1  0  0  0  0
 61 62  1  0  0  0  0
 61193  1  0  0  0  0
 61194  1  0  0  0  0
 62 63  1  0  0  0  0
 62195  1  0  0  0  0
 62196  1  0  0  0  0
 63 64  1  0  0  0  0
 63197  1  0  0  0  0
 63198  1  0  0  0  0
 64 65  1  0  0  0  0
 64199  1  0  0  0  0
 64200  1  0  0  0  0
 65 66  1  0  0  0  0
 65201  1  0  0  0  0
 65202  1  0  0  0  0
 66 67  1  0  0  0  0
 66203  1  0  0  0  0
 66204  1  0  0  0  0
 67 68  1  0  0  0  0
 67205  1  0  0  0  0
 67206  1  0  0  0  0
 68 69  1  0  0  0  0
 68207  1  0  0  0  0
 68208  1  0  0  0  0
 69 70  1  0  0  0  0
 69209  1  0  0  0  0
 69210  1  0  0  0  0
 70 71  1  0  0  0  0
 70211  1  0  0  0  0
 70212  1  0  0  0  0
 71 72  1  0  0  0  0
 71213  1  0  0  0  0
 71214  1  0  0  0  0
 72 73  1  0  0  0  0
 72215  1  0  0  0  0
 72216  1  0  0  0  0
 73 74  1  0  0  0  0
 73217  1  0  0  0  0
 73218  1  0  0  0  0
 74 75  1  0  0  0  0
 74219  1  0  0  0  0
 74220  1  0  0  0  0
 75 76  1  0  0  0  0
 75221  1  0  0  0  0
 75222  1  0  0  0  0
 76 77  1  0  0  0  0
 76223  1  0  0  0  0
 76224  1  0  0  0  0
 77225  1  0  0  0  0
 77226  1  0  0  0  0
 77227  1  0  0  0  0
M  END
$$$$
