
 OpenBabel04232216463D

 42 43  0  0  0  0  0  0  0  0999 V2000
    0.8694    0.0013   -0.3926 C   0  0  0  0  0  0  0  0  0  0  0  0
    2.2972    0.3543   -0.7167 C   0  0  0  0  0  0  0  0  0  0  0  0
    2.7235    1.7521   -0.4627 C   0  0  0  0  0  0  0  0  0  0  0  0
    3.5373    1.9443    0.5992 C   0  0  0  0  0  0  0  0  0  0  0  0
    4.5066    3.0963    0.5084 C   0  0  0  0  0  0  0  0  0  0  0  0
    3.7076    0.9559    1.5709 N   0  0  0  0  0  0  0  0  0  0  0  0
    4.4323   -0.0595    1.1549 C   0  0  0  0  0  0  0  0  0  0  0  0
    5.2069   -0.0028   -0.0817 C   0  0  0  0  0  0  0  0  0  0  0  0
    4.4648   -0.4105   -1.1274 C   0  0  0  0  0  0  0  0  0  0  0  0
    5.2236   -1.3069   -2.0417 C   0  0  0  0  0  0  0  0  0  0  0  0
    4.8561   -2.7234   -1.5959 C   0  0  0  0  0  0  0  0  0  0  0  0
    4.6676   -3.6190   -2.4234 O   0  0  0  0  0  0  0  0  0  0  0  0
    5.1674   -2.9801   -0.2292 N   0  0  0  0  0  0  0  0  0  0  0  0
    6.1722   -4.0009   -0.0291 N   0  0  0  0  0  0  0  0  0  0  0  0
    7.4306   -3.2540    0.0796 C   0  0  0  0  0  0  0  0  0  0  0  0
    8.7062   -4.0347    0.1725 C   0  0  0  0  0  0  0  0  0  0  0  0
    9.0053   -5.0747   -0.3930 O   0  0  0  0  0  0  0  0  0  0  0  0
    9.5643   -3.1934    0.8487 O   0  0  0  0  0  0  0  0  0  0  0  0
   10.9604   -3.3859    0.6825 C   0  0  0  0  0  0  0  0  0  0  0  0
    4.2247   -2.7143    0.9073 C   0  0  0  0  0  0  0  0  0  0  0  0
    4.4430   -1.4468    1.8346 C   0  0  0  0  0  0  0  0  0  0  0  0
    3.0911   -0.6011   -1.1054 N   0  0  0  0  0  0  0  0  0  0  0  0
    0.1810    0.7537   -0.7798 H   0  0  0  0  0  0  0  0  0  0  0  0
    0.7647   -0.0557    0.6973 H   0  0  0  0  0  0  0  0  0  0  0  0
    0.6159   -0.9793   -0.8066 H   0  0  0  0  0  0  0  0  0  0  0  0
    2.6280    2.4448   -1.2864 H   0  0  0  0  0  0  0  0  0  0  0  0
    4.7785    3.2687   -0.5458 H   0  0  0  0  0  0  0  0  0  0  0  0
    5.4478    2.8675    1.0182 H   0  0  0  0  0  0  0  0  0  0  0  0
    4.0895    4.0247    0.9009 H   0  0  0  0  0  0  0  0  0  0  0  0
    6.2851   -0.0400    0.0123 H   0  0  0  0  0  0  0  0  0  0  0  0
    6.3112   -1.1966   -1.9209 H   0  0  0  0  0  0  0  0  0  0  0  0
    4.9970   -1.1088   -3.0882 H   0  0  0  0  0  0  0  0  0  0  0  0
    6.1887   -4.5802   -0.8849 H   0  0  0  0  0  0  0  0  0  0  0  0
    7.3475   -2.6396    0.9817 H   0  0  0  0  0  0  0  0  0  0  0  0
    7.5669   -2.5979   -0.7869 H   0  0  0  0  0  0  0  0  0  0  0  0
   11.4504   -2.6273    1.3008 H   0  0  0  0  0  0  0  0  0  0  0  0
   11.2376   -3.2043   -0.3592 H   0  0  0  0  0  0  0  0  0  0  0  0
   11.2633   -4.3766    1.0198 H   0  0  0  0  0  0  0  0  0  0  0  0
    4.2877   -3.5924    1.5661 H   0  0  0  0  0  0  0  0  0  0  0  0
    3.2069   -2.7118    0.5029 H   0  0  0  0  0  0  0  0  0  0  0  0
    5.3818   -1.5463    2.3823 H   0  0  0  0  0  0  0  0  0  0  0  0
    3.6280   -1.4539    2.5720 H   0  0  0  0  0  0  0  0  0  0  0  0
  1  2  1  0  0  0  0
  1 23  1  0  0  0  0
  1 24  1  0  0  0  0
  1 25  1  0  0  0  0
  2  3  1  0  0  0  0
  2 22  2  0  0  0  0
  3  4  2  0  0  0  0
  3 26  1  0  0  0  0
  4  5  1  0  0  0  0
  4  6  1  0  0  0  0
  5 27  1  0  0  0  0
  5 28  1  0  0  0  0
  5 29  1  0  0  0  0
  6  7  2  0  0  0  0
  7  8  1  0  0  0  0
  7 21  1  0  0  0  0
  8  9  2  0  0  0  0
  8 30  1  0  0  0  0
  9 10  1  0  0  0  0
  9 22  1  0  0  0  0
 10 11  1  0  0  0  0
 10 31  1  0  0  0  0
 10 32  1  0  0  0  0
 11 12  2  0  0  0  0
 11 13  1  0  0  0  0
 13 14  1  0  0  0  0
 13 20  1  0  0  0  0
 14 15  1  0  0  0  0
 14 33  1  0  0  0  0
 15 16  1  0  0  0  0
 15 34  1  0  0  0  0
 15 35  1  0  0  0  0
 16 17  2  0  0  0  0
 16 18  1  0  0  0  0
 18 19  1  0  0  0  0
 19 36  1  0  0  0  0
 19 37  1  0  0  0  0
 19 38  1  0  0  0  0
 20 21  1  0  0  0  0
 20 39  1  0  0  0  0
 20 40  1  0  0  0  0
 21 41  1  0  0  0  0
 21 42  1  0  0  0  0
M  END
$$$$
