
 OpenBabel04232216583D

 95 94  0  0  0  0  0  0  0  0999 V2000
    9.8120   11.2687   -3.7692 N   0  0  0  0  0  0  0  0  0  0  0  0
   11.2296   11.1720   -3.7280 N   0  0  0  0  0  0  0  0  0  0  0  0
   11.7394   12.1834   -2.7792 C   0  0  0  0  0  0  0  0  0  0  0  0
   11.2067   11.9618   -1.3586 C   0  0  0  0  0  0  0  0  0  0  0  0
   11.5687   10.5680   -0.8196 C   0  0  0  0  0  0  0  0  0  0  0  0
   11.0301   10.3924    0.5390 N   0  0  0  0  0  0  0  0  0  0  0  0
   11.4009    9.0684    1.0447 N   0  0  0  0  0  0  0  0  0  0  0  0
   10.8521    8.8653    2.3601 N   0  0  0  0  0  0  0  0  0  0  0  0
   11.1857    7.5679    2.9070 N   0  0  0  0  0  0  0  0  0  0  0  0
   10.5590    7.4563    4.4463 S   0  0  0  0  0  0  0  0  0  0  0  0
   11.1919    5.5876    5.0390 S   0  0  0  0  0  0  0  0  0  0  0  0
   13.2629    5.5885    5.0706 S   0  0  0  0  0  0  0  0  0  0  0  0
   13.9400    7.0059    6.4273 S   0  0  0  0  0  0  0  0  0  0  0  0
   16.0415    6.9935    6.3823 S   0  0  0  0  0  0  0  0  0  0  0  0
   16.7395    8.4678    7.7147 S   0  0  0  0  0  0  0  0  0  0  0  0
   18.8489    8.4556    7.7044 S   0  0  0  0  0  0  0  0  0  0  0  0
   19.5409    9.9353    9.0408 S   0  0  0  0  0  0  0  0  0  0  0  0
   21.6509    9.9263    9.0326 S   0  0  0  0  0  0  0  0  0  0  0  0
   22.3418   11.4057   10.3690 S   0  0  0  0  0  0  0  0  0  0  0  0
   24.4515   11.3962   10.3603 S   0  0  0  0  0  0  0  0  0  0  0  0
   25.1423   12.8753   11.6964 S   0  0  0  0  0  0  0  0  0  0  0  0
   27.2518   12.8656   11.6876 S   0  0  0  0  0  0  0  0  0  0  0  0
   27.9424   14.3447   13.0236 S   0  0  0  0  0  0  0  0  0  0  0  0
   30.0518   14.3349   13.0148 S   0  0  0  0  0  0  0  0  0  0  0  0
   30.7425   15.8140   14.3508 S   0  0  0  0  0  0  0  0  0  0  0  0
   32.8518   15.8041   14.3419 S   0  0  0  0  0  0  0  0  0  0  0  0
   33.5425   17.2832   15.6779 S   0  0  0  0  0  0  0  0  0  0  0  0
   35.6518   17.2734   15.6690 S   0  0  0  0  0  0  0  0  0  0  0  0
   36.3425   18.7525   17.0051 S   0  0  0  0  0  0  0  0  0  0  0  0
   38.4518   18.7426   16.9962 S   0  0  0  0  0  0  0  0  0  0  0  0
   39.1425   20.2217   18.3322 S   0  0  0  0  0  0  0  0  0  0  0  0
   41.2518   20.2119   18.3233 S   0  0  0  0  0  0  0  0  0  0  0  0
   41.9424   21.6910   19.6593 S   0  0  0  0  0  0  0  0  0  0  0  0
   44.0518   21.6812   19.6504 S   0  0  0  0  0  0  0  0  0  0  0  0
   44.7424   23.1603   20.9865 S   0  0  0  0  0  0  0  0  0  0  0  0
   46.8518   23.1504   20.9776 S   0  0  0  0  0  0  0  0  0  0  0  0
   47.5424   24.6295   22.3136 S   0  0  0  0  0  0  0  0  0  0  0  0
   49.6518   24.6197   22.3047 S   0  0  0  0  0  0  0  0  0  0  0  0
   50.3424   26.0988   23.6407 S   0  0  0  0  0  0  0  0  0  0  0  0
   52.4518   26.0889   23.6318 S   0  0  0  0  0  0  0  0  0  0  0  0
   53.1424   27.5680   24.9679 S   0  0  0  0  0  0  0  0  0  0  0  0
   55.2518   27.5582   24.9590 S   0  0  0  0  0  0  0  0  0  0  0  0
   55.9424   29.0373   26.2950 S   0  0  0  0  0  0  0  0  0  0  0  0
   58.0518   29.0275   26.2861 S   0  0  0  0  0  0  0  0  0  0  0  0
   58.7424   30.5065   27.6221 S   0  0  0  0  0  0  0  0  0  0  0  0
   60.8518   30.4967   27.6133 S   0  0  0  0  0  0  0  0  0  0  0  0
   61.5424   31.9758   28.9493 S   0  0  0  0  0  0  0  0  0  0  0  0
   63.6518   31.9660   28.9404 S   0  0  0  0  0  0  0  0  0  0  0  0
   64.3424   33.4451   30.2764 S   0  0  0  0  0  0  0  0  0  0  0  0
   66.4518   33.4352   30.2675 S   0  0  0  0  0  0  0  0  0  0  0  0
   67.1424   34.9143   31.6035 S   0  0  0  0  0  0  0  0  0  0  0  0
   69.2517   34.9045   31.5947 S   0  0  0  0  0  0  0  0  0  0  0  0
   69.9424   36.3836   32.9307 S   0  0  0  0  0  0  0  0  0  0  0  0
   72.0517   36.3737   32.9218 S   0  0  0  0  0  0  0  0  0  0  0  0
   72.7424   37.8528   34.2578 S   0  0  0  0  0  0  0  0  0  0  0  0
   74.8518   37.8430   34.2489 S   0  0  0  0  0  0  0  0  0  0  0  0
   75.5423   39.3222   35.5850 S   0  0  0  0  0  0  0  0  0  0  0  0
   77.6513   39.3123   35.5761 S   0  0  0  0  0  0  0  0  0  0  0  0
   78.3428   40.7908   36.9116 S   0  0  0  0  0  0  0  0  0  0  0  0
   80.4523   40.7790   36.9009 S   0  0  0  0  0  0  0  0  0  0  0  0
   81.1439   42.2581   38.2369 S   0  0  0  0  0  0  0  0  0  0  0  0
   83.2534   42.2493   38.2290 S   0  0  0  0  0  0  0  0  0  0  0  0
   83.9420   43.7292   39.5657 S   0  0  0  0  0  0  0  0  0  0  0  0
   86.0515   43.7202   39.5576 S   0  0  0  0  0  0  0  0  0  0  0  0
   86.7422   45.1992   40.8935 S   0  0  0  0  0  0  0  0  0  0  0  0
   88.8516   45.1893   40.8846 S   0  0  0  0  0  0  0  0  0  0  0  0
   89.5423   46.6684   42.2206 S   0  0  0  0  0  0  0  0  0  0  0  0
   91.6516   46.6585   42.2117 S   0  0  0  0  0  0  0  0  0  0  0  0
   92.3422   48.1376   43.5477 S   0  0  0  0  0  0  0  0  0  0  0  0
   94.4515   48.1277   43.5388 S   0  0  0  0  0  0  0  0  0  0  0  0
   95.1418   49.6067   44.8747 S   0  0  0  0  0  0  0  0  0  0  0  0
   97.2506   49.5966   44.8655 S   0  0  0  0  0  0  0  0  0  0  0  0
   97.9400   51.0751   46.2011 S   0  0  0  0  0  0  0  0  0  0  0  0
  100.0472   51.0640   46.1911 S   0  0  0  0  0  0  0  0  0  0  0  0
  100.7341   52.5411   47.5251 S   0  0  0  0  0  0  0  0  0  0  0  0
  102.8363   52.5261   47.5122 S   0  0  0  0  0  0  0  0  0  0  0  0
  103.5146   53.9992   48.8424 S   0  0  0  0  0  0  0  0  0  0  0  0
  105.6026   53.9878   48.8017 S   0  0  0  0  0  0  0  0  0  0  0  0
  106.2704   55.4035   50.1690 S   0  0  0  0  0  0  0  0  0  0  0  0
  108.3426   55.4031   50.0961 S   0  0  0  0  0  0  0  0  0  0  0  0
  108.9352   53.5503   50.7677 S   0  0  0  0  0  0  0  0  0  0  0  0
    9.3942   10.5616   -4.3505 H   0  0  0  0  0  0  0  0  0  0  0  0
    9.4942   12.1831   -4.1040 H   0  0  0  0  0  0  0  0  0  0  0  0
   11.6772   11.2798   -4.6204 H   0  0  0  0  0  0  0  0  0  0  0  0
   11.4904   13.1904   -3.1357 H   0  0  0  0  0  0  0  0  0  0  0  0
   12.8504   12.1305   -2.7511 H   0  0  0  0  0  0  0  0  0  0  0  0
   10.0994   12.0615   -1.3783 H   0  0  0  0  0  0  0  0  0  0  0  0
   11.5663   12.7464   -0.7059 H   0  0  0  0  0  0  0  0  0  0  0  0
   12.6750   10.5045   -0.7837 H   0  0  0  0  0  0  0  0  0  0  0  0
   11.2125    9.7847   -1.4848 H   0  0  0  0  0  0  0  0  0  0  0  0
   10.0092   10.4394    0.4880 H   0  0  0  0  0  0  0  0  0  0  0  0
   12.4134    9.0282    1.0863 H   0  0  0  0  0  0  0  0  0  0  0  0
    9.8406    8.9436    2.2948 H   0  0  0  0  0  0  0  0  0  0  0  0
   12.2078    7.5163    2.9685 H   0  0  0  0  0  0  0  0  0  0  0  0
  110.2764   53.6475   50.6982 H   0  0  0  0  0  0  0  0  0  0  0  0
  1  2  1  0  0  0  0
  1 82  1  0  0  0  0
  1 83  1  0  0  0  0
  2  3  1  0  0  0  0
  2 84  1  0  0  0  0
  3  4  1  0  0  0  0
  3 85  1  0  0  0  0
  3 86  1  0  0  0  0
  4  5  1  0  0  0  0
  4 87  1  0  0  0  0
  4 88  1  0  0  0  0
  5  6  1  0  0  0  0
  5 89  1  0  0  0  0
  5 90  1  0  0  0  0
  6  7  1  0  0  0  0
  6 91  1  0  0  0  0
  7  8  1  0  0  0  0
  7 92  1  0  0  0  0
  8  9  1  0  0  0  0
  8 93  1  0  0  0  0
  9 10  1  0  0  0  0
  9 94  1  0  0  0  0
 10 11  1  0  0  0  0
 11 12  1  0  0  0  0
 12 13  1  0  0  0  0
 13 14  1  0  0  0  0
 14 15  1  0  0  0  0
 15 16  1  0  0  0  0
 16 17  1  0  0  0  0
 17 18  1  0  0  0  0
 18 19  1  0  0  0  0
 19 20  1  0  0  0  0
 20 21  1  0  0  0  0
 21 22  1  0  0  0  0
 22 23  1  0  0  0  0
 23 24  1  0  0  0  0
 24 25  1  0  0  0  0
 25 26  1  0  0  0  0
 26 27  1  0  0  0  0
 27 28  1  0  0  0  0
 28 29  1  0  0  0  0
 29 30  1  0  0  0  0
 30 31  1  0  0  0  0
 31 32  1  0  0  0  0
 32 33  1  0  0  0  0
 33 34  1  0  0  0  0
 34 35  1  0  0  0  0
 35 36  1  0  0  0  0
 36 37  1  0  0  0  0
 37 38  1  0  0  0  0
 38 39  1  0  0  0  0
 39 40  1  0  0  0  0
 40 41  1  0  0  0  0
 41 42  1  0  0  0  0
 42 43  1  0  0  0  0
 43 44  1  0  0  0  0
 44 45  1  0  0  0  0
 45 46  1  0  0  0  0
 46 47  1  0  0  0  0
 47 48  1  0  0  0  0
 48 49  1  0  0  0  0
 49 50  1  0  0  0  0
 50 51  1  0  0  0  0
 51 52  1  0  0  0  0
 52 53  1  0  0  0  0
 53 54  1  0  0  0  0
 54 55  1  0  0  0  0
 55 56  1  0  0  0  0
 56 57  1  0  0  0  0
 57 58  1  0  0  0  0
 58 59  1  0  0  0  0
 59 60  1  0  0  0  0
 60 61  1  0  0  0  0
 61 62  1  0  0  0  0
 62 63  1  0  0  0  0
 63 64  1  0  0  0  0
 64 65  1  0  0  0  0
 65 66  1  0  0  0  0
 66 67  1  0  0  0  0
 67 68  1  0  0  0  0
 68 69  1  0  0  0  0
 69 70  1  0  0  0  0
 70 71  1  0  0  0  0
 71 72  1  0  0  0  0
 72 73  1  0  0  0  0
 73 74  1  0  0  0  0
 74 75  1  0  0  0  0
 75 76  1  0  0  0  0
 76 77  1  0  0  0  0
 77 78  1  0  0  0  0
 78 79  1  0  0  0  0
 79 80  1  0  0  0  0
 80 81  1  0  0  0  0
 81 95  1  0  0  0  0
M  END
$$$$
