
 OpenBabel04232216433D

 70 70  0  0  0  0  0  0  0  0999 V2000
   11.1407    5.9470    2.2127 C   0  0  0  0  0  0  0  0  0  0  0  0
    9.2702    5.1166    2.2881 C   0  0  0  0  0  0  0  0  0  0  0  0
    7.8974    4.2348    1.9625 C   0  0  0  0  0  0  0  0  0  0  0  0
    6.9485    2.9989    1.0597 C   0  0  0  0  0  0  0  0  0  0  0  0
    6.1456    3.0937   -0.0715 C   0  0  0  0  0  0  0  0  0  0  0  0
    7.1667    3.0524   -1.1207 C   0  0  0  0  0  0  0  0  0  0  0  0
    7.8602    4.2103   -1.0576 C   0  0  0  0  0  0  0  0  0  0  0  0
    9.2784    4.2493   -0.7945 C   0  0  0  0  0  0  0  0  0  0  0  0
    9.8853    2.9530   -0.2568 C   0  0  0  0  0  0  0  0  0  0  0  0
   10.0031    5.3841   -0.7138 C   0  0  0  0  0  0  0  0  0  0  0  0
   11.4213    5.1933   -0.6735 C   0  0  0  0  0  0  0  0  0  0  0  0
   12.3792    6.0830   -0.5898 C   0  0  0  0  0  0  0  0  0  0  0  0
   13.6876    5.5252   -0.2936 C   0  0  0  0  0  0  0  0  0  0  0  0
   14.4364    6.5343   -0.3490 N   0  0  0  0  0  0  0  0  0  0  0  0
   15.7335    6.5090   -0.2188 C   0  0  0  0  0  0  0  0  0  0  0  0
   16.2476    7.7377   -0.3525 C   0  0  0  0  0  0  0  0  0  0  0  0
   15.5730    9.0232   -0.2677 N   0  0  0  0  0  0  0  0  0  0  0  0
   14.8686    9.8297   -1.2396 C   0  0  0  0  0  0  0  0  0  0  0  0
   14.1990   11.1310   -0.6726 C   0  0  0  0  0  0  0  0  0  0  0  0
   13.5648   11.8175   -1.8848 C   0  0  0  0  0  0  0  0  0  0  0  0
   17.5988    7.6228    0.0657 C   0  0  0  0  0  0  0  0  0  0  0  0
   18.4535    8.4436   -0.4830 C   0  0  0  0  0  0  0  0  0  0  0  0
   19.7877    8.3930   -0.0950 C   0  0  0  0  0  0  0  0  0  0  0  0
   20.4485    9.4898   -0.3936 C   0  0  0  0  0  0  0  0  0  0  0  0
   21.8057    9.5535    0.1047 C   0  0  0  0  0  0  0  0  0  0  0  0
   21.8795   10.8859    0.7162 C   0  0  0  0  0  0  0  0  0  0  0  0
   20.5978   11.2553    1.7165 C   0  0  0  0  0  0  0  0  0  0  0  0
   19.0920   11.0020    2.1324 C   0  0  0  0  0  0  0  0  0  0  0  0
   17.4924    9.9722    2.0153 C   0  0  0  0  0  0  0  0  0  0  0  0
   16.0140    9.2010    2.5441 C   0  0  0  0  0  0  0  0  0  0  0  0
   14.5055    7.9693    2.3617 C   0  0  0  0  0  0  0  0  0  0  0  0
   12.7400    7.2603    2.5077 C   0  0  0  0  0  0  0  0  0  0  0  0
   11.5158    5.2041    1.5439 H   0  0  0  0  0  0  0  0  0  0  0  0
   10.5275    6.8122    1.8935 H   0  0  0  0  0  0  0  0  0  0  0  0
    9.7243    4.0728    2.0897 H   0  0  0  0  0  0  0  0  0  0  0  0
    6.8909    4.4624    2.4095 H   0  0  0  0  0  0  0  0  0  0  0  0
    6.6221    1.9287    1.3300 H   0  0  0  0  0  0  0  0  0  0  0  0
    5.4523    3.8914   -0.4145 H   0  0  0  0  0  0  0  0  0  0  0  0
    7.6242    2.0526   -1.2025 H   0  0  0  0  0  0  0  0  0  0  0  0
    7.3038    5.0616   -0.6450 H   0  0  0  0  0  0  0  0  0  0  0  0
    9.1750    2.1894    0.0497 H   0  0  0  0  0  0  0  0  0  0  0  0
   10.4405    3.1085    0.6776 H   0  0  0  0  0  0  0  0  0  0  0  0
   10.5614    2.5469   -0.9954 H   0  0  0  0  0  0  0  0  0  0  0  0
    9.5793    6.3849   -0.5827 H   0  0  0  0  0  0  0  0  0  0  0  0
   11.7809    4.1822   -0.5694 H   0  0  0  0  0  0  0  0  0  0  0  0
   12.3131    7.1675   -0.5813 H   0  0  0  0  0  0  0  0  0  0  0  0
   13.9010    4.4667   -0.0347 H   0  0  0  0  0  0  0  0  0  0  0  0
   16.2946    5.6153    0.0847 H   0  0  0  0  0  0  0  0  0  0  0  0
   14.8938    8.9802    0.4908 H   0  0  0  0  0  0  0  0  0  0  0  0
   14.0688    9.2425   -1.6941 H   0  0  0  0  0  0  0  0  0  0  0  0
   15.6078   10.1556   -1.9656 H   0  0  0  0  0  0  0  0  0  0  0  0
   14.9187   11.8161   -0.1996 H   0  0  0  0  0  0  0  0  0  0  0  0
   13.4176   10.9521    0.0846 H   0  0  0  0  0  0  0  0  0  0  0  0
   14.3315   11.9746   -2.6509 H   0  0  0  0  0  0  0  0  0  0  0  0
   13.1066   12.7844   -1.6593 H   0  0  0  0  0  0  0  0  0  0  0  0
   12.7942   11.1666   -2.3129 H   0  0  0  0  0  0  0  0  0  0  0  0
   17.8809    7.0127    0.9260 H   0  0  0  0  0  0  0  0  0  0  0  0
   18.0362    9.2767   -1.0431 H   0  0  0  0  0  0  0  0  0  0  0  0
   20.2418    7.5756    0.4573 H   0  0  0  0  0  0  0  0  0  0  0  0
   19.9062   10.3723   -0.7533 H   0  0  0  0  0  0  0  0  0  0  0  0
   22.5228    9.3767   -0.6981 H   0  0  0  0  0  0  0  0  0  0  0  0
   22.0093    8.8758    0.9379 H   0  0  0  0  0  0  0  0  0  0  0  0
   22.8213   10.8386    1.2860 H   0  0  0  0  0  0  0  0  0  0  0  0
   22.1313   11.6407   -0.0817 H   0  0  0  0  0  0  0  0  0  0  0  0
   21.2452   12.1495    2.0653 H   0  0  0  0  0  0  0  0  0  0  0  0
   18.8852   12.0409    1.7513 H   0  0  0  0  0  0  0  0  0  0  0  0
   17.6751   10.1067    0.9190 H   0  0  0  0  0  0  0  0  0  0  0  0
   16.2911    8.6967    1.6297 H   0  0  0  0  0  0  0  0  0  0  0  0
   15.0282    7.2317    1.8693 H   0  0  0  0  0  0  0  0  0  0  0  0
   13.1637    6.4166    1.8229 H   0  0  0  0  0  0  0  0  0  0  0  0
  1  2  1  0  0  0  0
  1 32  1  0  0  0  0
  1 33  1  0  0  0  0
  1 34  1  0  0  0  0
  2  3  2  3  0  0  0
  2 35  1  0  0  0  0
  3  4  1  0  0  0  0
  3 36  1  0  0  0  0
  4  5  2  3  0  0  0
  4 37  1  0  0  0  0
  5  6  1  0  0  0  0
  5 38  1  0  0  0  0
  6  7  2  3  0  0  0
  6 39  1  0  0  0  0
  7  8  1  0  0  0  0
  7 40  1  0  0  0  0
  8  9  1  0  0  0  0
  8 10  2  3  0  0  0
  9 41  1  0  0  0  0
  9 42  1  0  0  0  0
  9 43  1  0  0  0  0
 10 11  1  0  0  0  0
 10 44  1  0  0  0  0
 11 12  2  3  0  0  0
 11 45  1  0  0  0  0
 12 13  1  0  0  0  0
 12 46  1  0  0  0  0
 13 14  2  3  0  0  0
 13 47  1  0  0  0  0
 14 15  1  0  0  0  0
 15 16  2  3  0  0  0
 15 48  1  0  0  0  0
 16 17  1  0  0  0  0
 16 21  1  0  0  0  0
 17 18  1  0  0  0  0
 17 49  1  0  0  0  0
 18 19  1  0  0  0  0
 18 50  1  0  0  0  0
 18 51  1  0  0  0  0
 19 20  1  0  0  0  0
 19 52  1  0  0  0  0
 19 53  1  0  0  0  0
 20 54  1  0  0  0  0
 20 55  1  0  0  0  0
 20 56  1  0  0  0  0
 21 22  2  3  0  0  0
 21 57  1  0  0  0  0
 22 23  1  0  0  0  0
 22 58  1  0  0  0  0
 23 24  2  3  0  0  0
 23 59  1  0  0  0  0
 24 25  1  0  0  0  0
 24 60  1  0  0  0  0
 25 26  1  0  0  0  0
 25 61  1  0  0  0  0
 25 62  1  0  0  0  0
 26 27  1  0  0  0  0
 26 63  1  0  0  0  0
 26 64  1  0  0  0  0
 27 28  2  3  0  0  0
 27 65  1  0  0  0  0
 28 29  1  0  0  0  0
 28 66  1  0  0  0  0
 29 30  2  3  0  0  0
 29 67  1  0  0  0  0
 30 31  1  0  0  0  0
 30 68  1  0  0  0  0
 31 32  2  3  0  0  0
 31 69  1  0  0  0  0
 32 70  1  0  0  0  0
M  END
$$$$
