
 OpenBabel04232216443D

 42 44  0  0  0  0  0  0  0  0999 V2000
    7.9336    3.4388   -1.2309 C   0  0  0  0  0  0  0  0  0  0  0  0
    6.9236    2.5910   -2.0599 C   0  0  0  0  0  0  0  0  0  0  0  0
    6.9713    1.3298   -1.4773 C   0  0  0  0  0  0  0  0  0  0  0  0
    6.8409    0.9281   -0.0142 C   0  0  0  0  0  0  0  0  0  0  0  0
    7.5077    0.1710   -2.1871 C   0  0  0  0  0  0  0  0  0  0  0  0
    8.9901   -0.1387   -1.9427 C   0  0  0  0  0  0  0  0  0  0  0  0
    9.2418   -1.6221   -1.6485 C   0  0  0  0  0  0  0  0  0  0  0  0
    6.7409   -0.2509   -3.1962 C   0  0  0  0  0  0  0  0  0  0  0  0
    5.2327   -0.1247   -3.0611 C   0  0  0  0  0  0  0  0  0  0  0  0
    7.3968   -0.1690   -4.5444 C   0  0  0  0  0  0  0  0  0  0  0  0
    7.1015    1.1744   -5.1162 C   0  0  0  0  0  0  0  0  0  0  0  0
    7.7124    2.3169   -4.6333 C   0  0  0  0  0  0  0  0  0  0  0  0
    7.9015    3.2380   -5.7546 C   0  0  0  0  0  0  0  0  0  0  0  0
    6.8432    4.0607   -5.7385 C   0  0  0  0  0  0  0  0  0  0  0  0
    6.3630    4.7741   -6.8899 C   0  0  0  0  0  0  0  0  0  0  0  0
    5.0158    4.9615   -6.9627 C   0  0  0  0  0  0  0  0  0  0  0  0
    4.1654    4.5773   -5.8486 C   0  0  0  0  0  0  0  0  0  0  0  0
    4.6239    4.1429   -4.6160 C   0  0  0  0  0  0  0  0  0  0  0  0
    6.0709    3.8231   -4.4556 C   0  0  0  0  0  0  0  0  0  0  0  0
    6.8746    3.0442   -3.5976 C   0  0  0  0  0  0  0  0  0  0  0  0
    8.6461    3.9441   -1.8765 H   0  0  0  0  0  0  0  0  0  0  0  0
    8.5705    2.8146   -0.6088 H   0  0  0  0  0  0  0  0  0  0  0  0
    7.4517    4.1530   -0.5467 H   0  0  0  0  0  0  0  0  0  0  0  0
    7.8103    0.7808    0.4753 H   0  0  0  0  0  0  0  0  0  0  0  0
    6.3219   -0.0432    0.0514 H   0  0  0  0  0  0  0  0  0  0  0  0
    6.2456    1.6295    0.5766 H   0  0  0  0  0  0  0  0  0  0  0  0
    9.3601    0.4175   -1.0717 H   0  0  0  0  0  0  0  0  0  0  0  0
    9.6267    0.1886   -2.7713 H   0  0  0  0  0  0  0  0  0  0  0  0
    8.5461   -2.0105   -0.8973 H   0  0  0  0  0  0  0  0  0  0  0  0
   10.2569   -1.7661   -1.2602 H   0  0  0  0  0  0  0  0  0  0  0  0
    9.1468   -2.2304   -2.5536 H   0  0  0  0  0  0  0  0  0  0  0  0
    4.9227   -0.4427   -2.0532 H   0  0  0  0  0  0  0  0  0  0  0  0
    4.7012   -0.7589   -3.7697 H   0  0  0  0  0  0  0  0  0  0  0  0
    4.8832    0.9079   -3.1830 H   0  0  0  0  0  0  0  0  0  0  0  0
    7.0802   -0.9677   -5.2192 H   0  0  0  0  0  0  0  0  0  0  0  0
    8.4891   -0.2239   -4.4947 H   0  0  0  0  0  0  0  0  0  0  0  0
    6.0214    1.2633   -5.2981 H   0  0  0  0  0  0  0  0  0  0  0  0
    8.5119    3.0361   -6.6151 H   0  0  0  0  0  0  0  0  0  0  0  0
    7.0169    5.0329   -7.7311 H   0  0  0  0  0  0  0  0  0  0  0  0
    4.5749    5.3481   -7.8855 H   0  0  0  0  0  0  0  0  0  0  0  0
    3.1117    4.5948   -6.0798 H   0  0  0  0  0  0  0  0  0  0  0  0
    3.9036    3.7851   -3.8962 H   0  0  0  0  0  0  0  0  0  0  0  0
  1  2  1  0  0  0  0
  1 21  1  0  0  0  0
  1 22  1  0  0  0  0
  1 23  1  0  0  0  0
  2  3  2  0  0  0  0
  2 20  1  0  0  0  0
  3  4  1  0  0  0  0
  3  5  1  0  0  0  0
  4 24  1  0  0  0  0
  4 25  1  0  0  0  0
  4 26  1  0  0  0  0
  5  6  1  0  0  0  0
  5  8  2  0  0  0  0
  6  7  1  0  0  0  0
  6 27  1  0  0  0  0
  6 28  1  0  0  0  0
  7 29  1  0  0  0  0
  7 30  1  0  0  0  0
  7 31  1  0  0  0  0
  8  9  1  0  0  0  0
  8 10  1  0  0  0  0
  9 32  1  0  0  0  0
  9 33  1  0  0  0  0
  9 34  1  0  0  0  0
 10 11  1  0  0  0  0
 10 35  1  0  0  0  0
 10 36  1  0  0  0  0
 11 12  2  0  0  0  0
 11 37  1  0  0  0  0
 12 13  1  0  0  0  0
 12 20  1  0  0  0  0
 13 14  2  0  0  0  0
 13 38  1  0  0  0  0
 14 15  1  0  0  0  0
 14 19  1  0  0  0  0
 15 16  2  0  0  0  0
 15 39  1  0  0  0  0
 16 17  1  0  0  0  0
 16 40  1  0  0  0  0
 17 18  2  0  0  0  0
 17 41  1  0  0  0  0
 18 19  1  0  0  0  0
 18 42  1  0  0  0  0
 19 20  2  0  0  0  0
M  END
$$$$
