
 OpenBabel04232216433D

 64 65  0  0  1  0  0  0  0  0999 V2000
    4.0005   -5.3536   -1.5700 C   0  0  0  0  0  0  0  0  0  0  0  0
    4.4600   -4.0132   -1.0964 C   0  0  0  0  0  0  0  0  0  0  0  0
    4.0861   -2.8013   -1.5619 C   0  0  0  0  0  0  0  0  0  0  0  0
    4.8939   -1.5981   -1.2652 C   0  0  0  0  0  0  0  0  0  0  0  0
    5.3344   -0.8346   -2.2860 C   0  0  0  0  0  0  0  0  0  0  0  0
    6.7214   -0.3566   -2.3269 C   0  0  0  0  0  0  0  0  0  0  0  0
    7.4687   -0.3864   -3.4636 C   0  0  0  0  0  0  0  0  0  0  0  0
    6.8247   -0.5163   -4.8342 C   0  0  0  0  0  0  0  0  0  0  0  0
    9.0394   -0.3720   -3.4376 C   0  0  3  0  0  0  0  0  0  0  0  0
    9.6571   -1.3086   -2.3472 C   0  0  0  0  0  0  0  0  0  0  0  0
   11.1811   -1.3993   -2.3442 C   0  0  0  0  0  0  0  0  0  0  0  0
    9.6587   -0.5543   -4.8695 C   0  0  0  0  0  0  0  0  0  0  0  0
   10.1078    0.5800   -5.5017 C   0  0  0  0  0  0  0  0  0  0  0  0
   10.5604    0.6093   -6.9143 C   0  0  0  0  0  0  0  0  0  0  0  0
   10.6080   -0.7144   -7.6338 C   0  0  0  0  0  0  0  0  0  0  0  0
   10.0783   -1.9096   -6.8648 C   0  0  0  0  0  0  0  0  0  0  0  0
    9.6838   -1.8307   -5.5641 C   0  0  0  0  0  0  0  0  0  0  0  0
    9.1884   -3.1031   -4.9656 C   0  0  0  0  0  0  0  0  0  0  0  0
    9.6189   -4.3211   -5.3150 C   0  0  0  0  0  0  0  0  0  0  0  0
    9.1829   -5.4791   -4.5861 C   0  0  0  0  0  0  0  0  0  0  0  0
    9.4688   -6.7413   -4.9674 C   0  0  0  0  0  0  0  0  0  0  0  0
    9.1527   -7.7996   -4.0586 C   0  0  0  0  0  0  0  0  0  0  0  0
    9.3034   -9.1196   -4.2530 C   0  0  0  0  0  0  0  0  0  0  0  0
    8.6459   -9.9190   -3.2346 C   0  0  0  0  0  0  0  0  0  0  0  0
    7.7118  -10.7932   -3.6217 C   0  0  0  0  0  0  0  0  0  0  0  0
    6.4649  -11.0294   -2.9272 C   0  0  0  0  0  0  0  0  0  0  0  0
    5.5698  -10.1861   -2.3458 C   0  0  0  0  0  0  0  0  0  0  0  0
    5.6123   -8.7798   -1.8863 C   0  0  0  0  0  0  0  0  0  0  0  0
    4.6098   -7.8530   -1.9552 C   0  0  0  0  0  0  0  0  0  0  0  0
    4.6353   -6.5224   -1.2960 C   0  0  0  0  0  0  0  0  0  0  0  0
    3.1162   -5.3552   -2.1992 H   0  0  0  0  0  0  0  0  0  0  0  0
    5.3064   -4.0323   -0.4109 H   0  0  0  0  0  0  0  0  0  0  0  0
    3.3318   -2.6809   -2.3435 H   0  0  0  0  0  0  0  0  0  0  0  0
    5.4111   -1.5726   -0.3077 H   0  0  0  0  0  0  0  0  0  0  0  0
    4.8130   -0.9080   -3.2334 H   0  0  0  0  0  0  0  0  0  0  0  0
    7.2053   -0.2005   -1.3638 H   0  0  0  0  0  0  0  0  0  0  0  0
    5.7537   -0.3039   -4.8498 H   0  0  0  0  0  0  0  0  0  0  0  0
    6.9496   -1.5257   -5.2306 H   0  0  0  0  0  0  0  0  0  0  0  0
    7.2482    0.2092   -5.5342 H   0  0  0  0  0  0  0  0  0  0  0  0
    9.2995    0.6460   -3.1007 H   0  0  0  0  0  0  0  0  0  0  0  0
    9.2504   -2.3222   -2.4102 H   0  0  0  0  0  0  0  0  0  0  0  0
    9.3572   -0.9510   -1.3546 H   0  0  0  0  0  0  0  0  0  0  0  0
   11.5813   -1.7639   -3.2941 H   0  0  0  0  0  0  0  0  0  0  0  0
   11.5092   -2.1027   -1.5696 H   0  0  0  0  0  0  0  0  0  0  0  0
   11.6323   -0.4278   -2.1237 H   0  0  0  0  0  0  0  0  0  0  0  0
   10.0644    1.5394   -4.9939 H   0  0  0  0  0  0  0  0  0  0  0  0
   11.5648    1.0645   -6.9531 H   0  0  0  0  0  0  0  0  0  0  0  0
    9.9061    1.2815   -7.4797 H   0  0  0  0  0  0  0  0  0  0  0  0
   11.6381   -0.9688   -7.9170 H   0  0  0  0  0  0  0  0  0  0  0  0
   10.0511   -0.6646   -8.5836 H   0  0  0  0  0  0  0  0  0  0  0  0
   10.0362   -2.7947   -7.4189 H   0  0  0  0  0  0  0  0  0  0  0  0
    8.4260   -3.0030   -4.1786 H   0  0  0  0  0  0  0  0  0  0  0  0
   10.3416   -4.4891   -6.0992 H   0  0  0  0  0  0  0  0  0  0  0  0
    8.6902   -5.2972   -3.6343 H   0  0  0  0  0  0  0  0  0  0  0  0
    9.9208   -6.9550   -5.9261 H   0  0  0  0  0  0  0  0  0  0  0  0
    8.6873   -7.4751   -3.1343 H   0  0  0  0  0  0  0  0  0  0  0  0
    9.6685   -9.5419   -5.1828 H   0  0  0  0  0  0  0  0  0  0  0  0
    8.5974   -9.4890   -2.2422 H   0  0  0  0  0  0  0  0  0  0  0  0
    7.7937  -11.2570   -4.6060 H   0  0  0  0  0  0  0  0  0  0  0  0
    6.1464  -12.0602   -3.0619 H   0  0  0  0  0  0  0  0  0  0  0  0
    4.6198  -10.6613   -2.0877 H   0  0  0  0  0  0  0  0  0  0  0  0
    6.5099   -8.5515   -1.3090 H   0  0  0  0  0  0  0  0  0  0  0  0
    3.7161   -8.0724   -2.5368 H   0  0  0  0  0  0  0  0  0  0  0  0
    4.8986   -6.6143   -0.2354 H   0  0  0  0  0  0  0  0  0  0  0  0
  1  2  1  0  0  0  0
  1 30  2  3  0  0  0
  1 31  1  0  0  0  0
  2  3  2  3  0  0  0
  2 32  1  0  0  0  0
  3  4  1  0  0  0  0
  3 33  1  0  0  0  0
  4  5  2  3  0  0  0
  4 34  1  0  0  0  0
  5  6  1  0  0  0  0
  5 35  1  0  0  0  0
  6  7  2  3  0  0  0
  6 36  1  0  0  0  0
  7  8  1  0  0  0  0
  7  9  1  0  0  0  0
  8 37  1  0  0  0  0
  8 38  1  0  0  0  0
  8 39  1  0  0  0  0
  9 10  1  0  0  0  0
  9 12  1  0  0  0  0
  9 40  1  0  0  0  0
 10 11  1  0  0  0  0
 10 41  1  0  0  0  0
 10 42  1  0  0  0  0
 11 43  1  0  0  0  0
 11 44  1  0  0  0  0
 11 45  1  0  0  0  0
 12 13  2  0  0  0  0
 12 17  1  0  0  0  0
 13 14  1  0  0  0  0
 13 46  1  0  0  0  0
 14 15  1  0  0  0  0
 14 47  1  0  0  0  0
 14 48  1  0  0  0  0
 15 16  1  0  0  0  0
 15 49  1  0  0  0  0
 15 50  1  0  0  0  0
 16 17  2  0  0  0  0
 16 51  1  0  0  0  0
 17 18  1  0  0  0  0
 18 19  2  3  0  0  0
 18 52  1  0  0  0  0
 19 20  1  0  0  0  0
 19 53  1  0  0  0  0
 20 21  2  3  0  0  0
 20 54  1  0  0  0  0
 21 22  1  0  0  0  0
 21 55  1  0  0  0  0
 22 23  2  3  0  0  0
 22 56  1  0  0  0  0
 23 24  1  0  0  0  0
 23 57  1  0  0  0  0
 24 25  2  3  0  0  0
 24 58  1  0  0  0  0
 25 26  1  0  0  0  0
 25 59  1  0  0  0  0
 26 27  2  3  0  0  0
 26 60  1  0  0  0  0
 27 28  1  0  0  0  0
 27 61  1  0  0  0  0
 28 29  2  3  0  0  0
 28 62  1  0  0  0  0
 29 30  1  0  0  0  0
 29 63  1  0  0  0  0
 30 64  1  0  0  0  0
M  END
$$$$
