
 OpenBabel04232216423D

 16 16  0  0  0  0  0  0  0  0999 V2000
    1.3487    0.0851   -0.4238 C   0  0  0  0  0  0  0  0  0  0  0  0
    2.5186    0.2422   -1.2279 C   0  0  0  0  0  0  0  0  0  0  0  0
    3.2675    0.3562   -0.1157 C   0  0  0  0  0  0  0  0  0  0  0  0
    4.7200    0.6697    0.1874 C   0  0  0  0  0  0  0  0  0  0  0  0
    4.9440    2.0808   -0.1528 N   0  0  0  0  0  0  0  0  0  0  0  0
    6.3159    2.4848    0.0961 C   0  0  0  0  0  0  0  0  0  0  0  0
    2.1131    0.0912    0.6852 C   0  0  0  0  0  0  0  0  0  0  0  0
    0.2913   -0.0134   -0.6398 H   0  0  0  0  0  0  0  0  0  0  0  0
    2.7074    0.3274   -2.2923 H   0  0  0  0  0  0  0  0  0  0  0  0
    5.3593    0.0789   -0.4753 H   0  0  0  0  0  0  0  0  0  0  0  0
    4.9461    0.4865    1.2432 H   0  0  0  0  0  0  0  0  0  0  0  0
    4.3084    2.6500    0.4053 H   0  0  0  0  0  0  0  0  0  0  0  0
    7.0125    1.9235   -0.5338 H   0  0  0  0  0  0  0  0  0  0  0  0
    6.5927    2.3544    1.1477 H   0  0  0  0  0  0  0  0  0  0  0  0
    6.4293    3.5449   -0.1533 H   0  0  0  0  0  0  0  0  0  0  0  0
    1.9325   -0.0007    1.7499 H   0  0  0  0  0  0  0  0  0  0  0  0
  1  2  1  0  0  0  0
  1  7  2  0  0  0  0
  1  8  1  0  0  0  0
  2  3  2  0  0  0  0
  2  9  1  0  0  0  0
  3  4  1  0  0  0  0
  3  7  1  0  0  0  0
  4  5  1  0  0  0  0
  4 10  1  0  0  0  0
  4 11  1  0  0  0  0
  5  6  1  0  0  0  0
  5 12  1  0  0  0  0
  6 13  1  0  0  0  0
  6 14  1  0  0  0  0
  6 15  1  0  0  0  0
  7 16  1  0  0  0  0
M  END
$$$$
