
 OpenBabel04232216403D

193192  0  0  0  0  0  0  0  0999 V2000
   25.5105  -25.4941    7.3614 C   0  0  0  0  0  0  0  0  0  0  0  0
   26.3231  -24.4901    7.7091 C   0  0  0  0  0  0  0  0  0  0  0  0
   27.2944  -24.6045    8.8559 C   0  0  0  0  0  0  0  0  0  0  0  0
   27.0027  -23.5694    9.9253 C   0  0  0  0  0  0  0  0  0  0  0  0
   27.9422  -23.7701   11.0080 N   0  0  0  0  0  0  0  0  0  0  0  0
   27.6744  -22.7773   12.0173 N   0  0  0  0  0  0  0  0  0  0  0  0
   28.5971  -22.9166   13.0836 N   0  0  0  0  0  0  0  0  0  0  0  0
   29.9495  -22.7267   12.6165 N   0  0  0  0  0  0  0  0  0  0  0  0
   30.0796  -21.4177   12.0305 N   0  0  0  0  0  0  0  0  0  0  0  0
   29.7727  -20.4175   13.0228 N   0  0  0  0  0  0  0  0  0  0  0  0
   30.6867  -20.5533   14.1198 N   0  0  0  0  0  0  0  0  0  0  0  0
   32.0383  -20.4076   13.6412 N   0  0  0  0  0  0  0  0  0  0  0  0
   32.2064  -19.0862   13.0566 N   0  0  0  0  0  0  0  0  0  0  0  0
   31.8994  -18.0746   14.0264 N   0  0  0  0  0  0  0  0  0  0  0  0
   32.7965  -18.1820   15.1437 N   0  0  0  0  0  0  0  0  0  0  0  0
   34.1511  -18.0641   14.6940 N   0  0  0  0  0  0  0  0  0  0  0  0
   34.3444  -16.7667   14.0885 N   0  0  0  0  0  0  0  0  0  0  0  0
   34.0350  -15.7259   15.0249 N   0  0  0  0  0  0  0  0  0  0  0  0
   34.8763  -15.8588   16.1648 N   0  0  0  0  0  0  0  0  0  0  0  0
   36.2417  -15.7464   15.7356 N   0  0  0  0  0  0  0  0  0  0  0  0
   36.4122  -14.4936   15.0689 N   0  0  0  0  0  0  0  0  0  0  0  0
   36.1048  -13.4348   15.9997 N   0  0  0  0  0  0  0  0  0  0  0  0
   36.9532  -13.5366   17.1526 N   0  0  0  0  0  0  0  0  0  0  0  0
   38.3360  -13.4054   16.7624 N   0  0  0  0  0  0  0  0  0  0  0  0
   38.5635  -12.1562   16.1106 N   0  0  0  0  0  0  0  0  0  0  0  0
   38.2384  -11.0808   16.9853 N   0  0  0  0  0  0  0  0  0  0  0  0
   39.0379  -11.2131   18.1524 N   0  0  0  0  0  0  0  0  0  0  0  0
   40.4196  -11.1555   17.7519 N   0  0  0  0  0  0  0  0  0  0  0  0
   40.6830   -9.8848   17.0948 N   0  0  0  0  0  0  0  0  0  0  0  0
   40.3894   -8.7717   17.9509 N   0  0  0  0  0  0  0  0  0  0  0  0
   41.1696   -8.8455   19.1414 N   0  0  0  0  0  0  0  0  0  0  0  0
   42.5571   -8.8055   18.7773 N   0  0  0  0  0  0  0  0  0  0  0  0
   42.8256   -7.5876   18.0568 N   0  0  0  0  0  0  0  0  0  0  0  0
   42.5141   -6.4275   18.8888 N   0  0  0  0  0  0  0  0  0  0  0  0
   43.2807   -6.4846   20.0934 N   0  0  0  0  0  0  0  0  0  0  0  0
   44.6592   -6.4898   19.7439 N   0  0  0  0  0  0  0  0  0  0  0  0
   44.9566   -5.2668   19.0249 N   0  0  0  0  0  0  0  0  0  0  0  0
   44.6395   -4.1073   19.8047 N   0  0  0  0  0  0  0  0  0  0  0  0
   45.3817   -4.1103   21.0040 N   0  0  0  0  0  0  0  0  0  0  0  0
   46.7721   -4.0871   20.6871 N   0  0  0  0  0  0  0  0  0  0  0  0
   47.0863   -2.9290   19.9147 N   0  0  0  0  0  0  0  0  0  0  0  0
   46.7279   -1.7683   20.6470 N   0  0  0  0  0  0  0  0  0  0  0  0
   47.4925   -1.7612   21.8733 N   0  0  0  0  0  0  0  0  0  0  0  0
   48.9022   -1.7604   21.5823 N   0  0  0  0  0  0  0  0  0  0  0  0
   49.2439   -0.6228   20.7994 N   0  0  0  0  0  0  0  0  0  0  0  0
   48.9243    0.5687   21.5333 N   0  0  0  0  0  0  0  0  0  0  0  0
   49.6296    0.5999   22.7775 N   0  0  0  0  0  0  0  0  0  0  0  0
   51.0312    0.5606   22.5224 N   0  0  0  0  0  0  0  0  0  0  0  0
   51.4017    1.7011   21.7210 N   0  0  0  0  0  0  0  0  0  0  0  0
   51.0775    2.9200   22.4114 N   0  0  0  0  0  0  0  0  0  0  0  0
   51.7614    2.9359   23.6658 N   0  0  0  0  0  0  0  0  0  0  0  0
   53.1975    2.8721   23.3798 C   0  0  0  0  0  0  0  0  0  0  0  0
   53.9734    2.8919   24.6805 C   0  0  0  0  0  0  0  0  0  0  0  0
   55.4673    2.8375   24.4042 C   0  0  0  0  0  0  0  0  0  0  0  0
   56.2410    2.8603   25.7090 C   0  0  0  0  0  0  0  0  0  0  0  0
   57.7311    2.8090   25.4336 C   0  0  0  0  0  0  0  0  0  0  0  0
   58.5016    2.8301   26.7386 C   0  0  0  0  0  0  0  0  0  0  0  0
   59.9907    2.7787   26.4626 C   0  0  0  0  0  0  0  0  0  0  0  0
   60.7606    2.8018   27.7674 C   0  0  0  0  0  0  0  0  0  0  0  0
   62.2495    2.7505   27.4913 C   0  0  0  0  0  0  0  0  0  0  0  0
   63.0195    2.7736   28.7960 C   0  0  0  0  0  0  0  0  0  0  0  0
   64.5083    2.7223   28.5199 C   0  0  0  0  0  0  0  0  0  0  0  0
   65.2783    2.7454   29.8246 C   0  0  0  0  0  0  0  0  0  0  0  0
   66.7671    2.6940   29.5486 C   0  0  0  0  0  0  0  0  0  0  0  0
   67.5371    2.7171   30.8533 C   0  0  0  0  0  0  0  0  0  0  0  0
   69.0259    2.6658   30.5772 C   0  0  0  0  0  0  0  0  0  0  0  0
   69.7959    2.6889   31.8819 C   0  0  0  0  0  0  0  0  0  0  0  0
   71.2847    2.6375   31.6058 C   0  0  0  0  0  0  0  0  0  0  0  0
   72.0547    2.6626   32.9105 C   0  0  0  0  0  0  0  0  0  0  0  0
   73.5436    2.6113   32.6344 C   0  0  0  0  0  0  0  0  0  0  0  0
   74.3136    2.6364   33.9390 C   0  0  0  0  0  0  0  0  0  0  0  0
   75.8025    2.5851   33.6629 C   0  0  0  0  0  0  0  0  0  0  0  0
   76.5724    2.6102   34.9676 C   0  0  0  0  0  0  0  0  0  0  0  0
   78.0613    2.5588   34.6915 C   0  0  0  0  0  0  0  0  0  0  0  0
   78.8312    2.5819   35.9962 C   0  0  0  0  0  0  0  0  0  0  0  0
   80.3202    2.5306   35.7202 C   0  0  0  0  0  0  0  0  0  0  0  0
   81.0901    2.5537   37.0253 C   0  0  0  0  0  0  0  0  0  0  0  0
   82.5795    2.5044   36.7502 C   0  0  0  0  0  0  0  0  0  0  0  0
   83.3530    2.5294   38.0554 C   0  0  0  0  0  0  0  0  0  0  0  0
   84.8381    2.4801   37.7766 C   0  0  0  0  0  0  0  0  0  0  0  0
   24.8188  -25.3791    6.5414 H   0  0  0  0  0  0  0  0  0  0  0  0
   25.5342  -26.4322    7.9045 H   0  0  0  0  0  0  0  0  0  0  0  0
   26.2773  -23.5554    7.1537 H   0  0  0  0  0  0  0  0  0  0  0  0
   28.3174  -24.4815    8.4792 H   0  0  0  0  0  0  0  0  0  0  0  0
   27.2275  -25.6106    9.2964 H   0  0  0  0  0  0  0  0  0  0  0  0
   25.9884  -23.7075   10.3088 H   0  0  0  0  0  0  0  0  0  0  0  0
   27.0916  -22.5631    9.5016 H   0  0  0  0  0  0  0  0  0  0  0  0
   28.8949  -23.5823   10.6698 H   0  0  0  0  0  0  0  0  0  0  0  0
   26.7366  -22.8871   12.3884 H   0  0  0  0  0  0  0  0  0  0  0  0
   28.5311  -23.8310   13.5065 H   0  0  0  0  0  0  0  0  0  0  0  0
   30.1449  -23.4598   11.9229 H   0  0  0  0  0  0  0  0  0  0  0  0
   29.4282  -21.2856   11.2640 H   0  0  0  0  0  0  0  0  0  0  0  0
   28.8120  -20.5527   13.3552 H   0  0  0  0  0  0  0  0  0  0  0  0
   30.6086  -21.4700   14.5442 H   0  0  0  0  0  0  0  0  0  0  0  0
   32.2440  -21.1367   12.9462 H   0  0  0  0  0  0  0  0  0  0  0  0
   31.5641  -18.9605   12.2749 H   0  0  0  0  0  0  0  0  0  0  0  0
   30.9494  -18.1755   14.3697 H   0  0  0  0  0  0  0  0  0  0  0  0
   32.6973  -19.0945   15.5751 H   0  0  0  0  0  0  0  0  0  0  0  0
   34.3434  -18.8219   14.0240 H   0  0  0  0  0  0  0  0  0  0  0  0
   33.7198  -16.6800   13.2774 H   0  0  0  0  0  0  0  0  0  0  0  0
   33.0642  -15.8095   15.3418 H   0  0  0  0  0  0  0  0  0  0  0  0
   34.6926  -16.7771   16.5870 H   0  0  0  0  0  0  0  0  0  0  0  0
   36.4393  -16.4668   15.0489 H   0  0  0  0  0  0  0  0  0  0  0  0
   35.7849  -14.4538   14.2546 H   0  0  0  0  0  0  0  0  0  0  0  0
   35.1311  -13.5084   16.3069 H   0  0  0  0  0  0  0  0  0  0  0  0
   36.8543  -14.4340   17.6170 H   0  0  0  0  0  0  0  0  0  0  0  0
   38.5644  -14.1683   16.1153 H   0  0  0  0  0  0  0  0  0  0  0  0
   37.9908  -12.0964   15.2674 H   0  0  0  0  0  0  0  0  0  0  0  0
   37.2704  -11.1689   17.2752 H   0  0  0  0  0  0  0  0  0  0  0  0
   38.8342  -12.1251   18.5770 H   0  0  0  0  0  0  0  0  0  0  0  0
   40.6163  -11.9199   17.0900 H   0  0  0  0  0  0  0  0  0  0  0  0
   40.0906   -9.8106   16.2601 H   0  0  0  0  0  0  0  0  0  0  0  0
   39.4004   -8.8046   18.2037 H   0  0  0  0  0  0  0  0  0  0  0  0
   40.9377   -9.7301   19.6119 H   0  0  0  0  0  0  0  0  0  0  0  0
   42.7680   -9.5880   18.1554 H   0  0  0  0  0  0  0  0  0  0  0  0
   42.2377   -7.5299   17.2273 H   0  0  0  0  0  0  0  0  0  0  0  0
   41.5054   -6.4810   19.1036 H   0  0  0  0  0  0  0  0  0  0  0  0
   43.0541   -7.3487   20.6013 H   0  0  0  0  0  0  0  0  0  0  0  0
   44.8924   -7.3019   19.1571 H   0  0  0  0  0  0  0  0  0  0  0  0
   44.3794   -5.2323   18.1819 H   0  0  0  0  0  0  0  0  0  0  0  0
   43.6520   -4.1346   20.0479 H   0  0  0  0  0  0  0  0  0  0  0  0
   45.1942   -4.9586   21.5168 H   0  0  0  0  0  0  0  0  0  0  0  0
   46.9721   -4.9021   20.1143 H   0  0  0  0  0  0  0  0  0  0  0  0
   46.5122   -2.9620   19.0704 H   0  0  0  0  0  0  0  0  0  0  0  0
   45.7234   -1.8278   20.8499 H   0  0  0  0  0  0  0  0  0  0  0  0
   47.2479   -2.6258   22.3889 H   0  0  0  0  0  0  0  0  0  0  0  0
   49.1236   -2.5954   21.0319 H   0  0  0  0  0  0  0  0  0  0  0  0
   48.7013   -0.6404   19.9390 H   0  0  0  0  0  0  0  0  0  0  0  0
   47.9243    0.5406   21.7336 H   0  0  0  0  0  0  0  0  0  0  0  0
   49.3784   -0.2409   23.2976 H   0  0  0  0  0  0  0  0  0  0  0  0
   51.2279   -0.2817   21.9906 H   0  0  0  0  0  0  0  0  0  0  0  0
   50.8523    1.6580   20.8696 H   0  0  0  0  0  0  0  0  0  0  0  0
   50.0664    2.8751   22.5877 H   0  0  0  0  0  0  0  0  0  0  0  0
   51.4846    2.1001   24.1907 H   0  0  0  0  0  0  0  0  0  0  0  0
   53.4971    3.7290   22.7635 H   0  0  0  0  0  0  0  0  0  0  0  0
   53.4698    1.9573   22.8341 H   0  0  0  0  0  0  0  0  0  0  0  0
   53.6887    2.0335   25.2998 H   0  0  0  0  0  0  0  0  0  0  0  0
   53.7398    3.8061   25.2361 H   0  0  0  0  0  0  0  0  0  0  0  0
   55.7638    3.6942   23.7874 H   0  0  0  0  0  0  0  0  0  0  0  0
   55.7118    1.9236   23.8495 H   0  0  0  0  0  0  0  0  0  0  0  0
   55.9508    2.0024   26.3268 H   0  0  0  0  0  0  0  0  0  0  0  0
   56.0007    3.7734   26.2661 H   0  0  0  0  0  0  0  0  0  0  0  0
   58.0237    3.6677   24.8181 H   0  0  0  0  0  0  0  0  0  0  0  0
   57.9735    1.8966   24.8764 H   0  0  0  0  0  0  0  0  0  0  0  0
   58.2099    1.9714   27.3546 H   0  0  0  0  0  0  0  0  0  0  0  0
   58.2601    3.7425   27.2963 H   0  0  0  0  0  0  0  0  0  0  0  0
   60.2824    3.6367   25.8457 H   0  0  0  0  0  0  0  0  0  0  0  0
   60.2326    1.8656   25.9064 H   0  0  0  0  0  0  0  0  0  0  0  0
   60.4689    1.9439   28.3844 H   0  0  0  0  0  0  0  0  0  0  0  0
   60.5188    3.7150   28.3237 H   0  0  0  0  0  0  0  0  0  0  0  0
   62.5412    3.6084   26.8743 H   0  0  0  0  0  0  0  0  0  0  0  0
   62.4914    1.8374   26.9350 H   0  0  0  0  0  0  0  0  0  0  0  0
   62.7278    1.9157   29.4130 H   0  0  0  0  0  0  0  0  0  0  0  0
   62.7776    3.6867   29.3523 H   0  0  0  0  0  0  0  0  0  0  0  0
   64.8000    3.5802   27.9029 H   0  0  0  0  0  0  0  0  0  0  0  0
   64.7502    1.8091   27.9636 H   0  0  0  0  0  0  0  0  0  0  0  0
   64.9866    1.8874   30.4417 H   0  0  0  0  0  0  0  0  0  0  0  0
   65.0364    3.6585   30.3809 H   0  0  0  0  0  0  0  0  0  0  0  0
   67.0588    3.5519   28.9315 H   0  0  0  0  0  0  0  0  0  0  0  0
   67.0090    1.7809   28.9923 H   0  0  0  0  0  0  0  0  0  0  0  0
   67.2454    1.8592   31.4703 H   0  0  0  0  0  0  0  0  0  0  0  0
   67.2952    3.6303   31.4096 H   0  0  0  0  0  0  0  0  0  0  0  0
   69.3176    3.5237   29.9602 H   0  0  0  0  0  0  0  0  0  0  0  0
   69.2679    1.7526   30.0209 H   0  0  0  0  0  0  0  0  0  0  0  0
   69.5042    1.8310   32.4989 H   0  0  0  0  0  0  0  0  0  0  0  0
   69.5539    3.6020   32.4382 H   0  0  0  0  0  0  0  0  0  0  0  0
   71.5762    3.4947   30.9876 H   0  0  0  0  0  0  0  0  0  0  0  0
   71.5268    1.7237   31.0508 H   0  0  0  0  0  0  0  0  0  0  0  0
   71.7633    1.8055   33.5287 H   0  0  0  0  0  0  0  0  0  0  0  0
   71.8126    3.5765   33.4655 H   0  0  0  0  0  0  0  0  0  0  0  0
   73.8351    3.4684   32.0161 H   0  0  0  0  0  0  0  0  0  0  0  0
   73.7857    1.6974   32.0793 H   0  0  0  0  0  0  0  0  0  0  0  0
   74.0221    1.7793   34.5572 H   0  0  0  0  0  0  0  0  0  0  0  0
   74.0715    3.5503   34.4940 H   0  0  0  0  0  0  0  0  0  0  0  0
   76.0939    3.4422   33.0447 H   0  0  0  0  0  0  0  0  0  0  0  0
   76.0446    1.6712   33.1079 H   0  0  0  0  0  0  0  0  0  0  0  0
   76.2810    1.7530   35.5858 H   0  0  0  0  0  0  0  0  0  0  0  0
   76.3303    3.5240   35.5226 H   0  0  0  0  0  0  0  0  0  0  0  0
   78.3530    3.4167   34.0744 H   0  0  0  0  0  0  0  0  0  0  0  0
   78.3032    1.6457   34.1352 H   0  0  0  0  0  0  0  0  0  0  0  0
   78.5395    1.7240   36.6132 H   0  0  0  0  0  0  0  0  0  0  0  0
   78.5893    3.4951   36.5525 H   0  0  0  0  0  0  0  0  0  0  0  0
   80.6118    3.3885   35.1031 H   0  0  0  0  0  0  0  0  0  0  0  0
   80.5621    1.6174   35.1639 H   0  0  0  0  0  0  0  0  0  0  0  0
   80.7993    1.6949   37.6414 H   0  0  0  0  0  0  0  0  0  0  0  0
   80.8469    3.4662   37.5819 H   0  0  0  0  0  0  0  0  0  0  0  0
   82.8692    3.3621   36.1315 H   0  0  0  0  0  0  0  0  0  0  0  0
   82.8220    1.5914   36.1934 H   0  0  0  0  0  0  0  0  0  0  0  0
   83.0660    1.6712   38.6729 H   0  0  0  0  0  0  0  0  0  0  0  0
   83.1132    3.4426   38.6109 H   0  0  0  0  0  0  0  0  0  0  0  0
   85.0925    1.5648   37.2331 H   0  0  0  0  0  0  0  0  0  0  0  0
   85.3975    2.4980   38.7146 H   0  0  0  0  0  0  0  0  0  0  0  0
   85.1398    3.3403   37.1711 H   0  0  0  0  0  0  0  0  0  0  0  0
  1  2  2  0  0  0  0
  1 81  1  0  0  0  0
  1 82  1  0  0  0  0
  2  3  1  0  0  0  0
  2 83  1  0  0  0  0
  3  4  1  0  0  0  0
  3 84  1  0  0  0  0
  3 85  1  0  0  0  0
  4  5  1  0  0  0  0
  4 86  1  0  0  0  0
  4 87  1  0  0  0  0
  5  6  1  0  0  0  0
  5 88  1  0  0  0  0
  6  7  1  0  0  0  0
  6 89  1  0  0  0  0
  7  8  1  0  0  0  0
  7 90  1  0  0  0  0
  8  9  1  0  0  0  0
  8 91  1  0  0  0  0
  9 10  1  0  0  0  0
  9 92  1  0  0  0  0
 10 11  1  0  0  0  0
 10 93  1  0  0  0  0
 11 12  1  0  0  0  0
 11 94  1  0  0  0  0
 12 13  1  0  0  0  0
 12 95  1  0  0  0  0
 13 14  1  0  0  0  0
 13 96  1  0  0  0  0
 14 15  1  0  0  0  0
 14 97  1  0  0  0  0
 15 16  1  0  0  0  0
 15 98  1  0  0  0  0
 16 17  1  0  0  0  0
 16 99  1  0  0  0  0
 17 18  1  0  0  0  0
 17100  1  0  0  0  0
 18 19  1  0  0  0  0
 18101  1  0  0  0  0
 19 20  1  0  0  0  0
 19102  1  0  0  0  0
 20 21  1  0  0  0  0
 20103  1  0  0  0  0
 21 22  1  0  0  0  0
 21104  1  0  0  0  0
 22 23  1  0  0  0  0
 22105  1  0  0  0  0
 23 24  1  0  0  0  0
 23106  1  0  0  0  0
 24 25  1  0  0  0  0
 24107  1  0  0  0  0
 25 26  1  0  0  0  0
 25108  1  0  0  0  0
 26 27  1  0  0  0  0
 26109  1  0  0  0  0
 27 28  1  0  0  0  0
 27110  1  0  0  0  0
 28 29  1  0  0  0  0
 28111  1  0  0  0  0
 29 30  1  0  0  0  0
 29112  1  0  0  0  0
 30 31  1  0  0  0  0
 30113  1  0  0  0  0
 31 32  1  0  0  0  0
 31114  1  0  0  0  0
 32 33  1  0  0  0  0
 32115  1  0  0  0  0
 33 34  1  0  0  0  0
 33116  1  0  0  0  0
 34 35  1  0  0  0  0
 34117  1  0  0  0  0
 35 36  1  0  0  0  0
 35118  1  0  0  0  0
 36 37  1  0  0  0  0
 36119  1  0  0  0  0
 37 38  1  0  0  0  0
 37120  1  0  0  0  0
 38 39  1  0  0  0  0
 38121  1  0  0  0  0
 39 40  1  0  0  0  0
 39122  1  0  0  0  0
 40 41  1  0  0  0  0
 40123  1  0  0  0  0
 41 42  1  0  0  0  0
 41124  1  0  0  0  0
 42 43  1  0  0  0  0
 42125  1  0  0  0  0
 43 44  1  0  0  0  0
 43126  1  0  0  0  0
 44 45  1  0  0  0  0
 44127  1  0  0  0  0
 45 46  1  0  0  0  0
 45128  1  0  0  0  0
 46 47  1  0  0  0  0
 46129  1  0  0  0  0
 47 48  1  0  0  0  0
 47130  1  0  0  0  0
 48 49  1  0  0  0  0
 48131  1  0  0  0  0
 49 50  1  0  0  0  0
 49132  1  0  0  0  0
 50 51  1  0  0  0  0
 50133  1  0  0  0  0
 51 52  1  0  0  0  0
 51134  1  0  0  0  0
 52 53  1  0  0  0  0
 52135  1  0  0  0  0
 52136  1  0  0  0  0
 53 54  1  0  0  0  0
 53137  1  0  0  0  0
 53138  1  0  0  0  0
 54 55  1  0  0  0  0
 54139  1  0  0  0  0
 54140  1  0  0  0  0
 55 56  1  0  0  0  0
 55141  1  0  0  0  0
 55142  1  0  0  0  0
 56 57  1  0  0  0  0
 56143  1  0  0  0  0
 56144  1  0  0  0  0
 57 58  1  0  0  0  0
 57145  1  0  0  0  0
 57146  1  0  0  0  0
 58 59  1  0  0  0  0
 58147  1  0  0  0  0
 58148  1  0  0  0  0
 59 60  1  0  0  0  0
 59149  1  0  0  0  0
 59150  1  0  0  0  0
 60 61  1  0  0  0  0
 60151  1  0  0  0  0
 60152  1  0  0  0  0
 61 62  1  0  0  0  0
 61153  1  0  0  0  0
 61154  1  0  0  0  0
 62 63  1  0  0  0  0
 62155  1  0  0  0  0
 62156  1  0  0  0  0
 63 64  1  0  0  0  0
 63157  1  0  0  0  0
 63158  1  0  0  0  0
 64 65  1  0  0  0  0
 64159  1  0  0  0  0
 64160  1  0  0  0  0
 65 66  1  0  0  0  0
 65161  1  0  0  0  0
 65162  1  0  0  0  0
 66 67  1  0  0  0  0
 66163  1  0  0  0  0
 66164  1  0  0  0  0
 67 68  1  0  0  0  0
 67165  1  0  0  0  0
 67166  1  0  0  0  0
 68 69  1  0  0  0  0
 68167  1  0  0  0  0
 68168  1  0  0  0  0
 69 70  1  0  0  0  0
 69169  1  0  0  0  0
 69170  1  0  0  0  0
 70 71  1  0  0  0  0
 70171  1  0  0  0  0
 70172  1  0  0  0  0
 71 72  1  0  0  0  0
 71173  1  0  0  0  0
 71174  1  0  0  0  0
 72 73  1  0  0  0  0
 72175  1  0  0  0  0
 72176  1  0  0  0  0
 73 74  1  0  0  0  0
 73177  1  0  0  0  0
 73178  1  0  0  0  0
 74 75  1  0  0  0  0
 74179  1  0  0  0  0
 74180  1  0  0  0  0
 75 76  1  0  0  0  0
 75181  1  0  0  0  0
 75182  1  0  0  0  0
 76 77  1  0  0  0  0
 76183  1  0  0  0  0
 76184  1  0  0  0  0
 77 78  1  0  0  0  0
 77185  1  0  0  0  0
 77186  1  0  0  0  0
 78 79  1  0  0  0  0
 78187  1  0  0  0  0
 78188  1  0  0  0  0
 79 80  1  0  0  0  0
 79189  1  0  0  0  0
 79190  1  0  0  0  0
 80191  1  0  0  0  0
 80192  1  0  0  0  0
 80193  1  0  0  0  0
M  END
$$$$
