
 OpenBabel04232216443D

 61 62  0  0  0  0  0  0  0  0999 V2000
    0.5643    3.5011    0.4399 C   0  0  0  0  0  0  0  0  0  0  0  0
    2.0110    3.9201    0.7391 C   0  0  0  0  0  0  0  0  0  0  0  0
    2.6780    2.3115    0.4653 C   0  0  0  0  0  0  0  0  0  0  0  0
    2.0871    1.0777    0.6162 C   0  0  0  0  0  0  0  0  0  0  0  0
    3.8819    2.0093   -0.1687 N   0  0  0  0  0  0  0  0  0  0  0  0
    4.8614    1.9676    0.6973 C   0  0  0  0  0  0  0  0  0  0  0  0
    5.9335    0.5576    0.5375 C   0  0  0  0  0  0  0  0  0  0  0  0
    7.4480    0.2717    0.7953 C   0  0  0  0  0  0  0  0  0  0  0  0
    4.7600    3.2866    1.7693 C   0  0  0  0  0  0  0  0  0  0  0  0
    4.2765    4.5584    1.1977 C   0  0  0  0  0  0  0  0  0  0  0  0
    5.0118    4.4506   -0.1148 C   0  0  0  0  0  0  0  0  0  0  0  0
    4.5023    4.7699   -1.3106 C   0  0  0  0  0  0  0  0  0  0  0  0
    4.9638    6.1206   -1.4084 C   0  0  0  0  0  0  0  0  0  0  0  0
    4.0067    7.0121   -1.2247 C   0  0  0  0  0  0  0  0  0  0  0  0
    4.3483    8.2304   -0.6176 C   0  0  0  0  0  0  0  0  0  0  0  0
    3.4245    9.1496   -0.7936 C   0  0  0  0  0  0  0  0  0  0  0  0
    3.7524   10.4840   -0.5613 C   0  0  0  0  0  0  0  0  0  0  0  0
    2.8487   11.3702   -0.9460 C   0  0  0  0  0  0  0  0  0  0  0  0
    3.1139   12.7585   -0.9813 C   0  0  0  0  0  0  0  0  0  0  0  0
    4.3982   13.2897   -0.3924 C   0  0  0  0  0  0  0  0  0  0  0  0
    2.1482   13.5095   -1.5270 C   0  0  0  0  0  0  0  0  0  0  0  0
    2.2989   14.9251   -1.5849 C   0  0  0  0  0  0  0  0  0  0  0  0
    1.2034   15.6876   -1.5812 C   0  0  0  0  0  0  0  0  0  0  0  0
    1.1814   16.5576   -0.4184 C   0  0  0  0  0  0  0  0  0  0  0  0
    0.8074   15.8666    0.7202 C   0  0  0  0  0  0  0  0  0  0  0  0
    1.3531   14.2862    1.2566 C   0  0  0  0  0  0  0  0  0  0  0  0
    0.9285   12.7416    1.2944 C   0  0  0  0  0  0  0  0  0  0  0  0
    1.6942   10.8197    1.8530 S   0  0  0  0  0  0  0  0  0  0  0  0
    1.5911    8.7307    1.3091 N   0  0  0  0  0  0  0  0  0  0  0  0
    2.2574    7.3271    1.4589 C   0  0  0  0  0  0  0  0  0  0  0  0
    2.6459    5.3397    1.0796 C   0  0  0  0  0  0  0  0  0  0  0  0
    0.2418    2.4353    0.2216 H   0  0  0  0  0  0  0  0  0  0  0  0
    0.6255    3.3946   -0.6595 H   0  0  0  0  0  0  0  0  0  0  0  0
    0.2967    3.0923    1.4214 H   0  0  0  0  0  0  0  0  0  0  0  0
    1.1256    0.7606    0.9722 H   0  0  0  0  0  0  0  0  0  0  0  0
    2.6643    0.1783    0.2967 H   0  0  0  0  0  0  0  0  0  0  0  0
    5.8417    0.2485   -0.5284 H   0  0  0  0  0  0  0  0  0  0  0  0
    5.4252   -0.3005    1.0259 H   0  0  0  0  0  0  0  0  0  0  0  0
    8.1171    0.8523    0.1523 H   0  0  0  0  0  0  0  0  0  0  0  0
    7.7154   -0.7865    0.5463 H   0  0  0  0  0  0  0  0  0  0  0  0
    7.7454    0.3751    1.8408 H   0  0  0  0  0  0  0  0  0  0  0  0
    5.8317    3.2460    1.9980 H   0  0  0  0  0  0  0  0  0  0  0  0
    6.0937    4.3549   -0.0456 H   0  0  0  0  0  0  0  0  0  0  0  0
    3.4312    4.6582   -1.5239 H   0  0  0  0  0  0  0  0  0  0  0  0
    5.9683    6.3575   -1.0468 H   0  0  0  0  0  0  0  0  0  0  0  0
    2.9502    6.7792   -1.3734 H   0  0  0  0  0  0  0  0  0  0  0  0
    5.3081    8.4166   -0.1450 H   0  0  0  0  0  0  0  0  0  0  0  0
    2.4531    8.9084   -1.2229 H   0  0  0  0  0  0  0  0  0  0  0  0
    4.7383   10.6999   -0.1831 H   0  0  0  0  0  0  0  0  0  0  0  0
    1.8577   11.0189   -1.2491 H   0  0  0  0  0  0  0  0  0  0  0  0
    5.1706   12.5457   -0.2038 H   0  0  0  0  0  0  0  0  0  0  0  0
    4.2073   13.7667    0.5761 H   0  0  0  0  0  0  0  0  0  0  0  0
    4.8569   13.9982   -1.0802 H   0  0  0  0  0  0  0  0  0  0  0  0
    1.1552   13.0842   -1.7042 H   0  0  0  0  0  0  0  0  0  0  0  0
    3.1935   15.3164   -1.1028 H   0  0  0  0  0  0  0  0  0  0  0  0
    0.2254   15.3179   -1.8805 H   0  0  0  0  0  0  0  0  0  0  0  0
    2.1235   17.1532   -0.5162 H   0  0  0  0  0  0  0  0  0  0  0  0
   -0.2111   16.2335    0.9356 H   0  0  0  0  0  0  0  0  0  0  0  0
    2.3213   14.6739    1.6419 H   0  0  0  0  0  0  0  0  0  0  0  0
   -0.1674   12.7841    1.0411 H   0  0  0  0  0  0  0  0  0  0  0  0
    1.3085    7.0793    0.8828 H   0  0  0  0  0  0  0  0  0  0  0  0
  1  2  1  0  0  0  0
  1 32  1  0  0  0  0
  1 33  1  0  0  0  0
  1 34  1  0  0  0  0
  2  3  1  0  0  0  0
  2 31  2  0  0  0  0
  3  4  2  0  0  0  0
  3  5  1  0  0  0  0
  4 35  1  0  0  0  0
  4 36  1  0  0  0  0
  5  6  2  0  0  0  0
  6  7  1  0  0  0  0
  6  9  1  0  0  0  0
  7  8  1  0  0  0  0
  7 37  1  0  0  0  0
  7 38  1  0  0  0  0
  8 39  1  0  0  0  0
  8 40  1  0  0  0  0
  8 41  1  0  0  0  0
  9 10  2  0  0  0  0
  9 42  1  0  0  0  0
 10 11  1  0  0  0  0
 10 31  1  0  0  0  0
 11 12  2  3  0  0  0
 11 43  1  0  0  0  0
 12 13  1  0  0  0  0
 12 44  1  0  0  0  0
 13 14  2  3  0  0  0
 13 45  1  0  0  0  0
 14 15  1  0  0  0  0
 14 46  1  0  0  0  0
 15 16  2  3  0  0  0
 15 47  1  0  0  0  0
 16 17  1  0  0  0  0
 16 48  1  0  0  0  0
 17 18  2  3  0  0  0
 17 49  1  0  0  0  0
 18 19  1  0  0  0  0
 18 50  1  0  0  0  0
 19 20  1  0  0  0  0
 19 21  2  3  0  0  0
 20 51  1  0  0  0  0
 20 52  1  0  0  0  0
 20 53  1  0  0  0  0
 21 22  1  0  0  0  0
 21 54  1  0  0  0  0
 22 23  2  3  0  0  0
 22 55  1  0  0  0  0
 23 24  1  0  0  0  0
 23 56  1  0  0  0  0
 24 25  2  3  0  0  0
 24 57  1  0  0  0  0
 25 26  1  0  0  0  0
 25 58  1  0  0  0  0
 26 27  2  3  0  0  0
 26 59  1  0  0  0  0
 27 28  1  0  0  0  0
 27 60  1  0  0  0  0
 28 29  1  0  0  0  0
 29 30  2  3  0  0  0
 30 31  1  0  0  0  0
 30 61  1  0  0  0  0
M  END
$$$$
