
 OpenBabel04232216393D

 46 47  0  0  0  0  0  0  0  0999 V2000
    3.2895   -0.9064    3.0161 C   0  0  0  0  0  0  0  0  0  0  0  0
    4.2963   -1.5640    2.4199 C   0  0  0  0  0  0  0  0  0  0  0  0
    4.1256   -1.8359    0.9469 C   0  0  0  0  0  0  0  0  0  0  0  0
    5.2478   -2.0109    0.1881 C   0  0  0  0  0  0  0  0  0  0  0  0
    5.8841   -0.6469   -0.1730 C   0  0  0  0  0  0  0  0  0  0  0  0
    6.0388   -0.3773   -1.6581 C   0  0  0  0  0  0  0  0  0  0  0  0
    6.1123   -3.2235    0.5686 C   0  0  0  0  0  0  0  0  0  0  0  0
    5.2773   -4.4464    0.9516 C   0  0  0  0  0  0  0  0  0  0  0  0
    7.4359   -3.0257    0.8185 C   0  0  0  0  0  0  0  0  0  0  0  0
    8.4452   -3.2935    1.9419 C   0  0  0  0  0  0  0  0  0  0  0  0
    9.4573   -2.4377    1.8566 N   0  0  0  0  0  0  0  0  0  0  0  0
   10.1275   -2.1616    3.0411 C   0  0  0  0  0  0  0  0  0  0  0  0
   11.4330   -2.3223    3.2964 C   0  0  0  0  0  0  0  0  0  0  0  0
   11.7665   -2.6218    4.6750 C   0  0  0  0  0  0  0  0  0  0  0  0
   12.7051   -3.5618    4.8910 C   0  0  0  0  0  0  0  0  0  0  0  0
   12.1476   -4.8798    5.3005 C   0  0  0  0  0  0  0  0  0  0  0  0
   11.6924   -5.6869    4.2926 C   0  0  0  0  0  0  0  0  0  0  0  0
   10.4766   -5.3917    3.4460 C   0  0  0  0  0  0  0  0  0  0  0  0
    9.2287   -5.0662    3.8216 C   0  0  0  0  0  0  0  0  0  0  0  0
    8.1385   -4.1820    3.2061 C   0  0  0  0  0  0  0  0  0  0  0  0
    7.0510   -3.8897    3.9524 C   0  0  0  0  0  0  0  0  0  0  0  0
    5.8007   -3.0916    3.7821 C   0  0  0  0  0  0  0  0  0  0  0  0
    4.4251   -3.9122    4.5599 Cl  0  0  0  0  0  0  0  0  0  0  0  0
    5.5523   -1.9346    3.1572 C   0  0  0  0  0  0  0  0  0  0  0  0
    2.2845   -1.3205    2.7988 H   0  0  0  0  0  0  0  0  0  0  0  0
    3.0721    0.0553    2.5048 H   0  0  0  0  0  0  0  0  0  0  0  0
    3.2979   -2.5228    0.7913 H   0  0  0  0  0  0  0  0  0  0  0  0
    6.8289   -0.4737    0.3459 H   0  0  0  0  0  0  0  0  0  0  0  0
    5.2326    0.1675    0.2028 H   0  0  0  0  0  0  0  0  0  0  0  0
    6.6002   -1.1490   -2.1765 H   0  0  0  0  0  0  0  0  0  0  0  0
    6.6026    0.5788   -1.7883 H   0  0  0  0  0  0  0  0  0  0  0  0
    5.0783   -0.2262   -2.1516 H   0  0  0  0  0  0  0  0  0  0  0  0
    4.5490   -4.6594    0.1550 H   0  0  0  0  0  0  0  0  0  0  0  0
    4.6640   -4.3081    1.8562 H   0  0  0  0  0  0  0  0  0  0  0  0
    5.8923   -5.3456    1.0933 H   0  0  0  0  0  0  0  0  0  0  0  0
    7.8521   -2.1693    0.2712 H   0  0  0  0  0  0  0  0  0  0  0  0
    9.4524   -1.8810    3.8518 H   0  0  0  0  0  0  0  0  0  0  0  0
   12.0944   -2.6386    2.4883 H   0  0  0  0  0  0  0  0  0  0  0  0
   10.8783   -2.6764    5.3163 H   0  0  0  0  0  0  0  0  0  0  0  0
   13.5910   -3.6099    4.2543 H   0  0  0  0  0  0  0  0  0  0  0  0
   11.5304   -4.8021    6.1971 H   0  0  0  0  0  0  0  0  0  0  0  0
   12.4876   -5.8942    3.5348 H   0  0  0  0  0  0  0  0  0  0  0  0
   10.5051   -6.0963    2.5828 H   0  0  0  0  0  0  0  0  0  0  0  0
    8.9045   -5.5478    4.7339 H   0  0  0  0  0  0  0  0  0  0  0  0
    7.0110   -4.4338    4.8950 H   0  0  0  0  0  0  0  0  0  0  0  0
    6.4146   -1.3644    2.7708 H   0  0  0  0  0  0  0  0  0  0  0  0
  1  2  2  0  0  0  0
  1 25  1  0  0  0  0
  1 26  1  0  0  0  0
  2  3  1  0  0  0  0
  2 24  1  0  0  0  0
  3  4  2  0  0  0  0
  3 27  1  0  0  0  0
  4  5  1  0  0  0  0
  4  7  1  0  0  0  0
  5  6  1  0  0  0  0
  5 28  1  0  0  0  0
  5 29  1  0  0  0  0
  6 30  1  0  0  0  0
  6 31  1  0  0  0  0
  6 32  1  0  0  0  0
  7  8  1  0  0  0  0
  7  9  2  0  0  0  0
  8 33  1  0  0  0  0
  8 34  1  0  0  0  0
  8 35  1  0  0  0  0
  9 10  1  0  0  0  0
  9 36  1  0  0  0  0
 10 11  2  3  0  0  0
 10 20  1  0  0  0  0
 11 12  1  0  0  0  0
 12 13  2  3  0  0  0
 12 37  1  0  0  0  0
 13 14  1  0  0  0  0
 13 38  1  0  0  0  0
 14 15  2  3  0  0  0
 14 39  1  0  0  0  0
 15 16  1  0  0  0  0
 15 40  1  0  0  0  0
 16 17  2  3  0  0  0
 16 41  1  0  0  0  0
 17 18  1  0  0  0  0
 17 42  1  0  0  0  0
 18 19  2  3  0  0  0
 18 43  1  0  0  0  0
 19 20  1  0  0  0  0
 19 44  1  0  0  0  0
 20 21  2  0  0  0  0
 21 22  1  0  0  0  0
 21 45  1  0  0  0  0
 22 23  1  0  0  0  0
 22 24  2  0  0  0  0
 24 46  1  0  0  0  0
M  END
$$$$
