
 OpenBabel04232216503D

 76 77  0  0  0  0  0  0  0  0999 V2000
   17.0597   -9.1682   -3.6090 C   0  0  0  0  0  0  0  0  0  0  0  0
   19.4691   -9.4743   -3.9317 C   0  0  0  0  0  0  0  0  0  0  0  0
   17.1773   -8.1241   -3.6339 C   0  0  0  0  0  0  0  0  0  0  0  0
   15.2262   -7.0845   -3.1918 C   0  0  0  0  0  0  0  0  0  0  0  0
   12.7994   -6.1175   -2.7869 C   0  0  0  0  0  0  0  0  0  0  0  0
   10.8756   -4.8424   -2.3744 O   0  0  0  0  0  0  0  0  0  0  0  0
    9.1375   -4.0718   -1.3171 C   0  0  0  0  0  0  0  0  0  0  0  0
   10.0580   -3.2360   -0.6268 C   0  0  0  0  0  0  0  0  0  0  0  0
   10.5570   -4.7790   -0.3168 O   0  0  0  0  0  0  0  0  0  0  0  0
   11.8205   -3.9831   -0.7813 C   0  0  0  0  0  0  0  0  0  0  0  0
   12.7966   -4.8091   -1.3422 C   0  0  0  0  0  0  0  0  0  0  0  0
   14.1340   -4.4684   -1.3000 O   0  0  0  0  0  0  0  0  0  0  0  0
   14.6203   -5.8146   -1.1794 O   0  0  0  0  0  0  0  0  0  0  0  0
   15.9601   -6.0462   -1.2016 C   0  0  0  0  0  0  0  0  0  0  0  0
   16.5523   -7.3397   -1.1299 C   0  0  0  0  0  0  0  0  0  0  0  0
   17.9499   -7.3115   -1.5824 C   0  0  0  0  0  0  0  0  0  0  0  0
   18.6786   -8.4482   -1.7452 C   0  0  0  0  0  0  0  0  0  0  0  0
   20.0596   -8.2898   -2.0791 C   0  0  0  0  0  0  0  0  0  0  0  0
   20.7472   -9.4406   -2.2650 C   0  0  0  0  0  0  0  0  0  0  0  0
   22.2130   -9.3720   -2.2687 C   0  0  0  0  0  0  0  0  0  0  0  0
   22.9966  -10.4394   -2.5275 C   0  0  0  0  0  0  0  0  0  0  0  0
   23.9234  -11.4965   -2.0489 C   0  0  0  0  0  0  0  0  0  0  0  0
   23.9991  -12.9600   -2.3547 C   0  0  0  0  0  0  0  0  0  0  0  0
   25.4390  -12.5074   -2.0541 C   0  0  0  0  0  0  0  0  0  0  0  0
   25.9817  -13.6989   -2.3063 C   0  0  0  0  0  0  0  0  0  0  0  0
   27.2579  -12.4623   -2.1994 C   0  0  0  0  0  0  0  0  0  0  0  0
   28.1272  -13.3342   -2.4824 C   0  0  0  0  0  0  0  0  0  0  0  0
   27.8312  -12.1756   -3.7912 C   0  0  0  0  0  0  0  0  0  0  0  0
   26.1868  -11.6672   -4.6426 C   0  0  0  0  0  0  0  0  0  0  0  0
   24.0143  -11.0351   -4.8277 C   0  0  0  0  0  0  0  0  0  0  0  0
   25.9914  -11.6583   -5.3532 C   0  0  0  0  0  0  0  0  0  0  0  0
   28.1471  -12.6514   -5.5998 C   0  0  0  0  0  0  0  0  0  0  0  0
   29.7764  -13.6690   -5.5423 C   0  0  0  0  0  0  0  0  0  0  0  0
   29.4406  -14.5973   -4.2863 C   0  0  0  0  0  0  0  0  0  0  0  0
   27.4951  -14.3489   -4.3145 C   0  0  0  0  0  0  0  0  0  0  0  0
   25.1929  -13.2371   -4.4308 C   0  0  0  0  0  0  0  0  0  0  0  0
   23.6084  -11.8725   -4.3665 C   0  0  0  0  0  0  0  0  0  0  0  0
   21.6542  -10.4618   -4.2945 C   0  0  0  0  0  0  0  0  0  0  0  0
   15.5092   -8.8314   -3.2185 H   0  0  0  0  0  0  0  0  0  0  0  0
   15.7005   -8.8757   -2.7167 H   0  0  0  0  0  0  0  0  0  0  0  0
   15.5902   -8.5653   -3.9864 H   0  0  0  0  0  0  0  0  0  0  0  0
   15.9613   -7.2388   -2.8022 H   0  0  0  0  0  0  0  0  0  0  0  0
   13.5938   -6.7919   -2.5204 H   0  0  0  0  0  0  0  0  0  0  0  0
   10.9968   -5.6869   -2.5797 H   0  0  0  0  0  0  0  0  0  0  0  0
   11.0931   -5.9022   -2.1160 H   0  0  0  0  0  0  0  0  0  0  0  0
    8.1999   -3.3337   -1.8067 H   0  0  0  0  0  0  0  0  0  0  0  0
    8.1125   -4.1964   -0.1259 H   0  0  0  0  0  0  0  0  0  0  0  0
    9.7777   -2.9212    0.3255 H   0  0  0  0  0  0  0  0  0  0  0  0
   10.0959   -2.4933   -1.7273 H   0  0  0  0  0  0  0  0  0  0  0  0
   11.8302   -3.6825    0.2062 H   0  0  0  0  0  0  0  0  0  0  0  0
   11.6954   -3.2847   -1.7758 H   0  0  0  0  0  0  0  0  0  0  0  0
   12.6731   -4.4894   -2.6771 H   0  0  0  0  0  0  0  0  0  0  0  0
   12.2838   -5.9266   -0.7010 H   0  0  0  0  0  0  0  0  0  0  0  0
   16.2755   -5.0511   -1.4992 H   0  0  0  0  0  0  0  0  0  0  0  0
   16.0446   -8.5116   -1.3411 H   0  0  0  0  0  0  0  0  0  0  0  0
   18.2646   -6.2954   -1.8604 H   0  0  0  0  0  0  0  0  0  0  0  0
   18.2977   -9.5925   -1.9467 H   0  0  0  0  0  0  0  0  0  0  0  0
   20.5017   -7.3137   -2.1324 H   0  0  0  0  0  0  0  0  0  0  0  0
   20.1263  -10.4603   -2.6855 H   0  0  0  0  0  0  0  0  0  0  0  0
   22.6383   -8.3795   -2.4657 H   0  0  0  0  0  0  0  0  0  0  0  0
   22.4558  -11.3991   -2.9461 H   0  0  0  0  0  0  0  0  0  0  0  0
   24.7511  -10.6666   -2.6327 H   0  0  0  0  0  0  0  0  0  0  0  0
   23.4143  -13.4642   -3.4840 H   0  0  0  0  0  0  0  0  0  0  0  0
   26.0663  -11.2812   -2.6456 H   0  0  0  0  0  0  0  0  0  0  0  0
   25.8212  -14.7142   -3.4156 H   0  0  0  0  0  0  0  0  0  0  0  0
   28.0563  -11.2643   -2.5914 H   0  0  0  0  0  0  0  0  0  0  0  0
   27.5359  -14.4664   -2.5724 H   0  0  0  0  0  0  0  0  0  0  0  0
   29.2881  -12.7074   -3.7086 H   0  0  0  0  0  0  0  0  0  0  0  0
   26.4914  -13.1792   -5.3743 H   0  0  0  0  0  0  0  0  0  0  0  0
   27.5080  -12.5056   -5.6305 H   0  0  0  0  0  0  0  0  0  0  0  0
   29.7407  -12.9549   -5.1960 H   0  0  0  0  0  0  0  0  0  0  0  0
   31.0030  -14.7857   -5.5163 H   0  0  0  0  0  0  0  0  0  0  0  0
   31.0290  -15.1278   -4.0489 H   0  0  0  0  0  0  0  0  0  0  0  0
   28.9156  -15.0290   -3.8491 H   0  0  0  0  0  0  0  0  0  0  0  0
   26.9229  -13.7300   -4.1421 H   0  0  0  0  0  0  0  0  0  0  0  0
   24.9795  -12.1477   -3.7426 H   0  0  0  0  0  0  0  0  0  0  0  0
  1  2  1  0  0  0  0
  1 39  1  0  0  0  0
  1 40  1  0  0  0  0
  1 41  1  0  0  0  0
  2  3  1  0  0  0  0
  2 38  2  3  0  0  0
  3  4  2  3  0  0  0
  3 42  1  0  0  0  0
  4  5  1  0  0  0  0
  4 43  1  0  0  0  0
  5  6  1  0  0  0  0
  5 44  1  0  0  0  0
  5 45  1  0  0  0  0
  6  7  1  0  0  0  0
  7  8  1  0  0  0  0
  7 46  1  0  0  0  0
  7 47  1  0  0  0  0
  8  9  1  0  0  0  0
  8 48  1  0  0  0  0
  8 49  1  0  0  0  0
  9 10  1  0  0  0  0
 10 11  1  0  0  0  0
 10 50  1  0  0  0  0
 10 51  1  0  0  0  0
 11 12  1  0  0  0  0
 11 52  1  0  0  0  0
 11 53  1  0  0  0  0
 12 13  1  0  0  0  0
 13 14  1  0  0  0  0
 14 15  2  3  0  0  0
 14 54  1  0  0  0  0
 15 16  1  0  0  0  0
 15 55  1  0  0  0  0
 16 17  2  3  0  0  0
 16 56  1  0  0  0  0
 17 18  1  0  0  0  0
 17 57  1  0  0  0  0
 18 19  2  3  0  0  0
 18 58  1  0  0  0  0
 19 20  1  0  0  0  0
 19 59  1  0  0  0  0
 20 21  2  3  0  0  0
 20 60  1  0  0  0  0
 21 22  1  0  0  0  0
 21 61  1  0  0  0  0
 22 23  2  3  0  0  0
 22 62  1  0  0  0  0
 23 24  1  0  0  0  0
 23 63  1  0  0  0  0
 24 25  2  3  0  0  0
 24 64  1  0  0  0  0
 25 26  1  0  0  0  0
 25 65  1  0  0  0  0
 26 27  2  3  0  0  0
 26 66  1  0  0  0  0
 27 28  1  0  0  0  0
 27 67  1  0  0  0  0
 28 29  2  3  0  0  0
 28 68  1  0  0  0  0
 29 30  1  0  0  0  0
 29 69  1  0  0  0  0
 30 31  2  3  0  0  0
 30 38  1  0  0  0  0
 31 32  1  0  0  0  0
 31 70  1  0  0  0  0
 32 33  2  3  0  0  0
 32 71  1  0  0  0  0
 33 34  1  0  0  0  0
 33 72  1  0  0  0  0
 34 35  2  3  0  0  0
 34 73  1  0  0  0  0
 35 36  1  0  0  0  0
 35 74  1  0  0  0  0
 36 37  2  3  0  0  0
 36 75  1  0  0  0  0
 37 38  1  0  0  0  0
 37 76  1  0  0  0  0
M  END
$$$$
