
 OpenBabel04232216553D

 48 49  0  0  0  0  0  0  0  0999 V2000
    4.3185    1.6127   -4.2237 C   0  0  0  0  0  0  0  0  0  0  0  0
    4.5666    0.2862   -3.5287 C   0  0  0  0  0  0  0  0  0  0  0  0
    5.9514   -0.1997   -3.1249 N   0  0  0  0  0  0  0  0  0  0  0  0
    5.9282   -0.8534   -1.8624 C   0  0  0  0  0  0  0  0  0  0  0  0
    5.5692   -0.0587   -0.5890 C   0  0  0  0  0  0  0  0  0  0  0  0
    6.6367    0.7344    0.1785 C   0  0  0  0  0  0  0  0  0  0  0  0
    6.0309    1.1367    1.5331 C   0  0  0  0  0  0  0  0  0  0  0  0
    6.9348    1.9998    2.4036 C   0  0  0  0  0  0  0  0  0  0  0  0
    8.0925    2.2833    2.1150 O   0  0  0  0  0  0  0  0  0  0  0  0
    6.3407    2.3618    3.5483 O   0  0  0  0  0  0  0  0  0  0  0  0
    5.5912   -2.1713   -1.7680 C   0  0  0  0  0  0  0  0  0  0  0  0
    4.5038   -2.7233   -2.7057 C   0  0  0  0  0  0  0  0  0  0  0  0
    6.5453   -3.0789   -1.2095 N   0  0  0  0  0  0  0  0  0  0  0  0
    7.6077   -2.4911   -0.3564 C   0  0  0  0  0  0  0  0  0  0  0  0
    7.0264   -4.0424   -2.1509 C   0  0  0  0  0  0  0  0  0  0  0  0
    7.8977   -3.6076   -3.0971 C   0  0  0  0  0  0  0  0  0  0  0  0
    9.3560   -3.3729   -2.8286 C   0  0  0  0  0  0  0  0  0  0  0  0
    7.4314   -3.3616   -4.3673 N   0  0  0  0  0  0  0  0  0  0  0  0
    7.2084   -2.1092   -4.7050 C   0  0  0  0  0  0  0  0  0  0  0  0
    7.9827   -1.8577   -5.9654 C   0  0  0  0  0  0  0  0  0  0  0  0
    8.7070   -0.7899   -5.5725 C   0  0  0  0  0  0  0  0  0  0  0  0
    8.0419   -0.0792   -4.5132 C   0  0  0  0  0  0  0  0  0  0  0  0
    6.9233   -0.6961   -4.0831 C   0  0  0  0  0  0  0  0  0  0  0  0
    4.4890    1.5745   -5.3032 H   0  0  0  0  0  0  0  0  0  0  0  0
    4.8370    2.4684   -3.7827 H   0  0  0  0  0  0  0  0  0  0  0  0
    3.2389    1.8311   -4.1089 H   0  0  0  0  0  0  0  0  0  0  0  0
    3.9951    0.4214   -2.6047 H   0  0  0  0  0  0  0  0  0  0  0  0
    4.0312   -0.4933   -4.0716 H   0  0  0  0  0  0  0  0  0  0  0  0
    5.1229   -0.7627    0.1197 H   0  0  0  0  0  0  0  0  0  0  0  0
    4.7552    0.6508   -0.8003 H   0  0  0  0  0  0  0  0  0  0  0  0
    6.9301    1.6277   -0.3843 H   0  0  0  0  0  0  0  0  0  0  0  0
    7.5506    0.1551    0.3413 H   0  0  0  0  0  0  0  0  0  0  0  0
    5.7877    0.2314    2.1125 H   0  0  0  0  0  0  0  0  0  0  0  0
    5.1090    1.7057    1.3692 H   0  0  0  0  0  0  0  0  0  0  0  0
    5.4228    2.0476    3.6442 H   0  0  0  0  0  0  0  0  0  0  0  0
    3.5421   -2.2650   -2.4479 H   0  0  0  0  0  0  0  0  0  0  0  0
    4.3387   -3.7985   -2.6144 H   0  0  0  0  0  0  0  0  0  0  0  0
    4.7005   -2.5221   -3.7632 H   0  0  0  0  0  0  0  0  0  0  0  0
    7.1701   -2.0118    0.5193 H   0  0  0  0  0  0  0  0  0  0  0  0
    8.1982   -1.7510   -0.9132 H   0  0  0  0  0  0  0  0  0  0  0  0
    8.2927   -3.2615    0.0113 H   0  0  0  0  0  0  0  0  0  0  0  0
    6.1640   -4.5460   -2.5503 H   0  0  0  0  0  0  0  0  0  0  0  0
    9.6043   -3.3548   -1.7677 H   0  0  0  0  0  0  0  0  0  0  0  0
    9.7152   -2.4348   -3.2613 H   0  0  0  0  0  0  0  0  0  0  0  0
    9.9453   -4.1894   -3.2598 H   0  0  0  0  0  0  0  0  0  0  0  0
    8.3035   -2.6197   -6.6566 H   0  0  0  0  0  0  0  0  0  0  0  0
    9.6764   -0.5529   -5.9596 H   0  0  0  0  0  0  0  0  0  0  0  0
    8.3982    0.8730   -4.1616 H   0  0  0  0  0  0  0  0  0  0  0  0
  1  2  1  0  0  0  0
  1 24  1  0  0  0  0
  1 25  1  0  0  0  0
  1 26  1  0  0  0  0
  2  3  1  0  0  0  0
  2 27  1  0  0  0  0
  2 28  1  0  0  0  0
  3  4  1  0  0  0  0
  3 23  1  0  0  0  0
  4  5  1  0  0  0  0
  4 11  2  0  0  0  0
  5  6  1  0  0  0  0
  5 29  1  0  0  0  0
  5 30  1  0  0  0  0
  6  7  1  0  0  0  0
  6 31  1  0  0  0  0
  6 32  1  0  0  0  0
  7  8  1  0  0  0  0
  7 33  1  0  0  0  0
  7 34  1  0  0  0  0
  8  9  2  0  0  0  0
  8 10  1  0  0  0  0
 10 35  1  0  0  0  0
 11 12  1  0  0  0  0
 11 13  1  0  0  0  0
 12 36  1  0  0  0  0
 12 37  1  0  0  0  0
 12 38  1  0  0  0  0
 13 14  1  0  0  0  0
 13 15  1  0  0  0  0
 14 39  1  0  0  0  0
 14 40  1  0  0  0  0
 14 41  1  0  0  0  0
 15 16  2  0  0  0  0
 15 42  1  0  0  0  0
 16 17  1  0  0  0  0
 16 18  1  0  0  0  0
 17 43  1  0  0  0  0
 17 44  1  0  0  0  0
 17 45  1  0  0  0  0
 18 19  2  0  0  0  0
 19 20  1  0  0  0  0
 19 23  1  0  0  0  0
 20 21  2  0  0  0  0
 20 46  1  0  0  0  0
 21 22  1  0  0  0  0
 21 47  1  0  0  0  0
 22 23  2  0  0  0  0
 22 48  1  0  0  0  0
M  END
$$$$
