
 OpenBabel04232216533D

215214  0  0  0  0  0  0  0  0999 V2000
    0.8642   -0.1387    0.0614 C   0  0  0  0  0  0  0  0  0  0  0  0
    2.3795   -0.1317    0.0623 C   0  0  0  0  0  0  0  0  0  0  0  0
    2.9047    1.1646    0.6594 C   0  0  0  0  0  0  0  0  0  0  0  0
    4.4218    1.1692    0.6572 C   0  0  0  0  0  0  0  0  0  0  0  0
    4.9305    2.4653    1.2540 C   0  0  0  0  0  0  0  0  0  0  0  0
    6.4438    2.4651    1.2492 C   0  0  0  0  0  0  0  0  0  0  0  0
    6.9295    3.7613    1.8446 C   0  0  0  0  0  0  0  0  0  0  0  0
    8.4240    3.7760    1.8452 C   0  0  0  0  0  0  0  0  0  0  0  0
    8.7811    5.0131    2.4147 O   0  0  0  0  0  0  0  0  0  0  0  0
   10.2003    4.9834    2.3917 O   0  0  0  0  0  0  0  0  0  0  0  0
   10.7130    6.1870    2.9399 O   0  0  0  0  0  0  0  0  0  0  0  0
   12.1315    6.1089    2.8984 O   0  0  0  0  0  0  0  0  0  0  0  0
   12.5633    7.3210    3.4477 C   0  0  0  0  0  0  0  0  0  0  0  0
   13.9590    7.2661    3.4156 O   0  0  0  0  0  0  0  0  0  0  0  0
   14.3742    8.5024    3.9838 O   0  0  0  0  0  0  0  0  0  0  0  0
   15.7912    8.5170    3.9841 O   0  0  0  0  0  0  0  0  0  0  0  0
   16.2557    9.7345    4.5386 O   0  0  0  0  0  0  0  0  0  0  0  0
   17.6794    9.7078    4.5228 O   0  0  0  0  0  0  0  0  0  0  0  0
   18.0435   10.9379    5.0882 C   0  0  0  0  0  0  0  0  0  0  0  0
   19.5413   10.9307    5.0782 C   0  0  0  0  0  0  0  0  0  0  0  0
   20.0379   12.2174    5.6703 C   0  0  0  0  0  0  0  0  0  0  0  0
   21.5474   12.2051    5.6598 C   0  0  0  0  0  0  0  0  0  0  0  0
   22.0451   13.4994    6.2529 C   0  0  0  0  0  0  0  0  0  0  0  0
   23.5556   13.4985    6.2487 C   0  0  0  0  0  0  0  0  0  0  0  0
   24.0558   14.7973    6.8420 C   0  0  0  0  0  0  0  0  0  0  0  0
   25.5693   14.7973    6.8426 C   0  0  0  0  0  0  0  0  0  0  0  0
   26.0777   16.0929    7.4396 C   0  0  0  0  0  0  0  0  0  0  0  0
   27.5917   16.0913    7.4410 C   0  0  0  0  0  0  0  0  0  0  0  0
   28.1021   17.3894    8.0352 C   0  0  0  0  0  0  0  0  0  0  0  0
   29.6179   17.3920    8.0370 C   0  0  0  0  0  0  0  0  0  0  0  0
   30.1267   18.6917    8.6310 C   0  0  0  0  0  0  0  0  0  0  0  0
   31.6424   18.6959    8.6315 C   0  0  0  0  0  0  0  0  0  0  0  0
   32.1508   19.9930    9.2263 C   0  0  0  0  0  0  0  0  0  0  0  0
   33.6689   19.9961    9.2262 C   0  0  0  0  0  0  0  0  0  0  0  0
   34.1821   21.2942    9.8197 C   0  0  0  0  0  0  0  0  0  0  0  0
   35.6947   21.2991    9.8237 C   0  0  0  0  0  0  0  0  0  0  0  0
   36.2078   22.5967   10.4209 C   0  0  0  0  0  0  0  0  0  0  0  0
   37.7217   22.6013   10.4246 C   0  0  0  0  0  0  0  0  0  0  0  0
   38.2316   23.8984   11.0234 C   0  0  0  0  0  0  0  0  0  0  0  0
   39.7481   23.9026   11.0259 C   0  0  0  0  0  0  0  0  0  0  0  0
   40.2581   25.1999   11.6229 C   0  0  0  0  0  0  0  0  0  0  0  0
   41.7747   25.2043   11.6240 C   0  0  0  0  0  0  0  0  0  0  0  0
   42.2847   26.5014   12.2220 C   0  0  0  0  0  0  0  0  0  0  0  0
   43.8014   26.5066   12.2221 C   0  0  0  0  0  0  0  0  0  0  0  0
   44.3114   27.8036   12.8203 C   0  0  0  0  0  0  0  0  0  0  0  0
   45.8281   27.8084   12.8212 C   0  0  0  0  0  0  0  0  0  0  0  0
   46.3382   29.1059   13.4182 C   0  0  0  0  0  0  0  0  0  0  0  0
   47.8548   29.1103   13.4198 C   0  0  0  0  0  0  0  0  0  0  0  0
   48.3647   30.4081   14.0164 C   0  0  0  0  0  0  0  0  0  0  0  0
   49.8814   30.4115   14.0204 C   0  0  0  0  0  0  0  0  0  0  0  0
   50.3913   31.7093   14.6170 C   0  0  0  0  0  0  0  0  0  0  0  0
   51.9079   31.7137   14.6186 C   0  0  0  0  0  0  0  0  0  0  0  0
   52.4179   33.0105   15.2174 C   0  0  0  0  0  0  0  0  0  0  0  0
   53.9346   33.0144   15.2204 C   0  0  0  0  0  0  0  0  0  0  0  0
   54.4446   34.3118   15.8177 C   0  0  0  0  0  0  0  0  0  0  0  0
   55.9613   34.3164   15.8194 C   0  0  0  0  0  0  0  0  0  0  0  0
   56.4713   35.6132   16.4183 C   0  0  0  0  0  0  0  0  0  0  0  0
   57.9880   35.6171   16.4214 C   0  0  0  0  0  0  0  0  0  0  0  0
   58.4983   36.9137   17.0204 C   0  0  0  0  0  0  0  0  0  0  0  0
   60.0150   36.9182   17.0216 C   0  0  0  0  0  0  0  0  0  0  0  0
   60.5256   38.2148   17.6206 C   0  0  0  0  0  0  0  0  0  0  0  0
   62.0424   38.2192   17.6219 C   0  0  0  0  0  0  0  0  0  0  0  0
   62.5524   39.5160   18.2209 C   0  0  0  0  0  0  0  0  0  0  0  0
   64.0692   39.5219   18.2231 C   0  0  0  0  0  0  0  0  0  0  0  0
   64.5767   40.8199   18.8223 C   0  0  0  0  0  0  0  0  0  0  0  0
   66.0929   40.8288   18.8263 C   0  0  0  0  0  0  0  0  0  0  0  0
   66.6010   42.1274   19.4263 C   0  0  0  0  0  0  0  0  0  0  0  0
   68.1166   42.1283   19.4247 C   0  0  0  0  0  0  0  0  0  0  0  0
   68.6514   43.4191   20.0135 C   0  0  0  0  0  0  0  0  0  0  0  0
   70.1639   43.3891   19.9846 C   0  0  0  0  0  0  0  0  0  0  0  0
   70.6395   44.6162   20.5074 O   0  0  0  0  0  0  0  0  0  0  0  0
   72.0589   44.6128   20.5762 C   0  0  0  0  0  0  0  0  0  0  0  0
   72.5605   45.8002   21.1664 O   0  0  0  0  0  0  0  0  0  0  0  0
   72.0861   45.9772   22.4986 C   0  0  0  0  0  0  0  0  0  0  0  0
   72.5677   47.2008   23.0492 O   0  0  0  0  0  0  0  0  0  0  0  0
   72.0860   48.3058   22.2879 C   0  0  0  0  0  0  0  0  0  0  0  0
   72.5595   49.5352   22.8337 O   0  0  0  0  0  0  0  0  0  0  0  0
   72.0422   50.6468   22.1055 C   0  0  0  0  0  0  0  0  0  0  0  0
   70.6174   50.7206   22.0941 O   0  0  0  0  0  0  0  0  0  0  0  0
   70.0712   50.8062   23.4052 C   0  0  0  0  0  0  0  0  0  0  0  0
   68.6498   50.7882   23.3509 O   0  0  0  0  0  0  0  0  0  0  0  0
    0.4917   -1.0719   -0.3684 H   0  0  0  0  0  0  0  0  0  0  0  0
    0.4736    0.6953   -0.5304 H   0  0  0  0  0  0  0  0  0  0  0  0
    0.4760   -0.0476    1.0808 H   0  0  0  0  0  0  0  0  0  0  0  0
    2.7501   -0.2456   -0.9631 H   0  0  0  0  0  0  0  0  0  0  0  0
    2.7526   -0.9851    0.6405 H   0  0  0  0  0  0  0  0  0  0  0  0
    2.5376    1.2818    1.6866 H   0  0  0  0  0  0  0  0  0  0  0  0
    2.5331    2.0217    0.0839 H   0  0  0  0  0  0  0  0  0  0  0  0
    4.8001    1.0607   -0.3671 H   0  0  0  0  0  0  0  0  0  0  0  0
    4.8047    0.3201    1.2372 H   0  0  0  0  0  0  0  0  0  0  0  0
    4.5610    2.5808    2.2808 H   0  0  0  0  0  0  0  0  0  0  0  0
    4.5562    3.3208    0.6777 H   0  0  0  0  0  0  0  0  0  0  0  0
    6.8211    2.3568    0.2257 H   0  0  0  0  0  0  0  0  0  0  0  0
    6.8259    1.6180    1.8312 H   0  0  0  0  0  0  0  0  0  0  0  0
    6.5586    3.8889    2.8697 H   0  0  0  0  0  0  0  0  0  0  0  0
    6.5522    4.6222    1.2778 H   0  0  0  0  0  0  0  0  0  0  0  0
    8.8292    3.7067    0.8276 H   0  0  0  0  0  0  0  0  0  0  0  0
    8.8362    2.9582    2.4500 H   0  0  0  0  0  0  0  0  0  0  0  0
   12.2095    7.4166    4.4808 H   0  0  0  0  0  0  0  0  0  0  0  0
   12.2019    8.1616    2.8441 H   0  0  0  0  0  0  0  0  0  0  0  0
   17.6491   11.0110    6.1081 H   0  0  0  0  0  0  0  0  0  0  0  0
   17.6422   11.7596    4.4840 H   0  0  0  0  0  0  0  0  0  0  0  0
   19.9060   10.7983    4.0504 H   0  0  0  0  0  0  0  0  0  0  0  0
   19.9130   10.0636    5.6414 H   0  0  0  0  0  0  0  0  0  0  0  0
   19.6645   12.3283    6.6959 H   0  0  0  0  0  0  0  0  0  0  0  0
   19.6593   13.0686    5.0909 H   0  0  0  0  0  0  0  0  0  0  0  0
   21.9149   12.0879    4.6327 H   0  0  0  0  0  0  0  0  0  0  0  0
   21.9198   11.3501    6.2379 H   0  0  0  0  0  0  0  0  0  0  0  0
   21.6687   13.6114    7.2774 H   0  0  0  0  0  0  0  0  0  0  0  0
   21.6648   14.3487    5.6717 H   0  0  0  0  0  0  0  0  0  0  0  0
   23.9285   13.3819    5.2233 H   0  0  0  0  0  0  0  0  0  0  0  0
   23.9317   12.6473    6.8302 H   0  0  0  0  0  0  0  0  0  0  0  0
   23.6778   14.9110    7.8652 H   0  0  0  0  0  0  0  0  0  0  0  0
   23.6773   15.6462    6.2593 H   0  0  0  0  0  0  0  0  0  0  0  0
   25.9436   14.6813    5.8176 H   0  0  0  0  0  0  0  0  0  0  0  0
   25.9415   13.9440    7.4230 H   0  0  0  0  0  0  0  0  0  0  0  0
   25.7000   16.2059    8.4633 H   0  0  0  0  0  0  0  0  0  0  0  0
   25.7018   16.9442    6.8588 H   0  0  0  0  0  0  0  0  0  0  0  0
   27.9674   15.9747    6.4169 H   0  0  0  0  0  0  0  0  0  0  0  0
   27.9654   15.2395    8.0229 H   0  0  0  0  0  0  0  0  0  0  0  0
   27.7258   17.5045    9.0597 H   0  0  0  0  0  0  0  0  0  0  0  0
   27.7271   18.2398    7.4534 H   0  0  0  0  0  0  0  0  0  0  0  0
   29.9927   17.2773    7.0124 H   0  0  0  0  0  0  0  0  0  0  0  0
   29.9938   16.5401    8.6172 H   0  0  0  0  0  0  0  0  0  0  0  0
   29.7507   18.8048    9.6568 H   0  0  0  0  0  0  0  0  0  0  0  0
   29.7495   19.5404    8.0511 H   0  0  0  0  0  0  0  0  0  0  0  0
   32.0157   18.5818    7.6060 H   0  0  0  0  0  0  0  0  0  0  0  0
   32.0196   17.8439    9.2108 H   0  0  0  0  0  0  0  0  0  0  0  0
   31.7782   20.1076   10.2522 H   0  0  0  0  0  0  0  0  0  0  0  0
   31.7764   20.8447    8.6468 H   0  0  0  0  0  0  0  0  0  0  0  0
   34.0436   19.8808    8.2012 H   0  0  0  0  0  0  0  0  0  0  0  0
   34.0443   19.1446    9.8071 H   0  0  0  0  0  0  0  0  0  0  0  0
   33.8036   21.4086   10.8446 H   0  0  0  0  0  0  0  0  0  0  0  0
   33.8036   22.1454    9.2411 H   0  0  0  0  0  0  0  0  0  0  0  0
   36.0727   21.1845    8.7989 H   0  0  0  0  0  0  0  0  0  0  0  0
   36.0719   20.4470   10.4034 H   0  0  0  0  0  0  0  0  0  0  0  0
   35.8284   22.7111   11.4450 H   0  0  0  0  0  0  0  0  0  0  0  0
   35.8301   23.4498    9.8408 H   0  0  0  0  0  0  0  0  0  0  0  0
   38.0991   22.4883    9.4007 H   0  0  0  0  0  0  0  0  0  0  0  0
   38.0969   21.7487   11.0047 H   0  0  0  0  0  0  0  0  0  0  0  0
   37.8553   24.0104   12.0481 H   0  0  0  0  0  0  0  0  0  0  0  0
   37.8558   24.7501   10.4447 H   0  0  0  0  0  0  0  0  0  0  0  0
   40.1238   23.7886   10.0015 H   0  0  0  0  0  0  0  0  0  0  0  0
   40.1235   23.0505   11.6056 H   0  0  0  0  0  0  0  0  0  0  0  0
   39.8827   25.3131   12.6474 H   0  0  0  0  0  0  0  0  0  0  0  0
   39.8818   26.0517   11.0432 H   0  0  0  0  0  0  0  0  0  0  0  0
   42.1498   25.0917   10.5993 H   0  0  0  0  0  0  0  0  0  0  0  0
   42.1511   24.3520   12.2030 H   0  0  0  0  0  0  0  0  0  0  0  0
   41.9102   26.6135   13.2469 H   0  0  0  0  0  0  0  0  0  0  0  0
   41.9077   27.3539   11.6435 H   0  0  0  0  0  0  0  0  0  0  0  0
   44.1759   26.3947   11.1971 H   0  0  0  0  0  0  0  0  0  0  0  0
   44.1784   25.6541   12.8004 H   0  0  0  0  0  0  0  0  0  0  0  0
   43.9364   27.9160   13.8451 H   0  0  0  0  0  0  0  0  0  0  0  0
   43.9349   28.6561   12.2416 H   0  0  0  0  0  0  0  0  0  0  0  0
   46.2032   27.6950   11.7966 H   0  0  0  0  0  0  0  0  0  0  0  0
   46.2045   26.9565   13.4009 H   0  0  0  0  0  0  0  0  0  0  0  0
   45.9627   29.2196   14.4426 H   0  0  0  0  0  0  0  0  0  0  0  0
   45.9622   29.9578   12.8383 H   0  0  0  0  0  0  0  0  0  0  0  0
   48.2305   28.9963   12.3955 H   0  0  0  0  0  0  0  0  0  0  0  0
   48.2307   28.2586   14.0001 H   0  0  0  0  0  0  0  0  0  0  0  0
   47.9877   30.5230   15.0401 H   0  0  0  0  0  0  0  0  0  0  0  0
   47.9902   31.2596   13.4350 H   0  0  0  0  0  0  0  0  0  0  0  0
   50.2585   30.2964   12.9967 H   0  0  0  0  0  0  0  0  0  0  0  0
   50.2558   29.5600   14.6019 H   0  0  0  0  0  0  0  0  0  0  0  0
   50.0156   31.8231   15.6413 H   0  0  0  0  0  0  0  0  0  0  0  0
   50.0153   32.5610   14.0368 H   0  0  0  0  0  0  0  0  0  0  0  0
   52.2834   31.6016   13.5940 H   0  0  0  0  0  0  0  0  0  0  0  0
   52.2840   30.8610   15.1973 H   0  0  0  0  0  0  0  0  0  0  0  0
   52.0415   33.1233   16.2416 H   0  0  0  0  0  0  0  0  0  0  0  0
   52.0426   33.8631   14.6380 H   0  0  0  0  0  0  0  0  0  0  0  0
   54.3110   32.9005   14.1964 H   0  0  0  0  0  0  0  0  0  0  0  0
   54.3096   32.1624   15.8008 H   0  0  0  0  0  0  0  0  0  0  0  0
   54.0690   34.4250   16.8422 H   0  0  0  0  0  0  0  0  0  0  0  0
   54.0686   35.1639   15.2381 H   0  0  0  0  0  0  0  0  0  0  0  0
   56.3368   34.2044   14.7947 H   0  0  0  0  0  0  0  0  0  0  0  0
   56.3373   33.4637   16.3979 H   0  0  0  0  0  0  0  0  0  0  0  0
   56.0949   35.7258   17.4425 H   0  0  0  0  0  0  0  0  0  0  0  0
   56.0962   36.4658   15.8390 H   0  0  0  0  0  0  0  0  0  0  0  0
   58.3644   35.5044   15.3971 H   0  0  0  0  0  0  0  0  0  0  0  0
   58.3632   34.7644   17.0007 H   0  0  0  0  0  0  0  0  0  0  0  0
   58.1229   37.0256   18.0451 H   0  0  0  0  0  0  0  0  0  0  0  0
   58.1222   37.7666   16.4419 H   0  0  0  0  0  0  0  0  0  0  0  0
   60.3903   36.8064   15.9969 H   0  0  0  0  0  0  0  0  0  0  0  0
   60.3912   36.0653   17.6000 H   0  0  0  0  0  0  0  0  0  0  0  0
   60.1502   38.3267   18.6453 H   0  0  0  0  0  0  0  0  0  0  0  0
   60.1495   39.0676   17.0422 H   0  0  0  0  0  0  0  0  0  0  0  0
   62.4177   38.1073   16.5973 H   0  0  0  0  0  0  0  0  0  0  0  0
   62.4185   37.3665   18.2005 H   0  0  0  0  0  0  0  0  0  0  0  0
   62.1767   39.6279   19.2454 H   0  0  0  0  0  0  0  0  0  0  0  0
   62.1761   40.3686   17.6422 H   0  0  0  0  0  0  0  0  0  0  0  0
   64.4454   39.4099   17.1987 H   0  0  0  0  0  0  0  0  0  0  0  0
   64.4459   38.6696   18.8020 H   0  0  0  0  0  0  0  0  0  0  0  0
   64.2000   40.9312   19.8465 H   0  0  0  0  0  0  0  0  0  0  0  0
   64.1998   41.6716   18.2429 H   0  0  0  0  0  0  0  0  0  0  0  0
   66.4698   40.7170   17.8019 H   0  0  0  0  0  0  0  0  0  0  0  0
   66.4704   39.9761   19.4044 H   0  0  0  0  0  0  0  0  0  0  0  0
   66.2268   42.2387   20.4512 H   0  0  0  0  0  0  0  0  0  0  0  0
   66.2252   42.9796   18.8471 H   0  0  0  0  0  0  0  0  0  0  0  0
   68.4863   42.0094   18.3985 H   0  0  0  0  0  0  0  0  0  0  0  0
   68.4897   41.2736   20.0028 H   0  0  0  0  0  0  0  0  0  0  0  0
   68.2979   43.5519   21.0444 H   0  0  0  0  0  0  0  0  0  0  0  0
   68.2817   44.2867   19.4529 H   0  0  0  0  0  0  0  0  0  0  0  0
   70.5244   43.2709   18.9564 H   0  0  0  0  0  0  0  0  0  0  0  0
   70.5335   42.5550   20.5929 H   0  0  0  0  0  0  0  0  0  0  0  0
   72.4614   44.5581   19.5596 H   0  0  0  0  0  0  0  0  0  0  0  0
   72.4201   43.7510   21.1485 H   0  0  0  0  0  0  0  0  0  0  0  0
   72.4491   45.1579   23.1266 H   0  0  0  0  0  0  0  0  0  0  0  0
   70.9887   45.9794   22.5324 H   0  0  0  0  0  0  0  0  0  0  0  0
   70.9912   48.2849   22.3006 H   0  0  0  0  0  0  0  0  0  0  0  0
   72.4391   48.2279   21.2533 H   0  0  0  0  0  0  0  0  0  0  0  0
   72.3916   50.5952   21.0691 H   0  0  0  0  0  0  0  0  0  0  0  0
   72.4505   51.5661   22.5450 H   0  0  0  0  0  0  0  0  0  0  0  0
   70.4110   51.7180   23.9037 H   0  0  0  0  0  0  0  0  0  0  0  0
   70.3788   49.9387   24.0017 H   0  0  0  0  0  0  0  0  0  0  0  0
   68.3813   51.6522   23.0040 H   0  0  0  0  0  0  0  0  0  0  0  0
  1  2  1  0  0  0  0
  1 82  1  0  0  0  0
  1 83  1  0  0  0  0
  1 84  1  0  0  0  0
  2  3  1  0  0  0  0
  2 85  1  0  0  0  0
  2 86  1  0  0  0  0
  3  4  1  0  0  0  0
  3 87  1  0  0  0  0
  3 88  1  0  0  0  0
  4  5  1  0  0  0  0
  4 89  1  0  0  0  0
  4 90  1  0  0  0  0
  5  6  1  0  0  0  0
  5 91  1  0  0  0  0
  5 92  1  0  0  0  0
  6  7  1  0  0  0  0
  6 93  1  0  0  0  0
  6 94  1  0  0  0  0
  7  8  1  0  0  0  0
  7 95  1  0  0  0  0
  7 96  1  0  0  0  0
  8  9  1  0  0  0  0
  8 97  1  0  0  0  0
  8 98  1  0  0  0  0
  9 10  1  0  0  0  0
 10 11  1  0  0  0  0
 11 12  1  0  0  0  0
 12 13  1  0  0  0  0
 13 14  1  0  0  0  0
 13 99  1  0  0  0  0
 13100  1  0  0  0  0
 14 15  1  0  0  0  0
 15 16  1  0  0  0  0
 16 17  1  0  0  0  0
 17 18  1  0  0  0  0
 18 19  1  0  0  0  0
 19 20  1  0  0  0  0
 19101  1  0  0  0  0
 19102  1  0  0  0  0
 20 21  1  0  0  0  0
 20103  1  0  0  0  0
 20104  1  0  0  0  0
 21 22  1  0  0  0  0
 21105  1  0  0  0  0
 21106  1  0  0  0  0
 22 23  1  0  0  0  0
 22107  1  0  0  0  0
 22108  1  0  0  0  0
 23 24  1  0  0  0  0
 23109  1  0  0  0  0
 23110  1  0  0  0  0
 24 25  1  0  0  0  0
 24111  1  0  0  0  0
 24112  1  0  0  0  0
 25 26  1  0  0  0  0
 25113  1  0  0  0  0
 25114  1  0  0  0  0
 26 27  1  0  0  0  0
 26115  1  0  0  0  0
 26116  1  0  0  0  0
 27 28  1  0  0  0  0
 27117  1  0  0  0  0
 27118  1  0  0  0  0
 28 29  1  0  0  0  0
 28119  1  0  0  0  0
 28120  1  0  0  0  0
 29 30  1  0  0  0  0
 29121  1  0  0  0  0
 29122  1  0  0  0  0
 30 31  1  0  0  0  0
 30123  1  0  0  0  0
 30124  1  0  0  0  0
 31 32  1  0  0  0  0
 31125  1  0  0  0  0
 31126  1  0  0  0  0
 32 33  1  0  0  0  0
 32127  1  0  0  0  0
 32128  1  0  0  0  0
 33 34  1  0  0  0  0
 33129  1  0  0  0  0
 33130  1  0  0  0  0
 34 35  1  0  0  0  0
 34131  1  0  0  0  0
 34132  1  0  0  0  0
 35 36  1  0  0  0  0
 35133  1  0  0  0  0
 35134  1  0  0  0  0
 36 37  1  0  0  0  0
 36135  1  0  0  0  0
 36136  1  0  0  0  0
 37 38  1  0  0  0  0
 37137  1  0  0  0  0
 37138  1  0  0  0  0
 38 39  1  0  0  0  0
 38139  1  0  0  0  0
 38140  1  0  0  0  0
 39 40  1  0  0  0  0
 39141  1  0  0  0  0
 39142  1  0  0  0  0
 40 41  1  0  0  0  0
 40143  1  0  0  0  0
 40144  1  0  0  0  0
 41 42  1  0  0  0  0
 41145  1  0  0  0  0
 41146  1  0  0  0  0
 42 43  1  0  0  0  0
 42147  1  0  0  0  0
 42148  1  0  0  0  0
 43 44  1  0  0  0  0
 43149  1  0  0  0  0
 43150  1  0  0  0  0
 44 45  1  0  0  0  0
 44151  1  0  0  0  0
 44152  1  0  0  0  0
 45 46  1  0  0  0  0
 45153  1  0  0  0  0
 45154  1  0  0  0  0
 46 47  1  0  0  0  0
 46155  1  0  0  0  0
 46156  1  0  0  0  0
 47 48  1  0  0  0  0
 47157  1  0  0  0  0
 47158  1  0  0  0  0
 48 49  1  0  0  0  0
 48159  1  0  0  0  0
 48160  1  0  0  0  0
 49 50  1  0  0  0  0
 49161  1  0  0  0  0
 49162  1  0  0  0  0
 50 51  1  0  0  0  0
 50163  1  0  0  0  0
 50164  1  0  0  0  0
 51 52  1  0  0  0  0
 51165  1  0  0  0  0
 51166  1  0  0  0  0
 52 53  1  0  0  0  0
 52167  1  0  0  0  0
 52168  1  0  0  0  0
 53 54  1  0  0  0  0
 53169  1  0  0  0  0
 53170  1  0  0  0  0
 54 55  1  0  0  0  0
 54171  1  0  0  0  0
 54172  1  0  0  0  0
 55 56  1  0  0  0  0
 55173  1  0  0  0  0
 55174  1  0  0  0  0
 56 57  1  0  0  0  0
 56175  1  0  0  0  0
 56176  1  0  0  0  0
 57 58  1  0  0  0  0
 57177  1  0  0  0  0
 57178  1  0  0  0  0
 58 59  1  0  0  0  0
 58179  1  0  0  0  0
 58180  1  0  0  0  0
 59 60  1  0  0  0  0
 59181  1  0  0  0  0
 59182  1  0  0  0  0
 60 61  1  0  0  0  0
 60183  1  0  0  0  0
 60184  1  0  0  0  0
 61 62  1  0  0  0  0
 61185  1  0  0  0  0
 61186  1  0  0  0  0
 62 63  1  0  0  0  0
 62187  1  0  0  0  0
 62188  1  0  0  0  0
 63 64  1  0  0  0  0
 63189  1  0  0  0  0
 63190  1  0  0  0  0
 64 65  1  0  0  0  0
 64191  1  0  0  0  0
 64192  1  0  0  0  0
 65 66  1  0  0  0  0
 65193  1  0  0  0  0
 65194  1  0  0  0  0
 66 67  1  0  0  0  0
 66195  1  0  0  0  0
 66196  1  0  0  0  0
 67 68  1  0  0  0  0
 67197  1  0  0  0  0
 67198  1  0  0  0  0
 68 69  1  0  0  0  0
 68199  1  0  0  0  0
 68200  1  0  0  0  0
 69 70  1  0  0  0  0
 69201  1  0  0  0  0
 69202  1  0  0  0  0
 70 71  1  0  0  0  0
 70203  1  0  0  0  0
 70204  1  0  0  0  0
 71 72  1  0  0  0  0
 72 73  1  0  0  0  0
 72205  1  0  0  0  0
 72206  1  0  0  0  0
 73 74  1  0  0  0  0
 74 75  1  0  0  0  0
 74207  1  0  0  0  0
 74208  1  0  0  0  0
 75 76  1  0  0  0  0
 76 77  1  0  0  0  0
 76209  1  0  0  0  0
 76210  1  0  0  0  0
 77 78  1  0  0  0  0
 78 79  1  0  0  0  0
 78211  1  0  0  0  0
 78212  1  0  0  0  0
 79 80  1  0  0  0  0
 80 81  1  0  0  0  0
 80213  1  0  0  0  0
 80214  1  0  0  0  0
 81215  1  0  0  0  0
M  END
$$$$
