
 OpenBabel04232216533D

237236  0  0  0  0  0  0  0  0999 V2000
    8.5249    1.1933    5.4197 C   0  0  0  0  0  0  0  0  0  0  0  0
    8.0591    0.8624    4.0159 C   0  0  0  0  0  0  0  0  0  0  0  0
    8.6072    1.8744    3.0195 C   0  0  0  0  0  0  0  0  0  0  0  0
    8.1392    1.5441    1.6126 C   0  0  0  0  0  0  0  0  0  0  0  0
    8.6882    2.5604    0.6289 C   0  0  0  0  0  0  0  0  0  0  0  0
    8.2177    2.2399   -0.7718 C   0  0  0  0  0  0  0  0  0  0  0  0
    8.7201    3.2495   -1.6210 O   0  0  0  0  0  0  0  0  0  0  0  0
    8.2523    2.8840   -2.9402 O   0  0  0  0  0  0  0  0  0  0  0  0
    8.7795    3.8061   -3.9110 O   0  0  0  0  0  0  0  0  0  0  0  0
   10.2248    3.7658   -3.8776 O   0  0  0  0  0  0  0  0  0  0  0  0
   10.6321    4.7563   -4.7957 C   0  0  0  0  0  0  0  0  0  0  0  0
   12.1398    4.7684   -4.7907 C   0  0  0  0  0  0  0  0  0  0  0  0
   12.6471    5.7773   -5.7946 C   0  0  0  0  0  0  0  0  0  0  0  0
   14.1606    5.7781   -5.7893 C   0  0  0  0  0  0  0  0  0  0  0  0
   14.6670    6.7880   -6.7974 C   0  0  0  0  0  0  0  0  0  0  0  0
   16.1806    6.7919   -6.7930 C   0  0  0  0  0  0  0  0  0  0  0  0
   16.6873    7.8009   -7.8031 C   0  0  0  0  0  0  0  0  0  0  0  0
   18.2023    7.8059   -7.8022 C   0  0  0  0  0  0  0  0  0  0  0  0
   18.7101    8.8169   -8.8106 C   0  0  0  0  0  0  0  0  0  0  0  0
   20.2255    8.8188   -8.8129 C   0  0  0  0  0  0  0  0  0  0  0  0
   20.7362    9.8267   -9.8219 C   0  0  0  0  0  0  0  0  0  0  0  0
   22.2505    9.8339   -9.8227 C   0  0  0  0  0  0  0  0  0  0  0  0
   22.7599   10.8428  -10.8336 C   0  0  0  0  0  0  0  0  0  0  0  0
   24.2763   10.8468  -10.8347 C   0  0  0  0  0  0  0  0  0  0  0  0
   24.7862   11.8549  -11.8466 C   0  0  0  0  0  0  0  0  0  0  0  0
   26.3029   11.8581  -11.8498 C   0  0  0  0  0  0  0  0  0  0  0  0
   26.8128   12.8662  -12.8616 C   0  0  0  0  0  0  0  0  0  0  0  0
   28.3293   12.8695  -12.8650 C   0  0  0  0  0  0  0  0  0  0  0  0
   28.8393   13.8776  -13.8769 C   0  0  0  0  0  0  0  0  0  0  0  0
   30.3560   13.8808  -13.8803 C   0  0  0  0  0  0  0  0  0  0  0  0
   30.8659   14.8890  -14.8922 C   0  0  0  0  0  0  0  0  0  0  0  0
   32.3825   14.8923  -14.8955 C   0  0  0  0  0  0  0  0  0  0  0  0
   32.8925   15.9004  -15.9073 C   0  0  0  0  0  0  0  0  0  0  0  0
   34.4091   15.9050  -15.9094 C   0  0  0  0  0  0  0  0  0  0  0  0
   34.9191   16.9132  -16.9212 C   0  0  0  0  0  0  0  0  0  0  0  0
   36.4357   16.9167  -16.9245 C   0  0  0  0  0  0  0  0  0  0  0  0
   36.9457   17.9261  -17.9350 C   0  0  0  0  0  0  0  0  0  0  0  0
   38.4624   17.9308  -17.9370 C   0  0  0  0  0  0  0  0  0  0  0  0
   38.9724   18.9389  -18.9488 C   0  0  0  0  0  0  0  0  0  0  0  0
   40.4890   18.9423  -18.9522 C   0  0  0  0  0  0  0  0  0  0  0  0
   40.9991   19.9490  -19.9654 C   0  0  0  0  0  0  0  0  0  0  0  0
   42.5157   19.9523  -19.9689 C   0  0  0  0  0  0  0  0  0  0  0  0
   43.0257   20.9589  -20.9822 C   0  0  0  0  0  0  0  0  0  0  0  0
   44.5424   20.9622  -20.9856 C   0  0  0  0  0  0  0  0  0  0  0  0
   45.0524   21.9689  -21.9988 C   0  0  0  0  0  0  0  0  0  0  0  0
   46.5690   21.9722  -22.0022 C   0  0  0  0  0  0  0  0  0  0  0  0
   47.0790   22.9789  -23.0155 C   0  0  0  0  0  0  0  0  0  0  0  0
   48.5957   22.9822  -23.0189 C   0  0  0  0  0  0  0  0  0  0  0  0
   49.1057   23.9888  -24.0322 C   0  0  0  0  0  0  0  0  0  0  0  0
   50.6223   23.9909  -24.0369 C   0  0  0  0  0  0  0  0  0  0  0  0
   51.1324   24.9974  -25.0502 C   0  0  0  0  0  0  0  0  0  0  0  0
   52.6490   25.0007  -25.0537 C   0  0  0  0  0  0  0  0  0  0  0  0
   53.1590   26.0060  -26.0683 C   0  0  0  0  0  0  0  0  0  0  0  0
   54.6757   26.0080  -26.0730 C   0  0  0  0  0  0  0  0  0  0  0  0
   55.1857   27.0145  -27.0864 C   0  0  0  0  0  0  0  0  0  0  0  0
   56.7023   27.0178  -27.0899 C   0  0  0  0  0  0  0  0  0  0  0  0
   57.2123   28.0231  -28.1045 C   0  0  0  0  0  0  0  0  0  0  0  0
   58.7290   28.0250  -28.1093 C   0  0  0  0  0  0  0  0  0  0  0  0
   59.2390   29.0302  -29.1240 C   0  0  0  0  0  0  0  0  0  0  0  0
   60.7556   29.0307  -29.1302 C   0  0  0  0  0  0  0  0  0  0  0  0
   61.2657   30.0359  -30.1449 C   0  0  0  0  0  0  0  0  0  0  0  0
   62.7823   30.0364  -30.1512 C   0  0  0  0  0  0  0  0  0  0  0  0
   63.2923   31.0416  -31.1659 C   0  0  0  0  0  0  0  0  0  0  0  0
   64.8091   31.0422  -31.1722 C   0  0  0  0  0  0  0  0  0  0  0  0
   65.3191   32.0473  -32.1868 C   0  0  0  0  0  0  0  0  0  0  0  0
   66.8360   32.0479  -32.1939 C   0  0  0  0  0  0  0  0  0  0  0  0
   67.3461   33.0530  -33.2079 C   0  0  0  0  0  0  0  0  0  0  0  0
   68.8629   33.0538  -33.2144 C   0  0  0  0  0  0  0  0  0  0  0  0
   69.3730   34.0588  -34.2295 C   0  0  0  0  0  0  0  0  0  0  0  0
   70.8911   34.0610  -34.2345 C   0  0  0  0  0  0  0  0  0  0  0  0
   71.4017   35.0667  -35.2493 C   0  0  0  0  0  0  0  0  0  0  0  0
   72.9177   35.0698  -35.2550 C   0  0  0  0  0  0  0  0  0  0  0  0
   73.4288   36.0768  -36.2718 C   0  0  0  0  0  0  0  0  0  0  0  0
   74.9468   36.0791  -36.2792 C   0  0  0  0  0  0  0  0  0  0  0  0
   75.4606   37.0830  -37.2959 C   0  0  0  0  0  0  0  0  0  0  0  0
   76.9847   37.0899  -37.2994 C   0  0  0  0  0  0  0  0  0  0  0  0
   77.4963   38.0947  -38.3158 C   0  0  0  0  0  0  0  0  0  0  0  0
   79.0196   38.1029  -38.3194 C   0  0  0  0  0  0  0  0  0  0  0  0
   79.5382   39.1128  -39.3364 C   0  0  0  0  0  0  0  0  0  0  0  0
   81.0602   39.1283  -39.3504 C   0  0  0  0  0  0  0  0  0  0  0  0
   81.5763   40.1349  -40.3622 C   0  0  0  0  0  0  0  0  0  0  0  0
    8.1294    0.4637    6.1324 H   0  0  0  0  0  0  0  0  0  0  0  0
    8.1803    2.1889    5.7187 H   0  0  0  0  0  0  0  0  0  0  0  0
    9.6181    1.1765    5.4803 H   0  0  0  0  0  0  0  0  0  0  0  0
    6.9634    0.8620    3.9823 H   0  0  0  0  0  0  0  0  0  0  0  0
    8.3939   -0.1453    3.7450 H   0  0  0  0  0  0  0  0  0  0  0  0
    9.7036    1.8760    3.0527 H   0  0  0  0  0  0  0  0  0  0  0  0
    8.2744    2.8843    3.2912 H   0  0  0  0  0  0  0  0  0  0  0  0
    7.0431    1.5460    1.5710 H   0  0  0  0  0  0  0  0  0  0  0  0
    8.4732    0.5380    1.3307 H   0  0  0  0  0  0  0  0  0  0  0  0
    9.7858    2.5744    0.6570 H   0  0  0  0  0  0  0  0  0  0  0  0
    8.3690    3.5746    0.9008 H   0  0  0  0  0  0  0  0  0  0  0  0
    7.1234    2.2467   -0.8255 H   0  0  0  0  0  0  0  0  0  0  0  0
    8.5888    1.2597   -1.0926 H   0  0  0  0  0  0  0  0  0  0  0  0
   10.2336    5.7349   -4.4974 H   0  0  0  0  0  0  0  0  0  0  0  0
   10.2469    4.5000   -5.7888 H   0  0  0  0  0  0  0  0  0  0  0  0
   12.5188    3.7652   -5.0242 H   0  0  0  0  0  0  0  0  0  0  0  0
   12.5082    5.0022   -3.7835 H   0  0  0  0  0  0  0  0  0  0  0  0
   12.2690    6.7788   -5.5463 H   0  0  0  0  0  0  0  0  0  0  0  0
   12.2753    5.5300   -6.7968 H   0  0  0  0  0  0  0  0  0  0  0  0
   14.5383    4.7789   -6.0374 H   0  0  0  0  0  0  0  0  0  0  0  0
   14.5329    6.0271   -4.7876 H   0  0  0  0  0  0  0  0  0  0  0  0
   14.2877    7.7871   -6.5501 H   0  0  0  0  0  0  0  0  0  0  0  0
   14.2942    6.5374   -7.7982 H   0  0  0  0  0  0  0  0  0  0  0  0
   16.5592    5.7918   -7.0389 H   0  0  0  0  0  0  0  0  0  0  0  0
   16.5525    7.0429   -5.7921 H   0  0  0  0  0  0  0  0  0  0  0  0
   16.3082    8.8003   -7.5561 H   0  0  0  0  0  0  0  0  0  0  0  0
   16.3132    7.5498   -8.8033 H   0  0  0  0  0  0  0  0  0  0  0  0
   18.5800    6.8061   -8.0497 H   0  0  0  0  0  0  0  0  0  0  0  0
   18.5754    8.0552   -6.8011 H   0  0  0  0  0  0  0  0  0  0  0  0
   18.3320    9.8158   -8.5625 H   0  0  0  0  0  0  0  0  0  0  0  0
   18.3348    8.5670   -9.8116 H   0  0  0  0  0  0  0  0  0  0  0  0
   20.6026    7.8201   -9.0586 H   0  0  0  0  0  0  0  0  0  0  0  0
   20.5995    9.0709   -7.8110 H   0  0  0  0  0  0  0  0  0  0  0  0
   20.3575   10.8309   -9.5770 H   0  0  0  0  0  0  0  0  0  0  0  0
   20.3558    9.5757  -10.8255 H   0  0  0  0  0  0  0  0  0  0  0  0
   22.6286    8.8346  -10.0674 H   0  0  0  0  0  0  0  0  0  0  0  0
   22.6234   10.0873   -8.8208 H   0  0  0  0  0  0  0  0  0  0  0  0
   22.3828   11.8441  -10.5875 H   0  0  0  0  0  0  0  0  0  0  0  0
   22.3855   10.5920  -11.8340 H   0  0  0  0  0  0  0  0  0  0  0  0
   24.6527    9.8463  -11.0809 H   0  0  0  0  0  0  0  0  0  0  0  0
   24.6510   11.0978   -9.8349 H   0  0  0  0  0  0  0  0  0  0  0  0
   24.4104   12.8554  -11.5999 H   0  0  0  0  0  0  0  0  0  0  0  0
   24.4106   11.6043  -12.8464 H   0  0  0  0  0  0  0  0  0  0  0  0
   26.6786   10.8574  -12.0965 H   0  0  0  0  0  0  0  0  0  0  0  0
   26.6785   12.1085  -10.8500 H   0  0  0  0  0  0  0  0  0  0  0  0
   26.4369   13.8668  -12.6149 H   0  0  0  0  0  0  0  0  0  0  0  0
   26.4370   12.6157  -13.8613 H   0  0  0  0  0  0  0  0  0  0  0  0
   28.7051   11.8689  -13.1117 H   0  0  0  0  0  0  0  0  0  0  0  0
   28.7051   13.1201  -11.8653 H   0  0  0  0  0  0  0  0  0  0  0  0
   28.4636   14.8782  -13.6302 H   0  0  0  0  0  0  0  0  0  0  0  0
   28.4635   13.6271  -14.8766 H   0  0  0  0  0  0  0  0  0  0  0  0
   30.7316   12.8802  -14.1271 H   0  0  0  0  0  0  0  0  0  0  0  0
   30.7317   14.1313  -12.8806 H   0  0  0  0  0  0  0  0  0  0  0  0
   30.4900   15.8896  -14.6454 H   0  0  0  0  0  0  0  0  0  0  0  0
   30.4901   14.6385  -15.8919 H   0  0  0  0  0  0  0  0  0  0  0  0
   32.7583   13.8917  -15.1422 H   0  0  0  0  0  0  0  0  0  0  0  0
   32.7582   15.1428  -13.8957 H   0  0  0  0  0  0  0  0  0  0  0  0
   32.5157   16.9009  -15.6613 H   0  0  0  0  0  0  0  0  0  0  0  0
   32.5176   15.6492  -16.9072 H   0  0  0  0  0  0  0  0  0  0  0  0
   34.7859   14.9046  -16.1554 H   0  0  0  0  0  0  0  0  0  0  0  0
   34.7839   16.1562  -14.9095 H   0  0  0  0  0  0  0  0  0  0  0  0
   34.5432   17.9138  -16.6744 H   0  0  0  0  0  0  0  0  0  0  0  0
   34.5434   16.6628  -17.9210 H   0  0  0  0  0  0  0  0  0  0  0  0
   36.8116   15.9164  -17.1726 H   0  0  0  0  0  0  0  0  0  0  0  0
   36.8115   17.1658  -15.9244 H   0  0  0  0  0  0  0  0  0  0  0  0
   36.5690   18.9263  -17.6877 H   0  0  0  0  0  0  0  0  0  0  0  0
   36.5709   17.6761  -18.9352 H   0  0  0  0  0  0  0  0  0  0  0  0
   38.8392   16.9304  -18.1830 H   0  0  0  0  0  0  0  0  0  0  0  0
   38.8371   18.1820  -16.9371 H   0  0  0  0  0  0  0  0  0  0  0  0
   38.5966   19.9396  -18.7021 H   0  0  0  0  0  0  0  0  0  0  0  0
   38.5967   18.6884  -19.9486 H   0  0  0  0  0  0  0  0  0  0  0  0
   40.8649   17.9413  -19.1977 H   0  0  0  0  0  0  0  0  0  0  0  0
   40.8648   19.1940  -17.9528 H   0  0  0  0  0  0  0  0  0  0  0  0
   40.6233   20.9500  -19.7201 H   0  0  0  0  0  0  0  0  0  0  0  0
   40.6233   19.6971  -20.9648 H   0  0  0  0  0  0  0  0  0  0  0  0
   42.8914   18.9512  -20.2142 H   0  0  0  0  0  0  0  0  0  0  0  0
   42.8915   20.2041  -18.9695 H   0  0  0  0  0  0  0  0  0  0  0  0
   42.6500   21.9599  -20.7368 H   0  0  0  0  0  0  0  0  0  0  0  0
   42.6499   20.7070  -21.9815 H   0  0  0  0  0  0  0  0  0  0  0  0
   44.9181   19.9612  -21.2309 H   0  0  0  0  0  0  0  0  0  0  0  0
   44.9182   21.2141  -19.9862 H   0  0  0  0  0  0  0  0  0  0  0  0
   44.6766   22.9699  -21.7535 H   0  0  0  0  0  0  0  0  0  0  0  0
   44.6766   21.7170  -22.9982 H   0  0  0  0  0  0  0  0  0  0  0  0
   46.9448   20.9712  -22.2476 H   0  0  0  0  0  0  0  0  0  0  0  0
   46.9448   22.2241  -21.0028 H   0  0  0  0  0  0  0  0  0  0  0  0
   46.7033   23.9799  -22.7701 H   0  0  0  0  0  0  0  0  0  0  0  0
   46.7032   22.7271  -24.0148 H   0  0  0  0  0  0  0  0  0  0  0  0
   48.9714   21.9811  -23.2643 H   0  0  0  0  0  0  0  0  0  0  0  0
   48.9716   23.2340  -22.0196 H   0  0  0  0  0  0  0  0  0  0  0  0
   48.7310   24.9900  -23.7860 H   0  0  0  0  0  0  0  0  0  0  0  0
   48.7288   23.7378  -25.0314 H   0  0  0  0  0  0  0  0  0  0  0  0
   50.9970   22.9896  -24.2831 H   0  0  0  0  0  0  0  0  0  0  0  0
   50.9992   24.2419  -23.0377 H   0  0  0  0  0  0  0  0  0  0  0  0
   50.7568   25.9985  -24.8049 H   0  0  0  0  0  0  0  0  0  0  0  0
   50.7564   24.7455  -26.0495 H   0  0  0  0  0  0  0  0  0  0  0  0
   53.0247   23.9992  -25.2979 H   0  0  0  0  0  0  0  0  0  0  0  0
   53.0249   25.2538  -24.0547 H   0  0  0  0  0  0  0  0  0  0  0  0
   52.7842   27.0075  -25.8235 H   0  0  0  0  0  0  0  0  0  0  0  0
   52.7822   25.7536  -27.0672 H   0  0  0  0  0  0  0  0  0  0  0  0
   55.0503   25.0068  -26.3191 H   0  0  0  0  0  0  0  0  0  0  0  0
   55.0526   26.2591  -25.0739 H   0  0  0  0  0  0  0  0  0  0  0  0
   54.8101   28.0157  -26.8411 H   0  0  0  0  0  0  0  0  0  0  0  0
   54.8097   26.7626  -28.0857 H   0  0  0  0  0  0  0  0  0  0  0  0
   57.0780   26.0165  -27.3339 H   0  0  0  0  0  0  0  0  0  0  0  0
   57.0782   27.2710  -26.0908 H   0  0  0  0  0  0  0  0  0  0  0  0
   56.8377   29.0247  -27.8597 H   0  0  0  0  0  0  0  0  0  0  0  0
   56.8354   27.7707  -29.1033 H   0  0  0  0  0  0  0  0  0  0  0  0
   59.1035   27.0234  -28.3541 H   0  0  0  0  0  0  0  0  0  0  0  0
   59.1060   28.2774  -27.1105 H   0  0  0  0  0  0  0  0  0  0  0  0
   58.8655   30.0320  -28.8785 H   0  0  0  0  0  0  0  0  0  0  0  0
   58.8609   28.7786  -30.1226 H   0  0  0  0  0  0  0  0  0  0  0  0
   61.1291   28.0289  -29.3758 H   0  0  0  0  0  0  0  0  0  0  0  0
   61.1338   29.2823  -28.1316 H   0  0  0  0  0  0  0  0  0  0  0  0
   60.8922   31.0378  -29.8993 H   0  0  0  0  0  0  0  0  0  0  0  0
   60.8875   29.7843  -31.1435 H   0  0  0  0  0  0  0  0  0  0  0  0
   63.1557   29.0346  -30.3968 H   0  0  0  0  0  0  0  0  0  0  0  0
   63.1605   30.2880  -29.1526 H   0  0  0  0  0  0  0  0  0  0  0  0
   62.9189   32.0435  -30.9202 H   0  0  0  0  0  0  0  0  0  0  0  0
   62.9141   30.7901  -32.1644 H   0  0  0  0  0  0  0  0  0  0  0  0
   65.1824   30.0402  -31.4178 H   0  0  0  0  0  0  0  0  0  0  0  0
   65.1872   31.2936  -30.1736 H   0  0  0  0  0  0  0  0  0  0  0  0
   64.9457   33.0492  -31.9412 H   0  0  0  0  0  0  0  0  0  0  0  0
   64.9409   31.7958  -33.1854 H   0  0  0  0  0  0  0  0  0  0  0  0
   67.2091   31.0459  -32.4387 H   0  0  0  0  0  0  0  0  0  0  0  0
   67.2141   32.2993  -31.1946 H   0  0  0  0  0  0  0  0  0  0  0  0
   66.9725   34.0549  -32.9622 H   0  0  0  0  0  0  0  0  0  0  0  0
   66.9677   32.8014  -34.2064 H   0  0  0  0  0  0  0  0  0  0  0  0
   69.2361   32.0519  -33.4598 H   0  0  0  0  0  0  0  0  0  0  0  0
   69.2407   33.3054  -32.2159 H   0  0  0  0  0  0  0  0  0  0  0  0
   68.9987   35.0603  -33.9848 H   0  0  0  0  0  0  0  0  0  0  0  0
   68.9960   33.8067  -35.2286 H   0  0  0  0  0  0  0  0  0  0  0  0
   71.2655   33.0598  -34.4796 H   0  0  0  0  0  0  0  0  0  0  0  0
   71.2675   34.3137  -33.2358 H   0  0  0  0  0  0  0  0  0  0  0  0
   71.0272   36.0670  -35.0037 H   0  0  0  0  0  0  0  0  0  0  0  0
   71.0242   34.8134  -36.2482 H   0  0  0  0  0  0  0  0  0  0  0  0
   73.2931   34.0686  -35.5003 H   0  0  0  0  0  0  0  0  0  0  0  0
   73.2955   35.3225  -34.2564 H   0  0  0  0  0  0  0  0  0  0  0  0
   73.0529   37.0777  -36.0258 H   0  0  0  0  0  0  0  0  0  0  0  0
   73.0495   35.8237  -37.2690 H   0  0  0  0  0  0  0  0  0  0  0  0
   75.3198   35.0772  -36.5225 H   0  0  0  0  0  0  0  0  0  0  0  0
   75.3240   36.3321  -35.2808 H   0  0  0  0  0  0  0  0  0  0  0  0
   75.0862   38.0839  -37.0520 H   0  0  0  0  0  0  0  0  0  0  0  0
   75.0846   36.8291  -38.2944 H   0  0  0  0  0  0  0  0  0  0  0  0
   77.3562   36.0875  -37.5446 H   0  0  0  0  0  0  0  0  0  0  0  0
   77.3557   37.3421  -36.3033 H   0  0  0  0  0  0  0  0  0  0  0  0
   77.1191   39.0952  -38.0687 H   0  0  0  0  0  0  0  0  0  0  0  0
   77.1215   37.8467  -39.3185 H   0  0  0  0  0  0  0  0  0  0  0  0
   79.3921   37.1021  -38.5647 H   0  0  0  0  0  0  0  0  0  0  0  0
   79.3929   38.3537  -37.3214 H   0  0  0  0  0  0  0  0  0  0  0  0
   79.1562   40.1113  -39.0900 H   0  0  0  0  0  0  0  0  0  0  0  0
   79.1581   38.8583  -40.3337 H   0  0  0  0  0  0  0  0  0  0  0  0
   81.4425   38.1314  -39.5978 H   0  0  0  0  0  0  0  0  0  0  0  0
   81.4400   39.3848  -38.3539 H   0  0  0  0  0  0  0  0  0  0  0  0
   81.2303   39.8845  -41.3701 H   0  0  0  0  0  0  0  0  0  0  0  0
   82.6709   40.1410  -40.3667 H   0  0  0  0  0  0  0  0  0  0  0  0
   81.2282   41.1434  -40.1203 H   0  0  0  0  0  0  0  0  0  0  0  0
  1  2  1  0  0  0  0
  1 82  1  0  0  0  0
  1 83  1  0  0  0  0
  1 84  1  0  0  0  0
  2  3  1  0  0  0  0
  2 85  1  0  0  0  0
  2 86  1  0  0  0  0
  3  4  1  0  0  0  0
  3 87  1  0  0  0  0
  3 88  1  0  0  0  0
  4  5  1  0  0  0  0
  4 89  1  0  0  0  0
  4 90  1  0  0  0  0
  5  6  1  0  0  0  0
  5 91  1  0  0  0  0
  5 92  1  0  0  0  0
  6  7  1  0  0  0  0
  6 93  1  0  0  0  0
  6 94  1  0  0  0  0
  7  8  1  0  0  0  0
  8  9  1  0  0  0  0
  9 10  1  0  0  0  0
 10 11  1  0  0  0  0
 11 12  1  0  0  0  0
 11 95  1  0  0  0  0
 11 96  1  0  0  0  0
 12 13  1  0  0  0  0
 12 97  1  0  0  0  0
 12 98  1  0  0  0  0
 13 14  1  0  0  0  0
 13 99  1  0  0  0  0
 13100  1  0  0  0  0
 14 15  1  0  0  0  0
 14101  1  0  0  0  0
 14102  1  0  0  0  0
 15 16  1  0  0  0  0
 15103  1  0  0  0  0
 15104  1  0  0  0  0
 16 17  1  0  0  0  0
 16105  1  0  0  0  0
 16106  1  0  0  0  0
 17 18  1  0  0  0  0
 17107  1  0  0  0  0
 17108  1  0  0  0  0
 18 19  1  0  0  0  0
 18109  1  0  0  0  0
 18110  1  0  0  0  0
 19 20  1  0  0  0  0
 19111  1  0  0  0  0
 19112  1  0  0  0  0
 20 21  1  0  0  0  0
 20113  1  0  0  0  0
 20114  1  0  0  0  0
 21 22  1  0  0  0  0
 21115  1  0  0  0  0
 21116  1  0  0  0  0
 22 23  1  0  0  0  0
 22117  1  0  0  0  0
 22118  1  0  0  0  0
 23 24  1  0  0  0  0
 23119  1  0  0  0  0
 23120  1  0  0  0  0
 24 25  1  0  0  0  0
 24121  1  0  0  0  0
 24122  1  0  0  0  0
 25 26  1  0  0  0  0
 25123  1  0  0  0  0
 25124  1  0  0  0  0
 26 27  1  0  0  0  0
 26125  1  0  0  0  0
 26126  1  0  0  0  0
 27 28  1  0  0  0  0
 27127  1  0  0  0  0
 27128  1  0  0  0  0
 28 29  1  0  0  0  0
 28129  1  0  0  0  0
 28130  1  0  0  0  0
 29 30  1  0  0  0  0
 29131  1  0  0  0  0
 29132  1  0  0  0  0
 30 31  1  0  0  0  0
 30133  1  0  0  0  0
 30134  1  0  0  0  0
 31 32  1  0  0  0  0
 31135  1  0  0  0  0
 31136  1  0  0  0  0
 32 33  1  0  0  0  0
 32137  1  0  0  0  0
 32138  1  0  0  0  0
 33 34  1  0  0  0  0
 33139  1  0  0  0  0
 33140  1  0  0  0  0
 34 35  1  0  0  0  0
 34141  1  0  0  0  0
 34142  1  0  0  0  0
 35 36  1  0  0  0  0
 35143  1  0  0  0  0
 35144  1  0  0  0  0
 36 37  1  0  0  0  0
 36145  1  0  0  0  0
 36146  1  0  0  0  0
 37 38  1  0  0  0  0
 37147  1  0  0  0  0
 37148  1  0  0  0  0
 38 39  1  0  0  0  0
 38149  1  0  0  0  0
 38150  1  0  0  0  0
 39 40  1  0  0  0  0
 39151  1  0  0  0  0
 39152  1  0  0  0  0
 40 41  1  0  0  0  0
 40153  1  0  0  0  0
 40154  1  0  0  0  0
 41 42  1  0  0  0  0
 41155  1  0  0  0  0
 41156  1  0  0  0  0
 42 43  1  0  0  0  0
 42157  1  0  0  0  0
 42158  1  0  0  0  0
 43 44  1  0  0  0  0
 43159  1  0  0  0  0
 43160  1  0  0  0  0
 44 45  1  0  0  0  0
 44161  1  0  0  0  0
 44162  1  0  0  0  0
 45 46  1  0  0  0  0
 45163  1  0  0  0  0
 45164  1  0  0  0  0
 46 47  1  0  0  0  0
 46165  1  0  0  0  0
 46166  1  0  0  0  0
 47 48  1  0  0  0  0
 47167  1  0  0  0  0
 47168  1  0  0  0  0
 48 49  1  0  0  0  0
 48169  1  0  0  0  0
 48170  1  0  0  0  0
 49 50  1  0  0  0  0
 49171  1  0  0  0  0
 49172  1  0  0  0  0
 50 51  1  0  0  0  0
 50173  1  0  0  0  0
 50174  1  0  0  0  0
 51 52  1  0  0  0  0
 51175  1  0  0  0  0
 51176  1  0  0  0  0
 52 53  1  0  0  0  0
 52177  1  0  0  0  0
 52178  1  0  0  0  0
 53 54  1  0  0  0  0
 53179  1  0  0  0  0
 53180  1  0  0  0  0
 54 55  1  0  0  0  0
 54181  1  0  0  0  0
 54182  1  0  0  0  0
 55 56  1  0  0  0  0
 55183  1  0  0  0  0
 55184  1  0  0  0  0
 56 57  1  0  0  0  0
 56185  1  0  0  0  0
 56186  1  0  0  0  0
 57 58  1  0  0  0  0
 57187  1  0  0  0  0
 57188  1  0  0  0  0
 58 59  1  0  0  0  0
 58189  1  0  0  0  0
 58190  1  0  0  0  0
 59 60  1  0  0  0  0
 59191  1  0  0  0  0
 59192  1  0  0  0  0
 60 61  1  0  0  0  0
 60193  1  0  0  0  0
 60194  1  0  0  0  0
 61 62  1  0  0  0  0
 61195  1  0  0  0  0
 61196  1  0  0  0  0
 62 63  1  0  0  0  0
 62197  1  0  0  0  0
 62198  1  0  0  0  0
 63 64  1  0  0  0  0
 63199  1  0  0  0  0
 63200  1  0  0  0  0
 64 65  1  0  0  0  0
 64201  1  0  0  0  0
 64202  1  0  0  0  0
 65 66  1  0  0  0  0
 65203  1  0  0  0  0
 65204  1  0  0  0  0
 66 67  1  0  0  0  0
 66205  1  0  0  0  0
 66206  1  0  0  0  0
 67 68  1  0  0  0  0
 67207  1  0  0  0  0
 67208  1  0  0  0  0
 68 69  1  0  0  0  0
 68209  1  0  0  0  0
 68210  1  0  0  0  0
 69 70  1  0  0  0  0
 69211  1  0  0  0  0
 69212  1  0  0  0  0
 70 71  1  0  0  0  0
 70213  1  0  0  0  0
 70214  1  0  0  0  0
 71 72  1  0  0  0  0
 71215  1  0  0  0  0
 71216  1  0  0  0  0
 72 73  1  0  0  0  0
 72217  1  0  0  0  0
 72218  1  0  0  0  0
 73 74  1  0  0  0  0
 73219  1  0  0  0  0
 73220  1  0  0  0  0
 74 75  1  0  0  0  0
 74221  1  0  0  0  0
 74222  1  0  0  0  0
 75 76  1  0  0  0  0
 75223  1  0  0  0  0
 75224  1  0  0  0  0
 76 77  1  0  0  0  0
 76225  1  0  0  0  0
 76226  1  0  0  0  0
 77 78  1  0  0  0  0
 77227  1  0  0  0  0
 77228  1  0  0  0  0
 78 79  1  0  0  0  0
 78229  1  0  0  0  0
 78230  1  0  0  0  0
 79 80  1  0  0  0  0
 79231  1  0  0  0  0
 79232  1  0  0  0  0
 80 81  1  0  0  0  0
 80233  1  0  0  0  0
 80234  1  0  0  0  0
 81235  1  0  0  0  0
 81236  1  0  0  0  0
 81237  1  0  0  0  0
M  END
$$$$
