
 OpenBabel04232216563D

 94 93  0  0  0  0  0  0  0  0999 V2000
    1.0922   -0.0961    1.1076 C   0  0  0  0  0  0  0  0  0  0  0  0
    2.5495   -0.0248    0.9914 N   0  0  0  0  0  0  0  0  0  0  0  0
    2.9457    0.1770   -0.4108 C   0  0  0  0  0  0  0  0  0  0  0  0
    4.4800    0.2148   -0.4713 C   0  0  0  0  0  0  0  0  0  0  0  0
    4.9025    0.3872   -1.9250 C   0  0  0  0  0  0  0  0  0  0  0  0
    6.4088    0.3787   -2.0447 C   0  0  0  0  0  0  0  0  0  0  0  0
    6.7630    0.4623   -3.4137 O   0  0  0  0  0  0  0  0  0  0  0  0
    8.0202    1.1786   -3.4175 O   0  0  0  0  0  0  0  0  0  0  0  0
    8.4576    1.4111   -4.7700 O   0  0  0  0  0  0  0  0  0  0  0  0
    9.6242    0.6081   -5.0660 O   0  0  0  0  0  0  0  0  0  0  0  0
   10.1381    0.9363   -6.3776 O   0  0  0  0  0  0  0  0  0  0  0  0
   11.3268    1.7564   -6.2683 O   0  0  0  0  0  0  0  0  0  0  0  0
   11.9545    1.9034   -7.5655 O   0  0  0  0  0  0  0  0  0  0  0  0
   13.1314    1.0637   -7.6614 O   0  0  0  0  0  0  0  0  0  0  0  0
   13.8171    1.2995   -8.9154 O   0  0  0  0  0  0  0  0  0  0  0  0
   14.9673    2.1565   -8.7130 O   0  0  0  0  0  0  0  0  0  0  0  0
   15.6391    2.3979   -9.9721 O   0  0  0  0  0  0  0  0  0  0  0  0
   16.7279    1.4597  -10.1528 O   0  0  0  0  0  0  0  0  0  0  0  0
   17.4168    1.7283  -11.3962 O   0  0  0  0  0  0  0  0  0  0  0  0
   18.4516    2.7194  -11.1904 O   0  0  0  0  0  0  0  0  0  0  0  0
   19.2027    2.9217  -12.4081 O   0  0  0  0  0  0  0  0  0  0  0  0
   20.3379    2.0265  -12.4428 O   0  0  0  0  0  0  0  0  0  0  0  0
   20.9682    2.0632  -13.7398 O   0  0  0  0  0  0  0  0  0  0  0  0
   22.0312    3.0430  -13.7494 O   0  0  0  0  0  0  0  0  0  0  0  0
   22.4664    3.2751  -15.1049 O   0  0  0  0  0  0  0  0  0  0  0  0
   23.6984    2.5713  -15.3615 O   0  0  0  0  0  0  0  0  0  0  0  0
   24.7118    3.5037  -15.7941 O   0  0  0  0  0  0  0  0  0  0  0  0
   25.9226    2.7983  -16.1311 O   0  0  0  0  0  0  0  0  0  0  0  0
   26.1039    2.8053  -17.5594 O   0  0  0  0  0  0  0  0  0  0  0  0
   27.0877    3.7882  -17.9333 O   0  0  0  0  0  0  0  0  0  0  0  0
   28.1757    3.1309  -18.6108 O   0  0  0  0  0  0  0  0  0  0  0  0
   29.4181    3.8014  -18.3337 O   0  0  0  0  0  0  0  0  0  0  0  0
   29.9169    4.4004  -19.5383 O   0  0  0  0  0  0  0  0  0  0  0  0
   30.9118    3.5496  -20.1331 O   0  0  0  0  0  0  0  0  0  0  0  0
   31.3220    4.1321  -21.3739 O   0  0  0  0  0  0  0  0  0  0  0  0
   32.7293    4.4110  -21.3657 O   0  0  0  0  0  0  0  0  0  0  0  0
   33.3217    3.7913  -22.5238 O   0  0  0  0  0  0  0  0  0  0  0  0
   34.7346    4.0123  -22.5289 O   0  0  0  0  0  0  0  0  0  0  0  0
   35.0496    5.1654  -23.3326 O   0  0  0  0  0  0  0  0  0  0  0  0
   36.4461    5.1467  -23.6676 O   0  0  0  0  0  0  0  0  0  0  0  0
   36.6498    4.3441  -24.8507 O   0  0  0  0  0  0  0  0  0  0  0  0
   38.0524    4.1913  -25.1122 O   0  0  0  0  0  0  0  0  0  0  0  0
   38.5037    5.2976  -25.9270 O   0  0  0  0  0  0  0  0  0  0  0  0
   39.9365    5.3754  -25.8484 O   0  0  0  0  0  0  0  0  0  0  0  0
   40.5289    5.0317  -27.1054 O   0  0  0  0  0  0  0  0  0  0  0  0
   41.7961    5.7043  -27.1653 O   0  0  0  0  0  0  0  0  0  0  0  0
   42.2298    5.8289  -28.5265 O   0  0  0  0  0  0  0  0  0  0  0  0
   43.3100    4.9097  -28.7471 O   0  0  0  0  0  0  0  0  0  0  0  0
   44.0247    5.2916  -29.9268 O   0  0  0  0  0  0  0  0  0  0  0  0
   45.0467    6.2416  -29.5817 O   0  0  0  0  0  0  0  0  0  0  0  0
   45.7568    6.6282  -30.7592 O   0  0  0  0  0  0  0  0  0  0  0  0
   46.8440    5.7183  -30.9808 O   0  0  0  0  0  0  0  0  0  0  0  0
   47.2885    5.8696  -32.3170 O   0  0  0  0  0  0  0  0  0  0  0  0
   48.5364    6.5572  -32.3566 O   0  0  0  0  0  0  0  0  0  0  0  0
   49.0760    6.2867  -33.6442 O   0  0  0  0  0  0  0  0  0  0  0  0
   50.4883    6.2107  -33.6202 O   0  0  0  0  0  0  0  0  0  0  0  0
   50.9560    7.1550  -34.5799 O   0  0  0  0  0  0  0  0  0  0  0  0
   52.3653    7.1599  -34.5906 O   0  0  0  0  0  0  0  0  0  0  0  0
   52.8429    6.6957  -35.8501 O   0  0  0  0  0  0  0  0  0  0  0  0
   54.2530    6.8132  -35.8013 O   0  0  0  0  0  0  0  0  0  0  0  0
   54.7784    7.4417  -36.9638 O   0  0  0  0  0  0  0  0  0  0  0  0
   56.0264    6.7945  -37.2289 O   0  0  0  0  0  0  0  0  0  0  0  0
   56.5071    7.1187  -38.5333 O   0  0  0  0  0  0  0  0  0  0  0  0
   57.6413    7.9860  -38.3999 O   0  0  0  0  0  0  0  0  0  0  0  0
   58.2427    8.1816  -39.6856 O   0  0  0  0  0  0  0  0  0  0  0  0
   59.3497    7.2734  -39.8584 O   0  0  0  0  0  0  0  0  0  0  0  0
   60.0220    7.5570  -41.1019 O   0  0  0  0  0  0  0  0  0  0  0  0
   61.1941    8.3683  -40.8616 O   0  0  0  0  0  0  0  0  0  0  0  0
   61.8428    8.6934  -42.1124 O   0  0  0  0  0  0  0  0  0  0  0  0
   63.0204    7.8712  -42.2924 O   0  0  0  0  0  0  0  0  0  0  0  0
   63.6277    8.1288  -43.5809 O   0  0  0  0  0  0  0  0  0  0  0  0
   64.9221    8.7543  -43.4071 O   0  0  0  0  0  0  0  0  0  0  0  0
   65.5222    9.0546  -44.6910 O   0  0  0  0  0  0  0  0  0  0  0  0
   66.8484    8.4768  -44.7701 O   0  0  0  0  0  0  0  0  0  0  0  0
   67.4052    8.6501  -46.0958 O   0  0  0  0  0  0  0  0  0  0  0  0
   68.7161    9.2655  -46.0170 O   0  0  0  0  0  0  0  0  0  0  0  0
   69.2083    9.5734  -47.3432 O   0  0  0  0  0  0  0  0  0  0  0  0
   70.4306    8.8461  -47.6256 O   0  0  0  0  0  0  0  0  0  0  0  0
   71.0789    9.4109  -48.7947 O   0  0  0  0  0  0  0  0  0  0  0  0
   72.5128    9.4965  -48.6059 O   0  0  0  0  0  0  0  0  0  0  0  0
   72.8594   10.6500  -47.8008 O   0  0  0  0  0  0  0  0  0  0  0  0
    0.8243   -0.3582    2.1307 H   0  0  0  0  0  0  0  0  0  0  0  0
    0.6902   -0.8620    0.4314 H   0  0  0  0  0  0  0  0  0  0  0  0
    0.6636    0.8444    0.8681 H   0  0  0  0  0  0  0  0  0  0  0  0
    2.9665   -0.9112    1.3336 H   0  0  0  0  0  0  0  0  0  0  0  0
    2.5783    1.1358   -0.8161 H   0  0  0  0  0  0  0  0  0  0  0  0
    2.5313   -0.6600   -1.0337 H   0  0  0  0  0  0  0  0  0  0  0  0
    4.8726   -0.7570   -0.1109 H   0  0  0  0  0  0  0  0  0  0  0  0
    4.8561    0.9997    0.1313 H   0  0  0  0  0  0  0  0  0  0  0  0
    4.5109    1.3419   -2.3147 H   0  0  0  0  0  0  0  0  0  0  0  0
    4.4697   -0.3965   -2.5679 H   0  0  0  0  0  0  0  0  0  0  0  0
    6.8445   -0.5572   -1.6449 H   0  0  0  0  0  0  0  0  0  0  0  0
    6.8102    1.2282   -1.4803 H   0  0  0  0  0  0  0  0  0  0  0  0
   73.7653   10.3565  -47.6032 H   0  0  0  0  0  0  0  0  0  0  0  0
  1  2  1  0  0  0  0
  1 82  1  0  0  0  0
  1 83  1  0  0  0  0
  1 84  1  0  0  0  0
  2  3  1  0  0  0  0
  2 85  1  0  0  0  0
  3  4  1  0  0  0  0
  3 86  1  0  0  0  0
  3 87  1  0  0  0  0
  4  5  1  0  0  0  0
  4 88  1  0  0  0  0
  4 89  1  0  0  0  0
  5  6  1  0  0  0  0
  5 90  1  0  0  0  0
  5 91  1  0  0  0  0
  6  7  1  0  0  0  0
  6 92  1  0  0  0  0
  6 93  1  0  0  0  0
  7  8  1  0  0  0  0
  8  9  1  0  0  0  0
  9 10  1  0  0  0  0
 10 11  1  0  0  0  0
 11 12  1  0  0  0  0
 12 13  1  0  0  0  0
 13 14  1  0  0  0  0
 14 15  1  0  0  0  0
 15 16  1  0  0  0  0
 16 17  1  0  0  0  0
 17 18  1  0  0  0  0
 18 19  1  0  0  0  0
 19 20  1  0  0  0  0
 20 21  1  0  0  0  0
 21 22  1  0  0  0  0
 22 23  1  0  0  0  0
 23 24  1  0  0  0  0
 24 25  1  0  0  0  0
 25 26  1  0  0  0  0
 26 27  1  0  0  0  0
 27 28  1  0  0  0  0
 28 29  1  0  0  0  0
 29 30  1  0  0  0  0
 30 31  1  0  0  0  0
 31 32  1  0  0  0  0
 32 33  1  0  0  0  0
 33 34  1  0  0  0  0
 34 35  1  0  0  0  0
 35 36  1  0  0  0  0
 36 37  1  0  0  0  0
 37 38  1  0  0  0  0
 38 39  1  0  0  0  0
 39 40  1  0  0  0  0
 40 41  1  0  0  0  0
 41 42  1  0  0  0  0
 42 43  1  0  0  0  0
 43 44  1  0  0  0  0
 44 45  1  0  0  0  0
 45 46  1  0  0  0  0
 46 47  1  0  0  0  0
 47 48  1  0  0  0  0
 48 49  1  0  0  0  0
 49 50  1  0  0  0  0
 50 51  1  0  0  0  0
 51 52  1  0  0  0  0
 52 53  1  0  0  0  0
 53 54  1  0  0  0  0
 54 55  1  0  0  0  0
 55 56  1  0  0  0  0
 56 57  1  0  0  0  0
 57 58  1  0  0  0  0
 58 59  1  0  0  0  0
 59 60  1  0  0  0  0
 60 61  1  0  0  0  0
 61 62  1  0  0  0  0
 62 63  1  0  0  0  0
 63 64  1  0  0  0  0
 64 65  1  0  0  0  0
 65 66  1  0  0  0  0
 66 67  1  0  0  0  0
 67 68  1  0  0  0  0
 68 69  1  0  0  0  0
 69 70  1  0  0  0  0
 70 71  1  0  0  0  0
 71 72  1  0  0  0  0
 72 73  1  0  0  0  0
 73 74  1  0  0  0  0
 74 75  1  0  0  0  0
 75 76  1  0  0  0  0
 76 77  1  0  0  0  0
 77 78  1  0  0  0  0
 78 79  1  0  0  0  0
 79 80  1  0  0  0  0
 80 81  1  0  0  0  0
 81 94  1  0  0  0  0
M  END
$$$$
