
 OpenBabel04232216483D

 50 53  0  0  0  0  0  0  0  0999 V2000
    2.5828    0.0751    0.0440 C   0  0  0  0  0  0  0  0  0  0  0  0
    1.0864    0.0386   -0.0186 C   0  0  0  0  0  0  0  0  0  0  0  0
    0.3530    1.1154   -0.5091 C   0  0  0  0  0  0  0  0  0  0  0  0
   -1.0484    1.0760   -0.5225 C   0  0  0  0  0  0  0  0  0  0  0  0
   -1.7745   -0.0445   -0.0680 C   0  0  0  0  0  0  0  0  0  0  0  0
   -3.2008   -0.0710   -0.0654 N   0  0  0  0  0  0  0  0  0  0  0  0
   -3.8180    0.7189   -1.1380 C   0  0  0  0  0  0  0  0  0  0  0  0
   -5.3262    0.5780   -1.2724 C   0  0  0  0  0  0  0  0  0  0  0  0
   -5.9854    0.0830   -0.0791 N   0  0  0  0  0  0  0  0  0  0  0  0
   -7.3952    0.0784   -0.1303 C   0  0  0  0  0  0  0  0  0  0  0  0
   -8.0307    0.6136   -1.2060 N   0  0  0  0  0  0  0  0  0  0  0  0
   -9.3865    0.6256   -1.1859 C   0  0  0  0  0  0  0  0  0  0  0  0
  -10.1355    0.1211   -0.1327 C   0  0  0  0  0  0  0  0  0  0  0  0
  -11.6282    0.2035   -0.1314 C   0  0  0  0  0  0  0  0  0  0  0  0
   -9.5333   -0.4263    0.9448 N   0  0  0  0  0  0  0  0  0  0  0  0
   -8.1694   -0.4344    0.9187 C   0  0  0  0  0  0  0  0  0  0  0  0
   -5.3342   -0.5429    0.9360 N   0  0  0  0  0  0  0  0  0  0  0  0
   -4.0297   -0.5892    0.9404 C   0  0  0  0  0  0  0  0  0  0  0  0
   -3.4287   -1.2554    2.1891 C   0  0  0  0  0  0  0  0  0  0  0  0
   -4.4086   -1.6780    3.2857 C   0  0  0  0  0  0  0  0  0  0  0  0
   -3.6653   -2.3353    4.4235 C   0  0  0  0  0  0  0  0  0  0  0  0
   -3.1432   -1.7456    5.5582 C   0  0  0  0  0  0  0  0  0  0  0  0
   -2.4721   -2.6815    6.3987 C   0  0  0  0  0  0  0  0  0  0  0  0
   -2.5009   -3.9555    5.8780 C   0  0  0  0  0  0  0  0  0  0  0  0
   -3.3384   -4.0199    4.3887 S   0  0  0  0  0  0  0  0  0  0  0  0
   -1.0043   -1.1343    0.3588 C   0  0  0  0  0  0  0  0  0  0  0  0
    0.3947   -1.0866    0.4232 C   0  0  0  0  0  0  0  0  0  0  0  0
    2.9834    0.9708   -0.4420 H   0  0  0  0  0  0  0  0  0  0  0  0
    3.0023   -0.7971   -0.4676 H   0  0  0  0  0  0  0  0  0  0  0  0
    2.9159    0.0752    1.0867 H   0  0  0  0  0  0  0  0  0  0  0  0
    0.8588    2.0041   -0.8792 H   0  0  0  0  0  0  0  0  0  0  0  0
   -1.5493    1.9669   -0.8861 H   0  0  0  0  0  0  0  0  0  0  0  0
   -3.3744    0.4374   -2.1027 H   0  0  0  0  0  0  0  0  0  0  0  0
   -3.6131    1.7846   -0.9824 H   0  0  0  0  0  0  0  0  0  0  0  0
   -5.5591   -0.0656   -2.1299 H   0  0  0  0  0  0  0  0  0  0  0  0
   -5.7124    1.5782   -1.5165 H   0  0  0  0  0  0  0  0  0  0  0  0
   -9.8553    1.0693   -2.0568 H   0  0  0  0  0  0  0  0  0  0  0  0
  -12.0146    0.5346   -1.1009 H   0  0  0  0  0  0  0  0  0  0  0  0
  -11.9597    0.9153    0.6310 H   0  0  0  0  0  0  0  0  0  0  0  0
  -12.0580   -0.7787    0.0870 H   0  0  0  0  0  0  0  0  0  0  0  0
   -7.7000   -0.8745    1.7902 H   0  0  0  0  0  0  0  0  0  0  0  0
   -2.6819   -0.5721    2.6105 H   0  0  0  0  0  0  0  0  0  0  0  0
   -2.9333   -2.1698    1.8638 H   0  0  0  0  0  0  0  0  0  0  0  0
   -5.1554   -2.3741    2.8814 H   0  0  0  0  0  0  0  0  0  0  0  0
   -4.9636   -0.8113    3.6647 H   0  0  0  0  0  0  0  0  0  0  0  0
   -3.2314   -0.6875    5.7730 H   0  0  0  0  0  0  0  0  0  0  0  0
   -1.9901   -2.4328    7.3360 H   0  0  0  0  0  0  0  0  0  0  0  0
   -2.0706   -4.8537    6.2999 H   0  0  0  0  0  0  0  0  0  0  0  0
   -1.4635   -2.0796    0.6249 H   0  0  0  0  0  0  0  0  0  0  0  0
    0.9360   -1.9477    0.8094 H   0  0  0  0  0  0  0  0  0  0  0  0
  1  2  1  0  0  0  0
  1 28  1  0  0  0  0
  1 29  1  0  0  0  0
  1 30  1  0  0  0  0
  2  3  1  0  0  0  0
  2 27  2  0  0  0  0
  3  4  2  0  0  0  0
  3 31  1  0  0  0  0
  4  5  1  0  0  0  0
  4 32  1  0  0  0  0
  5  6  1  0  0  0  0
  5 26  2  0  0  0  0
  6  7  1  0  0  0  0
  6 18  1  0  0  0  0
  7  8  1  0  0  0  0
  7 33  1  0  0  0  0
  7 34  1  0  0  0  0
  8  9  1  0  0  0  0
  8 35  1  0  0  0  0
  8 36  1  0  0  0  0
  9 10  1  0  0  0  0
  9 17  1  0  0  0  0
 10 11  1  0  0  0  0
 10 16  2  0  0  0  0
 11 12  2  0  0  0  0
 12 13  1  0  0  0  0
 12 37  1  0  0  0  0
 13 14  1  0  0  0  0
 13 15  2  0  0  0  0
 14 38  1  0  0  0  0
 14 39  1  0  0  0  0
 14 40  1  0  0  0  0
 15 16  1  0  0  0  0
 16 41  1  0  0  0  0
 17 18  2  0  0  0  0
 18 19  1  0  0  0  0
 19 20  1  0  0  0  0
 19 42  1  0  0  0  0
 19 43  1  0  0  0  0
 20 21  1  0  0  0  0
 20 44  1  0  0  0  0
 20 45  1  0  0  0  0
 21 22  2  0  0  0  0
 21 25  1  0  0  0  0
 22 23  1  0  0  0  0
 22 46  1  0  0  0  0
 23 24  2  0  0  0  0
 23 47  1  0  0  0  0
 24 25  1  0  0  0  0
 24 48  1  0  0  0  0
 26 27  1  0  0  0  0
 26 49  1  0  0  0  0
 27 50  1  0  0  0  0
M  END
$$$$
