
 OpenBabel04232216423D

 54 56  0  0  0  0  0  0  0  0999 V2000
    5.0625    1.7983   -5.7131 C   0  0  0  0  0  0  0  0  0  0  0  0
    5.8266    1.3839   -4.6856 C   0  0  0  0  0  0  0  0  0  0  0  0
    7.0849    0.9182   -5.2408 C   0  0  0  0  0  0  0  0  0  0  0  0
    8.0794    0.3345   -4.5434 C   0  0  0  0  0  0  0  0  0  0  0  0
    8.0966    0.1167   -3.0232 C   0  0  0  0  0  0  0  0  0  0  0  0
    7.5466   -1.2624   -2.4843 C   0  0  0  0  0  0  0  0  0  0  0  0
    7.6145   -1.4398   -0.9179 C   0  0  0  0  0  0  0  0  0  0  0  0
    7.1771   -2.7990   -0.1837 C   0  0  0  0  0  0  0  0  0  0  0  0
    7.8891   -4.3842   -0.5072 C   0  0  0  0  0  0  0  0  0  0  0  0
    9.4448   -5.2754   -0.4087 C   0  0  0  0  0  0  0  0  0  0  0  0
   10.2185   -4.7158    0.6989 C   0  0  0  0  0  0  0  0  0  0  0  0
   11.2492   -3.8786    0.3943 C   0  0  0  0  0  0  0  0  0  0  0  0
   12.4520   -4.5488   -0.0990 C   0  0  0  0  0  0  0  0  0  0  0  0
   13.6032   -4.1511   -0.6605 C   0  0  0  0  0  0  0  0  0  0  0  0
   14.4026   -5.2433   -1.1332 C   0  0  0  0  0  0  0  0  0  0  0  0
   15.7137   -5.4921   -1.1019 C   0  0  0  0  0  0  0  0  0  0  0  0
   16.7545   -4.4454   -0.9742 C   0  0  0  0  0  0  0  0  0  0  0  0
   15.9884   -6.8653   -1.0039 C   0  0  0  0  0  0  0  0  0  0  0  0
   16.7816   -7.8481   -0.8460 C   0  0  0  0  0  0  0  0  0  0  0  0
   15.3689   -8.1999   -1.1273 C   0  0  0  0  0  0  0  0  0  0  0  0
   14.0203   -8.1901   -0.9375 C   0  0  0  0  0  0  0  0  0  0  0  0
   12.4999   -8.0915   -0.6937 C   0  0  0  0  0  0  0  0  0  0  0  0
   11.2489   -7.4527   -0.7491 C   0  0  0  0  0  0  0  0  0  0  0  0
   10.2182   -6.1967   -1.1890 C   0  0  0  0  0  0  0  0  0  0  0  0
    7.0300    1.1609   -6.6786 C   0  0  0  0  0  0  0  0  0  0  0  0
    5.8110    1.6642   -6.9478 C   0  0  0  0  0  0  0  0  0  0  0  0
    4.0553    2.1784   -5.6438 H   0  0  0  0  0  0  0  0  0  0  0  0
    5.5541    1.3755   -3.6453 H   0  0  0  0  0  0  0  0  0  0  0  0
    8.9772    0.0352   -5.0884 H   0  0  0  0  0  0  0  0  0  0  0  0
    7.5377    0.9398   -2.5612 H   0  0  0  0  0  0  0  0  0  0  0  0
    9.1364    0.2466   -2.6934 H   0  0  0  0  0  0  0  0  0  0  0  0
    8.1274   -2.0595   -2.9527 H   0  0  0  0  0  0  0  0  0  0  0  0
    6.5093   -1.3534   -2.8330 H   0  0  0  0  0  0  0  0  0  0  0  0
    7.0164   -0.6026   -0.4927 H   0  0  0  0  0  0  0  0  0  0  0  0
    8.6367   -1.2441   -0.5931 H   0  0  0  0  0  0  0  0  0  0  0  0
    6.0640   -2.8778   -0.3266 H   0  0  0  0  0  0  0  0  0  0  0  0
    7.1966   -2.6063    0.9160 H   0  0  0  0  0  0  0  0  0  0  0  0
    7.3832   -4.6797   -1.4313 H   0  0  0  0  0  0  0  0  0  0  0  0
    7.3340   -4.9368    0.2924 H   0  0  0  0  0  0  0  0  0  0  0  0
    9.6169   -4.5506    1.5853 H   0  0  0  0  0  0  0  0  0  0  0  0
   11.0338   -3.1318   -0.3835 H   0  0  0  0  0  0  0  0  0  0  0  0
   12.3566   -5.6208    0.0204 H   0  0  0  0  0  0  0  0  0  0  0  0
   13.9498   -3.1396   -0.7491 H   0  0  0  0  0  0  0  0  0  0  0  0
   13.7717   -6.0654   -1.4444 H   0  0  0  0  0  0  0  0  0  0  0  0
   16.2771   -3.4625   -0.9405 H   0  0  0  0  0  0  0  0  0  0  0  0
   17.3829   -4.4575   -1.8715 H   0  0  0  0  0  0  0  0  0  0  0  0
   17.3801   -4.5488   -0.0863 H   0  0  0  0  0  0  0  0  0  0  0  0
   17.8496   -7.9515   -0.7458 H   0  0  0  0  0  0  0  0  0  0  0  0
   14.1112   -7.6489    0.0181 H   0  0  0  0  0  0  0  0  0  0  0  0
   12.3824   -9.1140   -0.2852 H   0  0  0  0  0  0  0  0  0  0  0  0
   10.5157   -8.1708   -0.3470 H   0  0  0  0  0  0  0  0  0  0  0  0
   10.3978   -5.8995   -2.2259 H   0  0  0  0  0  0  0  0  0  0  0  0
    7.8045    0.9713   -7.4047 H   0  0  0  0  0  0  0  0  0  0  0  0
    5.4200    1.9478   -7.9147 H   0  0  0  0  0  0  0  0  0  0  0  0
  1  2  2  0  0  0  0
  1 26  1  0  0  0  0
  1 27  1  0  0  0  0
  2  3  1  0  0  0  0
  2 28  1  0  0  0  0
  3  4  2  3  0  0  0
  3 25  1  0  0  0  0
  4  5  1  0  0  0  0
  4 29  1  0  0  0  0
  5  6  1  0  0  0  0
  5 30  1  0  0  0  0
  5 31  1  0  0  0  0
  6  7  1  0  0  0  0
  6 32  1  0  0  0  0
  6 33  1  0  0  0  0
  7  8  1  0  0  0  0
  7 34  1  0  0  0  0
  7 35  1  0  0  0  0
  8  9  1  0  0  0  0
  8 36  1  0  0  0  0
  8 37  1  0  0  0  0
  9 10  1  0  0  0  0
  9 38  1  0  0  0  0
  9 39  1  0  0  0  0
 10 11  1  0  0  0  0
 10 24  2  0  0  0  0
 11 12  2  0  0  0  0
 11 40  1  0  0  0  0
 12 13  1  0  0  0  0
 12 41  1  0  0  0  0
 13 14  2  0  0  0  0
 13 42  1  0  0  0  0
 14 15  1  0  0  0  0
 14 43  1  0  0  0  0
 15 16  2  0  0  0  0
 15 44  1  0  0  0  0
 16 17  1  0  0  0  0
 16 18  1  0  0  0  0
 17 45  1  0  0  0  0
 17 46  1  0  0  0  0
 17 47  1  0  0  0  0
 18 19  2  0  0  0  0
 18 20  1  0  0  0  0
 19 20  1  0  0  0  0
 19 48  1  0  0  0  0
 20 21  2  0  0  0  0
 21 22  1  0  0  0  0
 21 49  1  0  0  0  0
 22 23  2  0  0  0  0
 22 50  1  0  0  0  0
 23 24  1  0  0  0  0
 23 51  1  0  0  0  0
 24 52  1  0  0  0  0
 25 26  2  0  0  0  0
 25 53  1  0  0  0  0
 26 54  1  0  0  0  0
M  END
$$$$
