
 OpenBabel04232216593D

194193  0  0  0  0  0  0  0  0999 V2000
   13.1644   -7.3223   -1.4294 O   0  0  0  0  0  0  0  0  0  0  0  0
   13.8973   -6.6478   -2.1403 C   0  0  0  0  0  0  0  0  0  0  0  0
   14.0959   -6.9319   -3.6097 C   0  0  0  0  0  0  0  0  0  0  0  0
   13.2196   -8.0997   -4.0200 C   0  0  0  0  0  0  0  0  0  0  0  0
   14.6852   -5.5262   -1.5303 C   0  0  0  0  0  0  0  0  0  0  0  0
   14.3053   -4.3142   -2.1655 O   0  0  0  0  0  0  0  0  0  0  0  0
   15.0669   -3.2638   -1.6137 C   0  0  0  0  0  0  0  0  0  0  0  0
   16.4261   -3.5328   -1.8449 O   0  0  0  0  0  0  0  0  0  0  0  0
   17.1086   -2.4854   -1.1769 O   0  0  0  0  0  0  0  0  0  0  0  0
   18.4935   -2.7273   -1.3053 O   0  0  0  0  0  0  0  0  0  0  0  0
   19.2027   -1.6533   -0.7309 O   0  0  0  0  0  0  0  0  0  0  0  0
   20.5803   -1.9255   -0.8858 O   0  0  0  0  0  0  0  0  0  0  0  0
   21.3128   -0.8675   -0.3033 O   0  0  0  0  0  0  0  0  0  0  0  0
   22.6939   -1.1601   -0.4655 O   0  0  0  0  0  0  0  0  0  0  0  0
   23.3178   -0.0657    0.1324 C   0  0  0  0  0  0  0  0  0  0  0  0
   24.6899   -0.2784    0.0011 O   0  0  0  0  0  0  0  0  0  0  0  0
   25.3765    0.7862    0.5881 C   0  0  0  0  0  0  0  0  0  0  0  0
   26.7574    0.5286    0.4496 O   0  0  0  0  0  0  0  0  0  0  0  0
   27.4962    1.5851    1.0430 C   0  0  0  0  0  0  0  0  0  0  0  0
   27.1867    1.6687    2.4270 O   0  0  0  0  0  0  0  0  0  0  0  0
   27.8937    2.7491    2.9983 C   0  0  0  0  0  0  0  0  0  0  0  0
   27.5451    3.9594    2.3378 O   0  0  0  0  0  0  0  0  0  0  0  0
   28.2934    5.0428    2.8760 C   0  0  0  0  0  0  0  0  0  0  0  0
   29.6884    4.8119    2.7049 O   0  0  0  0  0  0  0  0  0  0  0  0
   30.4339    5.8670    3.2938 C   0  0  0  0  0  0  0  0  0  0  0  0
   30.1463    5.9836    4.6846 O   0  0  0  0  0  0  0  0  0  0  0  0
   30.8523    7.0789    5.2467 C   0  0  0  0  0  0  0  0  0  0  0  0
   30.5057    8.3019    4.6010 O   0  0  0  0  0  0  0  0  0  0  0  0
   31.2577    9.3692    5.1374 C   0  0  0  0  0  0  0  0  0  0  0  0
   32.6482    9.1420    4.9572 O   0  0  0  0  0  0  0  0  0  0  0  0
   33.3708   10.1893    5.5505 C   0  0  0  0  0  0  0  0  0  0  0  0
   33.0639   10.2965    6.9375 O   0  0  0  0  0  0  0  0  0  0  0  0
   33.7586   11.3875    7.5205 C   0  0  0  0  0  0  0  0  0  0  0  0
   33.4036   12.6149    6.8892 O   0  0  0  0  0  0  0  0  0  0  0  0
   34.1341   13.6943    7.4508 C   0  0  0  0  0  0  0  0  0  0  0  0
   35.5346   13.5024    7.3040 O   0  0  0  0  0  0  0  0  0  0  0  0
   36.2387   14.5660    7.9157 C   0  0  0  0  0  0  0  0  0  0  0  0
   37.7209   14.3001    7.7744 C   0  0  0  0  0  0  0  0  0  0  0  0
   38.4942   15.4442    8.4011 C   0  0  0  0  0  0  0  0  0  0  0  0
   39.9855   15.2064    8.2712 C   0  0  0  0  0  0  0  0  0  0  0  0
   40.7467   16.3588    8.9004 C   0  0  0  0  0  0  0  0  0  0  0  0
   42.2391   16.1214    8.7708 C   0  0  0  0  0  0  0  0  0  0  0  0
   43.0014   17.2724    9.3992 C   0  0  0  0  0  0  0  0  0  0  0  0
   44.4936   17.0334    9.2687 C   0  0  0  0  0  0  0  0  0  0  0  0
   45.2563   18.1840    9.8970 C   0  0  0  0  0  0  0  0  0  0  0  0
   46.7484   17.9449    9.7665 C   0  0  0  0  0  0  0  0  0  0  0  0
   47.5109   19.0956   10.3947 C   0  0  0  0  0  0  0  0  0  0  0  0
   49.0029   18.8565   10.2642 C   0  0  0  0  0  0  0  0  0  0  0  0
   49.7654   20.0082   10.8907 C   0  0  0  0  0  0  0  0  0  0  0  0
   51.2573   19.7700   10.7584 C   0  0  0  0  0  0  0  0  0  0  0  0
   52.0198   20.9226   11.3832 C   0  0  0  0  0  0  0  0  0  0  0  0
   53.5118   20.6845   11.2508 C   0  0  0  0  0  0  0  0  0  0  0  0
   54.2742   21.8362   11.8773 C   0  0  0  0  0  0  0  0  0  0  0  0
   55.7662   21.5990   11.7432 C   0  0  0  0  0  0  0  0  0  0  0  0
   56.5286   22.7516   12.3680 C   0  0  0  0  0  0  0  0  0  0  0  0
   58.0206   22.5144   12.2338 C   0  0  0  0  0  0  0  0  0  0  0  0
   58.7830   23.6680   12.8568 C   0  0  0  0  0  0  0  0  0  0  0  0
   60.2750   23.4308   12.7227 C   0  0  0  0  0  0  0  0  0  0  0  0
   61.0374   24.5844   13.3457 C   0  0  0  0  0  0  0  0  0  0  0  0
   62.5294   24.3472   13.2116 C   0  0  0  0  0  0  0  0  0  0  0  0
   63.2918   25.5008   13.8345 C   0  0  0  0  0  0  0  0  0  0  0  0
   64.7838   25.2636   13.7004 C   0  0  0  0  0  0  0  0  0  0  0  0
   65.5462   26.4172   14.3234 C   0  0  0  0  0  0  0  0  0  0  0  0
   67.0382   26.1801   14.1893 C   0  0  0  0  0  0  0  0  0  0  0  0
   67.8006   27.3336   14.8123 C   0  0  0  0  0  0  0  0  0  0  0  0
   69.2925   27.0964   14.6782 C   0  0  0  0  0  0  0  0  0  0  0  0
   70.0550   28.2491   15.3029 C   0  0  0  0  0  0  0  0  0  0  0  0
   71.5470   28.0119   15.1688 C   0  0  0  0  0  0  0  0  0  0  0  0
   72.3095   29.1646   15.7936 C   0  0  0  0  0  0  0  0  0  0  0  0
   73.8016   28.9275   15.6596 C   0  0  0  0  0  0  0  0  0  0  0  0
   74.5643   30.0803   16.2844 C   0  0  0  0  0  0  0  0  0  0  0  0
   76.0568   29.8437   16.1506 C   0  0  0  0  0  0  0  0  0  0  0  0
   76.8203   30.9976   16.7737 C   0  0  0  0  0  0  0  0  0  0  0  0
   78.3140   30.7622   16.6407 C   0  0  0  0  0  0  0  0  0  0  0  0
   79.0798   31.9168   17.2641 C   0  0  0  0  0  0  0  0  0  0  0  0
   80.5759   31.6824   17.1337 C   0  0  0  0  0  0  0  0  0  0  0  0
   81.3523   32.8350   17.7539 C   0  0  0  0  0  0  0  0  0  0  0  0
   82.8440   32.5983   17.6224 C   0  0  0  0  0  0  0  0  0  0  0  0
   15.1493   -7.1725   -3.7892 H   0  0  0  0  0  0  0  0  0  0  0  0
   13.8363   -6.0412   -4.1945 H   0  0  0  0  0  0  0  0  0  0  0  0
   13.4738   -8.9988   -3.4582 H   0  0  0  0  0  0  0  0  0  0  0  0
   13.3472   -8.3212   -5.0950 H   0  0  0  0  0  0  0  0  0  0  0  0
   12.1638   -7.8756   -3.8451 H   0  0  0  0  0  0  0  0  0  0  0  0
   15.7508   -5.7570   -1.6495 H   0  0  0  0  0  0  0  0  0  0  0  0
   14.4554   -5.4636   -0.4612 H   0  0  0  0  0  0  0  0  0  0  0  0
   14.8658   -3.1622   -0.5387 H   0  0  0  0  0  0  0  0  0  0  0  0
   14.8199   -2.3212   -2.1127 H   0  0  0  0  0  0  0  0  0  0  0  0
   23.0182   -0.0099    1.1915 H   0  0  0  0  0  0  0  0  0  0  0  0
   23.0100    0.8566   -0.3803 H   0  0  0  0  0  0  0  0  0  0  0  0
   25.0967    0.8446    1.6502 H   0  0  0  0  0  0  0  0  0  0  0  0
   25.1115    1.7247    0.0838 H   0  0  0  0  0  0  0  0  0  0  0  0
   27.2449    2.5094    0.5084 H   0  0  0  0  0  0  0  0  0  0  0  0
   28.5573    1.3664    0.9059 H   0  0  0  0  0  0  0  0  0  0  0  0
   28.9642    2.5370    2.9028 H   0  0  0  0  0  0  0  0  0  0  0  0
   27.6321    2.8140    4.0580 H   0  0  0  0  0  0  0  0  0  0  0  0
   28.0299    5.1416    3.9354 H   0  0  0  0  0  0  0  0  0  0  0  0
   28.0061    5.9565    2.3476 H   0  0  0  0  0  0  0  0  0  0  0  0
   30.1864    6.7903    2.7589 H   0  0  0  0  0  0  0  0  0  0  0  0
   31.4992    5.6525    3.1589 H   0  0  0  0  0  0  0  0  0  0  0  0
   31.9237    6.8680    5.1535 H   0  0  0  0  0  0  0  0  0  0  0  0
   30.5950    7.1407    6.3088 H   0  0  0  0  0  0  0  0  0  0  0  0
   30.9897    9.4707    6.1955 H   0  0  0  0  0  0  0  0  0  0  0  0
   30.9675   10.2855    4.6100 H   0  0  0  0  0  0  0  0  0  0  0  0
   33.1272   11.1165    5.0197 H   0  0  0  0  0  0  0  0  0  0  0  0
   34.4413    9.9874    5.4286 H   0  0  0  0  0  0  0  0  0  0  0  0
   34.8330   11.1923    7.4349 H   0  0  0  0  0  0  0  0  0  0  0  0
   33.4873   11.4375    8.5809 H   0  0  0  0  0  0  0  0  0  0  0  0
   33.8644   13.7853    8.5092 H   0  0  0  0  0  0  0  0  0  0  0  0
   33.8412   14.6077    6.9249 H   0  0  0  0  0  0  0  0  0  0  0  0
   35.9672   14.6318    8.9761 H   0  0  0  0  0  0  0  0  0  0  0  0
   35.9718   15.5032    7.4161 H   0  0  0  0  0  0  0  0  0  0  0  0
   37.9818   14.1881    6.7148 H   0  0  0  0  0  0  0  0  0  0  0  0
   37.9804   13.3472    8.2532 H   0  0  0  0  0  0  0  0  0  0  0  0
   38.2230   15.5419    9.4599 H   0  0  0  0  0  0  0  0  0  0  0  0
   38.2234   16.3882    7.9110 H   0  0  0  0  0  0  0  0  0  0  0  0
   40.2578   15.1118    7.2130 H   0  0  0  0  0  0  0  0  0  0  0  0
   40.2577   14.2650    8.7638 H   0  0  0  0  0  0  0  0  0  0  0  0
   40.4739   16.4547    9.9587 H   0  0  0  0  0  0  0  0  0  0  0  0
   40.4739   17.3009    8.4089 H   0  0  0  0  0  0  0  0  0  0  0  0
   42.5117   16.0260    7.7125 H   0  0  0  0  0  0  0  0  0  0  0  0
   42.5117   15.1796    9.2627 H   0  0  0  0  0  0  0  0  0  0  0  0
   42.7291   17.3680   10.4576 H   0  0  0  0  0  0  0  0  0  0  0  0
   42.7291   18.2144    8.9074 H   0  0  0  0  0  0  0  0  0  0  0  0
   44.7659   16.9377    8.2104 H   0  0  0  0  0  0  0  0  0  0  0  0
   44.7659   16.0914    9.7605 H   0  0  0  0  0  0  0  0  0  0  0  0
   44.9841   18.2796   10.9553 H   0  0  0  0  0  0  0  0  0  0  0  0
   44.9841   19.1260    9.4052 H   0  0  0  0  0  0  0  0  0  0  0  0
   47.0207   17.8493    8.7081 H   0  0  0  0  0  0  0  0  0  0  0  0
   47.0207   17.0029   10.2582 H   0  0  0  0  0  0  0  0  0  0  0  0
   47.2386   19.1913   11.4531 H   0  0  0  0  0  0  0  0  0  0  0  0
   47.2385   20.0375    9.9029 H   0  0  0  0  0  0  0  0  0  0  0  0
   49.2750   18.7595    9.2059 H   0  0  0  0  0  0  0  0  0  0  0  0
   49.2755   17.9152   10.7572 H   0  0  0  0  0  0  0  0  0  0  0  0
   49.4943   20.1044   11.9493 H   0  0  0  0  0  0  0  0  0  0  0  0
   49.4918   20.9496   10.3986 H   0  0  0  0  0  0  0  0  0  0  0  0
   51.5282   19.6725    9.6998 H   0  0  0  0  0  0  0  0  0  0  0  0
   51.5311   18.8292   11.2517 H   0  0  0  0  0  0  0  0  0  0  0  0
   51.7490   21.0202   12.4417 H   0  0  0  0  0  0  0  0  0  0  0  0
   51.7460   21.8634   10.8899 H   0  0  0  0  0  0  0  0  0  0  0  0
   53.7827   20.5883   10.1922 H   0  0  0  0  0  0  0  0  0  0  0  0
   53.7855   19.7431   11.7429 H   0  0  0  0  0  0  0  0  0  0  0  0
   54.0043   21.9315   12.9362 H   0  0  0  0  0  0  0  0  0  0  0  0
   53.9996   22.7778   11.3861 H   0  0  0  0  0  0  0  0  0  0  0  0
   56.0360   21.5023   10.6843 H   0  0  0  0  0  0  0  0  0  0  0  0
   56.0411   20.6580   12.2356 H   0  0  0  0  0  0  0  0  0  0  0  0
   56.2589   22.8484   13.4269 H   0  0  0  0  0  0  0  0  0  0  0  0
   56.2537   23.6925   11.8755 H   0  0  0  0  0  0  0  0  0  0  0  0
   58.2901   22.4164   11.1750 H   0  0  0  0  0  0  0  0  0  0  0  0
   58.2957   21.5742   12.7274 H   0  0  0  0  0  0  0  0  0  0  0  0
   58.5135   23.7662   13.9157 H   0  0  0  0  0  0  0  0  0  0  0  0
   58.5079   24.6082   12.3632 H   0  0  0  0  0  0  0  0  0  0  0  0
   60.5445   23.3327   11.6639 H   0  0  0  0  0  0  0  0  0  0  0  0
   60.5502   22.4906   13.2163 H   0  0  0  0  0  0  0  0  0  0  0  0
   60.7679   24.6826   14.4045 H   0  0  0  0  0  0  0  0  0  0  0  0
   60.7623   25.5247   12.8520 H   0  0  0  0  0  0  0  0  0  0  0  0
   62.7989   24.2491   12.1527 H   0  0  0  0  0  0  0  0  0  0  0  0
   62.8045   23.4070   13.7052 H   0  0  0  0  0  0  0  0  0  0  0  0
   63.0223   25.5990   14.8934 H   0  0  0  0  0  0  0  0  0  0  0  0
   63.0167   26.4411   13.3409 H   0  0  0  0  0  0  0  0  0  0  0  0
   65.0533   25.1655   12.6416 H   0  0  0  0  0  0  0  0  0  0  0  0
   65.0589   24.3234   14.1941 H   0  0  0  0  0  0  0  0  0  0  0  0
   65.2767   26.5154   15.3822 H   0  0  0  0  0  0  0  0  0  0  0  0
   65.2710   27.3575   13.8298 H   0  0  0  0  0  0  0  0  0  0  0  0
   67.3077   26.0819   13.1304 H   0  0  0  0  0  0  0  0  0  0  0  0
   67.3133   25.2398   14.6829 H   0  0  0  0  0  0  0  0  0  0  0  0
   67.5310   27.4317   15.8711 H   0  0  0  0  0  0  0  0  0  0  0  0
   67.5255   28.2739   14.3187 H   0  0  0  0  0  0  0  0  0  0  0  0
   69.5622   26.9997   13.6192 H   0  0  0  0  0  0  0  0  0  0  0  0
   69.5675   26.1555   15.1706 H   0  0  0  0  0  0  0  0  0  0  0  0
   69.7853   28.3458   16.3618 H   0  0  0  0  0  0  0  0  0  0  0  0
   69.7800   29.1900   14.8105 H   0  0  0  0  0  0  0  0  0  0  0  0
   71.8167   27.9152   14.1099 H   0  0  0  0  0  0  0  0  0  0  0  0
   71.8219   27.0709   15.6612 H   0  0  0  0  0  0  0  0  0  0  0  0
   72.0396   29.2612   16.8525 H   0  0  0  0  0  0  0  0  0  0  0  0
   72.0344   30.1055   15.3012 H   0  0  0  0  0  0  0  0  0  0  0  0
   74.0712   28.8308   14.6007 H   0  0  0  0  0  0  0  0  0  0  0  0
   74.0764   27.9865   16.1519 H   0  0  0  0  0  0  0  0  0  0  0  0
   74.2942   30.1769   17.3432 H   0  0  0  0  0  0  0  0  0  0  0  0
   74.2889   31.0211   15.7919 H   0  0  0  0  0  0  0  0  0  0  0  0
   76.3259   29.7454   15.0916 H   0  0  0  0  0  0  0  0  0  0  0  0
   76.3314   28.9032   16.6440 H   0  0  0  0  0  0  0  0  0  0  0  0
   76.5498   31.0953   17.8323 H   0  0  0  0  0  0  0  0  0  0  0  0
   76.5442   31.9374   16.2799 H   0  0  0  0  0  0  0  0  0  0  0  0
   78.5823   30.6632   15.5815 H   0  0  0  0  0  0  0  0  0  0  0  0
   78.5878   29.8212   17.1337 H   0  0  0  0  0  0  0  0  0  0  0  0
   78.8069   32.0148   18.3220 H   0  0  0  0  0  0  0  0  0  0  0  0
   78.8032   32.8557   16.7689 H   0  0  0  0  0  0  0  0  0  0  0  0
   80.8422   31.5792   16.0745 H   0  0  0  0  0  0  0  0  0  0  0  0
   80.8461   30.7408   17.6278 H   0  0  0  0  0  0  0  0  0  0  0  0
   81.0872   32.9367   18.8128 H   0  0  0  0  0  0  0  0  0  0  0  0
   81.0832   33.7754   17.2588 H   0  0  0  0  0  0  0  0  0  0  0  0
   83.1349   31.6733   18.1304 H   0  0  0  0  0  0  0  0  0  0  0  0
   83.4001   33.4270   18.0682 H   0  0  0  0  0  0  0  0  0  0  0  0
   83.1310   32.5159   16.5692 H   0  0  0  0  0  0  0  0  0  0  0  0
  1  2  2  0  0  0  0
  2  3  1  0  0  0  0
  2  5  1  0  0  0  0
  3  4  1  0  0  0  0
  3 79  1  0  0  0  0
  3 80  1  0  0  0  0
  4 81  1  0  0  0  0
  4 82  1  0  0  0  0
  4 83  1  0  0  0  0
  5  6  1  0  0  0  0
  5 84  1  0  0  0  0
  5 85  1  0  0  0  0
  6  7  1  0  0  0  0
  7  8  1  0  0  0  0
  7 86  1  0  0  0  0
  7 87  1  0  0  0  0
  8  9  1  0  0  0  0
  9 10  1  0  0  0  0
 10 11  1  0  0  0  0
 11 12  1  0  0  0  0
 12 13  1  0  0  0  0
 13 14  1  0  0  0  0
 14 15  1  0  0  0  0
 15 16  1  0  0  0  0
 15 88  1  0  0  0  0
 15 89  1  0  0  0  0
 16 17  1  0  0  0  0
 17 18  1  0  0  0  0
 17 90  1  0  0  0  0
 17 91  1  0  0  0  0
 18 19  1  0  0  0  0
 19 20  1  0  0  0  0
 19 92  1  0  0  0  0
 19 93  1  0  0  0  0
 20 21  1  0  0  0  0
 21 22  1  0  0  0  0
 21 94  1  0  0  0  0
 21 95  1  0  0  0  0
 22 23  1  0  0  0  0
 23 24  1  0  0  0  0
 23 96  1  0  0  0  0
 23 97  1  0  0  0  0
 24 25  1  0  0  0  0
 25 26  1  0  0  0  0
 25 98  1  0  0  0  0
 25 99  1  0  0  0  0
 26 27  1  0  0  0  0
 27 28  1  0  0  0  0
 27100  1  0  0  0  0
 27101  1  0  0  0  0
 28 29  1  0  0  0  0
 29 30  1  0  0  0  0
 29102  1  0  0  0  0
 29103  1  0  0  0  0
 30 31  1  0  0  0  0
 31 32  1  0  0  0  0
 31104  1  0  0  0  0
 31105  1  0  0  0  0
 32 33  1  0  0  0  0
 33 34  1  0  0  0  0
 33106  1  0  0  0  0
 33107  1  0  0  0  0
 34 35  1  0  0  0  0
 35 36  1  0  0  0  0
 35108  1  0  0  0  0
 35109  1  0  0  0  0
 36 37  1  0  0  0  0
 37 38  1  0  0  0  0
 37110  1  0  0  0  0
 37111  1  0  0  0  0
 38 39  1  0  0  0  0
 38112  1  0  0  0  0
 38113  1  0  0  0  0
 39 40  1  0  0  0  0
 39114  1  0  0  0  0
 39115  1  0  0  0  0
 40 41  1  0  0  0  0
 40116  1  0  0  0  0
 40117  1  0  0  0  0
 41 42  1  0  0  0  0
 41118  1  0  0  0  0
 41119  1  0  0  0  0
 42 43  1  0  0  0  0
 42120  1  0  0  0  0
 42121  1  0  0  0  0
 43 44  1  0  0  0  0
 43122  1  0  0  0  0
 43123  1  0  0  0  0
 44 45  1  0  0  0  0
 44124  1  0  0  0  0
 44125  1  0  0  0  0
 45 46  1  0  0  0  0
 45126  1  0  0  0  0
 45127  1  0  0  0  0
 46 47  1  0  0  0  0
 46128  1  0  0  0  0
 46129  1  0  0  0  0
 47 48  1  0  0  0  0
 47130  1  0  0  0  0
 47131  1  0  0  0  0
 48 49  1  0  0  0  0
 48132  1  0  0  0  0
 48133  1  0  0  0  0
 49 50  1  0  0  0  0
 49134  1  0  0  0  0
 49135  1  0  0  0  0
 50 51  1  0  0  0  0
 50136  1  0  0  0  0
 50137  1  0  0  0  0
 51 52  1  0  0  0  0
 51138  1  0  0  0  0
 51139  1  0  0  0  0
 52 53  1  0  0  0  0
 52140  1  0  0  0  0
 52141  1  0  0  0  0
 53 54  1  0  0  0  0
 53142  1  0  0  0  0
 53143  1  0  0  0  0
 54 55  1  0  0  0  0
 54144  1  0  0  0  0
 54145  1  0  0  0  0
 55 56  1  0  0  0  0
 55146  1  0  0  0  0
 55147  1  0  0  0  0
 56 57  1  0  0  0  0
 56148  1  0  0  0  0
 56149  1  0  0  0  0
 57 58  1  0  0  0  0
 57150  1  0  0  0  0
 57151  1  0  0  0  0
 58 59  1  0  0  0  0
 58152  1  0  0  0  0
 58153  1  0  0  0  0
 59 60  1  0  0  0  0
 59154  1  0  0  0  0
 59155  1  0  0  0  0
 60 61  1  0  0  0  0
 60156  1  0  0  0  0
 60157  1  0  0  0  0
 61 62  1  0  0  0  0
 61158  1  0  0  0  0
 61159  1  0  0  0  0
 62 63  1  0  0  0  0
 62160  1  0  0  0  0
 62161  1  0  0  0  0
 63 64  1  0  0  0  0
 63162  1  0  0  0  0
 63163  1  0  0  0  0
 64 65  1  0  0  0  0
 64164  1  0  0  0  0
 64165  1  0  0  0  0
 65 66  1  0  0  0  0
 65166  1  0  0  0  0
 65167  1  0  0  0  0
 66 67  1  0  0  0  0
 66168  1  0  0  0  0
 66169  1  0  0  0  0
 67 68  1  0  0  0  0
 67170  1  0  0  0  0
 67171  1  0  0  0  0
 68 69  1  0  0  0  0
 68172  1  0  0  0  0
 68173  1  0  0  0  0
 69 70  1  0  0  0  0
 69174  1  0  0  0  0
 69175  1  0  0  0  0
 70 71  1  0  0  0  0
 70176  1  0  0  0  0
 70177  1  0  0  0  0
 71 72  1  0  0  0  0
 71178  1  0  0  0  0
 71179  1  0  0  0  0
 72 73  1  0  0  0  0
 72180  1  0  0  0  0
 72181  1  0  0  0  0
 73 74  1  0  0  0  0
 73182  1  0  0  0  0
 73183  1  0  0  0  0
 74 75  1  0  0  0  0
 74184  1  0  0  0  0
 74185  1  0  0  0  0
 75 76  1  0  0  0  0
 75186  1  0  0  0  0
 75187  1  0  0  0  0
 76 77  1  0  0  0  0
 76188  1  0  0  0  0
 76189  1  0  0  0  0
 77 78  1  0  0  0  0
 77190  1  0  0  0  0
 77191  1  0  0  0  0
 78192  1  0  0  0  0
 78193  1  0  0  0  0
 78194  1  0  0  0  0
M  END
$$$$
