
 OpenBabel04232216483D

 52 53  0  0  0  0  0  0  0  0999 V2000
    2.5264   -0.0816    0.1283 C   0  0  0  0  0  0  0  0  0  0  0  0
    1.0281   -0.0350    0.0928 C   0  0  0  0  0  0  0  0  0  0  0  0
    0.2782   -0.0180    1.2733 C   0  0  0  0  0  0  0  0  0  0  0  0
   -1.1176    0.0022    1.2245 C   0  0  0  0  0  0  0  0  0  0  0  0
   -1.7868   -0.0012   -0.0053 C   0  0  0  0  0  0  0  0  0  0  0  0
   -3.2938    0.0194   -0.0539 C   0  0  0  0  0  0  0  0  0  0  0  0
   -3.8381    1.4488   -0.0578 C   0  0  0  0  0  0  0  0  0  0  0  0
   -5.3671    1.4613   -0.0904 C   0  0  0  0  0  0  0  0  0  0  0  0
   -5.9115    2.8915   -0.1016 C   0  0  0  0  0  0  0  0  0  0  0  0
   -7.4417    2.9025   -0.1369 C   0  0  0  0  0  0  0  0  0  0  0  0
   -7.9959    4.3259   -0.1531 C   0  0  0  0  0  0  0  0  0  0  0  0
   -9.5191    4.3146   -0.1807 C   0  0  0  0  0  0  0  0  0  0  0  0
  -10.1050    4.3310    0.9699 N   0  0  0  0  0  0  0  0  0  0  0  0
  -11.4391    4.3293    1.2549 N   0  0  0  0  0  0  0  0  0  0  0  0
  -12.4134    4.3019    0.4048 C   0  0  0  0  0  0  0  0  0  0  0  0
  -13.7780    4.3065    1.1599 C   0  0  0  0  0  0  0  0  0  0  0  0
  -14.5789    5.4348    0.8456 O   0  0  0  0  0  0  0  0  0  0  0  0
  -12.4008    4.2744   -0.9932 N   0  0  0  0  0  0  0  0  0  0  0  0
  -13.6917    4.2571   -1.7062 C   0  0  0  0  0  0  0  0  0  0  0  0
  -11.2537    4.2727   -1.7856 C   0  0  0  0  0  0  0  0  0  0  0  0
  -11.3700    4.2537   -3.3187 C   0  0  0  0  0  0  0  0  0  0  0  0
  -10.0142    4.2870   -1.4418 N   0  0  0  0  0  0  0  0  0  0  0  0
   -1.0356    0.0009   -1.1862 C   0  0  0  0  0  0  0  0  0  0  0  0
    0.3601   -0.0188   -1.1370 C   0  0  0  0  0  0  0  0  0  0  0  0
    2.9056   -0.0683    1.1554 H   0  0  0  0  0  0  0  0  0  0  0  0
    2.9447    0.7835   -0.3958 H   0  0  0  0  0  0  0  0  0  0  0  0
    2.8834   -0.9996   -0.3497 H   0  0  0  0  0  0  0  0  0  0  0  0
    0.7732   -0.0231    2.2416 H   0  0  0  0  0  0  0  0  0  0  0  0
   -1.6814    0.0173    2.1545 H   0  0  0  0  0  0  0  0  0  0  0  0
   -3.6915   -0.5357    0.8053 H   0  0  0  0  0  0  0  0  0  0  0  0
   -3.6374   -0.5204   -0.9455 H   0  0  0  0  0  0  0  0  0  0  0  0
   -3.4475    1.9927   -0.9271 H   0  0  0  0  0  0  0  0  0  0  0  0
   -3.4867    1.9836    0.8337 H   0  0  0  0  0  0  0  0  0  0  0  0
   -5.7571    0.9265    0.7842 H   0  0  0  0  0  0  0  0  0  0  0  0
   -5.7200    0.9267   -0.9806 H   0  0  0  0  0  0  0  0  0  0  0  0
   -5.5182    3.4264   -0.9747 H   0  0  0  0  0  0  0  0  0  0  0  0
   -5.5583    3.4249    0.7896 H   0  0  0  0  0  0  0  0  0  0  0  0
   -7.8324    2.3649    0.7360 H   0  0  0  0  0  0  0  0  0  0  0  0
   -7.7931    2.3593   -1.0221 H   0  0  0  0  0  0  0  0  0  0  0  0
   -7.6226    4.8714   -1.0296 H   0  0  0  0  0  0  0  0  0  0  0  0
   -7.6592    4.8707    0.7387 H   0  0  0  0  0  0  0  0  0  0  0  0
  -13.6170    4.2969    2.2441 H   0  0  0  0  0  0  0  0  0  0  0  0
  -14.3214    3.3896    0.9093 H   0  0  0  0  0  0  0  0  0  0  0  0
  -14.0639    6.2172    1.1126 H   0  0  0  0  0  0  0  0  0  0  0  0
  -14.5860    4.2080   -1.0866 H   0  0  0  0  0  0  0  0  0  0  0  0
  -13.7549    3.3670   -2.3420 H   0  0  0  0  0  0  0  0  0  0  0  0
  -13.7951    5.1620   -2.3167 H   0  0  0  0  0  0  0  0  0  0  0  0
  -12.3831    4.2544   -3.7123 H   0  0  0  0  0  0  0  0  0  0  0  0
  -10.8649    3.3590   -3.6965 H   0  0  0  0  0  0  0  0  0  0  0  0
  -10.8599    5.1346   -3.7180 H   0  0  0  0  0  0  0  0  0  0  0  0
   -1.5325    0.0143   -2.1535 H   0  0  0  0  0  0  0  0  0  0  0  0
    0.9253   -0.0247   -2.0661 H   0  0  0  0  0  0  0  0  0  0  0  0
  1  2  1  0  0  0  0
  1 25  1  0  0  0  0
  1 26  1  0  0  0  0
  1 27  1  0  0  0  0
  2  3  1  0  0  0  0
  2 24  2  0  0  0  0
  3  4  2  0  0  0  0
  3 28  1  0  0  0  0
  4  5  1  0  0  0  0
  4 29  1  0  0  0  0
  5  6  1  0  0  0  0
  5 23  2  0  0  0  0
  6  7  1  0  0  0  0
  6 30  1  0  0  0  0
  6 31  1  0  0  0  0
  7  8  1  0  0  0  0
  7 32  1  0  0  0  0
  7 33  1  0  0  0  0
  8  9  1  0  0  0  0
  8 34  1  0  0  0  0
  8 35  1  0  0  0  0
  9 10  1  0  0  0  0
  9 36  1  0  0  0  0
  9 37  1  0  0  0  0
 10 11  1  0  0  0  0
 10 38  1  0  0  0  0
 10 39  1  0  0  0  0
 11 12  1  0  0  0  0
 11 40  1  0  0  0  0
 11 41  1  0  0  0  0
 12 13  2  0  0  0  0
 12 22  1  0  0  0  0
 13 14  1  0  0  0  0
 14 15  2  0  0  0  0
 15 16  1  0  0  0  0
 15 18  1  0  0  0  0
 16 17  1  0  0  0  0
 16 42  1  0  0  0  0
 16 43  1  0  0  0  0
 17 44  1  0  0  0  0
 18 19  1  0  0  0  0
 18 20  1  0  0  0  0
 19 45  1  0  0  0  0
 19 46  1  0  0  0  0
 19 47  1  0  0  0  0
 20 21  1  0  0  0  0
 20 22  2  0  0  0  0
 21 48  1  0  0  0  0
 21 49  1  0  0  0  0
 21 50  1  0  0  0  0
 23 24  1  0  0  0  0
 23 51  1  0  0  0  0
 24 52  1  0  0  0  0
M  END
$$$$
