
 OpenBabel04232216483D

 81 81  0  0  0  0  0  0  0  0999 V2000
    0.9227    0.1435    0.0965 C   0  0  0  0  0  0  0  0  0  0  0  0
    2.4380    0.1596    0.1096 C   0  0  0  0  0  0  0  0  0  0  0  0
    3.0773    1.3334    0.1408 C   0  0  0  0  0  0  0  0  0  0  0  0
    4.4852    1.6141    0.1147 C   0  0  0  0  0  0  0  0  0  0  0  0
    5.5350    0.7814    0.1490 C   0  0  0  0  0  0  0  0  0  0  0  0
    6.9413    1.3542    0.0931 C   0  0  0  0  0  0  0  0  0  0  0  0
    7.6791    0.9075   -1.1724 C   0  0  0  0  0  0  0  0  0  0  0  0
    9.1025    1.4374   -1.1986 C   0  0  0  0  0  0  0  0  0  0  0  0
    9.8136    0.9155   -2.4403 C   0  0  0  0  0  0  0  0  0  0  0  0
   11.2408    1.4352   -2.4970 C   0  0  0  0  0  0  0  0  0  0  0  0
   11.9460    0.9210   -3.7459 C   0  0  0  0  0  0  0  0  0  0  0  0
   13.3717    1.4502   -3.8006 C   0  0  0  0  0  0  0  0  0  0  0  0
   14.0949    0.9614   -5.0464 C   0  0  0  0  0  0  0  0  0  0  0  0
   15.5109    1.4726   -5.1326 C   0  0  0  0  0  0  0  0  0  0  0  0
   16.0304    2.1978   -4.2958 O   0  0  0  0  0  0  0  0  0  0  0  0
    5.4982   -0.6589    0.2278 C   0  0  0  0  0  0  0  0  0  0  0  0
    4.4726   -1.5156    0.1395 C   0  0  0  0  0  0  0  0  0  0  0  0
    4.7981   -3.0042    0.1222 C   0  0  0  0  0  0  0  0  0  0  0  0
    4.2704   -3.6711   -1.1444 C   0  0  0  0  0  0  0  0  0  0  0  0
    4.5856   -5.1539   -1.1847 C   0  0  0  0  0  0  0  0  0  0  0  0
    3.9627   -5.7520   -2.4378 C   0  0  0  0  0  0  0  0  0  0  0  0
    4.2270   -7.2415   -2.4983 C   0  0  0  0  0  0  0  0  0  0  0  0
    3.6084   -7.8301   -3.7564 C   0  0  0  0  0  0  0  0  0  0  0  0
    3.8873   -9.3225   -3.8096 C   0  0  0  0  0  0  0  0  0  0  0  0
    3.2807   -9.9275   -5.0636 C   0  0  0  0  0  0  0  0  0  0  0  0
    3.5644  -11.4216   -5.1123 C   0  0  0  0  0  0  0  0  0  0  0  0
    2.9592  -12.0342   -6.3669 C   0  0  0  0  0  0  0  0  0  0  0  0
    3.2391  -13.5290   -6.4264 C   0  0  0  0  0  0  0  0  0  0  0  0
    2.6366  -14.1446   -7.6784 C   0  0  0  0  0  0  0  0  0  0  0  0
    2.9143  -15.5366   -7.7087 O   0  0  0  0  0  0  0  0  0  0  0  0
    2.9982   -1.2327    0.0452 C   0  0  0  0  0  0  0  0  0  0  0  0
    0.4890    1.1477    0.0959 H   0  0  0  0  0  0  0  0  0  0  0  0
    0.5448   -0.3875    0.9763 H   0  0  0  0  0  0  0  0  0  0  0  0
    0.5620   -0.3734   -0.7998 H   0  0  0  0  0  0  0  0  0  0  0  0
    2.4731    2.2429    0.1624 H   0  0  0  0  0  0  0  0  0  0  0  0
    4.6912    2.6830    0.0526 H   0  0  0  0  0  0  0  0  0  0  0  0
    7.4965    1.0400    0.9871 H   0  0  0  0  0  0  0  0  0  0  0  0
    6.9209    2.4517    0.1211 H   0  0  0  0  0  0  0  0  0  0  0  0
    7.1333    1.2523   -2.0606 H   0  0  0  0  0  0  0  0  0  0  0  0
    7.7209   -0.1850   -1.2343 H   0  0  0  0  0  0  0  0  0  0  0  0
    9.6397    1.1124   -0.3000 H   0  0  0  0  0  0  0  0  0  0  0  0
    9.0955    2.5335   -1.1987 H   0  0  0  0  0  0  0  0  0  0  0  0
    9.2671    1.2259   -3.3393 H   0  0  0  0  0  0  0  0  0  0  0  0
    9.8205   -0.1818   -2.4305 H   0  0  0  0  0  0  0  0  0  0  0  0
   11.7872    1.1142   -1.6019 H   0  0  0  0  0  0  0  0  0  0  0  0
   11.2336    2.5317   -2.4982 H   0  0  0  0  0  0  0  0  0  0  0  0
   11.3950    1.2386   -4.6390 H   0  0  0  0  0  0  0  0  0  0  0  0
   11.9542   -0.1754   -3.7428 H   0  0  0  0  0  0  0  0  0  0  0  0
   13.9197    1.1317   -2.9038 H   0  0  0  0  0  0  0  0  0  0  0  0
   13.3600    2.5479   -3.7879 H   0  0  0  0  0  0  0  0  0  0  0  0
   13.5624    1.2871   -5.9492 H   0  0  0  0  0  0  0  0  0  0  0  0
   14.1323   -0.1388   -5.0571 H   0  0  0  0  0  0  0  0  0  0  0  0
   16.0656    1.1455   -6.0192 H   0  0  0  0  0  0  0  0  0  0  0  0
    6.4875   -1.1092    0.3218 H   0  0  0  0  0  0  0  0  0  0  0  0
    4.3686   -3.4807    1.0120 H   0  0  0  0  0  0  0  0  0  0  0  0
    5.8816   -3.1766    0.1754 H   0  0  0  0  0  0  0  0  0  0  0  0
    4.6878   -3.1767   -2.0324 H   0  0  0  0  0  0  0  0  0  0  0  0
    3.1813   -3.5732   -1.2036 H   0  0  0  0  0  0  0  0  0  0  0  0
    4.1764   -5.6457   -0.2934 H   0  0  0  0  0  0  0  0  0  0  0  0
    5.6714   -5.3151   -1.1819 H   0  0  0  0  0  0  0  0  0  0  0  0
    4.3723   -5.2600   -3.3288 H   0  0  0  0  0  0  0  0  0  0  0  0
    2.8798   -5.5706   -2.4395 H   0  0  0  0  0  0  0  0  0  0  0  0
    3.8048   -7.7303   -1.6132 H   0  0  0  0  0  0  0  0  0  0  0  0
    5.3067   -7.4273   -2.4903 H   0  0  0  0  0  0  0  0  0  0  0  0
    4.0256   -7.3374   -4.6432 H   0  0  0  0  0  0  0  0  0  0  0  0
    2.5266   -7.6482   -3.7624 H   0  0  0  0  0  0  0  0  0  0  0  0
    3.4694   -9.8087   -2.9197 H   0  0  0  0  0  0  0  0  0  0  0  0
    4.9701   -9.4969   -3.7967 H   0  0  0  0  0  0  0  0  0  0  0  0
    3.6986   -9.4378   -5.9518 H   0  0  0  0  0  0  0  0  0  0  0  0
    2.1981   -9.7511   -5.0750 H   0  0  0  0  0  0  0  0  0  0  0  0
    3.1479  -11.9062   -4.2209 H   0  0  0  0  0  0  0  0  0  0  0  0
    4.6478  -11.5925   -5.0976 H   0  0  0  0  0  0  0  0  0  0  0  0
    3.3766  -11.5424   -7.2541 H   0  0  0  0  0  0  0  0  0  0  0  0
    1.8768  -11.8572   -6.3775 H   0  0  0  0  0  0  0  0  0  0  0  0
    2.8327  -14.0289   -5.5383 H   0  0  0  0  0  0  0  0  0  0  0  0
    4.3205  -13.7130   -6.4064 H   0  0  0  0  0  0  0  0  0  0  0  0
    3.0488  -13.6859   -8.5830 H   0  0  0  0  0  0  0  0  0  0  0  0
    1.5501  -14.0124   -7.6910 H   0  0  0  0  0  0  0  0  0  0  0  0
    3.8811  -15.6401   -7.6949 H   0  0  0  0  0  0  0  0  0  0  0  0
    2.5208   -1.8086    0.8485 H   0  0  0  0  0  0  0  0  0  0  0  0
    2.6319   -1.6355   -0.9051 H   0  0  0  0  0  0  0  0  0  0  0  0
  1  2  1  0  0  0  0
  1 32  1  0  0  0  0
  1 33  1  0  0  0  0
  1 34  1  0  0  0  0
  2  3  2  0  0  0  0
  2 31  1  0  0  0  0
  3  4  1  0  0  0  0
  3 35  1  0  0  0  0
  4  5  2  0  0  0  0
  4 36  1  0  0  0  0
  5  6  1  0  0  0  0
  5 16  1  0  0  0  0
  6  7  1  0  0  0  0
  6 37  1  0  0  0  0
  6 38  1  0  0  0  0
  7  8  1  0  0  0  0
  7 39  1  0  0  0  0
  7 40  1  0  0  0  0
  8  9  1  0  0  0  0
  8 41  1  0  0  0  0
  8 42  1  0  0  0  0
  9 10  1  0  0  0  0
  9 43  1  0  0  0  0
  9 44  1  0  0  0  0
 10 11  1  0  0  0  0
 10 45  1  0  0  0  0
 10 46  1  0  0  0  0
 11 12  1  0  0  0  0
 11 47  1  0  0  0  0
 11 48  1  0  0  0  0
 12 13  1  0  0  0  0
 12 49  1  0  0  0  0
 12 50  1  0  0  0  0
 13 14  1  0  0  0  0
 13 51  1  0  0  0  0
 13 52  1  0  0  0  0
 14 15  2  0  0  0  0
 14 53  1  0  0  0  0
 16 17  2  0  0  0  0
 16 54  1  0  0  0  0
 17 18  1  0  0  0  0
 17 31  1  0  0  0  0
 18 19  1  0  0  0  0
 18 55  1  0  0  0  0
 18 56  1  0  0  0  0
 19 20  1  0  0  0  0
 19 57  1  0  0  0  0
 19 58  1  0  0  0  0
 20 21  1  0  0  0  0
 20 59  1  0  0  0  0
 20 60  1  0  0  0  0
 21 22  1  0  0  0  0
 21 61  1  0  0  0  0
 21 62  1  0  0  0  0
 22 23  1  0  0  0  0
 22 63  1  0  0  0  0
 22 64  1  0  0  0  0
 23 24  1  0  0  0  0
 23 65  1  0  0  0  0
 23 66  1  0  0  0  0
 24 25  1  0  0  0  0
 24 67  1  0  0  0  0
 24 68  1  0  0  0  0
 25 26  1  0  0  0  0
 25 69  1  0  0  0  0
 25 70  1  0  0  0  0
 26 27  1  0  0  0  0
 26 71  1  0  0  0  0
 26 72  1  0  0  0  0
 27 28  1  0  0  0  0
 27 73  1  0  0  0  0
 27 74  1  0  0  0  0
 28 29  1  0  0  0  0
 28 75  1  0  0  0  0
 28 76  1  0  0  0  0
 29 30  1  0  0  0  0
 29 77  1  0  0  0  0
 29 78  1  0  0  0  0
 30 79  1  0  0  0  0
 31 80  1  0  0  0  0
 31 81  1  0  0  0  0
M  END
$$$$
