
 OpenBabel04232216393D

 59 59  0  0  0  0  0  0  0  0999 V2000
   15.3116    3.2396   -1.0845 C   0  0  0  0  0  0  0  0  0  0  0  0
   15.7318    4.8468   -1.0914 C   0  0  0  0  0  0  0  0  0  0  0  0
   17.7676    5.6209   -1.1905 C   0  0  0  0  0  0  0  0  0  0  0  0
   19.7463    6.2033   -0.8195 C   0  0  0  0  0  0  0  0  0  0  0  0
   21.7221    6.9639   -0.8233 C   0  0  0  0  0  0  0  0  0  0  0  0
   23.3840    7.6804   -0.5994 C   0  0  0  0  0  0  0  0  0  0  0  0
   25.1234    8.2046    0.3887 C   0  0  0  0  0  0  0  0  0  0  0  0
   26.2577    7.6358    1.2472 C   0  0  0  0  0  0  0  0  0  0  0  0
   25.7880    7.3154    2.5353 C   0  0  0  0  0  0  0  0  0  0  0  0
   25.1142    6.1905    2.3459 C   0  0  0  0  0  0  0  0  0  0  0  0
   23.7836    6.6011    2.4153 C   0  0  0  0  0  0  0  0  0  0  0  0
   22.8075    5.8437    2.0234 C   0  0  0  0  0  0  0  0  0  0  0  0
   21.5982    6.5411    2.1729 C   0  0  0  0  0  0  0  0  0  0  0  0
   20.5915    5.7402    2.0566 C   0  0  0  0  0  0  0  0  0  0  0  0
   19.2918    6.2194    2.1638 C   0  0  0  0  0  0  0  0  0  0  0  0
   18.5759    5.1074    2.1020 C   0  0  0  0  0  0  0  0  0  0  0  0
   17.2915    5.2536    1.6720 C   0  0  0  0  0  0  0  0  0  0  0  0
   16.3747    4.3456    1.5648 C   0  0  0  0  0  0  0  0  0  0  0  0
   15.0973    4.8622    1.7069 C   0  0  0  0  0  0  0  0  0  0  0  0
   14.2392    3.8769    1.7826 C   0  0  0  0  0  0  0  0  0  0  0  0
   12.9804    4.4711    1.7732 C   0  0  0  0  0  0  0  0  0  0  0  0
   11.9330    3.7172    1.8046 C   0  0  0  0  0  0  0  0  0  0  0  0
   10.6421    4.2728    1.6556 C   0  0  0  0  0  0  0  0  0  0  0  0
    9.8139    3.2493    1.7701 C   0  0  0  0  0  0  0  0  0  0  0  0
    8.5092    3.2280    1.2067 C   0  0  0  0  0  0  0  0  0  0  0  0
    8.8804    2.5409    0.0779 C   0  0  0  0  0  0  0  0  0  0  0  0
   10.0492    3.4361   -1.0038 C   0  0  0  0  0  0  0  0  0  0  0  0
   11.7590    3.5565   -1.1834 C   0  0  0  0  0  0  0  0  0  0  0  0
   13.6060    4.6072   -1.0492 C   0  0  0  0  0  0  0  0  0  0  0  0
   14.1515    2.7676   -1.5188 H   0  0  0  0  0  0  0  0  0  0  0  0
   14.3867    2.7264   -0.3316 H   0  0  0  0  0  0  0  0  0  0  0  0
   17.9965    5.4885   -0.1264 H   0  0  0  0  0  0  0  0  0  0  0  0
   20.0722    6.2533    0.1719 H   0  0  0  0  0  0  0  0  0  0  0  0
   22.1350    6.6546    0.1838 H   0  0  0  0  0  0  0  0  0  0  0  0
   24.3376    6.9130   -0.4834 H   0  0  0  0  0  0  0  0  0  0  0  0
   25.9574    9.0179    0.1840 H   0  0  0  0  0  0  0  0  0  0  0  0
   27.4067    7.8244    1.6906 H   0  0  0  0  0  0  0  0  0  0  0  0
   25.3907    8.2851    2.9256 H   0  0  0  0  0  0  0  0  0  0  0  0
   25.3732    5.4200    1.5960 H   0  0  0  0  0  0  0  0  0  0  0  0
   23.5569    7.6786    2.4142 H   0  0  0  0  0  0  0  0  0  0  0  0
   22.9973    4.9850    1.3781 H   0  0  0  0  0  0  0  0  0  0  0  0
   21.4391    7.6165    2.0697 H   0  0  0  0  0  0  0  0  0  0  0  0
   20.7965    4.7997    1.5127 H   0  0  0  0  0  0  0  0  0  0  0  0
   18.9918    7.2352    1.8227 H   0  0  0  0  0  0  0  0  0  0  0  0
   19.0464    4.1754    1.8190 H   0  0  0  0  0  0  0  0  0  0  0  0
   17.0780    6.2464    1.3529 H   0  0  0  0  0  0  0  0  0  0  0  0
   16.5005    3.5490    0.8402 H   0  0  0  0  0  0  0  0  0  0  0  0
   14.7559    5.8946    1.5502 H   0  0  0  0  0  0  0  0  0  0  0  0
   14.5472    2.8504    1.5116 H   0  0  0  0  0  0  0  0  0  0  0  0
   12.8455    5.4648    1.3636 H   0  0  0  0  0  0  0  0  0  0  0  0
   12.1637    2.6513    1.7030 H   0  0  0  0  0  0  0  0  0  0  0  0
   10.3176    5.2344    1.2391 H   0  0  0  0  0  0  0  0  0  0  0  0
   10.3414    2.2817    1.6319 H   0  0  0  0  0  0  0  0  0  0  0  0
    8.0143    4.2146    1.1950 H   0  0  0  0  0  0  0  0  0  0  0  0
    8.8235    1.4610    0.4456 H   0  0  0  0  0  0  0  0  0  0  0  0
    8.8118    3.8072   -1.0604 H   0  0  0  0  0  0  0  0  0  0  0  0
   11.4290    2.4507   -0.9387 H   0  0  0  0  0  0  0  0  0  0  0  0
   13.3347    3.8871   -0.2399 H   0  0  0  0  0  0  0  0  0  0  0  0
   12.7353    5.3024   -0.5902 H   0  0  0  0  0  0  0  0  0  0  0  0
  1  2  2  0  0  0  0
  1 30  1  0  0  0  0
  1 31  1  0  0  0  0
  2  3  1  0  0  0  0
  2 29  1  0  0  0  0
  3  4  2  3  0  0  0
  3 32  1  0  0  0  0
  4  5  1  0  0  0  0
  4 33  1  0  0  0  0
  5  6  2  3  0  0  0
  5 34  1  0  0  0  0
  6  7  1  0  0  0  0
  6 35  1  0  0  0  0
  7  8  2  3  0  0  0
  7 36  1  0  0  0  0
  8  9  1  0  0  0  0
  8 37  1  0  0  0  0
  9 10  2  3  0  0  0
  9 38  1  0  0  0  0
 10 11  1  0  0  0  0
 10 39  1  0  0  0  0
 11 12  2  3  0  0  0
 11 40  1  0  0  0  0
 12 13  1  0  0  0  0
 12 41  1  0  0  0  0
 13 14  2  3  0  0  0
 13 42  1  0  0  0  0
 14 15  1  0  0  0  0
 14 43  1  0  0  0  0
 15 16  2  3  0  0  0
 15 44  1  0  0  0  0
 16 17  1  0  0  0  0
 16 45  1  0  0  0  0
 17 18  2  3  0  0  0
 17 46  1  0  0  0  0
 18 19  1  0  0  0  0
 18 47  1  0  0  0  0
 19 20  2  3  0  0  0
 19 48  1  0  0  0  0
 20 21  1  0  0  0  0
 20 49  1  0  0  0  0
 21 22  2  3  0  0  0
 21 50  1  0  0  0  0
 22 23  1  0  0  0  0
 22 51  1  0  0  0  0
 23 24  2  3  0  0  0
 23 52  1  0  0  0  0
 24 25  1  0  0  0  0
 24 53  1  0  0  0  0
 25 26  2  3  0  0  0
 25 54  1  0  0  0  0
 26 27  1  0  0  0  0
 26 55  1  0  0  0  0
 27 28  2  3  0  0  0
 27 56  1  0  0  0  0
 28 29  1  0  0  0  0
 28 57  1  0  0  0  0
 29 58  1  0  0  0  0
 29 59  1  0  0  0  0
M  END
$$$$
