
 OpenBabel04232216443D

 66 67  0  0  0  0  0  0  0  0999 V2000
    6.3317    0.7398   -2.1148 C   0  0  0  0  0  0  0  0  0  0  0  0
    6.5700   -0.6657   -2.7421 C   0  0  0  0  0  0  0  0  0  0  0  0
    5.4132   -1.4107   -2.3665 C   0  0  0  0  0  0  0  0  0  0  0  0
    3.8426   -1.0163   -2.5421 C   0  0  0  0  0  0  0  0  0  0  0  0
    2.7671   -2.1345   -2.7622 C   0  0  0  0  0  0  0  0  0  0  0  0
    5.3638   -2.2114   -1.0243 C   0  0  0  0  0  0  0  0  0  0  0  0
    5.3335   -3.7063   -1.3094 C   0  0  0  0  0  0  0  0  0  0  0  0
    6.7275   -3.9533   -1.7552 C   0  0  0  0  0  0  0  0  0  0  0  0
    7.0258   -5.0089   -2.7669 C   0  0  0  0  0  0  0  0  0  0  0  0
    8.5054   -4.7704   -3.0202 C   0  0  0  0  0  0  0  0  0  0  0  0
    9.4680   -5.6313   -2.1940 C   0  0  0  0  0  0  0  0  0  0  0  0
   10.4059   -4.8457   -1.1964 C   0  0  0  0  0  0  0  0  0  0  0  0
   10.1011   -4.7049   -0.0234 O   0  0  0  0  0  0  0  0  0  0  0  0
   11.6974   -4.0976   -1.6606 C   0  0  0  0  0  0  0  0  0  0  0  0
   11.6976   -4.2870   -3.0089 C   0  0  0  0  0  0  0  0  0  0  0  0
   10.7287   -3.6179   -3.6205 N   0  0  0  0  0  0  0  0  0  0  0  0
   10.8483   -2.3197   -3.9049 C   0  0  0  0  0  0  0  0  0  0  0  0
   12.5007   -2.0860   -4.5540 C   0  0  0  0  0  0  0  0  0  0  0  0
   13.9823   -3.0140   -4.2414 C   0  0  0  0  0  0  0  0  0  0  0  0
   15.2289   -2.6360   -3.2946 C   0  0  0  0  0  0  0  0  0  0  0  0
   14.6534   -2.1405   -2.0270 C   0  0  0  0  0  0  0  0  0  0  0  0
   15.2215   -1.3653   -0.8901 C   0  0  0  0  0  0  0  0  0  0  0  0
   13.9385   -0.8933   -0.1776 C   0  0  0  0  0  0  0  0  0  0  0  0
   12.6618   -1.8414   -0.1709 C   0  0  0  0  0  0  0  0  0  0  0  0
   11.8391   -2.5742   -1.2898 C   0  0  0  0  0  0  0  0  0  0  0  0
    9.2854   -1.4672   -3.8293 C   0  0  0  0  0  0  0  0  0  0  0  0
    8.2737   -1.1225   -2.8205 C   0  0  0  0  0  0  0  0  0  0  0  0
    5.2723    0.9046   -1.8348 H   0  0  0  0  0  0  0  0  0  0  0  0
    6.5706    1.5703   -2.7751 H   0  0  0  0  0  0  0  0  0  0  0  0
    6.8547    0.8295   -1.1548 H   0  0  0  0  0  0  0  0  0  0  0  0
    3.6994   -0.2589   -3.3162 H   0  0  0  0  0  0  0  0  0  0  0  0
    3.5141   -0.5407   -1.6016 H   0  0  0  0  0  0  0  0  0  0  0  0
    2.7348   -2.4860   -3.7976 H   0  0  0  0  0  0  0  0  0  0  0  0
    1.7597   -1.7533   -2.5274 H   0  0  0  0  0  0  0  0  0  0  0  0
    2.8695   -3.0054   -2.1077 H   0  0  0  0  0  0  0  0  0  0  0  0
    4.4916   -1.9538   -0.4156 H   0  0  0  0  0  0  0  0  0  0  0  0
    6.2197   -1.9298   -0.3967 H   0  0  0  0  0  0  0  0  0  0  0  0
    4.6214   -3.9864   -2.0878 H   0  0  0  0  0  0  0  0  0  0  0  0
    5.0989   -4.2877   -0.3995 H   0  0  0  0  0  0  0  0  0  0  0  0
    7.3933   -3.9808   -0.8871 H   0  0  0  0  0  0  0  0  0  0  0  0
    7.0102   -3.0662   -2.3075 H   0  0  0  0  0  0  0  0  0  0  0  0
    6.4574   -4.8042   -3.6884 H   0  0  0  0  0  0  0  0  0  0  0  0
    6.7862   -6.0095   -2.4228 H   0  0  0  0  0  0  0  0  0  0  0  0
    8.7276   -3.7336   -2.7335 H   0  0  0  0  0  0  0  0  0  0  0  0
    8.6827   -4.8042   -4.1029 H   0  0  0  0  0  0  0  0  0  0  0  0
   10.0429   -6.2385   -2.8991 H   0  0  0  0  0  0  0  0  0  0  0  0
    8.8995   -6.3464   -1.6016 H   0  0  0  0  0  0  0  0  0  0  0  0
   11.8456   -5.3279   -3.4218 H   0  0  0  0  0  0  0  0  0  0  0  0
   12.7273   -1.0387   -4.7086 H   0  0  0  0  0  0  0  0  0  0  0  0
   12.3021   -2.5268   -5.5419 H   0  0  0  0  0  0  0  0  0  0  0  0
   13.7432   -4.0393   -3.9390 H   0  0  0  0  0  0  0  0  0  0  0  0
   14.4562   -3.1591   -5.2212 H   0  0  0  0  0  0  0  0  0  0  0  0
   15.9274   -1.9294   -3.7480 H   0  0  0  0  0  0  0  0  0  0  0  0
   15.8288   -3.5391   -3.0615 H   0  0  0  0  0  0  0  0  0  0  0  0
   14.2391   -3.0395   -1.5629 H   0  0  0  0  0  0  0  0  0  0  0  0
   13.9167   -1.4389   -2.4212 H   0  0  0  0  0  0  0  0  0  0  0  0
   15.8095   -0.4924   -1.2110 H   0  0  0  0  0  0  0  0  0  0  0  0
   15.8524   -1.9503   -0.2078 H   0  0  0  0  0  0  0  0  0  0  0  0
   14.1695   -0.6653    0.8730 H   0  0  0  0  0  0  0  0  0  0  0  0
   13.6638    0.0837   -0.6059 H   0  0  0  0  0  0  0  0  0  0  0  0
   12.8778   -2.5933    0.5812 H   0  0  0  0  0  0  0  0  0  0  0  0
   11.9291   -1.0623    0.0673 H   0  0  0  0  0  0  0  0  0  0  0  0
   10.7986   -2.2371   -1.1893 H   0  0  0  0  0  0  0  0  0  0  0  0
   12.1975   -2.0814   -2.1726 H   0  0  0  0  0  0  0  0  0  0  0  0
    8.9372   -1.3931   -4.8642 H   0  0  0  0  0  0  0  0  0  0  0  0
    8.5919   -1.1633   -1.7767 H   0  0  0  0  0  0  0  0  0  0  0  0
  1  2  1  0  0  0  0
  1 28  1  0  0  0  0
  1 29  1  0  0  0  0
  1 30  1  0  0  0  0
  2  3  2  3  0  0  0
  2 27  1  0  0  0  0
  3  4  1  0  0  0  0
  3  6  1  0  0  0  0
  4  5  1  0  0  0  0
  4 31  1  0  0  0  0
  4 32  1  0  0  0  0
  5 33  1  0  0  0  0
  5 34  1  0  0  0  0
  5 35  1  0  0  0  0
  6  7  1  0  0  0  0
  6 36  1  0  0  0  0
  6 37  1  0  0  0  0
  7  8  1  0  0  0  0
  7 38  1  0  0  0  0
  7 39  1  0  0  0  0
  8  9  1  0  0  0  0
  8 40  1  0  0  0  0
  8 41  1  0  0  0  0
  9 10  1  0  0  0  0
  9 42  1  0  0  0  0
  9 43  1  0  0  0  0
 10 11  1  0  0  0  0
 10 44  1  0  0  0  0
 10 45  1  0  0  0  0
 11 12  1  0  0  0  0
 11 46  1  0  0  0  0
 11 47  1  0  0  0  0
 12 13  2  0  0  0  0
 12 14  1  0  0  0  0
 14 15  2  3  0  0  0
 14 25  1  0  0  0  0
 15 16  1  0  0  0  0
 15 48  1  0  0  0  0
 16 17  2  3  0  0  0
 17 18  1  0  0  0  0
 17 26  1  0  0  0  0
 18 19  1  0  0  0  0
 18 49  1  0  0  0  0
 18 50  1  0  0  0  0
 19 20  1  0  0  0  0
 19 51  1  0  0  0  0
 19 52  1  0  0  0  0
 20 21  1  0  0  0  0
 20 53  1  0  0  0  0
 20 54  1  0  0  0  0
 21 22  1  0  0  0  0
 21 55  1  0  0  0  0
 21 56  1  0  0  0  0
 22 23  1  0  0  0  0
 22 57  1  0  0  0  0
 22 58  1  0  0  0  0
 23 24  1  0  0  0  0
 23 59  1  0  0  0  0
 23 60  1  0  0  0  0
 24 25  1  0  0  0  0
 24 61  1  0  0  0  0
 24 62  1  0  0  0  0
 25 63  1  0  0  0  0
 25 64  1  0  0  0  0
 26 27  2  3  0  0  0
 26 65  1  0  0  0  0
 27 66  1  0  0  0  0
M  END
$$$$
