
 OpenBabel04232216503D

 70 70  0  0  0  0  0  0  0  0999 V2000
   10.2419    0.9758    2.7518 C   0  0  0  0  0  0  0  0  0  0  0  0
   11.9303    2.1385    2.4015 C   0  0  0  0  0  0  0  0  0  0  0  0
   10.2708    2.4719    1.4379 C   0  0  0  0  0  0  0  0  0  0  0  0
    8.9060    1.9438    0.5891 C   0  0  0  0  0  0  0  0  0  0  0  0
    7.3425    2.6190    0.6351 C   0  0  0  0  0  0  0  0  0  0  0  0
    7.4830    3.9212    0.5852 C   0  0  0  0  0  0  0  0  0  0  0  0
    7.4253    4.5495    1.9598 C   0  0  0  0  0  0  0  0  0  0  0  0
    8.8550    4.7169    2.1964 C   0  0  0  0  0  0  0  0  0  0  0  0
    9.6403    5.3606    3.1927 C   0  0  0  0  0  3  0  0  0  0  0  0
   10.9722    4.8205    2.7735 C   0  0  0  0  0  0  0  0  0  0  0  0
   11.8155    5.8577    3.2185 C   0  0  0  0  0  0  0  0  0  0  0  0
   13.1839    5.5241    2.9386 C   0  0  0  0  0  0  0  0  0  0  0  0
   13.7875    6.7084    3.5609 C   0  0  0  0  0  0  0  0  0  0  0  0
   15.1595    6.2919    3.4399 C   0  0  0  0  0  0  0  0  0  0  0  0
   16.0282    7.3769    3.8139 C   0  0  0  0  0  0  0  0  0  0  0  0
   17.4050    7.2526    3.2390 C   0  0  0  0  0  0  0  0  0  0  0  0
   18.0007    8.1823    4.2562 C   0  0  0  0  0  0  0  0  0  0  0  0
   19.4218    8.1296    4.6261 C   0  0  0  0  0  0  0  0  0  0  0  0
   20.0183    9.3765    5.2486 C   0  0  0  0  0  0  0  0  0  0  0  0
   21.5313    9.4508    5.1470 C   0  0  0  0  0  0  0  0  0  0  0  0
   22.3453    8.5280    4.2356 C   0  0  0  0  0  0  0  0  0  0  0  0
   22.5444    6.9482    4.1170 C   0  0  0  0  0  0  0  0  0  0  0  0
   20.9168    5.7856    3.6756 C   0  0  0  0  0  0  0  0  0  0  0  0
   19.1461    5.0738    3.8103 C   0  0  0  0  0  0  0  0  0  0  0  0
   17.3765    4.1726    3.2261 C   0  0  0  0  0  0  0  0  0  0  0  0
   15.5514    3.6123    3.0192 C   0  0  0  0  0  0  0  0  0  0  0  0
   13.7828    2.5693    2.7611 C   0  0  0  0  0  0  0  0  0  0  0  0
    9.1502    1.2852    3.3090 H   0  0  0  0  0  0  0  0  0  0  0  0
   10.0558   -0.0247    3.1551 H   0  0  0  0  0  0  0  0  0  0  0  0
    9.0955    1.1138    2.2114 H   0  0  0  0  0  0  0  0  0  0  0  0
    9.7321    2.6977    2.4502 H   0  0  0  0  0  0  0  0  0  0  0  0
    8.1741    1.0120    0.6386 H   0  0  0  0  0  0  0  0  0  0  0  0
    6.3594    2.3713    1.1510 H   0  0  0  0  0  0  0  0  0  0  0  0
    8.3800    4.0284   -0.0333 H   0  0  0  0  0  0  0  0  0  0  0  0
    7.0616    3.9191    2.8085 H   0  0  0  0  0  0  0  0  0  0  0  0
    6.9472    5.4968    1.9117 H   0  0  0  0  0  0  0  0  0  0  0  0
    9.4546    4.4789    1.3031 H   0  0  0  0  0  0  0  0  0  0  0  0
    8.9189    3.8920    2.8822 H   0  0  0  0  0  0  0  0  0  0  0  0
    9.3331    5.1160    4.2234 H   0  0  0  0  0  0  0  0  0  0  0  0
   11.1640    4.6894    1.6876 H   0  0  0  0  0  0  0  0  0  0  0  0
   11.1445    3.9140    3.3432 H   0  0  0  0  0  0  0  0  0  0  0  0
   11.6986    5.8282    4.3015 H   0  0  0  0  0  0  0  0  0  0  0  0
   11.5596    6.7617    2.6787 H   0  0  0  0  0  0  0  0  0  0  0  0
   13.4839    5.3424    1.8880 H   0  0  0  0  0  0  0  0  0  0  0  0
   13.4406    4.6777    3.5758 H   0  0  0  0  0  0  0  0  0  0  0  0
   13.5174    6.7366    4.6304 H   0  0  0  0  0  0  0  0  0  0  0  0
   13.5699    7.6383    3.0481 H   0  0  0  0  0  0  0  0  0  0  0  0
   15.3694    5.8877    2.4461 H   0  0  0  0  0  0  0  0  0  0  0  0
   15.1816    5.5902    4.2747 H   0  0  0  0  0  0  0  0  0  0  0  0
   16.0559    7.1599    4.9092 H   0  0  0  0  0  0  0  0  0  0  0  0
   15.5836    8.3462    3.6405 H   0  0  0  0  0  0  0  0  0  0  0  0
   18.0869    7.4233    2.3933 H   0  0  0  0  0  0  0  0  0  0  0  0
   17.2971    6.2707    2.7747 H   0  0  0  0  0  0  0  0  0  0  0  0
   17.5173    8.0889    5.2281 H   0  0  0  0  0  0  0  0  0  0  0  0
   17.7992    9.1613    3.8207 H   0  0  0  0  0  0  0  0  0  0  0  0
   19.9293    7.8883    3.6995 H   0  0  0  0  0  0  0  0  0  0  0  0
   19.4805    7.4009    5.4382 H   0  0  0  0  0  0  0  0  0  0  0  0
   19.8109    9.4079    6.3169 H   0  0  0  0  0  0  0  0  0  0  0  0
   19.7115   10.2792    4.7133 H   0  0  0  0  0  0  0  0  0  0  0  0
   21.3369    9.7097    4.1106 H   0  0  0  0  0  0  0  0  0  0  0  0
   21.7937    8.9025    6.0957 H   0  0  0  0  0  0  0  0  0  0  0  0
   21.7003    7.9303    4.8158 H   0  0  0  0  0  0  0  0  0  0  0  0
   23.2723    9.2117    4.3268 H   0  0  0  0  0  0  0  0  0  0  0  0
   23.5241    7.1849    3.5076 H   0  0  0  0  0  0  0  0  0  0  0  0
   23.1629    6.8512    5.1625 H   0  0  0  0  0  0  0  0  0  0  0  0
   21.1103    5.9788    4.8649 H   0  0  0  0  0  0  0  0  0  0  0  0
   19.1058    5.4994    4.8388 H   0  0  0  0  0  0  0  0  0  0  0  0
   17.2812    4.9042    4.1611 H   0  0  0  0  0  0  0  0  0  0  0  0
   15.4017    3.8853    4.2296 H   0  0  0  0  0  0  0  0  0  0  0  0
   13.5552    3.4169    2.0038 H   0  0  0  0  0  0  0  0  0  0  0  0
  1  2  1  0  0  0  0
  1 28  1  0  0  0  0
  1 29  1  0  0  0  0
  1 30  1  0  0  0  0
  2  3  1  0  0  0  0
  2 27  2  3  0  0  0
  3  4  2  3  0  0  0
  3 31  1  0  0  0  0
  4  5  1  0  0  0  0
  4 32  1  0  0  0  0
  5  6  2  3  0  0  0
  5 33  1  0  0  0  0
  6  7  1  0  0  0  0
  6 34  1  0  0  0  0
  7  8  1  0  0  0  0
  7 35  1  0  0  0  0
  7 36  1  0  0  0  0
  8  9  1  0  0  0  0
  8 37  1  0  0  0  0
  8 38  1  0  0  0  0
  9 10  1  0  0  0  0
  9 39  1  0  0  0  0
 10 11  1  0  0  0  0
 10 40  1  0  0  0  0
 10 41  1  0  0  0  0
 11 12  1  0  0  0  0
 11 42  1  0  0  0  0
 11 43  1  0  0  0  0
 12 13  1  0  0  0  0
 12 44  1  0  0  0  0
 12 45  1  0  0  0  0
 13 14  1  0  0  0  0
 13 46  1  0  0  0  0
 13 47  1  0  0  0  0
 14 15  1  0  0  0  0
 14 48  1  0  0  0  0
 14 49  1  0  0  0  0
 15 16  1  0  0  0  0
 15 50  1  0  0  0  0
 15 51  1  0  0  0  0
 16 17  1  0  0  0  0
 16 52  1  0  0  0  0
 16 53  1  0  0  0  0
 17 18  1  0  0  0  0
 17 54  1  0  0  0  0
 17 55  1  0  0  0  0
 18 19  1  0  0  0  0
 18 56  1  0  0  0  0
 18 57  1  0  0  0  0
 19 20  1  0  0  0  0
 19 58  1  0  0  0  0
 19 59  1  0  0  0  0
 20 21  1  0  0  0  0
 20 60  1  0  0  0  0
 20 61  1  0  0  0  0
 21 22  1  0  0  0  0
 21 62  1  0  0  0  0
 21 63  1  0  0  0  0
 22 23  1  0  0  0  0
 22 64  1  0  0  0  0
 22 65  1  0  0  0  0
 23 24  2  3  0  0  0
 23 66  1  0  0  0  0
 24 25  1  0  0  0  0
 24 67  1  0  0  0  0
 25 26  2  3  0  0  0
 25 68  1  0  0  0  0
 26 27  1  0  0  0  0
 26 69  1  0  0  0  0
 27 70  1  0  0  0  0
M  END
$$$$
