
 OpenBabel04232216433D

 62 63  0  0  0  0  0  0  0  0999 V2000
    3.3737   -1.7657    0.8272 C   0  0  0  0  0  0  0  0  0  0  0  0
    3.9203   -0.8288   -0.2307 C   0  0  0  0  0  0  0  0  0  0  0  0
    5.1993   -1.0606   -0.5842 C   0  0  0  0  0  0  0  0  0  0  0  0
    5.5117   -2.1550   -1.6290 C   0  0  0  0  0  0  0  0  0  0  0  0
    6.0166   -3.4631   -1.7574 C   0  0  0  0  0  0  0  0  0  0  0  0
    6.4595   -5.1677   -1.4831 C   0  0  0  0  0  0  0  0  0  0  0  0
    6.7306   -6.2115   -0.4174 C   0  0  0  0  0  0  0  0  0  0  0  0
    7.4823   -8.0678   -0.4087 C   0  0  0  0  0  0  0  0  0  0  0  0
    7.6003  -10.0075   -0.9792 C   0  0  0  0  0  0  0  0  0  0  0  0
    8.3168  -11.7943   -1.3530 C   0  0  0  0  0  0  0  0  0  0  0  0
    8.3608  -13.3880   -2.5157 C   0  0  0  0  0  0  0  0  0  0  0  0
    9.3679  -13.3016   -3.7218 C   0  0  0  0  0  0  0  0  0  0  0  0
    8.6843  -12.1712   -4.4005 C   0  0  0  0  0  0  0  0  0  0  0  0
    9.5075  -11.0167   -4.0042 C   0  0  0  0  0  0  0  0  0  0  0  0
    8.5483   -9.8929   -3.8830 C   0  0  0  0  0  0  0  0  0  0  0  0
    9.4404   -8.9198   -3.3014 C   0  0  0  0  0  0  0  0  0  0  0  0
    8.9494   -7.7625   -2.9108 C   0  0  0  0  0  0  0  0  0  0  0  0
    9.7659   -7.0109   -2.1791 N   0  0  0  0  0  0  0  0  0  0  0  0
    9.7364   -5.8988   -2.6516 N   0  0  0  0  0  0  0  0  0  0  0  0
   10.4388   -5.0880   -1.8633 N   0  0  0  0  0  0  0  0  0  0  0  0
    9.9194   -3.9468   -2.1038 C   0  0  0  0  0  0  0  0  0  0  0  0
   10.4776   -2.7993   -1.4531 C   0  0  0  0  0  0  0  0  0  0  0  0
    9.5675   -1.8356   -1.5032 C   0  0  0  0  0  0  0  0  0  0  0  0
    9.1330   -1.3725   -0.2378 C   0  0  0  0  0  0  0  0  0  0  0  0
    8.2980   -2.1191    0.5537 C   0  0  0  0  0  0  0  0  0  0  0  0
    7.9956   -3.7877    0.6805 C   0  0  0  0  0  0  0  0  0  0  0  0
    6.8184   -4.7247    0.7015 C   0  0  0  0  0  0  0  0  0  0  0  0
    5.5351   -3.5376    1.0553 C   0  0  0  0  0  0  0  0  0  0  0  0
    4.1839   -3.2347    0.8788 C   0  0  0  0  0  0  0  0  0  0  0  0
    2.3321   -1.9335    0.4927 H   0  0  0  0  0  0  0  0  0  0  0  0
    3.2350   -1.1873    1.7639 H   0  0  0  0  0  0  0  0  0  0  0  0
    3.1899   -0.6499   -1.0456 H   0  0  0  0  0  0  0  0  0  0  0  0
    5.7087   -0.0783   -0.6627 H   0  0  0  0  0  0  0  0  0  0  0  0
    5.7156   -1.5030   -2.4924 H   0  0  0  0  0  0  0  0  0  0  0  0
    6.9017   -3.1761   -1.1999 H   0  0  0  0  0  0  0  0  0  0  0  0
    7.3995   -5.0746   -2.0280 H   0  0  0  0  0  0  0  0  0  0  0  0
    7.3216   -8.3186    0.6383 H   0  0  0  0  0  0  0  0  0  0  0  0
    8.5259   -7.8657   -0.4321 H   0  0  0  0  0  0  0  0  0  0  0  0
    8.2589  -10.1546   -0.1379 H   0  0  0  0  0  0  0  0  0  0  0  0
    6.5497  -10.4044   -0.6658 H   0  0  0  0  0  0  0  0  0  0  0  0
    9.4354  -11.7693   -1.2364 H   0  0  0  0  0  0  0  0  0  0  0  0
    8.0735  -12.5011   -0.4976 H   0  0  0  0  0  0  0  0  0  0  0  0
    8.7046  -14.3355   -1.9946 H   0  0  0  0  0  0  0  0  0  0  0  0
    7.4437  -13.7264   -2.9831 H   0  0  0  0  0  0  0  0  0  0  0  0
    9.4909  -14.1010   -4.4878 H   0  0  0  0  0  0  0  0  0  0  0  0
   10.3974  -13.1481   -3.3587 H   0  0  0  0  0  0  0  0  0  0  0  0
    7.6645  -12.0482   -3.9910 H   0  0  0  0  0  0  0  0  0  0  0  0
    8.5065  -12.2467   -5.4668 H   0  0  0  0  0  0  0  0  0  0  0  0
   10.3275  -10.8498   -4.7019 H   0  0  0  0  0  0  0  0  0  0  0  0
   10.0136  -11.1764   -3.0353 H   0  0  0  0  0  0  0  0  0  0  0  0
    7.7138  -10.1130   -3.2036 H   0  0  0  0  0  0  0  0  0  0  0  0
    8.0986   -9.6304   -4.8377 H   0  0  0  0  0  0  0  0  0  0  0  0
   10.4518   -9.1579   -2.9780 H   0  0  0  0  0  0  0  0  0  0  0  0
    7.9265   -7.4621   -3.0925 H   0  0  0  0  0  0  0  0  0  0  0  0
    8.9981   -3.8266   -2.7167 H   0  0  0  0  0  0  0  0  0  0  0  0
   11.1335   -2.9997   -0.6194 H   0  0  0  0  0  0  0  0  0  0  0  0
    8.8079   -1.7288   -2.2794 H   0  0  0  0  0  0  0  0  0  0  0  0
    9.4284   -0.3230   -0.0969 H   0  0  0  0  0  0  0  0  0  0  0  0
    7.8330   -1.4693    1.2942 H   0  0  0  0  0  0  0  0  0  0  0  0
    8.0654   -3.5461    1.7654 H   0  0  0  0  0  0  0  0  0  0  0  0
    6.0481   -2.6330    1.4125 H   0  0  0  0  0  0  0  0  0  0  0  0
    3.5065   -3.9501    0.4335 H   0  0  0  0  0  0  0  0  0  0  0  0
  1  2  1  0  0  0  0
  1 29  1  0  0  0  0
  1 30  1  0  0  0  0
  1 31  1  0  0  0  0
  2  3  2  3  0  0  0
  2 32  1  0  0  0  0
  3  4  1  0  0  0  0
  3 33  1  0  0  0  0
  4  5  2  3  0  0  0
  4 34  1  0  0  0  0
  5  6  1  0  0  0  0
  5 35  1  0  0  0  0
  6  7  2  3  0  0  0
  6 36  1  0  0  0  0
  7  8  1  0  0  0  0
  7 27  1  0  0  0  0
  8  9  1  0  0  0  0
  8 37  1  0  0  0  0
  8 38  1  0  0  0  0
  9 10  1  0  0  0  0
  9 39  1  0  0  0  0
  9 40  1  0  0  0  0
 10 11  1  0  0  0  0
 10 41  1  0  0  0  0
 10 42  1  0  0  0  0
 11 12  1  0  0  0  0
 11 43  1  0  0  0  0
 11 44  1  0  0  0  0
 12 13  1  0  0  0  0
 12 45  1  0  0  0  0
 12 46  1  0  0  0  0
 13 14  1  0  0  0  0
 13 47  1  0  0  0  0
 13 48  1  0  0  0  0
 14 15  1  0  0  0  0
 14 49  1  0  0  0  0
 14 50  1  0  0  0  0
 15 16  1  0  0  0  0
 15 51  1  0  0  0  0
 15 52  1  0  0  0  0
 16 17  2  3  0  0  0
 16 53  1  0  0  0  0
 17 18  1  0  0  0  0
 17 54  1  0  0  0  0
 18 19  2  3  0  0  0
 19 20  1  0  0  0  0
 20 21  2  3  0  0  0
 21 22  1  0  0  0  0
 21 55  1  0  0  0  0
 22 23  2  3  0  0  0
 22 56  1  0  0  0  0
 23 24  1  0  0  0  0
 23 57  1  0  0  0  0
 24 25  2  3  0  0  0
 24 58  1  0  0  0  0
 25 26  1  0  0  0  0
 25 59  1  0  0  0  0
 26 27  2  3  0  0  0
 26 60  1  0  0  0  0
 27 28  1  0  0  0  0
 28 29  2  3  0  0  0
 28 61  1  0  0  0  0
 29 62  1  0  0  0  0
M  END
$$$$
