
 OpenBabel04232216453D

 27 27  0  0  0  0  0  0  0  0999 V2000
    3.4879    0.4173    1.5504 C   0  0  0  0  0  0  0  0  0  0  0  0
    4.5462    1.0776    0.6952 C   0  0  0  0  0  0  0  0  0  0  0  0
    3.9487    1.6847   -0.5703 C   0  0  0  0  0  0  0  0  0  0  0  0
    4.3603    1.3434   -1.8134 C   0  0  0  0  0  0  0  0  0  0  0  0
    4.8442   -0.0599   -2.1105 C   0  0  0  0  0  0  0  0  0  0  0  0
    5.0270    2.5398   -2.6025 C   0  0  0  0  0  0  0  0  0  0  0  0
    6.3235    2.5965   -1.8290 C   0  0  0  0  0  0  0  0  0  0  0  0
    7.4676    3.3102   -1.1841 C   0  0  0  0  0  0  0  0  0  0  0  0
    7.8052    2.3406    0.0623 C   0  0  0  0  0  0  0  0  0  0  0  0
    6.8839    1.1953    0.3668 N   0  0  0  0  0  0  0  0  0  0  0  0
    5.7717    1.1270    1.1657 N   0  0  0  0  0  0  0  0  0  0  0  0
    2.5790    1.0248    1.5800 H   0  0  0  0  0  0  0  0  0  0  0  0
    3.8447    0.2426    2.5662 H   0  0  0  0  0  0  0  0  0  0  0  0
    3.2418   -0.5469    1.0891 H   0  0  0  0  0  0  0  0  0  0  0  0
    3.6528    2.7146   -0.3625 H   0  0  0  0  0  0  0  0  0  0  0  0
    4.0144   -0.6680   -2.4868 H   0  0  0  0  0  0  0  0  0  0  0  0
    5.2388   -0.5637   -1.2274 H   0  0  0  0  0  0  0  0  0  0  0  0
    5.6385   -0.0692   -2.8654 H   0  0  0  0  0  0  0  0  0  0  0  0
    4.4340    3.4591   -2.5175 H   0  0  0  0  0  0  0  0  0  0  0  0
    5.1704    2.2982   -3.6580 H   0  0  0  0  0  0  0  0  0  0  0  0
    6.7761    1.6309   -2.0489 H   0  0  0  0  0  0  0  0  0  0  0  0
    5.8062    2.7507   -0.8830 H   0  0  0  0  0  0  0  0  0  0  0  0
    7.1963    4.3065   -0.8135 H   0  0  0  0  0  0  0  0  0  0  0  0
    8.3217    3.4087   -1.8610 H   0  0  0  0  0  0  0  0  0  0  0  0
    8.7550    1.8435   -0.2242 H   0  0  0  0  0  0  0  0  0  0  0  0
    8.0431    2.9188    0.9561 H   0  0  0  0  0  0  0  0  0  0  0  0
    6.8765    0.5061   -0.3782 H   0  0  0  0  0  0  0  0  0  0  0  0
  1  2  1  0  0  0  0
  1 12  1  0  0  0  0
  1 13  1  0  0  0  0
  1 14  1  0  0  0  0
  2  3  1  0  0  0  0
  2 11  2  3  0  0  0
  3  4  2  3  0  0  0
  3 15  1  0  0  0  0
  4  5  1  0  0  0  0
  4  6  1  0  0  0  0
  5 16  1  0  0  0  0
  5 17  1  0  0  0  0
  5 18  1  0  0  0  0
  6  7  1  0  0  0  0
  6 19  1  0  0  0  0
  6 20  1  0  0  0  0
  7  8  1  0  0  0  0
  7 21  1  0  0  0  0
  7 22  1  0  0  0  0
  8  9  1  0  0  0  0
  8 23  1  0  0  0  0
  8 24  1  0  0  0  0
  9 10  1  0  0  0  0
  9 25  1  0  0  0  0
  9 26  1  0  0  0  0
 10 11  1  0  0  0  0
 10 27  1  0  0  0  0
M  END
$$$$
