
 OpenBabel04232216503D

143143  0  0  0  0  0  0  0  0999 V2000
   49.2608  -53.0100  -28.9815 C   0  0  0  0  0  0  0  0  0  0  0  0
   51.5189  -55.3784  -28.6355 C   0  0  0  0  0  0  0  0  0  0  0  0
   49.1432  -53.1612  -29.2467 C   0  0  0  0  0  0  0  0  0  0  0  0
   46.5365  -50.7651  -29.7724 C   0  0  0  0  0  0  0  0  0  0  0  0
   44.4478  -48.6771  -30.3018 C   0  0  0  0  0  0  0  0  0  0  0  0
   42.2474  -46.3809  -31.1827 C   0  0  0  0  0  0  0  0  0  0  0  0
   41.5388  -44.6580  -31.2035 C   0  0  0  0  0  0  0  0  0  0  0  0
   41.1220  -45.8060  -30.6293 C   0  0  0  0  0  0  0  0  0  0  0  0
   42.6083  -46.1854  -28.9669 C   0  0  0  0  0  0  0  0  0  0  0  0
   43.9046  -47.4823  -28.4571 C   0  0  0  0  0  0  0  0  0  0  0  0
   43.9831  -46.2386  -27.4075 C   0  0  0  0  0  0  0  0  0  0  0  0
   44.8295  -47.8862  -27.2141 C   0  0  0  0  0  0  0  0  0  0  0  0
   45.7813  -48.3034  -28.1336 C   0  0  0  0  0  0  0  0  0  0  0  0
   46.8106  -49.3586  -28.2148 C   0  0  0  0  0  0  0  0  0  0  0  0
   47.5255  -50.5896  -27.5374 C   0  0  0  0  0  0  0  0  0  0  0  0
   48.0748  -52.6457  -27.2864 C   0  0  0  0  0  0  0  0  0  0  0  0
   48.9615  -51.6100  -27.2361 C   0  0  0  0  0  0  0  0  0  0  0  0
   49.7872  -53.0648  -27.6597 C   0  0  0  0  0  0  0  0  0  0  0  0
   50.6395  -53.4515  -26.8194 C   0  0  0  0  0  0  0  0  0  0  0  0
   51.2543  -54.6682  -26.9956 C   0  0  0  0  0  0  0  0  0  0  0  0
   52.1770  -55.3460  -26.5142 C   0  0  0  0  0  0  0  0  0  0  0  0
   53.1327  -54.8716  -25.8278 C   0  0  0  0  0  0  0  0  0  0  0  0
   54.0397  -56.6082  -25.8900 C   0  0  0  0  0  0  0  0  0  0  0  0
   54.9186  -58.0596  -26.3265 C   0  0  0  0  0  0  0  0  0  0  0  0
   55.8595  -58.3910  -25.5340 C   0  0  0  0  0  0  0  0  0  0  0  0
   56.4169  -59.5100  -25.9242 C   0  0  0  0  0  0  0  0  0  0  0  0
   57.4896  -59.9085  -25.0203 C   0  0  0  0  0  0  0  0  0  0  0  0
   58.3015  -61.0624  -25.1006 C   0  0  0  0  0  0  0  0  0  0  0  0
   59.5293  -61.4916  -24.1928 C   0  0  0  0  0  0  0  0  0  0  0  0
   60.4512  -62.5770  -24.4310 C   0  0  0  0  0  0  0  0  0  0  0  0
   61.1220  -63.6122  -23.9494 C   0  0  0  0  0  0  0  0  0  0  0  0
   62.5323  -64.1369  -23.2519 C   0  0  0  0  0  0  0  0  0  0  0  0
   62.7614  -65.2659  -23.7480 C   0  0  0  0  0  0  0  0  0  0  0  0
   63.6859  -66.1022  -23.6700 C   0  0  0  0  0  0  0  0  0  0  0  0
   64.6027  -66.6194  -23.0030 C   0  0  0  0  0  0  0  0  0  0  0  0
   65.7954  -67.1496  -22.9226 C   0  0  0  0  0  0  0  0  0  0  0  0
   66.4863  -68.2651  -22.5245 C   0  0  0  0  0  0  0  0  0  0  0  0
   67.4138  -69.1773  -22.9303 C   0  0  0  0  0  0  0  0  0  0  0  0
   68.2610  -69.8889  -22.0383 C   0  0  0  0  0  0  0  0  0  0  0  0
   69.0739  -70.9181  -22.2681 C   0  0  0  0  0  0  0  0  0  0  0  0
   69.9700  -71.5623  -21.4808 C   0  0  0  0  0  0  0  0  0  0  0  0
   70.3672  -72.7627  -21.8695 C   0  0  0  0  0  0  0  0  0  0  0  0
   71.6866  -73.0291  -21.0465 C   0  0  0  0  0  0  0  0  0  0  0  0
   72.1603  -74.2488  -20.8149 C   0  0  0  0  0  0  0  0  0  0  0  0
   73.1737  -74.6937  -21.0036 C   0  0  0  0  0  0  0  0  0  0  0  0
   71.5515  -74.1825  -22.8376 C   0  0  0  0  0  0  0  0  0  0  0  0
   69.5498  -72.2258  -23.5249 C   0  0  0  0  0  0  0  0  0  0  0  0
   67.2820  -70.2190  -24.3031 C   0  0  0  0  0  0  0  0  0  0  0  0
   64.9713  -68.0379  -24.9150 C   0  0  0  0  0  0  0  0  0  0  0  0
   62.1775  -65.5249  -25.6696 C   0  0  0  0  0  0  0  0  0  0  0  0
   59.6816  -63.1415  -26.3852 C   0  0  0  0  0  0  0  0  0  0  0  0
   56.9010  -60.4913  -27.2404 C   0  0  0  0  0  0  0  0  0  0  0  0
   54.3443  -58.1127  -27.9009 C   0  0  0  0  0  0  0  0  0  0  0  0
   47.6924  -51.3739  -28.9582 H   0  0  0  0  0  0  0  0  0  0  0  0
   47.6137  -51.4517  -28.8629 H   0  0  0  0  0  0  0  0  0  0  0  0
   47.7527  -51.3239  -29.0459 H   0  0  0  0  0  0  0  0  0  0  0  0
   47.2967  -52.1027  -29.7252 H   0  0  0  0  0  0  0  0  0  0  0  0
   44.7513  -49.3360  -29.7708 H   0  0  0  0  0  0  0  0  0  0  0  0
   42.8129  -47.0587  -30.1761 H   0  0  0  0  0  0  0  0  0  0  0  0
   40.8676  -44.5864  -32.0127 H   0  0  0  0  0  0  0  0  0  0  0  0
   40.4710  -44.8365  -31.6846 H   0  0  0  0  0  0  0  0  0  0  0  0
   41.7329  -44.1928  -32.2560 H   0  0  0  0  0  0  0  0  0  0  0  0
   40.5687  -45.3644  -32.5260 H   0  0  0  0  0  0  0  0  0  0  0  0
   40.5637  -44.1931  -30.8448 H   0  0  0  0  0  0  0  0  0  0  0  0
   39.9323  -46.3664  -31.2304 H   0  0  0  0  0  0  0  0  0  0  0  0
   41.4058  -46.7322  -28.9703 H   0  0  0  0  0  0  0  0  0  0  0  0
   44.6917  -49.1696  -28.4723 H   0  0  0  0  0  0  0  0  0  0  0  0
   45.0188  -45.9151  -28.1198 H   0  0  0  0  0  0  0  0  0  0  0  0
   44.6700  -46.8005  -26.6214 H   0  0  0  0  0  0  0  0  0  0  0  0
   44.2062  -49.2060  -26.6152 H   0  0  0  0  0  0  0  0  0  0  0  0
   45.6742  -48.3381  -26.1527 H   0  0  0  0  0  0  0  0  0  0  0  0
   44.4831  -48.6013  -27.5808 H   0  0  0  0  0  0  0  0  0  0  0  0
   45.9447  -47.5169  -28.5923 H   0  0  0  0  0  0  0  0  0  0  0  0
   47.5953  -48.6303  -28.7802 H   0  0  0  0  0  0  0  0  0  0  0  0
   46.7051  -49.2541  -29.8997 H   0  0  0  0  0  0  0  0  0  0  0  0
   48.0794  -50.1317  -28.6351 H   0  0  0  0  0  0  0  0  0  0  0  0
   46.2949  -51.0656  -27.6997 H   0  0  0  0  0  0  0  0  0  0  0  0
   47.0308  -53.1144  -28.1996 H   0  0  0  0  0  0  0  0  0  0  0  0
   47.1233  -52.3948  -26.5555 H   0  0  0  0  0  0  0  0  0  0  0  0
   49.1480  -51.4840  -28.1601 H   0  0  0  0  0  0  0  0  0  0  0  0
   48.1047  -51.5217  -26.6375 H   0  0  0  0  0  0  0  0  0  0  0  0
   50.6534  -52.4668  -28.5924 H   0  0  0  0  0  0  0  0  0  0  0  0
   49.1071  -54.2760  -29.0144 H   0  0  0  0  0  0  0  0  0  0  0  0
   50.7958  -54.2965  -27.2962 H   0  0  0  0  0  0  0  0  0  0  0  0
   49.8854  -53.6224  -26.1744 H   0  0  0  0  0  0  0  0  0  0  0  0
   50.5487  -55.6839  -27.2483 H   0  0  0  0  0  0  0  0  0  0  0  0
   52.2294  -54.6644  -27.2753 H   0  0  0  0  0  0  0  0  0  0  0  0
   52.7253  -55.9448  -27.0600 H   0  0  0  0  0  0  0  0  0  0  0  0
   51.6536  -55.4530  -25.7147 H   0  0  0  0  0  0  0  0  0  0  0  0
   52.3342  -53.6007  -26.2348 H   0  0  0  0  0  0  0  0  0  0  0  0
   53.5436  -54.5356  -27.2652 H   0  0  0  0  0  0  0  0  0  0  0  0
   53.2167  -57.1320  -25.6058 H   0  0  0  0  0  0  0  0  0  0  0  0
   54.7527  -56.0265  -25.5149 H   0  0  0  0  0  0  0  0  0  0  0  0
   54.0532  -59.0597  -26.9563 H   0  0  0  0  0  0  0  0  0  0  0  0
   54.9123  -58.8176  -25.7267 H   0  0  0  0  0  0  0  0  0  0  0  0
   56.1655  -57.5446  -25.1295 H   0  0  0  0  0  0  0  0  0  0  0  0
   56.5099  -58.7099  -26.1909 H   0  0  0  0  0  0  0  0  0  0  0  0
   56.4767  -60.3748  -25.3374 H   0  0  0  0  0  0  0  0  0  0  0  0
   57.5771  -59.0855  -26.6859 H   0  0  0  0  0  0  0  0  0  0  0  0
   57.8110  -59.1343  -24.5139 H   0  0  0  0  0  0  0  0  0  0  0  0
   58.3218  -60.3713  -25.5987 H   0  0  0  0  0  0  0  0  0  0  0  0
   57.8496  -62.1273  -24.8385 H   0  0  0  0  0  0  0  0  0  0  0  0
   59.5403  -60.7522  -25.1526 H   0  0  0  0  0  0  0  0  0  0  0  0
   59.7839  -62.0676  -25.0052 H   0  0  0  0  0  0  0  0  0  0  0  0
   58.9779  -61.2301  -23.4251 H   0  0  0  0  0  0  0  0  0  0  0  0
   61.2823  -62.8670  -23.3900 H   0  0  0  0  0  0  0  0  0  0  0  0
   61.7133  -62.2914  -24.7721 H   0  0  0  0  0  0  0  0  0  0  0  0
   59.9933  -63.8485  -23.6689 H   0  0  0  0  0  0  0  0  0  0  0  0
   60.4307  -63.7931  -23.0852 H   0  0  0  0  0  0  0  0  0  0  0  0
   63.1778  -64.1727  -23.8497 H   0  0  0  0  0  0  0  0  0  0  0  0
   62.7221  -64.0794  -24.8796 H   0  0  0  0  0  0  0  0  0  0  0  0
   63.6871  -65.2344  -24.3079 H   0  0  0  0  0  0  0  0  0  0  0  0
   62.3776  -65.7095  -22.9799 H   0  0  0  0  0  0  0  0  0  0  0  0
   63.3711  -66.8700  -23.1265 H   0  0  0  0  0  0  0  0  0  0  0  0
   64.8485  -65.8637  -24.0310 H   0  0  0  0  0  0  0  0  0  0  0  0
   64.3042  -67.5604  -22.5633 H   0  0  0  0  0  0  0  0  0  0  0  0
   64.9744  -65.8483  -22.4760 H   0  0  0  0  0  0  0  0  0  0  0  0
   66.2708  -66.2744  -21.9592 H   0  0  0  0  0  0  0  0  0  0  0  0
   66.6304  -66.3986  -23.6603 H   0  0  0  0  0  0  0  0  0  0  0  0
   65.9857  -68.7376  -23.1860 H   0  0  0  0  0  0  0  0  0  0  0  0
   65.9435  -68.6069  -21.7606 H   0  0  0  0  0  0  0  0  0  0  0  0
   68.4361  -68.8656  -23.0687 H   0  0  0  0  0  0  0  0  0  0  0  0
   67.4408  -68.8322  -24.5977 H   0  0  0  0  0  0  0  0  0  0  0  0
   67.7879  -70.1116  -21.1979 H   0  0  0  0  0  0  0  0  0  0  0  0
   69.1101  -69.2574  -21.9926 H   0  0  0  0  0  0  0  0  0  0  0  0
   70.0640  -70.9643  -22.0902 H   0  0  0  0  0  0  0  0  0  0  0  0
   69.7311  -70.5839  -23.5945 H   0  0  0  0  0  0  0  0  0  0  0  0
   69.5033  -72.4001  -21.1121 H   0  0  0  0  0  0  0  0  0  0  0  0
   70.4132  -70.8101  -20.8389 H   0  0  0  0  0  0  0  0  0  0  0  0
   71.8155  -72.2082  -22.4632 H   0  0  0  0  0  0  0  0  0  0  0  0
   69.0182  -73.2889  -22.9040 H   0  0  0  0  0  0  0  0  0  0  0  0
   71.7919  -73.9137  -21.4347 H   0  0  0  0  0  0  0  0  0  0  0  0
   71.3392  -73.4476  -20.2043 H   0  0  0  0  0  0  0  0  0  0  0  0
   71.7356  -75.6101  -20.6424 H   0  0  0  0  0  0  0  0  0  0  0  0
   73.8770  -74.6607  -20.0171 H   0  0  0  0  0  0  0  0  0  0  0  0
   73.1019  -76.0162  -22.4355 H   0  0  0  0  0  0  0  0  0  0  0  0
   71.4577  -73.7416  -22.8404 H   0  0  0  0  0  0  0  0  0  0  0  0
   69.0642  -71.5951  -23.7861 H   0  0  0  0  0  0  0  0  0  0  0  0
   66.5865  -69.5060  -24.3215 H   0  0  0  0  0  0  0  0  0  0  0  0
   63.7868  -66.8663  -25.0910 H   0  0  0  0  0  0  0  0  0  0  0  0
   61.2785  -64.4834  -25.7600 H   0  0  0  0  0  0  0  0  0  0  0  0
   58.2677  -61.6390  -26.5797 H   0  0  0  0  0  0  0  0  0  0  0  0
   52.9656  -56.9477  -27.9998 H   0  0  0  0  0  0  0  0  0  0  0  0
  1  2  1  0  0  0  0
  1 54  1  0  0  0  0
  1 55  1  0  0  0  0
  1 56  1  0  0  0  0
  2  3  2  3  0  0  0
  2 53  1  0  0  0  0
  3  4  1  0  0  0  0
  3 57  1  0  0  0  0
  4  5  2  3  0  0  0
  4 58  1  0  0  0  0
  5  6  1  0  0  0  0
  5 59  1  0  0  0  0
  6  7  1  0  0  0  0
  6 60  1  0  0  0  0
  6 61  1  0  0  0  0
  7  8  1  0  0  0  0
  7 62  1  0  0  0  0
  7 63  1  0  0  0  0
  8  9  1  0  0  0  0
  8 64  1  0  0  0  0
  8 65  1  0  0  0  0
  9 10  2  3  0  0  0
  9 66  1  0  0  0  0
 10 11  1  0  0  0  0
 10 67  1  0  0  0  0
 11 12  1  0  0  0  0
 11 68  1  0  0  0  0
 11 69  1  0  0  0  0
 12 13  1  0  0  0  0
 12 70  1  0  0  0  0
 12 71  1  0  0  0  0
 13 14  1  0  0  0  0
 13 72  1  0  0  0  0
 13 73  1  0  0  0  0
 14 15  1  0  0  0  0
 14 74  1  0  0  0  0
 14 75  1  0  0  0  0
 15 16  1  0  0  0  0
 15 76  1  0  0  0  0
 15 77  1  0  0  0  0
 16 17  1  0  0  0  0
 16 78  1  0  0  0  0
 16 79  1  0  0  0  0
 17 18  1  0  0  0  0
 17 80  1  0  0  0  0
 17 81  1  0  0  0  0
 18 19  1  0  0  0  0
 18 82  1  0  0  0  0
 18 83  1  0  0  0  0
 19 20  1  0  0  0  0
 19 84  1  0  0  0  0
 19 85  1  0  0  0  0
 20 21  1  0  0  0  0
 20 86  1  0  0  0  0
 20 87  1  0  0  0  0
 21 22  1  0  0  0  0
 21 88  1  0  0  0  0
 21 89  1  0  0  0  0
 22 23  1  0  0  0  0
 22 90  1  0  0  0  0
 22 91  1  0  0  0  0
 23 24  1  0  0  0  0
 23 92  1  0  0  0  0
 23 93  1  0  0  0  0
 24 25  1  0  0  0  0
 24 94  1  0  0  0  0
 24 95  1  0  0  0  0
 25 26  1  0  0  0  0
 25 96  1  0  0  0  0
 25 97  1  0  0  0  0
 26 27  1  0  0  0  0
 26 98  1  0  0  0  0
 26 99  1  0  0  0  0
 27 28  1  0  0  0  0
 27100  1  0  0  0  0
 27101  1  0  0  0  0
 28 29  1  0  0  0  0
 28102  1  0  0  0  0
 28103  1  0  0  0  0
 29 30  1  0  0  0  0
 29104  1  0  0  0  0
 29105  1  0  0  0  0
 30 31  1  0  0  0  0
 30106  1  0  0  0  0
 30107  1  0  0  0  0
 31 32  1  0  0  0  0
 31108  1  0  0  0  0
 31109  1  0  0  0  0
 32 33  1  0  0  0  0
 32110  1  0  0  0  0
 32111  1  0  0  0  0
 33 34  1  0  0  0  0
 33112  1  0  0  0  0
 33113  1  0  0  0  0
 34 35  1  0  0  0  0
 34114  1  0  0  0  0
 34115  1  0  0  0  0
 35 36  1  0  0  0  0
 35116  1  0  0  0  0
 35117  1  0  0  0  0
 36 37  1  0  0  0  0
 36118  1  0  0  0  0
 36119  1  0  0  0  0
 37 38  1  0  0  0  0
 37120  1  0  0  0  0
 37121  1  0  0  0  0
 38 39  1  0  0  0  0
 38122  1  0  0  0  0
 38123  1  0  0  0  0
 39 40  1  0  0  0  0
 39124  1  0  0  0  0
 39125  1  0  0  0  0
 40 41  1  0  0  0  0
 40126  1  0  0  0  0
 40127  1  0  0  0  0
 41 42  1  0  0  0  0
 41128  1  0  0  0  0
 41129  1  0  0  0  0
 42 43  1  0  0  0  0
 42130  1  0  0  0  0
 42131  1  0  0  0  0
 43 44  1  0  0  0  0
 43132  1  0  0  0  0
 43133  1  0  0  0  0
 44 45  2  3  0  0  0
 44134  1  0  0  0  0
 45 46  1  0  0  0  0
 45135  1  0  0  0  0
 46 47  2  3  0  0  0
 46136  1  0  0  0  0
 47 48  1  0  0  0  0
 47137  1  0  0  0  0
 48 49  2  3  0  0  0
 48138  1  0  0  0  0
 49 50  1  0  0  0  0
 49139  1  0  0  0  0
 50 51  2  3  0  0  0
 50140  1  0  0  0  0
 51 52  1  0  0  0  0
 51141  1  0  0  0  0
 52 53  2  3  0  0  0
 52142  1  0  0  0  0
 53143  1  0  0  0  0
M  END
$$$$
