
 OpenBabel04232216493D

 61 63  0  0  0  0  0  0  0  0999 V2000
    6.8966   -3.7892   -1.9065 C   0  0  0  0  0  0  0  0  0  0  0  0
    7.9079   -3.9876   -0.7484 C   0  0  0  0  0  0  0  0  0  0  0  0
    7.4554   -3.3298    0.3885 C   0  0  0  0  0  0  0  0  0  0  0  0
    6.5579   -2.0500    0.5093 C   0  0  0  0  0  0  0  0  0  0  0  0
    6.8387   -0.7653    0.8776 C   0  0  0  0  0  0  0  0  0  0  0  0
    8.1528   -0.1648    1.1587 C   0  0  0  0  0  0  0  0  0  0  0  0
    8.6514    0.7080    0.1482 N   0  0  0  0  0  0  0  0  0  0  0  0
    9.5818    1.8982    0.2539 C   0  0  0  0  0  0  0  0  0  0  0  0
   11.1476    1.7588    0.0495 C   0  0  0  0  0  0  0  0  0  0  0  0
   11.5593    0.3264   -0.0145 C   0  0  0  0  0  0  0  0  0  0  0  0
   12.9272   -0.3418    0.3644 C   0  0  0  0  0  0  0  0  0  0  0  0
   12.3972   -1.6669    0.8934 C   0  0  0  0  0  0  0  0  0  0  0  0
   12.6558   -2.9821    1.5831 C   0  0  0  0  0  0  0  0  0  0  0  0
    8.8139   -0.8850    2.0827 C   0  0  0  0  0  0  0  0  0  0  0  0
    9.6991   -1.9321    1.4660 C   0  0  0  0  0  0  0  0  0  0  0  0
    9.8394   -1.9709    0.0958 N   0  0  0  0  0  0  0  0  0  0  0  0
   10.2775   -2.6710    2.3689 N   0  0  0  0  0  0  0  0  0  0  0  0
   11.2610   -3.6121    2.0771 C   0  0  0  0  0  0  0  0  0  0  0  0
   10.8077   -4.7806    2.4472 N   0  0  0  0  0  0  0  0  0  0  0  0
   11.3429   -6.0724    2.5861 N   0  0  0  0  0  0  0  0  0  0  0  0
   12.0480   -6.5602    1.6306 C   0  0  0  0  0  0  0  0  0  0  0  0
   12.5988   -8.0060    1.6008 C   0  0  0  0  0  0  0  0  0  0  0  0
   12.6111   -5.7246    0.5990 C   0  0  0  0  0  0  0  0  0  0  0  0
   13.8453   -5.5918    1.1059 C   0  0  0  0  0  0  0  0  0  0  0  0
   15.1188   -5.4024    0.4711 C   0  0  0  0  0  0  0  0  0  0  0  0
   15.3559   -5.9132   -0.7234 C   0  0  0  0  0  0  0  0  0  0  0  0
   14.2774   -6.5873   -1.8864 S   0  0  0  0  0  0  0  0  0  0  0  0
   12.6152   -5.9297   -1.7549 C   0  0  0  0  0  0  0  0  0  0  0  0
   11.8956   -5.5523   -0.6684 C   0  0  0  0  0  0  0  0  0  0  0  0
   10.1526   -5.1989   -0.5729 C   0  0  0  0  0  0  0  0  0  0  0  0
    9.3615   -4.2537   -1.1071 N   0  0  0  0  0  0  0  0  0  0  0  0
    6.5944   -4.7342   -2.3633 H   0  0  0  0  0  0  0  0  0  0  0  0
    7.2537   -3.0838   -2.6613 H   0  0  0  0  0  0  0  0  0  0  0  0
    5.9255   -3.3721   -1.5499 H   0  0  0  0  0  0  0  0  0  0  0  0
    6.7376   -4.0072    0.8988 H   0  0  0  0  0  0  0  0  0  0  0  0
    5.4851   -2.2627    0.4657 H   0  0  0  0  0  0  0  0  0  0  0  0
    6.0196   -0.0829    1.1298 H   0  0  0  0  0  0  0  0  0  0  0  0
    7.8362    1.0185   -0.3849 H   0  0  0  0  0  0  0  0  0  0  0  0
    9.2731    2.5528   -0.5733 H   0  0  0  0  0  0  0  0  0  0  0  0
    9.3729    2.4682    1.1650 H   0  0  0  0  0  0  0  0  0  0  0  0
   11.6597    2.2618    0.8779 H   0  0  0  0  0  0  0  0  0  0  0  0
   11.4635    2.2681   -0.8682 H   0  0  0  0  0  0  0  0  0  0  0  0
   11.1978   -0.1009   -0.9583 H   0  0  0  0  0  0  0  0  0  0  0  0
   10.9026    0.0080    0.7801 H   0  0  0  0  0  0  0  0  0  0  0  0
   13.4599    0.2036    1.1428 H   0  0  0  0  0  0  0  0  0  0  0  0
   13.5567   -0.4652   -0.5216 H   0  0  0  0  0  0  0  0  0  0  0  0
   11.9209   -2.0404   -0.0202 H   0  0  0  0  0  0  0  0  0  0  0  0
   11.8136   -1.2422    1.6999 H   0  0  0  0  0  0  0  0  0  0  0  0
   13.3199   -2.8885    2.4375 H   0  0  0  0  0  0  0  0  0  0  0  0
   13.1407   -3.5179    0.7863 H   0  0  0  0  0  0  0  0  0  0  0  0
    8.2865   -1.4118    2.8839 H   0  0  0  0  0  0  0  0  0  0  0  0
    9.2409   -1.3349   -0.4332 H   0  0  0  0  0  0  0  0  0  0  0  0
    9.8651   -2.8736   -0.3642 H   0  0  0  0  0  0  0  0  0  0  0  0
   11.8026   -8.7129    1.3917 H   0  0  0  0  0  0  0  0  0  0  0  0
   13.1149   -8.2382    2.5350 H   0  0  0  0  0  0  0  0  0  0  0  0
   13.3451   -8.1368    0.7933 H   0  0  0  0  0  0  0  0  0  0  0  0
   14.0026   -5.6769    2.2078 H   0  0  0  0  0  0  0  0  0  0  0  0
   15.9396   -5.1531    1.1637 H   0  0  0  0  0  0  0  0  0  0  0  0
   16.4465   -6.0609   -0.9019 H   0  0  0  0  0  0  0  0  0  0  0  0
   12.0941   -6.0455   -2.6962 H   0  0  0  0  0  0  0  0  0  0  0  0
    9.6948   -5.8949    0.1545 H   0  0  0  0  0  0  0  0  0  0  0  0
  1  2  1  0  0  0  0
  1 32  1  0  0  0  0
  1 33  1  0  0  0  0
  1 34  1  0  0  0  0
  2  3  2  3  0  0  0
  2 31  1  0  0  0  0
  3  4  1  0  0  0  0
  3 35  1  0  0  0  0
  4  5  2  3  0  0  0
  4 36  1  0  0  0  0
  5  6  1  0  0  0  0
  5 37  1  0  0  0  0
  6  7  1  0  0  0  0
  6 14  2  3  0  0  0
  7  8  1  0  0  0  0
  7 38  1  0  0  0  0
  8  9  1  0  0  0  0
  8 39  1  0  0  0  0
  8 40  1  0  0  0  0
  9 10  1  0  0  0  0
  9 41  1  0  0  0  0
  9 42  1  0  0  0  0
 10 11  1  0  0  0  0
 10 43  1  0  0  0  0
 10 44  1  0  0  0  0
 11 12  1  0  0  0  0
 11 45  1  0  0  0  0
 11 46  1  0  0  0  0
 12 13  1  0  0  0  0
 12 47  1  0  0  0  0
 12 48  1  0  0  0  0
 13 18  1  0  0  0  0
 13 49  1  0  0  0  0
 13 50  1  0  0  0  0
 14 15  1  0  0  0  0
 14 51  1  0  0  0  0
 15 16  1  0  0  0  0
 15 17  2  3  0  0  0
 16 52  1  0  0  0  0
 16 53  1  0  0  0  0
 17 18  1  0  0  0  0
 18 19  2  3  0  0  0
 19 20  1  0  0  0  0
 20 21  2  3  0  0  0
 21 22  1  0  0  0  0
 21 23  1  0  0  0  0
 22 54  1  0  0  0  0
 22 55  1  0  0  0  0
 22 56  1  0  0  0  0
 23 24  2  0  0  0  0
 23 29  1  0  0  0  0
 24 25  1  0  0  0  0
 24 57  1  0  0  0  0
 25 26  2  0  0  0  0
 25 58  1  0  0  0  0
 26 27  1  0  0  0  0
 26 59  1  0  0  0  0
 27 28  1  0  0  0  0
 28 29  2  0  0  0  0
 28 60  1  0  0  0  0
 29 30  1  0  0  0  0
 30 31  2  3  0  0  0
 30 61  1  0  0  0  0
M  END
$$$$
