
 OpenBabel04232216463D

 72 72  0  0  0  0  0  0  0  0999 V2000
    1.0017    0.0540    0.0244 C   0  0  0  0  0  0  0  0  0  0  0  0
    2.5006    0.0271    0.0130 C   0  0  0  0  0  0  0  0  0  0  0  0
    3.1550    1.1222   -0.6606 C   0  0  0  0  0  0  0  0  0  0  0  0
    3.8428    2.0804   -0.0103 C   0  0  0  0  0  0  0  0  0  0  0  0
    4.6273    3.1319   -0.7325 C   0  0  0  0  0  0  0  0  0  0  0  0
    3.7512    3.9546   -1.6658 C   0  0  0  0  0  0  0  0  0  0  0  0
    4.5747    4.9947   -2.4040 C   0  0  0  0  0  0  0  0  0  0  0  0
    3.6617    5.7970   -3.3160 C   0  0  0  0  0  0  0  0  0  0  0  0
    4.4628    6.8480   -4.0599 C   0  0  0  0  0  0  0  0  0  0  0  0
    3.5475    7.6505   -4.9724 C   0  0  0  0  0  0  0  0  0  0  0  0
    4.3446    8.7039   -5.7220 C   0  0  0  0  0  0  0  0  0  0  0  0
    3.4346    9.5127   -6.6369 C   0  0  0  0  0  0  0  0  0  0  0  0
    4.2073   10.5595   -7.3853 C   0  0  0  0  0  0  0  0  0  0  0  0
    5.4142   10.7448   -7.2746 O   0  0  0  0  0  0  0  0  0  0  0  0
    3.9298    2.0829    1.4489 C   0  0  0  0  0  0  0  0  0  0  0  0
    4.5641    1.1268    2.1444 C   0  0  0  0  0  0  0  0  0  0  0  0
    5.2092   -0.0011    1.3996 C   0  0  0  0  0  0  0  0  0  0  0  0
    6.7279    0.0199    1.3760 C   0  0  0  0  0  0  0  0  0  0  0  0
    7.3056   -0.7390    2.5587 C   0  0  0  0  0  0  0  0  0  0  0  0
    8.8303   -0.7161    2.5462 C   0  0  0  0  0  0  0  0  0  0  0  0
    9.3661   -1.4933    3.7408 C   0  0  0  0  0  0  0  0  0  0  0  0
   10.8855   -1.4830    3.7448 C   0  0  0  0  0  0  0  0  0  0  0  0
   11.4127   -2.2612    4.9408 C   0  0  0  0  0  0  0  0  0  0  0  0
   12.9333   -2.2501    4.9439 C   0  0  0  0  0  0  0  0  0  0  0  0
   13.4713   -3.0254    6.1362 C   0  0  0  0  0  0  0  0  0  0  0  0
   14.9901   -3.0137    6.1382 C   0  0  0  0  0  0  0  0  0  0  0  0
   15.4750   -3.7401    7.2564 O   0  0  0  0  0  0  0  0  0  0  0  0
    4.5894   -0.9533    0.7656 N   0  0  0  0  0  0  0  0  0  0  0  0
    3.2109   -0.8906    0.6999 C   0  0  0  0  0  0  0  0  0  0  0  0
    0.5996    0.9022   -0.5475 H   0  0  0  0  0  0  0  0  0  0  0  0
    0.6322    0.1625    1.0513 H   0  0  0  0  0  0  0  0  0  0  0  0
    0.5879   -0.8607   -0.4049 H   0  0  0  0  0  0  0  0  0  0  0  0
    3.1262    1.1031   -1.7538 H   0  0  0  0  0  0  0  0  0  0  0  0
    5.4254    2.6414   -1.3045 H   0  0  0  0  0  0  0  0  0  0  0  0
    5.1293    3.7998   -0.0195 H   0  0  0  0  0  0  0  0  0  0  0  0
    2.9589    4.4499   -1.0932 H   0  0  0  0  0  0  0  0  0  0  0  0
    3.2622    3.3088   -2.4058 H   0  0  0  0  0  0  0  0  0  0  0  0
    5.3593    4.5060   -2.9957 H   0  0  0  0  0  0  0  0  0  0  0  0
    5.0714    5.6603   -1.6882 H   0  0  0  0  0  0  0  0  0  0  0  0
    2.8722    6.2770   -2.7242 H   0  0  0  0  0  0  0  0  0  0  0  0
    3.1660    5.1283   -4.0311 H   0  0  0  0  0  0  0  0  0  0  0  0
    5.2510    6.3643   -4.6498 H   0  0  0  0  0  0  0  0  0  0  0  0
    4.9558    7.5149   -3.3420 H   0  0  0  0  0  0  0  0  0  0  0  0
    2.7612    8.1298   -4.3773 H   0  0  0  0  0  0  0  0  0  0  0  0
    3.0543    6.9782   -5.6844 H   0  0  0  0  0  0  0  0  0  0  0  0
    5.1362    8.2212   -6.3096 H   0  0  0  0  0  0  0  0  0  0  0  0
    4.8461    9.3681   -5.0062 H   0  0  0  0  0  0  0  0  0  0  0  0
    2.6554   10.0127   -6.0507 H   0  0  0  0  0  0  0  0  0  0  0  0
    2.9499    8.8557   -7.3672 H   0  0  0  0  0  0  0  0  0  0  0  0
    3.6163   11.1902   -8.0705 H   0  0  0  0  0  0  0  0  0  0  0  0
    3.4158    2.8847    1.9717 H   0  0  0  0  0  0  0  0  0  0  0  0
    4.6191    1.1099    3.2246 H   0  0  0  0  0  0  0  0  0  0  0  0
    7.0746    1.0623    1.3930 H   0  0  0  0  0  0  0  0  0  0  0  0
    7.0797   -0.4157    0.4337 H   0  0  0  0  0  0  0  0  0  0  0  0
    6.9552   -1.7774    2.5374 H   0  0  0  0  0  0  0  0  0  0  0  0
    6.9449   -0.2998    3.4967 H   0  0  0  0  0  0  0  0  0  0  0  0
    9.1945    0.3184    2.5841 H   0  0  0  0  0  0  0  0  0  0  0  0
    9.2091   -1.1582    1.6162 H   0  0  0  0  0  0  0  0  0  0  0  0
    9.0028   -2.5278    3.7052 H   0  0  0  0  0  0  0  0  0  0  0  0
    8.9902   -1.0508    4.6716 H   0  0  0  0  0  0  0  0  0  0  0  0
   11.2503   -0.4493    3.7829 H   0  0  0  0  0  0  0  0  0  0  0  0
   11.2630   -1.9272    2.8157 H   0  0  0  0  0  0  0  0  0  0  0  0
   11.0469   -3.2946    4.9027 H   0  0  0  0  0  0  0  0  0  0  0  0
   11.0342   -1.8170    5.8696 H   0  0  0  0  0  0  0  0  0  0  0  0
   13.2944   -1.2148    4.9789 H   0  0  0  0  0  0  0  0  0  0  0  0
   13.3075   -2.6917    4.0120 H   0  0  0  0  0  0  0  0  0  0  0  0
   13.1086   -4.0607    6.1141 H   0  0  0  0  0  0  0  0  0  0  0  0
   13.0936   -2.5938    7.0716 H   0  0  0  0  0  0  0  0  0  0  0  0
   15.3757   -1.9903    6.1899 H   0  0  0  0  0  0  0  0  0  0  0  0
   15.3800   -3.4820    5.2291 H   0  0  0  0  0  0  0  0  0  0  0  0
   15.1270   -3.3093    8.0556 H   0  0  0  0  0  0  0  0  0  0  0  0
    2.6890   -1.6759    1.2430 H   0  0  0  0  0  0  0  0  0  0  0  0
  1  2  1  0  0  0  0
  1 30  1  0  0  0  0
  1 31  1  0  0  0  0
  1 32  1  0  0  0  0
  2  3  1  0  0  0  0
  2 29  2  0  0  0  0
  3  4  2  0  0  0  0
  3 33  1  0  0  0  0
  4  5  1  0  0  0  0
  4 15  1  0  0  0  0
  5  6  1  0  0  0  0
  5 34  1  0  0  0  0
  5 35  1  0  0  0  0
  6  7  1  0  0  0  0
  6 36  1  0  0  0  0
  6 37  1  0  0  0  0
  7  8  1  0  0  0  0
  7 38  1  0  0  0  0
  7 39  1  0  0  0  0
  8  9  1  0  0  0  0
  8 40  1  0  0  0  0
  8 41  1  0  0  0  0
  9 10  1  0  0  0  0
  9 42  1  0  0  0  0
  9 43  1  0  0  0  0
 10 11  1  0  0  0  0
 10 44  1  0  0  0  0
 10 45  1  0  0  0  0
 11 12  1  0  0  0  0
 11 46  1  0  0  0  0
 11 47  1  0  0  0  0
 12 13  1  0  0  0  0
 12 48  1  0  0  0  0
 12 49  1  0  0  0  0
 13 14  2  0  0  0  0
 13 50  1  0  0  0  0
 15 16  2  0  0  0  0
 15 51  1  0  0  0  0
 16 17  1  0  0  0  0
 16 52  1  0  0  0  0
 17 18  1  0  0  0  0
 17 28  2  0  0  0  0
 18 19  1  0  0  0  0
 18 53  1  0  0  0  0
 18 54  1  0  0  0  0
 19 20  1  0  0  0  0
 19 55  1  0  0  0  0
 19 56  1  0  0  0  0
 20 21  1  0  0  0  0
 20 57  1  0  0  0  0
 20 58  1  0  0  0  0
 21 22  1  0  0  0  0
 21 59  1  0  0  0  0
 21 60  1  0  0  0  0
 22 23  1  0  0  0  0
 22 61  1  0  0  0  0
 22 62  1  0  0  0  0
 23 24  1  0  0  0  0
 23 63  1  0  0  0  0
 23 64  1  0  0  0  0
 24 25  1  0  0  0  0
 24 65  1  0  0  0  0
 24 66  1  0  0  0  0
 25 26  1  0  0  0  0
 25 67  1  0  0  0  0
 25 68  1  0  0  0  0
 26 27  1  0  0  0  0
 26 69  1  0  0  0  0
 26 70  1  0  0  0  0
 27 71  1  0  0  0  0
 28 29  1  0  0  0  0
 29 72  1  0  0  0  0
M  END
$$$$
