
 OpenBabel04232216433D

 16 16  0  0  0  0  0  0  0  0999 V2000
   -1.5966    0.1751    0.3281 C   0  0  0  0  0  0  0  0  0  0  0  0
   -1.0271    1.2727   -0.4942 C   0  0  0  0  0  0  0  0  0  0  0  0
    0.2590    1.6371   -0.4012 C   0  0  0  0  0  0  0  0  0  0  0  0
    1.2540    1.0121    0.4437 C   0  0  0  0  0  0  0  0  0  0  0  0
    1.5593   -0.2946    0.4397 C   0  0  0  0  0  0  0  0  0  0  0  0
    0.9475   -1.2743   -0.4317 C   0  0  0  0  0  0  0  0  0  0  0  0
   -0.3634   -1.5739   -0.4888 C   0  0  0  0  0  0  0  0  0  0  0  0
   -0.8274   -2.5004   -1.3994 O   0  0  0  0  0  0  0  0  0  0  0  0
   -1.3104   -1.0837    0.3634 N   0  0  0  0  0  0  0  0  0  0  0  0
   -2.4094    0.5118    0.9955 H   0  0  0  0  0  0  0  0  0  0  0  0
   -1.7295    1.8105   -1.1187 H   0  0  0  0  0  0  0  0  0  0  0  0
    0.6051    2.4940   -0.9750 H   0  0  0  0  0  0  0  0  0  0  0  0
    1.8157    1.6837    1.0894 H   0  0  0  0  0  0  0  0  0  0  0  0
    2.3579   -0.6607    1.0798 H   0  0  0  0  0  0  0  0  0  0  0  0
    1.6489   -1.7848   -1.0872 H   0  0  0  0  0  0  0  0  0  0  0  0
   -0.0870   -2.7698   -1.9617 H   0  0  0  0  0  0  0  0  0  0  0  0
  1  2  1  0  0  0  0
  1  9  2  0  0  0  0
  1 10  1  0  0  0  0
  2  3  2  0  0  0  0
  2 11  1  0  0  0  0
  3  4  1  0  0  0  0
  3 12  1  0  0  0  0
  4  5  2  0  0  0  0
  4 13  1  0  0  0  0
  5  6  1  0  0  0  0
  5 14  1  0  0  0  0
  6  7  2  0  0  0  0
  6 15  1  0  0  0  0
  7  8  1  0  0  0  0
  7  9  1  0  0  0  0
  8 16  1  0  0  0  0
M  END
$$$$
