
 OpenBabel04232217003D

 84 84  0  0  1  0  0  0  0  0999 V2000
    3.9589   -0.7722    2.5900 O   0  0  0  0  0  0  0  0  0  0  0  0
    4.1968   -0.0237    1.3860 C   0  0  3  0  0  0  0  0  0  0  0  0
    3.1768    0.9826    1.0551 C   0  0  3  0  0  3  0  0  0  0  0  0
    4.1518    1.9009    0.6578 O   0  0  0  0  0  0  0  0  0  0  0  0
    5.1347    1.1912    1.4563 C   0  0  3  0  0  0  0  0  0  0  0  0
    6.4382    1.1147    0.8556 O   0  0  0  0  0  0  0  0  0  0  0  0
    2.2816    1.4288    2.1334 C   0  0  0  0  0  0  0  0  0  0  0  0
    1.4228    2.3734    1.5619 O   0  0  0  0  0  0  0  0  0  0  0  0
    0.6616    2.7766    2.6821 O   0  0  0  0  0  0  0  0  0  0  0  0
   -0.2477    3.7342    2.2443 O   0  0  0  0  0  0  0  0  0  0  0  0
   -1.0201    4.1149    3.3366 O   0  0  0  0  0  0  0  0  0  0  0  0
   -1.9178    5.0664    2.8642 O   0  0  0  0  0  0  0  0  0  0  0  0
   -2.6826    5.4467    3.9398 O   0  0  0  0  0  0  0  0  0  0  0  0
   -3.5524    6.3705    3.4744 O   0  0  0  0  0  0  0  0  0  0  0  0
   -4.3154    6.7601    4.5239 O   0  0  0  0  0  0  0  0  0  0  0  0
   -5.1937    7.6932    4.0473 O   0  0  0  0  0  0  0  0  0  0  0  0
   -5.9450    8.0572    5.1435 O   0  0  0  0  0  0  0  0  0  0  0  0
   -6.8158    8.9873    4.6580 O   0  0  0  0  0  0  0  0  0  0  0  0
   -7.5650    9.3549    5.7355 O   0  0  0  0  0  0  0  0  0  0  0  0
   -8.4361   10.2856    5.2486 O   0  0  0  0  0  0  0  0  0  0  0  0
   -9.1843   10.6515    6.3287 O   0  0  0  0  0  0  0  0  0  0  0  0
  -10.0550   11.5816    5.8426 O   0  0  0  0  0  0  0  0  0  0  0  0
  -10.8028   11.9472    6.9224 O   0  0  0  0  0  0  0  0  0  0  0  0
  -11.6731   12.8770    6.4361 O   0  0  0  0  0  0  0  0  0  0  0  0
  -12.4207   13.2425    7.5158 O   0  0  0  0  0  0  0  0  0  0  0  0
  -13.2909   14.1722    7.0295 O   0  0  0  0  0  0  0  0  0  0  0  0
  -14.0384   14.5376    8.1092 O   0  0  0  0  0  0  0  0  0  0  0  0
  -14.9086   15.4673    7.6228 O   0  0  0  0  0  0  0  0  0  0  0  0
  -15.6561   15.8328    8.7026 O   0  0  0  0  0  0  0  0  0  0  0  0
  -16.5263   16.7624    8.2162 O   0  0  0  0  0  0  0  0  0  0  0  0
  -17.2738   17.1279    9.2959 O   0  0  0  0  0  0  0  0  0  0  0  0
  -18.1441   18.0576    8.8096 O   0  0  0  0  0  0  0  0  0  0  0  0
  -18.8916   18.4230    9.8893 O   0  0  0  0  0  0  0  0  0  0  0  0
  -19.7618   19.3527    9.4029 O   0  0  0  0  0  0  0  0  0  0  0  0
  -20.5093   19.7181   10.4826 O   0  0  0  0  0  0  0  0  0  0  0  0
  -21.3795   20.6478    9.9963 O   0  0  0  0  0  0  0  0  0  0  0  0
  -22.1270   21.0132   11.0760 O   0  0  0  0  0  0  0  0  0  0  0  0
  -22.9972   21.9429   10.5896 O   0  0  0  0  0  0  0  0  0  0  0  0
  -23.7447   22.3083   11.6694 O   0  0  0  0  0  0  0  0  0  0  0  0
  -24.6149   23.2380   11.1830 O   0  0  0  0  0  0  0  0  0  0  0  0
  -25.3624   23.6035   12.2627 O   0  0  0  0  0  0  0  0  0  0  0  0
  -26.2326   24.5331   11.7764 O   0  0  0  0  0  0  0  0  0  0  0  0
  -26.9801   24.8986   12.8561 O   0  0  0  0  0  0  0  0  0  0  0  0
  -27.8503   25.8283   12.3697 O   0  0  0  0  0  0  0  0  0  0  0  0
  -28.5978   26.1937   13.4494 O   0  0  0  0  0  0  0  0  0  0  0  0
  -29.4680   27.1234   12.9631 O   0  0  0  0  0  0  0  0  0  0  0  0
  -30.2155   27.4888   14.0428 O   0  0  0  0  0  0  0  0  0  0  0  0
  -31.0857   28.4185   13.5564 O   0  0  0  0  0  0  0  0  0  0  0  0
  -31.8332   28.7839   14.6362 O   0  0  0  0  0  0  0  0  0  0  0  0
  -32.7034   29.7136   14.1498 O   0  0  0  0  0  0  0  0  0  0  0  0
  -33.4510   30.0790   15.2295 O   0  0  0  0  0  0  0  0  0  0  0  0
  -34.3212   31.0087   14.7432 O   0  0  0  0  0  0  0  0  0  0  0  0
  -35.0687   31.3742   15.8229 O   0  0  0  0  0  0  0  0  0  0  0  0
  -35.9389   32.3038   15.3365 O   0  0  0  0  0  0  0  0  0  0  0  0
  -36.6864   32.6693   16.4162 O   0  0  0  0  0  0  0  0  0  0  0  0
  -37.5566   33.5990   15.9299 O   0  0  0  0  0  0  0  0  0  0  0  0
  -38.3041   33.9644   17.0096 O   0  0  0  0  0  0  0  0  0  0  0  0
  -39.1743   34.8941   16.5232 O   0  0  0  0  0  0  0  0  0  0  0  0
  -39.9218   35.2595   17.6030 O   0  0  0  0  0  0  0  0  0  0  0  0
  -40.7920   36.1892   17.1166 O   0  0  0  0  0  0  0  0  0  0  0  0
  -41.5396   36.5547   18.1964 O   0  0  0  0  0  0  0  0  0  0  0  0
  -42.4100   37.4845   17.7100 O   0  0  0  0  0  0  0  0  0  0  0  0
  -43.1579   37.8503   18.7900 O   0  0  0  0  0  0  0  0  0  0  0  0
  -44.0289   38.7806   18.3038 O   0  0  0  0  0  0  0  0  0  0  0  0
  -44.7773   39.1468   19.3836 O   0  0  0  0  0  0  0  0  0  0  0  0
  -45.6502   40.0789   18.8974 O   0  0  0  0  0  0  0  0  0  0  0  0
  -46.3988   40.4448   19.9788 O   0  0  0  0  0  0  0  0  0  0  0  0
  -47.2733   41.3774   19.4961 O   0  0  0  0  0  0  0  0  0  0  0  0
  -48.0253   41.7455   20.5806 O   0  0  0  0  0  0  0  0  0  0  0  0
  -48.9026   42.6814   20.0948 O   0  0  0  0  0  0  0  0  0  0  0  0
  -49.6632   43.0584   21.1760 O   0  0  0  0  0  0  0  0  0  0  0  0
  -50.5490   43.9989   20.7009 O   0  0  0  0  0  0  0  0  0  0  0  0
  -51.3178   44.3807   21.7909 O   0  0  0  0  0  0  0  0  0  0  0  0
  -52.2192   45.3315   21.3291 O   0  0  0  0  0  0  0  0  0  0  0  0
  -53.0009   45.7244   22.4210 O   0  0  0  0  0  0  0  0  0  0  0  0
  -53.9270   46.6923   21.9781 O   0  0  0  0  0  0  0  0  0  0  0  0
  -54.7220   47.0917   23.0891 O   0  0  0  0  0  0  0  0  0  0  0  0
    3.3268   -1.4554    2.3139 H   0  0  0  0  0  0  0  0  0  0  0  0
    4.3765   -0.6948    0.5409 H   0  0  0  0  0  0  0  0  0  0  0  0
    5.1987    1.6376    2.4583 H   0  0  0  0  0  0  0  0  0  0  0  0
    6.2788    0.6974   -0.0054 H   0  0  0  0  0  0  0  0  0  0  0  0
    2.8338    1.9132    2.9531 H   0  0  0  0  0  0  0  0  0  0  0  0
    1.6836    0.6114    2.5440 H   0  0  0  0  0  0  0  0  0  0  0  0
  -55.2483   47.7172   22.5761 H   0  0  0  0  0  0  0  0  0  0  0  0
  1  2  1  0  0  0  0
  1 78  1  0  0  0  0
  2  3  1  0  0  0  0
  2  5  1  0  0  0  0
  2 79  1  0  0  0  0
  3  4  1  0  0  0  0
  3  7  1  0  0  0  0
  4  5  1  0  0  0  0
  5  6  1  0  0  0  0
  5 80  1  0  0  0  0
  6 81  1  0  0  0  0
  7  8  1  0  0  0  0
  7 82  1  0  0  0  0
  7 83  1  0  0  0  0
  8  9  1  0  0  0  0
  9 10  1  0  0  0  0
 10 11  1  0  0  0  0
 11 12  1  0  0  0  0
 12 13  1  0  0  0  0
 13 14  1  0  0  0  0
 14 15  1  0  0  0  0
 15 16  1  0  0  0  0
 16 17  1  0  0  0  0
 17 18  1  0  0  0  0
 18 19  1  0  0  0  0
 19 20  1  0  0  0  0
 20 21  1  0  0  0  0
 21 22  1  0  0  0  0
 22 23  1  0  0  0  0
 23 24  1  0  0  0  0
 24 25  1  0  0  0  0
 25 26  1  0  0  0  0
 26 27  1  0  0  0  0
 27 28  1  0  0  0  0
 28 29  1  0  0  0  0
 29 30  1  0  0  0  0
 30 31  1  0  0  0  0
 31 32  1  0  0  0  0
 32 33  1  0  0  0  0
 33 34  1  0  0  0  0
 34 35  1  0  0  0  0
 35 36  1  0  0  0  0
 36 37  1  0  0  0  0
 37 38  1  0  0  0  0
 38 39  1  0  0  0  0
 39 40  1  0  0  0  0
 40 41  1  0  0  0  0
 41 42  1  0  0  0  0
 42 43  1  0  0  0  0
 43 44  1  0  0  0  0
 44 45  1  0  0  0  0
 45 46  1  0  0  0  0
 46 47  1  0  0  0  0
 47 48  1  0  0  0  0
 48 49  1  0  0  0  0
 49 50  1  0  0  0  0
 50 51  1  0  0  0  0
 51 52  1  0  0  0  0
 52 53  1  0  0  0  0
 53 54  1  0  0  0  0
 54 55  1  0  0  0  0
 55 56  1  0  0  0  0
 56 57  1  0  0  0  0
 57 58  1  0  0  0  0
 58 59  1  0  0  0  0
 59 60  1  0  0  0  0
 60 61  1  0  0  0  0
 61 62  1  0  0  0  0
 62 63  1  0  0  0  0
 63 64  1  0  0  0  0
 64 65  1  0  0  0  0
 65 66  1  0  0  0  0
 66 67  1  0  0  0  0
 67 68  1  0  0  0  0
 68 69  1  0  0  0  0
 69 70  1  0  0  0  0
 70 71  1  0  0  0  0
 71 72  1  0  0  0  0
 72 73  1  0  0  0  0
 73 74  1  0  0  0  0
 74 75  1  0  0  0  0
 75 76  1  0  0  0  0
 76 77  1  0  0  0  0
 77 84  1  0  0  0  0
M  END
$$$$
