
 OpenBabel04232216403D

 56 57  0  0  0  0  0  0  0  0999 V2000
    5.6383   -0.3552    0.3113 C   0  0  0  0  0  0  0  0  0  0  0  0
    6.1821   -1.0428   -0.7145 C   0  0  0  0  0  0  0  0  0  0  0  0
    7.3513   -1.7941   -1.4333 C   0  0  0  0  0  0  0  0  0  0  0  0
    8.9157   -2.2928   -1.5080 N   0  0  0  0  0  0  0  0  0  0  0  0
    8.8486   -3.8557   -2.1792 C   0  0  0  0  0  0  0  0  0  0  0  0
    7.5135   -4.2250   -2.9104 C   0  0  0  0  0  0  0  0  0  0  0  0
    9.7909   -4.8872   -2.4882 N   0  0  0  0  0  0  0  0  0  0  0  0
   11.1794   -4.5240   -2.8399 C   0  0  0  0  0  0  0  0  0  0  0  0
   12.6173   -5.2581   -2.5585 C   0  0  0  0  0  0  0  0  0  0  0  0
   14.0212   -5.0518   -3.4144 C   0  0  0  0  0  0  0  0  0  0  0  0
   14.9927   -3.8382   -3.1274 C   0  0  0  0  0  0  0  0  0  0  0  0
   14.3081   -2.4829   -3.0059 C   0  0  0  0  0  0  0  0  0  0  0  0
   13.3748   -1.9683   -1.6982 C   0  0  0  0  0  0  0  0  0  0  0  0
   11.2074   -3.2469   -2.5135 C   0  0  0  0  0  0  0  0  0  0  0  0
   11.1468   -3.4097   -0.7086 C   0  0  0  0  0  0  0  0  0  0  0  0
   10.1747   -2.3300   -3.5630 C   0  0  0  0  0  0  0  0  0  0  0  0
   10.4060   -1.1563   -4.2541 C   0  0  0  0  0  0  0  0  0  0  0  0
   10.4673    0.4715   -3.9326 C   0  0  0  0  0  0  0  0  0  0  0  0
   11.8002   -1.3351   -4.5570 C   0  0  0  0  0  0  0  0  0  0  0  0
   12.0114   -2.6332   -5.4594 C   0  0  0  0  0  0  0  0  0  0  0  0
   12.4013   -0.8867   -3.4089 C   0  0  0  0  0  0  0  0  0  0  0  0
   11.8195   -1.0191   -1.8392 C   0  0  0  0  0  0  0  0  0  0  0  0
   10.2569   -1.1585   -1.4159 C   0  0  0  0  0  0  0  0  0  0  0  0
    9.5687    0.0543   -0.7565 C   0  0  0  0  0  0  0  0  0  0  0  0
    4.5691   -0.0612    0.2213 H   0  0  0  0  0  0  0  0  0  0  0  0
    6.1063    0.1133    1.1666 H   0  0  0  0  0  0  0  0  0  0  0  0
    5.3151   -1.2855   -1.3694 H   0  0  0  0  0  0  0  0  0  0  0  0
    7.1263   -1.5752   -2.4822 H   0  0  0  0  0  0  0  0  0  0  0  0
    6.9355   -2.7520   -1.1085 H   0  0  0  0  0  0  0  0  0  0  0  0
    6.6204   -3.6575   -2.6661 H   0  0  0  0  0  0  0  0  0  0  0  0
    7.2588   -5.2829   -2.8066 H   0  0  0  0  0  0  0  0  0  0  0  0
    7.6561   -4.0225   -3.9823 H   0  0  0  0  0  0  0  0  0  0  0  0
   12.4586   -6.3369   -2.4941 H   0  0  0  0  0  0  0  0  0  0  0  0
   12.9817   -4.9414   -1.5662 H   0  0  0  0  0  0  0  0  0  0  0  0
   14.6679   -5.9240   -3.2039 H   0  0  0  0  0  0  0  0  0  0  0  0
   13.8602   -5.1279   -4.5013 H   0  0  0  0  0  0  0  0  0  0  0  0
   15.6498   -3.7625   -4.0293 H   0  0  0  0  0  0  0  0  0  0  0  0
   15.7227   -4.0110   -2.3294 H   0  0  0  0  0  0  0  0  0  0  0  0
   13.7101   -2.5805   -3.8899 H   0  0  0  0  0  0  0  0  0  0  0  0
   15.0236   -1.6875   -3.2742 H   0  0  0  0  0  0  0  0  0  0  0  0
   14.0279   -1.2481   -1.1836 H   0  0  0  0  0  0  0  0  0  0  0  0
   13.3621   -2.8214   -1.0278 H   0  0  0  0  0  0  0  0  0  0  0  0
   10.1982   -3.2320   -0.1955 H   0  0  0  0  0  0  0  0  0  0  0  0
   11.8251   -2.7748   -0.1351 H   0  0  0  0  0  0  0  0  0  0  0  0
   11.3724   -4.4349   -0.3965 H   0  0  0  0  0  0  0  0  0  0  0  0
    9.6784   -3.0682   -4.2092 H   0  0  0  0  0  0  0  0  0  0  0  0
    9.5209    0.9795   -3.8597 H   0  0  0  0  0  0  0  0  0  0  0  0
   11.0902    0.9755   -4.7139 H   0  0  0  0  0  0  0  0  0  0  0  0
   11.0198    0.7996   -3.0202 H   0  0  0  0  0  0  0  0  0  0  0  0
   11.0520   -3.0657   -5.8088 H   0  0  0  0  0  0  0  0  0  0  0  0
   12.4347   -3.4928   -4.9265 H   0  0  0  0  0  0  0  0  0  0  0  0
   12.6039   -2.4822   -6.3564 H   0  0  0  0  0  0  0  0  0  0  0  0
   13.3510   -0.3699   -3.4771 H   0  0  0  0  0  0  0  0  0  0  0  0
   10.2450    0.8052   -0.3486 H   0  0  0  0  0  0  0  0  0  0  0  0
    8.9584   -0.3087    0.0843 H   0  0  0  0  0  0  0  0  0  0  0  0
    8.8688    0.5210   -1.4606 H   0  0  0  0  0  0  0  0  0  0  0  0
  1  2  2  0  0  0  0
  1 25  1  0  0  0  0
  1 26  1  0  0  0  0
  2  3  1  0  0  0  0
  2 27  1  0  0  0  0
  3  4  1  0  0  0  0
  3 28  1  0  0  0  0
  3 29  1  0  0  0  0
  4  5  1  0  0  0  0
  4 23  1  0  0  0  0
  5  6  1  0  0  0  0
  5  7  2  3  0  0  0
  6 30  1  0  0  0  0
  6 31  1  0  0  0  0
  6 32  1  0  0  0  0
  7  8  1  0  0  0  0
  8  9  1  0  0  0  0
  8 14  2  3  0  0  0
  9 10  1  0  0  0  0
  9 33  1  0  0  0  0
  9 34  1  0  0  0  0
 10 11  1  0  0  0  0
 10 35  1  0  0  0  0
 10 36  1  0  0  0  0
 11 12  1  0  0  0  0
 11 37  1  0  0  0  0
 11 38  1  0  0  0  0
 12 13  1  0  0  0  0
 12 39  1  0  0  0  0
 12 40  1  0  0  0  0
 13 22  1  0  0  0  0
 13 41  1  0  0  0  0
 13 42  1  0  0  0  0
 14 15  1  0  0  0  0
 14 16  1  0  0  0  0
 15 43  1  0  0  0  0
 15 44  1  0  0  0  0
 15 45  1  0  0  0  0
 16 17  2  3  0  0  0
 16 46  1  0  0  0  0
 17 18  1  0  0  0  0
 17 19  1  0  0  0  0
 18 47  1  0  0  0  0
 18 48  1  0  0  0  0
 18 49  1  0  0  0  0
 19 20  1  0  0  0  0
 19 21  2  3  0  0  0
 20 50  1  0  0  0  0
 20 51  1  0  0  0  0
 20 52  1  0  0  0  0
 21 22  1  0  0  0  0
 21 53  1  0  0  0  0
 22 23  2  3  0  0  0
 23 24  1  0  0  0  0
 24 54  1  0  0  0  0
 24 55  1  0  0  0  0
 24 56  1  0  0  0  0
M  END
$$$$
