
 OpenBabel04232216553D

158157  0  0  0  0  0  0  0  0999 V2000
   52.2942   -9.5246   28.2042 C   0  0  0  0  0  0  0  0  0  0  0  0
   51.9467   -8.3909   27.2602 C   0  0  0  0  0  0  0  0  0  0  0  0
   50.4354   -8.2877   27.0874 C   0  0  0  0  0  0  0  0  0  0  0  0
   50.0825   -7.1454   26.1389 C   0  0  0  0  0  0  0  0  0  0  0  0
   48.6365   -7.0746   25.9991 N   0  0  0  0  0  0  0  0  0  0  0  0
   48.3186   -5.9989   25.1230 N   0  0  0  0  0  0  0  0  0  0  0  0
   46.9239   -5.9138   24.9604 N   0  0  0  0  0  0  0  0  0  0  0  0
   46.6114   -4.8731   24.0712 N   0  0  0  0  0  0  0  0  0  0  0  0
   45.2069   -4.8010   23.9342 N   0  0  0  0  0  0  0  0  0  0  0  0
   44.8438   -3.7337   23.0704 N   0  0  0  0  0  0  0  0  0  0  0  0
   43.4223   -3.6552   22.9186 N   0  0  0  0  0  0  0  0  0  0  0  0
   42.7543   -3.3719   24.1502 N   0  0  0  0  0  0  0  0  0  0  0  0
   41.1005   -3.3261   24.0081 S   0  0  0  0  0  0  0  0  0  0  0  0
   40.4936   -4.7564   23.3783 N   0  0  0  0  0  0  0  0  0  0  0  0
   40.8025   -6.0739   24.3403 S   0  0  0  0  0  0  0  0  0  0  0  0
   40.2068   -7.4631   23.6638 N   0  0  0  0  0  0  0  0  0  0  0  0
   40.8169   -7.8977   22.1952 S   0  0  0  0  0  0  0  0  0  0  0  0
   42.4325   -8.1858   22.2601 N   0  0  0  0  0  0  0  0  0  0  0  0
   42.9619   -9.4404   23.1954 S   0  0  0  0  0  0  0  0  0  0  0  0
   42.3255  -10.8915   22.7036 N   0  0  0  0  0  0  0  0  0  0  0  0
   42.7669  -11.3492   21.1767 S   0  0  0  0  0  0  0  0  0  0  0  0
   42.0376  -12.7744   20.7660 N   0  0  0  0  0  0  0  0  0  0  0  0
   40.3853  -12.8408   20.7316 S   0  0  0  0  0  0  0  0  0  0  0  0
   39.7570  -11.7236   19.6713 N   0  0  0  0  0  0  0  0  0  0  0  0
   38.0850  -11.6647   19.6923 S   0  0  0  0  0  0  0  0  0  0  0  0
   37.4890  -11.3128   21.2120 N   0  0  0  0  0  0  0  0  0  0  0  0
   37.9053   -9.8238   21.7714 S   0  0  0  0  0  0  0  0  0  0  0  0
   37.2805   -9.5840   23.2816 N   0  0  0  0  0  0  0  0  0  0  0  0
   37.7464  -10.5964   24.4953 S   0  0  0  0  0  0  0  0  0  0  0  0
   39.3961  -10.6337   24.6887 N   0  0  0  0  0  0  0  0  0  0  0  0
   39.8293  -11.7340   25.8793 S   0  0  0  0  0  0  0  0  0  0  0  0
   39.4066  -13.2875   25.4478 N   0  0  0  0  0  0  0  0  0  0  0  0
   39.9318  -13.7086   24.2029 N   0  0  0  0  0  0  0  0  0  0  0  0
   41.3712  -13.7766   24.2214 N   0  0  0  0  0  0  0  0  0  0  0  0
   41.8268  -14.6867   25.2363 N   0  0  0  0  0  0  0  0  0  0  0  0
   41.3810  -16.0204   24.9556 N   0  0  0  0  0  0  0  0  0  0  0  0
   41.8814  -16.4821   23.6747 N   0  0  0  0  0  0  0  0  0  0  0  0
   43.3108  -16.4145   23.6978 N   0  0  0  0  0  0  0  0  0  0  0  0
   43.7741  -17.3341   24.7221 N   0  0  0  0  0  0  0  0  0  0  0  0
   43.2654  -18.6865   24.4787 N   0  0  0  0  0  0  0  0  0  0  0  0
   43.7321  -19.1619   23.2043 N   0  0  0  0  0  0  0  0  0  0  0  0
   45.1694  -19.1544   23.1970 N   0  0  0  0  0  0  0  0  0  0  0  0
   45.6531  -19.9897   24.2563 N   0  0  0  0  0  0  0  0  0  0  0  0
   45.1693  -21.3421   24.0643 N   0  0  0  0  0  0  0  0  0  0  0  0
   45.6135  -21.8277   22.7747 N   0  0  0  0  0  0  0  0  0  0  0  0
   47.0337  -21.7460   22.7564 N   0  0  0  0  0  0  0  0  0  0  0  0
   47.5416  -22.5746   23.8357 N   0  0  0  0  0  0  0  0  0  0  0  0
   47.0772  -23.9401   23.6956 N   0  0  0  0  0  0  0  0  0  0  0  0
   47.5364  -24.4760   22.4339 N   0  0  0  0  0  0  0  0  0  0  0  0
   48.9683  -24.4584   22.3666 N   0  0  0  0  0  0  0  0  0  0  0  0
   49.5323  -25.2510   23.4271 N   0  0  0  0  0  0  0  0  0  0  0  0
   49.0771  -26.5954   23.3014 N   0  0  0  0  0  0  0  0  0  0  0  0
   49.4762  -27.0897   22.0352 N   0  0  0  0  0  0  0  0  0  0  0  0
   50.9100  -27.0381   21.9191 N   0  0  0  0  0  0  0  0  0  0  0  0
   51.5122  -27.8057   22.9531 N   0  0  0  0  0  0  0  0  0  0  0  0
   51.0554  -29.1669   22.8830 N   0  0  0  0  0  0  0  0  0  0  0  0
   51.4389  -29.7630   21.6249 N   0  0  0  0  0  0  0  0  0  0  0  0
   52.8414  -29.6677   21.4753 N   0  0  0  0  0  0  0  0  0  0  0  0
   53.4418  -30.3904   22.5348 N   0  0  0  0  0  0  0  0  0  0  0  0
   53.0431  -31.7915   22.4780 N   0  0  0  0  0  0  0  0  0  0  0  0
   53.3598  -32.3589   21.2076 N   0  0  0  0  0  0  0  0  0  0  0  0
   54.7699  -32.3098   21.0342 N   0  0  0  0  0  0  0  0  0  0  0  0
   55.4022  -33.0445   22.1018 N   0  0  0  0  0  0  0  0  0  0  0  0
   54.9341  -34.3842   22.0965 N   0  0  0  0  0  0  0  0  0  0  0  0
   55.2733  -34.9864   20.8323 N   0  0  0  0  0  0  0  0  0  0  0  0
   56.7111  -34.9726   20.6179 N   0  0  0  0  0  0  0  0  0  0  0  0
   57.3903  -35.6807   21.6581 N   0  0  0  0  0  0  0  0  0  0  0  0
   56.9391  -37.0459   21.6835 N   0  0  0  0  0  0  0  0  0  0  0  0
   57.1930  -37.6192   20.3858 N   0  0  0  0  0  0  0  0  0  0  0  0
   58.6385  -37.5841   20.1499 N   0  0  0  0  0  0  0  0  0  0  0  0
   59.3563  -38.2827   21.1934 N   0  0  0  0  0  0  0  0  0  0  0  0
   58.9218  -39.6380   21.2525 N   0  0  0  0  0  0  0  0  0  0  0  0
   59.1277  -40.2348   19.9621 N   0  0  0  0  0  0  0  0  0  0  0  0
   60.5372  -40.1197   19.6642 N   0  0  0  0  0  0  0  0  0  0  0  0
   61.2996  -40.8294   20.7013 N   0  0  0  0  0  0  0  0  0  0  0  0
   60.9021  -42.2133   20.7736 N   0  0  0  0  0  0  0  0  0  0  0  0
   61.1217  -42.8706   19.5042 N   0  0  0  0  0  0  0  0  0  0  0  0
   62.5186  -42.7844   19.1593 N   0  0  0  0  0  0  0  0  0  0  0  0
   63.2967  -43.4634   20.1630 N   0  0  0  0  0  0  0  0  0  0  0  0
   62.8851  -44.8426   20.2906 N   0  0  0  0  0  0  0  0  0  0  0  0
   63.0750  -45.5350   19.0175 N   0  0  0  0  0  0  0  0  0  0  0  0
   53.3779   -9.5968   28.3274 H   0  0  0  0  0  0  0  0  0  0  0  0
   51.9248  -10.4774   27.8122 H   0  0  0  0  0  0  0  0  0  0  0  0
   51.8432   -9.3571   29.1875 H   0  0  0  0  0  0  0  0  0  0  0  0
   52.4234   -8.5656   26.2887 H   0  0  0  0  0  0  0  0  0  0  0  0
   52.3424   -7.4496   27.6590 H   0  0  0  0  0  0  0  0  0  0  0  0
   49.9675   -8.1240   28.0668 H   0  0  0  0  0  0  0  0  0  0  0  0
   50.0476   -9.2370   26.6949 H   0  0  0  0  0  0  0  0  0  0  0  0
   50.5551   -7.3321   25.1672 H   0  0  0  0  0  0  0  0  0  0  0  0
   50.4793   -6.2063   26.5428 H   0  0  0  0  0  0  0  0  0  0  0  0
   48.2202   -6.8804   26.9085 H   0  0  0  0  0  0  0  0  0  0  0  0
   48.6888   -6.1731   24.1911 H   0  0  0  0  0  0  0  0  0  0  0  0
   46.4414   -5.7573   25.8425 H   0  0  0  0  0  0  0  0  0  0  0  0
   47.0727   -5.0373   23.1724 H   0  0  0  0  0  0  0  0  0  0  0  0
   44.7929   -4.6030   24.8537 H   0  0  0  0  0  0  0  0  0  0  0  0
   45.2406   -3.8731   22.1377 H   0  0  0  0  0  0  0  0  0  0  0  0
   43.0774   -4.5344   22.5352 H   0  0  0  0  0  0  0  0  0  0  0  0
   43.1552   -2.5084   24.5281 H   0  0  0  0  0  0  0  0  0  0  0  0
   40.8787   -4.8646   22.4415 H   0  0  0  0  0  0  0  0  0  0  0  0
   39.1815   -7.5121   23.6495 H   0  0  0  0  0  0  0  0  0  0  0  0
   42.9198   -7.3302   22.5242 H   0  0  0  0  0  0  0  0  0  0  0  0
   41.3155  -10.8364   22.7706 H   0  0  0  0  0  0  0  0  0  0  0  0
   42.4519  -13.5775   21.2433 H   0  0  0  0  0  0  0  0  0  0  0  0
   40.0882  -11.9282   18.7301 H   0  0  0  0  0  0  0  0  0  0  0  0
   37.7395  -12.0382   21.8775 H   0  0  0  0  0  0  0  0  0  0  0  0
   36.2650   -9.4412   23.2367 H   0  0  0  0  0  0  0  0  0  0  0  0
   39.7844   -9.7307   24.9539 H   0  0  0  0  0  0  0  0  0  0  0  0
   38.4020  -13.4026   25.3887 H   0  0  0  0  0  0  0  0  0  0  0  0
   39.5850  -13.0966   23.4574 H   0  0  0  0  0  0  0  0  0  0  0  0
   41.7395  -12.8717   24.4909 H   0  0  0  0  0  0  0  0  0  0  0  0
   41.4627  -14.3482   26.1477 H   0  0  0  0  0  0  0  0  0  0  0  0
   40.3639  -16.0472   24.9291 H   0  0  0  0  0  0  0  0  0  0  0  0
   41.5146  -15.8156   22.9797 H   0  0  0  0  0  0  0  0  0  0  0  0
   43.5877  -15.4487   23.9322 H   0  0  0  0  0  0  0  0  0  0  0  0
   43.4166  -17.0352   25.6386 H   0  0  0  0  0  0  0  0  0  0  0  0
   42.2316  -18.6369   24.4878 H   0  0  0  0  0  0  0  0  0  0  0  0
   43.4266  -18.5350   22.4692 H   0  0  0  0  0  0  0  0  0  0  0  0
   45.4525  -18.1772   23.3706 H   0  0  0  0  0  0  0  0  0  0  0  0
   45.2640  -19.6391   25.1369 H   0  0  0  0  0  0  0  0  0  0  0  0
   44.1395  -21.2826   24.0885 H   0  0  0  0  0  0  0  0  0  0  0  0
   45.2583  -21.1474   22.0916 H   0  0  0  0  0  0  0  0  0  0  0  0
   47.3050  -20.7746   22.9326 H   0  0  0  0  0  0  0  0  0  0  0  0
   47.1972  -22.1831   24.7278 H   0  0  0  0  0  0  0  0  0  0  0  0
   46.0549  -23.9772   23.7101 H   0  0  0  0  0  0  0  0  0  0  0  0
   47.1343  -23.8904   21.6839 H   0  0  0  0  0  0  0  0  0  0  0  0
   49.3319  -23.5131   22.4602 H   0  0  0  0  0  0  0  0  0  0  0  0
   49.2205  -24.8553   24.3267 H   0  0  0  0  0  0  0  0  0  0  0  0
   48.0528  -26.5880   23.3313 H   0  0  0  0  0  0  0  0  0  0  0  0
   49.1183  -26.4774   21.3083 H   0  0  0  0  0  0  0  0  0  0  0  0
   51.1741  -26.0488   22.0201 H   0  0  0  0  0  0  0  0  0  0  0  0
   51.1796  -27.4513   23.8444 H   0  0  0  0  0  0  0  0  0  0  0  0
   50.0311  -29.1182   22.9569 H   0  0  0  0  0  0  0  0  0  0  0  0
   51.0531  -29.1724   20.8941 H   0  0  0  0  0  0  0  0  0  0  0  0
   53.0686  -28.6758   21.5896 H   0  0  0  0  0  0  0  0  0  0  0  0
   53.1020  -29.9788   23.4059 H   0  0  0  0  0  0  0  0  0  0  0  0
   52.0265  -31.7945   22.5103 H   0  0  0  0  0  0  0  0  0  0  0  0
   52.8711  -31.7806   20.5074 H   0  0  0  0  0  0  0  0  0  0  0  0
   55.0657  -31.3275   21.0772 H   0  0  0  0  0  0  0  0  0  0  0  0
   55.1036  -32.6592   22.9918 H   0  0  0  0  0  0  0  0  0  0  0  0
   53.9118  -34.3380   22.2211 H   0  0  0  0  0  0  0  0  0  0  0  0
   54.8190  -34.4150   20.1023 H   0  0  0  0  0  0  0  0  0  0  0  0
   57.0395  -34.0072   20.6541 H   0  0  0  0  0  0  0  0  0  0  0  0
   57.1247  -35.2439   22.5369 H   0  0  0  0  0  0  0  0  0  0  0  0
   55.9211  -36.9535   21.8255 H   0  0  0  0  0  0  0  0  0  0  0  0
   56.7285  -36.9983   19.7033 H   0  0  0  0  0  0  0  0  0  0  0  0
   58.9100  -36.5977   20.2242 H   0  0  0  0  0  0  0  0  0  0  0  0
   59.1132  -37.8126   22.0720 H   0  0  0  0  0  0  0  0  0  0  0  0
   57.9216  -39.6035   21.4286 H   0  0  0  0  0  0  0  0  0  0  0  0
   58.6096  -39.6390   19.3068 H   0  0  0  0  0  0  0  0  0  0  0  0
   60.7719  -39.1169   19.7260 H   0  0  0  0  0  0  0  0  0  0  0  0
   61.0791  -40.3628   21.6059 H   0  0  0  0  0  0  0  0  0  0  0  0
   59.9051  -42.2612   20.9997 H   0  0  0  0  0  0  0  0  0  0  0  0
   60.5933  -42.3527   18.8090 H   0  0  0  0  0  0  0  0  0  0  0  0
   62.7531  -41.7931   19.1965 H   0  0  0  0  0  0  0  0  0  0  0  0
   63.0660  -42.9836   21.0453 H   0  0  0  0  0  0  0  0  0  0  0  0
   61.8832  -44.8077   20.5105 H   0  0  0  0  0  0  0  0  0  0  0  0
   64.0397  -45.3397   18.7655 H   0  0  0  0  0  0  0  0  0  0  0  0
   62.5380  -44.9345   18.3708 H   0  0  0  0  0  0  0  0  0  0  0  0
  1  2  1  0  0  0  0
  1 82  1  0  0  0  0
  1 83  1  0  0  0  0
  1 84  1  0  0  0  0
  2  3  1  0  0  0  0
  2 85  1  0  0  0  0
  2 86  1  0  0  0  0
  3  4  1  0  0  0  0
  3 87  1  0  0  0  0
  3 88  1  0  0  0  0
  4  5  1  0  0  0  0
  4 89  1  0  0  0  0
  4 90  1  0  0  0  0
  5  6  1  0  0  0  0
  5 91  1  0  0  0  0
  6  7  1  0  0  0  0
  6 92  1  0  0  0  0
  7  8  1  0  0  0  0
  7 93  1  0  0  0  0
  8  9  1  0  0  0  0
  8 94  1  0  0  0  0
  9 10  1  0  0  0  0
  9 95  1  0  0  0  0
 10 11  1  0  0  0  0
 10 96  1  0  0  0  0
 11 12  1  0  0  0  0
 11 97  1  0  0  0  0
 12 13  1  0  0  0  0
 12 98  1  0  0  0  0
 13 14  1  0  0  0  0
 14 15  1  0  0  0  0
 14 99  1  0  0  0  0
 15 16  1  0  0  0  0
 16 17  1  0  0  0  0
 16100  1  0  0  0  0
 17 18  1  0  0  0  0
 18 19  1  0  0  0  0
 18101  1  0  0  0  0
 19 20  1  0  0  0  0
 20 21  1  0  0  0  0
 20102  1  0  0  0  0
 21 22  1  0  0  0  0
 22 23  1  0  0  0  0
 22103  1  0  0  0  0
 23 24  1  0  0  0  0
 24 25  1  0  0  0  0
 24104  1  0  0  0  0
 25 26  1  0  0  0  0
 26 27  1  0  0  0  0
 26105  1  0  0  0  0
 27 28  1  0  0  0  0
 28 29  1  0  0  0  0
 28106  1  0  0  0  0
 29 30  1  0  0  0  0
 30 31  1  0  0  0  0
 30107  1  0  0  0  0
 31 32  1  0  0  0  0
 32 33  1  0  0  0  0
 32108  1  0  0  0  0
 33 34  1  0  0  0  0
 33109  1  0  0  0  0
 34 35  1  0  0  0  0
 34110  1  0  0  0  0
 35 36  1  0  0  0  0
 35111  1  0  0  0  0
 36 37  1  0  0  0  0
 36112  1  0  0  0  0
 37 38  1  0  0  0  0
 37113  1  0  0  0  0
 38 39  1  0  0  0  0
 38114  1  0  0  0  0
 39 40  1  0  0  0  0
 39115  1  0  0  0  0
 40 41  1  0  0  0  0
 40116  1  0  0  0  0
 41 42  1  0  0  0  0
 41117  1  0  0  0  0
 42 43  1  0  0  0  0
 42118  1  0  0  0  0
 43 44  1  0  0  0  0
 43119  1  0  0  0  0
 44 45  1  0  0  0  0
 44120  1  0  0  0  0
 45 46  1  0  0  0  0
 45121  1  0  0  0  0
 46 47  1  0  0  0  0
 46122  1  0  0  0  0
 47 48  1  0  0  0  0
 47123  1  0  0  0  0
 48 49  1  0  0  0  0
 48124  1  0  0  0  0
 49 50  1  0  0  0  0
 49125  1  0  0  0  0
 50 51  1  0  0  0  0
 50126  1  0  0  0  0
 51 52  1  0  0  0  0
 51127  1  0  0  0  0
 52 53  1  0  0  0  0
 52128  1  0  0  0  0
 53 54  1  0  0  0  0
 53129  1  0  0  0  0
 54 55  1  0  0  0  0
 54130  1  0  0  0  0
 55 56  1  0  0  0  0
 55131  1  0  0  0  0
 56 57  1  0  0  0  0
 56132  1  0  0  0  0
 57 58  1  0  0  0  0
 57133  1  0  0  0  0
 58 59  1  0  0  0  0
 58134  1  0  0  0  0
 59 60  1  0  0  0  0
 59135  1  0  0  0  0
 60 61  1  0  0  0  0
 60136  1  0  0  0  0
 61 62  1  0  0  0  0
 61137  1  0  0  0  0
 62 63  1  0  0  0  0
 62138  1  0  0  0  0
 63 64  1  0  0  0  0
 63139  1  0  0  0  0
 64 65  1  0  0  0  0
 64140  1  0  0  0  0
 65 66  1  0  0  0  0
 65141  1  0  0  0  0
 66 67  1  0  0  0  0
 66142  1  0  0  0  0
 67 68  1  0  0  0  0
 67143  1  0  0  0  0
 68 69  1  0  0  0  0
 68144  1  0  0  0  0
 69 70  1  0  0  0  0
 69145  1  0  0  0  0
 70 71  1  0  0  0  0
 70146  1  0  0  0  0
 71 72  1  0  0  0  0
 71147  1  0  0  0  0
 72 73  1  0  0  0  0
 72148  1  0  0  0  0
 73 74  1  0  0  0  0
 73149  1  0  0  0  0
 74 75  1  0  0  0  0
 74150  1  0  0  0  0
 75 76  1  0  0  0  0
 75151  1  0  0  0  0
 76 77  1  0  0  0  0
 76152  1  0  0  0  0
 77 78  1  0  0  0  0
 77153  1  0  0  0  0
 78 79  1  0  0  0  0
 78154  1  0  0  0  0
 79 80  1  0  0  0  0
 79155  1  0  0  0  0
 80 81  1  0  0  0  0
 80156  1  0  0  0  0
 81157  1  0  0  0  0
 81158  1  0  0  0  0
M  END
$$$$
