
 OpenBabel04232216483D

 69 71  0  0  0  0  0  0  0  0999 V2000
    3.3769   -0.9344   -2.0108 C   0  0  0  0  0  0  0  0  0  0  0  0
    4.4859    0.0156   -1.5728 C   0  0  0  0  0  0  0  0  0  0  0  0
    3.6865    1.3095   -1.4308 C   0  0  0  0  0  3  0  0  0  0  0  0
    4.0788    2.3943   -0.5547 C   0  0  0  0  0  0  0  0  0  0  0  0
    5.2576    1.9753    0.2563 C   0  0  0  0  0  0  0  0  0  0  0  0
    6.2400    1.4416   -0.8093 C   0  0  0  0  0  0  0  0  0  0  0  0
    5.8012    0.0033   -1.0779 C   0  0  0  0  0  0  0  0  0  0  0  0
    6.7553   -0.9618   -0.2573 C   0  0  0  0  0  0  0  0  0  0  0  0
    7.8706   -0.2802    0.5649 C   0  0  0  0  0  0  0  0  0  0  0  0
    6.7617   -2.3096   -0.0951 C   0  0  0  0  0  0  0  0  0  0  0  0
    7.0749   -3.0678    1.2172 C   0  0  0  0  0  0  0  0  0  0  0  0
    6.2742   -2.5370    2.4463 C   0  0  0  0  0  0  0  0  0  0  0  0
    6.6045   -2.7513    3.9448 C   0  0  0  0  0  0  0  0  0  0  0  0
    5.5544   -1.9999    4.8405 C   0  0  0  0  0  0  0  0  0  0  0  0
    5.9294   -0.5315    5.1122 C   0  0  0  0  0  0  0  0  0  0  0  0
    4.8150    0.3152    5.7606 C   0  0  0  0  0  0  0  0  0  0  0  0
    5.0446    1.8329    5.5687 C   0  0  0  0  0  0  0  0  0  0  0  0
    4.5253    2.3554    4.2211 C   0  0  0  0  0  0  0  0  0  0  0  0
    5.4975    3.3058    3.5179 C   0  0  0  0  0  0  0  0  0  0  0  0
    5.0124    3.7548    2.1256 C   0  0  0  0  0  0  0  0  0  0  0  0
    5.8776    3.2089    0.9683 C   0  0  0  0  0  0  0  0  0  0  0  0
    4.8461    1.0134    1.3059 N   0  0  0  0  0  0  0  0  0  0  0  0
    4.2726   -0.0665    1.6180 C   0  0  0  0  0  0  0  0  0  0  0  0
    3.4765   -1.3483    1.2481 C   0  0  0  0  0  0  0  0  0  0  0  0
    3.7941   -2.3354    0.3979 C   0  0  0  0  0  0  0  0  0  0  0  0
    3.5771   -3.7725    0.6210 C   0  0  0  0  0  0  0  0  0  0  0  0
    4.4199   -4.6713    0.0594 C   0  0  0  0  0  0  0  0  0  0  0  0
    5.0692   -5.6283    0.9421 C   0  0  0  0  0  0  0  0  0  0  0  0
    6.3117   -5.4628    1.4356 C   0  0  0  0  0  0  0  0  0  0  0  0
    7.2916   -4.4028    1.1061 C   0  0  0  0  0  0  0  0  0  0  0  0
    2.6043   -1.0227   -1.2256 H   0  0  0  0  0  0  0  0  0  0  0  0
    3.7094   -1.9168   -2.3232 H   0  0  0  0  0  0  0  0  0  0  0  0
    2.8040   -0.5052   -2.8485 H   0  0  0  0  0  0  0  0  0  0  0  0
    2.5963    1.2242   -1.3667 H   0  0  0  0  0  0  0  0  0  0  0  0
    4.0642    3.3863   -1.0057 H   0  0  0  0  0  0  0  0  0  0  0  0
    7.2845    1.6118   -0.5591 H   0  0  0  0  0  0  0  0  0  0  0  0
    6.1813    2.0059   -1.7598 H   0  0  0  0  0  0  0  0  0  0  0  0
    8.5778    0.2093   -0.1161 H   0  0  0  0  0  0  0  0  0  0  0  0
    8.5014   -0.9787    1.1247 H   0  0  0  0  0  0  0  0  0  0  0  0
    7.4871    0.4374    1.2940 H   0  0  0  0  0  0  0  0  0  0  0  0
    6.3266   -2.9250   -0.8702 H   0  0  0  0  0  0  0  0  0  0  0  0
    5.2761   -2.9667    2.3679 H   0  0  0  0  0  0  0  0  0  0  0  0
    6.1891   -1.4612    2.3324 H   0  0  0  0  0  0  0  0  0  0  0  0
    7.6157   -2.4113    4.1851 H   0  0  0  0  0  0  0  0  0  0  0  0
    6.5444   -3.8202    4.1848 H   0  0  0  0  0  0  0  0  0  0  0  0
    5.4521   -2.5166    5.8026 H   0  0  0  0  0  0  0  0  0  0  0  0
    4.5648   -2.0454    4.3669 H   0  0  0  0  0  0  0  0  0  0  0  0
    6.2463   -0.0580    4.1719 H   0  0  0  0  0  0  0  0  0  0  0  0
    6.8041   -0.5134    5.7747 H   0  0  0  0  0  0  0  0  0  0  0  0
    4.8000    0.1015    6.8366 H   0  0  0  0  0  0  0  0  0  0  0  0
    3.8273    0.0377    5.3731 H   0  0  0  0  0  0  0  0  0  0  0  0
    6.1087    2.0600    5.6975 H   0  0  0  0  0  0  0  0  0  0  0  0
    4.5101    2.3760    6.3576 H   0  0  0  0  0  0  0  0  0  0  0  0
    3.5553    2.8471    4.3590 H   0  0  0  0  0  0  0  0  0  0  0  0
    4.3174    1.5183    3.5775 H   0  0  0  0  0  0  0  0  0  0  0  0
    6.4853    2.8354    3.4504 H   0  0  0  0  0  0  0  0  0  0  0  0
    5.6151    4.1956    4.1458 H   0  0  0  0  0  0  0  0  0  0  0  0
    5.0646    4.8498    2.0887 H   0  0  0  0  0  0  0  0  0  0  0  0
    3.9565    3.5026    1.9748 H   0  0  0  0  0  0  0  0  0  0  0  0
    6.8877    2.9735    1.3294 H   0  0  0  0  0  0  0  0  0  0  0  0
    6.0219    4.0175    0.2354 H   0  0  0  0  0  0  0  0  0  0  0  0
    4.3870   -0.1658    2.7126 H   0  0  0  0  0  0  0  0  0  0  0  0
    2.8530   -1.6251    2.0984 H   0  0  0  0  0  0  0  0  0  0  0  0
    4.5119   -2.1899   -0.3870 H   0  0  0  0  0  0  0  0  0  0  0  0
    3.0409   -4.0449    1.5303 H   0  0  0  0  0  0  0  0  0  0  0  0
    5.0079   -4.4434   -0.8310 H   0  0  0  0  0  0  0  0  0  0  0  0
    4.4723   -6.4861    1.2416 H   0  0  0  0  0  0  0  0  0  0  0  0
    6.6814   -6.2185    2.1313 H   0  0  0  0  0  0  0  0  0  0  0  0
    8.2238   -4.7048    1.6065 H   0  0  0  0  0  0  0  0  0  0  0  0
  1  2  1  0  0  0  0
  1 31  1  0  0  0  0
  1 32  1  0  0  0  0
  1 33  1  0  0  0  0
  2  3  1  0  0  0  0
  2  7  2  0  0  0  0
  3  4  1  0  0  0  0
  3 34  1  0  0  0  0
  4  5  2  0  0  0  0
  4 35  1  0  0  0  0
  5  6  1  0  0  0  0
  5 22  1  0  0  0  0
  6  7  1  0  0  0  0
  6 36  1  0  0  0  0
  6 37  1  0  0  0  0
  7  8  1  0  0  0  0
  8  9  1  0  0  0  0
  8 10  2  3  0  0  0
  9 38  1  0  0  0  0
  9 39  1  0  0  0  0
  9 40  1  0  0  0  0
 10 11  1  0  0  0  0
 10 41  1  0  0  0  0
 11 12  1  0  0  0  0
 11 30  2  3  0  0  0
 12 13  1  0  0  0  0
 12 42  1  0  0  0  0
 12 43  1  0  0  0  0
 13 14  1  0  0  0  0
 13 44  1  0  0  0  0
 13 45  1  0  0  0  0
 14 15  1  0  0  0  0
 14 46  1  0  0  0  0
 14 47  1  0  0  0  0
 15 16  1  0  0  0  0
 15 48  1  0  0  0  0
 15 49  1  0  0  0  0
 16 17  1  0  0  0  0
 16 50  1  0  0  0  0
 16 51  1  0  0  0  0
 17 18  1  0  0  0  0
 17 52  1  0  0  0  0
 17 53  1  0  0  0  0
 18 19  1  0  0  0  0
 18 54  1  0  0  0  0
 18 55  1  0  0  0  0
 19 20  1  0  0  0  0
 19 56  1  0  0  0  0
 19 57  1  0  0  0  0
 20 21  1  0  0  0  0
 20 58  1  0  0  0  0
 20 59  1  0  0  0  0
 21  5  1  0  0  0  0
 21 60  1  0  0  0  0
 21 61  1  0  0  0  0
 22 23  2  3  0  0  0
 23 24  1  0  0  0  0
 23 62  1  0  0  0  0
 24 25  2  3  0  0  0
 24 63  1  0  0  0  0
 25 26  1  0  0  0  0
 25 64  1  0  0  0  0
 26 27  2  3  0  0  0
 26 65  1  0  0  0  0
 27 28  1  0  0  0  0
 27 66  1  0  0  0  0
 28 29  2  3  0  0  0
 28 67  1  0  0  0  0
 29 30  1  0  0  0  0
 29 68  1  0  0  0  0
 30 69  1  0  0  0  0
M  END
$$$$
