
 OpenBabel04232216403D

221220  0  0  0  0  0  0  0  0999 V2000
   14.7727   -6.2128    9.2395 C   0  0  0  0  0  0  0  0  0  0  0  0
   14.2211   -5.2948   10.0486 C   0  0  0  0  0  0  0  0  0  0  0  0
   15.0293   -4.2857   10.8126 C   0  0  0  0  0  0  0  0  0  0  0  0
   14.6633   -2.8575   10.4185 C   0  0  0  0  0  0  0  0  0  0  0  0
   15.4651   -1.9369   11.2127 N   0  0  0  0  0  0  0  0  0  0  0  0
   15.1406   -0.5915   10.8480 N   0  0  0  0  0  0  0  0  0  0  0  0
   15.9058    0.2849   11.6335 N   0  0  0  0  0  0  0  0  0  0  0  0
   17.2950    0.1147   11.3574 N   0  0  0  0  0  0  0  0  0  0  0  0
   17.5240    0.2609    9.9607 N   0  0  0  0  0  0  0  0  0  0  0  0
   17.2046    1.6155    9.5543 N   0  0  0  0  0  0  0  0  0  0  0  0
   17.9681    2.5567   10.3375 N   0  0  0  0  0  0  0  0  0  0  0  0
   19.3712    2.3343   10.1068 N   0  0  0  0  0  0  0  0  0  0  0  0
   19.6684    2.5249    8.6924 N   0  0  0  0  0  0  0  0  0  0  0  0
   19.3048    3.8412    8.2552 N   0  0  0  0  0  0  0  0  0  0  0  0
   20.0569    4.8014    8.9881 N   0  0  0  0  0  0  0  0  0  0  0  0
   21.4487    4.5457    8.7836 N   0  0  0  0  0  0  0  0  0  0  0  0
   21.7566    4.6287    7.3891 N   0  0  0  0  0  0  0  0  0  0  0  0
   21.4193    5.9494    6.9144 N   0  0  0  0  0  0  0  0  0  0  0  0
   22.1563    6.9348    7.6684 N   0  0  0  0  0  0  0  0  0  0  0  0
   23.5676    6.7070    7.5044 N   0  0  0  0  0  0  0  0  0  0  0  0
   23.8998    6.7796    6.1016 N   0  0  0  0  0  0  0  0  0  0  0  0
   23.5498    8.0845    5.6059 N   0  0  0  0  0  0  0  0  0  0  0  0
   24.2722    9.1277    6.3208 N   0  0  0  0  0  0  0  0  0  0  0  0
   25.7042    8.8737    6.1551 C   0  0  0  0  0  0  0  0  0  0  0  0
   26.4645    9.9329    6.9254 C   0  0  0  0  0  0  0  0  0  0  0  0
   27.9582    9.7113    6.7628 C   0  0  0  0  0  0  0  0  0  0  0  0
   28.7226   10.7763    7.5252 C   0  0  0  0  0  0  0  0  0  0  0  0
   30.2151   10.5583    7.3646 C   0  0  0  0  0  0  0  0  0  0  0  0
   30.9787   11.6271    8.1237 C   0  0  0  0  0  0  0  0  0  0  0  0
   32.4710   11.4085    7.9621 C   0  0  0  0  0  0  0  0  0  0  0  0
   33.2339   12.4773    8.7211 C   0  0  0  0  0  0  0  0  0  0  0  0
   34.7258   12.2585    8.5593 C   0  0  0  0  0  0  0  0  0  0  0  0
   35.4884   13.3283    9.3167 C   0  0  0  0  0  0  0  0  0  0  0  0
   36.9803   13.1095    9.1548 C   0  0  0  0  0  0  0  0  0  0  0  0
   37.7429   14.1793    9.9121 C   0  0  0  0  0  0  0  0  0  0  0  0
   39.2348   13.9604    9.7503 C   0  0  0  0  0  0  0  0  0  0  0  0
   39.9973   15.0315   10.5060 C   0  0  0  0  0  0  0  0  0  0  0  0
   41.4892   14.8114   10.3457 C   0  0  0  0  0  0  0  0  0  0  0  0
   42.2518   15.8836   11.0998 C   0  0  0  0  0  0  0  0  0  0  0  0
   43.7436   15.6624   10.9413 C   0  0  0  0  0  0  0  0  0  0  0  0
   44.5062   16.7334   11.6969 C   0  0  0  0  0  0  0  0  0  0  0  0
   45.9980   16.5110   11.5400 C   0  0  0  0  0  0  0  0  0  0  0  0
   46.7606   17.5820   12.2957 C   0  0  0  0  0  0  0  0  0  0  0  0
   48.2524   17.3596   12.1388 C   0  0  0  0  0  0  0  0  0  0  0  0
   49.0150   18.4306   12.8945 C   0  0  0  0  0  0  0  0  0  0  0  0
   50.5068   18.2082   12.7376 C   0  0  0  0  0  0  0  0  0  0  0  0
   51.2694   19.2792   13.4933 C   0  0  0  0  0  0  0  0  0  0  0  0
   52.7612   19.0580   13.3347 C   0  0  0  0  0  0  0  0  0  0  0  0
   53.5238   20.1279   14.0920 C   0  0  0  0  0  0  0  0  0  0  0  0
   55.0156   19.9078   13.9319 C   0  0  0  0  0  0  0  0  0  0  0  0
   55.7782   20.9776   14.6892 C   0  0  0  0  0  0  0  0  0  0  0  0
   57.2700   20.7564   14.5306 C   0  0  0  0  0  0  0  0  0  0  0  0
   58.0326   21.8251   15.2896 C   0  0  0  0  0  0  0  0  0  0  0  0
   59.5244   21.6050   15.1294 C   0  0  0  0  0  0  0  0  0  0  0  0
   60.2870   22.6749   15.8868 C   0  0  0  0  0  0  0  0  0  0  0  0
   61.7788   22.4560   15.7249 C   0  0  0  0  0  0  0  0  0  0  0  0
   62.5414   23.5270   16.4806 C   0  0  0  0  0  0  0  0  0  0  0  0
   64.0332   23.3082   16.3187 C   0  0  0  0  0  0  0  0  0  0  0  0
   64.7958   24.3803   17.0728 C   0  0  0  0  0  0  0  0  0  0  0  0
   66.2876   24.1614   16.9109 C   0  0  0  0  0  0  0  0  0  0  0  0
   67.0502   25.2336   17.6650 C   0  0  0  0  0  0  0  0  0  0  0  0
   68.5420   25.0147   17.5031 C   0  0  0  0  0  0  0  0  0  0  0  0
   69.3045   26.0869   18.2572 C   0  0  0  0  0  0  0  0  0  0  0  0
   70.7964   25.8680   18.0953 C   0  0  0  0  0  0  0  0  0  0  0  0
   71.5589   26.9402   18.8494 C   0  0  0  0  0  0  0  0  0  0  0  0
   73.0507   26.7213   18.6875 C   0  0  0  0  0  0  0  0  0  0  0  0
   73.8133   27.7935   19.4416 C   0  0  0  0  0  0  0  0  0  0  0  0
   75.3051   27.5746   19.2797 C   0  0  0  0  0  0  0  0  0  0  0  0
   76.0677   28.6456   20.0354 C   0  0  0  0  0  0  0  0  0  0  0  0
   77.5595   28.4268   19.8736 C   0  0  0  0  0  0  0  0  0  0  0  0
   78.3221   29.4978   20.6293 C   0  0  0  0  0  0  0  0  0  0  0  0
   79.8140   29.2788   20.4674 C   0  0  0  0  0  0  0  0  0  0  0  0
   80.5766   30.3498   21.2231 C   0  0  0  0  0  0  0  0  0  0  0  0
   82.0686   30.1311   21.0613 C   0  0  0  0  0  0  0  0  0  0  0  0
   82.8315   31.2011   21.8187 C   0  0  0  0  0  0  0  0  0  0  0  0
   84.3241   30.9828   21.6573 C   0  0  0  0  0  0  0  0  0  0  0  0
   85.0879   32.0535   22.4153 C   0  0  0  0  0  0  0  0  0  0  0  0
   86.5821   31.8360   22.2568 C   0  0  0  0  0  0  0  0  0  0  0  0
   87.3536   32.9042   23.0155 C   0  0  0  0  0  0  0  0  0  0  0  0
   88.8436   32.6841   22.8552 C   0  0  0  0  0  0  0  0  0  0  0  0
   14.1623   -6.9037    8.6785 H   0  0  0  0  0  0  0  0  0  0  0  0
   15.8540   -6.2775    9.1126 H   0  0  0  0  0  0  0  0  0  0  0  0
   13.1361   -5.2543   10.1238 H   0  0  0  0  0  0  0  0  0  0  0  0
   16.1000   -4.4553   10.6428 H   0  0  0  0  0  0  0  0  0  0  0  0
   14.8446   -4.4407   11.8822 H   0  0  0  0  0  0  0  0  0  0  0  0
   13.6002   -2.6797   10.6167 H   0  0  0  0  0  0  0  0  0  0  0  0
   14.8495   -2.7027    9.3492 H   0  0  0  0  0  0  0  0  0  0  0  0
   16.4538   -2.0627   10.9887 H   0  0  0  0  0  0  0  0  0  0  0  0
   14.1620   -0.4002   11.0353 H   0  0  0  0  0  0  0  0  0  0  0  0
   15.7188    0.1604   12.6240 H   0  0  0  0  0  0  0  0  0  0  0  0
   17.5805   -0.8240   11.6211 H   0  0  0  0  0  0  0  0  0  0  0  0
   16.9281   -0.3785    9.4436 H   0  0  0  0  0  0  0  0  0  0  0  0
   16.2198    1.7635    9.7663 H   0  0  0  0  0  0  0  0  0  0  0  0
   17.7396    2.3798   11.3241 H   0  0  0  0  0  0  0  0  0  0  0  0
   19.5709    1.3667   10.4107 H   0  0  0  0  0  0  0  0  0  0  0  0
   19.1395    1.8600    8.1237 H   0  0  0  0  0  0  0  0  0  0  0  0
   18.3115    4.0131    8.3828 H   0  0  0  0  0  0  0  0  0  0  0  0
   19.8496    4.6796    9.9746 H   0  0  0  0  0  0  0  0  0  0  0  0
   21.6464    3.5926    9.0843 H   0  0  0  0  0  0  0  0  0  0  0  0
   21.1857    3.9486    6.8883 H   0  0  0  0  0  0  0  0  0  0  0  0
   20.4289    6.0904    7.1021 H   0  0  0  0  0  0  0  0  0  0  0  0
   21.9248    6.8032    8.6528 H   0  0  0  0  0  0  0  0  0  0  0  0
   23.7577    5.7595    7.8364 H   0  0  0  0  0  0  0  0  0  0  0  0
   23.3675    6.0467    5.6155 H   0  0  0  0  0  0  0  0  0  0  0  0
   22.5402    8.2373    5.7218 H   0  0  0  0  0  0  0  0  0  0  0  0
   24.0566    9.0822    7.3231 H   0  0  0  0  0  0  0  0  0  0  0  0
   25.9699    8.9023    5.0934 H   0  0  0  0  0  0  0  0  0  0  0  0
   26.0005    7.8898    6.5473 H   0  0  0  0  0  0  0  0  0  0  0  0
   26.1969    9.8931    7.9902 H   0  0  0  0  0  0  0  0  0  0  0  0
   26.1904   10.9250    6.5526 H   0  0  0  0  0  0  0  0  0  0  0  0
   28.2277    9.7404    5.7026 H   0  0  0  0  0  0  0  0  0  0  0  0
   28.2316    8.7161    7.1422 H   0  0  0  0  0  0  0  0  0  0  0  0
   28.4538   10.7439    8.5888 H   0  0  0  0  0  0  0  0  0  0  0  0
   28.4484   11.7700    7.1502 H   0  0  0  0  0  0  0  0  0  0  0  0
   30.4849   10.5914    6.3020 H   0  0  0  0  0  0  0  0  0  0  0  0
   30.4904    9.5655    7.7409 H   0  0  0  0  0  0  0  0  0  0  0  0
   30.7100   11.5945    9.1867 H   0  0  0  0  0  0  0  0  0  0  0  0
   30.7045   12.6205    7.7478 H   0  0  0  0  0  0  0  0  0  0  0  0
   32.7404   11.4414    6.8993 H   0  0  0  0  0  0  0  0  0  0  0  0
   32.7460   10.4155    8.3382 H   0  0  0  0  0  0  0  0  0  0  0  0
   32.9648   12.4446    9.7840 H   0  0  0  0  0  0  0  0  0  0  0  0
   32.9592   13.4705    8.3450 H   0  0  0  0  0  0  0  0  0  0  0  0
   34.9948   12.2899    7.4963 H   0  0  0  0  0  0  0  0  0  0  0  0
   35.0008   11.2659    8.9367 H   0  0  0  0  0  0  0  0  0  0  0  0
   35.2195   13.2970   10.3797 H   0  0  0  0  0  0  0  0  0  0  0  0
   35.2135   14.3209    8.9392 H   0  0  0  0  0  0  0  0  0  0  0  0
   37.2492   13.1409    8.0918 H   0  0  0  0  0  0  0  0  0  0  0  0
   37.2553   12.1169    9.5322 H   0  0  0  0  0  0  0  0  0  0  0  0
   37.4740   14.1480   10.9751 H   0  0  0  0  0  0  0  0  0  0  0  0
   37.4679   15.1719    9.5347 H   0  0  0  0  0  0  0  0  0  0  0  0
   39.5035   13.9904    8.6872 H   0  0  0  0  0  0  0  0  0  0  0  0
   39.5099   12.9684   10.1290 H   0  0  0  0  0  0  0  0  0  0  0  0
   39.7276   15.0025   11.5688 H   0  0  0  0  0  0  0  0  0  0  0  0
   39.7232   16.0234   10.1263 H   0  0  0  0  0  0  0  0  0  0  0  0
   41.7588   14.8390    9.2828 H   0  0  0  0  0  0  0  0  0  0  0  0
   41.7634   13.8200   10.7268 H   0  0  0  0  0  0  0  0  0  0  0  0
   41.9811   15.8569   12.1625 H   0  0  0  0  0  0  0  0  0  0  0  0
   41.9785   16.8749   10.7179 H   0  0  0  0  0  0  0  0  0  0  0  0
   44.0145   15.6903    9.8787 H   0  0  0  0  0  0  0  0  0  0  0  0
   44.0166   14.6705   11.3220 H   0  0  0  0  0  0  0  0  0  0  0  0
   44.2343   16.7063   12.7593 H   0  0  0  0  0  0  0  0  0  0  0  0
   44.2341   17.7252   11.3153 H   0  0  0  0  0  0  0  0  0  0  0  0
   46.2700   16.5381   10.4777 H   0  0  0  0  0  0  0  0  0  0  0  0
   46.2700   15.5192   11.9217 H   0  0  0  0  0  0  0  0  0  0  0  0
   46.4886   17.5549   13.3581 H   0  0  0  0  0  0  0  0  0  0  0  0
   46.4886   18.5738   11.9141 H   0  0  0  0  0  0  0  0  0  0  0  0
   48.5244   17.3867   11.0765 H   0  0  0  0  0  0  0  0  0  0  0  0
   48.5244   16.3678   12.5205 H   0  0  0  0  0  0  0  0  0  0  0  0
   48.7430   18.4035   13.9569 H   0  0  0  0  0  0  0  0  0  0  0  0
   48.7430   19.4224   12.5128 H   0  0  0  0  0  0  0  0  0  0  0  0
   50.7787   18.2353   11.6752 H   0  0  0  0  0  0  0  0  0  0  0  0
   50.7788   17.2165   13.1192 H   0  0  0  0  0  0  0  0  0  0  0  0
   50.9984   19.2512   14.5559 H   0  0  0  0  0  0  0  0  0  0  0  0
   50.9964   20.2711   13.1126 H   0  0  0  0  0  0  0  0  0  0  0  0
   53.0322   19.0875   12.2722 H   0  0  0  0  0  0  0  0  0  0  0  0
   53.0341   18.0656   13.7141 H   0  0  0  0  0  0  0  0  0  0  0  0
   53.2537   20.0975   15.1548 H   0  0  0  0  0  0  0  0  0  0  0  0
   53.2499   21.1204   13.7136 H   0  0  0  0  0  0  0  0  0  0  0  0
   55.2857   19.9382   12.8691 H   0  0  0  0  0  0  0  0  0  0  0  0
   55.2895   18.9153   14.3102 H   0  0  0  0  0  0  0  0  0  0  0  0
   55.5071   20.9481   15.7517 H   0  0  0  0  0  0  0  0  0  0  0  0
   55.5054   21.9701   14.3099 H   0  0  0  0  0  0  0  0  0  0  0  0
   57.5413   20.7873   13.4682 H   0  0  0  0  0  0  0  0  0  0  0  0
   57.5427   19.7635   14.9087 H   0  0  0  0  0  0  0  0  0  0  0  0
   57.7624   21.7933   16.3523 H   0  0  0  0  0  0  0  0  0  0  0  0
   57.7589   22.8182   14.9125 H   0  0  0  0  0  0  0  0  0  0  0  0
   59.7944   21.6355   14.0667 H   0  0  0  0  0  0  0  0  0  0  0  0
   59.7984   20.6125   15.5078 H   0  0  0  0  0  0  0  0  0  0  0  0
   60.0180   22.6436   16.9497 H   0  0  0  0  0  0  0  0  0  0  0  0
   60.0121   23.6675   15.5093 H   0  0  0  0  0  0  0  0  0  0  0  0
   62.0476   22.4860   14.6618 H   0  0  0  0  0  0  0  0  0  0  0  0
   62.0540   21.4640   16.1036 H   0  0  0  0  0  0  0  0  0  0  0  0
   62.2727   23.4971   17.5437 H   0  0  0  0  0  0  0  0  0  0  0  0
   62.2662   24.5190   16.1018 H   0  0  0  0  0  0  0  0  0  0  0  0
   64.3018   23.3367   15.2556 H   0  0  0  0  0  0  0  0  0  0  0  0
   64.3086   22.3167   16.6988 H   0  0  0  0  0  0  0  0  0  0  0  0
   64.5273   24.3518   18.1360 H   0  0  0  0  0  0  0  0  0  0  0  0
   64.5204   25.3718   16.6927 H   0  0  0  0  0  0  0  0  0  0  0  0
   66.5561   24.1899   15.8478 H   0  0  0  0  0  0  0  0  0  0  0  0
   66.5630   23.1700   17.2910 H   0  0  0  0  0  0  0  0  0  0  0  0
   66.7817   25.2051   18.7282 H   0  0  0  0  0  0  0  0  0  0  0  0
   66.7747   26.2251   17.2849 H   0  0  0  0  0  0  0  0  0  0  0  0
   68.8105   25.0432   16.4399 H   0  0  0  0  0  0  0  0  0  0  0  0
   68.8174   24.0233   17.8832 H   0  0  0  0  0  0  0  0  0  0  0  0
   69.0360   26.0584   19.3204 H   0  0  0  0  0  0  0  0  0  0  0  0
   69.0291   27.0784   17.8771 H   0  0  0  0  0  0  0  0  0  0  0  0
   71.0649   25.8965   17.0321 H   0  0  0  0  0  0  0  0  0  0  0  0
   71.0718   24.8766   18.4754 H   0  0  0  0  0  0  0  0  0  0  0  0
   71.2904   26.9117   19.9126 H   0  0  0  0  0  0  0  0  0  0  0  0
   71.2835   27.9317   18.4693 H   0  0  0  0  0  0  0  0  0  0  0  0
   73.3193   26.7498   17.6243 H   0  0  0  0  0  0  0  0  0  0  0  0
   73.3262   25.7299   19.0676 H   0  0  0  0  0  0  0  0  0  0  0  0
   73.5448   27.7650   20.5048 H   0  0  0  0  0  0  0  0  0  0  0  0
   73.5379   28.7850   19.0616 H   0  0  0  0  0  0  0  0  0  0  0  0
   75.5738   27.6045   18.2166 H   0  0  0  0  0  0  0  0  0  0  0  0
   75.5804   26.5826   19.6585 H   0  0  0  0  0  0  0  0  0  0  0  0
   75.7990   28.6157   21.0985 H   0  0  0  0  0  0  0  0  0  0  0  0
   75.7925   29.6377   19.6567 H   0  0  0  0  0  0  0  0  0  0  0  0
   77.8282   28.4567   18.8105 H   0  0  0  0  0  0  0  0  0  0  0  0
   77.8347   27.4347   20.2523 H   0  0  0  0  0  0  0  0  0  0  0  0
   78.0534   29.4678   21.6924 H   0  0  0  0  0  0  0  0  0  0  0  0
   78.0469   30.4898   20.2505 H   0  0  0  0  0  0  0  0  0  0  0  0
   80.0826   29.3088   19.4043 H   0  0  0  0  0  0  0  0  0  0  0  0
   80.0891   28.2868   20.8461 H   0  0  0  0  0  0  0  0  0  0  0  0
   80.3078   30.3199   22.2862 H   0  0  0  0  0  0  0  0  0  0  0  0
   80.3014   31.3419   20.8444 H   0  0  0  0  0  0  0  0  0  0  0  0
   82.3374   30.1623   19.9982 H   0  0  0  0  0  0  0  0  0  0  0  0
   82.3435   29.1384   21.4387 H   0  0  0  0  0  0  0  0  0  0  0  0
   82.5622   31.1695   22.8816 H   0  0  0  0  0  0  0  0  0  0  0  0
   82.5561   32.1935   21.4412 H   0  0  0  0  0  0  0  0  0  0  0  0
   84.5924   31.0137   20.5941 H   0  0  0  0  0  0  0  0  0  0  0  0
   84.5983   29.9898   22.0344 H   0  0  0  0  0  0  0  0  0  0  0  0
   84.8162   32.0221   23.4775 H   0  0  0  0  0  0  0  0  0  0  0  0
   84.8123   33.0452   22.0362 H   0  0  0  0  0  0  0  0  0  0  0  0
   86.8494   31.8656   21.1932 H   0  0  0  0  0  0  0  0  0  0  0  0
   86.8529   30.8413   22.6322 H   0  0  0  0  0  0  0  0  0  0  0  0
   87.0873   32.8728   24.0784 H   0  0  0  0  0  0  0  0  0  0  0  0
   87.0838   33.8977   22.6388 H   0  0  0  0  0  0  0  0  0  0  0  0
   89.1315   31.7024   23.2448 H   0  0  0  0  0  0  0  0  0  0  0  0
   89.3999   33.4508   23.3998 H   0  0  0  0  0  0  0  0  0  0  0  0
   89.1281   32.7315   21.7992 H   0  0  0  0  0  0  0  0  0  0  0  0
  1  2  2  0  0  0  0
  1 81  1  0  0  0  0
  1 82  1  0  0  0  0
  2  3  1  0  0  0  0
  2 83  1  0  0  0  0
  3  4  1  0  0  0  0
  3 84  1  0  0  0  0
  3 85  1  0  0  0  0
  4  5  1  0  0  0  0
  4 86  1  0  0  0  0
  4 87  1  0  0  0  0
  5  6  1  0  0  0  0
  5 88  1  0  0  0  0
  6  7  1  0  0  0  0
  6 89  1  0  0  0  0
  7  8  1  0  0  0  0
  7 90  1  0  0  0  0
  8  9  1  0  0  0  0
  8 91  1  0  0  0  0
  9 10  1  0  0  0  0
  9 92  1  0  0  0  0
 10 11  1  0  0  0  0
 10 93  1  0  0  0  0
 11 12  1  0  0  0  0
 11 94  1  0  0  0  0
 12 13  1  0  0  0  0
 12 95  1  0  0  0  0
 13 14  1  0  0  0  0
 13 96  1  0  0  0  0
 14 15  1  0  0  0  0
 14 97  1  0  0  0  0
 15 16  1  0  0  0  0
 15 98  1  0  0  0  0
 16 17  1  0  0  0  0
 16 99  1  0  0  0  0
 17 18  1  0  0  0  0
 17100  1  0  0  0  0
 18 19  1  0  0  0  0
 18101  1  0  0  0  0
 19 20  1  0  0  0  0
 19102  1  0  0  0  0
 20 21  1  0  0  0  0
 20103  1  0  0  0  0
 21 22  1  0  0  0  0
 21104  1  0  0  0  0
 22 23  1  0  0  0  0
 22105  1  0  0  0  0
 23 24  1  0  0  0  0
 23106  1  0  0  0  0
 24 25  1  0  0  0  0
 24107  1  0  0  0  0
 24108  1  0  0  0  0
 25 26  1  0  0  0  0
 25109  1  0  0  0  0
 25110  1  0  0  0  0
 26 27  1  0  0  0  0
 26111  1  0  0  0  0
 26112  1  0  0  0  0
 27 28  1  0  0  0  0
 27113  1  0  0  0  0
 27114  1  0  0  0  0
 28 29  1  0  0  0  0
 28115  1  0  0  0  0
 28116  1  0  0  0  0
 29 30  1  0  0  0  0
 29117  1  0  0  0  0
 29118  1  0  0  0  0
 30 31  1  0  0  0  0
 30119  1  0  0  0  0
 30120  1  0  0  0  0
 31 32  1  0  0  0  0
 31121  1  0  0  0  0
 31122  1  0  0  0  0
 32 33  1  0  0  0  0
 32123  1  0  0  0  0
 32124  1  0  0  0  0
 33 34  1  0  0  0  0
 33125  1  0  0  0  0
 33126  1  0  0  0  0
 34 35  1  0  0  0  0
 34127  1  0  0  0  0
 34128  1  0  0  0  0
 35 36  1  0  0  0  0
 35129  1  0  0  0  0
 35130  1  0  0  0  0
 36 37  1  0  0  0  0
 36131  1  0  0  0  0
 36132  1  0  0  0  0
 37 38  1  0  0  0  0
 37133  1  0  0  0  0
 37134  1  0  0  0  0
 38 39  1  0  0  0  0
 38135  1  0  0  0  0
 38136  1  0  0  0  0
 39 40  1  0  0  0  0
 39137  1  0  0  0  0
 39138  1  0  0  0  0
 40 41  1  0  0  0  0
 40139  1  0  0  0  0
 40140  1  0  0  0  0
 41 42  1  0  0  0  0
 41141  1  0  0  0  0
 41142  1  0  0  0  0
 42 43  1  0  0  0  0
 42143  1  0  0  0  0
 42144  1  0  0  0  0
 43 44  1  0  0  0  0
 43145  1  0  0  0  0
 43146  1  0  0  0  0
 44 45  1  0  0  0  0
 44147  1  0  0  0  0
 44148  1  0  0  0  0
 45 46  1  0  0  0  0
 45149  1  0  0  0  0
 45150  1  0  0  0  0
 46 47  1  0  0  0  0
 46151  1  0  0  0  0
 46152  1  0  0  0  0
 47 48  1  0  0  0  0
 47153  1  0  0  0  0
 47154  1  0  0  0  0
 48 49  1  0  0  0  0
 48155  1  0  0  0  0
 48156  1  0  0  0  0
 49 50  1  0  0  0  0
 49157  1  0  0  0  0
 49158  1  0  0  0  0
 50 51  1  0  0  0  0
 50159  1  0  0  0  0
 50160  1  0  0  0  0
 51 52  1  0  0  0  0
 51161  1  0  0  0  0
 51162  1  0  0  0  0
 52 53  1  0  0  0  0
 52163  1  0  0  0  0
 52164  1  0  0  0  0
 53 54  1  0  0  0  0
 53165  1  0  0  0  0
 53166  1  0  0  0  0
 54 55  1  0  0  0  0
 54167  1  0  0  0  0
 54168  1  0  0  0  0
 55 56  1  0  0  0  0
 55169  1  0  0  0  0
 55170  1  0  0  0  0
 56 57  1  0  0  0  0
 56171  1  0  0  0  0
 56172  1  0  0  0  0
 57 58  1  0  0  0  0
 57173  1  0  0  0  0
 57174  1  0  0  0  0
 58 59  1  0  0  0  0
 58175  1  0  0  0  0
 58176  1  0  0  0  0
 59 60  1  0  0  0  0
 59177  1  0  0  0  0
 59178  1  0  0  0  0
 60 61  1  0  0  0  0
 60179  1  0  0  0  0
 60180  1  0  0  0  0
 61 62  1  0  0  0  0
 61181  1  0  0  0  0
 61182  1  0  0  0  0
 62 63  1  0  0  0  0
 62183  1  0  0  0  0
 62184  1  0  0  0  0
 63 64  1  0  0  0  0
 63185  1  0  0  0  0
 63186  1  0  0  0  0
 64 65  1  0  0  0  0
 64187  1  0  0  0  0
 64188  1  0  0  0  0
 65 66  1  0  0  0  0
 65189  1  0  0  0  0
 65190  1  0  0  0  0
 66 67  1  0  0  0  0
 66191  1  0  0  0  0
 66192  1  0  0  0  0
 67 68  1  0  0  0  0
 67193  1  0  0  0  0
 67194  1  0  0  0  0
 68 69  1  0  0  0  0
 68195  1  0  0  0  0
 68196  1  0  0  0  0
 69 70  1  0  0  0  0
 69197  1  0  0  0  0
 69198  1  0  0  0  0
 70 71  1  0  0  0  0
 70199  1  0  0  0  0
 70200  1  0  0  0  0
 71 72  1  0  0  0  0
 71201  1  0  0  0  0
 71202  1  0  0  0  0
 72 73  1  0  0  0  0
 72203  1  0  0  0  0
 72204  1  0  0  0  0
 73 74  1  0  0  0  0
 73205  1  0  0  0  0
 73206  1  0  0  0  0
 74 75  1  0  0  0  0
 74207  1  0  0  0  0
 74208  1  0  0  0  0
 75 76  1  0  0  0  0
 75209  1  0  0  0  0
 75210  1  0  0  0  0
 76 77  1  0  0  0  0
 76211  1  0  0  0  0
 76212  1  0  0  0  0
 77 78  1  0  0  0  0
 77213  1  0  0  0  0
 77214  1  0  0  0  0
 78 79  1  0  0  0  0
 78215  1  0  0  0  0
 78216  1  0  0  0  0
 79 80  1  0  0  0  0
 79217  1  0  0  0  0
 79218  1  0  0  0  0
 80219  1  0  0  0  0
 80220  1  0  0  0  0
 80221  1  0  0  0  0
M  END
$$$$
