
 OpenBabel04232216573D

179178  0  0  0  0  0  0  0  0999 V2000
   25.6632    9.0649  -25.5603 N   0  0  0  0  0  0  0  0  0  0  0  0
   26.6564    9.6737  -26.1275 C   0  0  0  0  0  0  0  0  0  0  0  0
   26.9619   11.1538  -25.8885 C   0  0  0  0  0  0  0  0  0  0  0  0
   26.0201   11.7842  -24.9401 N   0  0  0  0  0  0  0  0  0  0  0  0
   26.1352   11.1462  -23.6676 N   0  0  0  0  0  0  0  0  0  0  0  0
   27.4424   11.3025  -23.1682 N   0  0  0  0  0  0  0  0  0  0  0  0
   27.6256   10.6092  -21.9515 N   0  0  0  0  0  0  0  0  0  0  0  0
   27.3498    9.2226  -22.0694 N   0  0  0  0  0  0  0  0  0  0  0  0
   28.2344    8.6589  -23.0340 N   0  0  0  0  0  0  0  0  0  0  0  0
   29.6002    8.8237  -22.5813 N   0  0  0  0  0  0  0  0  0  0  0  0
   29.7755    8.2069  -21.3038 N   0  0  0  0  0  0  0  0  0  0  0  0
   29.4873    6.8221  -21.4167 N   0  0  0  0  0  0  0  0  0  0  0  0
   30.3788    6.2109  -22.3762 N   0  0  0  0  0  0  0  0  0  0  0  0
   31.7268    6.4243  -21.9782 N   0  0  0  0  0  0  0  0  0  0  0  0
   31.9203    5.8147  -20.7047 N   0  0  0  0  0  0  0  0  0  0  0  0
   31.6331    4.4054  -20.7859 N   0  0  0  0  0  0  0  0  0  0  0  0
   32.4828    3.7912  -21.7533 N   0  0  0  0  0  0  0  0  0  0  0  0
   33.8462    3.9710  -21.3714 N   0  0  0  0  0  0  0  0  0  0  0  0
   34.0735    3.3766  -20.0767 N   0  0  0  0  0  0  0  0  0  0  0  0
   33.7695    1.9658  -20.1322 N   0  0  0  0  0  0  0  0  0  0  0  0
   34.5942    1.3505  -21.1159 N   0  0  0  0  0  0  0  0  0  0  0  0
   35.9760    1.5223  -20.7563 N   0  0  0  0  0  0  0  0  0  0  0  0
   36.1920    0.9778  -19.4552 N   0  0  0  0  0  0  0  0  0  0  0  0
   35.9011   -0.4339  -19.4922 N   0  0  0  0  0  0  0  0  0  0  0  0
   36.7066   -1.0759  -20.4593 N   0  0  0  0  0  0  0  0  0  0  0  0
   38.0833   -0.9006  -20.1374 N   0  0  0  0  0  0  0  0  0  0  0  0
   38.3457   -1.4671  -18.8366 N   0  0  0  0  0  0  0  0  0  0  0  0
   38.0026   -2.8538  -18.8414 N   0  0  0  0  0  0  0  0  0  0  0  0
   38.8228   -3.5294  -19.8067 N   0  0  0  0  0  0  0  0  0  0  0  0
   40.1909   -3.3253  -19.5035 N   0  0  0  0  0  0  0  0  0  0  0  0
   40.4768   -3.8706  -18.2087 N   0  0  0  0  0  0  0  0  0  0  0  0
   40.1640   -5.2797  -18.1738 N   0  0  0  0  0  0  0  0  0  0  0  0
   40.9253   -5.9529  -19.1580 N   0  0  0  0  0  0  0  0  0  0  0  0
   42.3115   -5.7694  -18.8715 N   0  0  0  0  0  0  0  0  0  0  0  0
   42.6290   -6.2946  -17.5703 N   0  0  0  0  0  0  0  0  0  0  0  0
   42.3002   -7.6786  -17.5145 N   0  0  0  0  0  0  0  0  0  0  0  0
   43.0605   -8.3943  -18.4928 N   0  0  0  0  0  0  0  0  0  0  0  0
   44.4487   -8.1844  -18.2486 N   0  0  0  0  0  0  0  0  0  0  0  0
   44.7692   -8.6904  -16.9283 N   0  0  0  0  0  0  0  0  0  0  0  0
   44.4267  -10.0742  -16.8637 N   0  0  0  0  0  0  0  0  0  0  0  0
   45.1801  -10.8017  -17.8417 N   0  0  0  0  0  0  0  0  0  0  0  0
   46.5751  -10.6404  -17.6131 N   0  0  0  0  0  0  0  0  0  0  0  0
   46.9112  -11.1219  -16.3152 N   0  0  0  0  0  0  0  0  0  0  0  0
   46.5778  -12.5130  -16.2000 N   0  0  0  0  0  0  0  0  0  0  0  0
   47.2943  -13.2674  -17.1809 N   0  0  0  0  0  0  0  0  0  0  0  0
   48.7004  -13.1171  -16.9897 N   0  0  0  0  0  0  0  0  0  0  0  0
   49.0705  -13.5624  -15.6848 N   0  0  0  0  0  0  0  0  0  0  0  0
   48.7292  -14.9389  -15.5355 N   0  0  0  0  0  0  0  0  0  0  0  0
   49.4117  -15.7200  -16.5134 N   0  0  0  0  0  0  0  0  0  0  0  0
   50.8103  -15.5529  -16.3596 N   0  0  0  0  0  0  0  0  0  0  0  0
   51.1942  -15.9726  -15.0571 N   0  0  0  0  0  0  0  0  0  0  0  0
   50.8208  -17.3325  -14.8804 N   0  0  0  0  0  0  0  0  0  0  0  0
   51.4871  -18.1381  -15.8652 N   0  0  0  0  0  0  0  0  0  0  0  0
   52.8970  -17.9686  -15.7357 N   0  0  0  0  0  0  0  0  0  0  0  0
   53.3121  -18.3879  -14.4358 N   0  0  0  0  0  0  0  0  0  0  0  0
   52.9647  -19.7630  -14.2050 N   0  0  0  0  0  0  0  0  0  0  0  0
   53.5918  -20.5725  -15.1924 N   0  0  0  0  0  0  0  0  0  0  0  0
   55.0192  -20.4150  -15.1068 N   0  0  0  0  0  0  0  0  0  0  0  0
   55.4586  -20.8015  -13.7775 N   0  0  0  0  0  0  0  0  0  0  0  0
   55.0926  -22.1838  -13.5313 N   0  0  0  0  0  0  0  0  0  0  0  0
   55.7176  -23.0220  -14.5259 N   0  0  0  0  0  0  0  0  0  0  0  0
   57.1334  -22.8689  -14.4384 N   0  0  0  0  0  0  0  0  0  0  0  0
   57.5710  -23.2294  -13.1241 N   0  0  0  0  0  0  0  0  0  0  0  0
   57.1996  -24.6297  -12.8789 C   0  0  0  0  0  0  0  0  0  0  0  0
   57.6471  -25.0351  -11.4951 C   0  0  0  0  0  0  0  0  0  0  0  0
   57.2665  -26.4791  -11.2266 C   0  0  0  0  0  0  0  0  0  0  0  0
   57.7230  -26.8908   -9.8421 C   0  0  0  0  0  0  0  0  0  0  0  0
   57.3446  -28.3324   -9.5740 C   0  0  0  0  0  0  0  0  0  0  0  0
   57.7997  -28.7418   -8.1892 C   0  0  0  0  0  0  0  0  0  0  0  0
   57.4213  -30.1831   -7.9213 C   0  0  0  0  0  0  0  0  0  0  0  0
   57.8764  -30.5923   -6.5366 C   0  0  0  0  0  0  0  0  0  0  0  0
   57.4980  -32.0336   -6.2688 C   0  0  0  0  0  0  0  0  0  0  0  0
   57.9530  -32.4428   -4.8841 C   0  0  0  0  0  0  0  0  0  0  0  0
   57.5747  -33.8840   -4.6163 C   0  0  0  0  0  0  0  0  0  0  0  0
   58.0280  -34.2927   -3.2308 C   0  0  0  0  0  0  0  0  0  0  0  0
   57.6496  -35.7339   -2.9629 C   0  0  0  0  0  0  0  0  0  0  0  0
   58.1030  -36.1423   -1.5774 C   0  0  0  0  0  0  0  0  0  0  0  0
   57.7267  -37.5840   -1.3098 C   0  0  0  0  0  0  0  0  0  0  0  0
   58.1817  -37.9948    0.0760 C   0  0  0  0  0  0  0  0  0  0  0  0
   57.8044  -39.4334    0.3388 C   0  0  0  0  0  0  0  0  0  0  0  0
   25.6053    8.0601  -25.7008 H   0  0  0  0  0  0  0  0  0  0  0  0
   27.3493    9.1362  -26.7900 H   0  0  0  0  0  0  0  0  0  0  0  0
   26.8913   11.6676  -26.8542 H   0  0  0  0  0  0  0  0  0  0  0  0
   27.9988   11.2841  -25.5386 H   0  0  0  0  0  0  0  0  0  0  0  0
   25.0604   11.6814  -25.3098 H   0  0  0  0  0  0  0  0  0  0  0  0
   25.9615   10.1364  -23.7554 H   0  0  0  0  0  0  0  0  0  0  0  0
   27.6692   12.2827  -23.0887 H   0  0  0  0  0  0  0  0  0  0  0  0
   26.9821   11.0144  -21.2862 H   0  0  0  0  0  0  0  0  0  0  0  0
   26.3977    9.0931  -22.3943 H   0  0  0  0  0  0  0  0  0  0  0  0
   28.1079    9.1446  -23.9307 H   0  0  0  0  0  0  0  0  0  0  0  0
   29.7705    9.8342  -22.4845 H   0  0  0  0  0  0  0  0  0  0  0  0
   29.1234    8.6220  -20.6385 H   0  0  0  0  0  0  0  0  0  0  0  0
   28.5347    6.6929  -21.7399 H   0  0  0  0  0  0  0  0  0  0  0  0
   30.2368    6.6665  -23.2797 H   0  0  0  0  0  0  0  0  0  0  0  0
   31.9085    7.4347  -21.9195 H   0  0  0  0  0  0  0  0  0  0  0  0
   31.2866    6.2163  -20.0179 H   0  0  0  0  0  0  0  0  0  0  0  0
   30.6654    4.2739  -21.0875 H   0  0  0  0  0  0  0  0  0  0  0  0
   32.2984    4.2299  -22.6684 H   0  0  0  0  0  0  0  0  0  0  0  0
   34.0413    4.9687  -21.2994 H   0  0  0  0  0  0  0  0  0  0  0  0
   33.4382    3.8109  -19.4066 H   0  0  0  0  0  0  0  0  0  0  0  0
   32.7684    1.8904  -20.3929 H   0  0  0  0  0  0  0  0  0  0  0  0
   34.4246    1.7845  -22.0265 H   0  0  0  0  0  0  0  0  0  0  0  0
   36.1737    2.5162  -20.7008 H   0  0  0  0  0  0  0  0  0  0  0  0
   35.5819    1.4560  -18.7807 H   0  0  0  0  0  0  0  0  0  0  0  0
   34.9183   -0.5680  -19.7462 H   0  0  0  0  0  0  0  0  0  0  0  0
   36.5572   -0.6961  -21.3878 H   0  0  0  0  0  0  0  0  0  0  0  0
   38.2873    0.1027  -20.1351 H   0  0  0  0  0  0  0  0  0  0  0  0
   37.7460   -1.0158  -18.1526 H   0  0  0  0  0  0  0  0  0  0  0  0
   37.0102   -2.9771  -19.0711 H   0  0  0  0  0  0  0  0  0  0  0  0
   38.6418   -3.1430  -20.7363 H   0  0  0  0  0  0  0  0  0  0  0  0
   40.4229   -2.3279  -19.5255 H   0  0  0  0  0  0  0  0  0  0  0  0
   39.9043   -3.4130  -17.5056 H   0  0  0  0  0  0  0  0  0  0  0  0
   39.1858   -5.4126  -18.4071 H   0  0  0  0  0  0  0  0  0  0  0  0
   40.7256   -5.5711  -20.0794 H   0  0  0  0  0  0  0  0  0  0  0  0
   42.5321   -4.7658  -18.9150 H   0  0  0  0  0  0  0  0  0  0  0  0
   42.0709   -5.8061  -16.8635 H   0  0  0  0  0  0  0  0  0  0  0  0
   41.2962   -7.7923  -17.7032 H   0  0  0  0  0  0  0  0  0  0  0  0
   42.8557   -8.0166  -19.4127 H   0  0  0  0  0  0  0  0  0  0  0  0
   44.6553   -7.1827  -18.2937 H   0  0  0  0  0  0  0  0  0  0  0  0
   44.2122   -8.1634  -16.2418 H   0  0  0  0  0  0  0  0  0  0  0  0
   43.4411  -10.2287  -17.0557 H   0  0  0  0  0  0  0  0  0  0  0  0
   44.9616  -10.4692  -18.7833 H   0  0  0  0  0  0  0  0  0  0  0  0
   46.8489   -9.6667  -17.6502 H   0  0  0  0  0  0  0  0  0  0  0  0
   46.3891  -10.6003  -15.6071 H   0  0  0  0  0  0  0  0  0  0  0  0
   45.5649  -12.6172  -16.3569 H   0  0  0  0  0  0  0  0  0  0  0  0
   47.0438  -12.9272  -18.1177 H   0  0  0  0  0  0  0  0  0  0  0  0
   48.9397  -12.1297  -17.0542 H   0  0  0  0  0  0  0  0  0  0  0  0
   48.5427  -12.9862  -15.0118 H   0  0  0  0  0  0  0  0  0  0  0  0
   47.7273  -15.0353  -15.6983 H   0  0  0  0  0  0  0  0  0  0  0  0
   49.1481  -15.3583  -17.4306 H   0  0  0  0  0  0  0  0  0  0  0  0
   51.0116  -14.5572  -16.4596 H   0  0  0  0  0  0  0  0  0  0  0  0
   50.6712  -15.3797  -14.3977 H   0  0  0  0  0  0  0  0  0  0  0  0
   49.7999  -17.4008  -15.0057 H   0  0  0  0  0  0  0  0  0  0  0  0
   51.1831  -17.7980  -16.7958 H   0  0  0  0  0  0  0  0  0  0  0  0
   53.1306  -16.9728  -15.8717 H   0  0  0  0  0  0  0  0  0  0  0  0
   52.8291  -17.8277  -13.7361 H   0  0  0  0  0  0  0  0  0  0  0  0
   51.9531  -19.8391  -14.3169 H   0  0  0  0  0  0  0  0  0  0  0  0
   53.2785  -20.2476  -16.1113 H   0  0  0  0  0  0  0  0  0  0  0  0
   55.2291  -19.4210  -15.2624 H   0  0  0  0  0  0  0  0  0  0  0  0
   54.9644  -20.1883  -13.1135 H   0  0  0  0  0  0  0  0  0  0  0  0
   54.0695  -22.2674  -13.6076 H   0  0  0  0  0  0  0  0  0  0  0  0
   55.3968  -22.7471  -15.4599 H   0  0  0  0  0  0  0  0  0  0  0  0
   57.3900  -21.8898  -14.6205 H   0  0  0  0  0  0  0  0  0  0  0  0
   57.1165  -22.6413  -12.4203 H   0  0  0  0  0  0  0  0  0  0  0  0
   57.6646  -25.2777  -13.6271 H   0  0  0  0  0  0  0  0  0  0  0  0
   56.1085  -24.7597  -12.9455 H   0  0  0  0  0  0  0  0  0  0  0  0
   57.1765  -24.3905  -10.7443 H   0  0  0  0  0  0  0  0  0  0  0  0
   58.7319  -24.9230  -11.4143 H   0  0  0  0  0  0  0  0  0  0  0  0
   57.7333  -27.1295  -11.9747 H   0  0  0  0  0  0  0  0  0  0  0  0
   56.1800  -26.5969  -11.3043 H   0  0  0  0  0  0  0  0  0  0  0  0
   57.2557  -26.2427   -9.0928 H   0  0  0  0  0  0  0  0  0  0  0  0
   58.8093  -26.7753   -9.7633 H   0  0  0  0  0  0  0  0  0  0  0  0
   57.8129  -28.9812  -10.3220 H   0  0  0  0  0  0  0  0  0  0  0  0
   56.2583  -28.4489   -9.6537 H   0  0  0  0  0  0  0  0  0  0  0  0
   57.3313  -28.0932   -7.4410 H   0  0  0  0  0  0  0  0  0  0  0  0
   58.8859  -28.6255   -8.1093 H   0  0  0  0  0  0  0  0  0  0  0  0
   57.8896  -30.8318   -8.6694 H   0  0  0  0  0  0  0  0  0  0  0  0
   56.3350  -30.2994   -8.0012 H   0  0  0  0  0  0  0  0  0  0  0  0
   57.4080  -29.9437   -5.7885 H   0  0  0  0  0  0  0  0  0  0  0  0
   58.9626  -30.4760   -6.4567 H   0  0  0  0  0  0  0  0  0  0  0  0
   57.9663  -32.6822   -7.0169 H   0  0  0  0  0  0  0  0  0  0  0  0
   56.4117  -32.1499   -6.3487 H   0  0  0  0  0  0  0  0  0  0  0  0
   57.4847  -31.7941   -4.1360 H   0  0  0  0  0  0  0  0  0  0  0  0
   59.0393  -32.3265   -4.8042 H   0  0  0  0  0  0  0  0  0  0  0  0
   58.0442  -34.5329   -5.3635 H   0  0  0  0  0  0  0  0  0  0  0  0
   56.4886  -34.0007   -4.6975 H   0  0  0  0  0  0  0  0  0  0  0  0
   57.5584  -33.6439   -2.4835 H   0  0  0  0  0  0  0  0  0  0  0  0
   59.1141  -34.1760   -3.1495 H   0  0  0  0  0  0  0  0  0  0  0  0
   58.1192  -36.3827   -3.7102 H   0  0  0  0  0  0  0  0  0  0  0  0
   56.5635  -35.8506   -3.0442 H   0  0  0  0  0  0  0  0  0  0  0  0
   57.6323  -35.4946   -0.8301 H   0  0  0  0  0  0  0  0  0  0  0  0
   59.1889  -36.0245   -1.4957 H   0  0  0  0  0  0  0  0  0  0  0  0
   58.1958  -38.2319   -2.0585 H   0  0  0  0  0  0  0  0  0  0  0  0
   56.6405  -37.7019   -1.3908 H   0  0  0  0  0  0  0  0  0  0  0  0
   57.7114  -37.3504    0.8254 H   0  0  0  0  0  0  0  0  0  0  0  0
   59.2672  -37.8805    0.1574 H   0  0  0  0  0  0  0  0  0  0  0  0
   56.7196  -39.5580    0.2715 H   0  0  0  0  0  0  0  0  0  0  0  0
   58.1311  -39.7322    1.3370 H   0  0  0  0  0  0  0  0  0  0  0  0
   58.2782  -40.0891   -0.3976 H   0  0  0  0  0  0  0  0  0  0  0  0
  1  2  2  0  0  0  0
  1 81  1  0  0  0  0
  2  3  1  0  0  0  0
  2 82  1  0  0  0  0
  3  4  1  0  0  0  0
  3 83  1  0  0  0  0
  3 84  1  0  0  0  0
  4  5  1  0  0  0  0
  4 85  1  0  0  0  0
  5  6  1  0  0  0  0
  5 86  1  0  0  0  0
  6  7  1  0  0  0  0
  6 87  1  0  0  0  0
  7  8  1  0  0  0  0
  7 88  1  0  0  0  0
  8  9  1  0  0  0  0
  8 89  1  0  0  0  0
  9 10  1  0  0  0  0
  9 90  1  0  0  0  0
 10 11  1  0  0  0  0
 10 91  1  0  0  0  0
 11 12  1  0  0  0  0
 11 92  1  0  0  0  0
 12 13  1  0  0  0  0
 12 93  1  0  0  0  0
 13 14  1  0  0  0  0
 13 94  1  0  0  0  0
 14 15  1  0  0  0  0
 14 95  1  0  0  0  0
 15 16  1  0  0  0  0
 15 96  1  0  0  0  0
 16 17  1  0  0  0  0
 16 97  1  0  0  0  0
 17 18  1  0  0  0  0
 17 98  1  0  0  0  0
 18 19  1  0  0  0  0
 18 99  1  0  0  0  0
 19 20  1  0  0  0  0
 19100  1  0  0  0  0
 20 21  1  0  0  0  0
 20101  1  0  0  0  0
 21 22  1  0  0  0  0
 21102  1  0  0  0  0
 22 23  1  0  0  0  0
 22103  1  0  0  0  0
 23 24  1  0  0  0  0
 23104  1  0  0  0  0
 24 25  1  0  0  0  0
 24105  1  0  0  0  0
 25 26  1  0  0  0  0
 25106  1  0  0  0  0
 26 27  1  0  0  0  0
 26107  1  0  0  0  0
 27 28  1  0  0  0  0
 27108  1  0  0  0  0
 28 29  1  0  0  0  0
 28109  1  0  0  0  0
 29 30  1  0  0  0  0
 29110  1  0  0  0  0
 30 31  1  0  0  0  0
 30111  1  0  0  0  0
 31 32  1  0  0  0  0
 31112  1  0  0  0  0
 32 33  1  0  0  0  0
 32113  1  0  0  0  0
 33 34  1  0  0  0  0
 33114  1  0  0  0  0
 34 35  1  0  0  0  0
 34115  1  0  0  0  0
 35 36  1  0  0  0  0
 35116  1  0  0  0  0
 36 37  1  0  0  0  0
 36117  1  0  0  0  0
 37 38  1  0  0  0  0
 37118  1  0  0  0  0
 38 39  1  0  0  0  0
 38119  1  0  0  0  0
 39 40  1  0  0  0  0
 39120  1  0  0  0  0
 40 41  1  0  0  0  0
 40121  1  0  0  0  0
 41 42  1  0  0  0  0
 41122  1  0  0  0  0
 42 43  1  0  0  0  0
 42123  1  0  0  0  0
 43 44  1  0  0  0  0
 43124  1  0  0  0  0
 44 45  1  0  0  0  0
 44125  1  0  0  0  0
 45 46  1  0  0  0  0
 45126  1  0  0  0  0
 46 47  1  0  0  0  0
 46127  1  0  0  0  0
 47 48  1  0  0  0  0
 47128  1  0  0  0  0
 48 49  1  0  0  0  0
 48129  1  0  0  0  0
 49 50  1  0  0  0  0
 49130  1  0  0  0  0
 50 51  1  0  0  0  0
 50131  1  0  0  0  0
 51 52  1  0  0  0  0
 51132  1  0  0  0  0
 52 53  1  0  0  0  0
 52133  1  0  0  0  0
 53 54  1  0  0  0  0
 53134  1  0  0  0  0
 54 55  1  0  0  0  0
 54135  1  0  0  0  0
 55 56  1  0  0  0  0
 55136  1  0  0  0  0
 56 57  1  0  0  0  0
 56137  1  0  0  0  0
 57 58  1  0  0  0  0
 57138  1  0  0  0  0
 58 59  1  0  0  0  0
 58139  1  0  0  0  0
 59 60  1  0  0  0  0
 59140  1  0  0  0  0
 60 61  1  0  0  0  0
 60141  1  0  0  0  0
 61 62  1  0  0  0  0
 61142  1  0  0  0  0
 62 63  1  0  0  0  0
 62143  1  0  0  0  0
 63 64  1  0  0  0  0
 63144  1  0  0  0  0
 64 65  1  0  0  0  0
 64145  1  0  0  0  0
 64146  1  0  0  0  0
 65 66  1  0  0  0  0
 65147  1  0  0  0  0
 65148  1  0  0  0  0
 66 67  1  0  0  0  0
 66149  1  0  0  0  0
 66150  1  0  0  0  0
 67 68  1  0  0  0  0
 67151  1  0  0  0  0
 67152  1  0  0  0  0
 68 69  1  0  0  0  0
 68153  1  0  0  0  0
 68154  1  0  0  0  0
 69 70  1  0  0  0  0
 69155  1  0  0  0  0
 69156  1  0  0  0  0
 70 71  1  0  0  0  0
 70157  1  0  0  0  0
 70158  1  0  0  0  0
 71 72  1  0  0  0  0
 71159  1  0  0  0  0
 71160  1  0  0  0  0
 72 73  1  0  0  0  0
 72161  1  0  0  0  0
 72162  1  0  0  0  0
 73 74  1  0  0  0  0
 73163  1  0  0  0  0
 73164  1  0  0  0  0
 74 75  1  0  0  0  0
 74165  1  0  0  0  0
 74166  1  0  0  0  0
 75 76  1  0  0  0  0
 75167  1  0  0  0  0
 75168  1  0  0  0  0
 76 77  1  0  0  0  0
 76169  1  0  0  0  0
 76170  1  0  0  0  0
 77 78  1  0  0  0  0
 77171  1  0  0  0  0
 77172  1  0  0  0  0
 78 79  1  0  0  0  0
 78173  1  0  0  0  0
 78174  1  0  0  0  0
 79 80  1  0  0  0  0
 79175  1  0  0  0  0
 79176  1  0  0  0  0
 80177  1  0  0  0  0
 80178  1  0  0  0  0
 80179  1  0  0  0  0
M  END
$$$$
