
 OpenBabel04232216563D

184183  0  0  0  0  0  0  0  0999 V2000
    0.9578    0.0563    0.0069 C   0  0  0  0  0  0  0  0  0  0  0  0
    2.4129    0.0676    0.0058 N   0  0  0  0  0  0  0  0  0  0  0  0
    2.9033    1.1627   -0.8254 C   0  0  0  0  0  0  0  0  0  0  0  0
    4.4256    1.1651   -0.8223 C   0  0  0  0  0  0  0  0  0  0  0  0
    4.9444    2.3055   -1.6877 C   0  0  0  0  0  0  0  0  0  0  0  0
    6.4632    2.3161   -1.6908 C   0  0  0  0  0  0  0  0  0  0  0  0
    6.9757    3.4559   -2.5534 C   0  0  0  0  0  0  0  0  0  0  0  0
    8.4936    3.4613   -2.5550 C   0  0  0  0  0  0  0  0  0  0  0  0
    9.0053    4.6003   -3.4168 C   0  0  0  0  0  0  0  0  0  0  0  0
   10.5222    4.6073   -3.4172 C   0  0  0  0  0  0  0  0  0  0  0  0
   11.0312    5.7481   -4.2780 C   0  0  0  0  0  0  0  0  0  0  0  0
   12.5480    5.7569   -4.2771 C   0  0  0  0  0  0  0  0  0  0  0  0
   13.0584    6.8959   -5.1390 C   0  0  0  0  0  0  0  0  0  0  0  0
   14.5753    6.9022   -5.1388 C   0  0  0  0  0  0  0  0  0  0  0  0
   15.0856    8.0412   -6.0007 C   0  0  0  0  0  0  0  0  0  0  0  0
   16.6023    8.0463   -6.0021 C   0  0  0  0  0  0  0  0  0  0  0  0
   17.1125    9.1864   -6.8623 C   0  0  0  0  0  0  0  0  0  0  0  0
   18.6292    9.1927   -6.8621 C   0  0  0  0  0  0  0  0  0  0  0  0
   19.1393   10.3317   -7.7240 C   0  0  0  0  0  0  0  0  0  0  0  0
   20.6559   10.3367   -7.7253 C   0  0  0  0  0  0  0  0  0  0  0  0
   21.1660   11.4768   -8.5856 C   0  0  0  0  0  0  0  0  0  0  0  0
   22.6827   11.4806   -8.5886 C   0  0  0  0  0  0  0  0  0  0  0  0
   23.1927   12.6196   -9.4505 C   0  0  0  0  0  0  0  0  0  0  0  0
   24.7094   12.6222   -9.4550 C   0  0  0  0  0  0  0  0  0  0  0  0
   25.2195   13.7612  -10.3169 C   0  0  0  0  0  0  0  0  0  0  0  0
   26.7361   13.7649  -10.3199 C   0  0  0  0  0  0  0  0  0  0  0  0
   27.2462   14.9039  -11.1817 C   0  0  0  0  0  0  0  0  0  0  0  0
   28.7628   14.9077  -11.1847 C   0  0  0  0  0  0  0  0  0  0  0  0
   29.2729   16.0467  -12.0466 C   0  0  0  0  0  0  0  0  0  0  0  0
   30.7896   16.0504  -12.0496 C   0  0  0  0  0  0  0  0  0  0  0  0
   31.2997   17.1894  -12.9114 C   0  0  0  0  0  0  0  0  0  0  0  0
   32.8163   17.1932  -12.9144 C   0  0  0  0  0  0  0  0  0  0  0  0
   33.3264   18.3322  -13.7763 C   0  0  0  0  0  0  0  0  0  0  0  0
   34.8431   18.3372  -13.7776 C   0  0  0  0  0  0  0  0  0  0  0  0
   35.3532   19.4761  -14.6395 C   0  0  0  0  0  0  0  0  0  0  0  0
   36.8698   19.4823  -14.6392 C   0  0  0  0  0  0  0  0  0  0  0  0
   37.3797   20.6201  -15.5027 C   0  0  0  0  0  0  0  0  0  0  0  0
   38.8963   20.6276  -15.5008 C   0  0  0  0  0  0  0  0  0  0  0  0
   39.4063   21.7641  -16.3659 C   0  0  0  0  0  0  0  0  0  0  0  0
   40.9228   21.7727  -16.3624 C   0  0  0  0  0  0  0  0  0  0  0  0
   41.4326   22.9104  -17.2259 C   0  0  0  0  0  0  0  0  0  0  0  0
   42.9488   22.9189  -17.2222 C   0  0  0  0  0  0  0  0  0  0  0  0
   43.4586   24.0561  -18.0854 C   0  0  0  0  0  0  0  0  0  0  0  0
   44.9741   24.0622  -18.0799 C   0  0  0  0  0  0  0  0  0  0  0  0
   45.4829   25.1984  -18.9422 C   0  0  0  0  0  0  0  0  0  0  0  0
   46.9957   25.2029  -18.9356 C   0  0  0  0  0  0  0  0  0  0  0  0
   47.4933   26.3388  -19.7977 C   0  0  0  0  0  0  0  0  0  0  0  0
   49.0002   26.3393  -19.7881 C   0  0  0  0  0  0  0  0  0  0  0  0
   49.4777   27.4741  -20.6496 C   0  0  0  0  0  0  0  0  0  0  0  0
   50.9705   27.4670  -20.6318 C   0  0  0  0  0  0  0  0  0  0  0  0
   51.4280   28.5903  -21.4846 C   0  0  0  0  0  0  0  0  0  0  0  0
   52.8089   28.4810  -21.3873 O   0  0  0  0  0  0  0  0  0  0  0  0
   53.2292   29.5431  -22.1914 O   0  0  0  0  0  0  0  0  0  0  0  0
   54.6223   29.5371  -22.1750 O   0  0  0  0  0  0  0  0  0  0  0  0
   55.0381   30.5906  -22.9702 O   0  0  0  0  0  0  0  0  0  0  0  0
   56.4265   30.5686  -22.9416 O   0  0  0  0  0  0  0  0  0  0  0  0
   56.8461   31.6205  -23.7356 O   0  0  0  0  0  0  0  0  0  0  0  0
   58.2213   31.5852  -23.6972 O   0  0  0  0  0  0  0  0  0  0  0  0
   58.6396   32.6413  -24.4943 O   0  0  0  0  0  0  0  0  0  0  0  0
   60.0068   32.6014  -24.4525 O   0  0  0  0  0  0  0  0  0  0  0  0
   60.4119   33.6485  -25.2429 O   0  0  0  0  0  0  0  0  0  0  0  0
   61.7806   33.6149  -25.2058 O   0  0  0  0  0  0  0  0  0  0  0  0
   62.1913   34.6586  -25.9936 O   0  0  0  0  0  0  0  0  0  0  0  0
   63.5379   34.6155  -25.9495 O   0  0  0  0  0  0  0  0  0  0  0  0
   63.9695   35.6616  -26.7390 O   0  0  0  0  0  0  0  0  0  0  0  0
   65.3221   35.6145  -26.6917 O   0  0  0  0  0  0  0  0  0  0  0  0
   65.7364   36.6537  -27.4761 O   0  0  0  0  0  0  0  0  0  0  0  0
   67.1052   36.6172  -27.4367 O   0  0  0  0  0  0  0  0  0  0  0  0
   67.5049   37.6619  -28.2255 O   0  0  0  0  0  0  0  0  0  0  0  0
   68.8762   37.6337  -28.1924 O   0  0  0  0  0  0  0  0  0  0  0  0
   69.2717   38.6829  -28.9845 O   0  0  0  0  0  0  0  0  0  0  0  0
   70.6463   38.6590  -28.9547 O   0  0  0  0  0  0  0  0  0  0  0  0
   71.0587   39.7080  -29.7466 O   0  0  0  0  0  0  0  0  0  0  0  0
   72.4376   39.6780  -29.7121 O   0  0  0  0  0  0  0  0  0  0  0  0
   72.8726   40.7292  -30.5053 O   0  0  0  0  0  0  0  0  0  0  0  0
   74.2595   40.7010  -30.4722 O   0  0  0  0  0  0  0  0  0  0  0  0
   74.7017   41.7572  -31.2693 O   0  0  0  0  0  0  0  0  0  0  0  0
   76.1007   41.7579  -31.2483 O   0  0  0  0  0  0  0  0  0  0  0  0
   76.5440   42.8350  -32.0602 O   0  0  0  0  0  0  0  0  0  0  0  0
   77.9669   42.8403  -32.0590 O   0  0  0  0  0  0  0  0  0  0  0  0
   78.4419   41.5821  -32.5852 O   0  0  0  0  0  0  0  0  0  0  0  0
    0.5977   -0.7641    0.6333 H   0  0  0  0  0  0  0  0  0  0  0  0
    0.5609   -0.0849   -1.0036 H   0  0  0  0  0  0  0  0  0  0  0  0
    0.5614    0.9899    0.4195 H   0  0  0  0  0  0  0  0  0  0  0  0
    2.7612   -0.8188   -0.3590 H   0  0  0  0  0  0  0  0  0  0  0  0
    2.5400    2.1222   -0.4380 H   0  0  0  0  0  0  0  0  0  0  0  0
    2.5412    1.0526   -1.8550 H   0  0  0  0  0  0  0  0  0  0  0  0
    4.8089    0.2107   -1.2050 H   0  0  0  0  0  0  0  0  0  0  0  0
    4.8023    1.2798    0.2020 H   0  0  0  0  0  0  0  0  0  0  0  0
    4.5680    3.2640   -1.3093 H   0  0  0  0  0  0  0  0  0  0  0  0
    4.5729    2.1951   -2.7142 H   0  0  0  0  0  0  0  0  0  0  0  0
    6.8430    1.3609   -2.0736 H   0  0  0  0  0  0  0  0  0  0  0  0
    6.8384    2.4279   -0.6661 H   0  0  0  0  0  0  0  0  0  0  0  0
    6.6000    4.4133   -2.1715 H   0  0  0  0  0  0  0  0  0  0  0  0
    6.6023    3.3471   -3.5791 H   0  0  0  0  0  0  0  0  0  0  0  0
    8.8708    2.5050   -2.9377 H   0  0  0  0  0  0  0  0  0  0  0  0
    8.8685    3.5713   -1.5299 H   0  0  0  0  0  0  0  0  0  0  0  0
    8.6278    5.5568   -3.0350 H   0  0  0  0  0  0  0  0  0  0  0  0
    8.6324    4.4897   -4.4426 H   0  0  0  0  0  0  0  0  0  0  0  0
   10.9008    3.6517   -3.8005 H   0  0  0  0  0  0  0  0  0  0  0  0
   10.8962    4.7167   -2.3917 H   0  0  0  0  0  0  0  0  0  0  0  0
   10.6513    6.7036   -3.8956 H   0  0  0  0  0  0  0  0  0  0  0  0
   10.6582    5.6380   -5.3037 H   0  0  0  0  0  0  0  0  0  0  0  0
   12.9273    4.8007   -4.6582 H   0  0  0  0  0  0  0  0  0  0  0  0
   12.9204    5.8684   -3.2513 H   0  0  0  0  0  0  0  0  0  0  0  0
   12.6805    7.8523   -4.7572 H   0  0  0  0  0  0  0  0  0  0  0  0
   12.6852    6.7853   -6.1646 H   0  0  0  0  0  0  0  0  0  0  0  0
   14.9534    5.9459   -5.5207 H   0  0  0  0  0  0  0  0  0  0  0  0
   14.9489    7.0129   -4.1133 H   0  0  0  0  0  0  0  0  0  0  0  0
   14.7088    8.9977   -5.6180 H   0  0  0  0  0  0  0  0  0  0  0  0
   14.7111    7.9314   -7.0259 H   0  0  0  0  0  0  0  0  0  0  0  0
   16.9792    7.0903   -6.3862 H   0  0  0  0  0  0  0  0  0  0  0  0
   16.9770    8.1547   -4.9767 H   0  0  0  0  0  0  0  0  0  0  0  0
   16.7345   10.1423   -6.4792 H   0  0  0  0  0  0  0  0  0  0  0  0
   16.7390    9.0772   -7.8880 H   0  0  0  0  0  0  0  0  0  0  0  0
   19.0073    8.2363   -7.2440 H   0  0  0  0  0  0  0  0  0  0  0  0
   19.0027    9.3033   -5.8366 H   0  0  0  0  0  0  0  0  0  0  0  0
   18.7624   11.2882   -7.3413 H   0  0  0  0  0  0  0  0  0  0  0  0
   18.7647   10.2218   -8.7492 H   0  0  0  0  0  0  0  0  0  0  0  0
   21.0328    9.3807   -8.1094 H   0  0  0  0  0  0  0  0  0  0  0  0
   21.0306   10.4451   -6.7000 H   0  0  0  0  0  0  0  0  0  0  0  0
   20.7903   12.4329   -8.2007 H   0  0  0  0  0  0  0  0  0  0  0  0
   20.7901   11.3692   -9.6106 H   0  0  0  0  0  0  0  0  0  0  0  0
   23.0583   10.5239   -8.9721 H   0  0  0  0  0  0  0  0  0  0  0  0
   23.0584   11.5896   -7.5637 H   0  0  0  0  0  0  0  0  0  0  0  0
   22.8181   13.5764   -9.0661 H   0  0  0  0  0  0  0  0  0  0  0  0
   22.8157   12.5114  -10.4750 H   0  0  0  0  0  0  0  0  0  0  0  0
   25.0841   11.6654   -9.8393 H   0  0  0  0  0  0  0  0  0  0  0  0
   25.0864   12.7304   -8.4305 H   0  0  0  0  0  0  0  0  0  0  0  0
   24.8437   14.7179   -9.9334 H   0  0  0  0  0  0  0  0  0  0  0  0
   24.8435   13.6522  -11.3418 H   0  0  0  0  0  0  0  0  0  0  0  0
   27.1119   12.8082  -10.7034 H   0  0  0  0  0  0  0  0  0  0  0  0
   27.1121   13.8738   -9.2950 H   0  0  0  0  0  0  0  0  0  0  0  0
   26.8705   15.8606  -10.7981 H   0  0  0  0  0  0  0  0  0  0  0  0
   26.8703   14.7951  -12.2066 H   0  0  0  0  0  0  0  0  0  0  0  0
   29.1386   13.9510  -11.5683 H   0  0  0  0  0  0  0  0  0  0  0  0
   29.1388   15.0165  -10.1599 H   0  0  0  0  0  0  0  0  0  0  0  0
   28.8971   17.0034  -11.6630 H   0  0  0  0  0  0  0  0  0  0  0  0
   28.8970   15.9378  -13.0714 H   0  0  0  0  0  0  0  0  0  0  0  0
   31.1654   15.0937  -12.4330 H   0  0  0  0  0  0  0  0  0  0  0  0
   31.1655   16.1594  -11.0247 H   0  0  0  0  0  0  0  0  0  0  0  0
   30.9239   18.1461  -12.5280 H   0  0  0  0  0  0  0  0  0  0  0  0
   30.9238   17.0804  -13.9363 H   0  0  0  0  0  0  0  0  0  0  0  0
   33.1922   16.2366  -13.2979 H   0  0  0  0  0  0  0  0  0  0  0  0
   33.1922   17.3023  -11.8896 H   0  0  0  0  0  0  0  0  0  0  0  0
   32.9496   19.2887  -13.3936 H   0  0  0  0  0  0  0  0  0  0  0  0
   32.9518   18.2224  -14.8015 H   0  0  0  0  0  0  0  0  0  0  0  0
   35.2200   17.3807  -14.1603 H   0  0  0  0  0  0  0  0  0  0  0  0
   35.2177   18.4471  -12.7524 H   0  0  0  0  0  0  0  0  0  0  0  0
   34.9751   20.4325  -14.2576 H   0  0  0  0  0  0  0  0  0  0  0  0
   34.9796   19.3655  -15.6650 H   0  0  0  0  0  0  0  0  0  0  0  0
   37.2479   18.5254  -15.0197 H   0  0  0  0  0  0  0  0  0  0  0  0
   37.2433   19.5944  -13.6138 H   0  0  0  0  0  0  0  0  0  0  0  0
   37.0005   21.5769  -15.1231 H   0  0  0  0  0  0  0  0  0  0  0  0
   37.0075   20.5071  -16.5284 H   0  0  0  0  0  0  0  0  0  0  0  0
   39.2757   19.6703  -15.8790 H   0  0  0  0  0  0  0  0  0  0  0  0
   39.2686   20.7421  -14.4753 H   0  0  0  0  0  0  0  0  0  0  0  0
   39.0259   22.7213  -15.9885 H   0  0  0  0  0  0  0  0  0  0  0  0
   39.0353   21.6488  -17.3918 H   0  0  0  0  0  0  0  0  0  0  0  0
   41.3033   20.8160  -16.7412 H   0  0  0  0  0  0  0  0  0  0  0  0
   41.2940   21.8865  -15.3364 H   0  0  0  0  0  0  0  0  0  0  0  0
   41.0523   23.8671  -16.8471 H   0  0  0  0  0  0  0  0  0  0  0  0
   41.0617   22.7967  -18.2520 H   0  0  0  0  0  0  0  0  0  0  0  0
   43.3296   21.9624  -17.6012 H   0  0  0  0  0  0  0  0  0  0  0  0
   43.3203   23.0328  -16.1964 H   0  0  0  0  0  0  0  0  0  0  0  0
   43.0793   25.0135  -17.7071 H   0  0  0  0  0  0  0  0  0  0  0  0
   43.0886   23.9431  -19.1119 H   0  0  0  0  0  0  0  0  0  0  0  0
   45.3550   23.1059  -18.4590 H   0  0  0  0  0  0  0  0  0  0  0  0
   45.3456   24.1763  -17.0541 H   0  0  0  0  0  0  0  0  0  0  0  0
   45.1055   26.1567  -18.5645 H   0  0  0  0  0  0  0  0  0  0  0  0
   45.1149   25.0861  -19.9696 H   0  0  0  0  0  0  0  0  0  0  0  0
   47.3805   24.2489  -19.3166 H   0  0  0  0  0  0  0  0  0  0  0  0
   47.3711   25.3195  -17.9114 H   0  0  0  0  0  0  0  0  0  0  0  0
   47.1178   27.2983  -19.4209 H   0  0  0  0  0  0  0  0  0  0  0  0
   47.1272   26.2278  -20.8260 H   0  0  0  0  0  0  0  0  0  0  0  0
   49.3901   25.3882  -20.1718 H   0  0  0  0  0  0  0  0  0  0  0  0
   49.3807   26.4593  -18.7660 H   0  0  0  0  0  0  0  0  0  0  0  0
   49.1067   28.4355  -20.2735 H   0  0  0  0  0  0  0  0  0  0  0  0
   49.1184   27.3628  -21.6800 H   0  0  0  0  0  0  0  0  0  0  0  0
   51.3850   26.5233  -21.0118 H   0  0  0  0  0  0  0  0  0  0  0  0
   51.3733   27.5872  -19.6168 H   0  0  0  0  0  0  0  0  0  0  0  0
   51.1061   29.5696  -21.1087 H   0  0  0  0  0  0  0  0  0  0  0  0
   51.1204   28.4830  -22.5324 H   0  0  0  0  0  0  0  0  0  0  0  0
   79.3754   41.8165  -32.4823 H   0  0  0  0  0  0  0  0  0  0  0  0
  1  2  1  0  0  0  0
  1 82  1  0  0  0  0
  1 83  1  0  0  0  0
  1 84  1  0  0  0  0
  2  3  1  0  0  0  0
  2 85  1  0  0  0  0
  3  4  1  0  0  0  0
  3 86  1  0  0  0  0
  3 87  1  0  0  0  0
  4  5  1  0  0  0  0
  4 88  1  0  0  0  0
  4 89  1  0  0  0  0
  5  6  1  0  0  0  0
  5 90  1  0  0  0  0
  5 91  1  0  0  0  0
  6  7  1  0  0  0  0
  6 92  1  0  0  0  0
  6 93  1  0  0  0  0
  7  8  1  0  0  0  0
  7 94  1  0  0  0  0
  7 95  1  0  0  0  0
  8  9  1  0  0  0  0
  8 96  1  0  0  0  0
  8 97  1  0  0  0  0
  9 10  1  0  0  0  0
  9 98  1  0  0  0  0
  9 99  1  0  0  0  0
 10 11  1  0  0  0  0
 10100  1  0  0  0  0
 10101  1  0  0  0  0
 11 12  1  0  0  0  0
 11102  1  0  0  0  0
 11103  1  0  0  0  0
 12 13  1  0  0  0  0
 12104  1  0  0  0  0
 12105  1  0  0  0  0
 13 14  1  0  0  0  0
 13106  1  0  0  0  0
 13107  1  0  0  0  0
 14 15  1  0  0  0  0
 14108  1  0  0  0  0
 14109  1  0  0  0  0
 15 16  1  0  0  0  0
 15110  1  0  0  0  0
 15111  1  0  0  0  0
 16 17  1  0  0  0  0
 16112  1  0  0  0  0
 16113  1  0  0  0  0
 17 18  1  0  0  0  0
 17114  1  0  0  0  0
 17115  1  0  0  0  0
 18 19  1  0  0  0  0
 18116  1  0  0  0  0
 18117  1  0  0  0  0
 19 20  1  0  0  0  0
 19118  1  0  0  0  0
 19119  1  0  0  0  0
 20 21  1  0  0  0  0
 20120  1  0  0  0  0
 20121  1  0  0  0  0
 21 22  1  0  0  0  0
 21122  1  0  0  0  0
 21123  1  0  0  0  0
 22 23  1  0  0  0  0
 22124  1  0  0  0  0
 22125  1  0  0  0  0
 23 24  1  0  0  0  0
 23126  1  0  0  0  0
 23127  1  0  0  0  0
 24 25  1  0  0  0  0
 24128  1  0  0  0  0
 24129  1  0  0  0  0
 25 26  1  0  0  0  0
 25130  1  0  0  0  0
 25131  1  0  0  0  0
 26 27  1  0  0  0  0
 26132  1  0  0  0  0
 26133  1  0  0  0  0
 27 28  1  0  0  0  0
 27134  1  0  0  0  0
 27135  1  0  0  0  0
 28 29  1  0  0  0  0
 28136  1  0  0  0  0
 28137  1  0  0  0  0
 29 30  1  0  0  0  0
 29138  1  0  0  0  0
 29139  1  0  0  0  0
 30 31  1  0  0  0  0
 30140  1  0  0  0  0
 30141  1  0  0  0  0
 31 32  1  0  0  0  0
 31142  1  0  0  0  0
 31143  1  0  0  0  0
 32 33  1  0  0  0  0
 32144  1  0  0  0  0
 32145  1  0  0  0  0
 33 34  1  0  0  0  0
 33146  1  0  0  0  0
 33147  1  0  0  0  0
 34 35  1  0  0  0  0
 34148  1  0  0  0  0
 34149  1  0  0  0  0
 35 36  1  0  0  0  0
 35150  1  0  0  0  0
 35151  1  0  0  0  0
 36 37  1  0  0  0  0
 36152  1  0  0  0  0
 36153  1  0  0  0  0
 37 38  1  0  0  0  0
 37154  1  0  0  0  0
 37155  1  0  0  0  0
 38 39  1  0  0  0  0
 38156  1  0  0  0  0
 38157  1  0  0  0  0
 39 40  1  0  0  0  0
 39158  1  0  0  0  0
 39159  1  0  0  0  0
 40 41  1  0  0  0  0
 40160  1  0  0  0  0
 40161  1  0  0  0  0
 41 42  1  0  0  0  0
 41162  1  0  0  0  0
 41163  1  0  0  0  0
 42 43  1  0  0  0  0
 42164  1  0  0  0  0
 42165  1  0  0  0  0
 43 44  1  0  0  0  0
 43166  1  0  0  0  0
 43167  1  0  0  0  0
 44 45  1  0  0  0  0
 44168  1  0  0  0  0
 44169  1  0  0  0  0
 45 46  1  0  0  0  0
 45170  1  0  0  0  0
 45171  1  0  0  0  0
 46 47  1  0  0  0  0
 46172  1  0  0  0  0
 46173  1  0  0  0  0
 47 48  1  0  0  0  0
 47174  1  0  0  0  0
 47175  1  0  0  0  0
 48 49  1  0  0  0  0
 48176  1  0  0  0  0
 48177  1  0  0  0  0
 49 50  1  0  0  0  0
 49178  1  0  0  0  0
 49179  1  0  0  0  0
 50 51  1  0  0  0  0
 50180  1  0  0  0  0
 50181  1  0  0  0  0
 51 52  1  0  0  0  0
 51182  1  0  0  0  0
 51183  1  0  0  0  0
 52 53  1  0  0  0  0
 53 54  1  0  0  0  0
 54 55  1  0  0  0  0
 55 56  1  0  0  0  0
 56 57  1  0  0  0  0
 57 58  1  0  0  0  0
 58 59  1  0  0  0  0
 59 60  1  0  0  0  0
 60 61  1  0  0  0  0
 61 62  1  0  0  0  0
 62 63  1  0  0  0  0
 63 64  1  0  0  0  0
 64 65  1  0  0  0  0
 65 66  1  0  0  0  0
 66 67  1  0  0  0  0
 67 68  1  0  0  0  0
 68 69  1  0  0  0  0
 69 70  1  0  0  0  0
 70 71  1  0  0  0  0
 71 72  1  0  0  0  0
 72 73  1  0  0  0  0
 73 74  1  0  0  0  0
 74 75  1  0  0  0  0
 75 76  1  0  0  0  0
 76 77  1  0  0  0  0
 77 78  1  0  0  0  0
 78 79  1  0  0  0  0
 79 80  1  0  0  0  0
 80 81  1  0  0  0  0
 81184  1  0  0  0  0
M  END
$$$$
