
 OpenBabel04232216493D

 75 76  0  0  1  0  0  0  0  0999 V2000
    0.9761   -0.1521   -1.1284 C   0  0  0  0  0  0  0  0  0  0  0  0
    2.4471   -0.2211   -0.7213 C   0  0  3  0  0  0  0  0  0  0  0  0
    3.1942   -1.4315   -1.3356 C   0  0  0  0  0  0  0  0  0  0  0  0
    3.9259   -2.2266   -0.2336 C   0  0  0  0  0  0  0  0  0  0  0  0
    5.3513   -2.6810   -0.5646 C   0  0  0  0  0  0  0  0  0  0  0  0
    6.3504   -2.3079    0.5556 C   0  0  0  0  0  0  0  0  0  0  0  0
    7.4218   -1.3070    0.0907 C   0  0  0  0  0  0  0  0  0  0  0  0
    7.5504   -0.0496    0.9701 C   0  0  0  0  0  0  0  0  0  0  0  0
    7.4249    1.2568    0.1677 C   0  0  0  0  0  0  0  0  0  0  0  0
    6.4264    2.3001    0.7137 C   0  0  0  0  0  0  0  0  0  0  0  0
    5.1575    2.4601   -0.1435 C   0  0  0  0  0  0  0  0  0  0  0  0
    3.7784    1.8449    0.2856 C   0  0  3  0  0  0  0  0  0  0  0  0
    3.7243    1.0729    1.6389 C   0  0  0  0  0  0  0  0  0  0  0  0
    4.6970    0.4745    2.0623 O   0  0  0  0  0  0  0  0  0  0  0  0
    2.3578    0.9479    2.4064 C   0  0  0  0  0  0  0  0  0  0  0  0
    2.3300   -0.3846    3.2249 C   0  0  0  0  0  0  0  0  0  0  0  0
    0.9556   -1.0796    3.1593 C   0  0  0  0  0  0  0  0  0  0  0  0
    0.0440   -0.8018    4.3669 C   0  0  0  0  0  0  0  0  0  0  0  0
   -1.2566   -0.0728    3.9881 C   0  0  0  0  0  0  0  0  0  0  0  0
   -1.6078    1.0733    4.9522 C   0  0  0  0  0  0  0  0  0  0  0  0
   -1.9441    2.3752    4.2055 C   0  0  0  0  0  0  0  0  0  0  0  0
   -1.1701    3.5888    4.7389 C   0  0  0  0  0  0  0  0  0  0  0  0
   -0.5450    4.4420    3.6250 C   0  0  0  0  0  0  0  0  0  0  0  0
    0.9912    4.4154    3.6212 C   0  0  0  0  0  0  0  0  0  0  0  0
    1.5883    3.3915    2.6476 C   0  0  0  0  0  0  0  0  0  0  0  0
    1.9751    2.0937    3.3503 C   0  0  0  0  0  0  0  0  0  0  0  0
    3.1469    1.1319   -0.9614 C   0  0  0  0  0  0  0  0  0  0  0  0
    0.4406   -1.0144   -0.7144 H   0  0  0  0  0  0  0  0  0  0  0  0
    0.8415   -0.1406   -2.2120 H   0  0  0  0  0  0  0  0  0  0  0  0
    0.5041    0.7446   -0.7080 H   0  0  0  0  0  0  0  0  0  0  0  0
    2.3975   -0.4180    0.3399 H   0  0  0  0  0  0  0  0  0  0  0  0
    3.8790   -1.1203   -2.1340 H   0  0  0  0  0  0  0  0  0  0  0  0
    2.4684   -2.1074   -1.8083 H   0  0  0  0  0  0  0  0  0  0  0  0
    3.3222   -3.1143   -0.0021 H   0  0  0  0  0  0  0  0  0  0  0  0
    3.9455   -1.6506    0.6908 H   0  0  0  0  0  0  0  0  0  0  0  0
    5.6771   -2.3038   -1.5383 H   0  0  0  0  0  0  0  0  0  0  0  0
    5.3428   -3.7751   -0.6576 H   0  0  0  0  0  0  0  0  0  0  0  0
    6.8622   -3.2275    0.8700 H   0  0  0  0  0  0  0  0  0  0  0  0
    5.8370   -1.9553    1.4563 H   0  0  0  0  0  0  0  0  0  0  0  0
    7.2659   -1.0349   -0.9563 H   0  0  0  0  0  0  0  0  0  0  0  0
    8.3872   -1.8287    0.1150 H   0  0  0  0  0  0  0  0  0  0  0  0
    8.5556   -0.0644    1.4148 H   0  0  0  0  0  0  0  0  0  0  0  0
    6.8812   -0.0746    1.8288 H   0  0  0  0  0  0  0  0  0  0  0  0
    7.2269    1.0589   -0.8907 H   0  0  0  0  0  0  0  0  0  0  0  0
    8.4190    1.7260    0.1813 H   0  0  0  0  0  0  0  0  0  0  0  0
    6.9485    3.2656    0.6444 H   0  0  0  0  0  0  0  0  0  0  0  0
    6.2220    2.1870    1.7783 H   0  0  0  0  0  0  0  0  0  0  0  0
    5.4094    2.1649   -1.1735 H   0  0  0  0  0  0  0  0  0  0  0  0
    4.9845    3.5410   -0.2451 H   0  0  0  0  0  0  0  0  0  0  0  0
    3.1426    2.7232    0.4548 H   0  0  0  0  0  0  0  0  0  0  0  0
    1.5902    0.8930    1.6395 H   0  0  0  0  0  0  0  0  0  0  0  0
    2.6332   -0.2146    4.2688 H   0  0  0  0  0  0  0  0  0  0  0  0
    3.0657   -1.1000    2.8366 H   0  0  0  0  0  0  0  0  0  0  0  0
    1.1317   -2.1623    3.1196 H   0  0  0  0  0  0  0  0  0  0  0  0
    0.4581   -0.8368    2.2135 H   0  0  0  0  0  0  0  0  0  0  0  0
    0.5925   -0.2710    5.1507 H   0  0  0  0  0  0  0  0  0  0  0  0
   -0.2359   -1.7676    4.8076 H   0  0  0  0  0  0  0  0  0  0  0  0
   -2.0795   -0.7999    4.0038 H   0  0  0  0  0  0  0  0  0  0  0  0
   -1.2040    0.2881    2.9561 H   0  0  0  0  0  0  0  0  0  0  0  0
   -0.8026    1.2345    5.6756 H   0  0  0  0  0  0  0  0  0  0  0  0
   -2.4809    0.7768    5.5474 H   0  0  0  0  0  0  0  0  0  0  0  0
   -3.0175    2.5736    4.3232 H   0  0  0  0  0  0  0  0  0  0  0  0
   -1.7837    2.2632    3.1292 H   0  0  0  0  0  0  0  0  0  0  0  0
   -0.4093    3.2981    5.4704 H   0  0  0  0  0  0  0  0  0  0  0  0
   -1.8792    4.2208    5.2898 H   0  0  0  0  0  0  0  0  0  0  0  0
   -0.8525    5.4818    3.7942 H   0  0  0  0  0  0  0  0  0  0  0  0
   -0.9398    4.1804    2.6364 H   0  0  0  0  0  0  0  0  0  0  0  0
    1.3884    4.2740    4.6334 H   0  0  0  0  0  0  0  0  0  0  0  0
    1.3329    5.4071    3.3031 H   0  0  0  0  0  0  0  0  0  0  0  0
    2.4870    3.8335    2.2076 H   0  0  0  0  0  0  0  0  0  0  0  0
    0.8934    3.1872    1.8245 H   0  0  0  0  0  0  0  0  0  0  0  0
    1.0992    1.7710    3.9228 H   0  0  0  0  0  0  0  0  0  0  0  0
    2.7690    2.2837    4.0816 H   0  0  0  0  0  0  0  0  0  0  0  0
    3.8840    1.0124   -1.7657 H   0  0  0  0  0  0  0  0  0  0  0  0
    2.4328    1.8447   -1.3958 H   0  0  0  0  0  0  0  0  0  0  0  0
  1  2  1  0  0  0  0
  1 28  1  0  0  0  0
  1 29  1  0  0  0  0
  1 30  1  0  0  0  0
  2  3  1  0  0  0  0
  2 27  1  0  0  0  0
  2 31  1  0  0  0  0
  3  4  1  0  0  0  0
  3 32  1  0  0  0  0
  3 33  1  0  0  0  0
  4  5  1  0  0  0  0
  4 34  1  0  0  0  0
  4 35  1  0  0  0  0
  5  6  1  0  0  0  0
  5 36  1  0  0  0  0
  5 37  1  0  0  0  0
  6  7  1  0  0  0  0
  6 38  1  0  0  0  0
  6 39  1  0  0  0  0
  7  8  1  0  0  0  0
  7 40  1  0  0  0  0
  7 41  1  0  0  0  0
  8  9  1  0  0  0  0
  8 42  1  0  0  0  0
  8 43  1  0  0  0  0
  9 10  1  0  0  0  0
  9 44  1  0  0  0  0
  9 45  1  0  0  0  0
 10 11  1  0  0  0  0
 10 46  1  0  0  0  0
 10 47  1  0  0  0  0
 11 12  1  0  0  0  0
 11 48  1  0  0  0  0
 11 49  1  0  0  0  0
 12 13  1  0  0  0  0
 12 27  1  0  0  0  0
 12 50  1  0  0  0  0
 13 14  2  0  0  0  0
 13 15  1  0  0  0  0
 15 16  1  0  0  0  0
 15 26  1  0  0  0  0
 15 51  1  0  0  0  0
 16 17  1  0  0  0  0
 16 52  1  0  0  0  0
 16 53  1  0  0  0  0
 17 18  1  0  0  0  0
 17 54  1  0  0  0  0
 17 55  1  0  0  0  0
 18 19  1  0  0  0  0
 18 56  1  0  0  0  0
 18 57  1  0  0  0  0
 19 20  1  0  0  0  0
 19 58  1  0  0  0  0
 19 59  1  0  0  0  0
 20 21  1  0  0  0  0
 20 60  1  0  0  0  0
 20 61  1  0  0  0  0
 21 22  1  0  0  0  0
 21 62  1  0  0  0  0
 21 63  1  0  0  0  0
 22 23  1  0  0  0  0
 22 64  1  0  0  0  0
 22 65  1  0  0  0  0
 23 24  1  0  0  0  0
 23 66  1  0  0  0  0
 23 67  1  0  0  0  0
 24 25  1  0  0  0  0
 24 68  1  0  0  0  0
 24 69  1  0  0  0  0
 25 26  1  0  0  0  0
 25 70  1  0  0  0  0
 25 71  1  0  0  0  0
 26 72  1  0  0  0  0
 26 73  1  0  0  0  0
 27 74  1  0  0  0  0
 27 75  1  0  0  0  0
M  END
$$$$
