
 OpenBabel04232217033D

 57 56  0  0  0  0  0  0  0  0999 V2000
   10.2779   -4.0732   -9.1622 S   0  0  0  0  0  0  0  0  0  0  0  0
    9.6522   -2.5430   -8.8754 O   0  0  0  0  0  0  0  0  0  0  0  0
   10.1068   -1.5676   -9.8144 C   0  0  0  0  0  0  0  0  0  0  0  0
    9.5357   -0.1732   -9.5032 C   0  0  0  0  0  0  0  0  0  0  0  0
    9.9047    0.3647   -8.1113 C   0  0  0  0  0  0  0  0  0  0  0  0
    9.3795    1.7056   -7.8564 N   0  0  0  0  0  0  0  0  0  0  0  0
    9.7180    2.1885   -6.5184 N   0  0  0  0  0  0  0  0  0  0  0  0
    9.1119    3.7286   -6.3288 S   0  0  0  0  0  0  0  0  0  0  0  0
    9.7575    4.2435   -4.4430 S   0  0  0  0  0  0  0  0  0  0  0  0
   11.8228    4.2848   -4.4380 S   0  0  0  0  0  0  0  0  0  0  0  0
   12.5017    5.6998   -5.7902 S   0  0  0  0  0  0  0  0  0  0  0  0
   14.6019    5.6488   -5.7787 S   0  0  0  0  0  0  0  0  0  0  0  0
   15.3014    7.0346   -7.2032 S   0  0  0  0  0  0  0  0  0  0  0  0
   17.4112    7.0247   -7.1922 S   0  0  0  0  0  0  0  0  0  0  0  0
   18.1032    8.4148   -8.6223 S   0  0  0  0  0  0  0  0  0  0  0  0
   20.2133    8.4064   -8.6137 S   0  0  0  0  0  0  0  0  0  0  0  0
   20.9043    9.7961  -10.0431 S   0  0  0  0  0  0  0  0  0  0  0  0
   23.0140    9.7871  -10.0339 S   0  0  0  0  0  0  0  0  0  0  0  0
   23.7048   11.1765  -11.4630 S   0  0  0  0  0  0  0  0  0  0  0  0
   25.8143   11.1673  -11.4536 S   0  0  0  0  0  0  0  0  0  0  0  0
   26.5049   12.5567  -12.8827 S   0  0  0  0  0  0  0  0  0  0  0  0
   28.6143   12.5475  -12.8732 S   0  0  0  0  0  0  0  0  0  0  0  0
   29.3049   13.9368  -14.3023 S   0  0  0  0  0  0  0  0  0  0  0  0
   31.4143   13.9276  -14.2928 S   0  0  0  0  0  0  0  0  0  0  0  0
   32.1049   15.3170  -15.7219 S   0  0  0  0  0  0  0  0  0  0  0  0
   34.2143   15.3077  -15.7124 S   0  0  0  0  0  0  0  0  0  0  0  0
   34.9049   16.6971  -17.1415 S   0  0  0  0  0  0  0  0  0  0  0  0
   37.0143   16.6878  -17.1320 S   0  0  0  0  0  0  0  0  0  0  0  0
   37.7049   18.0772  -18.5611 S   0  0  0  0  0  0  0  0  0  0  0  0
   39.8143   18.0680  -18.5516 S   0  0  0  0  0  0  0  0  0  0  0  0
   40.5049   19.4573  -19.9807 S   0  0  0  0  0  0  0  0  0  0  0  0
   42.6143   19.4481  -19.9712 S   0  0  0  0  0  0  0  0  0  0  0  0
   43.3049   20.8374  -21.4003 S   0  0  0  0  0  0  0  0  0  0  0  0
   45.4143   20.8282  -21.3908 S   0  0  0  0  0  0  0  0  0  0  0  0
   46.1049   22.2176  -22.8199 S   0  0  0  0  0  0  0  0  0  0  0  0
   48.2142   22.2083  -22.8104 S   0  0  0  0  0  0  0  0  0  0  0  0
   48.9046   23.5976  -24.2394 S   0  0  0  0  0  0  0  0  0  0  0  0
   51.0136   23.5882  -24.2297 S   0  0  0  0  0  0  0  0  0  0  0  0
   51.7033   24.9771  -25.6584 S   0  0  0  0  0  0  0  0  0  0  0  0
   53.8109   24.9670  -25.6480 S   0  0  0  0  0  0  0  0  0  0  0  0
   54.4982   26.3547  -27.0752 S   0  0  0  0  0  0  0  0  0  0  0  0
   56.6008   26.3408  -27.0617 S   0  0  0  0  0  0  0  0  0  0  0  0
   57.2794   27.7248  -28.4847 S   0  0  0  0  0  0  0  0  0  0  0  0
   59.3669   27.7176  -28.4394 S   0  0  0  0  0  0  0  0  0  0  0  0
   60.0373   29.0316  -29.9028 S   0  0  0  0  0  0  0  0  0  0  0  0
   62.1079   29.0412  -29.8202 S   0  0  0  0  0  0  0  0  0  0  0  0
   62.7054   27.1552  -30.3840 S   0  0  0  0  0  0  0  0  0  0  0  0
    9.6888   -4.7391   -8.1635 H   0  0  0  0  0  0  0  0  0  0  0  0
    9.8159   -1.8696  -10.8167 H   0  0  0  0  0  0  0  0  0  0  0  0
   11.2141   -1.5122   -9.7736 H   0  0  0  0  0  0  0  0  0  0  0  0
    8.4421   -0.2112   -9.6144 H   0  0  0  0  0  0  0  0  0  0  0  0
    9.9019    0.5245  -10.2910 H   0  0  0  0  0  0  0  0  0  0  0  0
   11.0140    0.3879   -8.0350 H   0  0  0  0  0  0  0  0  0  0  0  0
    9.5405   -0.3439   -7.3514 H   0  0  0  0  0  0  0  0  0  0  0  0
    8.3265    1.6433   -7.9296 H   0  0  0  0  0  0  0  0  0  0  0  0
   10.7492    2.2444   -6.4569 H   0  0  0  0  0  0  0  0  0  0  0  0
   64.0458   27.2608  -30.3165 H   0  0  0  0  0  0  0  0  0  0  0  0
  1  2  1  0  0  0  0
  1 48  1  0  0  0  0
  2  3  1  0  0  0  0
  3  4  1  0  0  0  0
  3 49  1  0  0  0  0
  3 50  1  0  0  0  0
  4  5  1  0  0  0  0
  4 51  1  0  0  0  0
  4 52  1  0  0  0  0
  5  6  1  0  0  0  0
  5 53  1  0  0  0  0
  5 54  1  0  0  0  0
  6  7  1  0  0  0  0
  6 55  1  0  0  0  0
  7  8  1  0  0  0  0
  7 56  1  0  0  0  0
  8  9  1  0  0  0  0
  9 10  1  0  0  0  0
 10 11  1  0  0  0  0
 11 12  1  0  0  0  0
 12 13  1  0  0  0  0
 13 14  1  0  0  0  0
 14 15  1  0  0  0  0
 15 16  1  0  0  0  0
 16 17  1  0  0  0  0
 17 18  1  0  0  0  0
 18 19  1  0  0  0  0
 19 20  1  0  0  0  0
 20 21  1  0  0  0  0
 21 22  1  0  0  0  0
 22 23  1  0  0  0  0
 23 24  1  0  0  0  0
 24 25  1  0  0  0  0
 25 26  1  0  0  0  0
 26 27  1  0  0  0  0
 27 28  1  0  0  0  0
 28 29  1  0  0  0  0
 29 30  1  0  0  0  0
 30 31  1  0  0  0  0
 31 32  1  0  0  0  0
 32 33  1  0  0  0  0
 33 34  1  0  0  0  0
 34 35  1  0  0  0  0
 35 36  1  0  0  0  0
 36 37  1  0  0  0  0
 37 38  1  0  0  0  0
 38 39  1  0  0  0  0
 39 40  1  0  0  0  0
 40 41  1  0  0  0  0
 41 42  1  0  0  0  0
 42 43  1  0  0  0  0
 43 44  1  0  0  0  0
 44 45  1  0  0  0  0
 45 46  1  0  0  0  0
 46 47  1  0  0  0  0
 47 57  1  0  0  0  0
M  END
$$$$
