
 OpenBabel04232216563D

232232  0  0  1  0  0  0  0  0999 V2000
    2.1142   -0.1987    0.8625 C   0  0  0  0  0  0  0  0  0  0  0  0
    1.5014    0.7629   -0.0399 N   0  0  0  0  0  0  0  0  0  0  0  0
    2.1744    2.0598   -0.0311 C   0  0  0  0  0  0  0  0  0  0  0  0
    1.2075    2.9456   -0.8021 C   0  0  0  0  0  0  0  0  0  0  0  0
   -0.1636    2.3001   -0.6235 C   0  0  0  0  0  0  0  0  0  0  0  0
    0.0830    1.0495    0.2319 C   0  0  3  0  0  0  0  0  0  0  0  0
   -0.2835    1.3065    1.7003 C   0  0  0  0  0  0  0  0  0  0  0  0
   -1.6726    1.6080    1.7773 O   0  0  0  0  0  0  0  0  0  0  0  0
   -1.9047    1.9018    3.1756 O   0  0  0  0  0  0  0  0  0  0  0  0
   -3.2711    2.2724    3.2415 C   0  0  0  0  0  0  0  0  0  0  0  0
   -3.5940    2.5267    4.6960 C   0  0  0  0  0  0  0  0  0  0  0  0
   -5.0476    2.9264    4.8543 C   0  0  0  0  0  0  0  0  0  0  0  0
   -5.3577    3.1762    6.3191 C   0  0  0  0  0  0  0  0  0  0  0  0
   -6.8122    3.5776    6.4817 C   0  0  0  0  0  0  0  0  0  0  0  0
   -7.1198    3.8279    7.9467 C   0  0  0  0  0  0  0  0  0  0  0  0
   -8.5744    4.2286    8.1087 C   0  0  0  0  0  0  0  0  0  0  0  0
   -8.8819    4.4785    9.5733 C   0  0  0  0  0  0  0  0  0  0  0  0
  -10.3362    4.8793    9.7353 C   0  0  0  0  0  0  0  0  0  0  0  0
  -10.6423    5.1270   11.2004 C   0  0  0  0  0  0  0  0  0  0  0  0
  -12.0962    5.5278   11.3636 C   0  0  0  0  0  0  0  0  0  0  0  0
  -12.4010    5.7752   12.8289 C   0  0  0  0  0  0  0  0  0  0  0  0
  -13.8549    6.1764   12.9911 C   0  0  0  0  0  0  0  0  0  0  0  0
  -14.1621    6.4241   14.4556 C   0  0  0  0  0  0  0  0  0  0  0  0
  -15.6162    6.8247   14.6158 C   0  0  0  0  0  0  0  0  0  0  0  0
  -15.9225    7.0731   16.0821 C   0  0  0  0  0  0  0  0  0  0  0  0
  -17.3756    7.4735   16.2428 C   0  0  0  0  0  0  0  0  0  0  0  0
  -17.6810    7.7207   17.7081 C   0  0  0  0  0  0  0  0  0  0  0  0
  -19.1347    8.1218   17.8706 C   0  0  0  0  0  0  0  0  0  0  0  0
  -19.4408    8.3671   19.3357 C   0  0  0  0  0  0  0  0  0  0  0  0
  -20.8948    8.7678   19.4970 C   0  0  0  0  0  0  0  0  0  0  0  0
  -21.2016    9.0116   20.9622 C   0  0  0  0  0  0  0  0  0  0  0  0
  -22.6553    9.4123   21.1237 C   0  0  0  0  0  0  0  0  0  0  0  0
  -22.9625    9.6540   22.5892 C   0  0  0  0  0  0  0  0  0  0  0  0
  -24.4162   10.0545   22.7510 C   0  0  0  0  0  0  0  0  0  0  0  0
  -24.7238   10.2945   24.2166 C   0  0  0  0  0  0  0  0  0  0  0  0
  -26.1781   10.6934   24.3785 C   0  0  0  0  0  0  0  0  0  0  0  0
  -26.4841   10.9371   25.8438 C   0  0  0  0  0  0  0  0  0  0  0  0
  -27.9395   11.3337   26.0058 C   0  0  0  0  0  0  0  0  0  0  0  0
  -28.2468   11.5754   27.4711 C   0  0  0  0  0  0  0  0  0  0  0  0
  -29.7002   11.9740   27.6333 C   0  0  0  0  0  0  0  0  0  0  0  0
  -30.0078   12.2157   29.0989 C   0  0  0  0  0  0  0  0  0  0  0  0
  -31.4614   12.6133   29.2611 C   0  0  0  0  0  0  0  0  0  0  0  0
  -31.7695   12.8552   30.7260 C   0  0  0  0  0  0  0  0  0  0  0  0
  -33.2210   13.2570   30.8880 C   0  0  0  0  0  0  0  0  0  0  0  0
  -33.5309   13.4969   32.3529 C   0  0  0  0  0  0  0  0  0  0  0  0
  -34.9842   13.8995   32.5148 C   0  0  0  0  0  0  0  0  0  0  0  0
  -35.2913   14.1411   33.9803 C   0  0  0  0  0  0  0  0  0  0  0  0
  -36.7450   14.5421   34.1421 C   0  0  0  0  0  0  0  0  0  0  0  0
  -37.0520   14.7838   35.6075 C   0  0  0  0  0  0  0  0  0  0  0  0
  -38.5058   15.1846   35.7692 C   0  0  0  0  0  0  0  0  0  0  0  0
  -38.8129   15.4264   37.2346 C   0  0  0  0  0  0  0  0  0  0  0  0
  -40.2662   15.8289   37.3961 C   0  0  0  0  0  0  0  0  0  0  0  0
  -40.5732   16.0707   38.8615 C   0  0  0  0  0  0  0  0  0  0  0  0
  -42.0270   16.4715   39.0233 C   0  0  0  0  0  0  0  0  0  0  0  0
  -42.3341   16.7132   40.4887 C   0  0  0  0  0  0  0  0  0  0  0  0
  -43.7883   17.1121   40.6506 C   0  0  0  0  0  0  0  0  0  0  0  0
  -44.0955   17.3536   42.1160 C   0  0  0  0  0  0  0  0  0  0  0  0
  -45.5503   17.7507   42.2782 C   0  0  0  0  0  0  0  0  0  0  0  0
  -45.8579   17.9905   43.7438 C   0  0  0  0  0  0  0  0  0  0  0  0
  -47.3122   18.3891   43.9058 C   0  0  0  0  0  0  0  0  0  0  0  0
  -47.6203   18.6270   45.3716 C   0  0  0  0  0  0  0  0  0  0  0  0
  -49.0751   19.0238   45.5338 C   0  0  0  0  0  0  0  0  0  0  0  0
  -49.3838   19.2596   46.9999 C   0  0  0  0  0  0  0  0  0  0  0  0
  -50.8391   19.6547   47.1623 C   0  0  0  0  0  0  0  0  0  0  0  0
  -51.1483   19.8886   48.6286 C   0  0  0  0  0  0  0  0  0  0  0  0
  -52.6032   20.2855   48.7909 C   0  0  0  0  0  0  0  0  0  0  0  0
  -52.9126   20.5197   50.2573 C   0  0  0  0  0  0  0  0  0  0  0  0
  -54.3671   20.9185   50.4197 C   0  0  0  0  0  0  0  0  0  0  0  0
  -54.6763   21.1545   51.8860 C   0  0  0  0  0  0  0  0  0  0  0  0
  -56.1315   21.5513   52.0498 C   0  0  0  0  0  0  0  0  0  0  0  0
  -56.4408   21.7852   53.5170 C   0  0  0  0  0  0  0  0  0  0  0  0
  -57.8975   22.1785   53.6822 C   0  0  0  0  0  0  0  0  0  0  0  0
  -58.2103   22.4148   55.1489 C   0  0  0  0  0  0  0  0  0  0  0  0
  -59.6673   22.8127   55.3109 C   0  0  0  0  0  0  0  0  0  0  0  0
  -59.9837   23.0513   56.7778 C   0  0  0  0  0  0  0  0  0  0  0  0
  -61.4419   23.4498   56.9456 C   0  0  0  0  0  0  0  0  0  0  0  0
  -61.7573   23.6881   58.4154 C   0  0  0  0  0  0  0  0  0  0  0  0
  -63.2163   24.0862   58.5975 C   0  0  0  0  0  0  0  0  0  0  0  0
  -63.5283   24.3230   60.0633 C   0  0  0  0  0  0  0  0  0  0  0  0
    3.1384   -0.4182    0.5405 H   0  0  0  0  0  0  0  0  0  0  0  0
    1.5648   -1.1465    0.8433 H   0  0  0  0  0  0  0  0  0  0  0  0
    2.1600    0.1540    1.8984 H   0  0  0  0  0  0  0  0  0  0  0  0
    3.1564    2.0226   -0.5119 H   0  0  0  0  0  0  0  0  0  0  0  0
    2.3041    2.4451    0.9879 H   0  0  0  0  0  0  0  0  0  0  0  0
    1.4663    2.9701   -1.8664 H   0  0  0  0  0  0  0  0  0  0  0  0
    1.2201    3.9747   -0.4280 H   0  0  0  0  0  0  0  0  0  0  0  0
   -0.5654    2.0187   -1.6050 H   0  0  0  0  0  0  0  0  0  0  0  0
   -0.8717    3.0042   -0.1741 H   0  0  0  0  0  0  0  0  0  0  0  0
   -0.5505    0.2358   -0.1427 H   0  0  0  0  0  0  0  0  0  0  0  0
    0.2844    2.1457    2.1169 H   0  0  0  0  0  0  0  0  0  0  0  0
   -0.0979    0.4180    2.3148 H   0  0  0  0  0  0  0  0  0  0  0  0
   -3.8891    1.4597    2.8429 H   0  0  0  0  0  0  0  0  0  0  0  0
   -3.4329    3.1747    2.6409 H   0  0  0  0  0  0  0  0  0  0  0  0
   -2.9336    3.3100    5.0891 H   0  0  0  0  0  0  0  0  0  0  0  0
   -3.3758    1.6263    5.2842 H   0  0  0  0  0  0  0  0  0  0  0  0
   -5.6982    2.1336    4.4650 H   0  0  0  0  0  0  0  0  0  0  0  0
   -5.2525    3.8312    4.2691 H   0  0  0  0  0  0  0  0  0  0  0  0
   -4.7063    3.9682    6.7090 H   0  0  0  0  0  0  0  0  0  0  0  0
   -5.1529    2.2707    6.9035 H   0  0  0  0  0  0  0  0  0  0  0  0
   -7.4639    2.7854    6.0929 H   0  0  0  0  0  0  0  0  0  0  0  0
   -7.0175    4.4829    5.8973 H   0  0  0  0  0  0  0  0  0  0  0  0
   -6.4686    4.6205    8.3355 H   0  0  0  0  0  0  0  0  0  0  0  0
   -6.9142    2.9232    8.5321 H   0  0  0  0  0  0  0  0  0  0  0  0
   -9.2259    3.4362    7.7202 H   0  0  0  0  0  0  0  0  0  0  0  0
   -8.7802    5.1338    7.5241 H   0  0  0  0  0  0  0  0  0  0  0  0
   -8.2306    5.2709    9.9623 H   0  0  0  0  0  0  0  0  0  0  0  0
   -8.6765    3.5734   10.1582 H   0  0  0  0  0  0  0  0  0  0  0  0
  -10.9881    4.0876    9.3459 H   0  0  0  0  0  0  0  0  0  0  0  0
  -10.5418    5.7853    9.1520 H   0  0  0  0  0  0  0  0  0  0  0  0
   -9.9905    5.9188   11.5899 H   0  0  0  0  0  0  0  0  0  0  0  0
  -10.4368    4.2210   11.7838 H   0  0  0  0  0  0  0  0  0  0  0  0
  -12.7484    4.7363   10.9743 H   0  0  0  0  0  0  0  0  0  0  0  0
  -12.3021    6.4340   10.7806 H   0  0  0  0  0  0  0  0  0  0  0  0
  -11.7489    6.5667   13.2184 H   0  0  0  0  0  0  0  0  0  0  0  0
  -12.1956    4.8691   13.4121 H   0  0  0  0  0  0  0  0  0  0  0  0
  -14.5068    5.3849   12.6012 H   0  0  0  0  0  0  0  0  0  0  0  0
  -14.0598    7.0826   12.4079 H   0  0  0  0  0  0  0  0  0  0  0  0
  -13.5106    7.2159   14.8457 H   0  0  0  0  0  0  0  0  0  0  0  0
  -13.9572    5.5182   15.0395 H   0  0  0  0  0  0  0  0  0  0  0  0
  -16.2678    6.0332   14.2263 H   0  0  0  0  0  0  0  0  0  0  0  0
  -15.8214    7.7307   14.0324 H   0  0  0  0  0  0  0  0  0  0  0  0
  -15.2703    7.8648   16.4703 H   0  0  0  0  0  0  0  0  0  0  0  0
  -15.7169    6.1673   16.6646 H   0  0  0  0  0  0  0  0  0  0  0  0
  -18.0280    6.6820   15.8535 H   0  0  0  0  0  0  0  0  0  0  0  0
  -17.5817    8.3799   15.6599 H   0  0  0  0  0  0  0  0  0  0  0  0
  -17.0289    8.5120   18.0976 H   0  0  0  0  0  0  0  0  0  0  0  0
  -17.4756    6.8144   18.2910 H   0  0  0  0  0  0  0  0  0  0  0  0
  -19.7866    7.3309   17.4797 H   0  0  0  0  0  0  0  0  0  0  0  0
  -19.3400    9.0286   17.2883 H   0  0  0  0  0  0  0  0  0  0  0  0
  -18.7894    9.1581   19.7275 H   0  0  0  0  0  0  0  0  0  0  0  0
  -19.2360    7.4600   19.9179 H   0  0  0  0  0  0  0  0  0  0  0  0
  -21.5464    7.9774   19.1047 H   0  0  0  0  0  0  0  0  0  0  0  0
  -21.0994    9.6754   18.9159 H   0  0  0  0  0  0  0  0  0  0  0  0
  -20.5498    9.8019   21.3546 H   0  0  0  0  0  0  0  0  0  0  0  0
  -20.9969    8.1038   21.5431 H   0  0  0  0  0  0  0  0  0  0  0  0
  -23.3071    8.6225   20.7303 H   0  0  0  0  0  0  0  0  0  0  0  0
  -22.8597   10.3209   20.5437 H   0  0  0  0  0  0  0  0  0  0  0  0
  -22.3107   10.4437   22.9828 H   0  0  0  0  0  0  0  0  0  0  0  0
  -22.7580    8.7454   23.1690 H   0  0  0  0  0  0  0  0  0  0  0  0
  -25.0679    9.2653   22.3562 H   0  0  0  0  0  0  0  0  0  0  0  0
  -24.6204   10.9638   22.1721 H   0  0  0  0  0  0  0  0  0  0  0  0
  -24.0729   11.0846   24.6109 H   0  0  0  0  0  0  0  0  0  0  0  0
  -24.5185    9.3856   24.7956 H   0  0  0  0  0  0  0  0  0  0  0  0
  -26.8288    9.9025   23.9852 H   0  0  0  0  0  0  0  0  0  0  0  0
  -26.3838   11.6014   23.7985 H   0  0  0  0  0  0  0  0  0  0  0  0
  -25.8345   11.7254   26.2373 H   0  0  0  0  0  0  0  0  0  0  0  0
  -26.2794   10.0268   26.4240 H   0  0  0  0  0  0  0  0  0  0  0  0
  -28.5890   10.5400   25.6121 H   0  0  0  0  0  0  0  0  0  0  0  0
  -28.1455   12.2411   25.4259 H   0  0  0  0  0  0  0  0  0  0  0  0
  -27.5958   12.3661   27.8641 H   0  0  0  0  0  0  0  0  0  0  0  0
  -28.0409   10.6674   28.0513 H   0  0  0  0  0  0  0  0  0  0  0  0
  -30.3516   11.1829   27.2412 H   0  0  0  0  0  0  0  0  0  0  0  0
  -29.9069   12.8822   27.0532 H   0  0  0  0  0  0  0  0  0  0  0  0
  -29.3573   13.0067   29.4919 H   0  0  0  0  0  0  0  0  0  0  0  0
  -29.8018   11.3074   29.6790 H   0  0  0  0  0  0  0  0  0  0  0  0
  -32.1135   11.8241   28.8671 H   0  0  0  0  0  0  0  0  0  0  0  0
  -31.6671   13.5219   28.6812 H   0  0  0  0  0  0  0  0  0  0  0  0
  -31.1158   13.6432   31.1197 H   0  0  0  0  0  0  0  0  0  0  0  0
  -31.5651   11.9475   31.3064 H   0  0  0  0  0  0  0  0  0  0  0  0
  -33.8756   12.4677   30.4929 H   0  0  0  0  0  0  0  0  0  0  0  0
  -33.4271   14.1663   30.3086 H   0  0  0  0  0  0  0  0  0  0  0  0
  -32.8783   14.2851   32.7483 H   0  0  0  0  0  0  0  0  0  0  0  0
  -33.3283   12.5873   32.9318 H   0  0  0  0  0  0  0  0  0  0  0  0
  -35.6370   13.1108   32.1208 H   0  0  0  0  0  0  0  0  0  0  0  0
  -35.1874   14.8085   31.9353 H   0  0  0  0  0  0  0  0  0  0  0  0
  -34.6394   14.9308   34.3737 H   0  0  0  0  0  0  0  0  0  0  0  0
  -35.0870   13.2326   34.5602 H   0  0  0  0  0  0  0  0  0  0  0  0
  -37.3969   13.7524   33.7485 H   0  0  0  0  0  0  0  0  0  0  0  0
  -36.9493   15.4506   33.5622 H   0  0  0  0  0  0  0  0  0  0  0  0
  -36.4002   15.5735   36.0010 H   0  0  0  0  0  0  0  0  0  0  0  0
  -36.8477   13.8753   36.1874 H   0  0  0  0  0  0  0  0  0  0  0  0
  -39.1576   14.3949   35.3757 H   0  0  0  0  0  0  0  0  0  0  0  0
  -38.7101   16.0931   35.1893 H   0  0  0  0  0  0  0  0  0  0  0  0
  -38.1602   16.2152   37.6285 H   0  0  0  0  0  0  0  0  0  0  0  0
  -38.6097   14.5174   37.8142 H   0  0  0  0  0  0  0  0  0  0  0  0
  -40.9188   15.0400   37.0022 H   0  0  0  0  0  0  0  0  0  0  0  0
  -40.4693   16.7378   36.8165 H   0  0  0  0  0  0  0  0  0  0  0  0
  -39.9214   16.8604   39.2550 H   0  0  0  0  0  0  0  0  0  0  0  0
  -40.3689   15.1622   39.4414 H   0  0  0  0  0  0  0  0  0  0  0  0
  -42.6787   15.6816   38.6298 H   0  0  0  0  0  0  0  0  0  0  0  0
  -42.2314   17.3799   38.4433 H   0  0  0  0  0  0  0  0  0  0  0  0
  -41.6832   17.5039   40.8819 H   0  0  0  0  0  0  0  0  0  0  0  0
  -42.1285   15.8051   41.0688 H   0  0  0  0  0  0  0  0  0  0  0  0
  -44.4391   16.3213   40.2573 H   0  0  0  0  0  0  0  0  0  0  0  0
  -43.9941   18.0202   40.0706 H   0  0  0  0  0  0  0  0  0  0  0  0
  -43.4456   18.1452   42.5090 H   0  0  0  0  0  0  0  0  0  0  0  0
  -43.8886   16.4459   42.6962 H   0  0  0  0  0  0  0  0  0  0  0  0
  -46.2002   16.9595   41.8842 H   0  0  0  0  0  0  0  0  0  0  0  0
  -45.7569   18.6590   41.6989 H   0  0  0  0  0  0  0  0  0  0  0  0
  -45.2072   18.7806   44.1384 H   0  0  0  0  0  0  0  0  0  0  0  0
  -45.6523   17.0815   44.3227 H   0  0  0  0  0  0  0  0  0  0  0  0
  -47.9628   17.5994   43.5101 H   0  0  0  0  0  0  0  0  0  0  0  0
  -47.5174   19.2987   43.3279 H   0  0  0  0  0  0  0  0  0  0  0  0
  -46.9705   19.4174   45.7671 H   0  0  0  0  0  0  0  0  0  0  0  0
  -47.4139   17.7177   45.9496 H   0  0  0  0  0  0  0  0  0  0  0  0
  -49.7247   18.2339   45.1372 H   0  0  0  0  0  0  0  0  0  0  0  0
  -49.2812   19.9338   44.9569 H   0  0  0  0  0  0  0  0  0  0  0  0
  -48.7349   20.0504   47.3963 H   0  0  0  0  0  0  0  0  0  0  0  0
  -49.1764   18.3499   47.5769 H   0  0  0  0  0  0  0  0  0  0  0  0
  -51.4878   18.8645   46.7647 H   0  0  0  0  0  0  0  0  0  0  0  0
  -51.0460   20.5650   46.5863 H   0  0  0  0  0  0  0  0  0  0  0  0
  -50.4986   20.6779   49.0266 H   0  0  0  0  0  0  0  0  0  0  0  0
  -50.9425   18.9778   49.2043 H   0  0  0  0  0  0  0  0  0  0  0  0
  -53.2529   19.4962   48.3929 H   0  0  0  0  0  0  0  0  0  0  0  0
  -52.8088   21.1963   48.2151 H   0  0  0  0  0  0  0  0  0  0  0  0
  -52.2618   21.3080   50.6554 H   0  0  0  0  0  0  0  0  0  0  0  0
  -52.7079   19.6084   50.8327 H   0  0  0  0  0  0  0  0  0  0  0  0
  -55.0175   20.1294   50.0224 H   0  0  0  0  0  0  0  0  0  0  0  0
  -54.5718   21.8289   49.8431 H   0  0  0  0  0  0  0  0  0  0  0  0
  -54.0263   21.9441   52.2827 H   0  0  0  0  0  0  0  0  0  0  0  0
  -54.4699   20.2442   52.4625 H   0  0  0  0  0  0  0  0  0  0  0  0
  -56.7809   20.7622   51.6514 H   0  0  0  0  0  0  0  0  0  0  0  0
  -56.3372   22.4623   51.4738 H   0  0  0  0  0  0  0  0  0  0  0  0
  -55.7922   22.5756   53.9138 H   0  0  0  0  0  0  0  0  0  0  0  0
  -56.2323   20.8746   54.0923 H   0  0  0  0  0  0  0  0  0  0  0  0
  -58.5450   21.3879   53.2840 H   0  0  0  0  0  0  0  0  0  0  0  0
  -58.1046   23.0886   53.1060 H   0  0  0  0  0  0  0  0  0  0  0  0
  -57.5610   23.2045   55.5458 H   0  0  0  0  0  0  0  0  0  0  0  0
  -58.0041   21.5045   55.7258 H   0  0  0  0  0  0  0  0  0  0  0  0
  -60.3151   22.0225   54.9118 H   0  0  0  0  0  0  0  0  0  0  0  0
  -59.8706   23.7221   54.7319 H   0  0  0  0  0  0  0  0  0  0  0  0
  -59.3329   23.8405   57.1737 H   0  0  0  0  0  0  0  0  0  0  0  0
  -59.7763   22.1413   57.3541 H   0  0  0  0  0  0  0  0  0  0  0  0
  -62.0898   22.6594   56.5472 H   0  0  0  0  0  0  0  0  0  0  0  0
  -61.6460   24.3594   56.3670 H   0  0  0  0  0  0  0  0  0  0  0  0
  -61.1040   24.4768   58.8086 H   0  0  0  0  0  0  0  0  0  0  0  0
  -61.5454   22.7775   58.9892 H   0  0  0  0  0  0  0  0  0  0  0  0
  -63.8695   23.2973   58.2067 H   0  0  0  0  0  0  0  0  0  0  0  0
  -63.4282   24.9974   58.0260 H   0  0  0  0  0  0  0  0  0  0  0  0
  -63.3468   23.4169   60.6503 H   0  0  0  0  0  0  0  0  0  0  0  0
  -64.5767   24.6081   60.1863 H   0  0  0  0  0  0  0  0  0  0  0  0
  -62.9035   25.1252   60.4688 H   0  0  0  0  0  0  0  0  0  0  0  0
  1  2  1  0  0  0  0
  1 80  1  0  0  0  0
  1 81  1  0  0  0  0
  1 82  1  0  0  0  0
  2  3  1  0  0  0  0
  2  6  1  0  0  0  0
  3  4  1  0  0  0  0
  3 83  1  0  0  0  0
  3 84  1  0  0  0  0
  4  5  1  0  0  0  0
  4 85  1  0  0  0  0
  4 86  1  0  0  0  0
  5  6  1  0  0  0  0
  5 87  1  0  0  0  0
  5 88  1  0  0  0  0
  6  7  1  0  0  0  0
  6 89  1  0  0  0  0
  7  8  1  0  0  0  0
  7 90  1  0  0  0  0
  7 91  1  0  0  0  0
  8  9  1  0  0  0  0
  9 10  1  0  0  0  0
 10 11  1  0  0  0  0
 10 92  1  0  0  0  0
 10 93  1  0  0  0  0
 11 12  1  0  0  0  0
 11 94  1  0  0  0  0
 11 95  1  0  0  0  0
 12 13  1  0  0  0  0
 12 96  1  0  0  0  0
 12 97  1  0  0  0  0
 13 14  1  0  0  0  0
 13 98  1  0  0  0  0
 13 99  1  0  0  0  0
 14 15  1  0  0  0  0
 14100  1  0  0  0  0
 14101  1  0  0  0  0
 15 16  1  0  0  0  0
 15102  1  0  0  0  0
 15103  1  0  0  0  0
 16 17  1  0  0  0  0
 16104  1  0  0  0  0
 16105  1  0  0  0  0
 17 18  1  0  0  0  0
 17106  1  0  0  0  0
 17107  1  0  0  0  0
 18 19  1  0  0  0  0
 18108  1  0  0  0  0
 18109  1  0  0  0  0
 19 20  1  0  0  0  0
 19110  1  0  0  0  0
 19111  1  0  0  0  0
 20 21  1  0  0  0  0
 20112  1  0  0  0  0
 20113  1  0  0  0  0
 21 22  1  0  0  0  0
 21114  1  0  0  0  0
 21115  1  0  0  0  0
 22 23  1  0  0  0  0
 22116  1  0  0  0  0
 22117  1  0  0  0  0
 23 24  1  0  0  0  0
 23118  1  0  0  0  0
 23119  1  0  0  0  0
 24 25  1  0  0  0  0
 24120  1  0  0  0  0
 24121  1  0  0  0  0
 25 26  1  0  0  0  0
 25122  1  0  0  0  0
 25123  1  0  0  0  0
 26 27  1  0  0  0  0
 26124  1  0  0  0  0
 26125  1  0  0  0  0
 27 28  1  0  0  0  0
 27126  1  0  0  0  0
 27127  1  0  0  0  0
 28 29  1  0  0  0  0
 28128  1  0  0  0  0
 28129  1  0  0  0  0
 29 30  1  0  0  0  0
 29130  1  0  0  0  0
 29131  1  0  0  0  0
 30 31  1  0  0  0  0
 30132  1  0  0  0  0
 30133  1  0  0  0  0
 31 32  1  0  0  0  0
 31134  1  0  0  0  0
 31135  1  0  0  0  0
 32 33  1  0  0  0  0
 32136  1  0  0  0  0
 32137  1  0  0  0  0
 33 34  1  0  0  0  0
 33138  1  0  0  0  0
 33139  1  0  0  0  0
 34 35  1  0  0  0  0
 34140  1  0  0  0  0
 34141  1  0  0  0  0
 35 36  1  0  0  0  0
 35142  1  0  0  0  0
 35143  1  0  0  0  0
 36 37  1  0  0  0  0
 36144  1  0  0  0  0
 36145  1  0  0  0  0
 37 38  1  0  0  0  0
 37146  1  0  0  0  0
 37147  1  0  0  0  0
 38 39  1  0  0  0  0
 38148  1  0  0  0  0
 38149  1  0  0  0  0
 39 40  1  0  0  0  0
 39150  1  0  0  0  0
 39151  1  0  0  0  0
 40 41  1  0  0  0  0
 40152  1  0  0  0  0
 40153  1  0  0  0  0
 41 42  1  0  0  0  0
 41154  1  0  0  0  0
 41155  1  0  0  0  0
 42 43  1  0  0  0  0
 42156  1  0  0  0  0
 42157  1  0  0  0  0
 43 44  1  0  0  0  0
 43158  1  0  0  0  0
 43159  1  0  0  0  0
 44 45  1  0  0  0  0
 44160  1  0  0  0  0
 44161  1  0  0  0  0
 45 46  1  0  0  0  0
 45162  1  0  0  0  0
 45163  1  0  0  0  0
 46 47  1  0  0  0  0
 46164  1  0  0  0  0
 46165  1  0  0  0  0
 47 48  1  0  0  0  0
 47166  1  0  0  0  0
 47167  1  0  0  0  0
 48 49  1  0  0  0  0
 48168  1  0  0  0  0
 48169  1  0  0  0  0
 49 50  1  0  0  0  0
 49170  1  0  0  0  0
 49171  1  0  0  0  0
 50 51  1  0  0  0  0
 50172  1  0  0  0  0
 50173  1  0  0  0  0
 51 52  1  0  0  0  0
 51174  1  0  0  0  0
 51175  1  0  0  0  0
 52 53  1  0  0  0  0
 52176  1  0  0  0  0
 52177  1  0  0  0  0
 53 54  1  0  0  0  0
 53178  1  0  0  0  0
 53179  1  0  0  0  0
 54 55  1  0  0  0  0
 54180  1  0  0  0  0
 54181  1  0  0  0  0
 55 56  1  0  0  0  0
 55182  1  0  0  0  0
 55183  1  0  0  0  0
 56 57  1  0  0  0  0
 56184  1  0  0  0  0
 56185  1  0  0  0  0
 57 58  1  0  0  0  0
 57186  1  0  0  0  0
 57187  1  0  0  0  0
 58 59  1  0  0  0  0
 58188  1  0  0  0  0
 58189  1  0  0  0  0
 59 60  1  0  0  0  0
 59190  1  0  0  0  0
 59191  1  0  0  0  0
 60 61  1  0  0  0  0
 60192  1  0  0  0  0
 60193  1  0  0  0  0
 61 62  1  0  0  0  0
 61194  1  0  0  0  0
 61195  1  0  0  0  0
 62 63  1  0  0  0  0
 62196  1  0  0  0  0
 62197  1  0  0  0  0
 63 64  1  0  0  0  0
 63198  1  0  0  0  0
 63199  1  0  0  0  0
 64 65  1  0  0  0  0
 64200  1  0  0  0  0
 64201  1  0  0  0  0
 65 66  1  0  0  0  0
 65202  1  0  0  0  0
 65203  1  0  0  0  0
 66 67  1  0  0  0  0
 66204  1  0  0  0  0
 66205  1  0  0  0  0
 67 68  1  0  0  0  0
 67206  1  0  0  0  0
 67207  1  0  0  0  0
 68 69  1  0  0  0  0
 68208  1  0  0  0  0
 68209  1  0  0  0  0
 69 70  1  0  0  0  0
 69210  1  0  0  0  0
 69211  1  0  0  0  0
 70 71  1  0  0  0  0
 70212  1  0  0  0  0
 70213  1  0  0  0  0
 71 72  1  0  0  0  0
 71214  1  0  0  0  0
 71215  1  0  0  0  0
 72 73  1  0  0  0  0
 72216  1  0  0  0  0
 72217  1  0  0  0  0
 73 74  1  0  0  0  0
 73218  1  0  0  0  0
 73219  1  0  0  0  0
 74 75  1  0  0  0  0
 74220  1  0  0  0  0
 74221  1  0  0  0  0
 75 76  1  0  0  0  0
 75222  1  0  0  0  0
 75223  1  0  0  0  0
 76 77  1  0  0  0  0
 76224  1  0  0  0  0
 76225  1  0  0  0  0
 77 78  1  0  0  0  0
 77226  1  0  0  0  0
 77227  1  0  0  0  0
 78 79  1  0  0  0  0
 78228  1  0  0  0  0
 78229  1  0  0  0  0
 79230  1  0  0  0  0
 79231  1  0  0  0  0
 79232  1  0  0  0  0
M  END
$$$$
