
 OpenBabel04232216503D

 56 58  0  0  0  0  0  0  0  0999 V2000
    7.7605    0.6139   -5.0655 C   0  0  0  0  0  0  0  0  0  0  0  0
    8.4448    1.8723   -4.4696 C   0  0  0  0  0  0  0  0  0  0  0  0
    7.5255    2.4811   -3.6728 C   0  0  0  0  0  0  0  0  0  0  0  0
    6.5453    1.7908   -2.8997 O   0  0  0  0  0  0  0  0  0  0  0  0
    6.0789    2.4537   -1.7454 C   0  0  0  0  0  0  0  0  0  0  0  0
    5.1655    3.6182   -2.0259 C   0  0  0  0  0  0  0  0  0  0  0  0
    6.8281    2.3608   -0.6154 C   0  0  0  0  0  0  0  0  0  0  0  0
    7.3809    0.9640   -0.2586 C   0  0  0  0  0  0  0  0  0  0  0  0
    8.1777    0.8639    1.0483 C   0  0  0  0  0  0  0  0  0  0  0  0
    8.8351   -0.5002    1.1549 C   0  0  0  0  0  0  0  0  0  0  0  0
    9.7822   -0.7433    0.1820 N   0  0  0  0  0  0  0  0  0  0  0  0
   11.0140   -0.9212    0.5317 C   0  0  0  0  0  0  0  0  0  0  0  0
   11.6220   -0.9261    1.8860 C   0  0  0  0  0  0  0  0  0  0  0  0
   11.2989   -1.8309    2.8208 C   0  0  0  0  0  0  0  0  0  0  0  0
   10.3291   -2.8852    2.6511 C   0  0  0  0  0  0  0  0  0  0  0  0
    9.0311   -2.6865    2.3165 C   0  0  0  0  0  0  0  0  0  0  0  0
    8.4490   -1.3779    2.0906 C   0  0  0  0  0  0  0  0  0  0  0  0
    7.5457    3.4551   -0.3184 N   0  0  0  0  0  0  0  0  0  0  0  0
    8.7274    3.3464   -0.8384 C   0  0  0  0  0  0  0  0  0  0  0  0
    9.3216    4.4548   -1.5901 C   0  0  0  0  0  0  0  0  0  0  0  0
   10.5719    4.6620   -1.3796 N   0  0  0  0  0  0  0  0  0  0  0  0
   11.1456    4.8721   -2.6928 C   0  0  0  0  0  0  0  0  0  0  0  0
   11.3854    3.4783   -3.3503 C   0  0  0  0  0  0  0  0  0  0  0  0
   10.7237    3.4196   -4.7132 C   0  0  0  0  0  0  0  0  0  0  0  0
   11.4724    4.3130   -5.5406 C   0  0  0  0  0  0  0  0  0  0  0  0
   11.2757    4.4101   -6.8841 C   0  0  0  0  0  0  0  0  0  0  0  0
   10.3824    3.5164   -7.4323 C   0  0  0  0  0  0  0  0  0  0  0  0
    9.5646    2.6719   -6.6326 C   0  0  0  0  0  0  0  0  0  0  0  0
    9.5941    2.6655   -5.2217 C   0  0  0  0  0  0  0  0  0  0  0  0
    8.3152   -0.3056   -4.8896 H   0  0  0  0  0  0  0  0  0  0  0  0
    7.4972    0.7310   -6.1222 H   0  0  0  0  0  0  0  0  0  0  0  0
    6.7672    0.4149   -4.6154 H   0  0  0  0  0  0  0  0  0  0  0  0
    6.9870    3.3187   -4.1229 H   0  0  0  0  0  0  0  0  0  0  0  0
    4.1471    3.3532   -1.7166 H   0  0  0  0  0  0  0  0  0  0  0  0
    5.1182    3.8447   -3.0934 H   0  0  0  0  0  0  0  0  0  0  0  0
    5.4521    4.5325   -1.4992 H   0  0  0  0  0  0  0  0  0  0  0  0
    7.9933    0.6061   -1.0959 H   0  0  0  0  0  0  0  0  0  0  0  0
    6.5285    0.2786   -0.1808 H   0  0  0  0  0  0  0  0  0  0  0  0
    7.5226    1.0525    1.9043 H   0  0  0  0  0  0  0  0  0  0  0  0
    8.9750    1.6145    1.1142 H   0  0  0  0  0  0  0  0  0  0  0  0
   11.7530   -1.0570   -0.2810 H   0  0  0  0  0  0  0  0  0  0  0  0
   12.3614   -0.1585    2.0662 H   0  0  0  0  0  0  0  0  0  0  0  0
   11.7924   -1.7956    3.7908 H   0  0  0  0  0  0  0  0  0  0  0  0
   10.6463   -3.8966    2.8757 H   0  0  0  0  0  0  0  0  0  0  0  0
    8.3583   -3.5273    2.2560 H   0  0  0  0  0  0  0  0  0  0  0  0
    7.6258   -1.1215    2.7631 H   0  0  0  0  0  0  0  0  0  0  0  0
    9.2553    2.4014   -1.0743 H   0  0  0  0  0  0  0  0  0  0  0  0
    8.7440    4.7368   -2.4943 H   0  0  0  0  0  0  0  0  0  0  0  0
   12.0934    5.4128   -2.5884 H   0  0  0  0  0  0  0  0  0  0  0  0
   10.5312    5.5349   -3.3258 H   0  0  0  0  0  0  0  0  0  0  0  0
   11.3956    2.4978   -2.8604 H   0  0  0  0  0  0  0  0  0  0  0  0
   12.4772    3.5569   -3.4883 H   0  0  0  0  0  0  0  0  0  0  0  0
   12.2745    4.9182   -5.1108 H   0  0  0  0  0  0  0  0  0  0  0  0
   11.8754    5.1121   -7.4535 H   0  0  0  0  0  0  0  0  0  0  0  0
   10.3194    3.4824   -8.5160 H   0  0  0  0  0  0  0  0  0  0  0  0
    8.9295    1.9804   -7.1740 H   0  0  0  0  0  0  0  0  0  0  0  0
  1  2  1  0  0  0  0
  1 30  1  0  0  0  0
  1 31  1  0  0  0  0
  1 32  1  0  0  0  0
  2  3  2  3  0  0  0
  2 29  1  0  0  0  0
  3  4  1  0  0  0  0
  3 33  1  0  0  0  0
  4  5  1  0  0  0  0
  5  6  1  0  0  0  0
  5  7  2  3  0  0  0
  6 34  1  0  0  0  0
  6 35  1  0  0  0  0
  6 36  1  0  0  0  0
  7  8  1  0  0  0  0
  7 18  1  0  0  0  0
  8  9  1  0  0  0  0
  8 37  1  0  0  0  0
  8 38  1  0  0  0  0
  9 10  1  0  0  0  0
  9 39  1  0  0  0  0
  9 40  1  0  0  0  0
 10 11  1  0  0  0  0
 10 17  2  0  0  0  0
 11 12  2  0  0  0  0
 12 13  1  0  0  0  0
 12 41  1  0  0  0  0
 13 14  2  0  0  0  0
 13 42  1  0  0  0  0
 14 15  1  0  0  0  0
 14 43  1  0  0  0  0
 15 16  2  0  0  0  0
 15 44  1  0  0  0  0
 16 17  1  0  0  0  0
 16 45  1  0  0  0  0
 17 46  1  0  0  0  0
 18 19  2  3  0  0  0
 19 20  1  0  0  0  0
 19 47  1  0  0  0  0
 20 21  2  3  0  0  0
 20 48  1  0  0  0  0
 21 22  1  0  0  0  0
 22 23  1  0  0  0  0
 22 49  1  0  0  0  0
 22 50  1  0  0  0  0
 23 24  1  0  0  0  0
 23 51  1  0  0  0  0
 23 52  1  0  0  0  0
 24 25  1  0  0  0  0
 24 29  2  0  0  0  0
 25 26  2  0  0  0  0
 25 53  1  0  0  0  0
 26 27  1  0  0  0  0
 26 54  1  0  0  0  0
 27 28  2  0  0  0  0
 27 55  1  0  0  0  0
 28 29  1  0  0  0  0
 28 56  1  0  0  0  0
M  END
$$$$
