
 OpenBabel04232216463D

 47 48  0  0  1  0  0  0  0  0999 V2000
   11.3337  -10.3833    5.5262 C   0  0  0  0  0  0  0  0  0  0  0  0
   11.8864   -8.9818    5.6745 C   0  0  0  0  0  0  0  0  0  0  0  0
   12.7345   -8.3468    4.4412 C   0  0  0  0  0  0  0  0  0  0  0  0
   13.2733   -7.0567    4.5497 C   0  0  0  0  0  0  0  0  0  0  0  0
   14.0645   -6.4838    3.3852 C   0  0  0  0  0  0  0  0  0  0  0  0
   13.9178   -4.9854    3.3581 C   0  0  0  0  0  0  0  0  0  0  0  0
   14.7102   -4.4129    2.1916 C   0  0  0  0  0  0  0  0  0  0  0  0
   14.5341   -2.9143    2.2035 C   0  0  0  0  0  0  0  0  0  0  0  0
   15.2658   -2.1983    1.1030 C   0  0  0  0  0  0  0  0  0  0  0  0
   15.0268   -0.6420    1.1910 C   0  0  3  0  0  0  0  0  0  0  0  0
   15.4513    0.1825    2.4659 C   0  0  0  0  0  0  0  0  0  0  0  0
   16.0679   -0.2382    3.4432 O   0  0  0  0  0  0  0  0  0  0  0  0
   14.9020    1.5661    2.5720 C   0  0  0  0  0  0  0  0  0  0  0  0
   14.7989    2.4290    1.5569 C   0  0  0  0  0  0  0  0  0  0  0  0
   15.5395    2.4280    0.3270 C   0  0  0  0  0  0  0  0  0  0  0  0
   15.9904    1.3748   -0.3630 C   0  0  0  0  0  0  0  0  0  0  0  0
   16.9383    1.6234   -1.4554 C   0  0  0  0  0  0  0  0  0  0  0  0
   17.4853    0.6836   -2.2430 C   0  0  0  0  0  0  0  0  0  0  0  0
   18.5056    0.9677   -3.2873 C   0  0  0  0  0  0  0  0  0  0  0  0
   15.6190   -0.0564   -0.1025 C   0  0  0  0  0  0  0  0  0  0  0  0
   11.7738   -8.1424    6.7565 C   0  0  0  0  0  0  0  0  0  0  0  0
   11.5898  -10.8104    4.5550 H   0  0  0  0  0  0  0  0  0  0  0  0
   10.2536  -10.3363    5.6766 H   0  0  0  0  0  0  0  0  0  0  0  0
   11.7204  -10.9859    6.3494 H   0  0  0  0  0  0  0  0  0  0  0  0
   12.8764   -8.9635    3.5381 H   0  0  0  0  0  0  0  0  0  0  0  0
   13.7266   -6.9440    2.4488 H   0  0  0  0  0  0  0  0  0  0  0  0
   15.1217   -6.7537    3.5027 H   0  0  0  0  0  0  0  0  0  0  0  0
   14.2657   -4.5504    4.3040 H   0  0  0  0  0  0  0  0  0  0  0  0
   12.8566   -4.7161    3.2608 H   0  0  0  0  0  0  0  0  0  0  0  0
   14.3424   -4.8316    1.2474 H   0  0  0  0  0  0  0  0  0  0  0  0
   15.7677   -4.6788    2.2870 H   0  0  0  0  0  0  0  0  0  0  0  0
   14.8819   -2.5152    3.1614 H   0  0  0  0  0  0  0  0  0  0  0  0
   13.4681   -2.7162    2.0789 H   0  0  0  0  0  0  0  0  0  0  0  0
   14.9596   -2.6124    0.1282 H   0  0  0  0  0  0  0  0  0  0  0  0
   16.3379   -2.4561    1.1508 H   0  0  0  0  0  0  0  0  0  0  0  0
   13.9327   -0.5673    1.1413 H   0  0  0  0  0  0  0  0  0  0  0  0
   14.5684    1.8775    3.5598 H   0  0  0  0  0  0  0  0  0  0  0  0
   14.2761    3.3620    1.7320 H   0  0  0  0  0  0  0  0  0  0  0  0
   15.7863    3.4303   -0.0344 H   0  0  0  0  0  0  0  0  0  0  0  0
   17.2631    2.6554   -1.5967 H   0  0  0  0  0  0  0  0  0  0  0  0
   17.2226   -0.3653   -2.1495 H   0  0  0  0  0  0  0  0  0  0  0  0
   18.7461    2.0324   -3.3380 H   0  0  0  0  0  0  0  0  0  0  0  0
   18.1283    0.6432   -4.2605 H   0  0  0  0  0  0  0  0  0  0  0  0
   19.4230    0.4143   -3.0638 H   0  0  0  0  0  0  0  0  0  0  0  0
   16.5208   -0.6463   -0.2738 H   0  0  0  0  0  0  0  0  0  0  0  0
   14.9009   -0.2870   -0.9029 H   0  0  0  0  0  0  0  0  0  0  0  0
   11.6734   -7.5164    7.5993 H   0  0  0  0  0  0  0  0  0  0  0  0
  1  2  1  0  0  0  0
  1 22  1  0  0  0  0
  1 23  1  0  0  0  0
  1 24  1  0  0  0  0
  2  3  1  0  0  0  0
  2 21  2  0  0  0  0
  3  4  2  0  0  0  0
  3 25  1  0  0  0  0
  4  5  1  0  0  0  0
  4 21  1  0  0  0  0
  5  6  1  0  0  0  0
  5 26  1  0  0  0  0
  5 27  1  0  0  0  0
  6  7  1  0  0  0  0
  6 28  1  0  0  0  0
  6 29  1  0  0  0  0
  7  8  1  0  0  0  0
  7 30  1  0  0  0  0
  7 31  1  0  0  0  0
  8  9  1  0  0  0  0
  8 32  1  0  0  0  0
  8 33  1  0  0  0  0
  9 10  1  0  0  0  0
  9 34  1  0  0  0  0
  9 35  1  0  0  0  0
 10 11  1  0  0  0  0
 10 20  1  0  0  0  0
 10 36  1  0  0  0  0
 11 12  2  0  0  0  0
 11 13  1  0  0  0  0
 13 14  2  0  0  0  0
 13 37  1  0  0  0  0
 14 15  1  0  0  0  0
 14 38  1  0  0  0  0
 15 16  2  0  0  0  0
 15 39  1  0  0  0  0
 16 17  1  0  0  0  0
 16 20  1  0  0  0  0
 17 18  2  3  0  0  0
 17 40  1  0  0  0  0
 18 19  1  0  0  0  0
 18 41  1  0  0  0  0
 19 42  1  0  0  0  0
 19 43  1  0  0  0  0
 19 44  1  0  0  0  0
 20 45  1  0  0  0  0
 20 46  1  0  0  0  0
 21 47  1  0  0  0  0
M  END
$$$$
