
 OpenBabel04232216553D

 56 59  0  0  0  0  0  0  0  0999 V2000
    4.1498    2.0238    1.0055 C   0  0  0  0  0  0  0  0  0  0  0  0
    4.7551    3.3806    0.9031 N   0  0  0  0  0  0  0  0  0  0  0  0
    6.3119    3.5551    1.0689 C   0  0  0  0  0  0  0  0  0  0  0  0
    7.1826    4.5030    0.4783 C   0  0  0  0  0  0  0  0  0  0  0  0
    8.7788    4.6840    0.5917 N   0  0  0  0  0  0  0  0  0  0  0  0
    9.4040    5.5728    1.7561 C   0  0  0  0  0  0  0  0  0  0  0  0
   11.0621    5.7267    1.9475 C   0  0  0  0  0  0  0  0  0  0  0  0
   12.2065    6.3805    1.0416 C   0  0  0  0  0  0  0  0  0  0  0  0
   12.9821    5.5478   -0.0061 C   0  0  0  0  0  0  0  0  0  0  0  0
   12.1470    5.1100   -1.1949 C   0  0  0  0  0  0  0  0  0  0  0  0
   10.9081    4.3207   -0.7197 C   0  0  0  0  0  0  0  0  0  0  0  0
    9.5730    5.0928   -0.5784 C   0  0  0  0  0  0  0  0  0  0  0  0
    9.5626    6.3875   -1.0090 C   0  0  0  0  0  0  0  0  0  0  0  0
    8.4324    7.0084   -1.6176 C   0  0  0  0  0  0  0  0  0  0  0  0
    7.7547    8.0172   -1.0562 C   0  0  0  0  0  0  0  0  0  0  0  0
    6.3182    7.6944   -1.1989 C   0  0  0  0  0  0  0  0  0  0  0  0
    5.7307    7.3327   -0.0978 N   0  0  0  0  0  0  0  0  0  0  0  0
    6.5331    5.2430   -0.5039 N   0  0  0  0  0  0  0  0  0  0  0  0
    5.5598    5.9749   -0.0896 C   0  0  0  0  0  0  0  0  0  0  0  0
    4.1630    5.6186    0.0927 C   0  0  0  0  0  0  0  0  0  0  0  0
    3.7835    4.4089    0.5328 C   0  0  0  0  0  0  0  0  0  0  0  0
    2.1994    4.1702    0.4118 C   0  0  0  0  0  0  0  0  0  0  0  0
    1.2196    4.5061    1.5543 C   0  0  0  0  0  0  0  0  0  0  0  0
    1.6057    5.1619    2.7121 C   0  0  0  0  0  0  0  0  0  0  0  0
    0.6630    5.5599    3.6849 C   0  0  0  0  0  0  0  0  0  0  0  0
   -0.6969    5.3278    3.5193 C   0  0  0  0  0  0  0  0  0  0  0  0
   -1.1286    4.6600    2.3679 C   0  0  0  0  0  0  0  0  0  0  0  0
   -0.1940    4.2438    1.4123 C   0  0  0  0  0  0  0  0  0  0  0  0
    4.8654    1.2238    1.1953 H   0  0  0  0  0  0  0  0  0  0  0  0
    3.6421    1.7698    0.0592 H   0  0  0  0  0  0  0  0  0  0  0  0
    3.3724    1.9949    1.7839 H   0  0  0  0  0  0  0  0  0  0  0  0
    6.6564    2.7892    1.7028 H   0  0  0  0  0  0  0  0  0  0  0  0
    9.0424    5.1779    2.7112 H   0  0  0  0  0  0  0  0  0  0  0  0
    9.0157    6.5939    1.6474 H   0  0  0  0  0  0  0  0  0  0  0  0
   11.4650    4.7826    2.3309 H   0  0  0  0  0  0  0  0  0  0  0  0
   11.1066    6.4157    2.8098 H   0  0  0  0  0  0  0  0  0  0  0  0
   13.0167    6.6578    1.7458 H   0  0  0  0  0  0  0  0  0  0  0  0
   11.9077    7.3420    0.6099 H   0  0  0  0  0  0  0  0  0  0  0  0
   13.4453    4.6680    0.4592 H   0  0  0  0  0  0  0  0  0  0  0  0
   13.8347    6.1358   -0.3914 H   0  0  0  0  0  0  0  0  0  0  0  0
   12.7583    4.4836   -1.8554 H   0  0  0  0  0  0  0  0  0  0  0  0
   11.9308    5.9819   -1.8208 H   0  0  0  0  0  0  0  0  0  0  0  0
   11.1630    3.8219    0.2243 H   0  0  0  0  0  0  0  0  0  0  0  0
   10.7467    3.5083   -1.4314 H   0  0  0  0  0  0  0  0  0  0  0  0
   10.4539    6.9545   -1.2299 H   0  0  0  0  0  0  0  0  0  0  0  0
    7.9910    6.3766   -2.3995 H   0  0  0  0  0  0  0  0  0  0  0  0
    8.0790    8.4885   -0.1413 H   0  0  0  0  0  0  0  0  0  0  0  0
    6.0267    7.2098   -2.1573 H   0  0  0  0  0  0  0  0  0  0  0  0
    3.4528    6.3613   -0.2384 H   0  0  0  0  0  0  0  0  0  0  0  0
    1.9685    3.1696    0.0285 H   0  0  0  0  0  0  0  0  0  0  0  0
    1.8439    4.8380   -0.3927 H   0  0  0  0  0  0  0  0  0  0  0  0
    2.6436    5.4217    2.8663 H   0  0  0  0  0  0  0  0  0  0  0  0
    1.0116    6.0703    4.5665 H   0  0  0  0  0  0  0  0  0  0  0  0
   -1.4151    5.6345    4.2731 H   0  0  0  0  0  0  0  0  0  0  0  0
   -2.1917    4.4612    2.2419 H   0  0  0  0  0  0  0  0  0  0  0  0
   -0.5686    3.7615    0.5229 H   0  0  0  0  0  0  0  0  0  0  0  0
  1  2  1  0  0  0  0
  1 29  1  0  0  0  0
  1 30  1  0  0  0  0
  1 31  1  0  0  0  0
  2  3  1  0  0  0  0
  2 21  1  0  0  0  0
  3  4  2  0  0  0  0
  3 32  1  0  0  0  0
  4  5  1  0  0  0  0
  4 18  1  0  0  0  0
  5  6  1  0  0  0  0
  5 12  1  0  0  0  0
  6  7  1  0  0  0  0
  6 33  1  0  0  0  0
  6 34  1  0  0  0  0
  7  8  1  0  0  0  0
  7 35  1  0  0  0  0
  7 36  1  0  0  0  0
  8  9  1  0  0  0  0
  8 37  1  0  0  0  0
  8 38  1  0  0  0  0
  9 10  1  0  0  0  0
  9 39  1  0  0  0  0
  9 40  1  0  0  0  0
 10 11  1  0  0  0  0
 10 41  1  0  0  0  0
 10 42  1  0  0  0  0
 11 12  1  0  0  0  0
 11 43  1  0  0  0  0
 11 44  1  0  0  0  0
 12 13  2  3  0  0  0
 13 14  1  0  0  0  0
 13 45  1  0  0  0  0
 14 15  2  3  0  0  0
 14 46  1  0  0  0  0
 15 16  1  0  0  0  0
 15 47  1  0  0  0  0
 16 17  2  3  0  0  0
 16 48  1  0  0  0  0
 17 19  1  0  0  0  0
 18 19  2  0  0  0  0
 19 20  1  0  0  0  0
 20 21  2  0  0  0  0
 20 49  1  0  0  0  0
 21 22  1  0  0  0  0
 22 23  1  0  0  0  0
 22 50  1  0  0  0  0
 22 51  1  0  0  0  0
 23 24  1  0  0  0  0
 23 28  2  0  0  0  0
 24 25  2  0  0  0  0
 24 52  1  0  0  0  0
 25 26  1  0  0  0  0
 25 53  1  0  0  0  0
 26 27  2  0  0  0  0
 26 54  1  0  0  0  0
 27 28  1  0  0  0  0
 27 55  1  0  0  0  0
 28 56  1  0  0  0  0
M  END
$$$$
