
 OpenBabel04232217023D

125124  0  0  0  0  0  0  0  0999 V2000
   42.2965   -8.3687  -28.6113 S   0  0  0  0  0  0  0  0  0  0  0  0
   42.7324   -7.2763  -27.4231 N   0  0  0  0  0  0  0  0  0  0  0  0
   43.2804   -7.8350  -26.4561 N   0  0  0  0  0  0  0  0  0  0  0  0
   43.6380   -6.9000  -25.5446 N   0  0  0  0  0  0  0  0  0  0  0  0
   43.9307   -7.3172  -24.2569 N   0  0  0  0  0  0  0  0  0  0  0  0
   45.2853   -7.1049  -23.9531 N   0  0  0  0  0  0  0  0  0  0  0  0
   45.5667   -7.6289  -22.6641 N   0  0  0  0  0  0  0  0  0  0  0  0
   45.5570   -9.0623  -22.6502 N   0  0  0  0  0  0  0  0  0  0  0  0
   46.6213   -9.6312  -23.4111 N   0  0  0  0  0  0  0  0  0  0  0  0
   47.8820   -9.1188  -22.9763 N   0  0  0  0  0  0  0  0  0  0  0  0
   48.4596   -9.8264  -21.8762 N   0  0  0  0  0  0  0  0  0  0  0  0
   47.9307  -11.1346  -21.7439 N   0  0  0  0  0  0  0  0  0  0  0  0
   48.6686  -12.0286  -22.5689 N   0  0  0  0  0  0  0  0  0  0  0  0
   50.0131  -11.9321  -22.1615 N   0  0  0  0  0  0  0  0  0  0  0  0
   50.1666  -12.3511  -20.8210 N   0  0  0  0  0  0  0  0  0  0  0  0
   50.2084  -13.7703  -20.6470 N   0  0  0  0  0  0  0  0  0  0  0  0
   51.4574  -14.5072  -20.9734 N   0  0  0  0  0  0  0  0  0  0  0  0
   52.6310  -14.1641  -20.1309 N   0  0  0  0  0  0  0  0  0  0  0  0
   54.0061  -14.7296  -20.4658 N   0  0  0  0  0  0  0  0  0  0  0  0
   55.3858  -13.7204  -19.9095 S   0  0  0  0  0  0  0  0  0  0  0  0
   55.4914  -12.3118  -20.8586 N   0  0  0  0  0  0  0  0  0  0  0  0
   56.3771  -10.9495  -20.4205 S   0  0  0  0  0  0  0  0  0  0  0  0
   55.4247   -9.6165  -19.9572 N   0  0  0  0  0  0  0  0  0  0  0  0
   54.6020   -8.6251  -21.0455 S   0  0  0  0  0  0  0  0  0  0  0  0
   52.9631   -8.6550  -20.6160 N   0  0  0  0  0  0  0  0  0  0  0  0
   52.1497   -7.2145  -20.4626 S   0  0  0  0  0  0  0  0  0  0  0  0
   51.4963   -7.1359  -18.9264 N   0  0  0  0  0  0  0  0  0  0  0  0
   49.9529   -6.5291  -18.7877 S   0  0  0  0  0  0  0  0  0  0  0  0
   48.9600   -7.7176  -18.1426 N   0  0  0  0  0  0  0  0  0  0  0  0
   47.8523   -7.1027  -17.0524 S   0  0  0  0  0  0  0  0  0  0  0  0
   46.3857   -7.8895  -17.2656 N   0  0  0  0  0  0  0  0  0  0  0  0
   45.3482   -7.4938  -16.0131 S   0  0  0  0  0  0  0  0  0  0  0  0
   43.7812   -7.6763  -16.5336 N   0  0  0  0  0  0  0  0  0  0  0  0
   43.2009   -9.2225  -16.4632 S   0  0  0  0  0  0  0  0  0  0  0  0
   43.1792   -9.6949  -14.8770 N   0  0  0  0  0  0  0  0  0  0  0  0
   42.6148  -11.2489  -14.7036 S   0  0  0  0  0  0  0  0  0  0  0  0
   43.7173  -12.2681  -15.4037 N   0  0  0  0  0  0  0  0  0  0  0  0
   45.1254  -12.3712  -14.5515 S   0  0  0  0  0  0  0  0  0  0  0  0
   45.8787  -10.9673  -14.8867 N   0  0  0  0  0  0  0  0  0  0  0  0
   47.4529  -11.0456  -15.2695 S   0  0  0  0  0  0  0  0  0  0  0  0
   47.5696  -12.0993  -16.5474 N   0  0  0  0  0  0  0  0  0  0  0  0
   47.1487  -11.4033  -17.9945 S   0  0  0  0  0  0  0  0  0  0  0  0
   48.4666  -10.6548  -18.6209 N   0  0  0  0  0  0  0  0  0  0  0  0
   49.8700  -11.0155  -17.8462 S   0  0  0  0  0  0  0  0  0  0  0  0
   50.8961   -9.8017  -18.1915 N   0  0  0  0  0  0  0  0  0  0  0  0
   52.2460   -9.9900  -17.2720 S   0  0  0  0  0  0  0  0  0  0  0  0
   53.4071  -10.3671  -18.3472 N   0  0  0  0  0  0  0  0  0  0  0  0
   53.0640  -11.6287  -19.3003 S   0  0  0  0  0  0  0  0  0  0  0  0
   52.3979  -11.2493  -20.7801 N   0  0  0  0  0  0  0  0  0  0  0  0
   53.0795  -11.4283  -22.3162 S   0  0  0  0  0  0  0  0  0  0  0  0
   53.6333  -12.9372  -22.6158 N   0  0  0  0  0  0  0  0  0  0  0  0
   52.7709  -13.9520  -23.5687 S   0  0  0  0  0  0  0  0  0  0  0  0
   53.8645  -15.1460  -23.8963 N   0  0  0  0  0  0  0  0  0  0  0  0
   54.1118  -15.3283  -25.5209 S   0  0  0  0  0  0  0  0  0  0  0  0
   54.0788  -13.7825  -26.1414 N   0  0  0  0  0  0  0  0  0  0  0  0
   55.4229  -12.9090  -25.7101 S   0  0  0  0  0  0  0  0  0  0  0  0
   56.6779  -13.5927  -26.5271 N   0  0  0  0  0  0  0  0  0  0  0  0
   56.5232  -13.4633  -28.1716 S   0  0  0  0  0  0  0  0  0  0  0  0
   56.2458  -11.8610  -28.5123 N   0  0  0  0  0  0  0  0  0  0  0  0
   57.5359  -10.8825  -28.1758 S   0  0  0  0  0  0  0  0  0  0  0  0
   58.8299  -11.5545  -28.9482 N   0  0  0  0  0  0  0  0  0  0  0  0
   60.1518  -10.5802  -28.8674 S   0  0  0  0  0  0  0  0  0  0  0  0
   60.6708  -10.6310  -27.2931 N   0  0  0  0  0  0  0  0  0  0  0  0
   62.2094  -10.0775  -27.2099 S   0  0  0  0  0  0  0  0  0  0  0  0
   62.5608   -9.9140  -25.6096 N   0  0  0  0  0  0  0  0  0  0  0  0
   63.0295  -11.3138  -24.8625 S   0  0  0  0  0  0  0  0  0  0  0  0
   64.2505  -11.9964  -25.7554 N   0  0  0  0  0  0  0  0  0  0  0  0
   65.6432  -11.1063  -25.6683 S   0  0  0  0  0  0  0  0  0  0  0  0
   66.8302  -11.9576  -26.4442 N   0  0  0  0  0  0  0  0  0  0  0  0
   66.6062  -12.1547  -28.0725 S   0  0  0  0  0  0  0  0  0  0  0  0
   66.3964  -10.6705  -28.7661 N   0  0  0  0  0  0  0  0  0  0  0  0
   67.7617   -9.7396  -28.7046 S   0  0  0  0  0  0  0  0  0  0  0  0
   67.4138   -8.3691  -29.5549 N   0  0  0  0  0  0  0  0  0  0  0  0
   66.1456   -7.5223  -28.9081 S   0  0  0  0  0  0  0  0  0  0  0  0
   66.1647   -5.9337  -30.2067 S   0  0  0  0  0  0  0  0  0  0  0  0
   65.7218   -6.7516  -32.0354 S   0  0  0  0  0  0  0  0  0  0  0  0
   63.7074   -7.0918  -32.0122 S   0  0  0  0  0  0  0  0  0  0  0  0
   63.2435   -7.5376  -33.9575 S   0  0  0  0  0  0  0  0  0  0  0  0
   61.6756   -8.8506  -33.8327 S   0  0  0  0  0  0  0  0  0  0  0  0
   60.0538   -7.6269  -33.5310 S   0  0  0  0  0  0  0  0  0  0  0  0
   41.5935   -7.5197  -29.3710 H   0  0  0  0  0  0  0  0  0  0  0  0
   43.1640   -6.0067  -25.6621 H   0  0  0  0  0  0  0  0  0  0  0  0
   43.8131   -8.3265  -24.1861 H   0  0  0  0  0  0  0  0  0  0  0  0
   45.5543   -6.1250  -23.9978 H   0  0  0  0  0  0  0  0  0  0  0  0
   44.9022   -7.2777  -21.9637 H   0  0  0  0  0  0  0  0  0  0  0  0
   44.6946   -9.3885  -23.0776 H   0  0  0  0  0  0  0  0  0  0  0  0
   46.4758   -9.3999  -24.3943 H   0  0  0  0  0  0  0  0  0  0  0  0
   47.6834   -8.1580  -22.6834 H   0  0  0  0  0  0  0  0  0  0  0  0
   48.3212   -9.3400  -20.9954 H   0  0  0  0  0  0  0  0  0  0  0  0
   46.9533  -11.0730  -22.0414 H   0  0  0  0  0  0  0  0  0  0  0  0
   48.6563  -11.6409  -23.5148 H   0  0  0  0  0  0  0  0  0  0  0  0
   50.1318  -10.8998  -22.1560 H   0  0  0  0  0  0  0  0  0  0  0  0
   49.4048  -11.9012  -20.2936 H   0  0  0  0  0  0  0  0  0  0  0  0
   49.4795  -14.0923  -21.2893 H   0  0  0  0  0  0  0  0  0  0  0  0
   51.6472  -14.2314  -21.9399 H   0  0  0  0  0  0  0  0  0  0  0  0
   52.7621  -13.1799  -20.3771 H   0  0  0  0  0  0  0  0  0  0  0  0
   54.0670  -15.6026  -19.9217 H   0  0  0  0  0  0  0  0  0  0  0  0
   54.5322  -11.9905  -20.9945 H   0  0  0  0  0  0  0  0  0  0  0  0
   56.0271   -8.9844  -19.4263 H   0  0  0  0  0  0  0  0  0  0  0  0
   52.5062   -9.3404  -21.2134 H   0  0  0  0  0  0  0  0  0  0  0  0
   51.6560   -7.9781  -18.3728 H   0  0  0  0  0  0  0  0  0  0  0  0
   49.5560   -8.4261  -17.6878 H   0  0  0  0  0  0  0  0  0  0  0  0
   46.5002   -8.9005  -17.2852 H   0  0  0  0  0  0  0  0  0  0  0  0
   43.6918   -7.3142  -17.4847 H   0  0  0  0  0  0  0  0  0  0  0  0
   42.6172   -9.0570  -14.3135 H   0  0  0  0  0  0  0  0  0  0  0  0
   43.8886  -12.0257  -16.3841 H   0  0  0  0  0  0  0  0  0  0  0  0
   45.4857  -10.1151  -14.4895 H   0  0  0  0  0  0  0  0  0  0  0  0
   48.5367  -12.4346  -16.6457 H   0  0  0  0  0  0  0  0  0  0  0  0
   48.3182   -9.6594  -18.7990 H   0  0  0  0  0  0  0  0  0  0  0  0
   51.1501   -9.8685  -19.1851 H   0  0  0  0  0  0  0  0  0  0  0  0
   53.7851   -9.6032  -18.9085 H   0  0  0  0  0  0  0  0  0  0  0  0
   51.5314  -11.8068  -20.8264 H   0  0  0  0  0  0  0  0  0  0  0  0
   54.6258  -12.9659  -22.8649 H   0  0  0  0  0  0  0  0  0  0  0  0
   53.6891  -16.0398  -23.4269 H   0  0  0  0  0  0  0  0  0  0  0  0
   53.2641  -13.3288  -25.7185 H   0  0  0  0  0  0  0  0  0  0  0  0
   56.7297  -14.5750  -26.2608 H   0  0  0  0  0  0  0  0  0  0  0  0
   55.4536  -11.5601  -27.9422 H   0  0  0  0  0  0  0  0  0  0  0  0
   58.5591  -11.7620  -29.9106 H   0  0  0  0  0  0  0  0  0  0  0  0
   60.5766  -11.6137  -26.9410 H   0  0  0  0  0  0  0  0  0  0  0  0
   61.7970   -9.4564  -25.1082 H   0  0  0  0  0  0  0  0  0  0  0  0
   63.9235  -12.0723  -26.7188 H   0  0  0  0  0  0  0  0  0  0  0  0
   66.9690  -12.8585  -25.9893 H   0  0  0  0  0  0  0  0  0  0  0  0
   65.6346  -10.1794  -28.2969 H   0  0  0  0  0  0  0  0  0  0  0  0
   67.2202   -8.6046  -30.5283 H   0  0  0  0  0  0  0  0  0  0  0  0
   59.0937   -8.5505  -33.3975 H   0  0  0  0  0  0  0  0  0  0  0  0
  1  2  1  0  0  0  0
  1 81  1  0  0  0  0
  2  3  2  3  0  0  0
  3  4  1  0  0  0  0
  4  5  1  0  0  0  0
  4 82  1  0  0  0  0
  5  6  1  0  0  0  0
  5 83  1  0  0  0  0
  6  7  1  0  0  0  0
  6 84  1  0  0  0  0
  7  8  1  0  0  0  0
  7 85  1  0  0  0  0
  8  9  1  0  0  0  0
  8 86  1  0  0  0  0
  9 10  1  0  0  0  0
  9 87  1  0  0  0  0
 10 11  1  0  0  0  0
 10 88  1  0  0  0  0
 11 12  1  0  0  0  0
 11 89  1  0  0  0  0
 12 13  1  0  0  0  0
 12 90  1  0  0  0  0
 13 14  1  0  0  0  0
 13 91  1  0  0  0  0
 14 15  1  0  0  0  0
 14 92  1  0  0  0  0
 15 16  1  0  0  0  0
 15 93  1  0  0  0  0
 16 17  1  0  0  0  0
 16 94  1  0  0  0  0
 17 18  1  0  0  0  0
 17 95  1  0  0  0  0
 18 19  1  0  0  0  0
 18 96  1  0  0  0  0
 19 20  1  0  0  0  0
 19 97  1  0  0  0  0
 20 21  1  0  0  0  0
 21 22  1  0  0  0  0
 21 98  1  0  0  0  0
 22 23  1  0  0  0  0
 23 24  1  0  0  0  0
 23 99  1  0  0  0  0
 24 25  1  0  0  0  0
 25 26  1  0  0  0  0
 25100  1  0  0  0  0
 26 27  1  0  0  0  0
 27 28  1  0  0  0  0
 27101  1  0  0  0  0
 28 29  1  0  0  0  0
 29 30  1  0  0  0  0
 29102  1  0  0  0  0
 30 31  1  0  0  0  0
 31 32  1  0  0  0  0
 31103  1  0  0  0  0
 32 33  1  0  0  0  0
 33 34  1  0  0  0  0
 33104  1  0  0  0  0
 34 35  1  0  0  0  0
 35 36  1  0  0  0  0
 35105  1  0  0  0  0
 36 37  1  0  0  0  0
 37 38  1  0  0  0  0
 37106  1  0  0  0  0
 38 39  1  0  0  0  0
 39 40  1  0  0  0  0
 39107  1  0  0  0  0
 40 41  1  0  0  0  0
 41 42  1  0  0  0  0
 41108  1  0  0  0  0
 42 43  1  0  0  0  0
 43 44  1  0  0  0  0
 43109  1  0  0  0  0
 44 45  1  0  0  0  0
 45 46  1  0  0  0  0
 45110  1  0  0  0  0
 46 47  1  0  0  0  0
 47 48  1  0  0  0  0
 47111  1  0  0  0  0
 48 49  1  0  0  0  0
 49 50  1  0  0  0  0
 49112  1  0  0  0  0
 50 51  1  0  0  0  0
 51 52  1  0  0  0  0
 51113  1  0  0  0  0
 52 53  1  0  0  0  0
 53 54  1  0  0  0  0
 53114  1  0  0  0  0
 54 55  1  0  0  0  0
 55 56  1  0  0  0  0
 55115  1  0  0  0  0
 56 57  1  0  0  0  0
 57 58  1  0  0  0  0
 57116  1  0  0  0  0
 58 59  1  0  0  0  0
 59 60  1  0  0  0  0
 59117  1  0  0  0  0
 60 61  1  0  0  0  0
 61 62  1  0  0  0  0
 61118  1  0  0  0  0
 62 63  1  0  0  0  0
 63 64  1  0  0  0  0
 63119  1  0  0  0  0
 64 65  1  0  0  0  0
 65 66  1  0  0  0  0
 65120  1  0  0  0  0
 66 67  1  0  0  0  0
 67 68  1  0  0  0  0
 67121  1  0  0  0  0
 68 69  1  0  0  0  0
 69 70  1  0  0  0  0
 69122  1  0  0  0  0
 70 71  1  0  0  0  0
 71 72  1  0  0  0  0
 71123  1  0  0  0  0
 72 73  1  0  0  0  0
 73 74  1  0  0  0  0
 73124  1  0  0  0  0
 74 75  1  0  0  0  0
 75 76  1  0  0  0  0
 76 77  1  0  0  0  0
 77 78  1  0  0  0  0
 78 79  1  0  0  0  0
 79 80  1  0  0  0  0
 80125  1  0  0  0  0
M  END
$$$$
