
 OpenBabel04232216573D

 46 46  0  0  0  0  0  0  0  0999 V2000
    8.4489    1.0993   -7.1963 C   0  0  0  0  0  0  0  0  0  0  0  0
    7.8144    2.3634   -7.3889 O   0  0  0  0  0  0  0  0  0  0  0  0
    6.8770    2.7919   -6.4325 C   0  0  0  0  0  0  0  0  0  0  0  0
    5.9182    1.7384   -6.1580 C   0  0  0  0  0  0  0  0  0  0  0  0
    4.9386    1.4502   -5.3026 C   0  0  0  0  0  0  0  0  0  0  0  0
    4.3169    2.1212   -4.2129 C   0  0  0  0  0  0  0  0  0  0  0  0
    4.3712    3.3741   -3.7902 C   0  0  0  0  0  0  0  0  0  0  0  0
    5.1013    4.5265   -4.2157 C   0  0  0  0  0  0  0  0  0  0  0  0
    6.0742    4.7902   -5.0842 C   0  0  0  0  0  0  0  0  0  0  0  0
    6.9316    4.1028   -6.0491 C   0  0  0  0  0  0  0  0  0  0  0  0
    7.8595    5.0299   -6.6103 N   0  0  0  0  0  0  0  0  0  0  0  0
    8.8468    4.7579   -7.6381 C   0  0  0  0  0  0  0  0  0  0  0  0
    9.5869    6.0007   -8.1323 C   0  0  0  0  0  0  0  0  0  0  0  0
   10.5558    5.5505   -9.2348 C   0  0  0  0  0  0  0  0  0  0  0  0
   11.4179    6.6704   -9.8018 C   0  0  0  0  0  0  0  0  0  0  0  0
   12.3593    6.1195  -10.8802 C   0  0  0  0  0  0  0  0  0  0  0  0
   13.2418    7.2267  -11.4508 C   0  0  0  0  0  0  0  0  0  0  0  0
   14.1942    6.7056  -12.5245 C   0  0  0  0  0  0  0  0  0  0  0  0
   15.0565    7.8326  -13.0686 C   0  0  0  0  0  0  0  0  0  0  0  0
    9.4499    1.1487   -7.6366 H   0  0  0  0  0  0  0  0  0  0  0  0
    7.8965    0.3277   -7.7415 H   0  0  0  0  0  0  0  0  0  0  0  0
    8.5474    0.8303   -6.1396 H   0  0  0  0  0  0  0  0  0  0  0  0
    6.0218    0.9319   -6.8861 H   0  0  0  0  0  0  0  0  0  0  0  0
    4.4920    0.4641   -5.4558 H   0  0  0  0  0  0  0  0  0  0  0  0
    3.6048    1.4786   -3.6931 H   0  0  0  0  0  0  0  0  0  0  0  0
    3.6874    3.6078   -2.9641 H   0  0  0  0  0  0  0  0  0  0  0  0
    4.7598    5.4039   -3.6557 H   0  0  0  0  0  0  0  0  0  0  0  0
    6.3197    5.8553   -5.0514 H   0  0  0  0  0  0  0  0  0  0  0  0
    8.0910    5.8107   -6.0043 H   0  0  0  0  0  0  0  0  0  0  0  0
    8.3511    4.3172   -8.5088 H   0  0  0  0  0  0  0  0  0  0  0  0
    9.5891    4.0548   -7.2404 H   0  0  0  0  0  0  0  0  0  0  0  0
   10.1325    6.4788   -7.3109 H   0  0  0  0  0  0  0  0  0  0  0  0
    8.8797    6.7423   -8.5272 H   0  0  0  0  0  0  0  0  0  0  0  0
    9.9814    5.0944  -10.0515 H   0  0  0  0  0  0  0  0  0  0  0  0
   11.2114    4.7668   -8.8340 H   0  0  0  0  0  0  0  0  0  0  0  0
   12.0059    7.1289   -8.9981 H   0  0  0  0  0  0  0  0  0  0  0  0
   10.7800    7.4523  -10.2306 H   0  0  0  0  0  0  0  0  0  0  0  0
   11.7721    5.6625  -11.6870 H   0  0  0  0  0  0  0  0  0  0  0  0
   12.9881    5.3285  -10.4534 H   0  0  0  0  0  0  0  0  0  0  0  0
   13.8229    7.6812  -10.6384 H   0  0  0  0  0  0  0  0  0  0  0  0
   12.6079    8.0126  -11.8754 H   0  0  0  0  0  0  0  0  0  0  0  0
   13.6234    6.2540  -13.3467 H   0  0  0  0  0  0  0  0  0  0  0  0
   14.8400    5.9229  -12.1091 H   0  0  0  0  0  0  0  0  0  0  0  0
   14.4365    8.6162  -13.5157 H   0  0  0  0  0  0  0  0  0  0  0  0
   15.7401    7.4586  -13.8354 H   0  0  0  0  0  0  0  0  0  0  0  0
   15.6544    8.2850  -12.2693 H   0  0  0  0  0  0  0  0  0  0  0  0
  1  2  1  0  0  0  0
  1 20  1  0  0  0  0
  1 21  1  0  0  0  0
  1 22  1  0  0  0  0
  2  3  1  0  0  0  0
  3  4  1  0  0  0  0
  3 10  2  0  0  0  0
  4  5  2  0  0  0  0
  4 23  1  0  0  0  0
  5  6  1  0  0  0  0
  5 24  1  0  0  0  0
  6  7  2  0  0  0  0
  6 25  1  0  0  0  0
  7  8  1  0  0  0  0
  7 26  1  0  0  0  0
  8  9  2  0  0  0  0
  8 27  1  0  0  0  0
  9 10  1  0  0  0  0
  9 28  1  0  0  0  0
 10 11  1  0  0  0  0
 11 12  1  0  0  0  0
 11 29  1  0  0  0  0
 12 13  1  0  0  0  0
 12 30  1  0  0  0  0
 12 31  1  0  0  0  0
 13 14  1  0  0  0  0
 13 32  1  0  0  0  0
 13 33  1  0  0  0  0
 14 15  1  0  0  0  0
 14 34  1  0  0  0  0
 14 35  1  0  0  0  0
 15 16  1  0  0  0  0
 15 36  1  0  0  0  0
 15 37  1  0  0  0  0
 16 17  1  0  0  0  0
 16 38  1  0  0  0  0
 16 39  1  0  0  0  0
 17 18  1  0  0  0  0
 17 40  1  0  0  0  0
 17 41  1  0  0  0  0
 18 19  1  0  0  0  0
 18 42  1  0  0  0  0
 18 43  1  0  0  0  0
 19 44  1  0  0  0  0
 19 45  1  0  0  0  0
 19 46  1  0  0  0  0
M  END
$$$$
