
 OpenBabel04232216493D

 67 68  0  0  1  0  0  0  0  0999 V2000
    4.5860    1.1204   -3.2449 C   0  0  0  0  0  0  0  0  0  0  0  0
    5.2719   -0.2760   -3.3389 C   0  0  3  0  0  0  0  0  0  0  0  0
    4.1482   -1.3154   -3.0368 C   0  0  0  0  0  0  0  0  0  0  0  0
    4.1040   -1.6556   -1.5230 C   0  0  0  0  0  0  0  0  0  0  0  0
    5.1968   -2.6495   -1.1925 C   0  0  0  0  0  0  0  0  0  0  0  0
    6.4557   -2.4442   -1.6564 C   0  0  0  0  0  0  0  0  0  0  0  0
    7.5363   -1.4436   -1.0446 C   0  0  3  0  0  0  0  0  0  0  0  0
    8.6998   -2.3291   -0.5470 C   0  0  0  0  0  0  0  0  0  0  0  0
    6.9055   -0.6802    0.1682 C   0  0  0  0  0  0  0  0  0  0  0  0
    6.4388   -1.4702    1.3631 C   0  0  0  0  0  0  0  0  0  0  0  0
    5.7196   -0.5031    2.2882 C   0  0  0  0  0  0  0  0  0  0  0  0
    5.2406   -1.2789    3.4867 C   0  0  0  0  0  0  0  0  0  0  0  0
    4.5683   -0.3673    4.4911 C   0  0  0  0  0  0  0  0  0  0  0  0
    4.1278   -1.2227    5.6648 C   0  0  0  0  0  0  0  0  0  0  0  0
    3.4704   -0.3897    6.7480 C   0  0  0  0  0  0  0  0  0  0  0  0
    3.0663   -1.2895    7.9001 C   0  0  0  0  0  0  0  0  0  0  0  0
    6.7515   -3.3576   -2.7657 C   0  0  0  0  0  0  0  0  0  0  0  0
    7.3003   -2.9537   -3.9056 C   0  0  0  0  0  0  0  0  0  0  0  0
    7.1030   -1.7396   -4.7071 C   0  0  0  0  0  0  0  0  0  0  0  0
    8.1077   -1.8343   -5.8727 C   0  0  0  0  0  0  0  0  0  0  0  0
    6.4260   -0.5825   -4.3959 C   0  0  0  0  0  0  0  0  0  0  0  0
    7.2443    0.6503   -4.8082 C   0  0  0  0  0  0  0  0  0  0  0  0
    8.6159    0.8289   -4.0767 C   0  0  0  0  0  0  0  0  0  0  0  0
    9.0699   -0.1977   -3.0065 C   0  0  0  0  0  0  0  0  0  0  0  0
    8.1797   -0.1711   -1.7753 C   0  0  0  0  0  0  0  0  0  0  0  0
    4.5754    1.4316   -2.1873 H   0  0  0  0  0  0  0  0  0  0  0  0
    3.5352    1.1014   -3.5517 H   0  0  0  0  0  0  0  0  0  0  0  0
    5.0622    1.9289   -3.7901 H   0  0  0  0  0  0  0  0  0  0  0  0
    5.8427   -0.2307   -2.4293 H   0  0  0  0  0  0  0  0  0  0  0  0
    4.2501   -2.2185   -3.6465 H   0  0  0  0  0  0  0  0  0  0  0  0
    3.1595   -0.9148   -3.2941 H   0  0  0  0  0  0  0  0  0  0  0  0
    3.1383   -2.1259   -1.2905 H   0  0  0  0  0  0  0  0  0  0  0  0
    4.1636   -0.7712   -0.8823 H   0  0  0  0  0  0  0  0  0  0  0  0
    4.7334   -3.6317   -1.3627 H   0  0  0  0  0  0  0  0  0  0  0  0
    8.3400   -3.1725    0.0534 H   0  0  0  0  0  0  0  0  0  0  0  0
    9.3955   -1.7577    0.0763 H   0  0  0  0  0  0  0  0  0  0  0  0
    9.2721   -2.7425   -1.3845 H   0  0  0  0  0  0  0  0  0  0  0  0
    6.0844   -0.0502   -0.2005 H   0  0  0  0  0  0  0  0  0  0  0  0
    7.6335    0.0399    0.5693 H   0  0  0  0  0  0  0  0  0  0  0  0
    7.2965   -1.9201    1.8724 H   0  0  0  0  0  0  0  0  0  0  0  0
    5.7575   -2.2817    1.1066 H   0  0  0  0  0  0  0  0  0  0  0  0
    4.8662   -0.0418    1.7768 H   0  0  0  0  0  0  0  0  0  0  0  0
    6.3932    0.3086    2.5913 H   0  0  0  0  0  0  0  0  0  0  0  0
    6.0936   -1.7862    3.9535 H   0  0  0  0  0  0  0  0  0  0  0  0
    4.5394   -2.0565    3.1584 H   0  0  0  0  0  0  0  0  0  0  0  0
    3.7081    0.1361    4.0332 H   0  0  0  0  0  0  0  0  0  0  0  0
    5.2676    0.4112    4.8197 H   0  0  0  0  0  0  0  0  0  0  0  0
    4.9996   -1.7466    6.0772 H   0  0  0  0  0  0  0  0  0  0  0  0
    3.4312   -1.9932    5.3093 H   0  0  0  0  0  0  0  0  0  0  0  0
    2.5899    0.1230    6.3456 H   0  0  0  0  0  0  0  0  0  0  0  0
    4.1670    0.3783    7.1041 H   0  0  0  0  0  0  0  0  0  0  0  0
    2.3613   -2.0563    7.5630 H   0  0  0  0  0  0  0  0  0  0  0  0
    2.5944   -0.7061    8.6932 H   0  0  0  0  0  0  0  0  0  0  0  0
    3.9434   -1.7959    8.3163 H   0  0  0  0  0  0  0  0  0  0  0  0
    5.8589   -3.9255   -3.0488 H   0  0  0  0  0  0  0  0  0  0  0  0
    8.3956   -3.1480   -3.8593 H   0  0  0  0  0  0  0  0  0  0  0  0
    8.1740   -2.8648   -6.2452 H   0  0  0  0  0  0  0  0  0  0  0  0
    9.1193   -1.5505   -5.5587 H   0  0  0  0  0  0  0  0  0  0  0  0
    7.8213   -1.2268   -6.7332 H   0  0  0  0  0  0  0  0  0  0  0  0
    7.4225    0.6442   -5.8913 H   0  0  0  0  0  0  0  0  0  0  0  0
    6.6900    1.5769   -4.6819 H   0  0  0  0  0  0  0  0  0  0  0  0
    8.6080    1.8215   -3.6027 H   0  0  0  0  0  0  0  0  0  0  0  0
    9.4046    0.8909   -4.8375 H   0  0  0  0  0  0  0  0  0  0  0  0
   10.0734    0.1260   -2.6887 H   0  0  0  0  0  0  0  0  0  0  0  0
    9.2462   -1.1966   -3.3908 H   0  0  0  0  0  0  0  0  0  0  0  0
    7.4330    0.6204   -1.8994 H   0  0  0  0  0  0  0  0  0  0  0  0
    8.8441    0.2860   -1.0231 H   0  0  0  0  0  0  0  0  0  0  0  0
  1  2  1  0  0  0  0
  1 26  1  0  0  0  0
  1 27  1  0  0  0  0
  1 28  1  0  0  0  0
  2  3  1  0  0  0  0
  2 21  1  0  0  0  0
  2 29  1  0  0  0  0
  3  4  1  0  0  0  0
  3 30  1  0  0  0  0
  3 31  1  0  0  0  0
  4  5  1  0  0  0  0
  4 32  1  0  0  0  0
  4 33  1  0  0  0  0
  5  6  2  3  0  0  0
  5 34  1  0  0  0  0
  6  7  1  0  0  0  0
  6 17  1  0  0  0  0
  7  8  1  0  0  0  0
  7  9  1  0  0  0  0
  7 25  1  0  0  0  0
  8 35  1  0  0  0  0
  8 36  1  0  0  0  0
  8 37  1  0  0  0  0
  9 10  1  0  0  0  0
  9 38  1  0  0  0  0
  9 39  1  0  0  0  0
 10 11  1  0  0  0  0
 10 40  1  0  0  0  0
 10 41  1  0  0  0  0
 11 12  1  0  0  0  0
 11 42  1  0  0  0  0
 11 43  1  0  0  0  0
 12 13  1  0  0  0  0
 12 44  1  0  0  0  0
 12 45  1  0  0  0  0
 13 14  1  0  0  0  0
 13 46  1  0  0  0  0
 13 47  1  0  0  0  0
 14 15  1  0  0  0  0
 14 48  1  0  0  0  0
 14 49  1  0  0  0  0
 15 16  1  0  0  0  0
 15 50  1  0  0  0  0
 15 51  1  0  0  0  0
 16 52  1  0  0  0  0
 16 53  1  0  0  0  0
 16 54  1  0  0  0  0
 17 18  2  3  0  0  0
 17 55  1  0  0  0  0
 18 19  1  0  0  0  0
 18 56  1  0  0  0  0
 19 20  1  0  0  0  0
 19 21  2  3  0  0  0
 20 57  1  0  0  0  0
 20 58  1  0  0  0  0
 20 59  1  0  0  0  0
 21 22  1  0  0  0  0
 22 23  1  0  0  0  0
 22 60  1  0  0  0  0
 22 61  1  0  0  0  0
 23 24  1  0  0  0  0
 23 62  1  0  0  0  0
 23 63  1  0  0  0  0
 24 25  1  0  0  0  0
 24 64  1  0  0  0  0
 24 65  1  0  0  0  0
 25 66  1  0  0  0  0
 25 67  1  0  0  0  0
M  END
$$$$
