
 OpenBabel04232216403D

100 99  0  0  0  0  0  0  0  0999 V2000
    1.4373    0.5636    0.9456 C   0  0  0  0  0  0  0  0  0  0  0  0
    2.2790    0.0252    0.0590 C   0  0  0  0  0  0  0  0  0  0  0  0
    3.0453   -1.2239    0.3408 C   0  0  0  0  0  0  0  0  0  0  0  0
    4.5426   -0.9670    0.2814 C   0  0  0  0  0  0  0  0  0  0  0  0
    5.3009   -2.2489    0.5776 C   0  0  0  0  0  0  0  0  0  0  0  0
    6.7913   -1.9860    0.5159 C   0  0  0  0  0  0  0  0  0  0  0  0
    7.5334   -3.2660    0.8087 C   0  0  0  0  0  0  0  0  0  0  0  0
    9.0131   -3.0105    0.7504 C   0  0  0  0  0  0  0  0  0  0  0  0
    9.7047   -4.3032    1.0460 C   0  0  0  0  0  0  0  0  0  0  0  0
   11.0660   -3.9939    0.9771 O   0  0  0  0  0  0  0  0  0  0  0  0
   11.7944   -5.1476    1.2432 C   0  0  0  0  0  0  0  0  0  0  0  0
   13.1220   -4.7661    1.1558 O   0  0  0  0  0  0  0  0  0  0  0  0
   13.7688   -5.9773    1.4327 O   0  0  0  0  0  0  0  0  0  0  0  0
   15.1329   -5.7312    1.3794 O   0  0  0  0  0  0  0  0  0  0  0  0
   15.7698   -6.9325    1.6536 O   0  0  0  0  0  0  0  0  0  0  0  0
   17.1257   -6.6639    1.5911 O   0  0  0  0  0  0  0  0  0  0  0  0
   17.7761   -7.8494    1.8655 O   0  0  0  0  0  0  0  0  0  0  0  0
   19.1218   -7.5585    1.8008 O   0  0  0  0  0  0  0  0  0  0  0  0
   19.7715   -8.7395    2.0694 O   0  0  0  0  0  0  0  0  0  0  0  0
   21.1119   -8.4437    2.0070 O   0  0  0  0  0  0  0  0  0  0  0  0
   21.7538   -9.6239    2.2802 O   0  0  0  0  0  0  0  0  0  0  0  0
   23.0967   -9.3304    2.2119 O   0  0  0  0  0  0  0  0  0  0  0  0
   23.7272  -10.5126    2.4840 O   0  0  0  0  0  0  0  0  0  0  0  0
   25.0618  -10.2182    2.4389 O   0  0  0  0  0  0  0  0  0  0  0  0
   25.6963  -11.3839    2.6770 O   0  0  0  0  0  0  0  0  0  0  0  0
   27.0471  -11.0947    2.5962 O   0  0  0  0  0  0  0  0  0  0  0  0
   27.6686  -12.2811    2.9180 O   0  0  0  0  0  0  0  0  0  0  0  0
   28.9921  -11.9829    2.8263 O   0  0  0  0  0  0  0  0  0  0  0  0
   29.6354  -13.2005    3.0771 O   0  0  0  0  0  0  0  0  0  0  0  0
   30.9578  -12.8719    3.0277 O   0  0  0  0  0  0  0  0  0  0  0  0
   31.5890  -14.0518    3.3005 O   0  0  0  0  0  0  0  0  0  0  0  0
   32.9174  -13.7514    3.2303 O   0  0  0  0  0  0  0  0  0  0  0  0
   33.5527  -14.9283    3.4952 O   0  0  0  0  0  0  0  0  0  0  0  0
   34.8842  -14.6235    3.4214 O   0  0  0  0  0  0  0  0  0  0  0  0
   35.5096  -15.8033    3.6962 O   0  0  0  0  0  0  0  0  0  0  0  0
   36.8389  -15.5075    3.6226 O   0  0  0  0  0  0  0  0  0  0  0  0
   37.4665  -16.6863    3.8883 O   0  0  0  0  0  0  0  0  0  0  0  0
   38.7947  -16.3862    3.8202 O   0  0  0  0  0  0  0  0  0  0  0  0
   39.4248  -17.5648    4.0896 O   0  0  0  0  0  0  0  0  0  0  0  0
   40.7529  -17.2667    4.0157 O   0  0  0  0  0  0  0  0  0  0  0  0
   41.3828  -18.4444    4.2884 O   0  0  0  0  0  0  0  0  0  0  0  0
   42.7109  -18.1450    4.2197 O   0  0  0  0  0  0  0  0  0  0  0  0
   43.3407  -19.3240    4.4876 O   0  0  0  0  0  0  0  0  0  0  0  0
   44.6688  -19.0259    4.4139 O   0  0  0  0  0  0  0  0  0  0  0  0
   45.2984  -20.2037    4.6869 O   0  0  0  0  0  0  0  0  0  0  0  0
   46.6266  -19.9045    4.6182 O   0  0  0  0  0  0  0  0  0  0  0  0
   47.2562  -21.0834    4.8861 O   0  0  0  0  0  0  0  0  0  0  0  0
   48.5843  -20.7853    4.8124 O   0  0  0  0  0  0  0  0  0  0  0  0
   49.2139  -21.9631    5.0854 O   0  0  0  0  0  0  0  0  0  0  0  0
   50.5420  -21.6638    5.0165 O   0  0  0  0  0  0  0  0  0  0  0  0
   51.1717  -22.8428    5.2842 O   0  0  0  0  0  0  0  0  0  0  0  0
   52.4998  -22.5443    5.2121 O   0  0  0  0  0  0  0  0  0  0  0  0
   53.1295  -23.7220    5.4852 O   0  0  0  0  0  0  0  0  0  0  0  0
   54.4576  -23.4243    5.4099 O   0  0  0  0  0  0  0  0  0  0  0  0
   55.0874  -24.6032    5.6778 O   0  0  0  0  0  0  0  0  0  0  0  0
   56.4156  -24.3045    5.6073 O   0  0  0  0  0  0  0  0  0  0  0  0
   57.0455  -25.4824    5.8802 O   0  0  0  0  0  0  0  0  0  0  0  0
   58.3739  -25.1849    5.8049 O   0  0  0  0  0  0  0  0  0  0  0  0
   59.0040  -26.3640    6.0730 O   0  0  0  0  0  0  0  0  0  0  0  0
   60.3326  -26.0658    6.0008 O   0  0  0  0  0  0  0  0  0  0  0  0
   60.9633  -27.2436    6.2737 O   0  0  0  0  0  0  0  0  0  0  0  0
   62.2923  -26.9455    6.2064 O   0  0  0  0  0  0  0  0  0  0  0  0
   62.9238  -28.1259    6.4734 O   0  0  0  0  0  0  0  0  0  0  0  0
   64.2544  -27.8294    6.3987 O   0  0  0  0  0  0  0  0  0  0  0  0
   64.8865  -29.0079    6.6731 O   0  0  0  0  0  0  0  0  0  0  0  0
   66.2210  -28.7110    6.6071 O   0  0  0  0  0  0  0  0  0  0  0  0
   66.8564  -29.8904    6.8730 O   0  0  0  0  0  0  0  0  0  0  0  0
   68.1929  -29.5965    6.8001 O   0  0  0  0  0  0  0  0  0  0  0  0
   68.8348  -30.7767    7.0738 O   0  0  0  0  0  0  0  0  0  0  0  0
   70.1746  -30.4846    7.0063 O   0  0  0  0  0  0  0  0  0  0  0  0
   70.8214  -31.6688    7.2756 O   0  0  0  0  0  0  0  0  0  0  0  0
   72.1691  -31.3855    7.2069 O   0  0  0  0  0  0  0  0  0  0  0  0
   72.8219  -32.5740    7.4817 O   0  0  0  0  0  0  0  0  0  0  0  0
   74.1788  -32.2978    7.4111 O   0  0  0  0  0  0  0  0  0  0  0  0
   74.8517  -33.4865    7.6855 O   0  0  0  0  0  0  0  0  0  0  0  0
   76.2209  -33.2001    7.6176 O   0  0  0  0  0  0  0  0  0  0  0  0
   76.9244  -34.3937    7.8445 O   0  0  0  0  0  0  0  0  0  0  0  0
   78.3181  -34.1159    7.7883 O   0  0  0  0  0  0  0  0  0  0  0  0
   79.0291  -35.3162    8.0944 O   0  0  0  0  0  0  0  0  0  0  0  0
   78.6525  -35.7776    9.4119 O   0  0  0  0  0  0  0  0  0  0  0  0
    0.8954    1.4746    0.7218 H   0  0  0  0  0  0  0  0  0  0  0  0
    1.2811    0.0968    1.9127 H   0  0  0  0  0  0  0  0  0  0  0  0
    2.4249    0.5095   -0.9056 H   0  0  0  0  0  0  0  0  0  0  0  0
    2.7676   -1.9893   -0.3925 H   0  0  0  0  0  0  0  0  0  0  0  0
    2.7862   -1.6182    1.3310 H   0  0  0  0  0  0  0  0  0  0  0  0
    4.8274   -0.1972    1.0102 H   0  0  0  0  0  0  0  0  0  0  0  0
    4.8276   -0.5938   -0.7104 H   0  0  0  0  0  0  0  0  0  0  0  0
    5.0309   -3.0261   -0.1483 H   0  0  0  0  0  0  0  0  0  0  0  0
    5.0326   -2.6288    1.5716 H   0  0  0  0  0  0  0  0  0  0  0  0
    7.0738   -1.2178    1.2461 H   0  0  0  0  0  0  0  0  0  0  0  0
    7.0721   -1.6129   -0.4765 H   0  0  0  0  0  0  0  0  0  0  0  0
    7.2654   -4.0411    0.0798 H   0  0  0  0  0  0  0  0  0  0  0  0
    7.2654   -3.6473    1.8020 H   0  0  0  0  0  0  0  0  0  0  0  0
    9.3247   -2.2466    1.4751 H   0  0  0  0  0  0  0  0  0  0  0  0
    9.3249   -2.6374   -0.2342 H   0  0  0  0  0  0  0  0  0  0  0  0
    9.4618   -5.0708    0.3022 H   0  0  0  0  0  0  0  0  0  0  0  0
    9.4595   -4.6728    2.0484 H   0  0  0  0  0  0  0  0  0  0  0  0
   11.5904   -5.9327    0.5022 H   0  0  0  0  0  0  0  0  0  0  0  0
   11.5896   -5.5297    2.2528 H   0  0  0  0  0  0  0  0  0  0  0  0
   79.2063  -36.5702    9.3803 H   0  0  0  0  0  0  0  0  0  0  0  0
  1  2  2  0  0  0  0
  1 81  1  0  0  0  0
  1 82  1  0  0  0  0
  2  3  1  0  0  0  0
  2 83  1  0  0  0  0
  3  4  1  0  0  0  0
  3 84  1  0  0  0  0
  3 85  1  0  0  0  0
  4  5  1  0  0  0  0
  4 86  1  0  0  0  0
  4 87  1  0  0  0  0
  5  6  1  0  0  0  0
  5 88  1  0  0  0  0
  5 89  1  0  0  0  0
  6  7  1  0  0  0  0
  6 90  1  0  0  0  0
  6 91  1  0  0  0  0
  7  8  1  0  0  0  0
  7 92  1  0  0  0  0
  7 93  1  0  0  0  0
  8  9  1  0  0  0  0
  8 94  1  0  0  0  0
  8 95  1  0  0  0  0
  9 10  1  0  0  0  0
  9 96  1  0  0  0  0
  9 97  1  0  0  0  0
 10 11  1  0  0  0  0
 11 12  1  0  0  0  0
 11 98  1  0  0  0  0
 11 99  1  0  0  0  0
 12 13  1  0  0  0  0
 13 14  1  0  0  0  0
 14 15  1  0  0  0  0
 15 16  1  0  0  0  0
 16 17  1  0  0  0  0
 17 18  1  0  0  0  0
 18 19  1  0  0  0  0
 19 20  1  0  0  0  0
 20 21  1  0  0  0  0
 21 22  1  0  0  0  0
 22 23  1  0  0  0  0
 23 24  1  0  0  0  0
 24 25  1  0  0  0  0
 25 26  1  0  0  0  0
 26 27  1  0  0  0  0
 27 28  1  0  0  0  0
 28 29  1  0  0  0  0
 29 30  1  0  0  0  0
 30 31  1  0  0  0  0
 31 32  1  0  0  0  0
 32 33  1  0  0  0  0
 33 34  1  0  0  0  0
 34 35  1  0  0  0  0
 35 36  1  0  0  0  0
 36 37  1  0  0  0  0
 37 38  1  0  0  0  0
 38 39  1  0  0  0  0
 39 40  1  0  0  0  0
 40 41  1  0  0  0  0
 41 42  1  0  0  0  0
 42 43  1  0  0  0  0
 43 44  1  0  0  0  0
 44 45  1  0  0  0  0
 45 46  1  0  0  0  0
 46 47  1  0  0  0  0
 47 48  1  0  0  0  0
 48 49  1  0  0  0  0
 49 50  1  0  0  0  0
 50 51  1  0  0  0  0
 51 52  1  0  0  0  0
 52 53  1  0  0  0  0
 53 54  1  0  0  0  0
 54 55  1  0  0  0  0
 55 56  1  0  0  0  0
 56 57  1  0  0  0  0
 57 58  1  0  0  0  0
 58 59  1  0  0  0  0
 59 60  1  0  0  0  0
 60 61  1  0  0  0  0
 61 62  1  0  0  0  0
 62 63  1  0  0  0  0
 63 64  1  0  0  0  0
 64 65  1  0  0  0  0
 65 66  1  0  0  0  0
 66 67  1  0  0  0  0
 67 68  1  0  0  0  0
 68 69  1  0  0  0  0
 69 70  1  0  0  0  0
 70 71  1  0  0  0  0
 71 72  1  0  0  0  0
 72 73  1  0  0  0  0
 73 74  1  0  0  0  0
 74 75  1  0  0  0  0
 75 76  1  0  0  0  0
 76 77  1  0  0  0  0
 77 78  1  0  0  0  0
 78 79  1  0  0  0  0
 79 80  1  0  0  0  0
 80100  1  0  0  0  0
M  END
$$$$
