
 OpenBabel04232216473D

135135  0  0  1  0  0  0  0  0999 V2000
    3.7338   -7.4740   -3.1006 C   0  0  0  0  0  0  0  0  0  0  0  0
    2.5407   -6.5966   -3.2401 C   0  0  3  0  0  0  0  0  0  0  0  0
    2.3375   -5.7708   -4.3113 C   0  0  0  0  0  0  0  0  0  0  0  0
    2.7659   -5.0277   -3.3196 C   0  0  0  0  0  0  0  0  0  0  0  0
    3.2128   -4.5416   -1.9888 C   0  0  0  0  0  0  0  0  0  0  0  0
    2.6681   -5.2902   -0.9040 O   0  0  0  0  0  0  0  0  0  0  0  0
    3.1955   -4.8776    0.3516 C   0  0  0  0  0  0  0  0  0  0  0  0
    2.5861   -5.7316    1.4559 C   0  0  0  0  0  0  0  0  0  0  0  0
    2.9543   -7.2073    1.3127 C   0  0  0  0  0  0  0  0  0  0  0  0
    2.3361   -8.0219    2.4406 C   0  0  0  0  0  0  0  0  0  0  0  0
    2.7000   -9.4884    2.2928 C   0  0  0  0  0  0  0  0  0  0  0  0
    2.0733  -10.2914    3.4150 C   0  0  0  0  0  0  0  0  0  0  0  0
    2.4414  -11.7470    3.2545 C   0  0  0  0  0  0  0  0  0  0  0  0
    1.8109  -12.5301    4.3758 C   0  0  0  0  0  0  0  0  0  0  0  0
    2.1823  -13.9752    4.2086 C   0  0  0  0  0  0  0  0  0  0  0  0
    1.5513  -14.7360    5.3313 C   0  0  0  0  0  0  0  0  0  0  0  0
    1.9349  -16.1652    5.1464 C   0  0  0  0  0  0  0  0  0  0  0  0
    1.3113  -16.9228    6.2531 C   0  0  0  0  0  0  0  0  0  0  0  0
    1.7323  -18.2195    5.9839 O   0  0  0  0  0  0  0  0  0  0  0  0
    1.0416  -18.9450    6.9610 O   0  0  0  0  0  0  0  0  0  0  0  0
    1.4245  -20.2763    6.8360 O   0  0  0  0  0  0  0  0  0  0  0  0
    0.9916  -20.9293    7.9880 O   0  0  0  0  0  0  0  0  0  0  0  0
    1.2887  -22.2726    7.8116 O   0  0  0  0  0  0  0  0  0  0  0  0
    0.4931  -22.9976    8.6925 O   0  0  0  0  0  0  0  0  0  0  0  0
    0.9491  -24.3023    8.5991 O   0  0  0  0  0  0  0  0  0  0  0  0
    0.6077  -24.9646    9.7674 O   0  0  0  0  0  0  0  0  0  0  0  0
    0.7169  -26.3078    9.4472 O   0  0  0  0  0  0  0  0  0  0  0  0
    0.0422  -27.0224   10.4145 O   0  0  0  0  0  0  0  0  0  0  0  0
    0.5733  -28.2973   10.3556 O   0  0  0  0  0  0  0  0  0  0  0  0
   -0.0093  -28.9999   11.3847 O   0  0  0  0  0  0  0  0  0  0  0  0
    0.2252  -30.3290   11.1123 O   0  0  0  0  0  0  0  0  0  0  0  0
   -0.3287  -31.0161   12.1661 O   0  0  0  0  0  0  0  0  0  0  0  0
    0.0929  -32.3148   12.0250 O   0  0  0  0  0  0  0  0  0  0  0  0
   -0.4688  -32.9944   13.0777 O   0  0  0  0  0  0  0  0  0  0  0  0
   -0.2089  -34.3178   12.8280 O   0  0  0  0  0  0  0  0  0  0  0  0
   -0.8471  -35.0111   13.8236 O   0  0  0  0  0  0  0  0  0  0  0  0
   -0.3132  -36.2748   13.7737 O   0  0  0  0  0  0  0  0  0  0  0  0
   -0.9336  -36.9643   14.7808 O   0  0  0  0  0  0  0  0  0  0  0  0
   -0.7721  -38.2911   14.4705 O   0  0  0  0  0  0  0  0  0  0  0  0
   -1.2306  -38.9581   15.5754 O   0  0  0  0  0  0  0  0  0  0  0  0
   -0.7669  -40.2412   15.4560 O   0  0  0  0  0  0  0  0  0  0  0  0
   -1.4687  -40.9450   16.3993 O   0  0  0  0  0  0  0  0  0  0  0  0
   -1.1598  -42.2591   16.1789 O   0  0  0  0  0  0  0  0  0  0  0  0
   -1.6200  -42.9161   17.2895 O   0  0  0  0  0  0  0  0  0  0  0  0
   -1.2648  -44.2232   17.0997 O   0  0  0  0  0  0  0  0  0  0  0  0
   -1.9690  -44.9250   18.0415 O   0  0  0  0  0  0  0  0  0  0  0  0
   -1.5442  -46.2181   17.8998 O   0  0  0  0  0  0  0  0  0  0  0  0
   -2.0453  -46.8843   18.9856 O   0  0  0  0  0  0  0  0  0  0  0  0
   -1.7974  -48.2065   18.7270 O   0  0  0  0  0  0  0  0  0  0  0  0
   -2.4001  -48.8914   19.7478 O   0  0  0  0  0  0  0  0  0  0  0  0
   -1.9558  -50.1809   19.6201 O   0  0  0  0  0  0  0  0  0  0  0  0
   -2.5494  -50.8678   20.6452 O   0  0  0  0  0  0  0  0  0  0  0  0
   -2.2790  -52.1886   20.3940 O   0  0  0  0  0  0  0  0  0  0  0  0
   -2.8508  -52.8730   21.4388 O   0  0  0  0  0  0  0  0  0  0  0  0
   -2.3782  -54.1605   21.3823 O   0  0  0  0  0  0  0  0  0  0  0  0
   -2.9955  -54.8593   22.3444 O   0  0  0  0  0  0  0  0  0  0  0  0
   -2.7631  -56.1709   22.0952 O   0  0  0  0  0  0  0  0  0  0  0  0
   -3.3102  -56.8521   23.1596 O   0  0  0  0  0  0  0  0  0  0  0  0
   -2.9237  -58.1545   23.0354 O   0  0  0  0  0  0  0  0  0  0  0  0
   -3.4936  -58.8384   24.0820 O   0  0  0  0  0  0  0  0  0  0  0  0
   -3.1659  -60.1610   23.8767 O   0  0  0  0  0  0  0  0  0  0  0  0
   -3.7606  -60.8810   24.8945 O   0  0  0  0  0  0  0  0  0  0  0  0
   -3.4057  -62.2058   24.6889 O   0  0  0  0  0  0  0  0  0  0  0  0
   -3.9472  -62.9282   25.7428 O   0  0  0  0  0  0  0  0  0  0  0  0
   -3.5472  -64.2490   25.5760 O   0  0  0  0  0  0  0  0  0  0  0  0
   -4.1905  -64.9828   26.5686 O   0  0  0  0  0  0  0  0  0  0  0  0
   -3.8293  -66.3226   26.3965 O   0  0  0  0  0  0  0  0  0  0  0  0
   -4.4582  -66.9181   27.4822 C   0  0  0  0  0  0  0  0  0  0  0  0
   -4.0857  -68.3378   27.2997 C   0  0  0  0  0  0  0  0  0  0  0  0
   -4.7153  -69.0966   28.4135 C   0  0  0  0  0  0  0  0  0  0  0  0
   -4.3362  -70.5310   28.2271 C   0  0  0  0  0  0  0  0  0  0  0  0
   -4.9633  -71.3096   29.3450 C   0  0  0  0  0  0  0  0  0  0  0  0
   -4.5887  -72.7546   29.1691 C   0  0  0  0  0  0  0  0  0  0  0  0
   -5.2165  -73.5456   30.2884 C   0  0  0  0  0  0  0  0  0  0  0  0
   -4.8461  -75.0007   30.1241 C   0  0  0  0  0  0  0  0  0  0  0  0
   -5.4696  -75.8109   31.2421 C   0  0  0  0  0  0  0  0  0  0  0  0
   -5.0988  -77.2736   31.0795 C   0  0  0  0  0  0  0  0  0  0  0  0
   -5.7139  -78.1055   32.1941 C   0  0  0  0  0  0  0  0  0  0  0  0
   -5.3446  -79.5671   32.0336 C   0  0  0  0  0  0  0  0  0  0  0  0
    3.4781   -8.5024   -3.3741 H   0  0  0  0  0  0  0  0  0  0  0  0
    4.0798   -7.4812   -2.0615 H   0  0  0  0  0  0  0  0  0  0  0  0
    4.5699   -7.1527   -3.7318 H   0  0  0  0  0  0  0  0  0  0  0  0
    1.6840   -6.9039   -2.6561 H   0  0  0  0  0  0  0  0  0  0  0  0
    2.0772   -5.7267   -5.3430 H   0  0  0  0  0  0  0  0  0  0  0  0
    2.8970   -3.4983   -1.8782 H   0  0  0  0  0  0  0  0  0  0  0  0
    4.3085   -4.5712   -1.9515 H   0  0  0  0  0  0  0  0  0  0  0  0
    2.9386   -3.8272    0.5239 H   0  0  0  0  0  0  0  0  0  0  0  0
    4.2864   -4.9827    0.3523 H   0  0  0  0  0  0  0  0  0  0  0  0
    1.4938   -5.6379    1.4285 H   0  0  0  0  0  0  0  0  0  0  0  0
    2.9283   -5.3616    2.4290 H   0  0  0  0  0  0  0  0  0  0  0  0
    4.0449   -7.3237    1.3309 H   0  0  0  0  0  0  0  0  0  0  0  0
    2.6032   -7.5968    0.3497 H   0  0  0  0  0  0  0  0  0  0  0  0
    1.2447   -7.9121    2.4295 H   0  0  0  0  0  0  0  0  0  0  0  0
    2.6891   -7.6519    3.4110 H   0  0  0  0  0  0  0  0  0  0  0  0
    3.7888   -9.6135    2.3155 H   0  0  0  0  0  0  0  0  0  0  0  0
    2.3484   -9.8713    1.3276 H   0  0  0  0  0  0  0  0  0  0  0  0
    0.9816  -10.1821    3.4001 H   0  0  0  0  0  0  0  0  0  0  0  0
    2.4233   -9.9261    4.3886 H   0  0  0  0  0  0  0  0  0  0  0  0
    3.5309  -11.8752    3.2776 H   0  0  0  0  0  0  0  0  0  0  0  0
    2.0891  -12.1308    2.2887 H   0  0  0  0  0  0  0  0  0  0  0  0
    0.7192  -12.4213    4.3596 H   0  0  0  0  0  0  0  0  0  0  0  0
    2.1619  -12.1652    5.3493 H   0  0  0  0  0  0  0  0  0  0  0  0
    3.2718  -14.1046    4.2329 H   0  0  0  0  0  0  0  0  0  0  0  0
    1.8279  -14.3609    3.2444 H   0  0  0  0  0  0  0  0  0  0  0  0
    0.4582  -14.6325    5.3146 H   0  0  0  0  0  0  0  0  0  0  0  0
    1.9008  -14.3724    6.3048 H   0  0  0  0  0  0  0  0  0  0  0  0
    3.0241  -16.3054    5.1589 H   0  0  0  0  0  0  0  0  0  0  0  0
    1.5878  -16.5613    4.1824 H   0  0  0  0  0  0  0  0  0  0  0  0
    0.2142  -16.8662    6.2305 H   0  0  0  0  0  0  0  0  0  0  0  0
    1.6707  -16.6106    7.2398 H   0  0  0  0  0  0  0  0  0  0  0  0
   -5.5415  -66.7567   27.4253 H   0  0  0  0  0  0  0  0  0  0  0  0
   -4.0764  -66.4996   28.4215 H   0  0  0  0  0  0  0  0  0  0  0  0
   -2.9910  -68.4393   27.2964 H   0  0  0  0  0  0  0  0  0  0  0  0
   -4.4261  -68.6896   26.3153 H   0  0  0  0  0  0  0  0  0  0  0  0
   -5.8052  -68.9683   28.3903 H   0  0  0  0  0  0  0  0  0  0  0  0
   -4.3608  -68.7148   29.3795 H   0  0  0  0  0  0  0  0  0  0  0  0
   -3.2441  -70.6369   28.2391 H   0  0  0  0  0  0  0  0  0  0  0  0
   -4.6884  -70.8905   27.2521 H   0  0  0  0  0  0  0  0  0  0  0  0
   -6.0534  -71.1832   29.3235 H   0  0  0  0  0  0  0  0  0  0  0  0
   -4.6080  -70.9291   30.3113 H   0  0  0  0  0  0  0  0  0  0  0  0
   -3.4964  -72.8618   29.1824 H   0  0  0  0  0  0  0  0  0  0  0  0
   -4.9397  -73.1157   28.1937 H   0  0  0  0  0  0  0  0  0  0  0  0
   -6.3061  -73.4198   30.2657 H   0  0  0  0  0  0  0  0  0  0  0  0
   -4.8640  -73.1646   31.2549 H   0  0  0  0  0  0  0  0  0  0  0  0
   -3.7544  -75.1076   30.1381 H   0  0  0  0  0  0  0  0  0  0  0  0
   -5.1956  -75.3628   29.1493 H   0  0  0  0  0  0  0  0  0  0  0  0
   -6.5596  -75.6902   31.2221 H   0  0  0  0  0  0  0  0  0  0  0  0
   -5.1184  -75.4347   32.2108 H   0  0  0  0  0  0  0  0  0  0  0  0
   -4.0068  -77.3788   31.0906 H   0  0  0  0  0  0  0  0  0  0  0  0
   -5.4481  -77.6345   30.1042 H   0  0  0  0  0  0  0  0  0  0  0  0
   -6.8047  -77.9976   32.1801 H   0  0  0  0  0  0  0  0  0  0  0  0
   -5.3627  -77.7418   33.1668 H   0  0  0  0  0  0  0  0  0  0  0  0
   -5.7076  -79.9562   31.0769 H   0  0  0  0  0  0  0  0  0  0  0  0
   -5.7893  -80.1589   32.8377 H   0  0  0  0  0  0  0  0  0  0  0  0
   -4.2584  -79.6989   32.0677 H   0  0  0  0  0  0  0  0  0  0  0  0
  1  2  1  0  0  0  0
  1 80  1  0  0  0  0
  1 81  1  0  0  0  0
  1 82  1  0  0  0  0
  2  3  1  0  0  0  0
  2  4  1  0  0  0  0
  2 83  1  0  0  0  0
  3  4  2  0  0  0  0
  3 84  1  0  0  0  0
  4  5  1  0  0  0  0
  5  6  1  0  0  0  0
  5 85  1  0  0  0  0
  5 86  1  0  0  0  0
  6  7  1  0  0  0  0
  7  8  1  0  0  0  0
  7 87  1  0  0  0  0
  7 88  1  0  0  0  0
  8  9  1  0  0  0  0
  8 89  1  0  0  0  0
  8 90  1  0  0  0  0
  9 10  1  0  0  0  0
  9 91  1  0  0  0  0
  9 92  1  0  0  0  0
 10 11  1  0  0  0  0
 10 93  1  0  0  0  0
 10 94  1  0  0  0  0
 11 12  1  0  0  0  0
 11 95  1  0  0  0  0
 11 96  1  0  0  0  0
 12 13  1  0  0  0  0
 12 97  1  0  0  0  0
 12 98  1  0  0  0  0
 13 14  1  0  0  0  0
 13 99  1  0  0  0  0
 13100  1  0  0  0  0
 14 15  1  0  0  0  0
 14101  1  0  0  0  0
 14102  1  0  0  0  0
 15 16  1  0  0  0  0
 15103  1  0  0  0  0
 15104  1  0  0  0  0
 16 17  1  0  0  0  0
 16105  1  0  0  0  0
 16106  1  0  0  0  0
 17 18  1  0  0  0  0
 17107  1  0  0  0  0
 17108  1  0  0  0  0
 18 19  1  0  0  0  0
 18109  1  0  0  0  0
 18110  1  0  0  0  0
 19 20  1  0  0  0  0
 20 21  1  0  0  0  0
 21 22  1  0  0  0  0
 22 23  1  0  0  0  0
 23 24  1  0  0  0  0
 24 25  1  0  0  0  0
 25 26  1  0  0  0  0
 26 27  1  0  0  0  0
 27 28  1  0  0  0  0
 28 29  1  0  0  0  0
 29 30  1  0  0  0  0
 30 31  1  0  0  0  0
 31 32  1  0  0  0  0
 32 33  1  0  0  0  0
 33 34  1  0  0  0  0
 34 35  1  0  0  0  0
 35 36  1  0  0  0  0
 36 37  1  0  0  0  0
 37 38  1  0  0  0  0
 38 39  1  0  0  0  0
 39 40  1  0  0  0  0
 40 41  1  0  0  0  0
 41 42  1  0  0  0  0
 42 43  1  0  0  0  0
 43 44  1  0  0  0  0
 44 45  1  0  0  0  0
 45 46  1  0  0  0  0
 46 47  1  0  0  0  0
 47 48  1  0  0  0  0
 48 49  1  0  0  0  0
 49 50  1  0  0  0  0
 50 51  1  0  0  0  0
 51 52  1  0  0  0  0
 52 53  1  0  0  0  0
 53 54  1  0  0  0  0
 54 55  1  0  0  0  0
 55 56  1  0  0  0  0
 56 57  1  0  0  0  0
 57 58  1  0  0  0  0
 58 59  1  0  0  0  0
 59 60  1  0  0  0  0
 60 61  1  0  0  0  0
 61 62  1  0  0  0  0
 62 63  1  0  0  0  0
 63 64  1  0  0  0  0
 64 65  1  0  0  0  0
 65 66  1  0  0  0  0
 66 67  1  0  0  0  0
 67 68  1  0  0  0  0
 68 69  1  0  0  0  0
 68111  1  0  0  0  0
 68112  1  0  0  0  0
 69 70  1  0  0  0  0
 69113  1  0  0  0  0
 69114  1  0  0  0  0
 70 71  1  0  0  0  0
 70115  1  0  0  0  0
 70116  1  0  0  0  0
 71 72  1  0  0  0  0
 71117  1  0  0  0  0
 71118  1  0  0  0  0
 72 73  1  0  0  0  0
 72119  1  0  0  0  0
 72120  1  0  0  0  0
 73 74  1  0  0  0  0
 73121  1  0  0  0  0
 73122  1  0  0  0  0
 74 75  1  0  0  0  0
 74123  1  0  0  0  0
 74124  1  0  0  0  0
 75 76  1  0  0  0  0
 75125  1  0  0  0  0
 75126  1  0  0  0  0
 76 77  1  0  0  0  0
 76127  1  0  0  0  0
 76128  1  0  0  0  0
 77 78  1  0  0  0  0
 77129  1  0  0  0  0
 77130  1  0  0  0  0
 78 79  1  0  0  0  0
 78131  1  0  0  0  0
 78132  1  0  0  0  0
 79133  1  0  0  0  0
 79134  1  0  0  0  0
 79135  1  0  0  0  0
M  END
$$$$
