
 OpenBabel04232216503D

 55 56  0  0  0  0  0  0  0  0999 V2000
    4.6188    0.3235   -0.5594 C   0  0  0  0  0  0  0  0  0  0  0  0
    5.4886    0.0441    0.7202 C   0  0  0  0  0  0  0  0  0  0  0  0
    4.6523   -0.0293    1.7095 N   0  0  0  0  0  0  0  0  0  0  0  0
    5.0881   -0.2044    2.9818 C   0  0  0  0  0  0  0  0  0  0  0  0
    5.2435   -1.4792    3.3897 C   0  0  0  0  0  0  0  0  0  0  0  0
    4.2273   -2.5284    3.7028 C   0  0  0  0  0  0  0  0  0  0  0  0
    6.5556   -2.0183    3.0057 C   0  0  0  0  0  0  0  0  0  0  0  0
    7.1826   -2.8420    4.0830 C   0  0  0  0  0  0  0  0  0  0  0  0
    8.6207   -2.5795    3.8490 C   0  0  0  0  0  0  0  0  0  0  0  0
    9.4732   -3.2669    4.8104 C   0  0  0  0  0  0  0  0  0  0  0  0
   10.8746   -2.8355    4.6087 C   0  0  0  0  0  0  0  0  0  0  0  0
   11.6078   -3.7388    5.5129 C   0  0  0  0  0  0  0  0  0  0  0  0
   12.4951   -4.6483    5.0961 C   0  0  0  0  0  0  0  0  0  0  0  0
   13.5364   -5.1054    6.0172 C   0  0  0  0  0  0  0  0  0  0  0  0
   13.0425   -5.4736    7.4065 C   0  0  0  0  0  0  0  0  0  0  0  0
   14.7180   -4.4964    5.7769 C   0  0  0  0  0  0  0  0  0  0  0  0
   15.5089   -4.6200    4.5015 C   0  0  0  0  0  0  0  0  0  0  0  0
   14.9955   -3.1754    6.3090 C   0  0  0  0  0  0  0  0  0  0  0  0
   14.4287   -1.9714    5.9430 C   0  0  0  0  0  0  0  0  0  0  0  0
   13.1856   -1.6711    5.3378 N   0  0  0  0  0  0  0  0  0  0  0  0
   12.8753   -1.6314    4.0705 N   0  0  0  0  0  0  0  0  0  0  0  0
   11.4643   -1.8553    3.8328 C   0  0  0  0  0  0  0  0  0  0  0  0
   10.7480   -1.1785    2.4830 C   0  0  0  0  0  0  0  0  0  0  0  0
    9.6063   -0.3797    2.1920 C   0  0  0  0  0  0  0  0  0  0  0  0
    8.5101   -0.2000    0.9194 C   0  0  0  0  0  0  0  0  0  0  0  0
    7.1687   -0.0413    0.5382 C   0  0  0  0  0  0  0  0  0  0  0  0
    3.5735    0.0058   -0.3686 H   0  0  0  0  0  0  0  0  0  0  0  0
    4.9267   -0.2026   -1.4608 H   0  0  0  0  0  0  0  0  0  0  0  0
    4.5446    1.4026   -0.7323 H   0  0  0  0  0  0  0  0  0  0  0  0
    5.9125    0.4941    3.1456 H   0  0  0  0  0  0  0  0  0  0  0  0
    3.2347   -2.2946    3.3234 H   0  0  0  0  0  0  0  0  0  0  0  0
    4.1818   -2.6301    4.7955 H   0  0  0  0  0  0  0  0  0  0  0  0
    4.5203   -3.5168    3.3161 H   0  0  0  0  0  0  0  0  0  0  0  0
    7.1969   -1.1410    2.8422 H   0  0  0  0  0  0  0  0  0  0  0  0
    6.5477   -2.5519    2.0503 H   0  0  0  0  0  0  0  0  0  0  0  0
    6.9373   -3.9012    3.9715 H   0  0  0  0  0  0  0  0  0  0  0  0
    6.8948   -2.5032    5.0800 H   0  0  0  0  0  0  0  0  0  0  0  0
    8.7639   -1.5081    4.0322 H   0  0  0  0  0  0  0  0  0  0  0  0
    8.8956   -2.8663    2.8232 H   0  0  0  0  0  0  0  0  0  0  0  0
    9.3569   -4.3493    4.6985 H   0  0  0  0  0  0  0  0  0  0  0  0
    9.1545   -2.9913    5.8264 H   0  0  0  0  0  0  0  0  0  0  0  0
   11.4569   -3.5138    6.5788 H   0  0  0  0  0  0  0  0  0  0  0  0
   12.6897   -4.7372    4.0298 H   0  0  0  0  0  0  0  0  0  0  0  0
   11.9478   -5.5185    7.4784 H   0  0  0  0  0  0  0  0  0  0  0  0
   13.3954   -4.7807    8.1745 H   0  0  0  0  0  0  0  0  0  0  0  0
   13.3930   -6.4800    7.6608 H   0  0  0  0  0  0  0  0  0  0  0  0
   14.9192   -4.3194    3.6336 H   0  0  0  0  0  0  0  0  0  0  0  0
   15.8798   -5.6406    4.3607 H   0  0  0  0  0  0  0  0  0  0  0  0
   16.4018   -3.9776    4.5228 H   0  0  0  0  0  0  0  0  0  0  0  0
   15.8544   -3.1576    6.9994 H   0  0  0  0  0  0  0  0  0  0  0  0
   14.8660   -1.1083    6.4474 H   0  0  0  0  0  0  0  0  0  0  0  0
   11.2838   -1.6084    1.6328 H   0  0  0  0  0  0  0  0  0  0  0  0
   10.1487    0.5010    1.7530 H   0  0  0  0  0  0  0  0  0  0  0  0
    9.1618   -0.0250    0.0394 H   0  0  0  0  0  0  0  0  0  0  0  0
    7.1649    0.1796   -0.5440 H   0  0  0  0  0  0  0  0  0  0  0  0
  1  2  1  0  0  0  0
  1 27  1  0  0  0  0
  1 28  1  0  0  0  0
  1 29  1  0  0  0  0
  2  3  2  3  0  0  0
  2 26  1  0  0  0  0
  3  4  1  0  0  0  0
  4  5  2  3  0  0  0
  4 30  1  0  0  0  0
  5  6  1  0  0  0  0
  5  7  1  0  0  0  0
  6 31  1  0  0  0  0
  6 32  1  0  0  0  0
  6 33  1  0  0  0  0
  7  8  1  0  0  0  0
  7 34  1  0  0  0  0
  7 35  1  0  0  0  0
  8  9  1  0  0  0  0
  8 36  1  0  0  0  0
  8 37  1  0  0  0  0
  9 10  1  0  0  0  0
  9 38  1  0  0  0  0
  9 39  1  0  0  0  0
 10 11  1  0  0  0  0
 10 40  1  0  0  0  0
 10 41  1  0  0  0  0
 11 12  1  0  0  0  0
 11 22  2  0  0  0  0
 12 13  2  0  0  0  0
 12 42  1  0  0  0  0
 13 14  1  0  0  0  0
 13 43  1  0  0  0  0
 14 15  1  0  0  0  0
 14 16  2  0  0  0  0
 15 44  1  0  0  0  0
 15 45  1  0  0  0  0
 15 46  1  0  0  0  0
 16 17  1  0  0  0  0
 16 18  1  0  0  0  0
 17 47  1  0  0  0  0
 17 48  1  0  0  0  0
 17 49  1  0  0  0  0
 18 19  2  0  0  0  0
 18 50  1  0  0  0  0
 19 20  1  0  0  0  0
 19 51  1  0  0  0  0
 20 21  2  0  0  0  0
 21 22  1  0  0  0  0
 22 23  1  0  0  0  0
 23 24  2  3  0  0  0
 23 52  1  0  0  0  0
 24 25  1  0  0  0  0
 24 53  1  0  0  0  0
 25 26  2  3  0  0  0
 25 54  1  0  0  0  0
 26 55  1  0  0  0  0
M  END
$$$$
