
 OpenBabel04232216493D

 40 41  0  0  0  0  0  0  0  0999 V2000
    4.3862   -1.1959   -1.6027 C   0  0  0  0  0  0  0  0  0  0  0  0
    5.1222   -2.1799   -0.7145 C   0  0  0  0  0  0  0  0  0  0  0  0
    4.3522   -2.5774    0.3385 C   0  0  0  0  0  0  0  0  0  0  0  0
    4.4847   -1.7955    1.5977 C   0  0  0  0  0  0  0  0  0  0  0  0
    4.9694   -2.3704    2.7161 C   0  0  0  0  0  0  0  0  0  0  0  0
    6.4410   -2.5710    2.7301 C   0  0  0  0  0  0  0  0  0  0  0  0
    7.1954   -1.4502    2.6424 C   0  0  0  0  0  0  0  0  0  0  0  0
    7.0018   -3.9141    2.4447 C   0  0  0  0  0  0  0  0  0  0  0  0
    6.1058   -5.0355    1.9283 C   0  0  0  0  0  0  0  0  0  0  0  0
    8.3407   -4.0792    2.3482 C   0  0  0  0  0  0  0  0  0  0  0  0
    8.6994   -4.5617    0.9689 C   0  0  0  0  0  0  0  0  0  0  0  0
    9.2454   -5.6442    0.7931 O   0  0  0  0  0  0  0  0  0  0  0  0
    8.6095   -3.4784    0.0818 N   0  0  0  0  0  0  0  0  0  0  0  0
    9.9251   -3.2293   -0.4900 C   0  0  0  0  0  0  0  0  0  0  0  0
   10.1309   -1.7802   -0.5492 C   0  0  0  0  0  0  0  0  0  0  0  0
    9.9132   -0.8665   -1.5494 C   0  0  0  0  0  0  0  0  0  0  0  0
    9.9358    0.3927   -0.9289 C   0  0  0  0  0  0  0  0  0  0  0  0
   10.3314    0.1873    0.3764 C   0  0  0  0  0  0  0  0  0  0  0  0
   10.4616   -1.1458    0.6128 O   0  0  0  0  0  0  0  0  0  0  0  0
    7.3796   -3.2933   -0.6144 C   0  0  0  0  0  0  0  0  0  0  0  0
    6.6208   -2.1631   -0.6249 C   0  0  0  0  0  0  0  0  0  0  0  0
    3.3152   -1.4519   -1.6779 H   0  0  0  0  0  0  0  0  0  0  0  0
    4.7777   -1.1307   -2.6159 H   0  0  0  0  0  0  0  0  0  0  0  0
    4.4179   -0.1948   -1.1400 H   0  0  0  0  0  0  0  0  0  0  0  0
    3.2801   -2.7164    0.1768 H   0  0  0  0  0  0  0  0  0  0  0  0
    4.8859   -0.8068    1.3520 H   0  0  0  0  0  0  0  0  0  0  0  0
    4.4631   -3.2615    3.0821 H   0  0  0  0  0  0  0  0  0  0  0  0
    6.7610   -0.4540    2.6557 H   0  0  0  0  0  0  0  0  0  0  0  0
    8.2531   -1.4581    2.3975 H   0  0  0  0  0  0  0  0  0  0  0  0
    5.0410   -4.8034    1.8884 H   0  0  0  0  0  0  0  0  0  0  0  0
    6.2115   -5.9207    2.5620 H   0  0  0  0  0  0  0  0  0  0  0  0
    6.3576   -5.3477    0.9101 H   0  0  0  0  0  0  0  0  0  0  0  0
    9.0759   -3.3788    2.7188 H   0  0  0  0  0  0  0  0  0  0  0  0
   10.0307   -3.7481   -1.4458 H   0  0  0  0  0  0  0  0  0  0  0  0
   10.6970   -3.6471    0.1801 H   0  0  0  0  0  0  0  0  0  0  0  0
    9.6453   -1.1148   -2.5664 H   0  0  0  0  0  0  0  0  0  0  0  0
    9.6767    1.3444   -1.3629 H   0  0  0  0  0  0  0  0  0  0  0  0
   10.4869    0.8250    1.2244 H   0  0  0  0  0  0  0  0  0  0  0  0
    6.8811   -4.2318   -0.8445 H   0  0  0  0  0  0  0  0  0  0  0  0
    7.0429   -1.2043   -0.3306 H   0  0  0  0  0  0  0  0  0  0  0  0
  1  2  1  0  0  0  0
  1 22  1  0  0  0  0
  1 23  1  0  0  0  0
  1 24  1  0  0  0  0
  2  3  2  3  0  0  0
  2 21  1  0  0  0  0
  3  4  1  0  0  0  0
  3 25  1  0  0  0  0
  4  5  2  3  0  0  0
  4 26  1  0  0  0  0
  5  6  1  0  0  0  0
  5 27  1  0  0  0  0
  6  7  2  0  0  0  0
  6  8  1  0  0  0  0
  7 28  1  0  0  0  0
  7 29  1  0  0  0  0
  8  9  1  0  0  0  0
  8 10  2  3  0  0  0
  9 30  1  0  0  0  0
  9 31  1  0  0  0  0
  9 32  1  0  0  0  0
 10 11  1  0  0  0  0
 10 33  1  0  0  0  0
 11 12  2  0  0  0  0
 11 13  1  0  0  0  0
 13 14  1  0  0  0  0
 13 20  1  0  0  0  0
 14 15  1  0  0  0  0
 14 34  1  0  0  0  0
 14 35  1  0  0  0  0
 15 16  2  0  0  0  0
 15 19  1  0  0  0  0
 16 17  1  0  0  0  0
 16 36  1  0  0  0  0
 17 18  2  0  0  0  0
 17 37  1  0  0  0  0
 18 19  1  0  0  0  0
 18 38  1  0  0  0  0
 20 21  2  3  0  0  0
 20 39  1  0  0  0  0
 21 40  1  0  0  0  0
M  END
$$$$
