
 OpenBabel04232216483D

 41 42  0  0  0  0  0  0  0  0999 V2000
    1.7968    0.6297   -0.4311 C   0  0  0  0  0  0  0  0  0  0  0  0
    3.2173    1.3279   -0.5200 C   0  0  0  0  0  0  0  0  0  0  0  0
    3.3734    0.7711    0.9018 C   0  0  0  0  0  3  0  0  0  0  0  0
    4.7085    0.6161    1.3400 C   0  0  0  0  0  0  0  0  0  0  0  0
    5.2846    1.8809    0.7567 C   0  0  0  0  0  0  0  0  0  0  0  0
    4.5205    3.2449    1.3371 C   0  0  0  0  0  0  0  0  0  0  0  0
    4.3470    3.8172    2.7412 C   0  0  0  0  0  0  0  0  0  0  0  0
    5.7815    4.0897    3.3027 C   0  0  0  0  0  0  0  0  0  0  0  0
    4.4892    1.9330   -0.5590 C   0  0  0  0  0  0  0  0  0  0  0  0
    5.2105    3.1405   -1.3206 C   0  0  0  0  0  0  0  0  0  0  0  0
    4.5549    4.0260   -1.8710 O   0  0  0  0  0  0  0  0  0  0  0  0
    6.6787    3.4555   -1.2134 C   0  0  0  0  0  3  0  0  0  0  0  0
    7.9314    3.6894   -1.5440 C   0  0  0  0  0  0  0  0  0  0  0  0
    9.2966    3.1740   -1.1066 C   0  0  0  0  0  0  0  0  0  0  0  0
    9.5801    1.7449   -1.5807 C   0  0  0  0  0  0  0  0  0  0  0  0
    8.8912    0.6130   -0.7954 C   0  0  0  0  0  0  0  0  0  0  0  0
    7.3667    0.7538   -0.5809 C   0  0  0  0  0  0  0  0  0  0  0  0
    6.8627    1.5165    0.7268 C   0  0  0  0  0  0  0  0  0  0  0  0
    1.8405   -0.4501   -0.6720 H   0  0  0  0  0  0  0  0  0  0  0  0
    1.0319    1.0978   -1.0582 H   0  0  0  0  0  0  0  0  0  0  0  0
    1.2730    0.6424    0.5565 H   0  0  0  0  0  0  0  0  0  0  0  0
    2.7306    1.2438    1.6661 H   0  0  0  0  0  0  0  0  0  0  0  0
    5.0941   -0.3258    0.9272 H   0  0  0  0  0  0  0  0  0  0  0  0
    3.6008    3.4460    0.7791 H   0  0  0  0  0  0  0  0  0  0  0  0
    5.1178    4.0980    0.9439 H   0  0  0  0  0  0  0  0  0  0  0  0
    3.8352    3.1726    3.4571 H   0  0  0  0  0  0  0  0  0  0  0  0
    3.8016    4.7570    2.6438 H   0  0  0  0  0  0  0  0  0  0  0  0
    6.3453    3.1520    3.4355 H   0  0  0  0  0  0  0  0  0  0  0  0
    5.7671    4.5868    4.2737 H   0  0  0  0  0  0  0  0  0  0  0  0
    6.3710    4.6993    2.6036 H   0  0  0  0  0  0  0  0  0  0  0  0
    7.9599    3.8075   -2.6190 H   0  0  0  0  0  0  0  0  0  0  0  0
    9.5561    3.2963   -0.0492 H   0  0  0  0  0  0  0  0  0  0  0  0
   10.0210    3.8151   -1.6442 H   0  0  0  0  0  0  0  0  0  0  0  0
   10.6676    1.5711   -1.5516 H   0  0  0  0  0  0  0  0  0  0  0  0
    9.3115    1.6634   -2.6446 H   0  0  0  0  0  0  0  0  0  0  0  0
    9.4162    0.4285    0.1469 H   0  0  0  0  0  0  0  0  0  0  0  0
    9.0539   -0.2920   -1.4036 H   0  0  0  0  0  0  0  0  0  0  0  0
    6.9298   -0.2511   -0.6016 H   0  0  0  0  0  0  0  0  0  0  0  0
    6.9781    1.2027   -1.4939 H   0  0  0  0  0  0  0  0  0  0  0  0
    7.4910    2.3769    0.9742 H   0  0  0  0  0  0  0  0  0  0  0  0
    7.0950    0.8155    1.5515 H   0  0  0  0  0  0  0  0  0  0  0  0
  1  2  1  0  0  0  0
  1 19  1  0  0  0  0
  1 20  1  0  0  0  0
  1 21  1  0  0  0  0
  2  3  1  0  0  0  0
  2  9  2  0  0  0  0
  3  4  1  0  0  0  0
  3 22  1  0  0  0  0
  4  5  2  0  0  0  0
  4 23  1  0  0  0  0
  5  6  1  0  0  0  0
  5  9  1  0  0  0  0
  5 18  1  0  0  0  0
  6  7  1  0  0  0  0
  6 24  1  0  0  0  0
  6 25  1  0  0  0  0
  7  8  1  0  0  0  0
  7 26  1  0  0  0  0
  7 27  1  0  0  0  0
  8 28  1  0  0  0  0
  8 29  1  0  0  0  0
  8 30  1  0  0  0  0
  9 10  1  0  0  0  0
 10 11  2  0  0  0  0
 10 12  1  0  0  0  0
 12 13  2  3  0  0  0
 13 14  1  0  0  0  0
 13 31  1  0  0  0  0
 14 15  1  0  0  0  0
 14 32  1  0  0  0  0
 14 33  1  0  0  0  0
 15 16  1  0  0  0  0
 15 34  1  0  0  0  0
 15 35  1  0  0  0  0
 16 17  1  0  0  0  0
 16 36  1  0  0  0  0
 16 37  1  0  0  0  0
 17 18  1  0  0  0  0
 17 38  1  0  0  0  0
 17 39  1  0  0  0  0
 18 40  1  0  0  0  0
 18 41  1  0  0  0  0
M  END
$$$$
