
 OpenBabel04232216483D

 58 58  0  0  1  0  0  0  0  0999 V2000
    2.7088    0.4226   -0.9362 C   0  0  0  0  0  0  0  0  0  0  0  0
    3.7805   -0.4391   -0.2996 C   0  0  0  0  0  0  0  0  0  0  0  0
    3.2717   -1.6645    0.0109 C   0  0  0  0  0  0  0  0  0  0  0  0
    3.8820   -2.8774    0.5139 C   0  0  0  0  0  0  0  0  0  0  0  0
    4.4611   -3.6304   -0.4600 C   0  0  0  0  0  0  0  0  0  0  0  0
    3.7489   -4.3255   -1.6063 C   0  0  0  0  0  0  0  0  0  0  0  0
    2.2476   -4.5358   -1.4231 C   0  0  0  0  0  0  0  0  0  0  0  0
    5.7441   -2.9911   -0.8606 C   0  0  0  0  0  0  0  0  0  0  0  0
    7.0610   -3.6340   -1.1665 C   0  0  0  0  0  0  0  0  0  0  0  0
    8.0528   -2.4747   -0.8936 C   0  0  0  0  0  0  0  0  0  0  0  0
    7.5485   -1.0508   -1.3633 C   0  0  0  0  0  0  0  0  0  0  0  0
    6.6914    0.0084   -0.5052 C   0  0  0  0  0  0  0  0  0  0  0  0
    5.1522    0.2292    0.1263 C   0  0  3  0  0  0  0  0  0  0  0  0
    5.0387    1.8864    0.3166 C   0  0  0  0  0  0  0  0  0  0  0  0
    3.7734    2.5891    0.9168 C   0  0  0  0  0  0  0  0  0  0  0  0
    3.8430    4.1132    1.3001 C   0  0  0  0  0  0  0  0  0  0  0  0
    4.0532    5.1514    0.1514 C   0  0  3  0  0  0  0  0  0  0  0  0
    2.9310    5.1324   -0.9106 C   0  0  0  0  0  0  0  0  0  0  0  0
    1.7076    5.6761   -0.4373 O   0  0  0  0  0  0  0  0  0  0  0  0
    4.1708    6.6328    0.6336 C   0  0  0  0  0  0  0  0  0  0  0  0
    5.2752    6.8811    1.5683 N   0  0  0  0  0  0  0  0  0  0  0  0
    5.4681    8.3117    1.7429 N   0  0  0  0  0  0  0  0  0  0  0  0
    2.0413   -0.1618   -1.5866 H   0  0  0  0  0  0  0  0  0  0  0  0
    3.1185    1.2176   -1.5546 H   0  0  0  0  0  0  0  0  0  0  0  0
    2.0542    0.8217   -0.1506 H   0  0  0  0  0  0  0  0  0  0  0  0
    2.2110   -1.8605   -0.2234 H   0  0  0  0  0  0  0  0  0  0  0  0
    4.5163   -2.5935    1.3619 H   0  0  0  0  0  0  0  0  0  0  0  0
    4.2179   -5.3026   -1.7545 H   0  0  0  0  0  0  0  0  0  0  0  0
    3.8965   -3.7556   -2.5365 H   0  0  0  0  0  0  0  0  0  0  0  0
    2.0205   -4.9671   -0.4448 H   0  0  0  0  0  0  0  0  0  0  0  0
    1.8706   -5.2138   -2.1953 H   0  0  0  0  0  0  0  0  0  0  0  0
    1.6969   -3.5965   -1.5291 H   0  0  0  0  0  0  0  0  0  0  0  0
    5.9938   -2.3413   -0.0198 H   0  0  0  0  0  0  0  0  0  0  0  0
    5.4971   -2.3573   -1.7240 H   0  0  0  0  0  0  0  0  0  0  0  0
    7.1083   -3.9488   -2.2133 H   0  0  0  0  0  0  0  0  0  0  0  0
    7.2753   -4.5075   -0.5432 H   0  0  0  0  0  0  0  0  0  0  0  0
    8.9872   -2.7307   -1.4172 H   0  0  0  0  0  0  0  0  0  0  0  0
    8.3029   -2.4537    0.1744 H   0  0  0  0  0  0  0  0  0  0  0  0
    7.1407   -1.1277   -2.3781 H   0  0  0  0  0  0  0  0  0  0  0  0
    8.5071   -0.5231   -1.5050 H   0  0  0  0  0  0  0  0  0  0  0  0
    6.8299    0.9085   -1.1207 H   0  0  0  0  0  0  0  0  0  0  0  0
    7.3299    0.1719    0.3768 H   0  0  0  0  0  0  0  0  0  0  0  0
    5.2667   -0.1289    1.1606 H   0  0  0  0  0  0  0  0  0  0  0  0
    5.2153    2.3391   -0.6685 H   0  0  0  0  0  0  0  0  0  0  0  0
    5.8880    2.1738    0.9493 H   0  0  0  0  0  0  0  0  0  0  0  0
    3.4661    2.0355    1.8115 H   0  0  0  0  0  0  0  0  0  0  0  0
    2.9472    2.5399    0.2125 H   0  0  0  0  0  0  0  0  0  0  0  0
    4.6219    4.2399    2.0590 H   0  0  0  0  0  0  0  0  0  0  0  0
    2.8955    4.3581    1.8007 H   0  0  0  0  0  0  0  0  0  0  0  0
    4.9864    4.8829   -0.3511 H   0  0  0  0  0  0  0  0  0  0  0  0
    2.7416    4.1231   -1.2949 H   0  0  0  0  0  0  0  0  0  0  0  0
    3.2331    5.7418   -1.7671 H   0  0  0  0  0  0  0  0  0  0  0  0
    1.3915    5.1370    0.3057 H   0  0  0  0  0  0  0  0  0  0  0  0
    3.2339    6.9627    1.1016 H   0  0  0  0  0  0  0  0  0  0  0  0
    4.3172    7.2583   -0.2599 H   0  0  0  0  0  0  0  0  0  0  0  0
    6.1306    6.4379    1.2286 H   0  0  0  0  0  0  0  0  0  0  0  0
    4.6500    8.7620    2.1651 H   0  0  0  0  0  0  0  0  0  0  0  0
    5.6449    8.8058    0.8631 H   0  0  0  0  0  0  0  0  0  0  0  0
  1  2  1  0  0  0  0
  1 23  1  0  0  0  0
  1 24  1  0  0  0  0
  1 25  1  0  0  0  0
  2  3  2  3  0  0  0
  2 13  1  0  0  0  0
  3  4  1  0  0  0  0
  3 26  1  0  0  0  0
  4  5  2  3  0  0  0
  4 27  1  0  0  0  0
  5  6  1  0  0  0  0
  5  8  1  0  0  0  0
  6  7  1  0  0  0  0
  6 28  1  0  0  0  0
  6 29  1  0  0  0  0
  7 30  1  0  0  0  0
  7 31  1  0  0  0  0
  7 32  1  0  0  0  0
  8  9  1  0  0  0  0
  8 33  1  0  0  0  0
  8 34  1  0  0  0  0
  9 10  1  0  0  0  0
  9 35  1  0  0  0  0
  9 36  1  0  0  0  0
 10 11  1  0  0  0  0
 10 37  1  0  0  0  0
 10 38  1  0  0  0  0
 11 12  1  0  0  0  0
 11 39  1  0  0  0  0
 11 40  1  0  0  0  0
 12 13  1  0  0  0  0
 12 41  1  0  0  0  0
 12 42  1  0  0  0  0
 13 14  1  0  0  0  0
 13 43  1  0  0  0  0
 14 15  1  0  0  0  0
 14 44  1  0  0  0  0
 14 45  1  0  0  0  0
 15 16  1  0  0  0  0
 15 46  1  0  0  0  0
 15 47  1  0  0  0  0
 16 17  1  0  0  0  0
 16 48  1  0  0  0  0
 16 49  1  0  0  0  0
 17 18  1  0  0  0  0
 17 20  1  0  0  0  0
 17 50  1  0  0  0  0
 18 19  1  0  0  0  0
 18 51  1  0  0  0  0
 18 52  1  0  0  0  0
 19 53  1  0  0  0  0
 20 21  1  0  0  0  0
 20 54  1  0  0  0  0
 20 55  1  0  0  0  0
 21 22  1  0  0  0  0
 21 56  1  0  0  0  0
 22 57  1  0  0  0  0
 22 58  1  0  0  0  0
M  END
$$$$
