
 OpenBabel04232216473D

101101  0  0  1  0  0  0  0  0999 V2000
    1.8794   -2.4802   14.9039 C   0  0  0  0  0  0  0  0  0  0  0  0
    0.9849   -2.5473   16.1295 C   0  0  3  0  0  0  0  0  0  0  0  0
   -0.3260   -2.5157   16.0654 C   0  0  0  0  0  0  0  0  0  0  0  0
    0.0918   -1.2937   16.4014 C   0  0  0  0  0  0  0  0  0  0  0  0
    1.1500   -0.3540   16.6183 O   0  0  0  0  0  0  0  0  0  0  0  0
    0.6509    1.0148   16.9396 O   0  0  0  0  0  0  0  0  0  0  0  0
    1.2283    1.9633   16.0030 C   0  0  0  0  0  0  0  0  0  0  0  0
    0.7820    3.4253   16.2883 C   0  0  0  0  0  0  0  0  0  0  0  0
    1.2847    4.3761   15.3328 O   0  0  0  0  0  0  0  0  0  0  0  0
    0.8262    4.1115   14.0066 C   0  0  0  0  0  0  0  0  0  0  0  0
    1.3686    5.1367   13.0270 C   0  0  0  0  0  0  0  0  0  0  0  0
    2.9009    5.1371   13.0198 C   0  0  0  0  0  0  0  0  0  0  0  0
    3.4306    6.1556   12.0397 C   0  0  0  0  0  0  0  0  0  0  0  0
    2.9453    7.4204   12.4280 O   0  0  0  0  0  0  0  0  0  0  0  0
    3.4288    8.4127   11.5438 C   0  0  0  0  0  0  0  0  0  0  0  0
    2.9459    9.6711   11.9336 O   0  0  0  0  0  0  0  0  0  0  0  0
    3.4007    9.9370   13.2347 C   0  0  0  0  0  0  0  0  0  0  0  0
    2.8844   11.1777   13.5624 O   0  0  0  0  0  0  0  0  0  0  0  0
    3.3839   11.3632   14.8583 O   0  0  0  0  0  0  0  0  0  0  0  0
    2.9192   12.6003   15.2818 O   0  0  0  0  0  0  0  0  0  0  0  0
    3.4039   12.8025   16.5615 O   0  0  0  0  0  0  0  0  0  0  0  0
    2.9241   14.0378   16.9504 O   0  0  0  0  0  0  0  0  0  0  0  0
    3.4019   14.2474   18.2236 O   0  0  0  0  0  0  0  0  0  0  0  0
    2.9191   15.4776   18.6002 O   0  0  0  0  0  0  0  0  0  0  0  0
    3.3980   15.6808   19.8686 O   0  0  0  0  0  0  0  0  0  0  0  0
    2.9158   16.9066   20.2414 O   0  0  0  0  0  0  0  0  0  0  0  0
    3.3974   17.1025   21.5070 O   0  0  0  0  0  0  0  0  0  0  0  0
    2.9173   18.3257   21.8813 O   0  0  0  0  0  0  0  0  0  0  0  0
    3.4007   18.5159   23.1443 O   0  0  0  0  0  0  0  0  0  0  0  0
    2.9202   19.7378   23.5162 O   0  0  0  0  0  0  0  0  0  0  0  0
    3.4018   19.9302   24.7780 O   0  0  0  0  0  0  0  0  0  0  0  0
    2.9194   21.1518   25.1455 O   0  0  0  0  0  0  0  0  0  0  0  0
    3.4009   21.3440   26.4068 O   0  0  0  0  0  0  0  0  0  0  0  0
    2.9192   22.5650   26.7751 O   0  0  0  0  0  0  0  0  0  0  0  0
    3.4011   22.7563   28.0360 O   0  0  0  0  0  0  0  0  0  0  0  0
    2.9193   23.9774   28.4042 O   0  0  0  0  0  0  0  0  0  0  0  0
    3.4012   24.1686   29.6650 O   0  0  0  0  0  0  0  0  0  0  0  0
    2.9193   25.3895   30.0330 O   0  0  0  0  0  0  0  0  0  0  0  0
    3.4012   25.5807   31.2938 O   0  0  0  0  0  0  0  0  0  0  0  0
    2.9193   26.8016   31.6617 O   0  0  0  0  0  0  0  0  0  0  0  0
    3.4012   26.9928   32.9224 O   0  0  0  0  0  0  0  0  0  0  0  0
    2.9193   28.2137   33.2904 O   0  0  0  0  0  0  0  0  0  0  0  0
    3.4012   28.4048   34.5511 O   0  0  0  0  0  0  0  0  0  0  0  0
    2.9193   29.6257   34.9190 O   0  0  0  0  0  0  0  0  0  0  0  0
    3.4012   29.8168   36.1797 O   0  0  0  0  0  0  0  0  0  0  0  0
    2.9193   31.0377   36.5477 O   0  0  0  0  0  0  0  0  0  0  0  0
    3.4012   31.2289   37.8084 O   0  0  0  0  0  0  0  0  0  0  0  0
    2.9193   32.4498   38.1763 O   0  0  0  0  0  0  0  0  0  0  0  0
    3.4012   32.6409   39.4370 O   0  0  0  0  0  0  0  0  0  0  0  0
    2.9194   33.8618   39.8050 O   0  0  0  0  0  0  0  0  0  0  0  0
    3.4012   34.0530   41.0657 O   0  0  0  0  0  0  0  0  0  0  0  0
    2.9194   35.2739   41.4336 O   0  0  0  0  0  0  0  0  0  0  0  0
    3.4012   35.4650   42.6944 O   0  0  0  0  0  0  0  0  0  0  0  0
    2.9194   36.6859   43.0623 O   0  0  0  0  0  0  0  0  0  0  0  0
    3.4012   36.8771   44.3230 O   0  0  0  0  0  0  0  0  0  0  0  0
    2.9194   38.0980   44.6909 O   0  0  0  0  0  0  0  0  0  0  0  0
    3.4012   38.2891   45.9517 O   0  0  0  0  0  0  0  0  0  0  0  0
    2.9194   39.5100   46.3196 O   0  0  0  0  0  0  0  0  0  0  0  0
    3.4012   39.7011   47.5803 O   0  0  0  0  0  0  0  0  0  0  0  0
    2.9194   40.9221   47.9483 O   0  0  0  0  0  0  0  0  0  0  0  0
    3.4013   41.1132   49.2091 O   0  0  0  0  0  0  0  0  0  0  0  0
    2.9195   42.3342   49.5772 O   0  0  0  0  0  0  0  0  0  0  0  0
    3.4013   42.5256   50.8381 O   0  0  0  0  0  0  0  0  0  0  0  0
    2.9196   43.7466   51.2064 O   0  0  0  0  0  0  0  0  0  0  0  0
    3.4010   43.9391   52.4678 O   0  0  0  0  0  0  0  0  0  0  0  0
    2.9185   45.1608   52.8352 O   0  0  0  0  0  0  0  0  0  0  0  0
    3.4002   45.3532   54.0971 O   0  0  0  0  0  0  0  0  0  0  0  0
    2.9200   46.5755   54.4701 O   0  0  0  0  0  0  0  0  0  0  0  0
    3.4035   46.7662   55.7340 O   0  0  0  0  0  0  0  0  0  0  0  0
    2.9239   47.9903   56.1103 O   0  0  0  0  0  0  0  0  0  0  0  0
    3.4050   48.1886   57.3777 O   0  0  0  0  0  0  0  0  0  0  0  0
    2.9226   49.4174   57.7535 O   0  0  0  0  0  0  0  0  0  0  0  0
    3.4005   49.6259   59.0257 O   0  0  0  0  0  0  0  0  0  0  0  0
    2.9181   50.8611   59.4094 O   0  0  0  0  0  0  0  0  0  0  0  0
    3.3973   51.0753   60.6913 O   0  0  0  0  0  0  0  0  0  0  0  0
    2.9369   52.3216   61.1010 O   0  0  0  0  0  0  0  0  0  0  0  0
    3.4291   52.5422   62.4038 O   0  0  0  0  0  0  0  0  0  0  0  0
    2.9351   53.7993   62.8385 O   0  0  0  0  0  0  0  0  0  0  0  0
    1.4914   53.7624   62.8148 O   0  0  0  0  0  0  0  0  0  0  0  0
    2.2360   -3.4843   14.6607 H   0  0  0  0  0  0  0  0  0  0  0  0
    2.7407   -1.8321   15.0947 H   0  0  0  0  0  0  0  0  0  0  0  0
    1.3415   -2.0812   14.0352 H   0  0  0  0  0  0  0  0  0  0  0  0
    1.5143   -2.9429   16.9969 H   0  0  0  0  0  0  0  0  0  0  0  0
   -1.0424   -3.2397   15.8662 H   0  0  0  0  0  0  0  0  0  0  0  0
    0.8934    1.6990   14.9979 H   0  0  0  0  0  0  0  0  0  0  0  0
    2.3269    1.9482   15.9897 H   0  0  0  0  0  0  0  0  0  0  0  0
    1.1364    3.7448   17.2793 H   0  0  0  0  0  0  0  0  0  0  0  0
   -0.3094    3.5111   16.2916 H   0  0  0  0  0  0  0  0  0  0  0  0
   -0.2674    4.1200   13.9858 H   0  0  0  0  0  0  0  0  0  0  0  0
    1.1773    3.1251   13.7003 H   0  0  0  0  0  0  0  0  0  0  0  0
    0.9933    6.1307   13.2922 H   0  0  0  0  0  0  0  0  0  0  0  0
    0.9946    4.9227   12.0178 H   0  0  0  0  0  0  0  0  0  0  0  0
    3.2835    4.1488   12.7465 H   0  0  0  0  0  0  0  0  0  0  0  0
    3.2800    5.3681   14.0230 H   0  0  0  0  0  0  0  0  0  0  0  0
    3.0756    5.9480   11.0281 H   0  0  0  0  0  0  0  0  0  0  0  0
    4.5219    6.1717   12.0520 H   0  0  0  0  0  0  0  0  0  0  0  0
    3.0675    8.2183   10.5347 H   0  0  0  0  0  0  0  0  0  0  0  0
    4.5237    8.4345   11.5535 H   0  0  0  0  0  0  0  0  0  0  0  0
    4.4992    9.9720   13.2832 H   0  0  0  0  0  0  0  0  0  0  0  0
    3.0326    9.1987   13.9664 H   0  0  0  0  0  0  0  0  0  0  0  0
    1.4011   54.6733   63.1240 H   0  0  0  0  0  0  0  0  0  0  0  0
  1  2  1  0  0  0  0
  1 80  1  0  0  0  0
  1 81  1  0  0  0  0
  1 82  1  0  0  0  0
  2  3  1  0  0  0  0
  2  4  1  0  0  0  0
  2 83  1  0  0  0  0
  3  4  2  0  0  0  0
  3 84  1  0  0  0  0
  4  5  1  0  0  0  0
  5  6  1  0  0  0  0
  6  7  1  0  0  0  0
  7  8  1  0  0  0  0
  7 85  1  0  0  0  0
  7 86  1  0  0  0  0
  8  9  1  0  0  0  0
  8 87  1  0  0  0  0
  8 88  1  0  0  0  0
  9 10  1  0  0  0  0
 10 11  1  0  0  0  0
 10 89  1  0  0  0  0
 10 90  1  0  0  0  0
 11 12  1  0  0  0  0
 11 91  1  0  0  0  0
 11 92  1  0  0  0  0
 12 13  1  0  0  0  0
 12 93  1  0  0  0  0
 12 94  1  0  0  0  0
 13 14  1  0  0  0  0
 13 95  1  0  0  0  0
 13 96  1  0  0  0  0
 14 15  1  0  0  0  0
 15 16  1  0  0  0  0
 15 97  1  0  0  0  0
 15 98  1  0  0  0  0
 16 17  1  0  0  0  0
 17 18  1  0  0  0  0
 17 99  1  0  0  0  0
 17100  1  0  0  0  0
 18 19  1  0  0  0  0
 19 20  1  0  0  0  0
 20 21  1  0  0  0  0
 21 22  1  0  0  0  0
 22 23  1  0  0  0  0
 23 24  1  0  0  0  0
 24 25  1  0  0  0  0
 25 26  1  0  0  0  0
 26 27  1  0  0  0  0
 27 28  1  0  0  0  0
 28 29  1  0  0  0  0
 29 30  1  0  0  0  0
 30 31  1  0  0  0  0
 31 32  1  0  0  0  0
 32 33  1  0  0  0  0
 33 34  1  0  0  0  0
 34 35  1  0  0  0  0
 35 36  1  0  0  0  0
 36 37  1  0  0  0  0
 37 38  1  0  0  0  0
 38 39  1  0  0  0  0
 39 40  1  0  0  0  0
 40 41  1  0  0  0  0
 41 42  1  0  0  0  0
 42 43  1  0  0  0  0
 43 44  1  0  0  0  0
 44 45  1  0  0  0  0
 45 46  1  0  0  0  0
 46 47  1  0  0  0  0
 47 48  1  0  0  0  0
 48 49  1  0  0  0  0
 49 50  1  0  0  0  0
 50 51  1  0  0  0  0
 51 52  1  0  0  0  0
 52 53  1  0  0  0  0
 53 54  1  0  0  0  0
 54 55  1  0  0  0  0
 55 56  1  0  0  0  0
 56 57  1  0  0  0  0
 57 58  1  0  0  0  0
 58 59  1  0  0  0  0
 59 60  1  0  0  0  0
 60 61  1  0  0  0  0
 61 62  1  0  0  0  0
 62 63  1  0  0  0  0
 63 64  1  0  0  0  0
 64 65  1  0  0  0  0
 65 66  1  0  0  0  0
 66 67  1  0  0  0  0
 67 68  1  0  0  0  0
 68 69  1  0  0  0  0
 69 70  1  0  0  0  0
 70 71  1  0  0  0  0
 71 72  1  0  0  0  0
 72 73  1  0  0  0  0
 73 74  1  0  0  0  0
 74 75  1  0  0  0  0
 75 76  1  0  0  0  0
 76 77  1  0  0  0  0
 77 78  1  0  0  0  0
 78 79  1  0  0  0  0
 79101  1  0  0  0  0
M  END
$$$$
