
 OpenBabel04232216553D

192191  0  0  0  0  0  0  0  0999 V2000
   41.3257   23.0593   26.7717 C   0  0  0  0  0  0  0  0  0  0  0  0
   40.9865   23.9068   25.6297 N   0  0  0  0  0  0  0  0  0  0  0  0
   41.4348   25.2814   25.8706 C   0  0  0  0  0  0  0  0  0  0  0  0
   41.5832   23.3284   24.4181 C   0  0  0  0  0  0  0  0  0  0  0  0
   41.2431   24.1254   23.1656 C   0  0  0  0  0  0  0  0  0  0  0  0
   41.8746   23.4554   21.9498 C   0  0  0  0  0  0  0  0  0  0  0  0
   41.5451   24.3000   20.7369 C   0  0  0  0  0  0  0  0  0  0  0  0
   42.1414   23.7387   19.4498 C   0  0  0  0  0  0  0  0  0  0  0  0
   41.7459   24.6580   18.3576 C   0  0  0  0  0  0  0  0  0  0  0  0
   42.2746   24.2094   17.0162 C   0  0  0  0  0  0  0  0  0  0  0  0
   41.6896   25.1135   15.8836 C   0  0  0  0  0  0  0  0  0  0  0  0
   42.5090   25.0235   14.6546 O   0  0  0  0  0  0  0  0  0  0  0  0
   42.3206   25.8971   13.4980 C   0  0  0  0  0  0  0  0  0  0  0  0
   43.6256   26.0245   12.3052 C   0  0  0  0  0  0  0  0  0  0  0  0
   43.3439   26.3009   10.9124 O   0  0  0  0  0  0  0  0  0  0  0  0
   43.4677   27.7386   10.8131 C   0  0  0  0  0  0  0  0  0  0  0  0
   42.9340   28.1157    9.4631 C   0  0  0  0  0  0  0  0  0  0  0  0
   41.1254   28.3308    9.3928 S   0  0  0  0  0  0  0  0  0  0  0  0
   40.6126   28.6356   11.1385 C   0  0  0  0  0  0  0  0  0  0  0  0
   41.1590   29.9714   11.5891 C   0  0  0  0  0  0  0  0  0  0  0  0
   40.6000   30.4552   13.2510 S   0  0  0  0  0  0  0  0  0  0  0  0
   41.4865   29.2983   14.4123 C   0  0  0  0  0  0  0  0  0  0  0  0
   43.0300   29.2938   14.2679 C   0  0  0  0  0  0  0  0  0  0  0  0
   44.2474   28.6240   15.5807 S   0  0  0  0  0  0  0  0  0  0  0  0
   44.1316   26.7061   15.6683 C   0  0  0  0  0  0  0  0  0  0  0  0
   44.9381   25.7580   14.5960 C   0  0  0  0  0  0  0  0  0  0  0  0
   44.8451   23.6551   13.7519 S   0  0  0  0  0  0  0  0  0  0  0  0
   44.1702   22.9641   11.6537 C   0  0  0  0  0  0  0  0  0  0  0  0
   42.6476   21.9250   10.9902 C   0  0  0  0  0  0  0  0  0  0  0  0
   40.3728   22.5626   10.8826 S   0  0  0  0  0  0  0  0  0  0  0  0
   40.0960   24.5931    9.8952 C   0  0  0  0  0  0  0  0  0  0  0  0
   39.0910   25.7210   10.2500 C   0  0  0  0  0  0  0  0  0  0  0  0
   38.9984   25.9734   12.1611 S   0  0  0  0  0  0  0  0  0  0  0  0
   38.6522   24.2044   12.9415 C   0  0  0  0  0  0  0  0  0  0  0  0
   37.9462   23.9456   14.2910 C   0  0  0  0  0  0  0  0  0  0  0  0
   37.6756   22.1611   14.7868 S   0  0  0  0  0  0  0  0  0  0  0  0
   39.3077   21.4682   14.4260 C   0  0  0  0  0  0  0  0  0  0  0  0
   40.2581   22.3969   15.1109 C   0  0  0  0  0  0  0  0  0  0  0  0
   41.9531   22.1528   14.6752 S   0  0  0  0  0  0  0  0  0  0  0  0
   41.9532   22.8669   12.9895 C   0  0  0  0  0  0  0  0  0  0  0  0
   42.0014   24.0347   11.5240 C   0  0  0  0  0  0  0  0  0  0  0  0
   42.4008   23.7050    9.2328 S   0  0  0  0  0  0  0  0  0  0  0  0
   40.9653   22.1765    8.4430 C   0  0  0  0  0  0  0  0  0  0  0  0
   39.3154   21.7928    8.7797 C   0  0  0  0  0  0  0  0  0  0  0  0
   38.0929   23.2373    8.6340 S   0  0  0  0  0  0  0  0  0  0  0  0
   37.4002   24.1193   10.5072 C   0  0  0  0  0  0  0  0  0  0  0  0
   36.2244   25.3435   11.5407 C   0  0  0  0  0  0  0  0  0  0  0  0
   33.9047   24.8333   11.8464 S   0  0  0  0  0  0  0  0  0  0  0  0
   34.1751   22.5868   11.0436 C   0  0  0  0  0  0  0  0  0  0  0  0
   35.3602   21.2817   11.6413 C   0  0  0  0  0  0  0  0  0  0  0  0
   35.0372   19.5598   11.2381 S   0  0  0  0  0  0  0  0  0  0  0  0
   35.0172   19.7861    9.4681 C   0  0  0  0  0  0  0  0  0  0  0  0
   36.3700   20.2668    8.9818 C   0  0  0  0  0  0  0  0  0  0  0  0
   36.3997   20.5225    7.1771 S   0  0  0  0  0  0  0  0  0  0  0  0
   35.2517   21.9593    6.8631 C   0  0  0  0  0  0  0  0  0  0  0  0
   35.5306   23.3224    7.4520 C   0  0  0  0  0  0  0  0  0  0  0  0
   34.4393   24.7096    7.1161 S   0  0  0  0  0  0  0  0  0  0  0  0
   35.2297   25.8135    8.3156 C   0  0  0  0  0  0  0  0  0  0  0  0
   34.7849   25.3542    9.7003 C   0  0  0  0  0  0  0  0  0  0  0  0
   35.4079   23.8884   10.5872 O   0  0  0  0  0  0  0  0  0  0  0  0
   35.4626   23.4461   12.4893 C   0  0  0  0  0  0  0  0  0  0  0  0
   34.0865   22.7866   13.5181 C   0  0  0  0  0  0  0  0  0  0  0  0
   32.7027   22.5148   13.2909 O   0  0  0  0  0  0  0  0  0  0  0  0
   31.9006   21.8667   12.3126 C   0  0  0  0  0  0  0  0  0  0  0  0
   31.3476   23.0162   11.5038 C   0  0  0  0  0  0  0  0  0  0  0  0
   29.9844   22.8501   11.4922 O   0  0  0  0  0  0  0  0  0  0  0  0
   29.4625   24.0987   11.8407 C   0  0  0  0  0  0  0  0  0  0  0  0
   28.1772   23.6488   12.3883 C   0  0  0  0  0  0  0  0  0  0  0  0
   27.4125   24.8113   12.4272 O   0  0  0  0  0  0  0  0  0  0  0  0
   26.1209   24.3908   12.6952 C   0  0  0  0  0  0  0  0  0  0  0  0
   25.3295   25.6231   12.6099 C   0  0  0  0  0  0  0  0  0  0  0  0
   24.0299   25.2144   12.9257 O   0  0  0  0  0  0  0  0  0  0  0  0
   23.1806   26.3397   12.8856 C   0  0  0  0  0  0  0  0  0  0  0  0
   21.8287   25.8161   13.2470 C   0  0  0  0  0  0  0  0  0  0  0  0
   20.9489   26.9173   13.2159 O   0  0  0  0  0  0  0  0  0  0  0  0
   19.6327   26.5050   13.5499 C   0  0  0  0  0  0  0  0  0  0  0  0
   18.7639   27.7354   13.4933 C   0  0  0  0  0  0  0  0  0  0  0  0
   17.4296   27.3699   13.8186 O   0  0  0  0  0  0  0  0  0  0  0  0
   16.5747   28.5006   13.7757 C   0  0  0  0  0  0  0  0  0  0  0  0
   40.8533   23.4369   27.6839 H   0  0  0  0  0  0  0  0  0  0  0  0
   42.4087   23.0075   26.9331 H   0  0  0  0  0  0  0  0  0  0  0  0
   40.9510   22.0410   26.6192 H   0  0  0  0  0  0  0  0  0  0  0  0
   41.0394   25.6537   26.8203 H   0  0  0  0  0  0  0  0  0  0  0  0
   41.0560   25.9644   25.1017 H   0  0  0  0  0  0  0  0  0  0  0  0
   42.5273   25.3579   25.8998 H   0  0  0  0  0  0  0  0  0  0  0  0
   41.1954   22.3103   24.2784 H   0  0  0  0  0  0  0  0  0  0  0  0
   42.6742   23.2454   24.5156 H   0  0  0  0  0  0  0  0  0  0  0  0
   41.6347   25.1458   23.2323 H   0  0  0  0  0  0  0  0  0  0  0  0
   40.1578   24.1946   23.0413 H   0  0  0  0  0  0  0  0  0  0  0  0
   41.4872   22.4444   21.8237 H   0  0  0  0  0  0  0  0  0  0  0  0
   42.9582   23.3995   22.0712 H   0  0  0  0  0  0  0  0  0  0  0  0
   41.9066   25.3196   20.9042 H   0  0  0  0  0  0  0  0  0  0  0  0
   40.4577   24.3459   20.6717 H   0  0  0  0  0  0  0  0  0  0  0  0
   41.7546   22.6963   19.2923 H   0  0  0  0  0  0  0  0  0  0  0  0
   43.2593   23.6719   19.5598 H   0  0  0  0  0  0  0  0  0  0  0  0
   42.1147   25.6796   18.5663 H   0  0  0  0  0  0  0  0  0  0  0  0
   40.6453   24.7160   18.3057 H   0  0  0  0  0  0  0  0  0  0  0  0
   41.9914   23.1703   16.9423 H   0  0  0  0  0  0  0  0  0  0  0  0
   43.3700   24.1887   17.0119 H   0  0  0  0  0  0  0  0  0  0  0  0
   41.6427   26.1148   16.2868 H   0  0  0  0  0  0  0  0  0  0  0  0
   40.6566   24.8971   15.7011 H   0  0  0  0  0  0  0  0  0  0  0  0
   42.1670   26.8938   13.7930 H   0  0  0  0  0  0  0  0  0  0  0  0
   41.3693   25.5463   13.1396 H   0  0  0  0  0  0  0  0  0  0  0  0
   44.0011   25.0516   12.3053 H   0  0  0  0  0  0  0  0  0  0  0  0
   44.5372   26.6059   12.3998 H   0  0  0  0  0  0  0  0  0  0  0  0
   44.5167   28.0239   10.9343 H   0  0  0  0  0  0  0  0  0  0  0  0
   42.9080   28.1082   11.6472 H   0  0  0  0  0  0  0  0  0  0  0  0
   43.2054   27.3513    8.7453 H   0  0  0  0  0  0  0  0  0  0  0  0
   43.3762   29.0693    9.1816 H   0  0  0  0  0  0  0  0  0  0  0  0
   40.9259   27.8205   11.7969 H   0  0  0  0  0  0  0  0  0  0  0  0
   39.5168   28.6472   11.1501 H   0  0  0  0  0  0  0  0  0  0  0  0
   40.8075   30.7240   10.8763 H   0  0  0  0  0  0  0  0  0  0  0  0
   42.2483   30.0042   11.5598 H   0  0  0  0  0  0  0  0  0  0  0  0
   41.0165   28.3268   14.2590 H   0  0  0  0  0  0  0  0  0  0  0  0
   41.1919   29.6294   15.4108 H   0  0  0  0  0  0  0  0  0  0  0  0
   43.3285   30.3433   14.1510 H   0  0  0  0  0  0  0  0  0  0  0  0
   43.3213   28.8117   13.3448 H   0  0  0  0  0  0  0  0  0  0  0  0
   43.0546   26.8373   15.4570 H   0  0  0  0  0  0  0  0  0  0  0  0
   44.1806   26.3865   16.7009 H   0  0  0  0  0  0  0  0  0  0  0  0
   46.0051   25.9639   14.6374 H   0  0  0  0  0  0  0  0  0  0  0  0
   44.6609   26.4600   13.8867 H   0  0  0  0  0  0  0  0  0  0  0  0
   45.0447   22.3846   11.3430 H   0  0  0  0  0  0  0  0  0  0  0  0
   44.2520   23.8342   10.9973 H   0  0  0  0  0  0  0  0  0  0  0  0
   42.5728   20.9663   11.5143 H   0  0  0  0  0  0  0  0  0  0  0  0
   42.9519   21.5747    9.9905 H   0  0  0  0  0  0  0  0  0  0  0  0
   40.0879   24.5009    8.7572 H   0  0  0  0  0  0  0  0  0  0  0  0
   40.9669   25.2840    9.9742 H   0  0  0  0  0  0  0  0  0  0  0  0
   38.1944   25.7614    9.6110 H   0  0  0  0  0  0  0  0  0  0  0  0
   39.3786   26.6711    9.7993 H   0  0  0  0  0  0  0  0  0  0  0  0
   39.7111   23.9510   13.1218 H   0  0  0  0  0  0  0  0  0  0  0  0
   38.3463   23.4285   12.2547 H   0  0  0  0  0  0  0  0  0  0  0  0
   36.9195   24.3344   14.3382 H   0  0  0  0  0  0  0  0  0  0  0  0
   38.4331   24.4958   15.1150 H   0  0  0  0  0  0  0  0  0  0  0  0
   39.3994   21.4056   13.3407 H   0  0  0  0  0  0  0  0  0  0  0  0
   39.4336   20.4495   14.8079 H   0  0  0  0  0  0  0  0  0  0  0  0
   40.0993   22.4212   16.1855 H   0  0  0  0  0  0  0  0  0  0  0  0
   40.1124   23.4172   14.7890 H   0  0  0  0  0  0  0  0  0  0  0  0
   41.2232   22.0980   12.7552 H   0  0  0  0  0  0  0  0  0  0  0  0
   42.8819   22.3335   12.9430 H   0  0  0  0  0  0  0  0  0  0  0  0
   42.2395   25.0284   11.5470 H   0  0  0  0  0  0  0  0  0  0  0  0
   41.0123   24.4483   11.6692 H   0  0  0  0  0  0  0  0  0  0  0  0
   41.5123   21.2371    8.6083 H   0  0  0  0  0  0  0  0  0  0  0  0
   40.9873   22.3686    7.3692 H   0  0  0  0  0  0  0  0  0  0  0  0
   39.0710   21.2210    9.7061 H   0  0  0  0  0  0  0  0  0  0  0  0
   39.0757   20.9653    8.0975 H   0  0  0  0  0  0  0  0  0  0  0  0
   37.1884   23.0955   10.8540 H   0  0  0  0  0  0  0  0  0  0  0  0
   36.9026   24.5478    9.6673 H   0  0  0  0  0  0  0  0  0  0  0  0
   36.4010   26.4114   11.3181 H   0  0  0  0  0  0  0  0  0  0  0  0
   36.6419   25.3690   12.5570 H   0  0  0  0  0  0  0  0  0  0  0  0
   34.1534   22.5437    9.9268 H   0  0  0  0  0  0  0  0  0  0  0  0
   33.3477   21.9919   11.1689 H   0  0  0  0  0  0  0  0  0  0  0  0
   35.3874   21.1781   12.7341 H   0  0  0  0  0  0  0  0  0  0  0  0
   36.4338   21.4568   11.4237 H   0  0  0  0  0  0  0  0  0  0  0  0
   34.2299   20.4988    9.2489 H   0  0  0  0  0  0  0  0  0  0  0  0
   34.7540   18.8271    9.0183 H   0  0  0  0  0  0  0  0  0  0  0  0
   37.1462   19.5366    9.2652 H   0  0  0  0  0  0  0  0  0  0  0  0
   36.6641   21.1884    9.4828 H   0  0  0  0  0  0  0  0  0  0  0  0
   34.2550   21.6399    7.1493 H   0  0  0  0  0  0  0  0  0  0  0  0
   35.3200   22.0914    5.7865 H   0  0  0  0  0  0  0  0  0  0  0  0
   36.4483   23.7279    7.0345 H   0  0  0  0  0  0  0  0  0  0  0  0
   35.5565   23.1958    8.5222 H   0  0  0  0  0  0  0  0  0  0  0  0
   34.7998   26.8231    8.1853 H   0  0  0  0  0  0  0  0  0  0  0  0
   36.3042   25.9688    8.2169 H   0  0  0  0  0  0  0  0  0  0  0  0
   33.6916   25.2941    9.6398 H   0  0  0  0  0  0  0  0  0  0  0  0
   34.9834   26.2808   10.2729 H   0  0  0  0  0  0  0  0  0  0  0  0
   35.5676   24.3040   13.1264 H   0  0  0  0  0  0  0  0  0  0  0  0
   36.3838   22.9191   12.6263 H   0  0  0  0  0  0  0  0  0  0  0  0
   33.9829   23.6189   14.2487 H   0  0  0  0  0  0  0  0  0  0  0  0
   34.4502   22.0070   14.1941 H   0  0  0  0  0  0  0  0  0  0  0  0
   31.2297   21.2291   12.8825 H   0  0  0  0  0  0  0  0  0  0  0  0
   32.1682   21.0835   11.5638 H   0  0  0  0  0  0  0  0  0  0  0  0
   31.6754   23.1373   10.4617 H   0  0  0  0  0  0  0  0  0  0  0  0
   31.6159   23.9483   12.0011 H   0  0  0  0  0  0  0  0  0  0  0  0
   29.4247   24.7351   10.9513 H   0  0  0  0  0  0  0  0  0  0  0  0
   29.9913   24.6559   12.6378 H   0  0  0  0  0  0  0  0  0  0  0  0
   28.3160   23.2309   13.3824 H   0  0  0  0  0  0  0  0  0  0  0  0
   27.7520   22.8946   11.7254 H   0  0  0  0  0  0  0  0  0  0  0  0
   26.0768   23.9211   13.6982 H   0  0  0  0  0  0  0  0  0  0  0  0
   25.7733   23.6322   11.9670 H   0  0  0  0  0  0  0  0  0  0  0  0
   25.3987   26.0347   11.5945 H   0  0  0  0  0  0  0  0  0  0  0  0
   25.7200   26.3656   13.3130 H   0  0  0  0  0  0  0  0  0  0  0  0
   23.1975   26.7817   11.8834 H   0  0  0  0  0  0  0  0  0  0  0  0
   23.5307   27.0970   13.5953 H   0  0  0  0  0  0  0  0  0  0  0  0
   21.8601   25.3599   14.2438 H   0  0  0  0  0  0  0  0  0  0  0  0
   21.5238   25.0421   12.5324 H   0  0  0  0  0  0  0  0  0  0  0  0
   19.6178   26.0693   14.5543 H   0  0  0  0  0  0  0  0  0  0  0  0
   19.2816   25.7524   12.8373 H   0  0  0  0  0  0  0  0  0  0  0  0
   18.8108   28.1733   12.4895 H   0  0  0  0  0  0  0  0  0  0  0  0
   19.1412   28.4865   14.1966 H   0  0  0  0  0  0  0  0  0  0  0  0
   15.5689   28.1590   14.0309 H   0  0  0  0  0  0  0  0  0  0  0  0
   16.5612   28.9283   12.7703 H   0  0  0  0  0  0  0  0  0  0  0  0
   16.8942   29.2459   14.5081 H   0  0  0  0  0  0  0  0  0  0  0  0
  1  2  1  0  0  0  0
  1 80  1  0  0  0  0
  1 81  1  0  0  0  0
  1 82  1  0  0  0  0
  2  3  1  0  0  0  0
  2  4  1  0  0  0  0
  3 83  1  0  0  0  0
  3 84  1  0  0  0  0
  3 85  1  0  0  0  0
  4  5  1  0  0  0  0
  4 86  1  0  0  0  0
  4 87  1  0  0  0  0
  5  6  1  0  0  0  0
  5 88  1  0  0  0  0
  5 89  1  0  0  0  0
  6  7  1  0  0  0  0
  6 90  1  0  0  0  0
  6 91  1  0  0  0  0
  7  8  1  0  0  0  0
  7 92  1  0  0  0  0
  7 93  1  0  0  0  0
  8  9  1  0  0  0  0
  8 94  1  0  0  0  0
  8 95  1  0  0  0  0
  9 10  1  0  0  0  0
  9 96  1  0  0  0  0
  9 97  1  0  0  0  0
 10 11  1  0  0  0  0
 10 98  1  0  0  0  0
 10 99  1  0  0  0  0
 11 12  1  0  0  0  0
 11100  1  0  0  0  0
 11101  1  0  0  0  0
 12 13  1  0  0  0  0
 13 14  1  0  0  0  0
 13102  1  0  0  0  0
 13103  1  0  0  0  0
 14 15  1  0  0  0  0
 14104  1  0  0  0  0
 14105  1  0  0  0  0
 15 16  1  0  0  0  0
 16 17  1  0  0  0  0
 16106  1  0  0  0  0
 16107  1  0  0  0  0
 17 18  1  0  0  0  0
 17108  1  0  0  0  0
 17109  1  0  0  0  0
 18 19  1  0  0  0  0
 19 20  1  0  0  0  0
 19110  1  0  0  0  0
 19111  1  0  0  0  0
 20 21  1  0  0  0  0
 20112  1  0  0  0  0
 20113  1  0  0  0  0
 21 22  1  0  0  0  0
 22 23  1  0  0  0  0
 22114  1  0  0  0  0
 22115  1  0  0  0  0
 23 24  1  0  0  0  0
 23116  1  0  0  0  0
 23117  1  0  0  0  0
 24 25  1  0  0  0  0
 25 26  1  0  0  0  0
 25118  1  0  0  0  0
 25119  1  0  0  0  0
 26 27  1  0  0  0  0
 26120  1  0  0  0  0
 26121  1  0  0  0  0
 27 28  1  0  0  0  0
 28 29  1  0  0  0  0
 28122  1  0  0  0  0
 28123  1  0  0  0  0
 29 30  1  0  0  0  0
 29124  1  0  0  0  0
 29125  1  0  0  0  0
 30 31  1  0  0  0  0
 31 32  1  0  0  0  0
 31126  1  0  0  0  0
 31127  1  0  0  0  0
 32 33  1  0  0  0  0
 32128  1  0  0  0  0
 32129  1  0  0  0  0
 33 34  1  0  0  0  0
 34 35  1  0  0  0  0
 34130  1  0  0  0  0
 34131  1  0  0  0  0
 35 36  1  0  0  0  0
 35132  1  0  0  0  0
 35133  1  0  0  0  0
 36 37  1  0  0  0  0
 37 38  1  0  0  0  0
 37134  1  0  0  0  0
 37135  1  0  0  0  0
 38 39  1  0  0  0  0
 38136  1  0  0  0  0
 38137  1  0  0  0  0
 39 40  1  0  0  0  0
 40 41  1  0  0  0  0
 40138  1  0  0  0  0
 40139  1  0  0  0  0
 41 42  1  0  0  0  0
 41140  1  0  0  0  0
 41141  1  0  0  0  0
 42 43  1  0  0  0  0
 43 44  1  0  0  0  0
 43142  1  0  0  0  0
 43143  1  0  0  0  0
 44 45  1  0  0  0  0
 44144  1  0  0  0  0
 44145  1  0  0  0  0
 45 46  1  0  0  0  0
 46 47  1  0  0  0  0
 46146  1  0  0  0  0
 46147  1  0  0  0  0
 47 48  1  0  0  0  0
 47148  1  0  0  0  0
 47149  1  0  0  0  0
 48 49  1  0  0  0  0
 49 50  1  0  0  0  0
 49150  1  0  0  0  0
 49151  1  0  0  0  0
 50 51  1  0  0  0  0
 50152  1  0  0  0  0
 50153  1  0  0  0  0
 51 52  1  0  0  0  0
 52 53  1  0  0  0  0
 52154  1  0  0  0  0
 52155  1  0  0  0  0
 53 54  1  0  0  0  0
 53156  1  0  0  0  0
 53157  1  0  0  0  0
 54 55  1  0  0  0  0
 55 56  1  0  0  0  0
 55158  1  0  0  0  0
 55159  1  0  0  0  0
 56 57  1  0  0  0  0
 56160  1  0  0  0  0
 56161  1  0  0  0  0
 57 58  1  0  0  0  0
 58 59  1  0  0  0  0
 58162  1  0  0  0  0
 58163  1  0  0  0  0
 59 60  1  0  0  0  0
 59164  1  0  0  0  0
 59165  1  0  0  0  0
 60 61  1  0  0  0  0
 61 62  1  0  0  0  0
 61166  1  0  0  0  0
 61167  1  0  0  0  0
 62 63  1  0  0  0  0
 62168  1  0  0  0  0
 62169  1  0  0  0  0
 63 64  1  0  0  0  0
 64 65  1  0  0  0  0
 64170  1  0  0  0  0
 64171  1  0  0  0  0
 65 66  1  0  0  0  0
 65172  1  0  0  0  0
 65173  1  0  0  0  0
 66 67  1  0  0  0  0
 67 68  1  0  0  0  0
 67174  1  0  0  0  0
 67175  1  0  0  0  0
 68 69  1  0  0  0  0
 68176  1  0  0  0  0
 68177  1  0  0  0  0
 69 70  1  0  0  0  0
 70 71  1  0  0  0  0
 70178  1  0  0  0  0
 70179  1  0  0  0  0
 71 72  1  0  0  0  0
 71180  1  0  0  0  0
 71181  1  0  0  0  0
 72 73  1  0  0  0  0
 73 74  1  0  0  0  0
 73182  1  0  0  0  0
 73183  1  0  0  0  0
 74 75  1  0  0  0  0
 74184  1  0  0  0  0
 74185  1  0  0  0  0
 75 76  1  0  0  0  0
 76 77  1  0  0  0  0
 76186  1  0  0  0  0
 76187  1  0  0  0  0
 77 78  1  0  0  0  0
 77188  1  0  0  0  0
 77189  1  0  0  0  0
 78 79  1  0  0  0  0
 79190  1  0  0  0  0
 79191  1  0  0  0  0
 79192  1  0  0  0  0
M  END
$$$$
