
 OpenBabel04232216583D

122121  0  0  0  0  0  0  0  0999 V2000
   14.8032   -2.9341   20.8380 N   0  0  0  0  0  0  0  0  0  0  0  0
   16.2402   -2.9441   20.7258 N   0  0  0  0  0  0  0  0  0  0  0  0
   16.6011   -2.6063   19.3493 C   0  0  0  0  0  0  0  0  0  0  0  0
   18.1216   -2.5979   19.1940 C   0  0  0  0  0  0  0  0  0  0  0  0
   18.5246   -2.2865   17.8165 N   0  0  0  0  0  0  0  0  0  0  0  0
   18.0193   -0.9911   17.4964 N   0  0  0  0  0  0  0  0  0  0  0  0
   18.3498   -0.6716   16.1678 N   0  0  0  0  0  0  0  0  0  0  0  0
   17.8862    0.6328   15.8592 N   0  0  0  0  0  0  0  0  0  0  0  0
   18.4104    1.5914   16.7540 N   0  0  0  0  0  0  0  0  0  0  0  0
   19.8329    1.5881   16.6410 N   0  0  0  0  0  0  0  0  0  0  0  0
   20.2219    1.9143   15.3003 N   0  0  0  0  0  0  0  0  0  0  0  0
   19.7147    3.2126   14.9387 N   0  0  0  0  0  0  0  0  0  0  0  0
   20.2511    4.1886   15.8403 N   0  0  0  0  0  0  0  0  0  0  0  0
   21.6812    4.1841   15.7692 N   0  0  0  0  0  0  0  0  0  0  0  0
   22.0795    4.4942   14.4207 N   0  0  0  0  0  0  0  0  0  0  0  0
   21.5754    5.7892   14.0273 N   0  0  0  0  0  0  0  0  0  0  0  0
   22.0854    6.7662   14.9260 N   0  0  0  0  0  0  0  0  0  0  0  0
   23.5106    6.7746   14.8751 N   0  0  0  0  0  0  0  0  0  0  0  0
   23.9404    7.0604   13.5275 N   0  0  0  0  0  0  0  0  0  0  0  0
   23.4677    8.3583   13.0941 N   0  0  0  0  0  0  0  0  0  0  0  0
   23.9402    9.3437   13.9905 N   0  0  0  0  0  0  0  0  0  0  0  0
   25.3639    9.3320   13.9626 N   0  0  0  0  0  0  0  0  0  0  0  0
   25.8102    9.5832   12.6129 N   0  0  0  0  0  0  0  0  0  0  0  0
   25.3235   10.8715   12.1655 N   0  0  0  0  0  0  0  0  0  0  0  0
   25.8172   11.8888   13.0367 N   0  0  0  0  0  0  0  0  0  0  0  0
   27.2411   11.8646   13.0417 N   0  0  0  0  0  0  0  0  0  0  0  0
   27.7045   12.0923   11.7114 N   0  0  0  0  0  0  0  0  0  0  0  0
   27.2297   13.3581   11.2513 N   0  0  0  0  0  0  0  0  0  0  0  0
   27.6859   14.3877   12.1336 N   0  0  0  0  0  0  0  0  0  0  0  0
   29.1263   14.3907   12.1308 N   0  0  0  0  0  0  0  0  0  0  0  0
   29.6359   14.6305   10.7890 N   0  0  0  0  0  0  0  0  0  0  0  0
   29.1561   15.8949   10.2939 N   0  0  0  0  0  0  0  0  0  0  0  0
   29.6090   16.9351   11.1732 N   0  0  0  0  0  0  0  0  0  0  0  0
   31.0619   16.9696   11.2052 N   0  0  0  0  0  0  0  0  0  0  0  0
   31.5675   17.1562    9.8853 N   0  0  0  0  0  0  0  0  0  0  0  0
   31.0731   18.3913    9.3802 N   0  0  0  0  0  0  0  0  0  0  0  0
   31.5006   19.4657   10.2514 N   0  0  0  0  0  0  0  0  0  0  0  0
   32.9394   19.4627   10.3205 N   0  0  0  0  0  0  0  0  0  0  0  0
   33.4637   19.6569    9.0038 N   0  0  0  0  0  0  0  0  0  0  0  0
   32.9811   20.8849    8.4711 N   0  0  0  0  0  0  0  0  0  0  0  0
   33.3756   21.9467    9.3227 N   0  0  0  0  0  0  0  0  0  0  0  0
   34.8032   21.9934    9.4128 N   0  0  0  0  0  0  0  0  0  0  0  0
   35.3525   22.1786    8.0984 N   0  0  0  0  0  0  0  0  0  0  0  0
   34.8609   23.4195    7.5429 N   0  0  0  0  0  0  0  0  0  0  0  0
   35.2433   24.5260    8.3913 N   0  0  0  0  0  0  0  0  0  0  0  0
   36.6750   24.5664    8.4925 N   0  0  0  0  0  0  0  0  0  0  0  0
   37.2350   24.7349    7.1892 N   0  0  0  0  0  0  0  0  0  0  0  0
   36.7382   25.9406    6.6168 N   0  0  0  0  0  0  0  0  0  0  0  0
   37.1080   27.0606    7.4364 N   0  0  0  0  0  0  0  0  0  0  0  0
   38.5596   27.1314    7.5707 N   0  0  0  0  0  0  0  0  0  0  0  0
   39.1133   27.2785    6.2206 C   0  0  0  0  0  0  0  0  0  0  0  0
   40.6185   27.3386    6.3249 C   0  0  0  0  0  0  0  0  0  0  0  0
   41.2287   27.5189    4.9484 C   0  0  0  0  0  0  0  0  0  0  0  0
   42.7384   27.5864    5.0508 C   0  0  0  0  0  0  0  0  0  0  0  0
   43.3505   27.7697    3.6760 C   0  0  0  0  0  0  0  0  0  0  0  0
   44.8556   27.8363    3.7842 C   0  0  0  0  0  0  0  0  0  0  0  0
   14.5273   -3.1709   21.7916 H   0  0  0  0  0  0  0  0  0  0  0  0
   14.3893   -3.6330   20.2165 H   0  0  0  0  0  0  0  0  0  0  0  0
   16.6119   -3.8690   20.9587 H   0  0  0  0  0  0  0  0  0  0  0  0
   16.2192   -1.6137   19.0896 H   0  0  0  0  0  0  0  0  0  0  0  0
   16.1822   -3.3346   18.6460 H   0  0  0  0  0  0  0  0  0  0  0  0
   18.5160   -3.5872   19.4517 H   0  0  0  0  0  0  0  0  0  0  0  0
   18.5678   -1.8779   19.8922 H   0  0  0  0  0  0  0  0  0  0  0  0
   18.1163   -2.9883   17.1864 H   0  0  0  0  0  0  0  0  0  0  0  0
   18.4283   -0.2698   18.1019 H   0  0  0  0  0  0  0  0  0  0  0  0
   17.9760   -1.3549   15.5059 H   0  0  0  0  0  0  0  0  0  0  0  0
   16.8749    0.6668   15.9298 H   0  0  0  0  0  0  0  0  0  0  0  0
   18.1406    1.3772   17.7105 H   0  0  0  0  0  0  0  0  0  0  0  0
   20.2020    0.6607   16.8720 H   0  0  0  0  0  0  0  0  0  0  0  0
   19.8410    1.2121   14.6585 H   0  0  0  0  0  0  0  0  0  0  0  0
   18.6884    3.2036   15.0102 H   0  0  0  0  0  0  0  0  0  0  0  0
   19.9645    3.9789   16.8014 H   0  0  0  0  0  0  0  0  0  0  0  0
   22.0478    3.2580   16.0222 H   0  0  0  0  0  0  0  0  0  0  0  0
   21.7174    3.7819   13.7771 H   0  0  0  0  0  0  0  0  0  0  0  0
   20.5495    5.7831   14.0929 H   0  0  0  0  0  0  0  0  0  0  0  0
   21.7735    6.5603   15.8796 H   0  0  0  0  0  0  0  0  0  0  0  0
   23.8907    5.8582   15.1245 H   0  0  0  0  0  0  0  0  0  0  0  0
   23.5855    6.3305   12.9013 H   0  0  0  0  0  0  0  0  0  0  0  0
   22.4490    8.3592   13.1443 H   0  0  0  0  0  0  0  0  0  0  0  0
   23.6102    9.1364   14.9384 H   0  0  0  0  0  0  0  0  0  0  0  0
   25.7087    8.4087   14.2406 H   0  0  0  0  0  0  0  0  0  0  0  0
   25.4292    8.8548   11.9968 H   0  0  0  0  0  0  0  0  0  0  0  0
   24.2933   10.8416   12.1973 H   0  0  0  0  0  0  0  0  0  0  0  0
   25.5078   11.7009   13.9861 H   0  0  0  0  0  0  0  0  0  0  0  0
   27.5589   10.9421   13.3715 H   0  0  0  0  0  0  0  0  0  0  0  0
   27.3555   11.3465   11.0975 H   0  0  0  0  0  0  0  0  0  0  0  0
   26.2119   13.3863   11.2863 H   0  0  0  0  0  0  0  0  0  0  0  0
   27.3272   14.1848   13.0778 H   0  0  0  0  0  0  0  0  0  0  0  0
   29.4425   13.4682   12.4641 H   0  0  0  0  0  0  0  0  0  0  0  0
   29.2761   13.9029   10.1692 H   0  0  0  0  0  0  0  0  0  0  0  0
   28.1284   15.8550   10.2996 H   0  0  0  0  0  0  0  0  0  0  0  0
   29.2371   16.7560   12.1173 H   0  0  0  0  0  0  0  0  0  0  0  0
   31.3888   16.0603   11.5520 H   0  0  0  0  0  0  0  0  0  0  0  0
   31.2202   16.4082    9.2813 H   0  0  0  0  0  0  0  0  0  0  0  0
   30.0471   18.3336    9.3752 H   0  0  0  0  0  0  0  0  0  0  0  0
   31.1164   19.2480   11.1805 H   0  0  0  0  0  0  0  0  0  0  0  0
   33.2311   18.5406   10.6789 H   0  0  0  0  0  0  0  0  0  0  0  0
   33.1396   18.9116    8.3886 H   0  0  0  0  0  0  0  0  0  0  0  0
   31.9657   20.8645    8.4637 H   0  0  0  0  0  0  0  0  0  0  0  0
   33.0065   21.7752   10.2551 H   0  0  0  0  0  0  0  0  0  0  0  0
   35.1111   21.0897    9.7928 H   0  0  0  0  0  0  0  0  0  0  0  0
   35.0386   21.3868    7.5178 H   0  0  0  0  0  0  0  0  0  0  0  0
   33.8338   23.3619    7.4922 H   0  0  0  0  0  0  0  0  0  0  0  0
   34.8457   24.3558    9.3232 H   0  0  0  0  0  0  0  0  0  0  0  0
   37.0105   23.6752    8.8652 H   0  0  0  0  0  0  0  0  0  0  0  0
   36.9418   23.9501    6.5998 H   0  0  0  0  0  0  0  0  0  0  0  0
   35.7163   25.8790    6.5643 H   0  0  0  0  0  0  0  0  0  0  0  0
   36.7081   26.8695    8.3590 H   0  0  0  0  0  0  0  0  0  0  0  0
   38.8212   26.2114    7.9459 H   0  0  0  0  0  0  0  0  0  0  0  0
   38.7336   28.1991    5.7681 H   0  0  0  0  0  0  0  0  0  0  0  0
   38.8397   26.4377    5.5664 H   0  0  0  0  0  0  0  0  0  0  0  0
   41.0004   26.4150    6.7742 H   0  0  0  0  0  0  0  0  0  0  0  0
   40.9083   28.1772    6.9656 H   0  0  0  0  0  0  0  0  0  0  0  0
   40.8507   28.4416    4.4946 H   0  0  0  0  0  0  0  0  0  0  0  0
   40.9425   26.6809    4.3034 H   0  0  0  0  0  0  0  0  0  0  0  0
   43.1183   26.6633    5.5023 H   0  0  0  0  0  0  0  0  0  0  0  0
   43.0265   28.4235    5.6961 H   0  0  0  0  0  0  0  0  0  0  0  0
   42.9747   28.6933    3.2245 H   0  0  0  0  0  0  0  0  0  0  0  0
   43.0665   26.9325    3.0306 H   0  0  0  0  0  0  0  0  0  0  0  0
   45.1524   28.6771    4.4177 H   0  0  0  0  0  0  0  0  0  0  0  0
   45.2989   27.9684    2.7949 H   0  0  0  0  0  0  0  0  0  0  0  0
   45.2444   26.9131    4.2235 H   0  0  0  0  0  0  0  0  0  0  0  0
  1  2  1  0  0  0  0
  1 57  1  0  0  0  0
  1 58  1  0  0  0  0
  2  3  1  0  0  0  0
  2 59  1  0  0  0  0
  3  4  1  0  0  0  0
  3 60  1  0  0  0  0
  3 61  1  0  0  0  0
  4  5  1  0  0  0  0
  4 62  1  0  0  0  0
  4 63  1  0  0  0  0
  5  6  1  0  0  0  0
  5 64  1  0  0  0  0
  6  7  1  0  0  0  0
  6 65  1  0  0  0  0
  7  8  1  0  0  0  0
  7 66  1  0  0  0  0
  8  9  1  0  0  0  0
  8 67  1  0  0  0  0
  9 10  1  0  0  0  0
  9 68  1  0  0  0  0
 10 11  1  0  0  0  0
 10 69  1  0  0  0  0
 11 12  1  0  0  0  0
 11 70  1  0  0  0  0
 12 13  1  0  0  0  0
 12 71  1  0  0  0  0
 13 14  1  0  0  0  0
 13 72  1  0  0  0  0
 14 15  1  0  0  0  0
 14 73  1  0  0  0  0
 15 16  1  0  0  0  0
 15 74  1  0  0  0  0
 16 17  1  0  0  0  0
 16 75  1  0  0  0  0
 17 18  1  0  0  0  0
 17 76  1  0  0  0  0
 18 19  1  0  0  0  0
 18 77  1  0  0  0  0
 19 20  1  0  0  0  0
 19 78  1  0  0  0  0
 20 21  1  0  0  0  0
 20 79  1  0  0  0  0
 21 22  1  0  0  0  0
 21 80  1  0  0  0  0
 22 23  1  0  0  0  0
 22 81  1  0  0  0  0
 23 24  1  0  0  0  0
 23 82  1  0  0  0  0
 24 25  1  0  0  0  0
 24 83  1  0  0  0  0
 25 26  1  0  0  0  0
 25 84  1  0  0  0  0
 26 27  1  0  0  0  0
 26 85  1  0  0  0  0
 27 28  1  0  0  0  0
 27 86  1  0  0  0  0
 28 29  1  0  0  0  0
 28 87  1  0  0  0  0
 29 30  1  0  0  0  0
 29 88  1  0  0  0  0
 30 31  1  0  0  0  0
 30 89  1  0  0  0  0
 31 32  1  0  0  0  0
 31 90  1  0  0  0  0
 32 33  1  0  0  0  0
 32 91  1  0  0  0  0
 33 34  1  0  0  0  0
 33 92  1  0  0  0  0
 34 35  1  0  0  0  0
 34 93  1  0  0  0  0
 35 36  1  0  0  0  0
 35 94  1  0  0  0  0
 36 37  1  0  0  0  0
 36 95  1  0  0  0  0
 37 38  1  0  0  0  0
 37 96  1  0  0  0  0
 38 39  1  0  0  0  0
 38 97  1  0  0  0  0
 39 40  1  0  0  0  0
 39 98  1  0  0  0  0
 40 41  1  0  0  0  0
 40 99  1  0  0  0  0
 41 42  1  0  0  0  0
 41100  1  0  0  0  0
 42 43  1  0  0  0  0
 42101  1  0  0  0  0
 43 44  1  0  0  0  0
 43102  1  0  0  0  0
 44 45  1  0  0  0  0
 44103  1  0  0  0  0
 45 46  1  0  0  0  0
 45104  1  0  0  0  0
 46 47  1  0  0  0  0
 46105  1  0  0  0  0
 47 48  1  0  0  0  0
 47106  1  0  0  0  0
 48 49  1  0  0  0  0
 48107  1  0  0  0  0
 49 50  1  0  0  0  0
 49108  1  0  0  0  0
 50 51  1  0  0  0  0
 50109  1  0  0  0  0
 51 52  1  0  0  0  0
 51110  1  0  0  0  0
 51111  1  0  0  0  0
 52 53  1  0  0  0  0
 52112  1  0  0  0  0
 52113  1  0  0  0  0
 53 54  1  0  0  0  0
 53114  1  0  0  0  0
 53115  1  0  0  0  0
 54 55  1  0  0  0  0
 54116  1  0  0  0  0
 54117  1  0  0  0  0
 55 56  1  0  0  0  0
 55118  1  0  0  0  0
 55119  1  0  0  0  0
 56120  1  0  0  0  0
 56121  1  0  0  0  0
 56122  1  0  0  0  0
M  END
$$$$
