
 OpenBabel04232217003D

233232  0  0  1  0  0  0  0  0999 V2000
    2.8876    1.6599   -2.1550 O   0  0  0  0  0  0  0  0  0  0  0  0
    2.4400    2.1508   -0.8958 C   0  0  3  0  0  0  0  0  0  0  0  0
    0.9115    2.1029   -0.8862 C   0  0  0  0  0  0  0  0  0  0  0  0
    0.2869    2.5999    0.4156 C   0  0  0  0  0  0  0  0  0  0  0  0
   -1.2307    2.5229    0.3329 C   0  0  0  0  0  0  0  0  0  0  0  0
    2.9638    1.3457    0.1483 O   0  0  0  0  0  0  0  0  0  0  0  0
    4.3819    1.3779    0.1389 C   0  0  0  0  0  0  0  0  0  0  0  0
    4.8718    2.6881    0.3946 O   0  0  0  0  0  0  0  0  0  0  0  0
    6.2895    2.6695    0.3736 C   0  0  0  0  0  0  0  0  0  0  0  0
    6.7828    4.0781    0.6029 C   0  0  0  0  0  0  0  0  0  0  0  0
    8.2994    4.0859    0.6072 C   0  0  0  0  0  0  0  0  0  0  0  0
    8.8132    5.4932    0.8380 C   0  0  0  0  0  0  0  0  0  0  0  0
   10.3307    5.4938    0.8402 C   0  0  0  0  0  0  0  0  0  0  0  0
   10.8429    6.9028    1.0698 C   0  0  0  0  0  0  0  0  0  0  0  0
   12.3595    6.9069    1.0705 C   0  0  0  0  0  0  0  0  0  0  0  0
   12.8698    8.3170    1.2984 C   0  0  0  0  0  0  0  0  0  0  0  0
   14.3865    8.3215    1.3012 C   0  0  0  0  0  0  0  0  0  0  0  0
   14.8965    9.7313    1.5312 C   0  0  0  0  0  0  0  0  0  0  0  0
   16.4132    9.7353    1.5359 C   0  0  0  0  0  0  0  0  0  0  0  0
   16.9232   11.1450    1.7658 C   0  0  0  0  0  0  0  0  0  0  0  0
   18.4399   11.1494    1.7686 C   0  0  0  0  0  0  0  0  0  0  0  0
   18.9499   12.5594    1.9965 C   0  0  0  0  0  0  0  0  0  0  0  0
   20.4665   12.5642    1.9973 C   0  0  0  0  0  0  0  0  0  0  0  0
   20.9766   13.9738    2.2272 C   0  0  0  0  0  0  0  0  0  0  0  0
   22.4932   13.9782    2.2299 C   0  0  0  0  0  0  0  0  0  0  0  0
   23.0032   15.3882    2.4579 C   0  0  0  0  0  0  0  0  0  0  0  0
   24.5199   15.3929    2.4587 C   0  0  0  0  0  0  0  0  0  0  0  0
   25.0299   16.8029    2.6866 C   0  0  0  0  0  0  0  0  0  0  0  0
   26.5465   16.8076    2.6873 C   0  0  0  0  0  0  0  0  0  0  0  0
   27.0566   18.2177    2.9153 C   0  0  0  0  0  0  0  0  0  0  0  0
   28.5732   18.2223    2.9160 C   0  0  0  0  0  0  0  0  0  0  0  0
   29.0832   19.6324    3.1440 C   0  0  0  0  0  0  0  0  0  0  0  0
   30.5999   19.6371    3.1447 C   0  0  0  0  0  0  0  0  0  0  0  0
   31.1099   21.0471    3.3727 C   0  0  0  0  0  0  0  0  0  0  0  0
   32.6265   21.0518    3.3734 C   0  0  0  0  0  0  0  0  0  0  0  0
   33.1365   22.4618    3.6014 C   0  0  0  0  0  0  0  0  0  0  0  0
   34.6532   22.4665    3.6021 C   0  0  0  0  0  0  0  0  0  0  0  0
   35.1632   23.8765    3.8300 C   0  0  0  0  0  0  0  0  0  0  0  0
   36.6798   23.8812    3.8308 C   0  0  0  0  0  0  0  0  0  0  0  0
   37.1899   25.2912    4.0588 C   0  0  0  0  0  0  0  0  0  0  0  0
   38.7065   25.2959    4.0595 C   0  0  0  0  0  0  0  0  0  0  0  0
   39.2165   26.7056    4.2894 C   0  0  0  0  0  0  0  0  0  0  0  0
   40.7332   26.7106    4.2882 C   0  0  0  0  0  0  0  0  0  0  0  0
   41.2432   28.1206    4.5162 C   0  0  0  0  0  0  0  0  0  0  0  0
   42.7598   28.1253    4.5169 C   0  0  0  0  0  0  0  0  0  0  0  0
   43.2699   29.5350    4.7468 C   0  0  0  0  0  0  0  0  0  0  0  0
   44.7865   29.5400    4.7456 C   0  0  0  0  0  0  0  0  0  0  0  0
   45.2965   30.9500    4.9736 C   0  0  0  0  0  0  0  0  0  0  0  0
   46.8131   30.9554    4.9703 C   0  0  0  0  0  0  0  0  0  0  0  0
   47.3232   32.3657    5.1963 C   0  0  0  0  0  0  0  0  0  0  0  0
   48.8398   32.3714    5.1911 C   0  0  0  0  0  0  0  0  0  0  0  0
   49.3498   33.7814    5.4189 C   0  0  0  0  0  0  0  0  0  0  0  0
   50.8664   33.7874    5.4117 C   0  0  0  0  0  0  0  0  0  0  0  0
   51.3764   35.1977    5.6377 C   0  0  0  0  0  0  0  0  0  0  0  0
   52.8930   35.2040    5.6285 C   0  0  0  0  0  0  0  0  0  0  0  0
   53.4030   36.6141    5.8564 C   0  0  0  0  0  0  0  0  0  0  0  0
   54.9262   36.6191    5.8487 C   0  0  0  0  0  0  0  0  0  0  0  0
   55.4303   38.0292    6.0749 C   0  0  0  0  0  0  0  0  0  0  0  0
   56.9502   38.0380    6.0661 C   0  0  0  0  0  0  0  0  0  0  0  0
   57.4579   39.4453    6.2937 C   0  0  0  0  0  0  0  0  0  0  0  0
   58.9757   39.4550    6.2849 C   0  0  0  0  0  0  0  0  0  0  0  0
   59.4909   40.8674    6.5134 C   0  0  0  0  0  0  0  0  0  0  0  0
   61.0063   40.8687    6.5032 C   0  0  0  0  0  0  0  0  0  0  0  0
   61.5083   42.2786    6.7333 C   0  0  0  0  0  0  0  0  0  0  0  0
   63.0253   42.2852    6.7242 C   0  0  0  0  0  0  0  0  0  0  0  0
   63.5360   43.6947    6.9541 C   0  0  0  0  0  0  0  0  0  0  0  0
   65.0529   43.7005    6.9449 C   0  0  0  0  0  0  0  0  0  0  0  0
   65.5633   45.1116    7.1750 C   0  0  0  0  0  0  0  0  0  0  0  0
   67.0777   45.1168    7.1654 C   0  0  0  0  0  0  0  0  0  0  0  0
   67.5900   46.5293    7.3960 C   0  0  0  0  0  0  0  0  0  0  0  0
   69.1069   46.5357    7.3868 C   0  0  0  0  0  0  0  0  0  0  0  0
   69.6180   47.9450    7.6187 C   0  0  0  0  0  0  0  0  0  0  0  0
   71.1354   47.9513    7.6095 C   0  0  0  0  0  0  0  0  0  0  0  0
   71.6471   49.3614    7.8415 C   0  0  0  0  0  0  0  0  0  0  0  0
   73.1656   49.3713    7.8329 C   0  0  0  0  0  0  0  0  0  0  0  0
   73.6807   50.7830    8.0632 C   0  0  0  0  0  0  0  0  0  0  0  0
   75.2016   50.7951    8.0549 C   0  0  0  0  0  0  0  0  0  0  0  0
   75.7295   52.2048    8.2868 C   0  0  0  0  0  0  0  0  0  0  0  0
   77.2462   52.2135    8.2800 C   0  0  0  0  0  0  0  0  0  0  0  0
    2.5896    2.2971   -2.8222 H   0  0  0  0  0  0  0  0  0  0  0  0
    2.7753    3.1875   -0.7695 H   0  0  0  0  0  0  0  0  0  0  0  0
    0.5784    1.0712   -1.0546 H   0  0  0  0  0  0  0  0  0  0  0  0
    0.5278    2.6888   -1.7320 H   0  0  0  0  0  0  0  0  0  0  0  0
    0.5860    3.6353    0.6151 H   0  0  0  0  0  0  0  0  0  0  0  0
    0.6336    1.9879    1.2557 H   0  0  0  0  0  0  0  0  0  0  0  0
   -1.6091    3.1425   -0.4865 H   0  0  0  0  0  0  0  0  0  0  0  0
   -1.6844    2.8741    1.2648 H   0  0  0  0  0  0  0  0  0  0  0  0
   -1.5608    1.4928    0.1609 H   0  0  0  0  0  0  0  0  0  0  0  0
    4.7712    1.0162   -0.8199 H   0  0  0  0  0  0  0  0  0  0  0  0
    4.7428    0.7078    0.9266 H   0  0  0  0  0  0  0  0  0  0  0  0
    6.6510    2.2985   -0.5937 H   0  0  0  0  0  0  0  0  0  0  0  0
    6.6523    2.0074    1.1683 H   0  0  0  0  0  0  0  0  0  0  0  0
    6.3930    4.4589    1.5537 H   0  0  0  0  0  0  0  0  0  0  0  0
    6.3887    4.7414   -0.1775 H   0  0  0  0  0  0  0  0  0  0  0  0
    8.6793    3.7016   -0.3477 H   0  0  0  0  0  0  0  0  0  0  0  0
    8.6726    3.4189    1.3943 H   0  0  0  0  0  0  0  0  0  0  0  0
    8.4377    5.8747    1.7952 H   0  0  0  0  0  0  0  0  0  0  0  0
    8.4400    6.1605    0.0517 H   0  0  0  0  0  0  0  0  0  0  0  0
   10.7071    5.1100   -0.1162 H   0  0  0  0  0  0  0  0  0  0  0  0
   10.7047    4.8267    1.6268 H   0  0  0  0  0  0  0  0  0  0  0  0
   10.4674    7.2854    2.0269 H   0  0  0  0  0  0  0  0  0  0  0  0
   10.4674    7.5696    0.2839 H   0  0  0  0  0  0  0  0  0  0  0  0
   12.7353    6.5233    0.1140 H   0  0  0  0  0  0  0  0  0  0  0  0
   12.7352    6.2413    1.8574 H   0  0  0  0  0  0  0  0  0  0  0  0
   12.4929    8.7013    2.2543 H   0  0  0  0  0  0  0  0  0  0  0  0
   12.4952    8.9824    0.5108 H   0  0  0  0  0  0  0  0  0  0  0  0
   14.7635    7.9386    0.3448 H   0  0  0  0  0  0  0  0  0  0  0  0
   14.7611    7.6552    2.0880 H   0  0  0  0  0  0  0  0  0  0  0  0
   14.5184   10.1147    2.4869 H   0  0  0  0  0  0  0  0  0  0  0  0
   14.5230   10.3973    0.7436 H   0  0  0  0  0  0  0  0  0  0  0  0
   16.7913    9.3519    0.5802 H   0  0  0  0  0  0  0  0  0  0  0  0
   16.7867    9.0693    2.3235 H   0  0  0  0  0  0  0  0  0  0  0  0
   16.5462   11.5280    2.7222 H   0  0  0  0  0  0  0  0  0  0  0  0
   16.5486   11.8114    0.9790 H   0  0  0  0  0  0  0  0  0  0  0  0
   18.8168   10.7652    0.8127 H   0  0  0  0  0  0  0  0  0  0  0  0
   18.8145   10.4841    2.5563 H   0  0  0  0  0  0  0  0  0  0  0  0
   18.5740   12.9431    2.9530 H   0  0  0  0  0  0  0  0  0  0  0  0
   18.5742   13.2251    1.2096 H   0  0  0  0  0  0  0  0  0  0  0  0
   20.8423   12.1817    1.0403 H   0  0  0  0  0  0  0  0  0  0  0  0
   20.8423   11.8975    2.7833 H   0  0  0  0  0  0  0  0  0  0  0  0
   20.5997   14.3568    3.1836 H   0  0  0  0  0  0  0  0  0  0  0  0
   20.6019   14.6401    1.4404 H   0  0  0  0  0  0  0  0  0  0  0  0
   22.8702   13.5940    1.2741 H   0  0  0  0  0  0  0  0  0  0  0  0
   22.8679   13.3130    3.0176 H   0  0  0  0  0  0  0  0  0  0  0  0
   22.6274   15.7720    3.4144 H   0  0  0  0  0  0  0  0  0  0  0  0
   22.6275   16.0538    1.6710 H   0  0  0  0  0  0  0  0  0  0  0  0
   24.8957   15.0092    1.5021 H   0  0  0  0  0  0  0  0  0  0  0  0
   24.8957   14.7274    3.2456 H   0  0  0  0  0  0  0  0  0  0  0  0
   24.6541   17.1867    3.6431 H   0  0  0  0  0  0  0  0  0  0  0  0
   24.6541   17.4685    1.8997 H   0  0  0  0  0  0  0  0  0  0  0  0
   26.9223   16.4239    1.7308 H   0  0  0  0  0  0  0  0  0  0  0  0
   26.9223   16.1421    3.4743 H   0  0  0  0  0  0  0  0  0  0  0  0
   26.6808   18.6014    3.8718 H   0  0  0  0  0  0  0  0  0  0  0  0
   26.6808   18.8832    2.1284 H   0  0  0  0  0  0  0  0  0  0  0  0
   28.9490   17.8386    1.9595 H   0  0  0  0  0  0  0  0  0  0  0  0
   28.9490   17.5568    3.7030 H   0  0  0  0  0  0  0  0  0  0  0  0
   28.7074   20.0161    4.1005 H   0  0  0  0  0  0  0  0  0  0  0  0
   28.7074   20.2979    2.3570 H   0  0  0  0  0  0  0  0  0  0  0  0
   30.9757   19.2533    2.1882 H   0  0  0  0  0  0  0  0  0  0  0  0
   30.9757   18.9715    3.9316 H   0  0  0  0  0  0  0  0  0  0  0  0
   30.7341   21.4308    4.3292 H   0  0  0  0  0  0  0  0  0  0  0  0
   30.7341   21.7126    2.5857 H   0  0  0  0  0  0  0  0  0  0  0  0
   33.0023   20.6680    2.4169 H   0  0  0  0  0  0  0  0  0  0  0  0
   33.0023   20.3862    4.1603 H   0  0  0  0  0  0  0  0  0  0  0  0
   32.7608   22.8455    4.5579 H   0  0  0  0  0  0  0  0  0  0  0  0
   32.7608   23.1273    2.8144 H   0  0  0  0  0  0  0  0  0  0  0  0
   35.0290   22.0827    2.6456 H   0  0  0  0  0  0  0  0  0  0  0  0
   35.0290   21.8009    4.3890 H   0  0  0  0  0  0  0  0  0  0  0  0
   34.7874   24.2602    4.7866 H   0  0  0  0  0  0  0  0  0  0  0  0
   34.7874   24.5420    3.0431 H   0  0  0  0  0  0  0  0  0  0  0  0
   37.0557   23.4975    2.8743 H   0  0  0  0  0  0  0  0  0  0  0  0
   37.0556   23.2156    4.6177 H   0  0  0  0  0  0  0  0  0  0  0  0
   36.8141   25.6749    5.0153 H   0  0  0  0  0  0  0  0  0  0  0  0
   36.8141   25.9568    3.2719 H   0  0  0  0  0  0  0  0  0  0  0  0
   39.0822   24.9134    3.1024 H   0  0  0  0  0  0  0  0  0  0  0  0
   39.0824   24.6293    4.8455 H   0  0  0  0  0  0  0  0  0  0  0  0
   38.8419   27.0874    5.2471 H   0  0  0  0  0  0  0  0  0  0  0  0
   38.8396   27.3725    3.5042 H   0  0  0  0  0  0  0  0  0  0  0  0
   41.1079   26.3275    3.3310 H   0  0  0  0  0  0  0  0  0  0  0  0
   41.1100   26.0447    5.0743 H   0  0  0  0  0  0  0  0  0  0  0  0
   40.8674   28.5043    5.4727 H   0  0  0  0  0  0  0  0  0  0  0  0
   40.8674   28.7862    3.7293 H   0  0  0  0  0  0  0  0  0  0  0  0
   43.1355   27.7429    3.5598 H   0  0  0  0  0  0  0  0  0  0  0  0
   43.1357   27.4587    5.3029 H   0  0  0  0  0  0  0  0  0  0  0  0
   42.8952   29.9169    5.7045 H   0  0  0  0  0  0  0  0  0  0  0  0
   42.8929   30.2019    3.9616 H   0  0  0  0  0  0  0  0  0  0  0  0
   45.1611   29.1569    3.7884 H   0  0  0  0  0  0  0  0  0  0  0  0
   45.1635   28.8741    5.5317 H   0  0  0  0  0  0  0  0  0  0  0  0
   44.9230   31.3327    5.9314 H   0  0  0  0  0  0  0  0  0  0  0  0
   44.9184   31.6161    4.1882 H   0  0  0  0  0  0  0  0  0  0  0  0
   47.1866   30.5714    4.0129 H   0  0  0  0  0  0  0  0  0  0  0  0
   47.1913   30.2903    5.7565 H   0  0  0  0  0  0  0  0  0  0  0  0
   46.9508   32.7491    6.1543 H   0  0  0  0  0  0  0  0  0  0  0  0
   46.9439   33.0311    4.4109 H   0  0  0  0  0  0  0  0  0  0  0  0
   49.2120   31.9892    4.2325 H   0  0  0  0  0  0  0  0  0  0  0  0
   49.2192   31.7050    5.9755 H   0  0  0  0  0  0  0  0  0  0  0  0
   48.9787   34.1630    6.3781 H   0  0  0  0  0  0  0  0  0  0  0  0
   48.9693   34.4481    4.6353 H   0  0  0  0  0  0  0  0  0  0  0  0
   51.2375   33.4045    4.4530 H   0  0  0  0  0  0  0  0  0  0  0  0
   51.2469   33.1217    6.1963 H   0  0  0  0  0  0  0  0  0  0  0  0
   51.0064   35.5801    6.5970 H   0  0  0  0  0  0  0  0  0  0  0  0
   50.9949   35.8637    4.8539 H   0  0  0  0  0  0  0  0  0  0  0  0
   53.2629   34.8229    4.6686 H   0  0  0  0  0  0  0  0  0  0  0  0
   53.2747   34.5370    6.4114 H   0  0  0  0  0  0  0  0  0  0  0  0
   53.0332   36.9951    6.8163 H   0  0  0  0  0  0  0  0  0  0  0  0
   53.0214   37.2811    5.0736 H   0  0  0  0  0  0  0  0  0  0  0  0
   55.2893   36.2391    4.8873 H   0  0  0  0  0  0  0  0  0  0  0  0
   55.3011   35.9533    6.6299 H   0  0  0  0  0  0  0  0  0  0  0  0
   55.0584   38.4102    7.0341 H   0  0  0  0  0  0  0  0  0  0  0  0
   55.0469   38.6961    5.2929 H   0  0  0  0  0  0  0  0  0  0  0  0
   57.3161   37.6558    5.1057 H   0  0  0  0  0  0  0  0  0  0  0  0
   57.3278   37.3696    6.8492 H   0  0  0  0  0  0  0  0  0  0  0  0
   57.0849   39.8271    7.2540 H   0  0  0  0  0  0  0  0  0  0  0  0
   57.0731   40.1135    5.5104 H   0  0  0  0  0  0  0  0  0  0  0  0
   59.3419   39.0717    5.3239 H   0  0  0  0  0  0  0  0  0  0  0  0
   59.3537   38.7853    7.0679 H   0  0  0  0  0  0  0  0  0  0  0  0
   59.1166   41.2434    7.4720 H   0  0  0  0  0  0  0  0  0  0  0  0
   59.1049   41.5295    5.7304 H   0  0  0  0  0  0  0  0  0  0  0  0
   61.3761   40.4886    5.5446 H   0  0  0  0  0  0  0  0  0  0  0  0
   61.3867   40.2016    7.2844 H   0  0  0  0  0  0  0  0  0  0  0  0
   61.1393   42.6564    7.6934 H   0  0  0  0  0  0  0  0  0  0  0  0
   61.1276   42.9449    5.9510 H   0  0  0  0  0  0  0  0  0  0  0  0
   63.3961   41.9054    5.7638 H   0  0  0  0  0  0  0  0  0  0  0  0
   63.4078   41.6170    7.5059 H   0  0  0  0  0  0  0  0  0  0  0  0
   63.1668   44.0747    7.9145 H   0  0  0  0  0  0  0  0  0  0  0  0
   63.1551   44.3631    6.1722 H   0  0  0  0  0  0  0  0  0  0  0  0
   65.4231   43.3219    5.9850 H   0  0  0  0  0  0  0  0  0  0  0  0
   65.4348   43.0337    7.7264 H   0  0  0  0  0  0  0  0  0  0  0  0
   65.1942   45.4921    8.1352 H   0  0  0  0  0  0  0  0  0  0  0  0
   65.1822   45.7799    6.3932 H   0  0  0  0  0  0  0  0  0  0  0  0
   67.4510   44.7396    6.2054 H   0  0  0  0  0  0  0  0  0  0  0  0
   67.4627   44.4512    7.9480 H   0  0  0  0  0  0  0  0  0  0  0  0
   67.2197   46.9088    8.3564 H   0  0  0  0  0  0  0  0  0  0  0  0
   67.2080   47.1973    6.6141 H   0  0  0  0  0  0  0  0  0  0  0  0
   69.4763   46.1571    6.4257 H   0  0  0  0  0  0  0  0  0  0  0  0
   69.4883   45.8662    8.1678 H   0  0  0  0  0  0  0  0  0  0  0  0
   69.2480   48.3232    8.5796 H   0  0  0  0  0  0  0  0  0  0  0  0
   69.2362   48.6141    6.8377 H   0  0  0  0  0  0  0  0  0  0  0  0
   71.5045   47.5722    6.6485 H   0  0  0  0  0  0  0  0  0  0  0  0
   71.5162   47.2814    8.3903 H   0  0  0  0  0  0  0  0  0  0  0  0
   71.2757   49.7387    8.8023 H   0  0  0  0  0  0  0  0  0  0  0  0
   71.2639   50.0295    7.0604 H   0  0  0  0  0  0  0  0  0  0  0  0
   73.5339   48.9902    6.8724 H   0  0  0  0  0  0  0  0  0  0  0  0
   73.5456   48.7017    8.6144 H   0  0  0  0  0  0  0  0  0  0  0  0
   73.3084   51.1609    9.0233 H   0  0  0  0  0  0  0  0  0  0  0  0
   73.2967   51.4494    7.2811 H   0  0  0  0  0  0  0  0  0  0  0  0
   75.5675   50.4130    7.0939 H   0  0  0  0  0  0  0  0  0  0  0  0
   75.5792   50.1223    8.8348 H   0  0  0  0  0  0  0  0  0  0  0  0
   75.3639   52.5863    9.2473 H   0  0  0  0  0  0  0  0  0  0  0  0
   75.3543   52.8763    7.5056 H   0  0  0  0  0  0  0  0  0  0  0  0
   77.6411   51.5662    9.0694 H   0  0  0  0  0  0  0  0  0  0  0  0
   77.6209   53.2270    8.4467 H   0  0  0  0  0  0  0  0  0  0  0  0
   77.6316   51.8575    7.3193 H   0  0  0  0  0  0  0  0  0  0  0  0
  1  2  1  0  0  0  0
  1 80  1  0  0  0  0
  2  3  1  0  0  0  0
  2  6  1  0  0  0  0
  2 81  1  0  0  0  0
  3  4  1  0  0  0  0
  3 82  1  0  0  0  0
  3 83  1  0  0  0  0
  4  5  1  0  0  0  0
  4 84  1  0  0  0  0
  4 85  1  0  0  0  0
  5 86  1  0  0  0  0
  5 87  1  0  0  0  0
  5 88  1  0  0  0  0
  6  7  1  0  0  0  0
  7  8  1  0  0  0  0
  7 89  1  0  0  0  0
  7 90  1  0  0  0  0
  8  9  1  0  0  0  0
  9 10  1  0  0  0  0
  9 91  1  0  0  0  0
  9 92  1  0  0  0  0
 10 11  1  0  0  0  0
 10 93  1  0  0  0  0
 10 94  1  0  0  0  0
 11 12  1  0  0  0  0
 11 95  1  0  0  0  0
 11 96  1  0  0  0  0
 12 13  1  0  0  0  0
 12 97  1  0  0  0  0
 12 98  1  0  0  0  0
 13 14  1  0  0  0  0
 13 99  1  0  0  0  0
 13100  1  0  0  0  0
 14 15  1  0  0  0  0
 14101  1  0  0  0  0
 14102  1  0  0  0  0
 15 16  1  0  0  0  0
 15103  1  0  0  0  0
 15104  1  0  0  0  0
 16 17  1  0  0  0  0
 16105  1  0  0  0  0
 16106  1  0  0  0  0
 17 18  1  0  0  0  0
 17107  1  0  0  0  0
 17108  1  0  0  0  0
 18 19  1  0  0  0  0
 18109  1  0  0  0  0
 18110  1  0  0  0  0
 19 20  1  0  0  0  0
 19111  1  0  0  0  0
 19112  1  0  0  0  0
 20 21  1  0  0  0  0
 20113  1  0  0  0  0
 20114  1  0  0  0  0
 21 22  1  0  0  0  0
 21115  1  0  0  0  0
 21116  1  0  0  0  0
 22 23  1  0  0  0  0
 22117  1  0  0  0  0
 22118  1  0  0  0  0
 23 24  1  0  0  0  0
 23119  1  0  0  0  0
 23120  1  0  0  0  0
 24 25  1  0  0  0  0
 24121  1  0  0  0  0
 24122  1  0  0  0  0
 25 26  1  0  0  0  0
 25123  1  0  0  0  0
 25124  1  0  0  0  0
 26 27  1  0  0  0  0
 26125  1  0  0  0  0
 26126  1  0  0  0  0
 27 28  1  0  0  0  0
 27127  1  0  0  0  0
 27128  1  0  0  0  0
 28 29  1  0  0  0  0
 28129  1  0  0  0  0
 28130  1  0  0  0  0
 29 30  1  0  0  0  0
 29131  1  0  0  0  0
 29132  1  0  0  0  0
 30 31  1  0  0  0  0
 30133  1  0  0  0  0
 30134  1  0  0  0  0
 31 32  1  0  0  0  0
 31135  1  0  0  0  0
 31136  1  0  0  0  0
 32 33  1  0  0  0  0
 32137  1  0  0  0  0
 32138  1  0  0  0  0
 33 34  1  0  0  0  0
 33139  1  0  0  0  0
 33140  1  0  0  0  0
 34 35  1  0  0  0  0
 34141  1  0  0  0  0
 34142  1  0  0  0  0
 35 36  1  0  0  0  0
 35143  1  0  0  0  0
 35144  1  0  0  0  0
 36 37  1  0  0  0  0
 36145  1  0  0  0  0
 36146  1  0  0  0  0
 37 38  1  0  0  0  0
 37147  1  0  0  0  0
 37148  1  0  0  0  0
 38 39  1  0  0  0  0
 38149  1  0  0  0  0
 38150  1  0  0  0  0
 39 40  1  0  0  0  0
 39151  1  0  0  0  0
 39152  1  0  0  0  0
 40 41  1  0  0  0  0
 40153  1  0  0  0  0
 40154  1  0  0  0  0
 41 42  1  0  0  0  0
 41155  1  0  0  0  0
 41156  1  0  0  0  0
 42 43  1  0  0  0  0
 42157  1  0  0  0  0
 42158  1  0  0  0  0
 43 44  1  0  0  0  0
 43159  1  0  0  0  0
 43160  1  0  0  0  0
 44 45  1  0  0  0  0
 44161  1  0  0  0  0
 44162  1  0  0  0  0
 45 46  1  0  0  0  0
 45163  1  0  0  0  0
 45164  1  0  0  0  0
 46 47  1  0  0  0  0
 46165  1  0  0  0  0
 46166  1  0  0  0  0
 47 48  1  0  0  0  0
 47167  1  0  0  0  0
 47168  1  0  0  0  0
 48 49  1  0  0  0  0
 48169  1  0  0  0  0
 48170  1  0  0  0  0
 49 50  1  0  0  0  0
 49171  1  0  0  0  0
 49172  1  0  0  0  0
 50 51  1  0  0  0  0
 50173  1  0  0  0  0
 50174  1  0  0  0  0
 51 52  1  0  0  0  0
 51175  1  0  0  0  0
 51176  1  0  0  0  0
 52 53  1  0  0  0  0
 52177  1  0  0  0  0
 52178  1  0  0  0  0
 53 54  1  0  0  0  0
 53179  1  0  0  0  0
 53180  1  0  0  0  0
 54 55  1  0  0  0  0
 54181  1  0  0  0  0
 54182  1  0  0  0  0
 55 56  1  0  0  0  0
 55183  1  0  0  0  0
 55184  1  0  0  0  0
 56 57  1  0  0  0  0
 56185  1  0  0  0  0
 56186  1  0  0  0  0
 57 58  1  0  0  0  0
 57187  1  0  0  0  0
 57188  1  0  0  0  0
 58 59  1  0  0  0  0
 58189  1  0  0  0  0
 58190  1  0  0  0  0
 59 60  1  0  0  0  0
 59191  1  0  0  0  0
 59192  1  0  0  0  0
 60 61  1  0  0  0  0
 60193  1  0  0  0  0
 60194  1  0  0  0  0
 61 62  1  0  0  0  0
 61195  1  0  0  0  0
 61196  1  0  0  0  0
 62 63  1  0  0  0  0
 62197  1  0  0  0  0
 62198  1  0  0  0  0
 63 64  1  0  0  0  0
 63199  1  0  0  0  0
 63200  1  0  0  0  0
 64 65  1  0  0  0  0
 64201  1  0  0  0  0
 64202  1  0  0  0  0
 65 66  1  0  0  0  0
 65203  1  0  0  0  0
 65204  1  0  0  0  0
 66 67  1  0  0  0  0
 66205  1  0  0  0  0
 66206  1  0  0  0  0
 67 68  1  0  0  0  0
 67207  1  0  0  0  0
 67208  1  0  0  0  0
 68 69  1  0  0  0  0
 68209  1  0  0  0  0
 68210  1  0  0  0  0
 69 70  1  0  0  0  0
 69211  1  0  0  0  0
 69212  1  0  0  0  0
 70 71  1  0  0  0  0
 70213  1  0  0  0  0
 70214  1  0  0  0  0
 71 72  1  0  0  0  0
 71215  1  0  0  0  0
 71216  1  0  0  0  0
 72 73  1  0  0  0  0
 72217  1  0  0  0  0
 72218  1  0  0  0  0
 73 74  1  0  0  0  0
 73219  1  0  0  0  0
 73220  1  0  0  0  0
 74 75  1  0  0  0  0
 74221  1  0  0  0  0
 74222  1  0  0  0  0
 75 76  1  0  0  0  0
 75223  1  0  0  0  0
 75224  1  0  0  0  0
 76 77  1  0  0  0  0
 76225  1  0  0  0  0
 76226  1  0  0  0  0
 77 78  1  0  0  0  0
 77227  1  0  0  0  0
 77228  1  0  0  0  0
 78 79  1  0  0  0  0
 78229  1  0  0  0  0
 78230  1  0  0  0  0
 79231  1  0  0  0  0
 79232  1  0  0  0  0
 79233  1  0  0  0  0
M  END
$$$$
