
 OpenBabel04232216463D

 50 50  0  0  0  0  0  0  0  0999 V2000
    5.6353   -2.7526   -0.3931 C   0  0  0  0  0  0  0  0  0  0  0  0
    6.8282   -2.7520   -1.5404 C   0  0  0  0  0  0  0  0  0  0  0  0
    6.0026   -1.7788   -2.2886 C   0  0  0  0  0  0  0  0  0  0  0  0
    5.7416   -0.4414   -2.1099 C   0  0  0  0  0  0  0  0  0  0  0  0
    5.9419    0.3947   -0.8177 C   0  0  0  0  0  0  0  0  0  0  0  0
    6.6327    1.7571   -0.5437 C   0  0  0  0  0  0  0  0  0  0  0  0
    5.8836    3.0666   -0.8352 C   0  0  0  0  0  0  0  0  0  0  0  0
    4.5810    3.2997   -0.0523 C   0  0  0  0  0  0  0  0  0  0  0  0
    3.9155    4.6062   -0.4834 C   0  0  0  0  0  0  0  0  0  0  0  0
    5.4650    0.1080   -3.4447 C   0  0  0  0  0  0  0  0  0  0  0  0
    6.6423    0.1238   -4.1018 C   0  0  0  0  0  0  0  0  0  0  0  0
    7.0712   -1.0263   -4.9019 C   0  0  0  0  0  0  0  0  0  0  0  0
    8.3752   -1.2714   -4.8690 C   0  0  0  0  0  0  0  0  0  0  0  0
    9.0976   -2.0579   -5.8037 C   0  0  0  0  0  0  0  0  0  0  0  0
   10.2733   -1.4948   -6.0835 C   0  0  0  0  0  0  0  0  0  0  0  0
   11.3451   -2.1409   -6.7700 C   0  0  0  0  0  0  0  0  0  0  0  0
   12.4430   -1.9950   -6.0214 C   0  0  0  0  0  0  0  0  0  0  0  0
   12.7056   -2.9991   -5.0052 C   0  0  0  0  0  0  0  0  0  0  0  0
   12.0239   -3.4936   -3.9229 C   0  0  0  0  0  0  0  0  0  0  0  0
   10.5447   -3.6382   -3.3560 C   0  0  0  0  0  0  0  0  0  0  0  0
    9.4596   -3.1538   -2.6176 C   0  0  0  0  0  0  0  0  0  0  0  0
    8.2222   -2.4975   -1.7031 C   0  0  0  0  0  0  0  0  0  0  0  0
    4.7817   -3.3564   -0.7776 H   0  0  0  0  0  0  0  0  0  0  0  0
    5.0839   -1.8024   -0.2135 H   0  0  0  0  0  0  0  0  0  0  0  0
    5.8706   -3.1048    0.6067 H   0  0  0  0  0  0  0  0  0  0  0  0
    5.4597   -2.3008   -3.0868 H   0  0  0  0  0  0  0  0  0  0  0  0
    6.5091   -0.2625   -0.1456 H   0  0  0  0  0  0  0  0  0  0  0  0
    4.9465    0.4763   -0.3606 H   0  0  0  0  0  0  0  0  0  0  0  0
    7.6215    1.7846   -1.0127 H   0  0  0  0  0  0  0  0  0  0  0  0
    6.8325    1.7797    0.5431 H   0  0  0  0  0  0  0  0  0  0  0  0
    5.6961    3.1411   -1.9083 H   0  0  0  0  0  0  0  0  0  0  0  0
    6.5597    3.8954   -0.5725 H   0  0  0  0  0  0  0  0  0  0  0  0
    4.7764    3.3464    1.0274 H   0  0  0  0  0  0  0  0  0  0  0  0
    3.8780    2.4793   -0.2201 H   0  0  0  0  0  0  0  0  0  0  0  0
    4.5388    5.4720   -0.2341 H   0  0  0  0  0  0  0  0  0  0  0  0
    2.9486    4.7349    0.0149 H   0  0  0  0  0  0  0  0  0  0  0  0
    3.7398    4.6131   -1.5639 H   0  0  0  0  0  0  0  0  0  0  0  0
    4.6523   -0.4181   -3.9634 H   0  0  0  0  0  0  0  0  0  0  0  0
    7.4785    0.5532   -3.5367 H   0  0  0  0  0  0  0  0  0  0  0  0
    6.4053   -1.7009   -5.4300 H   0  0  0  0  0  0  0  0  0  0  0  0
    8.9986   -0.7076   -4.1684 H   0  0  0  0  0  0  0  0  0  0  0  0
    8.7513   -3.0090   -6.1893 H   0  0  0  0  0  0  0  0  0  0  0  0
   10.5615   -0.6044   -5.5130 H   0  0  0  0  0  0  0  0  0  0  0  0
   11.0853   -3.1011   -7.2054 H   0  0  0  0  0  0  0  0  0  0  0  0
   12.7220   -0.9982   -5.6572 H   0  0  0  0  0  0  0  0  0  0  0  0
   13.6743   -3.4454   -5.2943 H   0  0  0  0  0  0  0  0  0  0  0  0
   12.6736   -4.2580   -3.4673 H   0  0  0  0  0  0  0  0  0  0  0  0
   10.3857   -4.6780   -3.6773 H   0  0  0  0  0  0  0  0  0  0  0  0
    9.9948   -2.1950   -2.4292 H   0  0  0  0  0  0  0  0  0  0  0  0
    8.5061   -1.4741   -1.4238 H   0  0  0  0  0  0  0  0  0  0  0  0
  1  2  1  0  0  0  0
  1 23  1  0  0  0  0
  1 24  1  0  0  0  0
  1 25  1  0  0  0  0
  2  3  1  0  0  0  0
  2 22  2  3  0  0  0
  3  4  2  3  0  0  0
  3 26  1  0  0  0  0
  4  5  1  0  0  0  0
  4 10  1  0  0  0  0
  5  6  1  0  0  0  0
  5 27  1  0  0  0  0
  5 28  1  0  0  0  0
  6  7  1  0  0  0  0
  6 29  1  0  0  0  0
  6 30  1  0  0  0  0
  7  8  1  0  0  0  0
  7 31  1  0  0  0  0
  7 32  1  0  0  0  0
  8  9  1  0  0  0  0
  8 33  1  0  0  0  0
  8 34  1  0  0  0  0
  9 35  1  0  0  0  0
  9 36  1  0  0  0  0
  9 37  1  0  0  0  0
 10 11  2  3  0  0  0
 10 38  1  0  0  0  0
 11 12  1  0  0  0  0
 11 39  1  0  0  0  0
 12 13  2  3  0  0  0
 12 40  1  0  0  0  0
 13 14  1  0  0  0  0
 13 41  1  0  0  0  0
 14 15  2  3  0  0  0
 14 42  1  0  0  0  0
 15 16  1  0  0  0  0
 15 43  1  0  0  0  0
 16 17  2  3  0  0  0
 16 44  1  0  0  0  0
 17 18  1  0  0  0  0
 17 45  1  0  0  0  0
 18 19  2  3  0  0  0
 18 46  1  0  0  0  0
 19 20  1  0  0  0  0
 19 47  1  0  0  0  0
 20 21  2  3  0  0  0
 20 48  1  0  0  0  0
 21 22  1  0  0  0  0
 21 49  1  0  0  0  0
 22 50  1  0  0  0  0
M  END
$$$$
