
 OpenBabel04232216393D

 39 39  0  0  0  0  0  0  0  0999 V2000
    6.2276    1.4624   -3.9620 C   0  0  0  0  0  0  0  0  0  0  0  0
    5.5725    1.1268   -2.6644 C   0  0  0  0  0  0  0  0  0  0  0  0
    4.4918    0.3148   -2.5471 C   0  0  0  0  0  0  0  0  0  0  0  0
    4.6088   -0.8195   -1.6102 C   0  0  0  0  0  0  0  0  0  0  0  0
    5.1004   -1.9136   -2.2330 C   0  0  0  0  0  0  0  0  0  0  0  0
    6.5724   -2.2083   -2.0575 C   0  0  0  0  0  0  0  0  0  0  0  0
    7.2003   -2.4216   -3.4306 C   0  0  0  0  0  0  0  0  0  0  0  0
    8.7134   -2.4369   -3.3216 C   0  0  0  0  0  0  0  0  0  0  0  0
    9.2871   -2.7301   -4.7020 C   0  0  0  0  0  0  0  0  0  0  0  0
   10.7484   -2.3206   -4.7806 C   0  0  0  0  0  0  0  0  0  0  0  0
   11.0408   -1.6246   -6.1098 C   0  0  0  0  0  0  0  0  0  0  0  0
   11.1426   -0.0853   -5.9824 C   0  0  0  0  0  0  0  0  0  0  0  0
    9.8255    0.7997   -5.9328 C   0  0  0  0  0  0  0  0  0  0  0  0
    8.9729    0.7048   -4.6250 C   0  0  0  0  0  0  0  0  0  0  0  0
    7.5060    1.1328   -4.3411 C   0  0  0  0  0  0  0  0  0  0  0  0
    5.5500    1.9133   -4.6796 H   0  0  0  0  0  0  0  0  0  0  0  0
    6.1719    1.3134   -1.7712 H   0  0  0  0  0  0  0  0  0  0  0  0
    3.8300    0.0939   -3.3816 H   0  0  0  0  0  0  0  0  0  0  0  0
    4.9788   -0.6024   -0.6069 H   0  0  0  0  0  0  0  0  0  0  0  0
    4.7587   -2.1120   -3.2547 H   0  0  0  0  0  0  0  0  0  0  0  0
    6.7510   -3.0748   -1.4202 H   0  0  0  0  0  0  0  0  0  0  0  0
    7.0673   -1.3406   -1.5968 H   0  0  0  0  0  0  0  0  0  0  0  0
    6.8948   -1.6219   -4.1226 H   0  0  0  0  0  0  0  0  0  0  0  0
    6.8458   -3.3554   -3.8801 H   0  0  0  0  0  0  0  0  0  0  0  0
    9.0624   -3.1721   -2.5941 H   0  0  0  0  0  0  0  0  0  0  0  0
    9.0529   -1.4669   -2.9338 H   0  0  0  0  0  0  0  0  0  0  0  0
    8.7031   -2.2111   -5.4747 H   0  0  0  0  0  0  0  0  0  0  0  0
    9.1738   -3.7963   -4.9253 H   0  0  0  0  0  0  0  0  0  0  0  0
   11.3601   -3.2251   -4.6706 H   0  0  0  0  0  0  0  0  0  0  0  0
   11.0366   -1.6643   -3.9512 H   0  0  0  0  0  0  0  0  0  0  0  0
   10.3272   -1.9043   -6.8941 H   0  0  0  0  0  0  0  0  0  0  0  0
   12.0113   -2.0135   -6.4553 H   0  0  0  0  0  0  0  0  0  0  0  0
   11.7912    0.1505   -5.1280 H   0  0  0  0  0  0  0  0  0  0  0  0
   11.7132    0.2331   -6.8681 H   0  0  0  0  0  0  0  0  0  0  0  0
   10.1744    1.8357   -6.0319 H   0  0  0  0  0  0  0  0  0  0  0  0
    9.2298    0.5708   -6.8211 H   0  0  0  0  0  0  0  0  0  0  0  0
    9.6024    1.0725   -3.8110 H   0  0  0  0  0  0  0  0  0  0  0  0
    8.8869   -0.3597   -4.5294 H   0  0  0  0  0  0  0  0  0  0  0  0
    7.7153    0.7164   -3.3320 H   0  0  0  0  0  0  0  0  0  0  0  0
  1  2  1  0  0  0  0
  1 15  2  3  0  0  0
  1 16  1  0  0  0  0
  2  3  2  3  0  0  0
  2 17  1  0  0  0  0
  3  4  1  0  0  0  0
  3 18  1  0  0  0  0
  4  5  2  3  0  0  0
  4 19  1  0  0  0  0
  5  6  1  0  0  0  0
  5 20  1  0  0  0  0
  6  7  1  0  0  0  0
  6 21  1  0  0  0  0
  6 22  1  0  0  0  0
  7  8  1  0  0  0  0
  7 23  1  0  0  0  0
  7 24  1  0  0  0  0
  8  9  1  0  0  0  0
  8 25  1  0  0  0  0
  8 26  1  0  0  0  0
  9 10  1  0  0  0  0
  9 27  1  0  0  0  0
  9 28  1  0  0  0  0
 10 11  1  0  0  0  0
 10 29  1  0  0  0  0
 10 30  1  0  0  0  0
 11 12  1  0  0  0  0
 11 31  1  0  0  0  0
 11 32  1  0  0  0  0
 12 13  1  0  0  0  0
 12 33  1  0  0  0  0
 12 34  1  0  0  0  0
 13 14  1  0  0  0  0
 13 35  1  0  0  0  0
 13 36  1  0  0  0  0
 14 15  1  0  0  0  0
 14 37  1  0  0  0  0
 14 38  1  0  0  0  0
 15 39  1  0  0  0  0
M  END
$$$$
