
 OpenBabel04232216553D

 14 13  0  0  0  0  0  0  0  0999 V2000
    1.0482   -0.0033    0.0822 C   0  0  0  0  0  0  0  0  0  0  0  0
    2.5686    0.0514    0.1503 C   0  0  0  0  0  0  0  0  0  0  0  0
    3.0762    1.4032    1.2544 S   0  0  0  0  0  0  0  0  0  0  0  0
    5.1249    1.2665    1.2047 S   0  0  0  0  0  0  0  0  0  0  0  0
    5.6762    1.8488   -0.6791 S   0  0  0  0  0  0  0  0  0  0  0  0
    5.1583    3.8293   -0.8046 S   0  0  0  0  0  0  0  0  0  0  0  0
    5.6107    4.4300   -2.7166 S   0  0  0  0  0  0  0  0  0  0  0  0
    4.1089    3.7343   -3.9272 S   0  0  0  0  0  0  0  0  0  0  0  0
    0.7426   -0.7690   -0.6394 H   0  0  0  0  0  0  0  0  0  0  0  0
    0.6290    0.9529   -0.2544 H   0  0  0  0  0  0  0  0  0  0  0  0
    0.6153   -0.2591    1.0473 H   0  0  0  0  0  0  0  0  0  0  0  0
    2.9692    0.2263   -0.8467 H   0  0  0  0  0  0  0  0  0  0  0  0
    2.9547   -0.9041    0.5311 H   0  0  0  0  0  0  0  0  0  0  0  0
    4.7497    2.7199   -4.5189 H   0  0  0  0  0  0  0  0  0  0  0  0
  1  2  1  0  0  0  0
  1  9  1  0  0  0  0
  1 10  1  0  0  0  0
  1 11  1  0  0  0  0
  2  3  1  0  0  0  0
  2 12  1  0  0  0  0
  2 13  1  0  0  0  0
  3  4  1  0  0  0  0
  4  5  1  0  0  0  0
  5  6  1  0  0  0  0
  6  7  1  0  0  0  0
  7  8  1  0  0  0  0
  8 14  1  0  0  0  0
M  END
$$$$
