
 OpenBabel04232216433D

 47 48  0  0  0  0  0  0  0  0999 V2000
    8.1144   -0.7813    0.2464 C   0  0  0  0  0  0  0  0  0  0  0  0
    7.9522   -1.5933    1.3104 C   0  0  0  0  0  0  0  0  0  0  0  0
    8.6237   -2.9184    1.2978 C   0  0  0  0  0  0  0  0  0  0  0  0
    7.8113   -3.9276    0.8594 C   0  0  0  0  0  0  0  0  0  0  0  0
    7.3018   -3.6960   -0.5166 C   0  0  0  0  0  0  0  0  0  0  0  0
    6.1049   -3.1094   -0.7649 C   0  0  0  0  0  0  0  0  0  0  0  0
    4.8554   -3.2556    0.0925 C   0  0  0  0  0  0  0  0  0  0  0  0
    4.0935   -4.5324   -0.2522 C   0  0  0  0  0  0  0  0  0  0  0  0
    6.0617   -2.0609   -1.7147 N   0  0  0  0  0  0  0  0  0  0  0  0
    6.2184   -2.4013   -3.1583 C   0  0  0  0  0  0  0  0  0  0  0  0
    4.9363   -2.1576   -3.9161 C   0  0  0  0  0  0  0  0  0  0  0  0
    4.0382   -3.1642   -3.7595 N   0  0  0  0  0  0  0  0  0  0  0  0
    2.7236   -2.9267   -3.8945 N   0  0  0  0  0  0  0  0  0  0  0  0
    2.3022   -1.6711   -4.1349 C   0  0  0  0  0  0  0  0  0  0  0  0
    0.8497   -1.4448   -3.8504 C   0  0  0  0  0  0  0  0  0  0  0  0
    3.1913   -0.6428   -4.4772 C   0  0  0  0  0  0  0  0  0  0  0  0
    2.6827    0.7414   -4.7836 C   0  0  0  0  0  0  0  0  0  0  0  0
    4.5780   -0.9234   -4.4675 C   0  0  0  0  0  0  0  0  0  0  0  0
    5.5840    0.1393   -4.8757 C   0  0  0  0  0  0  0  0  0  0  0  0
    6.7732   -0.2884   -5.7356 C   0  0  0  0  0  0  0  0  0  0  0  0
    6.1743   -0.7254   -1.2848 C   0  0  0  0  0  0  0  0  0  0  0  0
    6.9930   -0.1186   -0.3942 C   0  0  0  0  0  0  0  0  0  0  0  0
    8.9786   -0.8876   -0.4068 H   0  0  0  0  0  0  0  0  0  0  0  0
    7.0353   -1.5504    1.8953 H   0  0  0  0  0  0  0  0  0  0  0  0
    9.5716   -2.8257    0.7522 H   0  0  0  0  0  0  0  0  0  0  0  0
    6.9899   -4.1887    1.5287 H   0  0  0  0  0  0  0  0  0  0  0  0
    8.1129   -3.5004   -1.2222 H   0  0  0  0  0  0  0  0  0  0  0  0
    4.1812   -2.4077   -0.0723 H   0  0  0  0  0  0  0  0  0  0  0  0
    5.0875   -3.2439    1.1611 H   0  0  0  0  0  0  0  0  0  0  0  0
    3.7957   -4.5508   -1.3058 H   0  0  0  0  0  0  0  0  0  0  0  0
    3.1811   -4.6051    0.3497 H   0  0  0  0  0  0  0  0  0  0  0  0
    4.6964   -5.4254   -0.0551 H   0  0  0  0  0  0  0  0  0  0  0  0
    6.4706   -3.4649   -3.2685 H   0  0  0  0  0  0  0  0  0  0  0  0
    7.0744   -1.8581   -3.5508 H   0  0  0  0  0  0  0  0  0  0  0  0
    0.3465   -2.3916   -3.6246 H   0  0  0  0  0  0  0  0  0  0  0  0
    0.3369   -0.9817   -4.6957 H   0  0  0  0  0  0  0  0  0  0  0  0
    0.7548   -0.8102   -2.9620 H   0  0  0  0  0  0  0  0  0  0  0  0
    1.6552    0.8995   -4.4476 H   0  0  0  0  0  0  0  0  0  0  0  0
    2.7205    0.9275   -5.8609 H   0  0  0  0  0  0  0  0  0  0  0  0
    3.2817    1.4938   -4.2587 H   0  0  0  0  0  0  0  0  0  0  0  0
    5.9365    0.6646   -3.9834 H   0  0  0  0  0  0  0  0  0  0  0  0
    5.0761    0.8900   -5.4928 H   0  0  0  0  0  0  0  0  0  0  0  0
    7.4676   -0.9592   -5.2304 H   0  0  0  0  0  0  0  0  0  0  0  0
    7.3546    0.5986   -6.0144 H   0  0  0  0  0  0  0  0  0  0  0  0
    6.4477   -0.7789   -6.6581 H   0  0  0  0  0  0  0  0  0  0  0  0
    5.4438   -0.0978   -1.7989 H   0  0  0  0  0  0  0  0  0  0  0  0
    6.9118    0.9552   -0.2274 H   0  0  0  0  0  0  0  0  0  0  0  0
  1  2  2  0  0  0  0
  1 22  1  0  0  0  0
  1 23  1  0  0  0  0
  2  3  1  0  0  0  0
  2 24  1  0  0  0  0
  3  4  2  0  0  0  0
  3 25  1  0  0  0  0
  4  5  1  0  0  0  0
  4 26  1  0  0  0  0
  5  6  2  0  0  0  0
  5 27  1  0  0  0  0
  6  7  1  0  0  0  0
  6  9  1  0  0  0  0
  7  8  1  0  0  0  0
  7 28  1  0  0  0  0
  7 29  1  0  0  0  0
  8 30  1  0  0  0  0
  8 31  1  0  0  0  0
  8 32  1  0  0  0  0
  9 10  1  0  0  0  0
  9 21  1  0  0  0  0
 10 11  1  0  0  0  0
 10 33  1  0  0  0  0
 10 34  1  0  0  0  0
 11 12  1  0  0  0  0
 11 18  2  0  0  0  0
 12 13  2  0  0  0  0
 13 14  1  0  0  0  0
 14 15  1  0  0  0  0
 14 16  2  0  0  0  0
 15 35  1  0  0  0  0
 15 36  1  0  0  0  0
 15 37  1  0  0  0  0
 16 17  1  0  0  0  0
 16 18  1  0  0  0  0
 17 38  1  0  0  0  0
 17 39  1  0  0  0  0
 17 40  1  0  0  0  0
 18 19  1  0  0  0  0
 19 20  1  0  0  0  0
 19 41  1  0  0  0  0
 19 42  1  0  0  0  0
 20 43  1  0  0  0  0
 20 44  1  0  0  0  0
 20 45  1  0  0  0  0
 21 22  2  0  0  0  0
 21 46  1  0  0  0  0
 22 47  1  0  0  0  0
M  END
$$$$
