
 OpenBabel04232217023D

 91 90  0  0  0  0  0  0  0  0999 V2000
    6.3941   -5.3366    4.1900 S   0  0  0  0  0  0  0  0  0  0  0  0
    5.7465   -3.6627    4.4672 C   0  0  0  0  0  0  0  0  0  0  0  0
    6.0541   -3.1582    6.2157 S   0  0  0  0  0  0  0  0  0  0  0  0
    7.9110   -3.2281    6.2805 C   0  0  0  0  0  0  0  0  0  0  0  0
    8.4823   -2.1858    5.2961 C   0  0  0  0  0  0  0  0  0  0  0  0
   10.0210   -2.1663    5.3500 C   0  0  0  0  0  0  0  0  0  0  0  0
   10.7110   -0.9551    4.1562 S   0  0  0  0  0  0  0  0  0  0  0  0
    9.9920    0.8930    4.7145 S   0  0  0  0  0  0  0  0  0  0  0  0
   10.6788    1.2783    6.6274 S   0  0  0  0  0  0  0  0  0  0  0  0
   12.7511    1.3366    6.6001 S   0  0  0  0  0  0  0  0  0  0  0  0
   13.4154    1.6968    8.5558 S   0  0  0  0  0  0  0  0  0  0  0  0
   15.5183    1.6949    8.5437 S   0  0  0  0  0  0  0  0  0  0  0  0
   16.2084    2.0814   10.4968 S   0  0  0  0  0  0  0  0  0  0  0  0
   18.3177    2.0787   10.4838 S   0  0  0  0  0  0  0  0  0  0  0  0
   19.0084    2.4651   12.4391 S   0  0  0  0  0  0  0  0  0  0  0  0
   21.1177    2.4625   12.4261 S   0  0  0  0  0  0  0  0  0  0  0  0
   21.8084    2.8489   14.3814 S   0  0  0  0  0  0  0  0  0  0  0  0
   23.9177    2.8463   14.3685 S   0  0  0  0  0  0  0  0  0  0  0  0
   24.6084    3.2326   16.3238 S   0  0  0  0  0  0  0  0  0  0  0  0
   26.7177    3.2301   16.3108 S   0  0  0  0  0  0  0  0  0  0  0  0
   27.4084    3.6164   18.2661 S   0  0  0  0  0  0  0  0  0  0  0  0
   29.5177    3.6139   18.2532 S   0  0  0  0  0  0  0  0  0  0  0  0
   30.2084    4.0002   20.2085 S   0  0  0  0  0  0  0  0  0  0  0  0
   32.3177    3.9977   20.1955 S   0  0  0  0  0  0  0  0  0  0  0  0
   33.0084    4.3840   22.1508 S   0  0  0  0  0  0  0  0  0  0  0  0
   35.1177    4.3814   22.1379 S   0  0  0  0  0  0  0  0  0  0  0  0
   35.8084    4.7678   24.0932 S   0  0  0  0  0  0  0  0  0  0  0  0
   37.9177    4.7652   24.0802 S   0  0  0  0  0  0  0  0  0  0  0  0
   38.6084    5.1516   26.0355 S   0  0  0  0  0  0  0  0  0  0  0  0
   40.7177    5.1490   26.0226 S   0  0  0  0  0  0  0  0  0  0  0  0
   41.4083    5.5354   27.9778 S   0  0  0  0  0  0  0  0  0  0  0  0
   43.5177    5.5328   27.9649 S   0  0  0  0  0  0  0  0  0  0  0  0
   44.2083    5.9191   29.9202 S   0  0  0  0  0  0  0  0  0  0  0  0
   46.3176    5.9166   29.9073 S   0  0  0  0  0  0  0  0  0  0  0  0
   47.0083    6.3029   31.8625 S   0  0  0  0  0  0  0  0  0  0  0  0
   49.1176    6.3004   31.8496 S   0  0  0  0  0  0  0  0  0  0  0  0
   49.8083    6.6867   33.8049 S   0  0  0  0  0  0  0  0  0  0  0  0
   51.9176    6.6842   33.7920 S   0  0  0  0  0  0  0  0  0  0  0  0
   52.6083    7.0705   35.7472 S   0  0  0  0  0  0  0  0  0  0  0  0
   54.7176    7.0679   35.7343 S   0  0  0  0  0  0  0  0  0  0  0  0
   55.4083    7.4543   37.6896 S   0  0  0  0  0  0  0  0  0  0  0  0
   57.5176    7.4517   37.6767 S   0  0  0  0  0  0  0  0  0  0  0  0
   58.2083    7.8381   39.6319 S   0  0  0  0  0  0  0  0  0  0  0  0
   60.3176    7.8355   39.6190 S   0  0  0  0  0  0  0  0  0  0  0  0
   61.0083    8.2219   41.5743 S   0  0  0  0  0  0  0  0  0  0  0  0
   63.1176    8.2193   41.5614 S   0  0  0  0  0  0  0  0  0  0  0  0
   63.8083    8.6056   43.5166 S   0  0  0  0  0  0  0  0  0  0  0  0
   65.9176    8.6031   43.5037 S   0  0  0  0  0  0  0  0  0  0  0  0
   66.6083    8.9894   45.4590 S   0  0  0  0  0  0  0  0  0  0  0  0
   68.7176    8.9869   45.4461 S   0  0  0  0  0  0  0  0  0  0  0  0
   69.4083    9.3732   47.4013 S   0  0  0  0  0  0  0  0  0  0  0  0
   71.5176    9.3707   47.3884 S   0  0  0  0  0  0  0  0  0  0  0  0
   72.2083    9.7570   49.3437 S   0  0  0  0  0  0  0  0  0  0  0  0
   74.3176    9.7544   49.3308 S   0  0  0  0  0  0  0  0  0  0  0  0
   75.0083   10.1408   51.2860 S   0  0  0  0  0  0  0  0  0  0  0  0
   77.1176   10.1382   51.2731 S   0  0  0  0  0  0  0  0  0  0  0  0
   77.8082   10.5246   53.2284 S   0  0  0  0  0  0  0  0  0  0  0  0
   79.9176   10.5220   53.2155 S   0  0  0  0  0  0  0  0  0  0  0  0
   80.6082   10.9083   55.1707 S   0  0  0  0  0  0  0  0  0  0  0  0
   82.7175   10.9058   55.1578 S   0  0  0  0  0  0  0  0  0  0  0  0
   83.4082   11.2921   57.1131 S   0  0  0  0  0  0  0  0  0  0  0  0
   85.5175   11.2896   57.1002 S   0  0  0  0  0  0  0  0  0  0  0  0
   86.2082   11.6759   59.0554 S   0  0  0  0  0  0  0  0  0  0  0  0
   88.3175   11.6734   59.0425 S   0  0  0  0  0  0  0  0  0  0  0  0
   89.0082   12.0597   60.9978 S   0  0  0  0  0  0  0  0  0  0  0  0
   91.1175   12.0572   60.9849 S   0  0  0  0  0  0  0  0  0  0  0  0
   91.8082   12.4435   62.9401 S   0  0  0  0  0  0  0  0  0  0  0  0
   93.9175   12.4409   62.9272 S   0  0  0  0  0  0  0  0  0  0  0  0
   94.6082   12.8273   64.8825 S   0  0  0  0  0  0  0  0  0  0  0  0
   96.7175   12.8247   64.8696 S   0  0  0  0  0  0  0  0  0  0  0  0
   97.4082   13.2111   66.8248 S   0  0  0  0  0  0  0  0  0  0  0  0
   99.5175   13.2085   66.8119 S   0  0  0  0  0  0  0  0  0  0  0  0
  100.2082   13.5948   68.7672 S   0  0  0  0  0  0  0  0  0  0  0  0
  102.3175   13.5923   68.7543 S   0  0  0  0  0  0  0  0  0  0  0  0
  103.0081   13.9785   70.7094 S   0  0  0  0  0  0  0  0  0  0  0  0
  105.1153   13.9766   70.6961 S   0  0  0  0  0  0  0  0  0  0  0  0
  105.8031   14.3616   72.6475 S   0  0  0  0  0  0  0  0  0  0  0  0
  107.8995   14.3320   72.6225 S   0  0  0  0  0  0  0  0  0  0  0  0
  108.5888   14.7891   74.5340 S   0  0  0  0  0  0  0  0  0  0  0  0
  110.6681   14.7203   74.5005 S   0  0  0  0  0  0  0  0  0  0  0  0
  111.2827   16.2538   73.2732 S   0  0  0  0  0  0  0  0  0  0  0  0
    6.0561   -5.5084    2.9043 H   0  0  0  0  0  0  0  0  0  0  0  0
    4.6508   -3.6396    4.2878 H   0  0  0  0  0  0  0  0  0  0  0  0
    6.1566   -2.9488    3.7690 H   0  0  0  0  0  0  0  0  0  0  0  0
    8.2796   -4.2259    6.0871 H   0  0  0  0  0  0  0  0  0  0  0  0
    8.2233   -2.9657    7.3057 H   0  0  0  0  0  0  0  0  0  0  0  0
    8.1059   -1.2161    5.5483 H   0  0  0  0  0  0  0  0  0  0  0  0
    8.1795   -2.4485    4.2975 H   0  0  0  0  0  0  0  0  0  0  0  0
   10.4055   -3.1438    5.0882 H   0  0  0  0  0  0  0  0  0  0  0  0
   10.3794   -1.9247    6.3364 H   0  0  0  0  0  0  0  0  0  0  0  0
  112.6283   16.1593   73.3121 H   0  0  0  0  0  0  0  0  0  0  0  0
  1  2  1  0  0  0  0
  1 82  1  0  0  0  0
  2  3  1  0  0  0  0
  2 83  1  0  0  0  0
  2 84  1  0  0  0  0
  3  4  1  0  0  0  0
  4  5  1  0  0  0  0
  4 85  1  0  0  0  0
  4 86  1  0  0  0  0
  5  6  1  0  0  0  0
  5 87  1  0  0  0  0
  5 88  1  0  0  0  0
  6  7  1  0  0  0  0
  6 89  1  0  0  0  0
  6 90  1  0  0  0  0
  7  8  1  0  0  0  0
  8  9  1  0  0  0  0
  9 10  1  0  0  0  0
 10 11  1  0  0  0  0
 11 12  1  0  0  0  0
 12 13  1  0  0  0  0
 13 14  1  0  0  0  0
 14 15  1  0  0  0  0
 15 16  1  0  0  0  0
 16 17  1  0  0  0  0
 17 18  1  0  0  0  0
 18 19  1  0  0  0  0
 19 20  1  0  0  0  0
 20 21  1  0  0  0  0
 21 22  1  0  0  0  0
 22 23  1  0  0  0  0
 23 24  1  0  0  0  0
 24 25  1  0  0  0  0
 25 26  1  0  0  0  0
 26 27  1  0  0  0  0
 27 28  1  0  0  0  0
 28 29  1  0  0  0  0
 29 30  1  0  0  0  0
 30 31  1  0  0  0  0
 31 32  1  0  0  0  0
 32 33  1  0  0  0  0
 33 34  1  0  0  0  0
 34 35  1  0  0  0  0
 35 36  1  0  0  0  0
 36 37  1  0  0  0  0
 37 38  1  0  0  0  0
 38 39  1  0  0  0  0
 39 40  1  0  0  0  0
 40 41  1  0  0  0  0
 41 42  1  0  0  0  0
 42 43  1  0  0  0  0
 43 44  1  0  0  0  0
 44 45  1  0  0  0  0
 45 46  1  0  0  0  0
 46 47  1  0  0  0  0
 47 48  1  0  0  0  0
 48 49  1  0  0  0  0
 49 50  1  0  0  0  0
 50 51  1  0  0  0  0
 51 52  1  0  0  0  0
 52 53  1  0  0  0  0
 53 54  1  0  0  0  0
 54 55  1  0  0  0  0
 55 56  1  0  0  0  0
 56 57  1  0  0  0  0
 57 58  1  0  0  0  0
 58 59  1  0  0  0  0
 59 60  1  0  0  0  0
 60 61  1  0  0  0  0
 61 62  1  0  0  0  0
 62 63  1  0  0  0  0
 63 64  1  0  0  0  0
 64 65  1  0  0  0  0
 65 66  1  0  0  0  0
 66 67  1  0  0  0  0
 67 68  1  0  0  0  0
 68 69  1  0  0  0  0
 69 70  1  0  0  0  0
 70 71  1  0  0  0  0
 71 72  1  0  0  0  0
 72 73  1  0  0  0  0
 73 74  1  0  0  0  0
 74 75  1  0  0  0  0
 75 76  1  0  0  0  0
 76 77  1  0  0  0  0
 77 78  1  0  0  0  0
 78 79  1  0  0  0  0
 79 80  1  0  0  0  0
 80 81  1  0  0  0  0
 81 91  1  0  0  0  0
M  END
$$$$
