
 OpenBabel04232216553D

 59 61  0  0  0  0  0  0  0  0999 V2000
    1.7076    0.2777    0.4613 C   0  0  0  0  0  0  0  0  0  0  0  0
    3.1391   -0.0163    0.6210 N   0  0  0  0  0  0  0  0  0  0  0  0
    3.5110   -1.3337    0.9637 C   0  0  0  0  0  0  0  0  0  0  0  0
    4.7632   -1.8394    0.9092 C   0  0  0  0  0  0  0  0  0  0  0  0
    5.9620   -1.5796    0.4434 N   0  0  0  0  0  0  0  0  0  0  0  0
    6.3136   -0.7895   -0.6996 C   0  0  0  0  0  0  0  0  0  0  0  0
    7.4636   -1.3089   -1.5489 C   0  0  0  0  0  0  0  0  0  0  0  0
    7.2903   -2.7161   -2.1120 C   0  0  0  0  0  0  0  0  0  0  0  0
    5.9862   -2.9929   -2.8688 C   0  0  0  0  0  0  0  0  0  0  0  0
    5.8186   -2.1842   -4.1471 C   0  0  0  0  0  0  0  0  0  0  0  0
    5.4553   -2.3737    2.0152 N   0  0  0  0  0  0  0  0  0  0  0  0
    6.2254   -1.3471    1.7656 C   0  0  0  0  0  0  0  0  0  0  0  0
    6.0946   -0.1314    2.6627 C   0  0  0  0  0  0  0  0  0  0  0  0
    6.4338   -0.4479    4.1248 C   0  0  0  0  0  0  0  0  0  0  0  0
    7.9039   -0.7100    4.4563 C   0  0  0  0  0  0  0  0  0  0  0  0
    8.7873    0.5369    4.4910 C   0  0  0  0  0  0  0  0  0  0  0  0
    8.3508    1.5542    5.5349 C   0  0  0  0  0  0  0  0  0  0  0  0
    5.5341    1.0095    2.3429 N   0  0  0  0  0  0  0  0  0  0  0  0
    5.1339    1.3775    1.0670 C   0  0  0  0  0  0  0  0  0  0  0  0
    4.0666    1.0006    0.2905 C   0  0  0  0  0  0  0  0  0  0  0  0
    4.1298    1.2745   -1.2335 C   0  0  0  0  0  0  0  0  0  0  0  0
    3.3562    2.1899   -2.1496 C   0  0  0  0  0  0  0  0  0  0  0  0
    2.7056    3.3717   -1.8222 C   0  0  0  0  0  0  0  0  0  0  0  0
    2.1835    4.1838   -2.8484 C   0  0  0  0  0  0  0  0  0  0  0  0
    2.3148    3.8340   -4.1983 C   0  0  0  0  0  0  0  0  0  0  0  0
    2.9514    2.6543   -4.5428 C   0  0  0  0  0  0  0  0  0  0  0  0
    3.4609    1.8484   -3.5295 C   0  0  0  0  0  0  0  0  0  0  0  0
    1.1436   -0.0246    1.3506 H   0  0  0  0  0  0  0  0  0  0  0  0
    1.3172   -0.2634   -0.4064 H   0  0  0  0  0  0  0  0  0  0  0  0
    1.5247    1.3476    0.3094 H   0  0  0  0  0  0  0  0  0  0  0  0
    2.8119   -1.7639    1.6775 H   0  0  0  0  0  0  0  0  0  0  0  0
    6.6170    0.2156   -0.4150 H   0  0  0  0  0  0  0  0  0  0  0  0
    5.4677   -0.7601   -1.3789 H   0  0  0  0  0  0  0  0  0  0  0  0
    8.3967   -1.2511   -0.9788 H   0  0  0  0  0  0  0  0  0  0  0  0
    7.5793   -0.6097   -2.3906 H   0  0  0  0  0  0  0  0  0  0  0  0
    7.3697   -3.4286   -1.2841 H   0  0  0  0  0  0  0  0  0  0  0  0
    8.1364   -2.9156   -2.7800 H   0  0  0  0  0  0  0  0  0  0  0  0
    5.1190   -2.8295   -2.2203 H   0  0  0  0  0  0  0  0  0  0  0  0
    5.9715   -4.0567   -3.1337 H   0  0  0  0  0  0  0  0  0  0  0  0
    5.7379   -1.1125   -3.9444 H   0  0  0  0  0  0  0  0  0  0  0  0
    4.9035   -2.4933   -4.6648 H   0  0  0  0  0  0  0  0  0  0  0  0
    6.6587   -2.3471   -4.8295 H   0  0  0  0  0  0  0  0  0  0  0  0
    5.8828   -1.3662    4.3828 H   0  0  0  0  0  0  0  0  0  0  0  0
    6.0073    0.3234    4.7731 H   0  0  0  0  0  0  0  0  0  0  0  0
    8.3338   -1.4301    3.7512 H   0  0  0  0  0  0  0  0  0  0  0  0
    7.9545   -1.1887    5.4452 H   0  0  0  0  0  0  0  0  0  0  0  0
    8.8101    1.0051    3.5019 H   0  0  0  0  0  0  0  0  0  0  0  0
    9.8153    0.2281    4.7215 H   0  0  0  0  0  0  0  0  0  0  0  0
    7.3630    1.9636    5.3073 H   0  0  0  0  0  0  0  0  0  0  0  0
    9.0543    2.3916    5.5635 H   0  0  0  0  0  0  0  0  0  0  0  0
    8.3170    1.1051    6.5332 H   0  0  0  0  0  0  0  0  0  0  0  0
    5.8297    2.0931    0.6278 H   0  0  0  0  0  0  0  0  0  0  0  0
    3.8717    0.2916   -1.6567 H   0  0  0  0  0  0  0  0  0  0  0  0
    5.1761    1.4718   -1.4970 H   0  0  0  0  0  0  0  0  0  0  0  0
    2.6187    3.6966   -0.7903 H   0  0  0  0  0  0  0  0  0  0  0  0
    1.6905    5.1217   -2.6017 H   0  0  0  0  0  0  0  0  0  0  0  0
    1.9369    4.4878   -4.9811 H   0  0  0  0  0  0  0  0  0  0  0  0
    3.0716    2.3697   -5.5860 H   0  0  0  0  0  0  0  0  0  0  0  0
    3.9860    0.9379   -3.8233 H   0  0  0  0  0  0  0  0  0  0  0  0
  1  2  1  0  0  0  0
  1 28  1  0  0  0  0
  1 29  1  0  0  0  0
  1 30  1  0  0  0  0
  2  3  1  0  0  0  0
  2 20  1  0  0  0  0
  3  4  2  0  0  0  0
  3 31  1  0  0  0  0
  4  5  1  0  0  0  0
  4 11  1  0  0  0  0
  5  6  1  0  0  0  0
  5 12  1  0  0  0  0
  6  7  1  0  0  0  0
  6 32  1  0  0  0  0
  6 33  1  0  0  0  0
  7  8  1  0  0  0  0
  7 34  1  0  0  0  0
  7 35  1  0  0  0  0
  8  9  1  0  0  0  0
  8 36  1  0  0  0  0
  8 37  1  0  0  0  0
  9 10  1  0  0  0  0
  9 38  1  0  0  0  0
  9 39  1  0  0  0  0
 10 40  1  0  0  0  0
 10 41  1  0  0  0  0
 10 42  1  0  0  0  0
 11 12  2  0  0  0  0
 12 13  1  0  0  0  0
 13 14  1  0  0  0  0
 13 18  2  0  0  0  0
 14 15  1  0  0  0  0
 14 43  1  0  0  0  0
 14 44  1  0  0  0  0
 15 16  1  0  0  0  0
 15 45  1  0  0  0  0
 15 46  1  0  0  0  0
 16 17  1  0  0  0  0
 16 47  1  0  0  0  0
 16 48  1  0  0  0  0
 17 49  1  0  0  0  0
 17 50  1  0  0  0  0
 17 51  1  0  0  0  0
 18 19  1  0  0  0  0
 19 20  2  0  0  0  0
 19 52  1  0  0  0  0
 20 21  1  0  0  0  0
 21 22  1  0  0  0  0
 21 53  1  0  0  0  0
 21 54  1  0  0  0  0
 22 23  1  0  0  0  0
 22 27  2  0  0  0  0
 23 24  2  0  0  0  0
 23 55  1  0  0  0  0
 24 25  1  0  0  0  0
 24 56  1  0  0  0  0
 25 26  2  0  0  0  0
 25 57  1  0  0  0  0
 26 27  1  0  0  0  0
 26 58  1  0  0  0  0
 27 59  1  0  0  0  0
M  END
$$$$
