
 OpenBabel04232216523D

 50 50  0  0  1  0  0  0  0  0999 V2000
    4.8238    1.0807    1.3251 C   0  0  0  0  0  0  0  0  0  0  0  0
    4.4999    1.5764   -0.0842 C   0  0  0  0  0  0  0  0  0  0  0  0
    5.4763    1.0016   -1.1182 C   0  0  0  0  0  0  0  0  0  0  0  0
    5.2168    1.4089   -2.5792 C   0  0  0  0  0  0  0  0  0  0  0  0
    5.4159    2.8839   -2.9775 C   0  0  0  0  0  0  0  0  0  0  0  0
    6.8120    3.5437   -2.8304 C   0  0  0  0  0  0  0  0  0  0  0  0
    7.9482    3.1960   -3.8577 C   0  0  0  0  0  0  0  0  0  0  0  0
    9.3773    3.8818   -3.5493 C   0  0  3  0  0  0  0  0  0  0  0  0
    9.7939    3.4478   -2.0922 C   0  0  0  0  0  0  0  0  0  0  0  0
    9.7456    1.9632   -1.7350 C   0  0  0  0  0  0  0  0  0  0  0  0
    9.2400    5.4396   -3.6106 C   0  0  0  0  0  0  0  0  0  0  0  0
    8.4182    6.0145   -4.3261 O   0  0  0  0  0  0  0  0  0  0  0  0
   10.2678    6.2341   -2.8585 C   0  0  0  0  0  0  0  0  0  0  0  0
   11.0619    6.9216   -3.6808 C   0  0  0  0  0  0  0  0  0  0  0  0
   12.5157    6.7478   -3.7006 C   0  0  0  0  0  0  0  0  0  0  0  0
   13.2831    5.7417   -2.8931 C   0  0  0  0  0  0  0  0  0  0  0  0
   12.8636    5.1658   -1.8977 O   0  0  0  0  0  0  0  0  0  0  0  0
   13.0576    6.9034   -4.9193 C   0  0  0  0  0  0  0  0  0  0  0  0
   13.1213    5.7372   -5.8197 C   0  0  0  0  0  0  0  0  0  0  0  0
   12.0606    4.9407   -6.1154 C   0  0  0  0  0  0  0  0  0  0  0  0
   11.5022    3.8039   -5.3632 C   0  0  0  0  0  0  0  0  0  0  0  0
   10.5314    3.3989   -4.4960 C   0  0  0  0  0  0  0  0  0  0  0  0
    4.1532    1.5400    2.0599 H   0  0  0  0  0  0  0  0  0  0  0  0
    5.8518    1.3327    1.6058 H   0  0  0  0  0  0  0  0  0  0  0  0
    4.7066   -0.0061    1.4020 H   0  0  0  0  0  0  0  0  0  0  0  0
    4.5384    2.6699   -0.0901 H   0  0  0  0  0  0  0  0  0  0  0  0
    3.4716    1.2820   -0.3275 H   0  0  0  0  0  0  0  0  0  0  0  0
    5.4003   -0.0938   -1.0660 H   0  0  0  0  0  0  0  0  0  0  0  0
    6.5031    1.2536   -0.8408 H   0  0  0  0  0  0  0  0  0  0  0  0
    4.1742    1.1414   -2.8088 H   0  0  0  0  0  0  0  0  0  0  0  0
    5.8366    0.7814   -3.2288 H   0  0  0  0  0  0  0  0  0  0  0  0
    4.7132    3.4724   -2.3704 H   0  0  0  0  0  0  0  0  0  0  0  0
    5.0750    3.0027   -4.0133 H   0  0  0  0  0  0  0  0  0  0  0  0
    7.1456    3.3741   -1.8046 H   0  0  0  0  0  0  0  0  0  0  0  0
    6.6339    4.6229   -2.9182 H   0  0  0  0  0  0  0  0  0  0  0  0
    7.6156    3.4885   -4.8615 H   0  0  0  0  0  0  0  0  0  0  0  0
    8.0633    2.1051   -3.8920 H   0  0  0  0  0  0  0  0  0  0  0  0
    9.1822    3.9946   -1.3637 H   0  0  0  0  0  0  0  0  0  0  0  0
   10.8272    3.7507   -1.8995 H   0  0  0  0  0  0  0  0  0  0  0  0
    8.7632    1.5154   -1.8947 H   0  0  0  0  0  0  0  0  0  0  0  0
    9.9808    1.8454   -0.6711 H   0  0  0  0  0  0  0  0  0  0  0  0
   10.4889    1.3904   -2.2962 H   0  0  0  0  0  0  0  0  0  0  0  0
   10.6325    5.8168   -1.9335 H   0  0  0  0  0  0  0  0  0  0  0  0
   10.6374    7.2487   -4.6367 H   0  0  0  0  0  0  0  0  0  0  0  0
   14.3118    5.5473   -3.2536 H   0  0  0  0  0  0  0  0  0  0  0  0
   12.7345    7.7546   -5.5309 H   0  0  0  0  0  0  0  0  0  0  0  0
   13.8208    5.9650   -6.6314 H   0  0  0  0  0  0  0  0  0  0  0  0
   12.0923    4.6236   -7.1674 H   0  0  0  0  0  0  0  0  0  0  0  0
   12.0701    2.9377   -5.7355 H   0  0  0  0  0  0  0  0  0  0  0  0
   10.5840    2.3092   -4.3866 H   0  0  0  0  0  0  0  0  0  0  0  0
  1  2  1  0  0  0  0
  1 23  1  0  0  0  0
  1 24  1  0  0  0  0
  1 25  1  0  0  0  0
  2  3  1  0  0  0  0
  2 26  1  0  0  0  0
  2 27  1  0  0  0  0
  3  4  1  0  0  0  0
  3 28  1  0  0  0  0
  3 29  1  0  0  0  0
  4  5  1  0  0  0  0
  4 30  1  0  0  0  0
  4 31  1  0  0  0  0
  5  6  1  0  0  0  0
  5 32  1  0  0  0  0
  5 33  1  0  0  0  0
  6  7  1  0  0  0  0
  6 34  1  0  0  0  0
  6 35  1  0  0  0  0
  7  8  1  0  0  0  0
  7 36  1  0  0  0  0
  7 37  1  0  0  0  0
  8  9  1  0  0  0  0
  8 11  1  0  0  0  0
  8 22  1  0  0  0  0
  9 10  1  0  0  0  0
  9 38  1  0  0  0  0
  9 39  1  0  0  0  0
 10 40  1  0  0  0  0
 10 41  1  0  0  0  0
 10 42  1  0  0  0  0
 11 12  2  0  0  0  0
 11 13  1  0  0  0  0
 13 14  2  3  0  0  0
 13 43  1  0  0  0  0
 14 15  1  0  0  0  0
 14 44  1  0  0  0  0
 15 16  1  0  0  0  0
 15 18  2  3  0  0  0
 16 17  2  0  0  0  0
 16 45  1  0  0  0  0
 18 19  1  0  0  0  0
 18 46  1  0  0  0  0
 19 20  2  3  0  0  0
 19 47  1  0  0  0  0
 20 21  1  0  0  0  0
 20 48  1  0  0  0  0
 21 22  2  3  0  0  0
 21 49  1  0  0  0  0
 22 50  1  0  0  0  0
M  END
$$$$
