
 OpenBabel04232216513D

 79 80  0  0  1  0  0  0  0  0999 V2000
  -12.0502   12.9550   -7.9058 C   0  0  0  0  0  0  0  0  0  0  0  0
  -11.6638   13.1425   -9.3632 C   0  0  0  0  0  0  0  0  0  0  0  0
  -10.1960   12.8362   -9.7407 C   0  0  3  0  0  0  0  0  0  0  0  0
   -9.9980   13.0557  -11.2518 C   0  0  0  0  0  0  0  0  0  0  0  0
  -10.0571   14.4729  -11.6182 N   0  0  0  0  0  0  0  0  0  0  0  0
   -8.9619   15.2018  -10.9909 C   0  0  0  0  0  0  0  0  0  0  0  0
   -8.9418   15.0805   -9.4569 C   0  0  3  0  0  0  0  0  0  0  0  0
   -7.6155   15.7049   -8.9811 C   0  0  0  0  0  0  0  0  0  0  0  0
   -7.4186   15.6720   -7.4771 C   0  0  0  0  0  0  0  0  0  0  0  0
   -6.0919   16.3284   -7.1076 C   0  0  0  0  0  0  0  0  0  0  0  0
   -5.9225   16.2742   -5.6038 C   0  0  0  0  0  0  0  0  0  0  0  0
   -4.6103   16.9054   -5.1563 C   0  0  0  0  0  0  0  0  0  0  0  0
   -4.4294   16.7626   -3.6453 C   0  0  0  0  0  0  0  0  0  0  0  0
   -4.4680   15.3079   -3.1692 C   0  0  0  0  0  0  0  0  0  0  0  0
   -3.3725   14.4580   -3.8109 C   0  0  0  0  0  0  0  0  0  0  0  0
   -3.4796   13.0212   -3.4154 C   0  0  3  0  0  0  0  0  0  0  0  0
   -3.3808   12.6073   -2.1166 C   0  0  0  0  0  0  0  0  0  0  0  0
   -2.2324   12.3560   -2.6812 C   0  0  0  0  0  0  0  0  0  0  0  0
   -1.1781   12.2261   -3.7270 C   0  0  0  0  0  0  0  0  0  0  0  0
   -0.2594   11.0184   -3.5206 C   0  0  0  0  0  0  0  0  0  0  0  0
   -1.0008    9.6806   -3.5244 C   0  0  0  0  0  0  0  0  0  0  0  0
   -0.0300    8.5105   -3.3630 C   0  0  0  0  0  0  0  0  0  0  0  0
   -0.7598    7.1648   -3.3513 C   0  0  0  0  0  0  0  0  0  0  0  0
    0.2397    6.0200   -3.1806 C   0  0  0  0  0  0  0  0  0  0  0  0
   -0.4436    4.6530   -3.1626 C   0  0  0  0  0  0  0  0  0  0  0  0
    0.5872    3.5362   -2.9898 C   0  0  0  0  0  0  0  0  0  0  0  0
   -0.0666    2.1649   -2.9682 C   0  0  0  0  0  0  0  0  0  0  0  0
   -9.1067   13.6214   -8.9856 C   0  0  0  0  0  0  0  0  0  0  0  0
  -13.1127   13.1996   -7.7842 H   0  0  0  0  0  0  0  0  0  0  0  0
  -11.4863   13.6171   -7.2447 H   0  0  0  0  0  0  0  0  0  0  0  0
  -11.9126   11.9194   -7.5824 H   0  0  0  0  0  0  0  0  0  0  0  0
  -11.9409   14.1603   -9.6531 H   0  0  0  0  0  0  0  0  0  0  0  0
  -12.3021   12.4706   -9.9540 H   0  0  0  0  0  0  0  0  0  0  0  0
  -10.0276   11.7715   -9.5273 H   0  0  0  0  0  0  0  0  0  0  0  0
  -10.7695   12.5165  -11.8137 H   0  0  0  0  0  0  0  0  0  0  0  0
   -9.0366   12.6334  -11.5707 H   0  0  0  0  0  0  0  0  0  0  0  0
  -10.9406   14.8748  -11.3084 H   0  0  0  0  0  0  0  0  0  0  0  0
   -9.0457   16.2616  -11.2628 H   0  0  0  0  0  0  0  0  0  0  0  0
   -8.0127   14.8553  -11.4188 H   0  0  0  0  0  0  0  0  0  0  0  0
   -9.7746   15.6646   -9.0431 H   0  0  0  0  0  0  0  0  0  0  0  0
   -7.5681   16.7480   -9.3203 H   0  0  0  0  0  0  0  0  0  0  0  0
   -6.7720   15.1863   -9.4565 H   0  0  0  0  0  0  0  0  0  0  0  0
   -7.4145   14.6371   -7.1154 H   0  0  0  0  0  0  0  0  0  0  0  0
   -8.2457   16.1904   -6.9784 H   0  0  0  0  0  0  0  0  0  0  0  0
   -6.0590   17.3657   -7.4565 H   0  0  0  0  0  0  0  0  0  0  0  0
   -5.2638   15.7907   -7.5885 H   0  0  0  0  0  0  0  0  0  0  0  0
   -5.9664   15.2192   -5.3159 H   0  0  0  0  0  0  0  0  0  0  0  0
   -6.7595   16.7792   -5.1068 H   0  0  0  0  0  0  0  0  0  0  0  0
   -4.5914   17.9658   -5.4296 H   0  0  0  0  0  0  0  0  0  0  0  0
   -3.7684   16.4434   -5.6861 H   0  0  0  0  0  0  0  0  0  0  0  0
   -5.2229   17.3229   -3.1352 H   0  0  0  0  0  0  0  0  0  0  0  0
   -3.4793   17.2223   -3.3494 H   0  0  0  0  0  0  0  0  0  0  0  0
   -5.4488   14.8604   -3.3666 H   0  0  0  0  0  0  0  0  0  0  0  0
   -4.3663   15.2929   -2.0778 H   0  0  0  0  0  0  0  0  0  0  0  0
   -2.3934   14.8818   -3.5509 H   0  0  0  0  0  0  0  0  0  0  0  0
   -3.4373   14.4881   -4.9059 H   0  0  0  0  0  0  0  0  0  0  0  0
   -3.9803   12.3823   -4.1298 H   0  0  0  0  0  0  0  0  0  0  0  0
   -3.8996   12.5911   -1.1796 H   0  0  0  0  0  0  0  0  0  0  0  0
   -0.5551   13.1279   -3.7044 H   0  0  0  0  0  0  0  0  0  0  0  0
   -1.6073   12.1611   -4.7338 H   0  0  0  0  0  0  0  0  0  0  0  0
    0.3028   11.1343   -2.5838 H   0  0  0  0  0  0  0  0  0  0  0  0
    0.4811   11.0197   -4.3302 H   0  0  0  0  0  0  0  0  0  0  0  0
   -1.5552    9.5700   -4.4642 H   0  0  0  0  0  0  0  0  0  0  0  0
   -1.7320    9.6527   -2.7082 H   0  0  0  0  0  0  0  0  0  0  0  0
    0.5325    8.6276   -2.4287 H   0  0  0  0  0  0  0  0  0  0  0  0
    0.7001    8.5225   -4.1820 H   0  0  0  0  0  0  0  0  0  0  0  0
   -1.3173    7.0363   -4.2869 H   0  0  0  0  0  0  0  0  0  0  0  0
   -1.4903    7.1455   -2.5334 H   0  0  0  0  0  0  0  0  0  0  0  0
    0.7960    6.1609   -2.2461 H   0  0  0  0  0  0  0  0  0  0  0  0
    0.9697    6.0514   -3.9985 H   0  0  0  0  0  0  0  0  0  0  0  0
   -0.9978    4.5034   -4.0971 H   0  0  0  0  0  0  0  0  0  0  0  0
   -1.1716    4.6138   -2.3433 H   0  0  0  0  0  0  0  0  0  0  0  0
    1.1420    3.6840   -2.0557 H   0  0  0  0  0  0  0  0  0  0  0  0
    1.3164    3.5736   -3.8077 H   0  0  0  0  0  0  0  0  0  0  0  0
   -0.7779    2.0827   -2.1404 H   0  0  0  0  0  0  0  0  0  0  0  0
    0.6924    1.3864   -2.8425 H   0  0  0  0  0  0  0  0  0  0  0  0
   -0.6011    1.9705   -3.9033 H   0  0  0  0  0  0  0  0  0  0  0  0
   -9.2868   13.5819   -7.9064 H   0  0  0  0  0  0  0  0  0  0  0  0
   -8.1516   13.1003   -9.1476 H   0  0  0  0  0  0  0  0  0  0  0  0
  1  2  1  0  0  0  0
  1 29  1  0  0  0  0
  1 30  1  0  0  0  0
  1 31  1  0  0  0  0
  2  3  1  0  0  0  0
  2 32  1  0  0  0  0
  2 33  1  0  0  0  0
  3  4  1  0  0  0  0
  3 28  1  0  0  0  0
  3 34  1  0  0  0  0
  4  5  1  0  0  0  0
  4 35  1  0  0  0  0
  4 36  1  0  0  0  0
  5  6  1  0  0  0  0
  5 37  1  0  0  0  0
  6  7  1  0  0  0  0
  6 38  1  0  0  0  0
  6 39  1  0  0  0  0
  7  8  1  0  0  0  0
  7 28  1  0  0  0  0
  7 40  1  0  0  0  0
  8  9  1  0  0  0  0
  8 41  1  0  0  0  0
  8 42  1  0  0  0  0
  9 10  1  0  0  0  0
  9 43  1  0  0  0  0
  9 44  1  0  0  0  0
 10 11  1  0  0  0  0
 10 45  1  0  0  0  0
 10 46  1  0  0  0  0
 11 12  1  0  0  0  0
 11 47  1  0  0  0  0
 11 48  1  0  0  0  0
 12 13  1  0  0  0  0
 12 49  1  0  0  0  0
 12 50  1  0  0  0  0
 13 14  1  0  0  0  0
 13 51  1  0  0  0  0
 13 52  1  0  0  0  0
 14 15  1  0  0  0  0
 14 53  1  0  0  0  0
 14 54  1  0  0  0  0
 15 16  1  0  0  0  0
 15 55  1  0  0  0  0
 15 56  1  0  0  0  0
 16 17  1  0  0  0  0
 16 18  1  0  0  0  0
 16 57  1  0  0  0  0
 17 18  2  0  0  0  0
 17 58  1  0  0  0  0
 18 19  1  0  0  0  0
 19 20  1  0  0  0  0
 19 59  1  0  0  0  0
 19 60  1  0  0  0  0
 20 21  1  0  0  0  0
 20 61  1  0  0  0  0
 20 62  1  0  0  0  0
 21 22  1  0  0  0  0
 21 63  1  0  0  0  0
 21 64  1  0  0  0  0
 22 23  1  0  0  0  0
 22 65  1  0  0  0  0
 22 66  1  0  0  0  0
 23 24  1  0  0  0  0
 23 67  1  0  0  0  0
 23 68  1  0  0  0  0
 24 25  1  0  0  0  0
 24 69  1  0  0  0  0
 24 70  1  0  0  0  0
 25 26  1  0  0  0  0
 25 71  1  0  0  0  0
 25 72  1  0  0  0  0
 26 27  1  0  0  0  0
 26 73  1  0  0  0  0
 26 74  1  0  0  0  0
 27 75  1  0  0  0  0
 27 76  1  0  0  0  0
 27 77  1  0  0  0  0
 28 78  1  0  0  0  0
 28 79  1  0  0  0  0
M  END
$$$$
