
 OpenBabel04232216443D

 50 51  0  0  0  0  0  0  0  0999 V2000
    0.7799   -0.8603   -0.2214 C   0  0  0  0  0  0  0  0  0  0  0  0
    2.2733   -0.6964   -0.1888 C   0  0  0  0  0  0  0  0  0  0  0  0
    2.7656    0.5091    0.1594 C   0  0  0  0  0  0  0  0  0  0  0  0
    4.1712    0.7753    0.3225 C   0  0  0  0  0  0  0  0  0  0  0  0
    4.5651    2.0527    0.3784 C   0  0  0  0  0  0  0  0  0  0  0  0
    5.1214   -0.3484    0.4037 C   0  0  0  0  0  0  0  0  0  0  0  0
    6.5163   -0.1259    1.0313 C   0  0  0  0  0  0  0  0  0  0  0  0
    6.6523    0.4000    2.4819 C   0  0  0  0  0  0  0  0  0  0  0  0
    6.2125   -0.4794    3.6594 C   0  0  0  0  0  0  0  0  0  0  0  0
    6.9999   -1.7699    3.8630 C   0  0  0  0  0  0  0  0  0  0  0  0
    4.7362   -1.5252   -0.1852 C   0  0  0  0  0  0  0  0  0  0  0  0
    5.7489   -2.5412   -0.3958 C   0  0  0  0  0  0  0  0  0  0  0  0
    6.8648   -2.2616   -1.4093 C   0  0  0  0  0  0  0  0  0  0  0  0
    6.7339   -2.6197   -2.8831 C   0  0  0  0  0  0  0  0  0  0  0  0
    5.6775   -3.5575    0.4749 C   0  0  0  0  0  0  0  0  0  0  0  0
    4.8175   -3.5553    1.7414 C   0  0  0  0  0  0  0  0  0  0  0  0
    6.1213   -4.8702    0.1313 C   0  0  0  0  0  0  0  0  0  0  0  0
    5.1785   -5.7756   -0.1565 C   0  0  0  0  0  0  0  0  0  0  0  0
    3.8269   -5.5351   -0.6464 C   0  0  0  0  0  0  0  0  0  0  0  0
    2.9742   -4.5159   -0.8723 C   0  0  0  0  0  0  0  0  0  0  0  0
    2.7115   -3.0731   -0.6765 C   0  0  0  0  0  0  0  0  0  0  0  0
    3.2534   -1.8474   -0.4204 C   0  0  0  0  0  0  0  0  0  0  0  0
    0.2652    0.1128   -0.1739 H   0  0  0  0  0  0  0  0  0  0  0  0
    0.4400   -1.4293    0.6494 H   0  0  0  0  0  0  0  0  0  0  0  0
    0.4256   -1.3427   -1.1347 H   0  0  0  0  0  0  0  0  0  0  0  0
    2.0674    1.3328    0.3511 H   0  0  0  0  0  0  0  0  0  0  0  0
    3.8571    2.8715    0.2922 H   0  0  0  0  0  0  0  0  0  0  0  0
    5.6063    2.3431    0.4384 H   0  0  0  0  0  0  0  0  0  0  0  0
    7.0547    0.5734    0.3786 H   0  0  0  0  0  0  0  0  0  0  0  0
    7.1134   -1.0420    0.9996 H   0  0  0  0  0  0  0  0  0  0  0  0
    6.1258    1.3556    2.5742 H   0  0  0  0  0  0  0  0  0  0  0  0
    7.7152    0.6328    2.6332 H   0  0  0  0  0  0  0  0  0  0  0  0
    5.1431   -0.6977    3.5966 H   0  0  0  0  0  0  0  0  0  0  0  0
    6.3489    0.1106    4.5774 H   0  0  0  0  0  0  0  0  0  0  0  0
    7.0279   -2.3868    2.9641 H   0  0  0  0  0  0  0  0  0  0  0  0
    6.5407   -2.3619    4.6618 H   0  0  0  0  0  0  0  0  0  0  0  0
    8.0322   -1.5655    4.1644 H   0  0  0  0  0  0  0  0  0  0  0  0
    7.7916   -2.7022   -1.0362 H   0  0  0  0  0  0  0  0  0  0  0  0
    7.0665   -1.1817   -1.3956 H   0  0  0  0  0  0  0  0  0  0  0  0
    6.8125   -3.6994   -3.0434 H   0  0  0  0  0  0  0  0  0  0  0  0
    7.5625   -2.1602   -3.4299 H   0  0  0  0  0  0  0  0  0  0  0  0
    5.8084   -2.2470   -3.3316 H   0  0  0  0  0  0  0  0  0  0  0  0
    4.8216   -2.5788    2.2275 H   0  0  0  0  0  0  0  0  0  0  0  0
    5.2052   -4.2749    2.4756 H   0  0  0  0  0  0  0  0  0  0  0  0
    3.7742   -3.8177    1.5709 H   0  0  0  0  0  0  0  0  0  0  0  0
    7.1584   -5.1335    0.3011 H   0  0  0  0  0  0  0  0  0  0  0  0
    5.4626   -6.8246   -0.0840 H   0  0  0  0  0  0  0  0  0  0  0  0
    3.4181   -6.5102   -0.9391 H   0  0  0  0  0  0  0  0  0  0  0  0
    2.0577   -4.9239   -1.3264 H   0  0  0  0  0  0  0  0  0  0  0  0
    1.6197   -3.0435   -0.7438 H   0  0  0  0  0  0  0  0  0  0  0  0
  1  2  1  0  0  0  0
  1 23  1  0  0  0  0
  1 24  1  0  0  0  0
  1 25  1  0  0  0  0
  2  3  2  0  0  0  0
  2 22  1  0  0  0  0
  3  4  1  0  0  0  0
  3 26  1  0  0  0  0
  4  5  2  0  0  0  0
  4  6  1  0  0  0  0
  5 27  1  0  0  0  0
  5 28  1  0  0  0  0
  6  7  1  0  0  0  0
  6 11  2  0  0  0  0
  7  8  1  0  0  0  0
  7 29  1  0  0  0  0
  7 30  1  0  0  0  0
  8  9  1  0  0  0  0
  8 31  1  0  0  0  0
  8 32  1  0  0  0  0
  9 10  1  0  0  0  0
  9 33  1  0  0  0  0
  9 34  1  0  0  0  0
 10 35  1  0  0  0  0
 10 36  1  0  0  0  0
 10 37  1  0  0  0  0
 11 12  1  0  0  0  0
 11 22  1  0  0  0  0
 12 13  1  0  0  0  0
 12 15  2  3  0  0  0
 13 14  1  0  0  0  0
 13 38  1  0  0  0  0
 13 39  1  0  0  0  0
 14 40  1  0  0  0  0
 14 41  1  0  0  0  0
 14 42  1  0  0  0  0
 15 16  1  0  0  0  0
 15 17  1  0  0  0  0
 16 43  1  0  0  0  0
 16 44  1  0  0  0  0
 16 45  1  0  0  0  0
 17 18  2  3  0  0  0
 17 46  1  0  0  0  0
 18 19  1  0  0  0  0
 18 47  1  0  0  0  0
 19 20  2  3  0  0  0
 19 48  1  0  0  0  0
 20 21  1  0  0  0  0
 20 49  1  0  0  0  0
 21 22  2  3  0  0  0
 21 50  1  0  0  0  0
M  END
$$$$
