
 OpenBabel04232216493D

236236  0  0  1  0  0  0  0  0999 V2000
    2.6864   -2.4841    3.0208 C   0  0  0  0  0  0  0  0  0  0  0  0
    2.2059   -1.7155    1.8380 C   0  0  3  0  0  3  0  0  0  0  0  0
    1.1869   -0.6431    2.0584 C   0  0  0  0  0  0  0  0  0  0  0  0
    1.1572    0.0950    0.7342 C   0  0  0  0  0  0  0  0  0  0  0  0
    2.5669   -0.0264    0.1654 C   0  0  0  0  0  0  0  0  0  0  0  0
    3.1787   -1.3018    0.7633 C   0  0  3  0  0  0  0  0  0  0  0  0
    3.4870   -2.3658   -0.2907 C   0  0  0  0  0  0  0  0  0  0  0  0
    2.2604   -2.7793   -1.0941 C   0  0  0  0  0  0  0  0  0  0  0  0
    2.6218   -3.8109   -2.1437 C   0  0  0  0  0  0  0  0  0  0  0  0
    1.3687   -4.2000   -2.9079 C   0  0  0  0  0  0  0  0  0  0  0  0
    1.7167   -5.2265   -3.9655 C   0  0  0  0  0  0  0  0  0  0  0  0
    0.4707   -5.6209   -4.7317 C   0  0  0  0  0  0  0  0  0  0  0  0
    0.8253   -6.6466   -5.7895 C   0  0  0  0  0  0  0  0  0  0  0  0
   -0.4198   -7.0443   -6.5582 C   0  0  0  0  0  0  0  0  0  0  0  0
   -0.0602   -8.0707   -7.6146 C   0  0  0  0  0  0  0  0  0  0  0  0
   -1.3031   -8.4710   -8.3845 C   0  0  0  0  0  0  0  0  0  0  0  0
   -0.9445   -9.4974   -9.4416 C   0  0  0  0  0  0  0  0  0  0  0  0
   -2.1885   -9.8967  -10.2116 C   0  0  0  0  0  0  0  0  0  0  0  0
   -1.8311  -10.9220  -11.2702 C   0  0  0  0  0  0  0  0  0  0  0  0
   -3.0752  -11.3215  -12.0400 C   0  0  0  0  0  0  0  0  0  0  0  0
   -2.7177  -12.3469  -13.0988 C   0  0  0  0  0  0  0  0  0  0  0  0
   -3.9618  -12.7466  -13.8687 C   0  0  0  0  0  0  0  0  0  0  0  0
   -3.6043  -13.7720  -14.9274 C   0  0  0  0  0  0  0  0  0  0  0  0
   -4.8484  -14.1716  -15.6973 C   0  0  0  0  0  0  0  0  0  0  0  0
   -4.4909  -15.1970  -16.7561 C   0  0  0  0  0  0  0  0  0  0  0  0
   -5.7350  -15.5967  -17.5260 C   0  0  0  0  0  0  0  0  0  0  0  0
   -5.3775  -16.6221  -18.5848 C   0  0  0  0  0  0  0  0  0  0  0  0
   -6.6216  -17.0218  -19.3547 C   0  0  0  0  0  0  0  0  0  0  0  0
   -6.2645  -18.0486  -20.4121 C   0  0  0  0  0  0  0  0  0  0  0  0
   -7.5086  -18.4483  -21.1820 C   0  0  0  0  0  0  0  0  0  0  0  0
   -7.1518  -19.4766  -22.2382 C   0  0  0  0  0  0  0  0  0  0  0  0
   -8.3958  -19.8763  -23.0081 C   0  0  0  0  0  0  0  0  0  0  0  0
   -8.0387  -20.9033  -24.0655 C   0  0  0  0  0  0  0  0  0  0  0  0
   -9.2828  -21.3030  -24.8354 C   0  0  0  0  0  0  0  0  0  0  0  0
   -8.9260  -22.3313  -25.8916 C   0  0  0  0  0  0  0  0  0  0  0  0
  -10.1705  -22.7325  -26.6602 C   0  0  0  0  0  0  0  0  0  0  0  0
   -9.8134  -23.7594  -27.7176 C   0  0  0  0  0  0  0  0  0  0  0  0
  -11.0578  -24.1606  -28.4861 C   0  0  0  0  0  0  0  0  0  0  0  0
  -10.7007  -25.1875  -29.5436 C   0  0  0  0  0  0  0  0  0  0  0  0
  -11.9448  -25.5886  -30.3117 C   0  0  0  0  0  0  0  0  0  0  0  0
  -11.5875  -26.6152  -31.3695 C   0  0  0  0  0  0  0  0  0  0  0  0
  -12.8354  -27.0112  -32.1379 C   0  0  0  0  0  0  0  0  0  0  0  0
  -12.4748  -28.0401  -33.1975 C   0  0  0  0  0  0  0  0  0  0  0  0
  -13.7246  -28.4421  -33.9645 C   0  0  0  0  0  0  0  0  0  0  0  0
  -13.3619  -29.4707  -35.0210 C   0  0  0  0  0  0  0  0  0  0  0  0
  -14.6139  -29.8705  -35.7971 C   0  0  0  0  0  0  0  0  0  0  0  0
  -14.2497  -30.8999  -36.8480 C   0  0  0  0  0  0  0  0  0  0  0  0
  -15.4947  -31.3024  -37.6151 C   0  0  0  0  0  0  0  0  0  0  0  0
  -15.1376  -32.3292  -38.6725 C   0  0  0  0  0  0  0  0  0  0  0  0
  -16.3823  -32.7318  -39.4397 C   0  0  0  0  0  0  0  0  0  0  0  0
  -16.0252  -33.7587  -40.4972 C   0  0  0  0  0  0  0  0  0  0  0  0
  -17.2697  -34.1600  -41.2657 C   0  0  0  0  0  0  0  0  0  0  0  0
  -16.9126  -35.1868  -42.3231 C   0  0  0  0  0  0  0  0  0  0  0  0
  -18.1573  -35.5894  -43.0905 C   0  0  0  0  0  0  0  0  0  0  0  0
  -17.8002  -36.6163  -44.1479 C   0  0  0  0  0  0  0  0  0  0  0  0
  -19.0446  -37.0176  -44.9164 C   0  0  0  0  0  0  0  0  0  0  0  0
  -18.6875  -38.0444  -45.9738 C   0  0  0  0  0  0  0  0  0  0  0  0
  -19.9323  -38.4471  -46.7411 C   0  0  0  0  0  0  0  0  0  0  0  0
  -19.5748  -39.4725  -47.7999 C   0  0  0  0  0  0  0  0  0  0  0  0
  -20.8193  -39.8737  -48.5684 C   0  0  0  0  0  0  0  0  0  0  0  0
  -20.4615  -40.8976  -49.6285 C   0  0  0  0  0  0  0  0  0  0  0  0
  -21.7055  -41.2972  -50.3985 C   0  0  0  0  0  0  0  0  0  0  0  0
  -21.3474  -42.3196  -51.4598 C   0  0  0  0  0  0  0  0  0  0  0  0
  -22.5912  -42.7178  -52.2311 C   0  0  0  0  0  0  0  0  0  0  0  0
  -22.2333  -43.7416  -53.2912 C   0  0  0  0  0  0  0  0  0  0  0  0
  -23.4767  -44.1384  -54.0637 C   0  0  0  0  0  0  0  0  0  0  0  0
  -23.1190  -45.1623  -55.1238 C   0  0  0  0  0  0  0  0  0  0  0  0
  -24.3627  -45.5604  -55.8952 C   0  0  0  0  0  0  0  0  0  0  0  0
  -24.0046  -46.5829  -56.9565 C   0  0  0  0  0  0  0  0  0  0  0  0
  -25.2481  -46.9797  -57.7292 C   0  0  0  0  0  0  0  0  0  0  0  0
  -24.8906  -48.0037  -58.7897 C   0  0  0  0  0  0  0  0  0  0  0  0
  -26.1338  -48.3994  -59.5639 C   0  0  0  0  0  0  0  0  0  0  0  0
  -25.7770  -49.4239  -60.6249 C   0  0  0  0  0  0  0  0  0  0  0  0
  -27.0210  -49.8215  -61.3986 C   0  0  0  0  0  0  0  0  0  0  0  0
  -26.6661  -50.8454  -62.4624 C   0  0  0  0  0  0  0  0  0  0  0  0
  -27.9106  -51.2445  -63.2382 C   0  0  0  0  0  0  0  0  0  0  0  0
  -27.5564  -52.2698  -64.3039 C   0  0  0  0  0  0  0  0  0  0  0  0
  -28.7967  -52.6785  -65.0863 C   0  0  0  0  0  0  0  0  0  0  0  0
  -28.4412  -53.7009  -66.1482 C   0  0  0  0  0  0  0  0  0  0  0  0
    1.8484   -2.8889    3.5966 H   0  0  0  0  0  0  0  0  0  0  0  0
    3.2555   -1.8101    3.6689 H   0  0  0  0  0  0  0  0  0  0  0  0
    3.3360   -3.3136    2.7292 H   0  0  0  0  0  0  0  0  0  0  0  0
    1.5432    0.0197    2.8538 H   0  0  0  0  0  0  0  0  0  0  0  0
    0.2039   -1.0343    2.3354 H   0  0  0  0  0  0  0  0  0  0  0  0
    0.8743    1.1439    0.8678 H   0  0  0  0  0  0  0  0  0  0  0  0
    0.4267   -0.3609    0.0552 H   0  0  0  0  0  0  0  0  0  0  0  0
    3.1709    0.8367    0.4626 H   0  0  0  0  0  0  0  0  0  0  0  0
    2.5475   -0.0207   -0.9297 H   0  0  0  0  0  0  0  0  0  0  0  0
    4.1231   -1.0347    1.2522 H   0  0  0  0  0  0  0  0  0  0  0  0
    3.9273   -3.2497    0.1879 H   0  0  0  0  0  0  0  0  0  0  0  0
    4.2517   -1.9727   -0.9748 H   0  0  0  0  0  0  0  0  0  0  0  0
    1.8215   -1.9166   -1.6066 H   0  0  0  0  0  0  0  0  0  0  0  0
    1.4913   -3.1833   -0.4271 H   0  0  0  0  0  0  0  0  0  0  0  0
    3.0673   -4.6946   -1.6724 H   0  0  0  0  0  0  0  0  0  0  0  0
    3.3653   -3.3967   -2.8360 H   0  0  0  0  0  0  0  0  0  0  0  0
    0.9235   -3.3141   -3.3790 H   0  0  0  0  0  0  0  0  0  0  0  0
    0.6183   -4.6084   -2.2191 H   0  0  0  0  0  0  0  0  0  0  0  0
    2.1632   -6.1108   -3.4933 H   0  0  0  0  0  0  0  0  0  0  0  0
    2.4647   -4.8127   -4.6536 H   0  0  0  0  0  0  0  0  0  0  0  0
    0.0258   -4.7363   -5.2041 H   0  0  0  0  0  0  0  0  0  0  0  0
   -0.2774   -6.0343   -4.0443 H   0  0  0  0  0  0  0  0  0  0  0  0
    1.2736   -7.5302   -5.3181 H   0  0  0  0  0  0  0  0  0  0  0  0
    1.5734   -6.2316   -6.4766 H   0  0  0  0  0  0  0  0  0  0  0  0
   -0.8687   -6.1612   -7.0298 H   0  0  0  0  0  0  0  0  0  0  0  0
   -1.1689   -7.4583   -5.8717 H   0  0  0  0  0  0  0  0  0  0  0  0
    0.3886   -8.9532   -7.1421 H   0  0  0  0  0  0  0  0  0  0  0  0
    0.6881   -7.6552   -8.3010 H   0  0  0  0  0  0  0  0  0  0  0  0
   -1.7507   -7.5878   -8.8569 H   0  0  0  0  0  0  0  0  0  0  0  0
   -2.0514   -8.8857   -7.6979 H   0  0  0  0  0  0  0  0  0  0  0  0
   -0.4966  -10.3806   -8.9696 H   0  0  0  0  0  0  0  0  0  0  0  0
   -0.1965   -9.0818  -10.1279 H   0  0  0  0  0  0  0  0  0  0  0  0
   -2.6367   -9.0131  -10.6825 H   0  0  0  0  0  0  0  0  0  0  0  0
   -2.9359  -10.3128   -9.5247 H   0  0  0  0  0  0  0  0  0  0  0  0
   -1.3827  -11.8054  -10.7992 H   0  0  0  0  0  0  0  0  0  0  0  0
   -1.0838  -10.5057  -11.9569 H   0  0  0  0  0  0  0  0  0  0  0  0
   -3.5236  -10.4381  -12.5110 H   0  0  0  0  0  0  0  0  0  0  0  0
   -3.8226  -11.7377  -11.3533 H   0  0  0  0  0  0  0  0  0  0  0  0
   -2.2693  -13.2303  -12.6277 H   0  0  0  0  0  0  0  0  0  0  0  0
   -1.9703  -11.9306  -13.7855 H   0  0  0  0  0  0  0  0  0  0  0  0
   -4.4102  -11.8632  -14.3397 H   0  0  0  0  0  0  0  0  0  0  0  0
   -4.7091  -13.1628  -13.1819 H   0  0  0  0  0  0  0  0  0  0  0  0
   -3.1558  -14.6554  -14.4564 H   0  0  0  0  0  0  0  0  0  0  0  0
   -2.8569  -13.3557  -15.6142 H   0  0  0  0  0  0  0  0  0  0  0  0
   -5.2968  -13.2882  -16.1683 H   0  0  0  0  0  0  0  0  0  0  0  0
   -5.5957  -14.5879  -15.0106 H   0  0  0  0  0  0  0  0  0  0  0  0
   -4.0425  -16.0804  -16.2851 H   0  0  0  0  0  0  0  0  0  0  0  0
   -3.7435  -14.7807  -17.4428 H   0  0  0  0  0  0  0  0  0  0  0  0
   -6.1834  -14.7132  -17.9970 H   0  0  0  0  0  0  0  0  0  0  0  0
   -6.4823  -16.0129  -16.8393 H   0  0  0  0  0  0  0  0  0  0  0  0
   -4.9291  -17.5055  -18.1137 H   0  0  0  0  0  0  0  0  0  0  0  0
   -4.6301  -16.2059  -19.2716 H   0  0  0  0  0  0  0  0  0  0  0  0
   -7.0693  -16.1385  -19.8268 H   0  0  0  0  0  0  0  0  0  0  0  0
   -7.3695  -17.4367  -18.6678 H   0  0  0  0  0  0  0  0  0  0  0  0
   -5.8169  -18.9318  -19.9399 H   0  0  0  0  0  0  0  0  0  0  0  0
   -5.5165  -17.6338  -21.0991 H   0  0  0  0  0  0  0  0  0  0  0  0
   -7.9554  -17.5653  -21.6554 H   0  0  0  0  0  0  0  0  0  0  0  0
   -8.2570  -18.8620  -20.4950 H   0  0  0  0  0  0  0  0  0  0  0  0
   -6.7050  -20.3597  -21.7649 H   0  0  0  0  0  0  0  0  0  0  0  0
   -6.4033  -19.0630  -22.9253 H   0  0  0  0  0  0  0  0  0  0  0  0
   -8.8435  -18.9932  -23.4804 H   0  0  0  0  0  0  0  0  0  0  0  0
   -9.1437  -20.2912  -22.3211 H   0  0  0  0  0  0  0  0  0  0  0  0
   -7.5911  -21.7864  -23.5932 H   0  0  0  0  0  0  0  0  0  0  0  0
   -7.2908  -20.4885  -24.7525 H   0  0  0  0  0  0  0  0  0  0  0  0
   -9.7297  -20.4200  -25.3087 H   0  0  0  0  0  0  0  0  0  0  0  0
  -10.0313  -21.7167  -24.1482 H   0  0  0  0  0  0  0  0  0  0  0  0
   -8.4779  -23.2138  -25.4184 H   0  0  0  0  0  0  0  0  0  0  0  0
   -8.1786  -21.9171  -26.5794 H   0  0  0  0  0  0  0  0  0  0  0  0
  -10.6194  -21.8499  -27.1323 H   0  0  0  0  0  0  0  0  0  0  0  0
  -10.9173  -23.1478  -25.9723 H   0  0  0  0  0  0  0  0  0  0  0  0
   -9.3644  -24.6420  -27.2455 H   0  0  0  0  0  0  0  0  0  0  0  0
   -9.0665  -23.3440  -28.4054 H   0  0  0  0  0  0  0  0  0  0  0  0
  -11.5067  -23.2780  -28.9582 H   0  0  0  0  0  0  0  0  0  0  0  0
  -11.8046  -24.5760  -27.7983 H   0  0  0  0  0  0  0  0  0  0  0  0
  -10.2517  -26.0701  -29.0715 H   0  0  0  0  0  0  0  0  0  0  0  0
   -9.9538  -24.7720  -30.2314 H   0  0  0  0  0  0  0  0  0  0  0  0
  -12.3940  -24.7060  -30.7842 H   0  0  0  0  0  0  0  0  0  0  0  0
  -12.6919  -26.0040  -29.6244 H   0  0  0  0  0  0  0  0  0  0  0  0
  -11.1394  -27.4979  -30.8976 H   0  0  0  0  0  0  0  0  0  0  0  0
  -10.8412  -26.1999  -32.0571 H   0  0  0  0  0  0  0  0  0  0  0  0
  -13.2811  -26.1318  -32.6087 H   0  0  0  0  0  0  0  0  0  0  0  0
  -13.5782  -27.4319  -31.4513 H   0  0  0  0  0  0  0  0  0  0  0  0
  -12.0252  -28.9220  -32.7226 H   0  0  0  0  0  0  0  0  0  0  0  0
  -11.7282  -27.6258  -33.8825 H   0  0  0  0  0  0  0  0  0  0  0  0
  -14.1674  -27.5592  -34.4390 H   0  0  0  0  0  0  0  0  0  0  0  0
  -14.4762  -28.8519  -33.2789 H   0  0  0  0  0  0  0  0  0  0  0  0
  -12.9165  -30.3453  -34.5526 H   0  0  0  0  0  0  0  0  0  0  0  0
  -12.6173  -29.0567  -35.7119 H   0  0  0  0  0  0  0  0  0  0  0  0
  -15.0578  -28.9908  -36.2640 H   0  0  0  0  0  0  0  0  0  0  0  0
  -15.3528  -30.2881  -35.1030 H   0  0  0  0  0  0  0  0  0  0  0  0
  -13.7998  -31.7816  -36.3758 H   0  0  0  0  0  0  0  0  0  0  0  0
  -13.5041  -30.4838  -37.5365 H   0  0  0  0  0  0  0  0  0  0  0  0
  -15.9450  -30.4203  -38.0870 H   0  0  0  0  0  0  0  0  0  0  0  0
  -16.2403  -31.7183  -36.9265 H   0  0  0  0  0  0  0  0  0  0  0  0
  -14.6873  -33.2112  -38.2005 H   0  0  0  0  0  0  0  0  0  0  0  0
  -14.3918  -31.9133  -39.3611 H   0  0  0  0  0  0  0  0  0  0  0  0
  -16.8326  -31.8498  -39.9116 H   0  0  0  0  0  0  0  0  0  0  0  0
  -17.1281  -33.1478  -38.7511 H   0  0  0  0  0  0  0  0  0  0  0  0
  -15.5762  -34.6412  -40.0250 H   0  0  0  0  0  0  0  0  0  0  0  0
  -15.2784  -33.3433  -41.1851 H   0  0  0  0  0  0  0  0  0  0  0  0
  -17.7187  -33.2774  -41.7378 H   0  0  0  0  0  0  0  0  0  0  0  0
  -18.0164  -34.5753  -40.5778 H   0  0  0  0  0  0  0  0  0  0  0  0
  -16.4624  -36.0689  -41.8512 H   0  0  0  0  0  0  0  0  0  0  0  0
  -16.1667  -34.7709  -43.0117 H   0  0  0  0  0  0  0  0  0  0  0  0
  -18.6075  -34.7073  -43.5623 H   0  0  0  0  0  0  0  0  0  0  0  0
  -18.9031  -36.0054  -42.4019 H   0  0  0  0  0  0  0  0  0  0  0  0
  -17.3511  -37.4988  -43.6758 H   0  0  0  0  0  0  0  0  0  0  0  0
  -17.0534  -36.2009  -44.8358 H   0  0  0  0  0  0  0  0  0  0  0  0
  -19.4936  -36.1350  -45.3885 H   0  0  0  0  0  0  0  0  0  0  0  0
  -19.7914  -37.4329  -44.2285 H   0  0  0  0  0  0  0  0  0  0  0  0
  -18.2373  -38.9265  -45.5020 H   0  0  0  0  0  0  0  0  0  0  0  0
  -17.9417  -37.6284  -46.6624 H   0  0  0  0  0  0  0  0  0  0  0  0
  -20.3833  -37.5648  -47.2119 H   0  0  0  0  0  0  0  0  0  0  0  0
  -20.6776  -38.8643  -46.0527 H   0  0  0  0  0  0  0  0  0  0  0  0
  -19.1250  -40.3553  -47.3290 H   0  0  0  0  0  0  0  0  0  0  0  0
  -18.8286  -39.0557  -48.4875 H   0  0  0  0  0  0  0  0  0  0  0  0
  -21.2697  -38.9906  -49.0382 H   0  0  0  0  0  0  0  0  0  0  0  0
  -21.5651  -40.2917  -47.8811 H   0  0  0  0  0  0  0  0  0  0  0  0
  -20.0121  -41.7812  -49.1588 H   0  0  0  0  0  0  0  0  0  0  0  0
  -19.7147  -40.4799  -50.3151 H   0  0  0  0  0  0  0  0  0  0  0  0
  -22.1555  -40.4133  -50.8672 H   0  0  0  0  0  0  0  0  0  0  0  0
  -22.4519  -41.7160  -49.7122 H   0  0  0  0  0  0  0  0  0  0  0  0
  -20.8986  -43.2041  -50.9910 H   0  0  0  0  0  0  0  0  0  0  0  0
  -20.6002  -41.9013  -52.1454 H   0  0  0  0  0  0  0  0  0  0  0  0
  -23.0390  -41.8335  -52.7010 H   0  0  0  0  0  0  0  0  0  0  0  0
  -23.3391  -43.1349  -51.5455 H   0  0  0  0  0  0  0  0  0  0  0  0
  -21.7867  -44.6264  -52.8211 H   0  0  0  0  0  0  0  0  0  0  0  0
  -21.4844  -43.3251  -53.9761 H   0  0  0  0  0  0  0  0  0  0  0  0
  -23.9234  -43.2536  -54.5338 H   0  0  0  0  0  0  0  0  0  0  0  0
  -24.2256  -44.5549  -53.3788 H   0  0  0  0  0  0  0  0  0  0  0  0
  -22.6711  -46.0466  -54.6540 H   0  0  0  0  0  0  0  0  0  0  0  0
  -22.3710  -44.7451  -55.8094 H   0  0  0  0  0  0  0  0  0  0  0  0
  -24.8113  -44.6759  -56.3640 H   0  0  0  0  0  0  0  0  0  0  0  0
  -25.1101  -45.9787  -55.2097 H   0  0  0  0  0  0  0  0  0  0  0  0
  -23.5572  -47.4679  -56.4874 H   0  0  0  0  0  0  0  0  0  0  0  0
  -23.2563  -46.1651  -57.6412 H   0  0  0  0  0  0  0  0  0  0  0  0
  -25.6945  -46.0946  -58.1991 H   0  0  0  0  0  0  0  0  0  0  0  0
  -25.9970  -47.3962  -57.0444 H   0  0  0  0  0  0  0  0  0  0  0  0
  -24.4453  -48.8890  -58.3192 H   0  0  0  0  0  0  0  0  0  0  0  0
  -24.1406  -47.5876  -59.4735 H   0  0  0  0  0  0  0  0  0  0  0  0
  -26.5789  -47.5135  -60.0337 H   0  0  0  0  0  0  0  0  0  0  0  0
  -26.8836  -48.8149  -58.8794 H   0  0  0  0  0  0  0  0  0  0  0  0
  -25.3303  -50.3084  -60.1544 H   0  0  0  0  0  0  0  0  0  0  0  0
  -25.0279  -49.0069  -61.3091 H   0  0  0  0  0  0  0  0  0  0  0  0
  -27.4676  -48.9354  -61.8662 H   0  0  0  0  0  0  0  0  0  0  0  0
  -27.7688  -50.2379  -60.7127 H   0  0  0  0  0  0  0  0  0  0  0  0
  -26.2179  -51.7298  -61.9929 H   0  0  0  0  0  0  0  0  0  0  0  0
  -25.9170  -50.4270  -63.1458 H   0  0  0  0  0  0  0  0  0  0  0  0
  -28.3565  -50.3580  -63.7052 H   0  0  0  0  0  0  0  0  0  0  0  0
  -28.6577  -51.6609  -62.5517 H   0  0  0  0  0  0  0  0  0  0  0  0
  -27.1052  -53.1513  -63.8318 H   0  0  0  0  0  0  0  0  0  0  0  0
  -26.8065  -51.8491  -64.9853 H   0  0  0  0  0  0  0  0  0  0  0  0
  -29.2464  -51.7976  -65.5593 H   0  0  0  0  0  0  0  0  0  0  0  0
  -29.5450  -53.1003  -64.4052 H   0  0  0  0  0  0  0  0  0  0  0  0
  -27.7107  -53.2896  -66.8523 H   0  0  0  0  0  0  0  0  0  0  0  0
  -29.3337  -53.9922  -66.7080 H   0  0  0  0  0  0  0  0  0  0  0  0
  -28.0108  -54.5984  -65.6927 H   0  0  0  0  0  0  0  0  0  0  0  0
  1  2  1  0  0  0  0
  1 80  1  0  0  0  0
  1 81  1  0  0  0  0
  1 82  1  0  0  0  0
  2  3  1  0  0  0  0
  2  6  1  0  0  0  0
  3  4  1  0  0  0  0
  3 83  1  0  0  0  0
  3 84  1  0  0  0  0
  4  5  1  0  0  0  0
  4 85  1  0  0  0  0
  4 86  1  0  0  0  0
  5  6  1  0  0  0  0
  5 87  1  0  0  0  0
  5 88  1  0  0  0  0
  6  7  1  0  0  0  0
  6 89  1  0  0  0  0
  7  8  1  0  0  0  0
  7 90  1  0  0  0  0
  7 91  1  0  0  0  0
  8  9  1  0  0  0  0
  8 92  1  0  0  0  0
  8 93  1  0  0  0  0
  9 10  1  0  0  0  0
  9 94  1  0  0  0  0
  9 95  1  0  0  0  0
 10 11  1  0  0  0  0
 10 96  1  0  0  0  0
 10 97  1  0  0  0  0
 11 12  1  0  0  0  0
 11 98  1  0  0  0  0
 11 99  1  0  0  0  0
 12 13  1  0  0  0  0
 12100  1  0  0  0  0
 12101  1  0  0  0  0
 13 14  1  0  0  0  0
 13102  1  0  0  0  0
 13103  1  0  0  0  0
 14 15  1  0  0  0  0
 14104  1  0  0  0  0
 14105  1  0  0  0  0
 15 16  1  0  0  0  0
 15106  1  0  0  0  0
 15107  1  0  0  0  0
 16 17  1  0  0  0  0
 16108  1  0  0  0  0
 16109  1  0  0  0  0
 17 18  1  0  0  0  0
 17110  1  0  0  0  0
 17111  1  0  0  0  0
 18 19  1  0  0  0  0
 18112  1  0  0  0  0
 18113  1  0  0  0  0
 19 20  1  0  0  0  0
 19114  1  0  0  0  0
 19115  1  0  0  0  0
 20 21  1  0  0  0  0
 20116  1  0  0  0  0
 20117  1  0  0  0  0
 21 22  1  0  0  0  0
 21118  1  0  0  0  0
 21119  1  0  0  0  0
 22 23  1  0  0  0  0
 22120  1  0  0  0  0
 22121  1  0  0  0  0
 23 24  1  0  0  0  0
 23122  1  0  0  0  0
 23123  1  0  0  0  0
 24 25  1  0  0  0  0
 24124  1  0  0  0  0
 24125  1  0  0  0  0
 25 26  1  0  0  0  0
 25126  1  0  0  0  0
 25127  1  0  0  0  0
 26 27  1  0  0  0  0
 26128  1  0  0  0  0
 26129  1  0  0  0  0
 27 28  1  0  0  0  0
 27130  1  0  0  0  0
 27131  1  0  0  0  0
 28 29  1  0  0  0  0
 28132  1  0  0  0  0
 28133  1  0  0  0  0
 29 30  1  0  0  0  0
 29134  1  0  0  0  0
 29135  1  0  0  0  0
 30 31  1  0  0  0  0
 30136  1  0  0  0  0
 30137  1  0  0  0  0
 31 32  1  0  0  0  0
 31138  1  0  0  0  0
 31139  1  0  0  0  0
 32 33  1  0  0  0  0
 32140  1  0  0  0  0
 32141  1  0  0  0  0
 33 34  1  0  0  0  0
 33142  1  0  0  0  0
 33143  1  0  0  0  0
 34 35  1  0  0  0  0
 34144  1  0  0  0  0
 34145  1  0  0  0  0
 35 36  1  0  0  0  0
 35146  1  0  0  0  0
 35147  1  0  0  0  0
 36 37  1  0  0  0  0
 36148  1  0  0  0  0
 36149  1  0  0  0  0
 37 38  1  0  0  0  0
 37150  1  0  0  0  0
 37151  1  0  0  0  0
 38 39  1  0  0  0  0
 38152  1  0  0  0  0
 38153  1  0  0  0  0
 39 40  1  0  0  0  0
 39154  1  0  0  0  0
 39155  1  0  0  0  0
 40 41  1  0  0  0  0
 40156  1  0  0  0  0
 40157  1  0  0  0  0
 41 42  1  0  0  0  0
 41158  1  0  0  0  0
 41159  1  0  0  0  0
 42 43  1  0  0  0  0
 42160  1  0  0  0  0
 42161  1  0  0  0  0
 43 44  1  0  0  0  0
 43162  1  0  0  0  0
 43163  1  0  0  0  0
 44 45  1  0  0  0  0
 44164  1  0  0  0  0
 44165  1  0  0  0  0
 45 46  1  0  0  0  0
 45166  1  0  0  0  0
 45167  1  0  0  0  0
 46 47  1  0  0  0  0
 46168  1  0  0  0  0
 46169  1  0  0  0  0
 47 48  1  0  0  0  0
 47170  1  0  0  0  0
 47171  1  0  0  0  0
 48 49  1  0  0  0  0
 48172  1  0  0  0  0
 48173  1  0  0  0  0
 49 50  1  0  0  0  0
 49174  1  0  0  0  0
 49175  1  0  0  0  0
 50 51  1  0  0  0  0
 50176  1  0  0  0  0
 50177  1  0  0  0  0
 51 52  1  0  0  0  0
 51178  1  0  0  0  0
 51179  1  0  0  0  0
 52 53  1  0  0  0  0
 52180  1  0  0  0  0
 52181  1  0  0  0  0
 53 54  1  0  0  0  0
 53182  1  0  0  0  0
 53183  1  0  0  0  0
 54 55  1  0  0  0  0
 54184  1  0  0  0  0
 54185  1  0  0  0  0
 55 56  1  0  0  0  0
 55186  1  0  0  0  0
 55187  1  0  0  0  0
 56 57  1  0  0  0  0
 56188  1  0  0  0  0
 56189  1  0  0  0  0
 57 58  1  0  0  0  0
 57190  1  0  0  0  0
 57191  1  0  0  0  0
 58 59  1  0  0  0  0
 58192  1  0  0  0  0
 58193  1  0  0  0  0
 59 60  1  0  0  0  0
 59194  1  0  0  0  0
 59195  1  0  0  0  0
 60 61  1  0  0  0  0
 60196  1  0  0  0  0
 60197  1  0  0  0  0
 61 62  1  0  0  0  0
 61198  1  0  0  0  0
 61199  1  0  0  0  0
 62 63  1  0  0  0  0
 62200  1  0  0  0  0
 62201  1  0  0  0  0
 63 64  1  0  0  0  0
 63202  1  0  0  0  0
 63203  1  0  0  0  0
 64 65  1  0  0  0  0
 64204  1  0  0  0  0
 64205  1  0  0  0  0
 65 66  1  0  0  0  0
 65206  1  0  0  0  0
 65207  1  0  0  0  0
 66 67  1  0  0  0  0
 66208  1  0  0  0  0
 66209  1  0  0  0  0
 67 68  1  0  0  0  0
 67210  1  0  0  0  0
 67211  1  0  0  0  0
 68 69  1  0  0  0  0
 68212  1  0  0  0  0
 68213  1  0  0  0  0
 69 70  1  0  0  0  0
 69214  1  0  0  0  0
 69215  1  0  0  0  0
 70 71  1  0  0  0  0
 70216  1  0  0  0  0
 70217  1  0  0  0  0
 71 72  1  0  0  0  0
 71218  1  0  0  0  0
 71219  1  0  0  0  0
 72 73  1  0  0  0  0
 72220  1  0  0  0  0
 72221  1  0  0  0  0
 73 74  1  0  0  0  0
 73222  1  0  0  0  0
 73223  1  0  0  0  0
 74 75  1  0  0  0  0
 74224  1  0  0  0  0
 74225  1  0  0  0  0
 75 76  1  0  0  0  0
 75226  1  0  0  0  0
 75227  1  0  0  0  0
 76 77  1  0  0  0  0
 76228  1  0  0  0  0
 76229  1  0  0  0  0
 77 78  1  0  0  0  0
 77230  1  0  0  0  0
 77231  1  0  0  0  0
 78 79  1  0  0  0  0
 78232  1  0  0  0  0
 78233  1  0  0  0  0
 79234  1  0  0  0  0
 79235  1  0  0  0  0
 79236  1  0  0  0  0
M  END
$$$$
