
 OpenBabel04232216553D

 56 57  0  0  0  0  0  0  0  0999 V2000
    7.4618   -5.5461    2.7629 C   0  0  0  0  0  0  0  0  0  0  0  0
    9.2790   -5.9702    3.3775 N   0  0  0  0  0  0  0  0  0  0  0  0
    8.3773   -4.4692    3.8727 C   0  0  0  0  0  0  0  0  0  0  0  0
    7.4781   -4.8888    4.7879 O   0  0  0  0  0  0  0  0  0  0  0  0
    7.5879   -3.1962    2.5016 C   0  0  0  0  0  0  0  0  0  0  0  0
    7.4967   -3.3184    1.1387 C   0  0  0  0  0  0  0  0  0  0  0  0
    8.7771   -2.6399    1.0616 C   0  0  0  0  0  0  0  0  0  0  0  0
    9.9227   -3.6030    1.9218 O   0  0  0  0  0  0  0  0  0  0  0  0
   10.8451   -5.1212    1.9906 C   0  0  0  0  0  0  0  0  0  0  0  0
   12.0154   -5.9736    2.9056 C   0  0  0  0  0  0  0  0  0  0  0  0
   12.1649   -4.7482    3.7344 C   0  0  0  0  0  0  0  0  0  0  0  0
   12.3492   -4.9072    5.0181 C   0  0  0  0  0  0  0  0  0  0  0  0
   13.7451   -5.0540    4.8736 C   0  0  0  0  0  0  0  0  0  0  0  0
   14.0696   -6.1915    5.3994 C   0  0  0  0  0  0  0  0  0  0  0  0
   15.3030   -6.5943    4.9737 C   0  0  0  0  0  0  0  0  0  0  0  0
   15.5529   -7.3904    5.9677 C   0  0  0  0  0  0  0  0  0  0  0  0
   16.8645   -7.5672    6.1432 C   0  0  0  0  0  0  0  0  0  0  0  0
   17.0752   -8.3977    7.1201 C   0  0  0  0  0  0  0  0  0  0  0  0
   18.4170   -8.6310    7.0415 C   0  0  0  0  0  0  0  0  0  0  0  0
   18.8172   -9.4729    7.9328 C   0  0  0  0  0  0  0  0  0  0  0  0
   20.2108   -9.5263    8.0046 C   0  0  0  0  0  0  0  0  0  0  0  0
   20.5521  -10.4664    8.8654 C   0  0  0  0  0  0  0  0  0  0  0  0
   21.4648  -11.3506    8.2832 C   0  0  0  0  0  0  0  0  0  0  0  0
   20.5086  -12.1178    7.5064 C   0  0  0  0  0  0  0  0  0  0  0  0
   19.2718  -11.5210    6.1749 C   0  0  0  0  0  0  0  0  0  0  0  0
   17.8759  -10.9075    5.4639 C   0  0  0  0  0  0  0  0  0  0  0  0
   15.9910   -9.8959    4.9416 C   0  0  0  0  0  0  0  0  0  0  0  0
   14.4755   -8.9087    4.3225 C   0  0  0  0  0  0  0  0  0  0  0  0
   12.5768   -7.7446    3.8493 C   0  0  0  0  0  0  0  0  0  0  0  0
   10.7989   -7.2763    3.8991 N   0  0  0  0  0  0  0  0  0  0  0  0
    6.2922   -4.8780    2.8340 H   0  0  0  0  0  0  0  0  0  0  0  0
    6.9607   -5.6704    1.7759 H   0  0  0  0  0  0  0  0  0  0  0  0
    6.7222   -4.3862    3.3749 H   0  0  0  0  0  0  0  0  0  0  0  0
    6.6249   -2.4232    2.4828 H   0  0  0  0  0  0  0  0  0  0  0  0
    6.6430   -3.7430    0.5008 H   0  0  0  0  0  0  0  0  0  0  0  0
    8.5764   -1.5975    1.6766 H   0  0  0  0  0  0  0  0  0  0  0  0
    8.9576   -2.2023    0.0777 H   0  0  0  0  0  0  0  0  0  0  0  0
   11.0809   -4.0003    2.3701 H   0  0  0  0  0  0  0  0  0  0  0  0
   12.6100   -3.8968    3.1893 H   0  0  0  0  0  0  0  0  0  0  0  0
   11.8301   -5.7827    5.4552 H   0  0  0  0  0  0  0  0  0  0  0  0
   14.3016   -4.8441    3.9286 H   0  0  0  0  0  0  0  0  0  0  0  0
   13.4235   -6.7920    6.0572 H   0  0  0  0  0  0  0  0  0  0  0  0
   15.9927   -6.1327    4.2780 H   0  0  0  0  0  0  0  0  0  0  0  0
   14.8033   -7.9547    6.5452 H   0  0  0  0  0  0  0  0  0  0  0  0
   17.5643   -7.2211    5.3968 H   0  0  0  0  0  0  0  0  0  0  0  0
   16.3055   -9.0021    7.6283 H   0  0  0  0  0  0  0  0  0  0  0  0
   19.0599   -8.2449    6.2546 H   0  0  0  0  0  0  0  0  0  0  0  0
   18.0797  -10.1825    8.3343 H   0  0  0  0  0  0  0  0  0  0  0  0
   20.8230   -9.2740    7.1262 H   0  0  0  0  0  0  0  0  0  0  0  0
   19.6848  -11.0318    9.2684 H   0  0  0  0  0  0  0  0  0  0  0  0
   22.5277  -10.9950    8.1455 H   0  0  0  0  0  0  0  0  0  0  0  0
   20.7324  -13.0319    8.3446 H   0  0  0  0  0  0  0  0  0  0  0  0
   20.4456  -11.8870    5.8167 H   0  0  0  0  0  0  0  0  0  0  0  0
   17.6381  -11.5502    6.3721 H   0  0  0  0  0  0  0  0  0  0  0  0
   16.2535  -10.1550    6.0904 H   0  0  0  0  0  0  0  0  0  0  0  0
   14.2073   -9.3343    5.3374 H   0  0  0  0  0  0  0  0  0  0  0  0
  1  2  1  0  0  0  0
  1 31  1  0  0  0  0
  1 32  1  0  0  0  0
  1 33  1  0  0  0  0
  2  3  1  0  0  0  0
  2 30  1  0  0  0  0
  3  4  2  0  0  0  0
  3  5  1  0  0  0  0
  5  6  2  3  0  0  0
  5 34  1  0  0  0  0
  6  7  1  0  0  0  0
  6 35  1  0  0  0  0
  7  8  1  0  0  0  0
  7 36  1  0  0  0  0
  7 37  1  0  0  0  0
  8  9  1  0  0  0  0
  9 10  2  3  0  0  0
  9 38  1  0  0  0  0
 10 11  1  0  0  0  0
 10 29  1  0  0  0  0
 11 12  2  3  0  0  0
 11 39  1  0  0  0  0
 12 13  1  0  0  0  0
 12 40  1  0  0  0  0
 13 14  2  3  0  0  0
 13 41  1  0  0  0  0
 14 15  1  0  0  0  0
 14 42  1  0  0  0  0
 15 16  2  3  0  0  0
 15 43  1  0  0  0  0
 16 17  1  0  0  0  0
 16 44  1  0  0  0  0
 17 18  2  3  0  0  0
 17 45  1  0  0  0  0
 18 19  1  0  0  0  0
 18 46  1  0  0  0  0
 19 20  2  3  0  0  0
 19 47  1  0  0  0  0
 20 21  1  0  0  0  0
 20 48  1  0  0  0  0
 21 22  2  3  0  0  0
 21 49  1  0  0  0  0
 22 23  1  0  0  0  0
 22 50  1  0  0  0  0
 23 24  2  3  0  0  0
 23 51  1  0  0  0  0
 24 25  1  0  0  0  0
 24 52  1  0  0  0  0
 25 26  2  3  0  0  0
 25 53  1  0  0  0  0
 26 27  1  0  0  0  0
 26 54  1  0  0  0  0
 27 28  2  3  0  0  0
 27 55  1  0  0  0  0
 28 29  1  0  0  0  0
 28 56  1  0  0  0  0
 29 30  2  3  0  0  0
M  END
$$$$
