
 OpenBabel04232216463D

 53 54  0  0  1  0  0  0  0  0999 V2000
    5.0401   -2.8962   -0.7410 C   0  0  0  0  0  0  0  0  0  0  0  0
    6.2792   -2.7931   -1.6949 C   0  0  0  0  0  0  0  0  0  0  0  0
    6.1793   -1.4309   -2.3692 C   0  0  0  0  0  0  0  0  0  0  0  0
    7.1767   -0.5796   -2.1259 C   0  0  0  0  0  0  0  0  0  0  0  0
    6.9471    0.3878   -0.9710 C   0  0  0  0  0  0  0  0  0  0  0  0
    5.7781    1.1688   -1.1711 O   0  0  0  0  0  0  0  0  0  0  0  0
    8.5221   -0.7972   -2.6099 C   0  0  0  0  0  0  0  0  0  0  0  0
    9.0696   -1.3293   -3.7443 C   0  0  0  0  0  0  0  0  0  0  0  0
    8.3289   -2.0755   -4.8618 C   0  0  0  0  0  0  0  0  0  0  0  0
    6.7669   -1.9355   -5.1172 C   0  0  0  0  0  0  0  0  0  0  0  0
    5.9292   -2.8867   -6.0310 C   0  0  0  0  0  0  0  0  0  0  0  0
    4.6394   -3.1703   -5.4157 O   0  0  0  0  0  0  0  0  0  0  0  0
    8.7161   -3.3753   -4.9914 C   0  0  0  0  0  0  0  0  0  0  0  0
    8.0262   -4.2795   -3.9752 C   0  0  0  0  0  0  0  0  0  0  0  0
    8.2342   -3.9738   -2.6930 C   0  0  0  0  0  0  0  0  0  0  0  0
    9.5974   -4.5656   -2.1478 C   0  0  0  0  0  0  0  0  0  0  0  0
   11.0452   -4.3898   -2.8233 C   0  0  3  0  0  0  0  0  0  0  0  0
   12.0154   -4.4357   -1.7519 O   0  0  0  0  0  0  0  0  0  0  0  0
   11.7149   -5.0568   -4.0604 C   0  0  0  0  0  0  0  0  0  0  0  0
   12.9554   -4.2090   -4.5120 C   0  0  0  0  0  0  0  0  0  0  0  0
   12.6389   -2.8196   -5.1285 C   0  0  0  0  0  0  0  0  0  0  0  0
   12.0889   -1.6330   -4.2857 C   0  0  0  0  0  0  0  0  0  0  0  0
   10.6774   -1.2694   -3.6171 C   0  0  0  0  0  0  0  0  0  0  0  0
    7.1238   -3.8069   -1.8090 N   0  0  0  0  0  0  0  0  0  0  0  0
    4.2277   -3.4291   -1.2423 H   0  0  0  0  0  0  0  0  0  0  0  0
    4.6280   -1.8862   -0.5263 H   0  0  0  0  0  0  0  0  0  0  0  0
    5.2885   -3.3265    0.2208 H   0  0  0  0  0  0  0  0  0  0  0  0
    5.1664   -1.0202   -2.2710 H   0  0  0  0  0  0  0  0  0  0  0  0
    7.8032    1.0566   -0.8020 H   0  0  0  0  0  0  0  0  0  0  0  0
    6.7884   -0.1974   -0.0577 H   0  0  0  0  0  0  0  0  0  0  0  0
    5.6877    1.7328   -0.3954 H   0  0  0  0  0  0  0  0  0  0  0  0
    9.2233   -0.4996   -1.8245 H   0  0  0  0  0  0  0  0  0  0  0  0
    6.4475   -0.9030   -5.2652 H   0  0  0  0  0  0  0  0  0  0  0  0
    6.3155   -2.2587   -4.2013 H   0  0  0  0  0  0  0  0  0  0  0  0
    6.3673   -3.8785   -6.1952 H   0  0  0  0  0  0  0  0  0  0  0  0
    5.7006   -2.4443   -6.9980 H   0  0  0  0  0  0  0  0  0  0  0  0
    4.8163   -3.7225   -4.6323 H   0  0  0  0  0  0  0  0  0  0  0  0
    8.5643   -3.8579   -5.9552 H   0  0  0  0  0  0  0  0  0  0  0  0
    8.2246   -5.3195   -4.2943 H   0  0  0  0  0  0  0  0  0  0  0  0
    9.7239   -4.0689   -1.1789 H   0  0  0  0  0  0  0  0  0  0  0  0
    9.4508   -5.6297   -1.9582 H   0  0  0  0  0  0  0  0  0  0  0  0
   11.0364   -3.3782   -3.1349 H   0  0  0  0  0  0  0  0  0  0  0  0
   12.6968   -5.0952   -1.9606 H   0  0  0  0  0  0  0  0  0  0  0  0
   11.0610   -5.1737   -4.9281 H   0  0  0  0  0  0  0  0  0  0  0  0
   12.1090   -6.0522   -3.8051 H   0  0  0  0  0  0  0  0  0  0  0  0
   13.5212   -4.7830   -5.2701 H   0  0  0  0  0  0  0  0  0  0  0  0
   13.6841   -4.0964   -3.6933 H   0  0  0  0  0  0  0  0  0  0  0  0
   13.6468   -2.4661   -5.4328 H   0  0  0  0  0  0  0  0  0  0  0  0
   12.1032   -2.9307   -6.0729 H   0  0  0  0  0  0  0  0  0  0  0  0
   12.3885   -0.7316   -4.8368 H   0  0  0  0  0  0  0  0  0  0  0  0
   12.7744   -1.6287   -3.4156 H   0  0  0  0  0  0  0  0  0  0  0  0
   10.8119   -0.1743   -3.5220 H   0  0  0  0  0  0  0  0  0  0  0  0
   10.8379   -1.6130   -2.5787 H   0  0  0  0  0  0  0  0  0  0  0  0
  1  2  1  0  0  0  0
  1 25  1  0  0  0  0
  1 26  1  0  0  0  0
  1 27  1  0  0  0  0
  2  3  1  0  0  0  0
  2 24  2  0  0  0  0
  3  4  2  0  0  0  0
  3 28  1  0  0  0  0
  4  5  1  0  0  0  0
  4  7  1  0  0  0  0
  5  6  1  0  0  0  0
  5 29  1  0  0  0  0
  5 30  1  0  0  0  0
  6 31  1  0  0  0  0
  7  8  2  0  0  0  0
  7 32  1  0  0  0  0
  8  9  1  0  0  0  0
  8 23  1  0  0  0  0
  9 10  1  0  0  0  0
  9 13  2  0  0  0  0
 10 11  1  0  0  0  0
 10 33  1  0  0  0  0
 10 34  1  0  0  0  0
 11 12  1  0  0  0  0
 11 35  1  0  0  0  0
 11 36  1  0  0  0  0
 12 37  1  0  0  0  0
 13 14  1  0  0  0  0
 13 38  1  0  0  0  0
 14 15  2  0  0  0  0
 14 39  1  0  0  0  0
 15 16  1  0  0  0  0
 15 24  1  0  0  0  0
 16 17  1  0  0  0  0
 16 40  1  0  0  0  0
 16 41  1  0  0  0  0
 17 18  1  0  0  0  0
 17 19  1  0  0  0  0
 17 42  1  0  0  0  0
 18 43  1  0  0  0  0
 19 20  1  0  0  0  0
 19 44  1  0  0  0  0
 19 45  1  0  0  0  0
 20 21  1  0  0  0  0
 20 46  1  0  0  0  0
 20 47  1  0  0  0  0
 21 22  1  0  0  0  0
 21 48  1  0  0  0  0
 21 49  1  0  0  0  0
 22 23  1  0  0  0  0
 22 50  1  0  0  0  0
 22 51  1  0  0  0  0
 23 52  1  0  0  0  0
 23 53  1  0  0  0  0
M  END
$$$$
