
 OpenBabel04232216513D

 62 62  0  0  0  0  0  0  0  0999 V2000
    8.8102    3.4305   -5.2811 C   0  0  0  0  0  0  0  0  0  0  0  0
   10.6678    3.5092   -4.8444 C   0  0  0  0  0  0  0  0  0  0  0  0
   10.2448    2.5983   -3.6046 N   0  0  0  0  0  0  0  0  0  0  0  0
    8.6378    1.9284   -3.1018 C   0  0  0  0  0  0  0  0  0  0  0  0
    7.5510    2.1080   -2.1310 C   0  0  0  0  0  0  0  0  0  0  0  0
    7.9127    2.6675   -0.8002 C   0  0  0  0  0  0  0  0  0  0  0  0
    8.0296    4.0803   -1.3076 C   0  0  0  0  0  0  0  0  0  0  0  0
    9.4623    4.2449   -1.2855 C   0  0  0  0  0  0  0  0  0  0  0  0
   10.0151    5.0937   -2.1241 C   0  0  0  0  0  0  0  0  0  0  0  0
   11.4028    4.9468   -2.1199 C   0  0  0  0  0  0  0  0  0  0  0  0
   12.0632    5.4344   -3.1317 C   0  0  0  0  0  0  0  0  0  0  0  0
   13.4992    5.2496   -3.1220 C   0  0  0  0  0  0  0  0  0  0  0  0
   13.8737    6.4531   -3.7707 N   0  0  0  0  0  0  0  0  0  0  0  0
   15.2536    6.5381   -3.7264 C   0  0  0  0  0  0  0  0  0  0  0  0
   15.5940    7.6708   -4.4983 N   0  0  0  0  0  0  0  0  0  0  0  0
   16.9895    7.5118   -4.5125 C   0  0  0  0  0  0  0  0  0  0  0  0
   17.4329    8.8273   -4.6957 N   0  0  0  0  0  0  0  0  0  0  0  0
   18.8330    8.7087   -4.8988 C   0  0  0  0  0  0  0  0  0  0  0  0
   19.1251    9.9409   -5.6497 C   0  0  0  0  0  0  0  0  0  0  0  0
   20.5504    9.6914   -6.0753 C   0  0  0  0  0  0  0  0  0  0  0  0
   20.1235    9.7604   -7.5472 C   0  0  0  0  0  0  0  0  0  0  0  0
   18.9671    8.1823   -7.6611 C   0  0  0  0  0  0  0  0  0  0  0  0
   17.2609    7.0433   -7.3714 C   0  0  0  0  0  0  0  0  0  0  0  0
   15.3574    6.5141   -6.8171 O   0  0  0  0  0  0  0  0  0  0  0  0
   13.8304    5.5327   -6.2655 C   0  0  0  0  0  0  0  0  0  0  0  0
   12.4527    4.3829   -5.5469 C   0  0  0  0  0  0  0  0  0  0  0  0
    7.7613    3.9085   -5.3287 H   0  0  0  0  0  0  0  0  0  0  0  0
    8.4412    3.6206   -4.2178 H   0  0  0  0  0  0  0  0  0  0  0  0
    8.4739    2.3190   -5.3023 H   0  0  0  0  0  0  0  0  0  0  0  0
    8.7307    0.8545   -2.7423 H   0  0  0  0  0  0  0  0  0  0  0  0
    6.4932    2.5839   -2.1731 H   0  0  0  0  0  0  0  0  0  0  0  0
    8.7845    2.0369   -0.5738 H   0  0  0  0  0  0  0  0  0  0  0  0
    7.3619    2.6385    0.1548 H   0  0  0  0  0  0  0  0  0  0  0  0
    7.4205    4.8186   -0.8011 H   0  0  0  0  0  0  0  0  0  0  0  0
    7.7035    4.2316   -2.3597 H   0  0  0  0  0  0  0  0  0  0  0  0
   10.1024    3.3709   -1.0707 H   0  0  0  0  0  0  0  0  0  0  0  0
    9.4290    5.6013   -2.8869 H   0  0  0  0  0  0  0  0  0  0  0  0
   11.9155    4.3342   -1.3847 H   0  0  0  0  0  0  0  0  0  0  0  0
   11.5294    5.9238   -3.9481 H   0  0  0  0  0  0  0  0  0  0  0  0
   13.8332    4.3485   -3.6542 H   0  0  0  0  0  0  0  0  0  0  0  0
   13.9047    5.1306   -2.1168 H   0  0  0  0  0  0  0  0  0  0  0  0
   13.3493    7.2853   -3.5574 H   0  0  0  0  0  0  0  0  0  0  0  0
   15.6855    5.6268   -4.1716 H   0  0  0  0  0  0  0  0  0  0  0  0
   15.6204    6.6285   -2.7052 H   0  0  0  0  0  0  0  0  0  0  0  0
   15.3502    8.5366   -4.0493 H   0  0  0  0  0  0  0  0  0  0  0  0
   17.2817    6.7244   -5.2164 H   0  0  0  0  0  0  0  0  0  0  0  0
   17.4118    7.1626   -3.5750 H   0  0  0  0  0  0  0  0  0  0  0  0
   16.9418    9.2575   -5.4823 H   0  0  0  0  0  0  0  0  0  0  0  0
   19.0973    7.7937   -5.4575 H   0  0  0  0  0  0  0  0  0  0  0  0
   19.4548    8.6275   -4.0140 H   0  0  0  0  0  0  0  0  0  0  0  0
   18.9529   10.9250   -5.2077 H   0  0  0  0  0  0  0  0  0  0  0  0
   18.4133   10.0268   -6.5109 H   0  0  0  0  0  0  0  0  0  0  0  0
   21.0303    8.7352   -5.8546 H   0  0  0  0  0  0  0  0  0  0  0  0
   21.1656   10.4010   -5.4688 H   0  0  0  0  0  0  0  0  0  0  0  0
   20.4497   10.8602   -7.2318 H   0  0  0  0  0  0  0  0  0  0  0  0
   20.7723    9.9181   -8.4347 H   0  0  0  0  0  0  0  0  0  0  0  0
   19.4462    7.8239   -8.6190 H   0  0  0  0  0  0  0  0  0  0  0  0
   19.8392    7.6209   -7.1244 H   0  0  0  0  0  0  0  0  0  0  0  0
   16.7658    7.9550   -7.5982 H   0  0  0  0  0  0  0  0  0  0  0  0
   17.4868    6.3674   -8.1010 H   0  0  0  0  0  0  0  0  0  0  0  0
   14.6259    4.8352   -5.9351 H   0  0  0  0  0  0  0  0  0  0  0  0
   12.9440    3.4681   -5.1707 H   0  0  0  0  0  0  0  0  0  0  0  0
  1  2  1  0  0  0  0
  1 27  1  0  0  0  0
  1 28  1  0  0  0  0
  1 29  1  0  0  0  0
  2  3  2  3  0  0  0
  2 26  1  0  0  0  0
  3  4  1  0  0  0  0
  4  5  2  3  0  0  0
  4 30  1  0  0  0  0
  5  6  1  0  0  0  0
  5 31  1  0  0  0  0
  6  7  1  0  0  0  0
  6 32  1  0  0  0  0
  6 33  1  0  0  0  0
  7  8  1  0  0  0  0
  7 34  1  0  0  0  0
  7 35  1  0  0  0  0
  8  9  2  3  0  0  0
  8 36  1  0  0  0  0
  9 10  1  0  0  0  0
  9 37  1  0  0  0  0
 10 11  2  3  0  0  0
 10 38  1  0  0  0  0
 11 12  1  0  0  0  0
 11 39  1  0  0  0  0
 12 13  1  0  0  0  0
 12 40  1  0  0  0  0
 12 41  1  0  0  0  0
 13 14  1  0  0  0  0
 13 42  1  0  0  0  0
 14 15  1  0  0  0  0
 14 43  1  0  0  0  0
 14 44  1  0  0  0  0
 15 16  1  0  0  0  0
 15 45  1  0  0  0  0
 16 17  1  0  0  0  0
 16 46  1  0  0  0  0
 16 47  1  0  0  0  0
 17 18  1  0  0  0  0
 17 48  1  0  0  0  0
 18 19  1  0  0  0  0
 18 49  1  0  0  0  0
 18 50  1  0  0  0  0
 19 20  1  0  0  0  0
 19 51  1  0  0  0  0
 19 52  1  0  0  0  0
 20 21  1  0  0  0  0
 20 53  1  0  0  0  0
 20 54  1  0  0  0  0
 21 22  1  0  0  0  0
 21 55  1  0  0  0  0
 21 56  1  0  0  0  0
 22 23  1  0  0  0  0
 22 57  1  0  0  0  0
 22 58  1  0  0  0  0
 23 24  1  0  0  0  0
 23 59  1  0  0  0  0
 23 60  1  0  0  0  0
 24 25  1  0  0  0  0
 25 26  2  3  0  0  0
 25 61  1  0  0  0  0
 26 62  1  0  0  0  0
M  END
$$$$
