
 OpenBabel04232216393D

 42 42  0  0  1  0  0  0  0  0999 V2000
    4.8208    1.2427    2.7018 C   0  0  0  0  0  0  0  0  0  0  0  0
    6.1049    1.6971    2.8130 C   0  0  0  0  0  0  0  0  0  0  0  0
    7.5516    1.2994    3.3364 C   0  0  0  0  0  0  0  0  0  0  0  0
    8.4250   -0.0380    3.6208 C   0  0  3  0  0  0  0  0  0  0  0  0
    7.5702   -1.2328    3.5374 C   0  0  0  0  0  0  0  0  0  0  0  0
    7.4841   -1.9908    2.4146 C   0  0  0  0  0  0  0  0  0  0  0  0
    7.8405   -1.4914    1.0203 C   0  0  0  0  0  0  0  0  0  0  0  0
    7.7084   -3.4063    2.7440 C   0  0  0  0  0  0  0  0  0  0  0  0
    6.7993   -4.0652    3.7509 C   0  0  0  0  0  0  0  0  0  0  0  0
    8.9985   -3.7601    2.5509 C   0  0  0  0  0  0  0  0  0  0  0  0
    9.7560   -4.5647    3.4661 C   0  0  0  0  0  0  0  0  0  0  0  0
   11.0911   -4.5674    3.3761 C   0  0  0  0  0  0  0  0  0  0  0  0
   11.9043   -5.2685    4.4063 C   0  0  0  0  0  0  0  0  0  0  0  0
   11.3418   -5.8788    5.3169 O   0  0  0  0  0  0  0  0  0  0  0  0
   13.3035   -5.0390    4.2788 N   0  0  0  0  0  0  0  0  0  0  0  0
   13.7512   -4.3137    3.3082 O   0  0  0  0  0  0  0  0  0  0  0  0
   13.9867   -5.3814    5.2965 N   0  0  0  0  0  0  0  0  0  0  0  0
   14.8143   -4.3226    5.6731 N   0  0  0  0  0  0  0  0  0  0  0  0
   14.1407   -3.6182    6.4729 N   0  0  0  0  0  0  0  0  0  0  0  0
   13.6472   -2.4494    5.8511 N   0  0  0  0  0  0  0  0  0  0  0  0
   12.3407   -2.4264    5.8612 N   0  0  0  0  0  0  0  0  0  0  0  0
   11.7399   -1.2288    5.3855 C   0  0  0  0  0  0  0  0  0  0  0  0
   10.5727   -1.0692    4.6302 C   0  0  0  0  0  0  0  0  0  0  0  0
    9.3986   -0.1623    4.8438 O   0  0  0  0  0  0  0  0  0  0  0  0
    4.1110    1.9484    2.1803 H   0  0  0  0  0  0  0  0  0  0  0  0
    4.4135    0.3436    3.0384 H   0  0  0  0  0  0  0  0  0  0  0  0
    6.2370    2.7005    2.3583 H   0  0  0  0  0  0  0  0  0  0  0  0
    7.8265    2.0433    4.0760 H   0  0  0  0  0  0  0  0  0  0  0  0
    8.0711    1.5944    2.4050 H   0  0  0  0  0  0  0  0  0  0  0  0
    9.1783   -0.0490    2.8159 H   0  0  0  0  0  0  0  0  0  0  0  0
    7.2723   -1.6214    4.5121 H   0  0  0  0  0  0  0  0  0  0  0  0
    6.9476   -1.1270    0.5033 H   0  0  0  0  0  0  0  0  0  0  0  0
    8.2912   -2.2602    0.3815 H   0  0  0  0  0  0  0  0  0  0  0  0
    8.5590   -0.6639    1.0248 H   0  0  0  0  0  0  0  0  0  0  0  0
    5.7500   -3.8202    3.5612 H   0  0  0  0  0  0  0  0  0  0  0  0
    7.0478   -3.7389    4.7686 H   0  0  0  0  0  0  0  0  0  0  0  0
    6.8990   -5.1540    3.7281 H   0  0  0  0  0  0  0  0  0  0  0  0
    9.6117   -3.1774    1.8667 H   0  0  0  0  0  0  0  0  0  0  0  0
    9.2579   -5.0175    4.3206 H   0  0  0  0  0  0  0  0  0  0  0  0
   11.6046   -3.9864    2.6159 H   0  0  0  0  0  0  0  0  0  0  0  0
   12.5213   -0.5253    5.1098 H   0  0  0  0  0  0  0  0  0  0  0  0
   10.8659   -0.5290    3.7512 H   0  0  0  0  0  0  0  0  0  0  0  0
  1  2  2  0  0  0  0
  1 25  1  0  0  0  0
  1 26  1  0  0  0  0
  2  3  1  0  0  0  0
  2 27  1  0  0  0  0
  3  4  1  0  0  0  0
  3 28  1  0  0  0  0
  3 29  1  0  0  0  0
  4  5  1  0  0  0  0
  4 24  1  0  0  0  0
  4 30  1  0  0  0  0
  5  6  2  3  0  0  0
  5 31  1  0  0  0  0
  6  7  1  0  0  0  0
  6  8  1  0  0  0  0
  7 32  1  0  0  0  0
  7 33  1  0  0  0  0
  7 34  1  0  0  0  0
  8  9  1  0  0  0  0
  8 10  2  3  0  0  0
  9 35  1  0  0  0  0
  9 36  1  0  0  0  0
  9 37  1  0  0  0  0
 10 11  1  0  0  0  0
 10 38  1  0  0  0  0
 11 12  2  3  0  0  0
 11 39  1  0  0  0  0
 12 13  1  0  0  0  0
 12 40  1  0  0  0  0
 13 14  2  0  0  0  0
 13 15  1  0  0  0  0
 15 16  2  0  0  0  0
 15 17  2  3  0  0  0
 17 18  1  0  0  0  0
 18 19  2  3  0  0  0
 19 20  1  0  0  0  0
 20 21  2  3  0  0  0
 21 22  1  0  0  0  0
 22 23  2  3  0  0  0
 22 41  1  0  0  0  0
 23 24  1  0  0  0  0
 23 42  1  0  0  0  0
M  END
$$$$
