
 OpenBabel04232216483D

 83 84  0  0  0  0  0  0  0  0999 V2000
   -1.2458    1.0379   -0.0458 C   0  0  0  0  0  0  0  0  0  0  0  0
   -3.2511    1.7107   -0.7329 C   0  0  0  0  0  0  0  0  0  0  0  0
   -5.1496    1.7384   -1.3539 C   0  0  0  0  0  0  0  0  0  0  0  0
   -7.1841    2.4252   -1.7058 C   0  0  0  0  0  0  0  0  0  0  0  0
   -9.0216    3.6433   -1.8513 C   0  0  0  0  0  0  0  0  0  0  0  0
  -11.2587    4.4127   -1.7561 N   0  0  0  0  0  0  0  0  0  0  0  0
  -10.0562    2.6587   -1.1298 C   0  0  0  0  0  0  0  0  0  0  0  0
   -8.3084    2.1750    0.1443 C   0  0  0  0  0  0  0  0  0  0  0  0
   -7.0925    3.6325    0.7580 N   0  0  0  0  0  0  0  0  0  0  0  0
   -7.7575    4.6367    0.0785 C   0  0  0  0  0  0  0  0  0  0  0  0
   -9.0089    4.6616    0.5225 N   0  0  0  0  0  0  0  0  0  0  0  0
  -10.3055    4.0082    0.5581 C   0  0  0  0  0  0  0  0  0  0  0  0
  -10.4938    5.4154    0.2926 C   0  0  0  0  0  0  0  0  0  0  0  0
  -11.7335    5.4545    0.8247 C   0  0  0  0  0  3  0  0  0  0  0  0
  -12.6348    6.2305    0.1263 C   0  0  0  0  0  0  0  0  0  0  0  0
  -13.9178    5.5323    0.3460 C   0  0  0  0  0  0  0  0  0  0  0  0
  -14.9394    6.5358    0.2439 N   0  0  0  0  0  0  0  0  0  0  0  0
  -16.3204    6.0053    0.1295 C   0  0  0  0  0  0  0  0  0  0  0  0
  -17.0227    7.3389    0.2477 C   0  0  0  0  0  0  0  0  0  0  0  0
  -18.5416    6.9874    0.0994 C   0  0  0  0  0  0  0  0  0  0  0  0
  -19.0147    8.4383    0.3008 C   0  0  0  0  0  0  0  0  0  0  0  0
  -20.6766    8.0546    0.0821 C   0  0  0  0  0  0  0  0  0  0  0  0
  -21.6530    9.1164    0.3758 C   0  0  0  0  0  0  0  0  0  0  0  0
  -22.9954    9.0217    0.2054 C   0  0  0  0  0  0  0  0  0  0  0  0
  -23.7243   10.1659    0.6100 C   0  0  0  0  0  0  0  0  0  0  0  0
  -25.0276   10.4629    0.5192 C   0  0  0  0  0  0  0  0  0  0  0  0
  -25.0688   11.9626    0.5456 C   0  0  0  0  0  0  0  0  0  0  0  0
  -24.8895   11.7997   -0.8159 C   0  0  0  0  0  0  0  0  0  0  0  0
  -22.9340   11.2884   -1.4272 C   0  0  0  0  0  0  0  0  0  0  0  0
  -21.3233   10.1778   -1.8354 C   0  0  0  0  0  0  0  0  0  0  0  0
  -19.2806    9.1643   -2.0048 C   0  0  0  0  0  0  0  0  0  0  0  0
  -17.5138    7.9442   -2.0345 C   0  0  0  0  0  0  0  0  0  0  0  0
  -15.3271    6.8008   -2.0954 C   0  0  0  0  0  0  0  0  0  0  0  0
  -13.4224    5.4744   -1.9758 C   0  0  0  0  0  0  0  0  0  0  0  0
   -6.9761    3.1713   -1.2392 C   0  0  0  0  0  0  0  0  0  0  0  0
   -4.9832    2.5853   -0.7317 C   0  0  0  0  0  0  0  0  0  0  0  0
   -0.0957   -0.0386   -0.0330 H   0  0  0  0  0  0  0  0  0  0  0  0
   -0.1428    0.8061    1.0575 H   0  0  0  0  0  0  0  0  0  0  0  0
    0.2935    1.2883   -0.2044 H   0  0  0  0  0  0  0  0  0  0  0  0
   -4.3423    0.5795   -0.9467 H   0  0  0  0  0  0  0  0  0  0  0  0
   -6.5758    1.1732   -1.2398 H   0  0  0  0  0  0  0  0  0  0  0  0
   -9.1493    1.7845   -1.7609 H   0  0  0  0  0  0  0  0  0  0  0  0
   -9.3683    2.6585    0.0853 H   0  0  0  0  0  0  0  0  0  0  0  0
   -7.2636    1.3393    0.6613 H   0  0  0  0  0  0  0  0  0  0  0  0
   -7.7965    0.9911   -0.3838 H   0  0  0  0  0  0  0  0  0  0  0  0
   -6.3160    4.1924   -0.0715 H   0  0  0  0  0  0  0  0  0  0  0  0
   -8.1249    3.8394    0.6684 H   0  0  0  0  0  0  0  0  0  0  0  0
   -7.6018    4.7270   -1.3169 H   0  0  0  0  0  0  0  0  0  0  0  0
   -8.9954    4.9799   -0.4271 H   0  0  0  0  0  0  0  0  0  0  0  0
  -10.3899    3.1901    1.2867 H   0  0  0  0  0  0  0  0  0  0  0  0
  -11.1161    3.3749   -0.0511 H   0  0  0  0  0  0  0  0  0  0  0  0
  -10.1824    5.7347   -0.8368 H   0  0  0  0  0  0  0  0  0  0  0  0
  -10.0986    5.8319    1.2075 H   0  0  0  0  0  0  0  0  0  0  0  0
  -12.0754    4.5525    1.2370 H   0  0  0  0  0  0  0  0  0  0  0  0
  -12.1862    6.4826   -0.8980 H   0  0  0  0  0  0  0  0  0  0  0  0
  -12.7020    6.7421    1.0133 H   0  0  0  0  0  0  0  0  0  0  0  0
  -14.3254    4.9328    1.1343 H   0  0  0  0  0  0  0  0  0  0  0  0
  -13.4105    4.6071   -0.1070 H   0  0  0  0  0  0  0  0  0  0  0  0
  -14.6958    7.3025   -0.4374 H   0  0  0  0  0  0  0  0  0  0  0  0
  -16.7043    5.3841    0.9349 H   0  0  0  0  0  0  0  0  0  0  0  0
  -16.6704    5.3713   -0.7950 H   0  0  0  0  0  0  0  0  0  0  0  0
  -16.5732    8.1983   -0.4220 H   0  0  0  0  0  0  0  0  0  0  0  0
  -16.7696    7.9503    1.1248 H   0  0  0  0  0  0  0  0  0  0  0  0
  -19.0514    6.4081    0.8772 H   0  0  0  0  0  0  0  0  0  0  0  0
  -18.9727    6.4019   -0.8716 H   0  0  0  0  0  0  0  0  0  0  0  0
  -18.3605    9.2047   -0.3620 H   0  0  0  0  0  0  0  0  0  0  0  0
  -18.5299    8.9081    1.1962 H   0  0  0  0  0  0  0  0  0  0  0  0
  -21.0262    7.2876    0.7754 H   0  0  0  0  0  0  0  0  0  0  0  0
  -20.9530    7.5519   -0.9165 H   0  0  0  0  0  0  0  0  0  0  0  0
  -21.1821   10.1224    0.3405 H   0  0  0  0  0  0  0  0  0  0  0  0
  -23.5780    8.2804   -0.3543 H   0  0  0  0  0  0  0  0  0  0  0  0
  -23.1116   11.1091    0.5403 H   0  0  0  0  0  0  0  0  0  0  0  0
  -25.7291    9.8915   -0.2467 H   0  0  0  0  0  0  0  0  0  0  0  0
  -24.5912   12.9466    0.3289 H   0  0  0  0  0  0  0  0  0  0  0  0
  -26.3912   11.7700   -0.3970 H   0  0  0  0  0  0  0  0  0  0  0  0
  -24.4037   11.8633   -1.7440 H   0  0  0  0  0  0  0  0  0  0  0  0
  -22.8618   10.0472   -1.9295 H   0  0  0  0  0  0  0  0  0  0  0  0
  -20.7522    9.1172   -1.7852 H   0  0  0  0  0  0  0  0  0  0  0  0
  -18.8789    7.8009   -1.7344 H   0  0  0  0  0  0  0  0  0  0  0  0
  -16.6806    6.5925   -1.8039 H   0  0  0  0  0  0  0  0  0  0  0  0
  -14.2301    4.5724   -1.3934 H   0  0  0  0  0  0  0  0  0  0  0  0
   -6.0170    2.8649   -0.0951 H   0  0  0  0  0  0  0  0  0  0  0  0
   -3.9854    2.5564    0.3627 H   0  0  0  0  0  0  0  0  0  0  0  0
  1  2  1  0  0  0  0
  1 37  1  0  0  0  0
  1 38  1  0  0  0  0
  1 39  1  0  0  0  0
  2  3  1  0  0  0  0
  2 36  2  0  0  0  0
  3  4  2  0  0  0  0
  3 40  1  0  0  0  0
  4  5  1  0  0  0  0
  4 41  1  0  0  0  0
  5  6  1  0  0  0  0
  5 35  2  0  0  0  0
  6  7  1  0  0  0  0
  6 34  1  0  0  0  0
  7  8  1  0  0  0  0
  7 42  1  0  0  0  0
  7 43  1  0  0  0  0
  8  9  1  0  0  0  0
  8 44  1  0  0  0  0
  8 45  1  0  0  0  0
  9 10  1  0  0  0  0
  9 46  1  0  0  0  0
 10 11  1  0  0  0  0
 10 47  1  0  0  0  0
 10 48  1  0  0  0  0
 11 12  1  0  0  0  0
 11 49  1  0  0  0  0
 12 13  1  0  0  0  0
 12 50  1  0  0  0  0
 12 51  1  0  0  0  0
 13 14  1  0  0  0  0
 13 52  1  0  0  0  0
 13 53  1  0  0  0  0
 14 15  1  0  0  0  0
 14 54  1  0  0  0  0
 15 16  1  0  0  0  0
 15 55  1  0  0  0  0
 15 56  1  0  0  0  0
 16 17  1  0  0  0  0
 16 57  1  0  0  0  0
 16 58  1  0  0  0  0
 17 18  1  0  0  0  0
 17 59  1  0  0  0  0
 18 19  1  0  0  0  0
 18 60  1  0  0  0  0
 18 61  1  0  0  0  0
 19 20  1  0  0  0  0
 19 62  1  0  0  0  0
 19 63  1  0  0  0  0
 20 21  1  0  0  0  0
 20 64  1  0  0  0  0
 20 65  1  0  0  0  0
 21 22  1  0  0  0  0
 21 66  1  0  0  0  0
 21 67  1  0  0  0  0
 22 23  1  0  0  0  0
 22 68  1  0  0  0  0
 22 69  1  0  0  0  0
 23 24  2  3  0  0  0
 23 70  1  0  0  0  0
 24 25  1  0  0  0  0
 24 71  1  0  0  0  0
 25 26  2  3  0  0  0
 25 72  1  0  0  0  0
 26 27  1  0  0  0  0
 26 73  1  0  0  0  0
 27 28  2  3  0  0  0
 27 74  1  0  0  0  0
 28 29  1  0  0  0  0
 28 75  1  0  0  0  0
 29 30  2  3  0  0  0
 29 76  1  0  0  0  0
 30 31  1  0  0  0  0
 30 77  1  0  0  0  0
 31 32  2  3  0  0  0
 31 78  1  0  0  0  0
 32 33  1  0  0  0  0
 32 79  1  0  0  0  0
 33 34  2  3  0  0  0
 33 80  1  0  0  0  0
 34 81  1  0  0  0  0
 35 36  1  0  0  0  0
 35 82  1  0  0  0  0
 36 83  1  0  0  0  0
M  END
$$$$
