
 OpenBabel04232216573D

 88 87  0  0  0  0  0  0  0  0999 V2000
    7.9742   -6.1872   -1.2657 N   0  0  0  0  0  0  0  0  0  0  0  0
    7.4653   -5.9882   -0.0610 C   0  0  0  0  0  0  0  0  0  0  0  0
    8.1911   -6.4406    1.1707 C   0  0  0  0  0  0  0  0  0  0  0  0
    9.6596   -6.3951    0.9855 N   0  0  0  0  0  0  0  0  0  0  0  0
   10.0255   -5.0045    0.6434 N   0  0  0  0  0  0  0  0  0  0  0  0
    9.6874   -4.0552    1.6961 N   0  0  0  0  0  0  0  0  0  0  0  0
   10.1617   -2.5292    1.2576 S   0  0  0  0  0  0  0  0  0  0  0  0
    9.6141   -1.4019    2.8962 S   0  0  0  0  0  0  0  0  0  0  0  0
   10.6684   -2.0847    4.5479 S   0  0  0  0  0  0  0  0  0  0  0  0
   12.7131   -1.8823    4.2183 S   0  0  0  0  0  0  0  0  0  0  0  0
   13.7402   -2.6250    5.9023 S   0  0  0  0  0  0  0  0  0  0  0  0
   15.8144   -2.4603    5.5490 S   0  0  0  0  0  0  0  0  0  0  0  0
   16.8580   -3.1871    7.2338 S   0  0  0  0  0  0  0  0  0  0  0  0
   18.9313   -3.0222    6.8718 S   0  0  0  0  0  0  0  0  0  0  0  0
   19.9760   -3.7459    8.5564 S   0  0  0  0  0  0  0  0  0  0  0  0
   22.0480   -3.5833    8.1927 S   0  0  0  0  0  0  0  0  0  0  0  0
   23.0916   -4.3098    9.8762 S   0  0  0  0  0  0  0  0  0  0  0  0
   25.1632   -4.1444    9.5137 S   0  0  0  0  0  0  0  0  0  0  0  0
   26.2065   -4.8735   11.1959 S   0  0  0  0  0  0  0  0  0  0  0  0
   28.2779   -4.7108   10.8321 S   0  0  0  0  0  0  0  0  0  0  0  0
   29.3212   -5.4371   12.5155 S   0  0  0  0  0  0  0  0  0  0  0  0
   31.3926   -5.2771   12.1506 S   0  0  0  0  0  0  0  0  0  0  0  0
   32.4358   -6.0060   13.8328 S   0  0  0  0  0  0  0  0  0  0  0  0
   34.5072   -5.8432   13.4691 S   0  0  0  0  0  0  0  0  0  0  0  0
   35.5505   -6.5749   15.1501 S   0  0  0  0  0  0  0  0  0  0  0  0
   37.6219   -6.4147   14.7853 S   0  0  0  0  0  0  0  0  0  0  0  0
   38.6651   -7.1437   16.4675 S   0  0  0  0  0  0  0  0  0  0  0  0
   40.7366   -6.9862   16.1014 S   0  0  0  0  0  0  0  0  0  0  0  0
   41.7798   -7.7125   17.7848 S   0  0  0  0  0  0  0  0  0  0  0  0
   43.8512   -7.5576   17.4176 S   0  0  0  0  0  0  0  0  0  0  0  0
   44.8944   -8.2866   19.0998 S   0  0  0  0  0  0  0  0  0  0  0  0
   46.9659   -8.1290   18.7338 S   0  0  0  0  0  0  0  0  0  0  0  0
   48.0091   -8.8606   20.4149 S   0  0  0  0  0  0  0  0  0  0  0  0
   50.0805   -8.7057   20.0478 S   0  0  0  0  0  0  0  0  0  0  0  0
   51.1237   -9.4398   21.7278 S   0  0  0  0  0  0  0  0  0  0  0  0
   53.1951   -9.2823   21.3617 S   0  0  0  0  0  0  0  0  0  0  0  0
   54.2383  -10.0191   23.0406 S   0  0  0  0  0  0  0  0  0  0  0  0
   56.3098   -9.8589   22.6757 S   0  0  0  0  0  0  0  0  0  0  0  0
   57.3530  -10.5983   24.3534 S   0  0  0  0  0  0  0  0  0  0  0  0
   59.4244  -10.4408   23.9873 S   0  0  0  0  0  0  0  0  0  0  0  0
   60.4676  -11.1827   25.6639 S   0  0  0  0  0  0  0  0  0  0  0  0
   62.5391  -11.0224   25.2991 S   0  0  0  0  0  0  0  0  0  0  0  0
   63.5823  -11.7670   26.9745 S   0  0  0  0  0  0  0  0  0  0  0  0
   65.6537  -11.6095   26.6084 S   0  0  0  0  0  0  0  0  0  0  0  0
   66.6969  -12.3513   28.2850 S   0  0  0  0  0  0  0  0  0  0  0  0
   68.7683  -12.1913   27.9201 S   0  0  0  0  0  0  0  0  0  0  0  0
   69.8115  -12.9358   29.5955 S   0  0  0  0  0  0  0  0  0  0  0  0
   71.8830  -12.7730   29.2318 S   0  0  0  0  0  0  0  0  0  0  0  0
   72.9262  -13.5202   30.9061 S   0  0  0  0  0  0  0  0  0  0  0  0
   74.9976  -13.3600   30.5412 S   0  0  0  0  0  0  0  0  0  0  0  0
   76.0408  -14.1045   32.2166 S   0  0  0  0  0  0  0  0  0  0  0  0
   78.1122  -13.9470   31.8506 S   0  0  0  0  0  0  0  0  0  0  0  0
   79.1555  -14.6889   33.5271 S   0  0  0  0  0  0  0  0  0  0  0  0
   81.2269  -14.5339   33.1600 S   0  0  0  0  0  0  0  0  0  0  0  0
   82.2701  -15.2732   34.8377 S   0  0  0  0  0  0  0  0  0  0  0  0
   84.3415  -15.1210   34.4693 S   0  0  0  0  0  0  0  0  0  0  0  0
   85.3847  -15.8576   36.1482 S   0  0  0  0  0  0  0  0  0  0  0  0
   87.4562  -15.7026   35.7810 S   0  0  0  0  0  0  0  0  0  0  0  0
   88.4994  -16.4420   37.4587 S   0  0  0  0  0  0  0  0  0  0  0  0
   90.5708  -16.2845   37.0927 S   0  0  0  0  0  0  0  0  0  0  0  0
   91.6140  -17.0212   38.7715 S   0  0  0  0  0  0  0  0  0  0  0  0
   93.6855  -16.8611   38.4066 S   0  0  0  0  0  0  0  0  0  0  0  0
   94.7287  -17.6004   40.0843 S   0  0  0  0  0  0  0  0  0  0  0  0
   96.8001  -17.4377   39.7205 S   0  0  0  0  0  0  0  0  0  0  0  0
   97.8434  -18.1797   41.3970 S   0  0  0  0  0  0  0  0  0  0  0  0
   99.9148  -18.0143   41.0344 S   0  0  0  0  0  0  0  0  0  0  0  0
  100.9580  -18.7588   42.7098 S   0  0  0  0  0  0  0  0  0  0  0  0
  103.0294  -18.5962   42.3460 S   0  0  0  0  0  0  0  0  0  0  0  0
  104.0726  -19.3432   44.0203 S   0  0  0  0  0  0  0  0  0  0  0  0
  106.1439  -19.1779   43.6576 S   0  0  0  0  0  0  0  0  0  0  0  0
  107.1868  -19.9275   45.3305 S   0  0  0  0  0  0  0  0  0  0  0  0
  109.2575  -19.7645   44.9664 S   0  0  0  0  0  0  0  0  0  0  0  0
  110.2991  -20.5165   46.6376 S   0  0  0  0  0  0  0  0  0  0  0  0
  112.3674  -20.3505   46.2738 S   0  0  0  0  0  0  0  0  0  0  0  0
  113.4032  -21.0995   47.9448 S   0  0  0  0  0  0  0  0  0  0  0  0
  115.4636  -20.9349   47.5770 S   0  0  0  0  0  0  0  0  0  0  0  0
  116.4814  -21.6643   49.2512 S   0  0  0  0  0  0  0  0  0  0  0  0
  118.5206  -21.5389   48.8628 S   0  0  0  0  0  0  0  0  0  0  0  0
  119.5211  -22.2501   50.5381 S   0  0  0  0  0  0  0  0  0  0  0  0
  118.9998  -24.2308   50.7241 S   0  0  0  0  0  0  0  0  0  0  0  0
    7.3247   -5.8149   -1.9546 H   0  0  0  0  0  0  0  0  0  0  0  0
    6.4835   -5.5256    0.0476 H   0  0  0  0  0  0  0  0  0  0  0  0
    7.8743   -7.4599    1.4135 H   0  0  0  0  0  0  0  0  0  0  0  0
    7.8853   -5.7929    2.0008 H   0  0  0  0  0  0  0  0  0  0  0  0
    9.8404   -6.9611    0.1526 H   0  0  0  0  0  0  0  0  0  0  0  0
    9.5048   -4.7851   -0.2172 H   0  0  0  0  0  0  0  0  0  0  0  0
   10.1835   -4.3626    2.5279 H   0  0  0  0  0  0  0  0  0  0  0  0
  119.6929  -24.6062   51.8164 H   0  0  0  0  0  0  0  0  0  0  0  0
  1  2  2  0  0  0  0
  1 81  1  0  0  0  0
  2  3  1  0  0  0  0
  2 82  1  0  0  0  0
  3  4  1  0  0  0  0
  3 83  1  0  0  0  0
  3 84  1  0  0  0  0
  4  5  1  0  0  0  0
  4 85  1  0  0  0  0
  5  6  1  0  0  0  0
  5 86  1  0  0  0  0
  6  7  1  0  0  0  0
  6 87  1  0  0  0  0
  7  8  1  0  0  0  0
  8  9  1  0  0  0  0
  9 10  1  0  0  0  0
 10 11  1  0  0  0  0
 11 12  1  0  0  0  0
 12 13  1  0  0  0  0
 13 14  1  0  0  0  0
 14 15  1  0  0  0  0
 15 16  1  0  0  0  0
 16 17  1  0  0  0  0
 17 18  1  0  0  0  0
 18 19  1  0  0  0  0
 19 20  1  0  0  0  0
 20 21  1  0  0  0  0
 21 22  1  0  0  0  0
 22 23  1  0  0  0  0
 23 24  1  0  0  0  0
 24 25  1  0  0  0  0
 25 26  1  0  0  0  0
 26 27  1  0  0  0  0
 27 28  1  0  0  0  0
 28 29  1  0  0  0  0
 29 30  1  0  0  0  0
 30 31  1  0  0  0  0
 31 32  1  0  0  0  0
 32 33  1  0  0  0  0
 33 34  1  0  0  0  0
 34 35  1  0  0  0  0
 35 36  1  0  0  0  0
 36 37  1  0  0  0  0
 37 38  1  0  0  0  0
 38 39  1  0  0  0  0
 39 40  1  0  0  0  0
 40 41  1  0  0  0  0
 41 42  1  0  0  0  0
 42 43  1  0  0  0  0
 43 44  1  0  0  0  0
 44 45  1  0  0  0  0
 45 46  1  0  0  0  0
 46 47  1  0  0  0  0
 47 48  1  0  0  0  0
 48 49  1  0  0  0  0
 49 50  1  0  0  0  0
 50 51  1  0  0  0  0
 51 52  1  0  0  0  0
 52 53  1  0  0  0  0
 53 54  1  0  0  0  0
 54 55  1  0  0  0  0
 55 56  1  0  0  0  0
 56 57  1  0  0  0  0
 57 58  1  0  0  0  0
 58 59  1  0  0  0  0
 59 60  1  0  0  0  0
 60 61  1  0  0  0  0
 61 62  1  0  0  0  0
 62 63  1  0  0  0  0
 63 64  1  0  0  0  0
 64 65  1  0  0  0  0
 65 66  1  0  0  0  0
 66 67  1  0  0  0  0
 67 68  1  0  0  0  0
 68 69  1  0  0  0  0
 69 70  1  0  0  0  0
 70 71  1  0  0  0  0
 71 72  1  0  0  0  0
 72 73  1  0  0  0  0
 73 74  1  0  0  0  0
 74 75  1  0  0  0  0
 75 76  1  0  0  0  0
 76 77  1  0  0  0  0
 77 78  1  0  0  0  0
 78 79  1  0  0  0  0
 79 80  1  0  0  0  0
 80 88  1  0  0  0  0
M  END
$$$$
