
 OpenBabel04232216563D

234234  0  0  1  0  0  0  0  0999 V2000
    2.3937   -1.4390   -1.8191 C   0  0  0  0  0  0  0  0  0  0  0  0
    3.2833   -0.3222   -2.1028 N   0  0  0  0  0  0  0  0  0  0  0  0
    2.5930    0.9210   -2.4395 C   0  0  0  0  0  0  0  0  0  0  0  0
    3.2326    0.7307   -1.0824 C   0  0  3  0  0  0  0  0  0  0  0  0
    4.4990    1.4400   -0.7324 C   0  0  0  0  0  0  0  0  0  0  0  0
    4.2739    2.8525   -0.7916 O   0  0  0  0  0  0  0  0  0  0  0  0
    5.4607    3.5651   -0.4720 C   0  0  0  0  0  0  0  0  0  0  0  0
    5.1732    5.0539   -0.5598 C   0  0  0  0  0  0  0  0  0  0  0  0
    6.4246    5.8443   -0.2101 C   0  0  0  0  0  0  0  0  0  0  0  0
    6.1669    7.3399   -0.2893 C   0  0  0  0  0  0  0  0  0  0  0  0
    7.4322    8.1051    0.0658 C   0  0  0  0  0  0  0  0  0  0  0  0
    7.1789    9.6001   -0.0125 C   0  0  0  0  0  0  0  0  0  0  0  0
    8.4429   10.3622    0.3427 C   0  0  0  0  0  0  0  0  0  0  0  0
    8.1849   11.8556    0.2631 C   0  0  0  0  0  0  0  0  0  0  0  0
    9.4476   12.6183    0.6182 C   0  0  0  0  0  0  0  0  0  0  0  0
    9.1882   14.1109    0.5379 C   0  0  0  0  0  0  0  0  0  0  0  0
   10.4493   14.8750    0.8945 C   0  0  0  0  0  0  0  0  0  0  0  0
   10.1881   16.3673    0.8139 C   0  0  0  0  0  0  0  0  0  0  0  0
   11.4494   17.1308    1.1705 C   0  0  0  0  0  0  0  0  0  0  0  0
   11.1891   18.6230    1.0901 C   0  0  0  0  0  0  0  0  0  0  0  0
   12.4499   19.3865    1.4467 C   0  0  0  0  0  0  0  0  0  0  0  0
   12.1901   20.8784    1.3663 C   0  0  0  0  0  0  0  0  0  0  0  0
   13.4496   21.6418    1.7244 C   0  0  0  0  0  0  0  0  0  0  0  0
   13.1921   23.1330    1.6426 C   0  0  0  0  0  0  0  0  0  0  0  0
   14.4524   23.8957    1.9992 C   0  0  0  0  0  0  0  0  0  0  0  0
   14.1946   25.3869    1.9197 C   0  0  0  0  0  0  0  0  0  0  0  0
   15.4543   26.1497    2.2769 C   0  0  0  0  0  0  0  0  0  0  0  0
   15.1946   27.6410    2.1978 C   0  0  0  0  0  0  0  0  0  0  0  0
   16.4555   28.4039    2.5542 C   0  0  0  0  0  0  0  0  0  0  0  0
   16.1947   29.8958    2.4759 C   0  0  0  0  0  0  0  0  0  0  0  0
   17.4562   30.6582    2.8325 C   0  0  0  0  0  0  0  0  0  0  0  0
   17.1948   32.1501    2.7559 C   0  0  0  0  0  0  0  0  0  0  0  0
   18.4559   32.9125    3.1146 C   0  0  0  0  0  0  0  0  0  0  0  0
   18.1945   34.4045    3.0381 C   0  0  0  0  0  0  0  0  0  0  0  0
   19.4555   35.1669    3.3968 C   0  0  0  0  0  0  0  0  0  0  0  0
   19.1941   36.6588    3.3203 C   0  0  0  0  0  0  0  0  0  0  0  0
   20.4551   37.4213    3.6789 C   0  0  0  0  0  0  0  0  0  0  0  0
   20.1937   38.9132    3.6024 C   0  0  0  0  0  0  0  0  0  0  0  0
   21.4547   39.6756    3.9611 C   0  0  0  0  0  0  0  0  0  0  0  0
   21.1927   41.1676    3.8865 C   0  0  0  0  0  0  0  0  0  0  0  0
   22.4543   41.9300    4.2433 C   0  0  0  0  0  0  0  0  0  0  0  0
   22.1924   43.4220    4.1687 C   0  0  0  0  0  0  0  0  0  0  0  0
   23.4540   44.1844    4.5254 C   0  0  0  0  0  0  0  0  0  0  0  0
   23.1920   45.6764    4.4508 C   0  0  0  0  0  0  0  0  0  0  0  0
   24.4541   46.4388    4.8056 C   0  0  0  0  0  0  0  0  0  0  0  0
   24.1916   47.9308    4.7330 C   0  0  0  0  0  0  0  0  0  0  0  0
   25.4543   48.6931    5.0858 C   0  0  0  0  0  0  0  0  0  0  0  0
   25.1923   50.1851    5.0112 C   0  0  0  0  0  0  0  0  0  0  0  0
   26.4544   50.9475    5.3660 C   0  0  0  0  0  0  0  0  0  0  0  0
   26.1930   52.4395    5.2895 C   0  0  0  0  0  0  0  0  0  0  0  0
   27.4551   53.2019    5.6443 C   0  0  0  0  0  0  0  0  0  0  0  0
   27.1937   54.6939    5.5678 C   0  0  0  0  0  0  0  0  0  0  0  0
   28.4564   55.4563    5.9207 C   0  0  0  0  0  0  0  0  0  0  0  0
   28.1949   56.9482    5.8441 C   0  0  0  0  0  0  0  0  0  0  0  0
   29.4576   57.7106    6.1969 C   0  0  0  0  0  0  0  0  0  0  0  0
   29.1967   59.2025    6.1185 C   0  0  0  0  0  0  0  0  0  0  0  0
   30.4594   59.9649    6.4713 C   0  0  0  0  0  0  0  0  0  0  0  0
   30.1978   61.4570    6.3948 C   0  0  0  0  0  0  0  0  0  0  0  0
   31.4611   62.2194    6.7456 C   0  0  0  0  0  0  0  0  0  0  0  0
   31.2003   63.7113    6.6673 C   0  0  0  0  0  0  0  0  0  0  0  0
   32.4642   64.4737    7.0162 C   0  0  0  0  0  0  0  0  0  0  0  0
   32.2038   65.9656    6.9358 C   0  0  0  0  0  0  0  0  0  0  0  0
   33.4681   66.7282    7.2829 C   0  0  0  0  0  0  0  0  0  0  0  0
   33.2070   68.2201    7.2043 C   0  0  0  0  0  0  0  0  0  0  0  0
   34.4709   68.9825    7.5532 C   0  0  0  0  0  0  0  0  0  0  0  0
   34.2105   70.4745    7.4729 C   0  0  0  0  0  0  0  0  0  0  0  0
   35.4744   71.2369    7.8219 C   0  0  0  0  0  0  0  0  0  0  0  0
   35.2136   72.7290    7.7434 C   0  0  0  0  0  0  0  0  0  0  0  0
   36.4768   73.4918    8.0943 C   0  0  0  0  0  0  0  0  0  0  0  0
   36.2154   74.9842    8.0178 C   0  0  0  0  0  0  0  0  0  0  0  0
   37.4795   75.7475    8.3669 C   0  0  0  0  0  0  0  0  0  0  0  0
   37.2197   77.2405    8.2887 C   0  0  0  0  0  0  0  0  0  0  0  0
   38.4837   78.0052    8.6377 C   0  0  0  0  0  0  0  0  0  0  0  0
   38.2249   79.4998    8.5577 C   0  0  0  0  0  0  0  0  0  0  0  0
   39.4880   80.2675    8.9085 C   0  0  0  0  0  0  0  0  0  0  0  0
   39.2329   81.7652    8.8296 C   0  0  0  0  0  0  0  0  0  0  0  0
   40.4978   82.5342    9.1809 C   0  0  0  0  0  0  0  0  0  0  0  0
   40.2548   84.0367    9.1074 C   0  0  0  0  0  0  0  0  0  0  0  0
   41.5171   84.8016    9.4581 C   0  0  0  0  0  0  0  0  0  0  0  0
    2.5101   -2.1889   -2.6089 H   0  0  0  0  0  0  0  0  0  0  0  0
    1.3318   -1.1741   -1.7713 H   0  0  0  0  0  0  0  0  0  0  0  0
    2.6725   -1.9172   -0.8733 H   0  0  0  0  0  0  0  0  0  0  0  0
    1.5118    0.9362   -2.4829 H   0  0  0  0  0  0  0  0  0  0  0  0
    3.0849    1.5531   -3.1675 H   0  0  0  0  0  0  0  0  0  0  0  0
    2.5624    0.6262   -0.2393 H   0  0  0  0  0  0  0  0  0  0  0  0
    5.2995    1.1726   -1.4391 H   0  0  0  0  0  0  0  0  0  0  0  0
    4.8261    1.1695    0.2759 H   0  0  0  0  0  0  0  0  0  0  0  0
    6.2593    3.2971   -1.1734 H   0  0  0  0  0  0  0  0  0  0  0  0
    5.7772    3.3051    0.5448 H   0  0  0  0  0  0  0  0  0  0  0  0
    4.3506    5.3160    0.1171 H   0  0  0  0  0  0  0  0  0  0  0  0
    4.8272    5.3076   -1.5696 H   0  0  0  0  0  0  0  0  0  0  0  0
    7.2371    5.5743   -0.8959 H   0  0  0  0  0  0  0  0  0  0  0  0
    6.7570    5.5821    0.8021 H   0  0  0  0  0  0  0  0  0  0  0  0
    5.3593    7.6179    0.3986 H   0  0  0  0  0  0  0  0  0  0  0  0
    5.8409    7.6106   -1.3009 H   0  0  0  0  0  0  0  0  0  0  0  0
    8.2423    7.8291   -0.6207 H   0  0  0  0  0  0  0  0  0  0  0  0
    7.7606    7.8365    1.0778 H   0  0  0  0  0  0  0  0  0  0  0  0
    6.3706    9.8786    0.6747 H   0  0  0  0  0  0  0  0  0  0  0  0
    6.8530    9.8712   -1.0242 H   0  0  0  0  0  0  0  0  0  0  0  0
    9.2523   10.0866   -0.3445 H   0  0  0  0  0  0  0  0  0  0  0  0
    8.7708   10.0936    1.3545 H   0  0  0  0  0  0  0  0  0  0  0  0
    7.3753   12.1324    0.9495 H   0  0  0  0  0  0  0  0  0  0  0  0
    7.8584   12.1252   -0.7491 H   0  0  0  0  0  0  0  0  0  0  0  0
   10.2571   12.3419   -0.0686 H   0  0  0  0  0  0  0  0  0  0  0  0
    9.7744   12.3492    1.6302 H   0  0  0  0  0  0  0  0  0  0  0  0
    8.3778   14.3871    1.2237 H   0  0  0  0  0  0  0  0  0  0  0  0
    8.8623   14.3796   -0.4745 H   0  0  0  0  0  0  0  0  0  0  0  0
   11.2602   14.5997    0.2090 H   0  0  0  0  0  0  0  0  0  0  0  0
   10.7751   14.6069    1.9071 H   0  0  0  0  0  0  0  0  0  0  0  0
    9.3777   16.6427    1.5001 H   0  0  0  0  0  0  0  0  0  0  0  0
    9.8617   16.6362   -0.1983 H   0  0  0  0  0  0  0  0  0  0  0  0
   12.2598   16.8551    0.4845 H   0  0  0  0  0  0  0  0  0  0  0  0
   11.7756   16.8621    2.1828 H   0  0  0  0  0  0  0  0  0  0  0  0
   10.3783   18.8987    1.7759 H   0  0  0  0  0  0  0  0  0  0  0  0
   10.8629   18.8917    0.0776 H   0  0  0  0  0  0  0  0  0  0  0  0
   13.2606   19.1109    0.7609 H   0  0  0  0  0  0  0  0  0  0  0  0
   12.7762   19.1177    2.4590 H   0  0  0  0  0  0  0  0  0  0  0  0
   11.3785   21.1540    2.0520 H   0  0  0  0  0  0  0  0  0  0  0  0
   11.8640   21.1476    0.3540 H   0  0  0  0  0  0  0  0  0  0  0  0
   14.2618   21.3649    1.0383 H   0  0  0  0  0  0  0  0  0  0  0  0
   13.7771   21.3726    2.7361 H   0  0  0  0  0  0  0  0  0  0  0  0
   12.3811   23.4100    2.3282 H   0  0  0  0  0  0  0  0  0  0  0  0
   12.8657   23.4021    0.6302 H   0  0  0  0  0  0  0  0  0  0  0  0
   15.2632   23.6197    1.3127 H   0  0  0  0  0  0  0  0  0  0  0  0
   14.7795   23.6262    3.0118 H   0  0  0  0  0  0  0  0  0  0  0  0
   13.3824   25.6633    2.6045 H   0  0  0  0  0  0  0  0  0  0  0  0
   13.8689   25.6564    0.9063 H   0  0  0  0  0  0  0  0  0  0  0  0
   16.2663   25.8740    1.5919 H   0  0  0  0  0  0  0  0  0  0  0  0
   15.7806   25.8799    3.2906 H   0  0  0  0  0  0  0  0  0  0  0  0
   14.3838   27.9167    2.8838 H   0  0  0  0  0  0  0  0  0  0  0  0
   14.8679   27.9106    1.1853 H   0  0  0  0  0  0  0  0  0  0  0  0
   17.2657   28.1292    1.8674 H   0  0  0  0  0  0  0  0  0  0  0  0
   16.7825   28.1340    3.5661 H   0  0  0  0  0  0  0  0  0  0  0  0
   15.3846   30.1705    3.1628 H   0  0  0  0  0  0  0  0  0  0  0  0
   15.8677   30.1658    1.4640 H   0  0  0  0  0  0  0  0  0  0  0  0
   18.2659   30.3844    2.1447 H   0  0  0  0  0  0  0  0  0  0  0  0
   17.7839   30.3871    3.8437 H   0  0  0  0  0  0  0  0  0  0  0  0
   16.3842   32.4236    3.4426 H   0  0  0  0  0  0  0  0  0  0  0  0
   16.8686   32.4213    1.7443 H   0  0  0  0  0  0  0  0  0  0  0  0
   19.2665   32.6390    2.4280 H   0  0  0  0  0  0  0  0  0  0  0  0
   18.7821   32.6412    4.1263 H   0  0  0  0  0  0  0  0  0  0  0  0
   17.3838   34.6779    3.7248 H   0  0  0  0  0  0  0  0  0  0  0  0
   17.8683   34.6757    2.0265 H   0  0  0  0  0  0  0  0  0  0  0  0
   20.2661   34.8934    2.7101 H   0  0  0  0  0  0  0  0  0  0  0  0
   19.7817   34.8956    4.4085 H   0  0  0  0  0  0  0  0  0  0  0  0
   18.3835   36.9323    4.0069 H   0  0  0  0  0  0  0  0  0  0  0  0
   18.8679   36.9301    2.3086 H   0  0  0  0  0  0  0  0  0  0  0  0
   21.2658   37.1478    2.9923 H   0  0  0  0  0  0  0  0  0  0  0  0
   20.7813   37.1500    4.6906 H   0  0  0  0  0  0  0  0  0  0  0  0
   19.3831   39.1867    4.2891 H   0  0  0  0  0  0  0  0  0  0  0  0
   19.8675   39.1845    2.5908 H   0  0  0  0  0  0  0  0  0  0  0  0
   22.2649   39.4032    3.2735 H   0  0  0  0  0  0  0  0  0  0  0  0
   21.7818   39.4034    4.9722 H   0  0  0  0  0  0  0  0  0  0  0  0
   20.3835   41.4402    4.5751 H   0  0  0  0  0  0  0  0  0  0  0  0
   20.8644   41.4397    2.8758 H   0  0  0  0  0  0  0  0  0  0  0  0
   23.2636   41.6574    3.5546 H   0  0  0  0  0  0  0  0  0  0  0  0
   22.7827   41.6579    5.2540 H   0  0  0  0  0  0  0  0  0  0  0  0
   21.3831   43.6946    4.8573 H   0  0  0  0  0  0  0  0  0  0  0  0
   21.8640   43.6941    3.1579 H   0  0  0  0  0  0  0  0  0  0  0  0
   24.2632   43.9117    3.8368 H   0  0  0  0  0  0  0  0  0  0  0  0
   23.7824   43.9123    5.5361 H   0  0  0  0  0  0  0  0  0  0  0  0
   22.3837   45.9492    5.1405 H   0  0  0  0  0  0  0  0  0  0  0  0
   22.8622   45.9483    3.4405 H   0  0  0  0  0  0  0  0  0  0  0  0
   25.2619   46.1669    4.1150 H   0  0  0  0  0  0  0  0  0  0  0  0
   24.7847   46.1659    5.8154 H   0  0  0  0  0  0  0  0  0  0  0  0
   23.3847   48.2028    5.4246 H   0  0  0  0  0  0  0  0  0  0  0  0
   23.8596   48.2035    3.7236 H   0  0  0  0  0  0  0  0  0  0  0  0
   26.2616   48.4201    4.3951 H   0  0  0  0  0  0  0  0  0  0  0  0
   25.7854   48.4214    6.0958 H   0  0  0  0  0  0  0  0  0  0  0  0
   24.3840   50.4580    5.7009 H   0  0  0  0  0  0  0  0  0  0  0  0
   24.8625   50.4569    4.0009 H   0  0  0  0  0  0  0  0  0  0  0  0
   27.2631   50.6736    4.6772 H   0  0  0  0  0  0  0  0  0  0  0  0
   26.7834   50.6767    6.3769 H   0  0  0  0  0  0  0  0  0  0  0  0
   25.3843   52.7134    5.9783 H   0  0  0  0  0  0  0  0  0  0  0  0
   25.8640   52.7103    4.2786 H   0  0  0  0  0  0  0  0  0  0  0  0
   28.2638   52.9279    4.9555 H   0  0  0  0  0  0  0  0  0  0  0  0
   27.7841   52.9311    6.6552 H   0  0  0  0  0  0  0  0  0  0  0  0
   26.3860   54.9680    6.2576 H   0  0  0  0  0  0  0  0  0  0  0  0
   26.8633   54.9645    4.5573 H   0  0  0  0  0  0  0  0  0  0  0  0
   29.2640   55.1821    5.2308 H   0  0  0  0  0  0  0  0  0  0  0  0
   28.7867   55.1857    6.9311 H   0  0  0  0  0  0  0  0  0  0  0  0
   27.3872   57.2224    6.5339 H   0  0  0  0  0  0  0  0  0  0  0  0
   27.8646   57.2188    4.8336 H   0  0  0  0  0  0  0  0  0  0  0  0
   30.2657   57.4354    5.5080 H   0  0  0  0  0  0  0  0  0  0  0  0
   29.7871   57.4410    7.2080 H   0  0  0  0  0  0  0  0  0  0  0  0
   28.3886   59.4777    6.8074 H   0  0  0  0  0  0  0  0  0  0  0  0
   28.8672   59.4721    5.1074 H   0  0  0  0  0  0  0  0  0  0  0  0
   31.2670   59.6908    5.7815 H   0  0  0  0  0  0  0  0  0  0  0  0
   30.7898   59.6945    7.4818 H   0  0  0  0  0  0  0  0  0  0  0  0
   29.3912   61.7313    7.0858 H   0  0  0  0  0  0  0  0  0  0  0  0
   29.8660   61.7273    5.3847 H   0  0  0  0  0  0  0  0  0  0  0  0
   32.2681   61.9439    6.0555 H   0  0  0  0  0  0  0  0  0  0  0  0
   31.7921   61.9501    7.7563 H   0  0  0  0  0  0  0  0  0  0  0  0
   30.3942   63.9871    7.3583 H   0  0  0  0  0  0  0  0  0  0  0  0
   30.8680   63.9804    5.6570 H   0  0  0  0  0  0  0  0  0  0  0  0
   33.2707   64.1969    6.3260 H   0  0  0  0  0  0  0  0  0  0  0  0
   32.7957   64.2056    8.0270 H   0  0  0  0  0  0  0  0  0  0  0  0
   31.3982   66.2425    7.6270 H   0  0  0  0  0  0  0  0  0  0  0  0
   31.8709   66.2334    5.9254 H   0  0  0  0  0  0  0  0  0  0  0  0
   34.2733   66.4523    6.5907 H   0  0  0  0  0  0  0  0  0  0  0  0
   33.8018   66.4595    8.2927 H   0  0  0  0  0  0  0  0  0  0  0  0
   32.4009   68.4958    7.8954 H   0  0  0  0  0  0  0  0  0  0  0  0
   32.8747   68.4891    6.1940 H   0  0  0  0  0  0  0  0  0  0  0  0
   35.2773   68.7058    6.8630 H   0  0  0  0  0  0  0  0  0  0  0  0
   34.8023   68.7145    8.5640 H   0  0  0  0  0  0  0  0  0  0  0  0
   33.4040   70.7512    8.1631 H   0  0  0  0  0  0  0  0  0  0  0  0
   33.8790   70.7425    6.4621 H   0  0  0  0  0  0  0  0  0  0  0  0
   36.2805   70.9611    7.1308 H   0  0  0  0  0  0  0  0  0  0  0  0
   35.8067   70.9678    8.8321 H   0  0  0  0  0  0  0  0  0  0  0  0
   34.4064   73.0043    8.4334 H   0  0  0  0  0  0  0  0  0  0  0  0
   34.8826   72.9981    6.7328 H   0  0  0  0  0  0  0  0  0  0  0  0
   37.2834   73.2172    7.4034 H   0  0  0  0  0  0  0  0  0  0  0  0
   36.8085   73.2214    9.1044 H   0  0  0  0  0  0  0  0  0  0  0  0
   35.4096   75.2585    8.7097 H   0  0  0  0  0  0  0  0  0  0  0  0
   35.8822   75.2540    7.0081 H   0  0  0  0  0  0  0  0  0  0  0  0
   38.2853   75.4712    7.6757 H   0  0  0  0  0  0  0  0  0  0  0  0
   37.8115   75.4777    9.3770 H   0  0  0  0  0  0  0  0  0  0  0  0
   36.4133   77.5155    8.9796 H   0  0  0  0  0  0  0  0  0  0  0  0
   36.8871   77.5088    7.2784 H   0  0  0  0  0  0  0  0  0  0  0  0
   39.2899   77.7275    7.9476 H   0  0  0  0  0  0  0  0  0  0  0  0
   38.8149   77.7362    9.6483 H   0  0  0  0  0  0  0  0  0  0  0  0
   37.4167   79.7743    9.2466 H   0  0  0  0  0  0  0  0  0  0  0  0
   37.8940   79.7659    7.5464 H   0  0  0  0  0  0  0  0  0  0  0  0
   40.2948   79.9888    8.2195 H   0  0  0  0  0  0  0  0  0  0  0  0
   39.8175   79.9972    9.9194 H   0  0  0  0  0  0  0  0  0  0  0  0
   38.4244   82.0392    9.5183 H   0  0  0  0  0  0  0  0  0  0  0  0
   38.9018   82.0309    7.8182 H   0  0  0  0  0  0  0  0  0  0  0  0
   41.3031   82.2531    8.4910 H   0  0  0  0  0  0  0  0  0  0  0  0
   40.8272   82.2593   10.1907 H   0  0  0  0  0  0  0  0  0  0  0  0
   39.4514   84.3183    9.7982 H   0  0  0  0  0  0  0  0  0  0  0  0
   39.9274   84.3121    8.0979 H   0  0  0  0  0  0  0  0  0  0  0  0
   41.8480   84.5594   10.4728 H   0  0  0  0  0  0  0  0  0  0  0  0
   41.3358   85.8781    9.4034 H   0  0  0  0  0  0  0  0  0  0  0  0
   42.3264   84.5532    8.7644 H   0  0  0  0  0  0  0  0  0  0  0  0
  1  2  1  0  0  0  0
  1 80  1  0  0  0  0
  1 81  1  0  0  0  0
  1 82  1  0  0  0  0
  2  3  1  0  0  0  0
  2  4  1  0  0  0  0
  3  4  1  0  0  0  0
  3 83  1  0  0  0  0
  3 84  1  0  0  0  0
  4  5  1  0  0  0  0
  4 85  1  0  0  0  0
  5  6  1  0  0  0  0
  5 86  1  0  0  0  0
  5 87  1  0  0  0  0
  6  7  1  0  0  0  0
  7  8  1  0  0  0  0
  7 88  1  0  0  0  0
  7 89  1  0  0  0  0
  8  9  1  0  0  0  0
  8 90  1  0  0  0  0
  8 91  1  0  0  0  0
  9 10  1  0  0  0  0
  9 92  1  0  0  0  0
  9 93  1  0  0  0  0
 10 11  1  0  0  0  0
 10 94  1  0  0  0  0
 10 95  1  0  0  0  0
 11 12  1  0  0  0  0
 11 96  1  0  0  0  0
 11 97  1  0  0  0  0
 12 13  1  0  0  0  0
 12 98  1  0  0  0  0
 12 99  1  0  0  0  0
 13 14  1  0  0  0  0
 13100  1  0  0  0  0
 13101  1  0  0  0  0
 14 15  1  0  0  0  0
 14102  1  0  0  0  0
 14103  1  0  0  0  0
 15 16  1  0  0  0  0
 15104  1  0  0  0  0
 15105  1  0  0  0  0
 16 17  1  0  0  0  0
 16106  1  0  0  0  0
 16107  1  0  0  0  0
 17 18  1  0  0  0  0
 17108  1  0  0  0  0
 17109  1  0  0  0  0
 18 19  1  0  0  0  0
 18110  1  0  0  0  0
 18111  1  0  0  0  0
 19 20  1  0  0  0  0
 19112  1  0  0  0  0
 19113  1  0  0  0  0
 20 21  1  0  0  0  0
 20114  1  0  0  0  0
 20115  1  0  0  0  0
 21 22  1  0  0  0  0
 21116  1  0  0  0  0
 21117  1  0  0  0  0
 22 23  1  0  0  0  0
 22118  1  0  0  0  0
 22119  1  0  0  0  0
 23 24  1  0  0  0  0
 23120  1  0  0  0  0
 23121  1  0  0  0  0
 24 25  1  0  0  0  0
 24122  1  0  0  0  0
 24123  1  0  0  0  0
 25 26  1  0  0  0  0
 25124  1  0  0  0  0
 25125  1  0  0  0  0
 26 27  1  0  0  0  0
 26126  1  0  0  0  0
 26127  1  0  0  0  0
 27 28  1  0  0  0  0
 27128  1  0  0  0  0
 27129  1  0  0  0  0
 28 29  1  0  0  0  0
 28130  1  0  0  0  0
 28131  1  0  0  0  0
 29 30  1  0  0  0  0
 29132  1  0  0  0  0
 29133  1  0  0  0  0
 30 31  1  0  0  0  0
 30134  1  0  0  0  0
 30135  1  0  0  0  0
 31 32  1  0  0  0  0
 31136  1  0  0  0  0
 31137  1  0  0  0  0
 32 33  1  0  0  0  0
 32138  1  0  0  0  0
 32139  1  0  0  0  0
 33 34  1  0  0  0  0
 33140  1  0  0  0  0
 33141  1  0  0  0  0
 34 35  1  0  0  0  0
 34142  1  0  0  0  0
 34143  1  0  0  0  0
 35 36  1  0  0  0  0
 35144  1  0  0  0  0
 35145  1  0  0  0  0
 36 37  1  0  0  0  0
 36146  1  0  0  0  0
 36147  1  0  0  0  0
 37 38  1  0  0  0  0
 37148  1  0  0  0  0
 37149  1  0  0  0  0
 38 39  1  0  0  0  0
 38150  1  0  0  0  0
 38151  1  0  0  0  0
 39 40  1  0  0  0  0
 39152  1  0  0  0  0
 39153  1  0  0  0  0
 40 41  1  0  0  0  0
 40154  1  0  0  0  0
 40155  1  0  0  0  0
 41 42  1  0  0  0  0
 41156  1  0  0  0  0
 41157  1  0  0  0  0
 42 43  1  0  0  0  0
 42158  1  0  0  0  0
 42159  1  0  0  0  0
 43 44  1  0  0  0  0
 43160  1  0  0  0  0
 43161  1  0  0  0  0
 44 45  1  0  0  0  0
 44162  1  0  0  0  0
 44163  1  0  0  0  0
 45 46  1  0  0  0  0
 45164  1  0  0  0  0
 45165  1  0  0  0  0
 46 47  1  0  0  0  0
 46166  1  0  0  0  0
 46167  1  0  0  0  0
 47 48  1  0  0  0  0
 47168  1  0  0  0  0
 47169  1  0  0  0  0
 48 49  1  0  0  0  0
 48170  1  0  0  0  0
 48171  1  0  0  0  0
 49 50  1  0  0  0  0
 49172  1  0  0  0  0
 49173  1  0  0  0  0
 50 51  1  0  0  0  0
 50174  1  0  0  0  0
 50175  1  0  0  0  0
 51 52  1  0  0  0  0
 51176  1  0  0  0  0
 51177  1  0  0  0  0
 52 53  1  0  0  0  0
 52178  1  0  0  0  0
 52179  1  0  0  0  0
 53 54  1  0  0  0  0
 53180  1  0  0  0  0
 53181  1  0  0  0  0
 54 55  1  0  0  0  0
 54182  1  0  0  0  0
 54183  1  0  0  0  0
 55 56  1  0  0  0  0
 55184  1  0  0  0  0
 55185  1  0  0  0  0
 56 57  1  0  0  0  0
 56186  1  0  0  0  0
 56187  1  0  0  0  0
 57 58  1  0  0  0  0
 57188  1  0  0  0  0
 57189  1  0  0  0  0
 58 59  1  0  0  0  0
 58190  1  0  0  0  0
 58191  1  0  0  0  0
 59 60  1  0  0  0  0
 59192  1  0  0  0  0
 59193  1  0  0  0  0
 60 61  1  0  0  0  0
 60194  1  0  0  0  0
 60195  1  0  0  0  0
 61 62  1  0  0  0  0
 61196  1  0  0  0  0
 61197  1  0  0  0  0
 62 63  1  0  0  0  0
 62198  1  0  0  0  0
 62199  1  0  0  0  0
 63 64  1  0  0  0  0
 63200  1  0  0  0  0
 63201  1  0  0  0  0
 64 65  1  0  0  0  0
 64202  1  0  0  0  0
 64203  1  0  0  0  0
 65 66  1  0  0  0  0
 65204  1  0  0  0  0
 65205  1  0  0  0  0
 66 67  1  0  0  0  0
 66206  1  0  0  0  0
 66207  1  0  0  0  0
 67 68  1  0  0  0  0
 67208  1  0  0  0  0
 67209  1  0  0  0  0
 68 69  1  0  0  0  0
 68210  1  0  0  0  0
 68211  1  0  0  0  0
 69 70  1  0  0  0  0
 69212  1  0  0  0  0
 69213  1  0  0  0  0
 70 71  1  0  0  0  0
 70214  1  0  0  0  0
 70215  1  0  0  0  0
 71 72  1  0  0  0  0
 71216  1  0  0  0  0
 71217  1  0  0  0  0
 72 73  1  0  0  0  0
 72218  1  0  0  0  0
 72219  1  0  0  0  0
 73 74  1  0  0  0  0
 73220  1  0  0  0  0
 73221  1  0  0  0  0
 74 75  1  0  0  0  0
 74222  1  0  0  0  0
 74223  1  0  0  0  0
 75 76  1  0  0  0  0
 75224  1  0  0  0  0
 75225  1  0  0  0  0
 76 77  1  0  0  0  0
 76226  1  0  0  0  0
 76227  1  0  0  0  0
 77 78  1  0  0  0  0
 77228  1  0  0  0  0
 77229  1  0  0  0  0
 78 79  1  0  0  0  0
 78230  1  0  0  0  0
 78231  1  0  0  0  0
 79232  1  0  0  0  0
 79233  1  0  0  0  0
 79234  1  0  0  0  0
M  END
$$$$
