
 OpenBabel04232216413D

215214  0  0  0  0  0  0  0  0999 V2000
   34.8887   19.9311   28.9834 C   0  0  0  0  0  0  0  0  0  0  0  0
   33.9423   18.9832   29.0440 C   0  0  0  0  0  0  0  0  0  0  0  0
   34.2517   17.5257   28.9200 C   0  0  0  0  0  0  0  0  0  0  0  0
   33.5251   16.9477   27.7893 N   0  0  0  0  0  0  0  0  0  0  0  0
   33.8511   15.5573   27.6951 N   0  0  0  0  0  0  0  0  0  0  0  0
   33.1539   14.9925   26.5983 N   0  0  0  0  0  0  0  0  0  0  0  0
   33.4566   13.6127   26.4863 N   0  0  0  0  0  0  0  0  0  0  0  0
   32.7520   13.0369   25.4009 N   0  0  0  0  0  0  0  0  0  0  0  0
   33.1239   13.6827   24.1845 N   0  0  0  0  0  0  0  0  0  0  0  0
   32.4331   13.1126   23.1183 N   0  0  0  0  0  0  0  0  0  0  0  0
   32.7964   13.7719   21.9307 N   0  0  0  0  0  0  0  0  0  0  0  0
   32.0999   13.2021   20.8551 N   0  0  0  0  0  0  0  0  0  0  0  0
   32.4695   13.8527   19.6456 N   0  0  0  0  0  0  0  0  0  0  0  0
   31.7694   13.2890   18.5412 N   0  0  0  0  0  0  0  0  0  0  0  0
   32.1255   13.9456   17.3341 N   0  0  0  0  0  0  0  0  0  0  0  0
   31.4343   13.3619   16.2477 N   0  0  0  0  0  0  0  0  0  0  0  0
   31.7922   14.0351   15.0431 N   0  0  0  0  0  0  0  0  0  0  0  0
   31.1121   13.4505   13.9400 N   0  0  0  0  0  0  0  0  0  0  0  0
   29.7044   13.5543   14.1356 N   0  0  0  0  0  0  0  0  0  0  0  0
   28.9925   12.9909   13.0635 N   0  0  0  0  0  0  0  0  0  0  0  0
   29.2539   11.5860   12.9475 N   0  0  0  0  0  0  0  0  0  0  0  0
   28.5622   11.0527   11.8657 N   0  0  0  0  0  0  0  0  0  0  0  0
   28.8736    9.6895   11.7602 N   0  0  0  0  0  0  0  0  0  0  0  0
   28.1573    9.0985   10.6595 N   0  0  0  0  0  0  0  0  0  0  0  0
   28.4450    7.7171   10.5432 N   0  0  0  0  0  0  0  0  0  0  0  0
   28.0762    7.0425   11.7504 N   0  0  0  0  0  0  0  0  0  0  0  0
   28.4573    5.6514   11.5928 C   0  0  0  0  0  0  0  0  0  0  0  0
   29.8838    5.5268   11.3767 N   0  0  0  0  0  0  0  0  0  0  0  0
   30.6154    6.0583   12.5094 C   0  0  0  0  0  0  0  0  0  0  0  0
   32.0138    5.9872   12.2510 N   0  0  0  0  0  0  0  0  0  0  0  0
   32.7729    6.5284   13.3855 C   0  0  0  0  0  0  0  0  0  0  0  0
   34.2740    6.4053   13.1460 C   0  0  0  0  0  0  0  0  0  0  0  0
   35.0460    6.9845   14.3270 C   0  0  0  0  0  0  0  0  0  0  0  0
   36.5419    6.8690   14.0871 C   0  0  0  0  0  0  0  0  0  0  0  0
   37.3067    7.4480   15.2635 C   0  0  0  0  0  0  0  0  0  0  0  0
   38.7994    7.3306   15.0195 C   0  0  0  0  0  0  0  0  0  0  0  0
   39.5628    7.9075   16.1961 C   0  0  0  0  0  0  0  0  0  0  0  0
   41.0545    7.7880   15.9523 C   0  0  0  0  0  0  0  0  0  0  0  0
   41.8174    8.3665   17.1279 C   0  0  0  0  0  0  0  0  0  0  0  0
   43.3091    8.2488   16.8831 C   0  0  0  0  0  0  0  0  0  0  0  0
   44.0719    8.8256   18.0595 C   0  0  0  0  0  0  0  0  0  0  0  0
   45.5635    8.7060   17.8156 C   0  0  0  0  0  0  0  0  0  0  0  0
   46.3263    9.2828   18.9921 C   0  0  0  0  0  0  0  0  0  0  0  0
   47.8179    9.1632   18.7482 C   0  0  0  0  0  0  0  0  0  0  0  0
   48.5807    9.7400   19.9247 C   0  0  0  0  0  0  0  0  0  0  0  0
   50.0723    9.6204   19.6808 C   0  0  0  0  0  0  0  0  0  0  0  0
   50.8351   10.1972   20.8572 C   0  0  0  0  0  0  0  0  0  0  0  0
   52.3267   10.0758   20.6142 C   0  0  0  0  0  0  0  0  0  0  0  0
   53.0895   10.6544   21.7898 C   0  0  0  0  0  0  0  0  0  0  0  0
   54.5811   10.5348   21.5459 C   0  0  0  0  0  0  0  0  0  0  0  0
   55.3439   11.1134   22.7214 C   0  0  0  0  0  0  0  0  0  0  0  0
   56.8355   10.9920   22.4784 C   0  0  0  0  0  0  0  0  0  0  0  0
   57.5983   11.5724   23.6531 C   0  0  0  0  0  0  0  0  0  0  0  0
   59.0899   11.4492   23.4110 C   0  0  0  0  0  0  0  0  0  0  0  0
   59.8528   12.0314   24.5848 C   0  0  0  0  0  0  0  0  0  0  0  0
   61.3443   11.9064   24.3435 C   0  0  0  0  0  0  0  0  0  0  0  0
   62.1072   12.4868   25.5182 C   0  0  0  0  0  0  0  0  0  0  0  0
   63.5987   12.3618   25.2770 C   0  0  0  0  0  0  0  0  0  0  0  0
   64.3615   12.9404   26.4526 C   0  0  0  0  0  0  0  0  0  0  0  0
   65.8531   12.8154   26.2113 C   0  0  0  0  0  0  0  0  0  0  0  0
   66.6159   13.3940   27.3869 C   0  0  0  0  0  0  0  0  0  0  0  0
   68.1075   13.2690   27.1457 C   0  0  0  0  0  0  0  0  0  0  0  0
   68.8703   13.8476   28.3213 C   0  0  0  0  0  0  0  0  0  0  0  0
   70.3619   13.7226   28.0800 C   0  0  0  0  0  0  0  0  0  0  0  0
   71.1247   14.3012   29.2556 C   0  0  0  0  0  0  0  0  0  0  0  0
   72.6163   14.1762   29.0144 C   0  0  0  0  0  0  0  0  0  0  0  0
   73.3791   14.7548   30.1900 C   0  0  0  0  0  0  0  0  0  0  0  0
   74.8707   14.6298   29.9487 C   0  0  0  0  0  0  0  0  0  0  0  0
   75.6335   15.2066   31.1252 C   0  0  0  0  0  0  0  0  0  0  0  0
   77.1251   15.0816   30.8840 C   0  0  0  0  0  0  0  0  0  0  0  0
   77.8879   15.6584   32.0604 C   0  0  0  0  0  0  0  0  0  0  0  0
   79.3795   15.5334   31.8192 C   0  0  0  0  0  0  0  0  0  0  0  0
   80.1423   16.1102   32.9957 C   0  0  0  0  0  0  0  0  0  0  0  0
   81.6339   15.9852   32.7545 C   0  0  0  0  0  0  0  0  0  0  0  0
   82.3968   16.5602   33.9319 C   0  0  0  0  0  0  0  0  0  0  0  0
   83.8888   16.4354   33.6911 C   0  0  0  0  0  0  0  0  0  0  0  0
   84.6522   17.0108   34.8691 C   0  0  0  0  0  0  0  0  0  0  0  0
   86.1453   16.8885   34.6289 C   0  0  0  0  0  0  0  0  0  0  0  0
   86.9147   17.4652   35.8053 C   0  0  0  0  0  0  0  0  0  0  0  0
   88.4035   17.3415   35.5621 C   0  0  0  0  0  0  0  0  0  0  0  0
   34.6334   20.9791   29.0854 H   0  0  0  0  0  0  0  0  0  0  0  0
   35.9282   19.6699   28.8121 H   0  0  0  0  0  0  0  0  0  0  0  0
   32.9183   19.3033   29.2394 H   0  0  0  0  0  0  0  0  0  0  0  0
   33.9634   17.0236   29.8522 H   0  0  0  0  0  0  0  0  0  0  0  0
   35.3327   17.3858   28.7884 H   0  0  0  0  0  0  0  0  0  0  0  0
   33.8338   17.4299   26.9387 H   0  0  0  0  0  0  0  0  0  0  0  0
   33.5623   15.0506   28.5326 H   0  0  0  0  0  0  0  0  0  0  0  0
   33.4321   15.4910   25.7527 H   0  0  0  0  0  0  0  0  0  0  0  0
   33.2091   13.1255   27.3614 H   0  0  0  0  0  0  0  0  0  0  0  0
   31.7405   13.1153   25.5688 H   0  0  0  0  0  0  0  0  0  0  0  0
   34.1310   13.5801   24.0393 H   0  0  0  0  0  0  0  0  0  0  0  0
   31.4284   13.2304   23.2311 H   0  0  0  0  0  0  0  0  0  0  0  0
   33.7930   13.6549   21.7733 H   0  0  0  0  0  0  0  0  0  0  0  0
   31.1014   13.3162   21.0076 H   0  0  0  0  0  0  0  0  0  0  0  0
   33.4845   13.7545   19.5533 H   0  0  0  0  0  0  0  0  0  0  0  0
   30.7617   13.3833   18.7099 H   0  0  0  0  0  0  0  0  0  0  0  0
   33.1182   13.8212   17.1275 H   0  0  0  0  0  0  0  0  0  0  0  0
   30.4193   13.4523   16.3273 H   0  0  0  0  0  0  0  0  0  0  0  0
   32.7847   13.9133   14.8689 H   0  0  0  0  0  0  0  0  0  0  0  0
   31.3826   12.4651   13.8789 H   0  0  0  0  0  0  0  0  0  0  0  0
   29.4806   14.5516   14.2586 H   0  0  0  0  0  0  0  0  0  0  0  0
   29.2269   13.4630   12.1865 H   0  0  0  0  0  0  0  0  0  0  0  0
   29.0031   11.1207   13.8259 H   0  0  0  0  0  0  0  0  0  0  0  0
   28.8261   11.5375   11.0045 H   0  0  0  0  0  0  0  0  0  0  0  0
   28.6076    9.1617   12.6066 H   0  0  0  0  0  0  0  0  0  0  0  0
   28.4169    9.5546    9.7871 H   0  0  0  0  0  0  0  0  0  0  0  0
   29.4549    7.5916   10.4018 H   0  0  0  0  0  0  0  0  0  0  0  0
   27.0658    7.0744   11.8987 H   0  0  0  0  0  0  0  0  0  0  0  0
   27.8960    5.2017   10.7603 H   0  0  0  0  0  0  0  0  0  0  0  0
   28.1651    5.0770   12.4840 H   0  0  0  0  0  0  0  0  0  0  0  0
   30.1730    5.9375   10.5055 H   0  0  0  0  0  0  0  0  0  0  0  0
   30.3510    5.5154   13.4196 H   0  0  0  0  0  0  0  0  0  0  0  0
   30.3627    7.1154   12.6431 H   0  0  0  0  0  0  0  0  0  0  0  0
   32.2684    6.4621   11.3963 H   0  0  0  0  0  0  0  0  0  0  0  0
   32.5227    5.9805   14.3044 H   0  0  0  0  0  0  0  0  0  0  0  0
   32.5192    7.5825   13.5377 H   0  0  0  0  0  0  0  0  0  0  0  0
   34.5559    6.9425   12.2327 H   0  0  0  0  0  0  0  0  0  0  0  0
   34.5554    5.3529   13.0132 H   0  0  0  0  0  0  0  0  0  0  0  0
   34.7801    6.4516   15.2484 H   0  0  0  0  0  0  0  0  0  0  0  0
   34.7778    8.0388   14.4691 H   0  0  0  0  0  0  0  0  0  0  0  0
   36.8144    7.4045   13.1696 H   0  0  0  0  0  0  0  0  0  0  0  0
   36.8170    5.8163   13.9495 H   0  0  0  0  0  0  0  0  0  0  0  0
   37.0379    6.9134   16.1828 H   0  0  0  0  0  0  0  0  0  0  0  0
   37.0353    8.5016   15.4029 H   0  0  0  0  0  0  0  0  0  0  0  0
   39.0702    7.8667   14.1018 H   0  0  0  0  0  0  0  0  0  0  0  0
   39.0723    6.2775   14.8795 H   0  0  0  0  0  0  0  0  0  0  0  0
   39.2918    7.3724   17.1144 H   0  0  0  0  0  0  0  0  0  0  0  0
   39.2916    8.9610   16.3354 H   0  0  0  0  0  0  0  0  0  0  0  0
   41.3257    8.3219   15.0334 H   0  0  0  0  0  0  0  0  0  0  0  0
   41.3261    6.7343   15.8144 H   0  0  0  0  0  0  0  0  0  0  0  0
   41.5474    7.8317   18.0466 H   0  0  0  0  0  0  0  0  0  0  0  0
   41.5450    9.4199   17.2667 H   0  0  0  0  0  0  0  0  0  0  0  0
   43.5793    8.7848   15.9652 H   0  0  0  0  0  0  0  0  0  0  0  0
   43.5814    7.1956   16.7429 H   0  0  0  0  0  0  0  0  0  0  0  0
   43.8007    8.2904   18.9777 H   0  0  0  0  0  0  0  0  0  0  0  0
   43.8006    9.8791   18.1988 H   0  0  0  0  0  0  0  0  0  0  0  0
   45.8348    9.2411   16.8975 H   0  0  0  0  0  0  0  0  0  0  0  0
   45.8348    7.6524   17.6764 H   0  0  0  0  0  0  0  0  0  0  0  0
   46.0550    8.7476   19.9103 H   0  0  0  0  0  0  0  0  0  0  0  0
   46.0550   10.3363   19.1314 H   0  0  0  0  0  0  0  0  0  0  0  0
   48.0892    9.6983   17.8300 H   0  0  0  0  0  0  0  0  0  0  0  0
   48.0892    8.1096   18.6089 H   0  0  0  0  0  0  0  0  0  0  0  0
   48.3094    9.2049   20.8428 H   0  0  0  0  0  0  0  0  0  0  0  0
   48.3094   10.7935   20.0640 H   0  0  0  0  0  0  0  0  0  0  0  0
   50.3436   10.1555   18.7626 H   0  0  0  0  0  0  0  0  0  0  0  0
   50.3436    8.5668   19.5415 H   0  0  0  0  0  0  0  0  0  0  0  0
   50.5628    9.6630   21.7757 H   0  0  0  0  0  0  0  0  0  0  0  0
   50.5648   11.2511   20.9956 H   0  0  0  0  0  0  0  0  0  0  0  0
   52.5988   10.6088   19.6950 H   0  0  0  0  0  0  0  0  0  0  0  0
   52.5971    9.0217   20.4772 H   0  0  0  0  0  0  0  0  0  0  0  0
   52.8184   10.1205   22.7087 H   0  0  0  0  0  0  0  0  0  0  0  0
   52.8181   11.7081   21.9276 H   0  0  0  0  0  0  0  0  0  0  0  0
   54.8522   11.0687   20.6270 H   0  0  0  0  0  0  0  0  0  0  0  0
   54.8526    9.4811   21.4080 H   0  0  0  0  0  0  0  0  0  0  0  0
   55.0718   10.5805   23.6406 H   0  0  0  0  0  0  0  0  0  0  0  0
   55.0735   12.1675   22.8584 H   0  0  0  0  0  0  0  0  0  0  0  0
   57.1075   11.5237   21.5585 H   0  0  0  0  0  0  0  0  0  0  0  0
   57.1061    9.9378   22.3429 H   0  0  0  0  0  0  0  0  0  0  0  0
   57.3254   11.0416   24.5733 H   0  0  0  0  0  0  0  0  0  0  0  0
   57.3287   12.6270   23.7877 H   0  0  0  0  0  0  0  0  0  0  0  0
   59.3628   11.9788   22.4900 H   0  0  0  0  0  0  0  0  0  0  0  0
   59.3596   10.3945   23.2778 H   0  0  0  0  0  0  0  0  0  0  0  0
   59.5789   11.5028   25.5059 H   0  0  0  0  0  0  0  0  0  0  0  0
   59.5840   13.0865   24.7171 H   0  0  0  0  0  0  0  0  0  0  0  0
   61.6184   12.4362   23.4231 H   0  0  0  0  0  0  0  0  0  0  0  0
   61.6128   10.8514   24.2099 H   0  0  0  0  0  0  0  0  0  0  0  0
   61.8331   11.9570   26.4386 H   0  0  0  0  0  0  0  0  0  0  0  0
   61.8387   13.5418   25.6520 H   0  0  0  0  0  0  0  0  0  0  0  0
   63.8730   12.8928   24.3573 H   0  0  0  0  0  0  0  0  0  0  0  0
   63.8670   11.3070   25.1419 H   0  0  0  0  0  0  0  0  0  0  0  0
   64.0873   12.4094   27.3722 H   0  0  0  0  0  0  0  0  0  0  0  0
   64.0933   13.9953   26.5877 H   0  0  0  0  0  0  0  0  0  0  0  0
   66.1274   13.3465   25.2917 H   0  0  0  0  0  0  0  0  0  0  0  0
   66.1214   11.7606   26.0762 H   0  0  0  0  0  0  0  0  0  0  0  0
   66.3416   12.8630   28.3066 H   0  0  0  0  0  0  0  0  0  0  0  0
   66.3477   14.4489   27.5221 H   0  0  0  0  0  0  0  0  0  0  0  0
   68.3818   13.8001   26.2261 H   0  0  0  0  0  0  0  0  0  0  0  0
   68.3758   12.2142   27.0105 H   0  0  0  0  0  0  0  0  0  0  0  0
   68.5960   13.3166   29.2409 H   0  0  0  0  0  0  0  0  0  0  0  0
   68.6021   14.9025   28.4564 H   0  0  0  0  0  0  0  0  0  0  0  0
   70.6362   14.2537   27.1604 H   0  0  0  0  0  0  0  0  0  0  0  0
   70.6302   12.6678   27.9449 H   0  0  0  0  0  0  0  0  0  0  0  0
   70.8504   13.7702   30.1752 H   0  0  0  0  0  0  0  0  0  0  0  0
   70.8565   15.3561   29.3908 H   0  0  0  0  0  0  0  0  0  0  0  0
   72.8906   14.7073   28.0947 H   0  0  0  0  0  0  0  0  0  0  0  0
   72.8846   13.1214   28.8792 H   0  0  0  0  0  0  0  0  0  0  0  0
   73.1048   14.2238   31.1096 H   0  0  0  0  0  0  0  0  0  0  0  0
   73.1109   15.8097   30.3251 H   0  0  0  0  0  0  0  0  0  0  0  0
   75.1452   15.1621   29.0298 H   0  0  0  0  0  0  0  0  0  0  0  0
   75.1388   13.5751   29.8122 H   0  0  0  0  0  0  0  0  0  0  0  0
   75.3590   14.6744   32.0441 H   0  0  0  0  0  0  0  0  0  0  0  0
   75.3655   16.2614   31.2618 H   0  0  0  0  0  0  0  0  0  0  0  0
   77.3996   15.6139   29.9651 H   0  0  0  0  0  0  0  0  0  0  0  0
   77.3931   14.0269   30.7474 H   0  0  0  0  0  0  0  0  0  0  0  0
   77.6134   15.1262   32.9793 H   0  0  0  0  0  0  0  0  0  0  0  0
   77.6198   16.7132   32.1970 H   0  0  0  0  0  0  0  0  0  0  0  0
   79.6540   16.0657   30.9003 H   0  0  0  0  0  0  0  0  0  0  0  0
   79.6475   14.4787   31.6826 H   0  0  0  0  0  0  0  0  0  0  0  0
   79.8677   15.5779   33.9145 H   0  0  0  0  0  0  0  0  0  0  0  0
   79.8743   17.1650   33.1323 H   0  0  0  0  0  0  0  0  0  0  0  0
   81.9086   16.5187   31.8363 H   0  0  0  0  0  0  0  0  0  0  0  0
   81.9017   14.9306   32.6165 H   0  0  0  0  0  0  0  0  0  0  0  0
   82.1219   16.0267   34.8499 H   0  0  0  0  0  0  0  0  0  0  0  0
   82.1288   17.6148   34.0698 H   0  0  0  0  0  0  0  0  0  0  0  0
   84.1631   16.9688   32.7727 H   0  0  0  0  0  0  0  0  0  0  0  0
   84.1563   15.3807   33.5528 H   0  0  0  0  0  0  0  0  0  0  0  0
   84.3775   16.4760   35.7863 H   0  0  0  0  0  0  0  0  0  0  0  0
   84.3823   18.0648   35.0073 H   0  0  0  0  0  0  0  0  0  0  0  0
   86.4166   17.4206   33.7087 H   0  0  0  0  0  0  0  0  0  0  0  0
   86.4122   15.8336   34.4895 H   0  0  0  0  0  0  0  0  0  0  0  0
   86.6447   16.9321   36.7242 H   0  0  0  0  0  0  0  0  0  0  0  0
   86.6491   18.5198   35.9430 H   0  0  0  0  0  0  0  0  0  0  0  0
   88.6855   16.2910   35.4394 H   0  0  0  0  0  0  0  0  0  0  0  0
   88.9592   17.7556   36.4066 H   0  0  0  0  0  0  0  0  0  0  0  0
   88.6899   17.8841   34.6555 H   0  0  0  0  0  0  0  0  0  0  0  0
  1  2  2  0  0  0  0
  1 81  1  0  0  0  0
  1 82  1  0  0  0  0
  2  3  1  0  0  0  0
  2 83  1  0  0  0  0
  3  4  1  0  0  0  0
  3 84  1  0  0  0  0
  3 85  1  0  0  0  0
  4  5  1  0  0  0  0
  4 86  1  0  0  0  0
  5  6  1  0  0  0  0
  5 87  1  0  0  0  0
  6  7  1  0  0  0  0
  6 88  1  0  0  0  0
  7  8  1  0  0  0  0
  7 89  1  0  0  0  0
  8  9  1  0  0  0  0
  8 90  1  0  0  0  0
  9 10  1  0  0  0  0
  9 91  1  0  0  0  0
 10 11  1  0  0  0  0
 10 92  1  0  0  0  0
 11 12  1  0  0  0  0
 11 93  1  0  0  0  0
 12 13  1  0  0  0  0
 12 94  1  0  0  0  0
 13 14  1  0  0  0  0
 13 95  1  0  0  0  0
 14 15  1  0  0  0  0
 14 96  1  0  0  0  0
 15 16  1  0  0  0  0
 15 97  1  0  0  0  0
 16 17  1  0  0  0  0
 16 98  1  0  0  0  0
 17 18  1  0  0  0  0
 17 99  1  0  0  0  0
 18 19  1  0  0  0  0
 18100  1  0  0  0  0
 19 20  1  0  0  0  0
 19101  1  0  0  0  0
 20 21  1  0  0  0  0
 20102  1  0  0  0  0
 21 22  1  0  0  0  0
 21103  1  0  0  0  0
 22 23  1  0  0  0  0
 22104  1  0  0  0  0
 23 24  1  0  0  0  0
 23105  1  0  0  0  0
 24 25  1  0  0  0  0
 24106  1  0  0  0  0
 25 26  1  0  0  0  0
 25107  1  0  0  0  0
 26 27  1  0  0  0  0
 26108  1  0  0  0  0
 27 28  1  0  0  0  0
 27109  1  0  0  0  0
 27110  1  0  0  0  0
 28 29  1  0  0  0  0
 28111  1  0  0  0  0
 29 30  1  0  0  0  0
 29112  1  0  0  0  0
 29113  1  0  0  0  0
 30 31  1  0  0  0  0
 30114  1  0  0  0  0
 31 32  1  0  0  0  0
 31115  1  0  0  0  0
 31116  1  0  0  0  0
 32 33  1  0  0  0  0
 32117  1  0  0  0  0
 32118  1  0  0  0  0
 33 34  1  0  0  0  0
 33119  1  0  0  0  0
 33120  1  0  0  0  0
 34 35  1  0  0  0  0
 34121  1  0  0  0  0
 34122  1  0  0  0  0
 35 36  1  0  0  0  0
 35123  1  0  0  0  0
 35124  1  0  0  0  0
 36 37  1  0  0  0  0
 36125  1  0  0  0  0
 36126  1  0  0  0  0
 37 38  1  0  0  0  0
 37127  1  0  0  0  0
 37128  1  0  0  0  0
 38 39  1  0  0  0  0
 38129  1  0  0  0  0
 38130  1  0  0  0  0
 39 40  1  0  0  0  0
 39131  1  0  0  0  0
 39132  1  0  0  0  0
 40 41  1  0  0  0  0
 40133  1  0  0  0  0
 40134  1  0  0  0  0
 41 42  1  0  0  0  0
 41135  1  0  0  0  0
 41136  1  0  0  0  0
 42 43  1  0  0  0  0
 42137  1  0  0  0  0
 42138  1  0  0  0  0
 43 44  1  0  0  0  0
 43139  1  0  0  0  0
 43140  1  0  0  0  0
 44 45  1  0  0  0  0
 44141  1  0  0  0  0
 44142  1  0  0  0  0
 45 46  1  0  0  0  0
 45143  1  0  0  0  0
 45144  1  0  0  0  0
 46 47  1  0  0  0  0
 46145  1  0  0  0  0
 46146  1  0  0  0  0
 47 48  1  0  0  0  0
 47147  1  0  0  0  0
 47148  1  0  0  0  0
 48 49  1  0  0  0  0
 48149  1  0  0  0  0
 48150  1  0  0  0  0
 49 50  1  0  0  0  0
 49151  1  0  0  0  0
 49152  1  0  0  0  0
 50 51  1  0  0  0  0
 50153  1  0  0  0  0
 50154  1  0  0  0  0
 51 52  1  0  0  0  0
 51155  1  0  0  0  0
 51156  1  0  0  0  0
 52 53  1  0  0  0  0
 52157  1  0  0  0  0
 52158  1  0  0  0  0
 53 54  1  0  0  0  0
 53159  1  0  0  0  0
 53160  1  0  0  0  0
 54 55  1  0  0  0  0
 54161  1  0  0  0  0
 54162  1  0  0  0  0
 55 56  1  0  0  0  0
 55163  1  0  0  0  0
 55164  1  0  0  0  0
 56 57  1  0  0  0  0
 56165  1  0  0  0  0
 56166  1  0  0  0  0
 57 58  1  0  0  0  0
 57167  1  0  0  0  0
 57168  1  0  0  0  0
 58 59  1  0  0  0  0
 58169  1  0  0  0  0
 58170  1  0  0  0  0
 59 60  1  0  0  0  0
 59171  1  0  0  0  0
 59172  1  0  0  0  0
 60 61  1  0  0  0  0
 60173  1  0  0  0  0
 60174  1  0  0  0  0
 61 62  1  0  0  0  0
 61175  1  0  0  0  0
 61176  1  0  0  0  0
 62 63  1  0  0  0  0
 62177  1  0  0  0  0
 62178  1  0  0  0  0
 63 64  1  0  0  0  0
 63179  1  0  0  0  0
 63180  1  0  0  0  0
 64 65  1  0  0  0  0
 64181  1  0  0  0  0
 64182  1  0  0  0  0
 65 66  1  0  0  0  0
 65183  1  0  0  0  0
 65184  1  0  0  0  0
 66 67  1  0  0  0  0
 66185  1  0  0  0  0
 66186  1  0  0  0  0
 67 68  1  0  0  0  0
 67187  1  0  0  0  0
 67188  1  0  0  0  0
 68 69  1  0  0  0  0
 68189  1  0  0  0  0
 68190  1  0  0  0  0
 69 70  1  0  0  0  0
 69191  1  0  0  0  0
 69192  1  0  0  0  0
 70 71  1  0  0  0  0
 70193  1  0  0  0  0
 70194  1  0  0  0  0
 71 72  1  0  0  0  0
 71195  1  0  0  0  0
 71196  1  0  0  0  0
 72 73  1  0  0  0  0
 72197  1  0  0  0  0
 72198  1  0  0  0  0
 73 74  1  0  0  0  0
 73199  1  0  0  0  0
 73200  1  0  0  0  0
 74 75  1  0  0  0  0
 74201  1  0  0  0  0
 74202  1  0  0  0  0
 75 76  1  0  0  0  0
 75203  1  0  0  0  0
 75204  1  0  0  0  0
 76 77  1  0  0  0  0
 76205  1  0  0  0  0
 76206  1  0  0  0  0
 77 78  1  0  0  0  0
 77207  1  0  0  0  0
 77208  1  0  0  0  0
 78 79  1  0  0  0  0
 78209  1  0  0  0  0
 78210  1  0  0  0  0
 79 80  1  0  0  0  0
 79211  1  0  0  0  0
 79212  1  0  0  0  0
 80213  1  0  0  0  0
 80214  1  0  0  0  0
 80215  1  0  0  0  0
M  END
$$$$
