
 OpenBabel04232216493D

 79 80  0  0  1  0  0  0  0  0999 V2000
    0.7724   -0.2140    0.4179 C   0  0  0  0  0  0  0  0  0  0  0  0
    2.2725   -0.1796    0.1037 C   0  0  3  0  0  0  0  0  0  0  0  0
    2.8523   -1.5859   -0.2007 C   0  0  0  0  0  0  0  0  0  0  0  0
    1.9936   -2.5495   -1.0352 C   0  0  0  0  0  0  0  0  0  0  0  0
    2.1020   -2.3499   -2.5467 C   0  0  0  0  0  0  0  0  0  0  0  0
    0.9585   -3.0641   -3.2866 C   0  0  0  0  0  0  0  0  0  0  0  0
    0.5675   -2.3521   -4.5868 C   0  0  0  0  0  0  0  0  0  0  0  0
   -0.0742   -0.9765   -4.3285 C   0  0  0  0  0  0  0  0  0  0  0  0
    0.5496    0.1119   -5.2047 C   0  0  0  0  0  0  0  0  0  0  0  0
    0.1367    1.5287   -4.7600 C   0  0  0  0  0  0  0  0  0  0  0  0
    1.3186    2.2815   -4.1243 C   0  0  0  0  0  0  0  0  0  0  0  0
    1.0212    2.9071   -2.7594 C   0  0  0  0  0  0  0  0  0  0  0  0
    2.2412    3.2580   -1.8367 C   0  0  3  0  0  0  0  0  0  0  0  0
    3.6380    3.3940   -2.4924 C   0  0  0  0  0  0  0  0  0  0  0  0
    3.8997    2.9018   -3.5890 O   0  0  0  0  0  0  0  0  0  0  0  0
    4.7291    4.1373   -1.7790 C   0  0  0  0  0  0  0  0  0  0  0  0
    5.8144    4.6967   -2.3558 C   0  0  0  0  0  0  0  0  0  0  0  0
    6.1464    4.8182   -3.8201 C   0  0  0  0  0  0  0  0  0  0  0  0
    7.6364    4.8977   -4.1920 C   0  0  0  0  0  0  0  0  0  0  0  0
    7.7812    5.1231   -5.7039 C   0  0  0  0  0  0  0  0  0  0  0  0
    9.2419    5.2202   -6.1423 C   0  0  0  0  0  0  0  0  0  0  0  0
    9.3498    5.4710   -7.6499 C   0  0  0  0  0  0  0  0  0  0  0  0
   10.8092    5.5603   -8.0943 C   0  0  0  0  0  0  0  0  0  0  0  0
   10.9308    5.8064   -9.5882 C   0  0  0  0  0  0  0  0  0  0  0  0
    6.7362    5.2720   -1.3165 C   0  0  0  0  0  0  0  0  0  0  0  0
    5.8677    5.3109   -0.0677 C   0  0  0  0  0  0  0  0  0  0  0  0
    4.7642    4.2860   -0.2931 C   0  0  0  0  0  0  0  0  0  0  0  0
    2.2414    2.2792   -0.6320 C   0  0  0  0  0  0  0  0  0  0  0  0
    2.5953    0.8341   -1.0106 C   0  0  0  0  0  0  0  0  0  0  0  0
    0.5266   -1.0485    1.0825 H   0  0  0  0  0  0  0  0  0  0  0  0
    0.1760   -0.3066   -0.4960 H   0  0  0  0  0  0  0  0  0  0  0  0
    0.4505    0.6978    0.9303 H   0  0  0  0  0  0  0  0  0  0  0  0
    2.7869    0.1711    1.0096 H   0  0  0  0  0  0  0  0  0  0  0  0
    3.0037   -2.0724    0.7721 H   0  0  0  0  0  0  0  0  0  0  0  0
    3.8516   -1.4955   -0.6450 H   0  0  0  0  0  0  0  0  0  0  0  0
    0.9485   -2.4943   -0.7168 H   0  0  0  0  0  0  0  0  0  0  0  0
    2.3135   -3.5753   -0.8110 H   0  0  0  0  0  0  0  0  0  0  0  0
    3.0631   -2.7448   -2.9003 H   0  0  0  0  0  0  0  0  0  0  0  0
    2.1105   -1.2900   -2.7925 H   0  0  0  0  0  0  0  0  0  0  0  0
    0.0652   -3.1392   -2.6548 H   0  0  0  0  0  0  0  0  0  0  0  0
    1.2689   -4.0896   -3.5135 H   0  0  0  0  0  0  0  0  0  0  0  0
   -0.1549   -2.9797   -5.1234 H   0  0  0  0  0  0  0  0  0  0  0  0
    1.4490   -2.2722   -5.2336 H   0  0  0  0  0  0  0  0  0  0  0  0
    0.0039   -0.6950   -3.2722 H   0  0  0  0  0  0  0  0  0  0  0  0
   -1.1482   -1.0369   -4.5470 H   0  0  0  0  0  0  0  0  0  0  0  0
    0.2399   -0.0501   -6.2431 H   0  0  0  0  0  0  0  0  0  0  0  0
    1.6412    0.0030   -5.1960 H   0  0  0  0  0  0  0  0  0  0  0  0
   -0.7302    1.4944   -4.0912 H   0  0  0  0  0  0  0  0  0  0  0  0
   -0.1834    2.0850   -5.6499 H   0  0  0  0  0  0  0  0  0  0  0  0
    1.6296    3.0797   -4.8104 H   0  0  0  0  0  0  0  0  0  0  0  0
    2.1510    1.5858   -4.0212 H   0  0  0  0  0  0  0  0  0  0  0  0
    0.3456    2.2341   -2.2136 H   0  0  0  0  0  0  0  0  0  0  0  0
    0.4298    3.8177   -2.9165 H   0  0  0  0  0  0  0  0  0  0  0  0
    2.0125    4.2544   -1.4315 H   0  0  0  0  0  0  0  0  0  0  0  0
    5.6512    5.7260   -4.1859 H   0  0  0  0  0  0  0  0  0  0  0  0
    5.7303    3.9804   -4.3846 H   0  0  0  0  0  0  0  0  0  0  0  0
    8.1472    3.9717   -3.9007 H   0  0  0  0  0  0  0  0  0  0  0  0
    8.1247    5.7220   -3.6598 H   0  0  0  0  0  0  0  0  0  0  0  0
    7.2589    6.0471   -5.9816 H   0  0  0  0  0  0  0  0  0  0  0  0
    7.2922    4.3034   -6.2441 H   0  0  0  0  0  0  0  0  0  0  0  0
    9.7651    4.2925   -5.8808 H   0  0  0  0  0  0  0  0  0  0  0  0
    9.7359    6.0352   -5.6000 H   0  0  0  0  0  0  0  0  0  0  0  0
    8.8308    6.4034   -7.9071 H   0  0  0  0  0  0  0  0  0  0  0  0
    8.8476    4.6629   -8.1963 H   0  0  0  0  0  0  0  0  0  0  0  0
   11.3307    4.6304   -7.8384 H   0  0  0  0  0  0  0  0  0  0  0  0
   11.3111    6.3718   -7.5544 H   0  0  0  0  0  0  0  0  0  0  0  0
   10.4721    4.9925  -10.1613 H   0  0  0  0  0  0  0  0  0  0  0  0
   11.9875    5.8629   -9.8744 H   0  0  0  0  0  0  0  0  0  0  0  0
   10.4528    6.7477   -9.8761 H   0  0  0  0  0  0  0  0  0  0  0  0
    7.0789    6.2782   -1.5710 H   0  0  0  0  0  0  0  0  0  0  0  0
    7.6031    4.6190   -1.1730 H   0  0  0  0  0  0  0  0  0  0  0  0
    5.4268    6.3077    0.0501 H   0  0  0  0  0  0  0  0  0  0  0  0
    6.4374    5.1012    0.8442 H   0  0  0  0  0  0  0  0  0  0  0  0
    3.8214    4.6629    0.1187 H   0  0  0  0  0  0  0  0  0  0  0  0
    5.0194    3.3327    0.1838 H   0  0  0  0  0  0  0  0  0  0  0  0
    1.2518    2.3342   -0.1769 H   0  0  0  0  0  0  0  0  0  0  0  0
    2.9283    2.6050    0.1524 H   0  0  0  0  0  0  0  0  0  0  0  0
    3.6638    0.7888   -1.2453 H   0  0  0  0  0  0  0  0  0  0  0  0
    2.0548    0.5579   -1.9100 H   0  0  0  0  0  0  0  0  0  0  0  0
  1  2  1  0  0  0  0
  1 30  1  0  0  0  0
  1 31  1  0  0  0  0
  1 32  1  0  0  0  0
  2  3  1  0  0  0  0
  2 29  1  0  0  0  0
  2 33  1  0  0  0  0
  3  4  1  0  0  0  0
  3 34  1  0  0  0  0
  3 35  1  0  0  0  0
  4  5  1  0  0  0  0
  4 36  1  0  0  0  0
  4 37  1  0  0  0  0
  5  6  1  0  0  0  0
  5 38  1  0  0  0  0
  5 39  1  0  0  0  0
  6  7  1  0  0  0  0
  6 40  1  0  0  0  0
  6 41  1  0  0  0  0
  7  8  1  0  0  0  0
  7 42  1  0  0  0  0
  7 43  1  0  0  0  0
  8  9  1  0  0  0  0
  8 44  1  0  0  0  0
  8 45  1  0  0  0  0
  9 10  1  0  0  0  0
  9 46  1  0  0  0  0
  9 47  1  0  0  0  0
 10 11  1  0  0  0  0
 10 48  1  0  0  0  0
 10 49  1  0  0  0  0
 11 12  1  0  0  0  0
 11 50  1  0  0  0  0
 11 51  1  0  0  0  0
 12 13  1  0  0  0  0
 12 52  1  0  0  0  0
 12 53  1  0  0  0  0
 13 14  1  0  0  0  0
 13 28  1  0  0  0  0
 13 54  1  0  0  0  0
 14 15  2  0  0  0  0
 14 16  1  0  0  0  0
 16 17  2  0  0  0  0
 16 27  1  0  0  0  0
 17 18  1  0  0  0  0
 17 25  1  0  0  0  0
 18 19  1  0  0  0  0
 18 55  1  0  0  0  0
 18 56  1  0  0  0  0
 19 20  1  0  0  0  0
 19 57  1  0  0  0  0
 19 58  1  0  0  0  0
 20 21  1  0  0  0  0
 20 59  1  0  0  0  0
 20 60  1  0  0  0  0
 21 22  1  0  0  0  0
 21 61  1  0  0  0  0
 21 62  1  0  0  0  0
 22 23  1  0  0  0  0
 22 63  1  0  0  0  0
 22 64  1  0  0  0  0
 23 24  1  0  0  0  0
 23 65  1  0  0  0  0
 23 66  1  0  0  0  0
 24 67  1  0  0  0  0
 24 68  1  0  0  0  0
 24 69  1  0  0  0  0
 25 26  1  0  0  0  0
 25 70  1  0  0  0  0
 25 71  1  0  0  0  0
 26 27  1  0  0  0  0
 26 72  1  0  0  0  0
 26 73  1  0  0  0  0
 27 74  1  0  0  0  0
 27 75  1  0  0  0  0
 28 29  1  0  0  0  0
 28 76  1  0  0  0  0
 28 77  1  0  0  0  0
 29 78  1  0  0  0  0
 29 79  1  0  0  0  0
M  END
$$$$
