
 OpenBabel04232216593D

 52 53  0  0  0  0  0  0  0  0999 V2000
    7.1734   -2.1612   -0.1635 O   0  0  0  0  0  0  0  0  0  0  0  0
    7.6148   -2.2861    0.8677 C   0  0  0  0  0  0  0  0  0  0  0  0
    9.3474   -2.3276    1.7569 C   0  0  0  0  0  0  0  0  0  0  0  0
   11.2591   -2.8965    2.3635 C   0  0  0  0  0  0  0  0  0  0  0  0
   13.4492   -3.2200    2.6618 C   0  0  0  0  0  0  0  0  0  0  0  0
   15.5593   -3.1132    3.1621 C   0  0  0  0  0  0  0  0  0  0  0  0
   17.1063   -4.2021    3.4621 C   0  0  0  0  0  0  0  0  0  0  0  0
   19.0647   -4.2312    4.0181 C   0  0  0  0  0  0  0  0  0  0  0  0
   20.9737   -3.8495    4.7946 C   0  0  0  0  0  0  0  0  0  0  0  0
   21.6125   -2.5732    6.1662 C   0  0  0  0  0  0  0  0  0  0  0  0
   20.3868   -1.1052    5.9891 C   0  0  0  0  0  0  0  0  0  0  0  0
   18.7429   -1.3388    5.9568 C   0  0  0  0  0  0  0  0  0  0  0  0
   19.4359   -2.2948    7.1624 C   0  0  0  0  0  0  0  0  0  0  0  0
   19.7172   -3.4648    7.8577 C   0  0  0  0  0  0  0  0  0  0  0  0
   19.5071   -4.6164    7.0094 C   0  0  0  0  0  0  0  0  0  0  0  0
   18.2404   -4.9067    7.0465 C   0  0  0  0  0  0  0  0  0  0  0  0
   17.5274   -3.8884    6.3503 C   0  0  0  0  0  0  0  0  0  0  0  0
   16.4992   -3.5278    7.0060 C   0  0  0  0  0  0  0  0  0  0  0  0
   16.5026   -1.9398    3.5984 N   0  0  0  0  0  0  0  0  0  0  0  0
   16.9888   -1.5040    4.9630 C   0  0  0  0  0  0  0  0  0  0  0  0
   15.2292   -1.0780    5.3776 C   0  0  0  0  0  0  0  0  0  0  0  0
   14.1006   -1.6206    4.7227 C   0  0  0  0  0  0  0  0  0  0  0  0
   13.0799   -2.7486    5.2270 C   0  0  0  0  0  0  0  0  0  0  0  0
   13.2206   -3.8526    5.8744 N   0  0  0  0  0  0  0  0  0  0  0  0
   14.2640   -3.7925    6.6224 C   0  0  0  0  0  0  0  0  0  0  0  0
   15.4639   -3.7366    6.1065 C   0  0  0  0  0  0  0  0  0  0  0  0
    6.7187   -2.2023    1.6979 H   0  0  0  0  0  0  0  0  0  0  0  0
    8.8464   -3.1309    2.3089 H   0  0  0  0  0  0  0  0  0  0  0  0
    9.0687   -1.4195    2.3323 H   0  0  0  0  0  0  0  0  0  0  0  0
   10.9750   -3.9054    2.0691 H   0  0  0  0  0  0  0  0  0  0  0  0
   10.8879   -2.7487    3.4245 H   0  0  0  0  0  0  0  0  0  0  0  0
   13.4622   -3.6514    1.5426 H   0  0  0  0  0  0  0  0  0  0  0  0
   13.1391   -4.0588    3.1792 H   0  0  0  0  0  0  0  0  0  0  0  0
   16.8597   -5.0690    3.7835 H   0  0  0  0  0  0  0  0  0  0  0  0
   19.1836   -5.0250    4.7708 H   0  0  0  0  0  0  0  0  0  0  0  0
   19.0895   -5.2835    3.5999 H   0  0  0  0  0  0  0  0  0  0  0  0
   21.3046   -4.7149    5.1618 H   0  0  0  0  0  0  0  0  0  0  0  0
   21.8899   -3.6518    4.1162 H   0  0  0  0  0  0  0  0  0  0  0  0
   22.5119   -2.4249    6.9329 H   0  0  0  0  0  0  0  0  0  0  0  0
   21.7491   -3.5525    6.8629 H   0  0  0  0  0  0  0  0  0  0  0  0
   20.9925   -0.6451    5.2476 H   0  0  0  0  0  0  0  0  0  0  0  0
   19.6994   -2.7167    6.1716 H   0  0  0  0  0  0  0  0  0  0  0  0
   20.6264   -3.9682    8.3116 H   0  0  0  0  0  0  0  0  0  0  0  0
   19.6075   -4.2245    6.0369 H   0  0  0  0  0  0  0  0  0  0  0  0
   17.9488   -5.0169    8.0610 H   0  0  0  0  0  0  0  0  0  0  0  0
   17.8451   -3.3527    5.4462 H   0  0  0  0  0  0  0  0  0  0  0  0
   16.3232   -3.9846    7.9787 H   0  0  0  0  0  0  0  0  0  0  0  0
   14.9456   -0.9403    6.4035 H   0  0  0  0  0  0  0  0  0  0  0  0
   13.3721   -1.0227    4.1406 H   0  0  0  0  0  0  0  0  0  0  0  0
   12.0440   -2.6693    4.8898 H   0  0  0  0  0  0  0  0  0  0  0  0
   14.2099   -3.4086    7.6042 H   0  0  0  0  0  0  0  0  0  0  0  0
   15.6497   -3.8046    5.0914 H   0  0  0  0  0  0  0  0  0  0  0  0
  1  2  2  0  0  0  0
  2  3  1  0  0  0  0
  2 27  1  0  0  0  0
  3  4  1  0  0  0  0
  3 28  1  0  0  0  0
  3 29  1  0  0  0  0
  4  5  1  0  0  0  0
  4 30  1  0  0  0  0
  4 31  1  0  0  0  0
  5  6  1  0  0  0  0
  5 32  1  0  0  0  0
  5 33  1  0  0  0  0
  6  7  2  3  0  0  0
  6 19  1  0  0  0  0
  7  8  1  0  0  0  0
  7 34  1  0  0  0  0
  8  9  1  0  0  0  0
  8 35  1  0  0  0  0
  8 36  1  0  0  0  0
  9 10  1  0  0  0  0
  9 37  1  0  0  0  0
  9 38  1  0  0  0  0
 10 11  1  0  0  0  0
 10 39  1  0  0  0  0
 10 40  1  0  0  0  0
 11 12  2  3  0  0  0
 11 41  1  0  0  0  0
 12 13  1  0  0  0  0
 12 20  1  0  0  0  0
 13 14  2  0  0  0  0
 13 42  1  0  0  0  0
 14 15  1  0  0  0  0
 14 43  1  0  0  0  0
 15 16  2  0  0  0  0
 15 44  1  0  0  0  0
 16 17  1  0  0  0  0
 16 45  1  0  0  0  0
 17 18  2  0  0  0  0
 17 46  1  0  0  0  0
 18 26  1  0  0  0  0
 18 47  1  0  0  0  0
 19 20  2  3  0  0  0
 20 21  1  0  0  0  0
 21 22  2  0  0  0  0
 21 48  1  0  0  0  0
 22 23  1  0  0  0  0
 22 49  1  0  0  0  0
 23 24  2  0  0  0  0
 23 50  1  0  0  0  0
 24 25  1  0  0  0  0
 25 26  2  0  0  0  0
 25 51  1  0  0  0  0
 26 52  1  0  0  0  0
M  END
$$$$
