
 OpenBabel04232216513D

 49 50  0  0  1  0  0  0  0  0999 V2000
    3.1986    3.7599   -1.3393 C   0  0  0  0  0  0  0  0  0  0  0  0
    3.9363    2.9505   -0.2665 C   0  0  0  0  0  0  0  0  0  0  0  0
    5.4777    3.0748   -0.3323 C   0  0  0  0  0  0  0  0  0  0  0  0
    6.4935    3.0905    0.9138 C   0  0  3  0  0  0  0  0  0  0  0  0
    5.8688    3.2202    2.3552 C   0  0  3  0  0  0  0  0  0  0  0  0
    4.6670    2.3155    2.8126 C   0  0  0  0  0  0  0  0  0  0  0  0
    3.9974    2.7568    4.1384 C   0  0  0  0  0  0  0  0  0  0  0  0
    3.2046    4.0526    4.0304 C   0  0  0  0  0  0  0  0  0  0  0  0
    6.9667    2.7161    3.2782 C   0  0  0  0  0  3  0  0  0  0  0  0
    7.4633    3.5168    4.4607 C   0  0  0  0  0  0  0  0  0  0  0  0
    8.6299    2.7152    5.0759 C   0  0  0  0  0  0  0  0  0  0  0  0
    8.6992    1.5019    5.1187 O   0  0  0  0  0  0  0  0  0  0  0  0
    9.6750    3.5282    5.4862 N   0  0  0  0  0  0  0  0  0  0  0  0
   10.6288    3.9198    4.5624 C   0  0  0  0  0  0  0  0  0  0  0  0
   10.7507    3.2833    3.3960 C   0  0  0  0  0  0  0  0  0  0  0  0
   10.8235    4.0916    2.1555 C   0  0  0  0  0  0  0  0  0  0  0  0
    9.7478    4.9098    2.0500 C   0  0  0  0  0  0  0  0  0  0  0  0
   10.0847    6.2412    2.7490 C   0  0  0  0  0  0  0  0  0  0  0  0
    9.7352    7.3246    2.2874 O   0  0  0  0  0  0  0  0  0  0  0  0
   10.9680    6.2571    4.0022 C   0  0  0  0  0  0  0  0  0  0  0  0
   11.1942    5.1983    4.7843 C   0  0  0  0  0  0  0  0  0  0  0  0
    8.8827    4.7318    0.8675 C   0  0  0  0  0  0  0  0  0  0  0  0
    7.7658    4.0204    0.5010 C   0  0  0  0  0  0  0  0  0  0  0  0
    2.1576    3.4212   -1.4262 H   0  0  0  0  0  0  0  0  0  0  0  0
    3.6618    3.6787   -2.3261 H   0  0  0  0  0  0  0  0  0  0  0  0
    3.1652    4.8170   -1.0520 H   0  0  0  0  0  0  0  0  0  0  0  0
    3.6562    1.8959   -0.4075 H   0  0  0  0  0  0  0  0  0  0  0  0
    3.5105    3.3051    0.6666 H   0  0  0  0  0  0  0  0  0  0  0  0
    5.7110    3.9079   -1.0024 H   0  0  0  0  0  0  0  0  0  0  0  0
    5.7840    2.1811   -0.9016 H   0  0  0  0  0  0  0  0  0  0  0  0
    6.9219    2.0750    0.8783 H   0  0  0  0  0  0  0  0  0  0  0  0
    5.6423    4.2692    2.5467 H   0  0  0  0  0  0  0  0  0  0  0  0
    5.0068    1.2791    2.9517 H   0  0  0  0  0  0  0  0  0  0  0  0
    3.8713    2.2220    2.0877 H   0  0  0  0  0  0  0  0  0  0  0  0
    4.7312    2.8511    4.9426 H   0  0  0  0  0  0  0  0  0  0  0  0
    3.3083    1.9666    4.4677 H   0  0  0  0  0  0  0  0  0  0  0  0
    3.8305    4.8883    3.7079 H   0  0  0  0  0  0  0  0  0  0  0  0
    2.7780    4.3173    5.0045 H   0  0  0  0  0  0  0  0  0  0  0  0
    2.3765    3.9449    3.3229 H   0  0  0  0  0  0  0  0  0  0  0  0
    7.2804    1.6841    3.1612 H   0  0  0  0  0  0  0  0  0  0  0  0
    6.6647    3.6322    5.2720 H   0  0  0  0  0  0  0  0  0  0  0  0
    7.7890    4.4856    4.0952 H   0  0  0  0  0  0  0  0  0  0  0  0
    9.3832    4.3190    6.0517 H   0  0  0  0  0  0  0  0  0  0  0  0
   10.2981    2.3252    3.1734 H   0  0  0  0  0  0  0  0  0  0  0  0
   11.1499    3.4800    1.3138 H   0  0  0  0  0  0  0  0  0  0  0  0
   11.4148    7.2324    4.2507 H   0  0  0  0  0  0  0  0  0  0  0  0
   11.8645    5.3026    5.6705 H   0  0  0  0  0  0  0  0  0  0  0  0
    9.4251    5.1741    0.0134 H   0  0  0  0  0  0  0  0  0  0  0  0
    7.7524    4.0151   -0.5979 H   0  0  0  0  0  0  0  0  0  0  0  0
  1  2  1  0  0  0  0
  1 24  1  0  0  0  0
  1 25  1  0  0  0  0
  1 26  1  0  0  0  0
  2  3  1  0  0  0  0
  2 27  1  0  0  0  0
  2 28  1  0  0  0  0
  3  4  1  0  0  0  0
  3 29  1  0  0  0  0
  3 30  1  0  0  0  0
  4  5  1  0  0  0  0
  4 23  1  0  0  0  0
  4 31  1  0  0  0  0
  5  6  1  0  0  0  0
  5  9  1  0  0  0  0
  5 32  1  0  0  0  0
  6  7  1  0  0  0  0
  6 33  1  0  0  0  0
  6 34  1  0  0  0  0
  7  8  1  0  0  0  0
  7 35  1  0  0  0  0
  7 36  1  0  0  0  0
  8 37  1  0  0  0  0
  8 38  1  0  0  0  0
  8 39  1  0  0  0  0
  9 10  1  0  0  0  0
  9 40  1  0  0  0  0
 10 11  1  0  0  0  0
 10 41  1  0  0  0  0
 10 42  1  0  0  0  0
 11 12  2  0  0  0  0
 11 13  1  0  0  0  0
 13 14  1  0  0  0  0
 13 43  1  0  0  0  0
 14 15  2  0  0  0  0
 14 21  1  0  0  0  0
 15 16  1  0  0  0  0
 15 44  1  0  0  0  0
 16 17  2  0  0  0  0
 16 45  1  0  0  0  0
 17 18  1  0  0  0  0
 17 22  1  0  0  0  0
 18 19  2  0  0  0  0
 18 20  1  0  0  0  0
 20 21  2  0  0  0  0
 20 46  1  0  0  0  0
 21 47  1  0  0  0  0
 22 23  2  3  0  0  0
 22 48  1  0  0  0  0
 23 49  1  0  0  0  0
M  END
$$$$
