
 OpenBabel04232216503D

 54 56  0  0  0  0  0  0  0  0999 V2000
    2.2690    2.2787    2.1066 C   0  0  0  0  0  0  0  0  0  0  0  0
    3.5121    3.0293    1.5002 C   0  0  0  0  0  0  0  0  0  0  0  0
    3.6964    2.4701    0.3399 N   0  0  0  0  0  0  0  0  0  0  0  0
    4.9143    2.4017   -0.1948 C   0  0  0  0  0  0  0  0  0  0  0  0
    5.4980    3.4461   -0.7680 C   0  0  0  0  0  0  0  0  0  0  0  0
    4.7034    4.7143   -0.9075 C   0  0  0  0  0  0  0  0  0  0  0  0
    6.9212    3.2223   -0.8841 C   0  0  0  0  0  0  0  0  0  0  0  0
    7.6559    3.4967    0.2223 C   0  0  0  0  0  0  0  0  0  0  0  0
    9.0558    3.0180    0.5525 C   0  0  0  0  0  0  0  0  0  0  0  0
    9.6557    4.2614    1.1321 C   0  0  0  0  0  0  0  0  0  0  0  0
   11.0587    4.7144    1.3824 C   0  0  0  0  0  0  0  0  0  0  0  0
   10.8261    6.1368    1.9348 C   0  0  0  0  0  0  0  0  0  0  0  0
   11.6245    7.2727    2.2979 C   0  0  0  0  0  0  0  0  0  0  0  0
   10.5960    7.9806    2.5766 N   0  0  0  0  0  0  0  0  0  0  0  0
    9.7111    6.9228    2.2310 C   0  0  0  0  0  0  0  0  0  0  0  0
    8.0845    6.6197    2.0648 C   0  0  0  0  0  0  0  0  0  0  0  0
    6.8058    7.1480    2.7278 C   0  0  0  0  0  0  0  0  0  0  0  0
    6.8277    8.2149    3.5580 C   0  0  0  0  0  0  0  0  0  0  0  0
    6.9394    9.5275    2.8991 C   0  0  0  0  0  0  0  0  0  0  0  0
    5.9087   10.3853    2.8624 C   0  0  0  0  0  0  0  0  0  0  0  0
    4.7349   10.2736    3.7017 C   0  0  0  0  0  0  0  0  0  0  0  0
    3.7793    9.3377    3.6165 C   0  0  0  0  0  0  0  0  0  0  0  0
    3.5927    8.3651    2.5535 C   0  0  0  0  0  0  0  0  0  0  0  0
    4.1861    7.2353    2.1246 C   0  0  0  0  0  0  0  0  0  0  0  0
    5.3816    6.4046    2.4888 C   0  0  0  0  0  0  0  0  0  0  0  0
    5.2485    5.0134    2.4247 C   0  0  0  0  0  0  0  0  0  0  0  0
    4.1627    3.9979    2.4063 N   0  0  0  0  0  0  0  0  0  0  0  0
    1.4273    2.9351    2.3242 H   0  0  0  0  0  0  0  0  0  0  0  0
    2.5703    1.6911    2.9824 H   0  0  0  0  0  0  0  0  0  0  0  0
    1.9025    1.5271    1.3817 H   0  0  0  0  0  0  0  0  0  0  0  0
    5.3778    1.4256   -0.1556 H   0  0  0  0  0  0  0  0  0  0  0  0
    3.7927    4.5214   -1.4956 H   0  0  0  0  0  0  0  0  0  0  0  0
    5.2388    5.5461   -1.3461 H   0  0  0  0  0  0  0  0  0  0  0  0
    4.3017    5.0686    0.0562 H   0  0  0  0  0  0  0  0  0  0  0  0
    7.2760    2.4587   -1.5362 H   0  0  0  0  0  0  0  0  0  0  0  0
    7.2058    4.1641    0.9511 H   0  0  0  0  0  0  0  0  0  0  0  0
    9.5803    2.6408   -0.3187 H   0  0  0  0  0  0  0  0  0  0  0  0
    8.9898    2.2446    1.3288 H   0  0  0  0  0  0  0  0  0  0  0  0
    9.2267    4.2716    2.1412 H   0  0  0  0  0  0  0  0  0  0  0  0
    9.2755    5.0605    0.4834 H   0  0  0  0  0  0  0  0  0  0  0  0
   11.7068    4.7249    0.5007 H   0  0  0  0  0  0  0  0  0  0  0  0
   11.6055    4.1193    2.1251 H   0  0  0  0  0  0  0  0  0  0  0  0
   12.7218    7.3282    2.2512 H   0  0  0  0  0  0  0  0  0  0  0  0
    8.0474    5.5976    2.4076 H   0  0  0  0  0  0  0  0  0  0  0  0
    7.9272    6.6000    0.9784 H   0  0  0  0  0  0  0  0  0  0  0  0
    6.0421    8.2322    4.3140 H   0  0  0  0  0  0  0  0  0  0  0  0
    7.8342    9.7260    2.3180 H   0  0  0  0  0  0  0  0  0  0  0  0
    5.9309   11.2346    2.1861 H   0  0  0  0  0  0  0  0  0  0  0  0
    4.6613   11.0349    4.4860 H   0  0  0  0  0  0  0  0  0  0  0  0
    2.9402    9.4301    4.3083 H   0  0  0  0  0  0  0  0  0  0  0  0
    2.6961    8.6667    1.9951 H   0  0  0  0  0  0  0  0  0  0  0  0
    3.6780    6.8243    1.2472 H   0  0  0  0  0  0  0  0  0  0  0  0
    6.1384    4.4564    2.6936 H   0  0  0  0  0  0  0  0  0  0  0  0
    4.4524    3.3703    3.1657 H   0  0  0  0  0  0  0  0  0  0  0  0
  1  2  1  0  0  0  0
  1 28  1  0  0  0  0
  1 29  1  0  0  0  0
  1 30  1  0  0  0  0
  2  3  2  3  0  0  0
  2 27  1  0  0  0  0
  3  4  1  0  0  0  0
  4  5  2  3  0  0  0
  4 31  1  0  0  0  0
  5  6  1  0  0  0  0
  5  7  1  0  0  0  0
  6 32  1  0  0  0  0
  6 33  1  0  0  0  0
  6 34  1  0  0  0  0
  7  8  2  3  0  0  0
  7 35  1  0  0  0  0
  8  9  1  0  0  0  0
  8 36  1  0  0  0  0
  9 10  1  0  0  0  0
  9 37  1  0  0  0  0
  9 38  1  0  0  0  0
 10 11  1  0  0  0  0
 10 39  1  0  0  0  0
 10 40  1  0  0  0  0
 11 12  1  0  0  0  0
 11 41  1  0  0  0  0
 11 42  1  0  0  0  0
 12 13  1  0  0  0  0
 12 15  2  0  0  0  0
 13 14  2  0  0  0  0
 13 43  1  0  0  0  0
 14 15  1  0  0  0  0
 15 16  1  0  0  0  0
 16 17  1  0  0  0  0
 16 44  1  0  0  0  0
 16 45  1  0  0  0  0
 17 18  2  3  0  0  0
 17 25  1  0  0  0  0
 18 19  1  0  0  0  0
 18 46  1  0  0  0  0
 19 20  2  3  0  0  0
 19 47  1  0  0  0  0
 20 21  1  0  0  0  0
 20 48  1  0  0  0  0
 21 22  2  3  0  0  0
 21 49  1  0  0  0  0
 22 23  1  0  0  0  0
 22 50  1  0  0  0  0
 23 24  2  3  0  0  0
 23 51  1  0  0  0  0
 24 25  1  0  0  0  0
 24 52  1  0  0  0  0
 25 26  2  3  0  0  0
 26 27  1  0  0  0  0
 26 53  1  0  0  0  0
 27 54  1  0  0  0  0
M  END
$$$$
