
 OpenBabel04232216473D

 50 52  0  0  0  0  0  0  0  0999 V2000
    1.1063   -0.1659   -0.3031 C   0  0  0  0  0  0  0  0  0  0  0  0
    2.6035   -0.1057   -0.2699 C   0  0  0  0  0  0  0  0  0  0  0  0
    3.2646    1.1183   -0.2673 C   0  0  0  0  0  0  0  0  0  0  0  0
    4.6627    1.2078   -0.0796 C   0  0  0  0  0  0  0  0  0  0  0  0
    5.2060    2.5139   -0.0744 N   0  0  0  0  0  0  0  0  0  0  0  0
    6.5736    2.7689   -0.5828 C   0  0  0  0  0  0  0  0  0  0  0  0
    6.5848    3.2827   -2.0256 C   0  0  0  0  0  0  0  0  0  0  0  0
    6.7800    4.7931   -2.1882 C   0  0  0  0  0  0  0  0  0  0  0  0
    5.5622    5.6153   -1.7787 C   0  0  0  0  0  0  0  0  0  0  0  0
    5.6723    6.1767   -0.3598 C   0  0  0  0  0  0  0  0  0  0  0  0
    4.3086    6.5754    0.2044 C   0  0  0  0  0  0  0  0  0  0  0  0
    3.7699    5.6326    1.2872 C   0  0  0  0  0  0  0  0  0  0  0  0
    3.5922    4.1817    0.8343 C   0  0  0  0  0  0  0  0  0  0  0  0
    4.7965    3.2685    1.1340 C   0  0  0  0  0  0  0  0  0  0  0  0
    5.3339   -0.0157    0.0957 C   0  0  0  0  0  0  0  0  0  0  0  0
    6.7611   -0.1917    0.4924 C   0  0  0  0  0  0  0  0  0  0  0  0
    7.3516    0.6466    1.1715 O   0  0  0  0  0  0  0  0  0  0  0  0
    7.3719   -1.3725    0.0582 N   0  0  0  0  0  0  0  0  0  0  0  0
    8.8223   -1.4548    0.0497 C   0  0  0  0  0  0  0  0  0  0  0  0
    6.6328   -2.5111   -0.1954 C   0  0  0  0  0  0  0  0  0  0  0  0
    5.2978   -2.4879   -0.1749 C   0  0  0  0  0  0  0  0  0  0  0  0
    4.6111   -1.2050   -0.0605 C   0  0  0  0  0  0  0  0  0  0  0  0
    3.2668   -1.2749   -0.2110 N   0  0  0  0  0  0  0  0  0  0  0  0
    0.6607    0.8313   -0.3716 H   0  0  0  0  0  0  0  0  0  0  0  0
    0.7395   -0.6327    0.6157 H   0  0  0  0  0  0  0  0  0  0  0  0
    0.7678   -0.7547   -1.1627 H   0  0  0  0  0  0  0  0  0  0  0  0
    2.6804    2.0201   -0.4125 H   0  0  0  0  0  0  0  0  0  0  0  0
    7.1711    1.8639   -0.6313 H   0  0  0  0  0  0  0  0  0  0  0  0
    7.1293    3.4476    0.0736 H   0  0  0  0  0  0  0  0  0  0  0  0
    5.6996    2.9450   -2.5756 H   0  0  0  0  0  0  0  0  0  0  0  0
    7.4471    2.8162   -2.5244 H   0  0  0  0  0  0  0  0  0  0  0  0
    6.9695    4.9774   -3.2539 H   0  0  0  0  0  0  0  0  0  0  0  0
    7.6815    5.1245   -1.6581 H   0  0  0  0  0  0  0  0  0  0  0  0
    4.6510    5.0208   -1.9107 H   0  0  0  0  0  0  0  0  0  0  0  0
    5.4717    6.4672   -2.4636 H   0  0  0  0  0  0  0  0  0  0  0  0
    6.3109    7.0684   -0.4017 H   0  0  0  0  0  0  0  0  0  0  0  0
    6.1876    5.4907    0.3122 H   0  0  0  0  0  0  0  0  0  0  0  0
    3.5677    6.6665   -0.6005 H   0  0  0  0  0  0  0  0  0  0  0  0
    4.3934    7.5739    0.6499 H   0  0  0  0  0  0  0  0  0  0  0  0
    2.7850    6.0174    1.5829 H   0  0  0  0  0  0  0  0  0  0  0  0
    4.3986    5.6854    2.1833 H   0  0  0  0  0  0  0  0  0  0  0  0
    3.3112    4.1618   -0.2243 H   0  0  0  0  0  0  0  0  0  0  0  0
    2.7317    3.7713    1.3805 H   0  0  0  0  0  0  0  0  0  0  0  0
    4.5231    2.5784    1.9465 H   0  0  0  0  0  0  0  0  0  0  0  0
    5.6354    3.8389    1.5432 H   0  0  0  0  0  0  0  0  0  0  0  0
    9.2687   -0.4561    0.0919 H   0  0  0  0  0  0  0  0  0  0  0  0
    9.1480   -1.9317   -0.8813 H   0  0  0  0  0  0  0  0  0  0  0  0
    9.1588   -2.0397    0.9086 H   0  0  0  0  0  0  0  0  0  0  0  0
    7.1801   -3.4321   -0.3705 H   0  0  0  0  0  0  0  0  0  0  0  0
    4.6960   -3.3749   -0.3310 H   0  0  0  0  0  0  0  0  0  0  0  0
  1  2  1  0  0  0  0
  1 24  1  0  0  0  0
  1 25  1  0  0  0  0
  1 26  1  0  0  0  0
  2  3  1  0  0  0  0
  2 23  2  0  0  0  0
  3  4  2  0  0  0  0
  3 27  1  0  0  0  0
  4  5  1  0  0  0  0
  4 15  1  0  0  0  0
  5  6  1  0  0  0  0
  5 14  1  0  0  0  0
  6  7  1  0  0  0  0
  6 28  1  0  0  0  0
  6 29  1  0  0  0  0
  7  8  1  0  0  0  0
  7 30  1  0  0  0  0
  7 31  1  0  0  0  0
  8  9  1  0  0  0  0
  8 32  1  0  0  0  0
  8 33  1  0  0  0  0
  9 10  1  0  0  0  0
  9 34  1  0  0  0  0
  9 35  1  0  0  0  0
 10 11  1  0  0  0  0
 10 36  1  0  0  0  0
 10 37  1  0  0  0  0
 11 12  1  0  0  0  0
 11 38  1  0  0  0  0
 11 39  1  0  0  0  0
 12 13  1  0  0  0  0
 12 40  1  0  0  0  0
 12 41  1  0  0  0  0
 13 14  1  0  0  0  0
 13 42  1  0  0  0  0
 13 43  1  0  0  0  0
 14 44  1  0  0  0  0
 14 45  1  0  0  0  0
 15 16  1  0  0  0  0
 15 22  2  0  0  0  0
 16 17  2  0  0  0  0
 16 18  1  0  0  0  0
 18 19  1  0  0  0  0
 18 20  1  0  0  0  0
 19 46  1  0  0  0  0
 19 47  1  0  0  0  0
 19 48  1  0  0  0  0
 20 21  2  0  0  0  0
 20 49  1  0  0  0  0
 21 22  1  0  0  0  0
 21 50  1  0  0  0  0
 22 23  1  0  0  0  0
M  END
$$$$
