
 OpenBabel04232216423D

 66 67  0  0  0  0  0  0  0  0999 V2000
    1.3302    1.5501    7.9385 C   0  0  0  0  0  0  0  0  0  0  0  0
    1.6543    0.2714    7.1471 C   0  0  0  0  0  0  0  0  0  0  0  0
    0.8856   -0.4957    6.3258 C   0  0  0  0  0  0  0  0  0  0  0  0
   -0.5045   -0.1650    6.0813 C   0  0  0  0  0  0  0  0  0  0  0  0
   -0.7134    1.2000    5.9285 N   0  0  0  0  0  0  0  0  0  0  0  0
   -1.5273    1.6377    4.7896 C   0  0  0  0  0  0  0  0  0  0  0  0
   -1.0794    3.0258    4.3365 C   0  0  0  0  0  0  0  0  0  0  0  0
   -1.9085    3.5211    3.1629 C   0  0  0  0  0  0  0  0  0  0  0  0
   -3.3784    3.6042    3.5489 C   0  0  0  0  0  0  0  0  0  0  0  0
   -3.5557    4.5576    4.7118 C   0  0  0  0  0  0  0  0  0  0  0  0
   -5.0042    4.6352    5.1271 C   0  0  0  0  0  0  0  0  0  0  0  0
   -5.1446    5.6015    6.2879 C   0  0  0  0  0  0  0  0  0  0  0  0
   -6.5994    5.6881    6.7035 C   0  0  0  0  0  0  0  0  0  0  0  0
   -6.7500    6.6547    7.8624 C   0  0  0  0  0  0  0  0  0  0  0  0
   -8.2071    6.7407    8.2778 C   0  0  0  0  0  0  0  0  0  0  0  0
   -8.3572    7.7080    9.4375 C   0  0  0  0  0  0  0  0  0  0  0  0
   -9.8151    7.7965    9.8564 C   0  0  0  0  0  0  0  0  0  0  0  0
   -9.9656    8.7654   11.0183 C   0  0  0  0  0  0  0  0  0  0  0  0
  -11.4214    8.8639   11.4517 C   0  0  0  0  0  0  0  0  0  0  0  0
  -11.5657    9.8321   12.6107 C   0  0  0  0  0  0  0  0  0  0  0  0
   -1.4793   -0.9186    6.7008 C   0  0  0  0  0  0  0  0  0  0  0  0
   -1.3601   -2.4095    6.7968 C   0  0  0  0  0  0  0  0  0  0  0  0
   -2.5226   -0.2707    7.3967 N   0  0  0  0  0  0  0  0  0  0  0  0
   -2.2869    0.9801    7.6964 C   0  0  0  0  0  0  0  0  0  0  0  0
   -1.0627    1.7381    7.1653 C   0  0  0  0  0  0  0  0  0  0  0  0
   -0.1146    2.0353    8.0584 C   0  0  0  0  0  0  0  0  0  0  0  0
    1.9834    2.3606    7.5911 H   0  0  0  0  0  0  0  0  0  0  0  0
    1.6346    1.3282    8.9709 H   0  0  0  0  0  0  0  0  0  0  0  0
    2.6738   -0.0750    7.3007 H   0  0  0  0  0  0  0  0  0  0  0  0
    1.2854   -1.3941    5.8778 H   0  0  0  0  0  0  0  0  0  0  0  0
   -2.5887    1.6425    5.0633 H   0  0  0  0  0  0  0  0  0  0  0  0
   -1.4154    0.9358    3.9572 H   0  0  0  0  0  0  0  0  0  0  0  0
   -0.0185    3.0255    4.0674 H   0  0  0  0  0  0  0  0  0  0  0  0
   -1.1530    3.7436    5.1661 H   0  0  0  0  0  0  0  0  0  0  0  0
   -1.7751    2.8457    2.3110 H   0  0  0  0  0  0  0  0  0  0  0  0
   -1.5568    4.5146    2.8568 H   0  0  0  0  0  0  0  0  0  0  0  0
   -3.7599    2.6094    3.8176 H   0  0  0  0  0  0  0  0  0  0  0  0
   -3.9805    3.9245    2.6922 H   0  0  0  0  0  0  0  0  0  0  0  0
   -3.1804    5.5485    4.4313 H   0  0  0  0  0  0  0  0  0  0  0  0
   -2.9749    4.2304    5.5802 H   0  0  0  0  0  0  0  0  0  0  0  0
   -5.3648    3.6409    5.4176 H   0  0  0  0  0  0  0  0  0  0  0  0
   -5.6132    4.9708    4.2830 H   0  0  0  0  0  0  0  0  0  0  0  0
   -4.7771    6.5928    5.9950 H   0  0  0  0  0  0  0  0  0  0  0  0
   -4.5311    5.2673    7.1348 H   0  0  0  0  0  0  0  0  0  0  0  0
   -6.9636    4.6952    6.9940 H   0  0  0  0  0  0  0  0  0  0  0  0
   -7.2091    6.0229    5.8549 H   0  0  0  0  0  0  0  0  0  0  0  0
   -6.3852    7.6472    7.5708 H   0  0  0  0  0  0  0  0  0  0  0  0
   -6.1390    6.3200    8.7097 H   0  0  0  0  0  0  0  0  0  0  0  0
   -8.5720    5.7481    8.5691 H   0  0  0  0  0  0  0  0  0  0  0  0
   -8.8179    7.0753    7.4303 H   0  0  0  0  0  0  0  0  0  0  0  0
   -7.9899    8.6997    9.1456 H   0  0  0  0  0  0  0  0  0  0  0  0
   -7.7437    7.3726   10.2835 H   0  0  0  0  0  0  0  0  0  0  0  0
  -10.1782    6.8028   10.1460 H   0  0  0  0  0  0  0  0  0  0  0  0
  -10.4244    8.1301    9.0073 H   0  0  0  0  0  0  0  0  0  0  0  0
   -9.5969    9.7550   10.7219 H   0  0  0  0  0  0  0  0  0  0  0  0
   -9.3482    8.4283   11.8600 H   0  0  0  0  0  0  0  0  0  0  0  0
  -11.7897    7.8755   11.7498 H   0  0  0  0  0  0  0  0  0  0  0  0
  -12.0393    9.2010   10.6113 H   0  0  0  0  0  0  0  0  0  0  0  0
  -10.9755    9.4995   13.4708 H   0  0  0  0  0  0  0  0  0  0  0  0
  -12.6126    9.8991   12.9184 H   0  0  0  0  0  0  0  0  0  0  0  0
  -11.2264   10.8331   12.3257 H   0  0  0  0  0  0  0  0  0  0  0  0
   -0.3282   -2.7447    6.9385 H   0  0  0  0  0  0  0  0  0  0  0  0
   -1.7214   -2.8579    5.8652 H   0  0  0  0  0  0  0  0  0  0  0  0
   -1.9491   -2.8279    7.6247 H   0  0  0  0  0  0  0  0  0  0  0  0
   -3.0036    1.5831    8.2888 H   0  0  0  0  0  0  0  0  0  0  0  0
   -0.3701    2.5535    8.9764 H   0  0  0  0  0  0  0  0  0  0  0  0
  1  2  1  0  0  0  0
  1 26  1  0  0  0  0
  1 27  1  0  0  0  0
  1 28  1  0  0  0  0
  2  3  2  0  0  0  0
  2 29  1  0  0  0  0
  3  4  1  0  0  0  0
  3 30  1  0  0  0  0
  4  5  1  0  0  0  0
  4 21  2  0  0  0  0
  5  6  1  0  0  0  0
  5 25  1  0  0  0  0
  6  7  1  0  0  0  0
  6 31  1  0  0  0  0
  6 32  1  0  0  0  0
  7  8  1  0  0  0  0
  7 33  1  0  0  0  0
  7 34  1  0  0  0  0
  8  9  1  0  0  0  0
  8 35  1  0  0  0  0
  8 36  1  0  0  0  0
  9 10  1  0  0  0  0
  9 37  1  0  0  0  0
  9 38  1  0  0  0  0
 10 11  1  0  0  0  0
 10 39  1  0  0  0  0
 10 40  1  0  0  0  0
 11 12  1  0  0  0  0
 11 41  1  0  0  0  0
 11 42  1  0  0  0  0
 12 13  1  0  0  0  0
 12 43  1  0  0  0  0
 12 44  1  0  0  0  0
 13 14  1  0  0  0  0
 13 45  1  0  0  0  0
 13 46  1  0  0  0  0
 14 15  1  0  0  0  0
 14 47  1  0  0  0  0
 14 48  1  0  0  0  0
 15 16  1  0  0  0  0
 15 49  1  0  0  0  0
 15 50  1  0  0  0  0
 16 17  1  0  0  0  0
 16 51  1  0  0  0  0
 16 52  1  0  0  0  0
 17 18  1  0  0  0  0
 17 53  1  0  0  0  0
 17 54  1  0  0  0  0
 18 19  1  0  0  0  0
 18 55  1  0  0  0  0
 18 56  1  0  0  0  0
 19 20  1  0  0  0  0
 19 57  1  0  0  0  0
 19 58  1  0  0  0  0
 20 59  1  0  0  0  0
 20 60  1  0  0  0  0
 20 61  1  0  0  0  0
 21 22  1  0  0  0  0
 21 23  1  0  0  0  0
 22 62  1  0  0  0  0
 22 63  1  0  0  0  0
 22 64  1  0  0  0  0
 23 24  2  0  0  0  0
 24 25  1  0  0  0  0
 24 65  1  0  0  0  0
 25 26  2  0  0  0  0
 26 66  1  0  0  0  0
M  END
$$$$
