
 OpenBabel04232216523D

 50 49  0  0  0  0  0  0  0  0999 V2000
    0.8669   -0.0041   -0.3394 C   0  0  0  0  0  0  0  0  0  0  0  0
    2.3852   -0.0086   -0.2909 C   0  0  0  0  0  0  0  0  0  0  0  0
    2.9111   -1.3197    0.2861 C   0  0  0  0  0  0  0  0  0  0  0  0
    4.4334   -1.3137    0.3300 C   0  0  0  0  0  0  0  0  0  0  0  0
    4.9766   -2.6148    0.9084 C   0  0  0  0  0  0  0  0  0  0  0  0
    6.5003   -2.5596    0.9602 C   0  0  0  0  0  0  0  0  0  0  0  0
    7.0703   -3.8507    1.5343 C   0  0  0  0  0  0  0  0  0  0  0  0
    8.6110   -3.8794    1.5628 C   0  0  0  0  0  0  0  0  0  0  0  0
    9.1809   -2.7612    2.4429 C   0  0  0  0  0  0  0  0  0  0  0  0
    9.1292   -5.2443    2.0624 C   0  0  0  0  0  0  0  0  0  0  0  0
    8.7141   -6.3971    1.1471 C   0  0  0  0  0  0  0  0  0  0  0  0
    9.2240   -7.7445    1.6445 C   0  0  0  0  0  0  0  0  0  0  0  0
    8.7439   -8.8548    0.7104 C   0  0  0  0  0  0  0  0  0  0  0  0
    9.2271  -10.2228    1.1827 C   0  0  0  0  0  0  0  0  0  0  0  0
    8.7525  -11.3270    0.2399 C   0  0  0  0  0  0  0  0  0  0  0  0
    9.2343  -12.6886    0.7092 C   0  0  0  0  0  0  0  0  0  0  0  0
    0.5058    0.9388   -0.7563 H   0  0  0  0  0  0  0  0  0  0  0  0
    0.4443   -0.1184    0.6648 H   0  0  0  0  0  0  0  0  0  0  0  0
    0.4951   -0.8205   -0.9674 H   0  0  0  0  0  0  0  0  0  0  0  0
    2.7325    0.8333    0.3197 H   0  0  0  0  0  0  0  0  0  0  0  0
    2.7825    0.1394   -1.3022 H   0  0  0  0  0  0  0  0  0  0  0  0
    2.5628   -2.1617   -0.3243 H   0  0  0  0  0  0  0  0  0  0  0  0
    2.5137   -1.4662    1.2981 H   0  0  0  0  0  0  0  0  0  0  0  0
    4.7821   -0.4701    0.9377 H   0  0  0  0  0  0  0  0  0  0  0  0
    4.8327   -1.1694   -0.6818 H   0  0  0  0  0  0  0  0  0  0  0  0
    4.6501   -3.4638    0.2951 H   0  0  0  0  0  0  0  0  0  0  0  0
    4.5771   -2.7721    1.9185 H   0  0  0  0  0  0  0  0  0  0  0  0
    6.7994   -1.7010    1.5721 H   0  0  0  0  0  0  0  0  0  0  0  0
    6.8990   -2.4021   -0.0489 H   0  0  0  0  0  0  0  0  0  0  0  0
    6.6912   -4.6656    0.9099 H   0  0  0  0  0  0  0  0  0  0  0  0
    6.6768   -4.0191    2.5444 H   0  0  0  0  0  0  0  0  0  0  0  0
    8.9826   -3.7233    0.5416 H   0  0  0  0  0  0  0  0  0  0  0  0
    8.8234   -2.8480    3.4745 H   0  0  0  0  0  0  0  0  0  0  0  0
    8.9030   -1.7720    2.0687 H   0  0  0  0  0  0  0  0  0  0  0  0
   10.2758   -2.7962    2.4571 H   0  0  0  0  0  0  0  0  0  0  0  0
    8.7627   -5.4291    3.0801 H   0  0  0  0  0  0  0  0  0  0  0  0
   10.2248   -5.2152    2.1210 H   0  0  0  0  0  0  0  0  0  0  0  0
    9.0864   -6.2094    0.1327 H   0  0  0  0  0  0  0  0  0  0  0  0
    7.6239   -6.4632    1.0849 H   0  0  0  0  0  0  0  0  0  0  0  0
    8.8499   -7.9286    2.6590 H   0  0  0  0  0  0  0  0  0  0  0  0
   10.3189   -7.7371    1.6939 H   0  0  0  0  0  0  0  0  0  0  0  0
    9.1118   -8.6640   -0.3059 H   0  0  0  0  0  0  0  0  0  0  0  0
    7.6495   -8.8510    0.6624 H   0  0  0  0  0  0  0  0  0  0  0  0
    8.8514  -10.4155    2.1961 H   0  0  0  0  0  0  0  0  0  0  0  0
   10.3213  -10.2280    1.2367 H   0  0  0  0  0  0  0  0  0  0  0  0
    9.1257  -11.1391   -0.7733 H   0  0  0  0  0  0  0  0  0  0  0  0
    7.6574  -11.3278    0.1878 H   0  0  0  0  0  0  0  0  0  0  0  0
   10.3280  -12.7247    0.7421 H   0  0  0  0  0  0  0  0  0  0  0  0
    8.8870  -13.4703    0.0266 H   0  0  0  0  0  0  0  0  0  0  0  0
    8.8528  -12.9150    1.7101 H   0  0  0  0  0  0  0  0  0  0  0  0
  1  2  1  0  0  0  0
  1 17  1  0  0  0  0
  1 18  1  0  0  0  0
  1 19  1  0  0  0  0
  2  3  1  0  0  0  0
  2 20  1  0  0  0  0
  2 21  1  0  0  0  0
  3  4  1  0  0  0  0
  3 22  1  0  0  0  0
  3 23  1  0  0  0  0
  4  5  1  0  0  0  0
  4 24  1  0  0  0  0
  4 25  1  0  0  0  0
  5  6  1  0  0  0  0
  5 26  1  0  0  0  0
  5 27  1  0  0  0  0
  6  7  1  0  0  0  0
  6 28  1  0  0  0  0
  6 29  1  0  0  0  0
  7  8  1  0  0  0  0
  7 30  1  0  0  0  0
  7 31  1  0  0  0  0
  8  9  1  0  0  0  0
  8 10  1  0  0  0  0
  8 32  1  0  0  0  0
  9 33  1  0  0  0  0
  9 34  1  0  0  0  0
  9 35  1  0  0  0  0
 10 11  1  0  0  0  0
 10 36  1  0  0  0  0
 10 37  1  0  0  0  0
 11 12  1  0  0  0  0
 11 38  1  0  0  0  0
 11 39  1  0  0  0  0
 12 13  1  0  0  0  0
 12 40  1  0  0  0  0
 12 41  1  0  0  0  0
 13 14  1  0  0  0  0
 13 42  1  0  0  0  0
 13 43  1  0  0  0  0
 14 15  1  0  0  0  0
 14 44  1  0  0  0  0
 14 45  1  0  0  0  0
 15 16  1  0  0  0  0
 15 46  1  0  0  0  0
 15 47  1  0  0  0  0
 16 48  1  0  0  0  0
 16 49  1  0  0  0  0
 16 50  1  0  0  0  0
M  END
$$$$
