
 OpenBabel04232216513D

 86 86  0  0  1  0  0  0  0  0999 V2000
   12.1898    2.6625    4.5826 C   0  0  0  0  0  0  0  0  0  0  0  0
   14.5504    3.7784    5.4168 C   0  0  0  0  0  0  0  0  0  0  0  0
   16.9710    5.0025    6.4903 C   0  0  3  0  0  0  0  0  0  0  0  0
   14.3530    4.5528    5.7466 C   0  0  0  0  0  0  0  0  0  0  0  0
   12.2118    4.4056    4.9532 C   0  0  0  0  0  0  0  0  0  0  0  0
   10.1164    3.8990    3.8291 C   0  0  0  0  0  0  0  0  0  0  0  0
    8.5259    4.1074    2.7506 C   0  0  0  0  0  0  0  0  0  0  0  0
    9.4828    3.8255    1.6086 C   0  0  0  0  0  0  0  0  0  0  0  0
   10.4783    4.7235    2.0294 C   0  0  0  0  0  0  0  0  0  0  0  0
   11.7861    4.0445    2.1491 C   0  0  0  0  0  0  0  0  0  0  0  0
   12.7992    4.5117    2.7453 C   0  0  0  0  0  0  0  0  0  0  0  0
   13.5408    5.4856    3.3636 C   0  0  0  0  0  0  0  0  0  0  0  0
   14.0827    6.1600    4.4109 C   0  0  0  0  0  0  0  0  0  0  0  0
   15.6591    5.9808    4.3688 C   0  0  0  0  0  0  0  0  0  0  0  0
   16.3996    6.6978    5.2622 C   0  0  0  0  0  0  0  0  0  0  0  0
   17.9405    6.4419    5.1675 C   0  0  0  0  0  0  0  0  0  0  0  0
   18.7766    7.3893    5.6668 C   0  0  0  0  0  0  0  0  0  0  0  0
   20.2688    7.5542    5.9128 C   0  0  0  0  0  0  0  0  0  0  0  0
   20.7001    8.1586    7.0691 C   0  0  0  0  0  0  0  0  0  0  0  0
   22.0880    8.3040    6.9612 C   0  0  0  0  0  0  0  0  0  0  0  0
   22.6540    9.3017    7.6850 C   0  0  0  0  0  0  0  0  0  0  0  0
   24.1263    9.5711    7.5972 C   0  0  0  0  0  0  0  0  0  0  0  0
   24.7329   10.5233    8.4109 C   0  0  0  0  0  0  0  0  0  0  0  0
   26.4094   10.3591    8.3351 C   0  0  0  0  0  0  0  0  0  0  0  0
   27.3514   11.0885    9.0840 C   0  0  0  0  0  0  0  0  0  0  0  0
   29.0740   10.9897    8.7834 C   0  0  0  0  0  0  0  0  0  0  0  0
   30.0157   11.7482    9.4503 C   0  0  0  0  0  0  0  0  0  0  0  0
   30.9337   12.6875   10.0171 C   0  0  0  0  0  0  0  0  0  0  0  0
   31.3015   12.8536   11.3116 C   0  0  0  0  0  0  0  0  0  0  0  0
   32.6622   13.1768   11.1231 C   0  0  0  0  0  0  0  0  0  0  0  0
   33.5034   13.9259   11.7660 C   0  0  0  0  0  0  0  0  0  0  0  0
   34.8771   13.8677   11.0727 C   0  0  0  0  0  0  0  0  0  0  0  0
   35.6303   14.5618   12.1148 C   0  0  0  0  0  0  0  0  0  0  0  0
   36.3511   13.3522   11.9190 C   0  0  0  0  0  0  0  0  0  0  0  0
   34.6889   12.2664   12.1559 C   0  0  0  0  0  0  0  0  0  0  0  0
   32.4968   11.0861   11.6256 C   0  0  0  0  0  0  0  0  0  0  0  0
   30.2509   10.4063   10.8003 C   0  0  0  0  0  0  0  0  0  0  0  0
   27.7615    9.1630   10.1345 C   0  0  0  0  0  0  0  0  0  0  0  0
   25.3908    8.1793    9.5335 C   0  0  0  0  0  0  0  0  0  0  0  0
   22.5645    7.1433    8.4908 C   0  0  0  0  0  0  0  0  0  0  0  0
   19.7854    6.0482    7.4535 C   0  0  0  0  0  3  0  0  0  0  0  0
   10.6142    2.1829    3.6037 H   0  0  0  0  0  0  0  0  0  0  0  0
   10.4007    2.3306    3.9671 H   0  0  0  0  0  0  0  0  0  0  0  0
   10.4328    2.1249    4.0377 H   0  0  0  0  0  0  0  0  0  0  0  0
   13.2701    3.2337    4.2331 H   0  0  0  0  0  0  0  0  0  0  0  0
   13.2404    2.9420    4.4543 H   0  0  0  0  0  0  0  0  0  0  0  0
   15.5271    4.7610    5.6204 H   0  0  0  0  0  0  0  0  0  0  0  0
   12.7410    3.9890    5.3853 H   0  0  0  0  0  0  0  0  0  0  0  0
   10.5757    3.8274    4.5227 H   0  0  0  0  0  0  0  0  0  0  0  0
    8.9467    2.9032    2.7876 H   0  0  0  0  0  0  0  0  0  0  0  0
    7.1736    3.7796    3.1525 H   0  0  0  0  0  0  0  0  0  0  0  0
    9.7060    2.3903    1.4909 H   0  0  0  0  0  0  0  0  0  0  0  0
   10.7918    3.7026    2.1371 H   0  0  0  0  0  0  0  0  0  0  0  0
   11.9415    2.8533    2.2688 H   0  0  0  0  0  0  0  0  0  0  0  0
   12.0930    5.1144    3.4047 H   0  0  0  0  0  0  0  0  0  0  0  0
   13.9912    4.3279    3.3288 H   0  0  0  0  0  0  0  0  0  0  0  0
   13.5416    6.2138    5.4831 H   0  0  0  0  0  0  0  0  0  0  0  0
   16.0959    4.8612    4.0952 H   0  0  0  0  0  0  0  0  0  0  0  0
   15.8048    6.9894    6.2213 H   0  0  0  0  0  0  0  0  0  0  0  0
   18.3487    5.4224    4.9385 H   0  0  0  0  0  0  0  0  0  0  0  0
   18.2664    7.8224    6.6353 H   0  0  0  0  0  0  0  0  0  0  0  0
   20.7038    6.5373    5.6976 H   0  0  0  0  0  0  0  0  0  0  0  0
   20.1185    8.6667    7.8617 H   0  0  0  0  0  0  0  0  0  0  0  0
   22.6699    7.3848    6.5621 H   0  0  0  0  0  0  0  0  0  0  0  0
   22.2350    9.5944    8.6875 H   0  0  0  0  0  0  0  0  0  0  0  0
   24.8021    8.4772    7.3245 H   0  0  0  0  0  0  0  0  0  0  0  0
   24.4720   10.4540    9.5052 H   0  0  0  0  0  0  0  0  0  0  0  0
   26.9395    9.2380    8.0724 H   0  0  0  0  0  0  0  0  0  0  0  0
   26.8682   11.3085   10.1666 H   0  0  0  0  0  0  0  0  0  0  0  0
   29.3884    9.8144    8.8952 H   0  0  0  0  0  0  0  0  0  0  0  0
   29.4604   12.1665   10.4617 H   0  0  0  0  0  0  0  0  0  0  0  0
   31.5322   11.6762    9.8194 H   0  0  0  0  0  0  0  0  0  0  0  0
   30.8854   13.1708   12.2046 H   0  0  0  0  0  0  0  0  0  0  0  0
   33.3192   12.2400   10.4586 H   0  0  0  0  0  0  0  0  0  0  0  0
   33.3045   13.9858   12.8427 H   0  0  0  0  0  0  0  0  0  0  0  0
   35.4565   12.4791   10.7074 H   0  0  0  0  0  0  0  0  0  0  0  0
   35.4554   14.7662   13.3607 H   0  0  0  0  0  0  0  0  0  0  0  0
   37.9154   13.2233   11.8418 H   0  0  0  0  0  0  0  0  0  0  0  0
   36.1996   13.1407   12.8544 H   0  0  0  0  0  0  0  0  0  0  0  0
   34.1874   11.6461   12.1415 H   0  0  0  0  0  0  0  0  0  0  0  0
   31.7487   11.0073   11.7401 H   0  0  0  0  0  0  0  0  0  0  0  0
   29.2132   10.0213   10.7004 H   0  0  0  0  0  0  0  0  0  0  0  0
   26.7552    9.1525    9.8690 H   0  0  0  0  0  0  0  0  0  0  0  0
   23.7674    8.2051    8.8644 H   0  0  0  0  0  0  0  0  0  0  0  0
   24.1591    7.6071    8.5383 H   0  0  0  0  0  0  0  0  0  0  0  0
   18.3337    6.3374    7.3434 H   0  0  0  0  0  0  0  0  0  0  0  0
  1  2  1  0  0  0  0
  1 42  1  0  0  0  0
  1 43  1  0  0  0  0
  1 44  1  0  0  0  0
  2  3  1  0  0  0  0
  2 45  1  0  0  0  0
  2 46  1  0  0  0  0
  3  4  1  0  0  0  0
  3 41  1  0  0  0  0
  3 47  1  0  0  0  0
  4  5  2  3  0  0  0
  4 48  1  0  0  0  0
  5  6  1  0  0  0  0
  5 49  1  0  0  0  0
  6  7  2  3  0  0  0
  6 50  1  0  0  0  0
  7  8  1  0  0  0  0
  7 51  1  0  0  0  0
  8  9  2  3  0  0  0
  8 52  1  0  0  0  0
  9 10  1  0  0  0  0
  9 53  1  0  0  0  0
 10 11  2  3  0  0  0
 10 54  1  0  0  0  0
 11 12  1  0  0  0  0
 11 55  1  0  0  0  0
 12 13  2  3  0  0  0
 12 56  1  0  0  0  0
 13 14  1  0  0  0  0
 13 57  1  0  0  0  0
 14 15  2  3  0  0  0
 14 58  1  0  0  0  0
 15 16  1  0  0  0  0
 15 59  1  0  0  0  0
 16 17  2  3  0  0  0
 16 60  1  0  0  0  0
 17 18  1  0  0  0  0
 17 61  1  0  0  0  0
 18 19  2  3  0  0  0
 18 62  1  0  0  0  0
 19 20  1  0  0  0  0
 19 63  1  0  0  0  0
 20 21  2  3  0  0  0
 20 64  1  0  0  0  0
 21 22  1  0  0  0  0
 21 65  1  0  0  0  0
 22 23  2  3  0  0  0
 22 66  1  0  0  0  0
 23 24  1  0  0  0  0
 23 67  1  0  0  0  0
 24 25  2  3  0  0  0
 24 68  1  0  0  0  0
 25 26  1  0  0  0  0
 25 69  1  0  0  0  0
 26 27  2  3  0  0  0
 26 70  1  0  0  0  0
 27 28  1  0  0  0  0
 27 71  1  0  0  0  0
 28 29  2  3  0  0  0
 28 72  1  0  0  0  0
 29 30  1  0  0  0  0
 29 73  1  0  0  0  0
 30 31  2  3  0  0  0
 30 74  1  0  0  0  0
 31 32  1  0  0  0  0
 31 75  1  0  0  0  0
 32 33  2  3  0  0  0
 32 76  1  0  0  0  0
 33 34  1  0  0  0  0
 33 77  1  0  0  0  0
 34 35  2  3  0  0  0
 34 78  1  0  0  0  0
 35 36  1  0  0  0  0
 35 79  1  0  0  0  0
 36 37  2  3  0  0  0
 36 80  1  0  0  0  0
 37 38  1  0  0  0  0
 37 81  1  0  0  0  0
 38 39  2  3  0  0  0
 38 82  1  0  0  0  0
 39 40  1  0  0  0  0
 39 83  1  0  0  0  0
 40 41  1  0  0  0  0
 40 84  1  0  0  0  0
 40 85  1  0  0  0  0
 41 86  1  0  0  0  0
M  END
$$$$
