
 OpenBabel04232216503D

 61 64  0  0  1  0  0  0  0  0999 V2000
    3.8178    0.1275    2.3220 C   0  0  0  0  0  0  0  0  0  0  0  0
    5.0656   -0.7471    2.0126 C   0  0  3  0  0  0  0  0  0  0  0  0
    4.7610   -1.8887    0.9708 N   0  0  0  0  0  0  0  0  0  0  0  0
    3.5276   -2.3729    1.0811 C   0  0  0  0  0  0  0  0  0  0  0  0
    3.5442   -1.6935   -0.1547 C   0  0  3  0  0  0  0  0  0  0  0  0
    3.0555   -2.6094   -1.2994 C   0  0  0  0  0  0  0  0  0  0  0  0
    3.6372   -4.0348   -1.4977 C   0  0  0  0  0  0  0  0  0  0  0  0
    2.5578   -5.1574   -1.4748 C   0  0  0  0  0  0  0  0  0  0  0  0
    3.1095   -6.5834   -1.7148 C   0  0  0  0  0  0  0  0  0  0  0  0
    2.6199   -7.6703   -0.7321 C   0  0  0  0  0  0  0  0  0  0  0  0
    3.4065   -7.6870    0.5798 C   0  0  0  0  0  0  0  0  0  0  0  0
    2.6441   -6.9766    1.6906 C   0  0  0  0  0  0  0  0  0  0  0  0
    3.5909   -6.3222    2.6707 C   0  0  0  0  0  0  0  0  0  0  0  0
    2.8771   -5.1820    3.4126 C   0  0  0  0  0  0  0  0  0  0  0  0
    2.7784   -3.1202    1.8889 C   0  0  0  0  0  0  0  0  0  0  0  0
    1.2775   -3.0486    1.8068 C   0  0  0  0  0  0  0  0  0  0  0  0
    3.3867   -3.9132    2.8910 N   0  0  0  0  0  0  0  0  0  0  0  0
    4.7428   -3.7483    3.0803 C   0  0  0  0  0  0  0  0  0  0  0  0
    5.1288   -3.0992    4.1609 C   0  0  0  0  0  0  0  0  0  0  0  0
    6.2266   -2.1870    4.0850 C   0  0  0  0  0  0  0  0  0  0  0  0
    7.2679   -2.4642    5.0925 C   0  0  0  0  0  0  0  0  0  0  0  0
    8.5909   -2.2632    4.9976 C   0  0  0  0  0  0  0  0  0  0  0  0
    9.2677   -1.5474    3.9476 C   0  0  0  0  0  0  0  0  0  0  0  0
    8.9593   -0.2922    3.5920 C   0  0  0  0  0  0  0  0  0  0  0  0
    7.8571    0.4660    4.1306 C   0  0  0  0  0  0  0  0  0  0  0  0
    6.5668    0.1562    3.9454 C   0  0  0  0  0  0  0  0  0  0  0  0
    6.0215   -1.0658    3.3136 C   0  0  0  0  0  0  0  0  0  0  0  0
    3.5619    0.7305    1.4396 H   0  0  0  0  0  0  0  0  0  0  0  0
    3.9697    0.8307    3.1431 H   0  0  0  0  0  0  0  0  0  0  0  0
    2.9215   -0.4503    2.5716 H   0  0  0  0  0  0  0  0  0  0  0  0
    5.7168   -0.0908    1.4191 H   0  0  0  0  0  0  0  0  0  0  0  0
    3.6538   -0.6641   -0.4391 H   0  0  0  0  0  0  0  0  0  0  0  0
    3.1444   -2.0599   -2.2451 H   0  0  0  0  0  0  0  0  0  0  0  0
    1.9659   -2.7090   -1.1658 H   0  0  0  0  0  0  0  0  0  0  0  0
    4.4163   -4.2579   -0.7651 H   0  0  0  0  0  0  0  0  0  0  0  0
    4.1114   -4.0655   -2.4880 H   0  0  0  0  0  0  0  0  0  0  0  0
    1.8274   -4.9559   -2.2713 H   0  0  0  0  0  0  0  0  0  0  0  0
    1.9977   -5.1077   -0.5392 H   0  0  0  0  0  0  0  0  0  0  0  0
    4.2047   -6.5823   -1.7454 H   0  0  0  0  0  0  0  0  0  0  0  0
    2.7831   -6.9047   -2.7133 H   0  0  0  0  0  0  0  0  0  0  0  0
    2.7672   -8.6490   -1.2060 H   0  0  0  0  0  0  0  0  0  0  0  0
    1.5421   -7.5796   -0.5495 H   0  0  0  0  0  0  0  0  0  0  0  0
    4.3997   -7.2503    0.4177 H   0  0  0  0  0  0  0  0  0  0  0  0
    3.5844   -8.7208    0.9016 H   0  0  0  0  0  0  0  0  0  0  0  0
    2.0089   -7.6860    2.2329 H   0  0  0  0  0  0  0  0  0  0  0  0
    1.9790   -6.2181    1.2715 H   0  0  0  0  0  0  0  0  0  0  0  0
    4.4637   -5.9547    2.1126 H   0  0  0  0  0  0  0  0  0  0  0  0
    3.9909   -7.0539    3.3822 H   0  0  0  0  0  0  0  0  0  0  0  0
    3.1351   -5.2376    4.4779 H   0  0  0  0  0  0  0  0  0  0  0  0
    1.7877   -5.2537    3.3654 H   0  0  0  0  0  0  0  0  0  0  0  0
    0.9264   -2.5323    0.9012 H   0  0  0  0  0  0  0  0  0  0  0  0
    0.9427   -2.4558    2.6574 H   0  0  0  0  0  0  0  0  0  0  0  0
    0.7900   -4.0229    1.8426 H   0  0  0  0  0  0  0  0  0  0  0  0
    5.3596   -3.7642    2.1780 H   0  0  0  0  0  0  0  0  0  0  0  0
    4.4929   -3.0393    5.0411 H   0  0  0  0  0  0  0  0  0  0  0  0
    6.9309   -3.0572    5.9460 H   0  0  0  0  0  0  0  0  0  0  0  0
    9.2372   -2.7020    5.7542 H   0  0  0  0  0  0  0  0  0  0  0  0
   10.1243   -2.0404    3.4970 H   0  0  0  0  0  0  0  0  0  0  0  0
    9.5672    0.2249    2.8584 H   0  0  0  0  0  0  0  0  0  0  0  0
    8.1150    1.3199    4.7522 H   0  0  0  0  0  0  0  0  0  0  0  0
    5.8173    0.7695    4.4480 H   0  0  0  0  0  0  0  0  0  0  0  0
  1  2  1  0  0  0  0
  1 28  1  0  0  0  0
  1 29  1  0  0  0  0
  1 30  1  0  0  0  0
  2  3  1  0  0  0  0
  2 27  1  0  0  0  0
  2 31  1  0  0  0  0
  3  4  1  0  0  0  0
  3  5  1  0  0  0  0
  4  5  1  0  0  0  0
  4 15  2  3  0  0  0
  5  6  1  0  0  0  0
  5 32  1  0  0  0  0
  6  7  1  0  0  0  0
  6 33  1  0  0  0  0
  6 34  1  0  0  0  0
  7  8  1  0  0  0  0
  7 35  1  0  0  0  0
  7 36  1  0  0  0  0
  8  9  1  0  0  0  0
  8 37  1  0  0  0  0
  8 38  1  0  0  0  0
  9 10  1  0  0  0  0
  9 39  1  0  0  0  0
  9 40  1  0  0  0  0
 10 11  1  0  0  0  0
 10 41  1  0  0  0  0
 10 42  1  0  0  0  0
 11 12  1  0  0  0  0
 11 43  1  0  0  0  0
 11 44  1  0  0  0  0
 12 13  1  0  0  0  0
 12 45  1  0  0  0  0
 12 46  1  0  0  0  0
 13 14  1  0  0  0  0
 13 47  1  0  0  0  0
 13 48  1  0  0  0  0
 14 17  1  0  0  0  0
 14 49  1  0  0  0  0
 14 50  1  0  0  0  0
 15 16  1  0  0  0  0
 15 17  1  0  0  0  0
 16 51  1  0  0  0  0
 16 52  1  0  0  0  0
 16 53  1  0  0  0  0
 17 18  1  0  0  0  0
 18 19  2  3  0  0  0
 18 54  1  0  0  0  0
 19 20  1  0  0  0  0
 19 55  1  0  0  0  0
 20 21  1  0  0  0  0
 20 27  2  0  0  0  0
 21 22  2  0  0  0  0
 21 56  1  0  0  0  0
 22 23  1  0  0  0  0
 22 57  1  0  0  0  0
 23 24  2  0  0  0  0
 23 58  1  0  0  0  0
 24 25  1  0  0  0  0
 24 59  1  0  0  0  0
 25 26  2  0  0  0  0
 25 60  1  0  0  0  0
 26 27  1  0  0  0  0
 26 61  1  0  0  0  0
M  END
$$$$
