
 OpenBabel04232216523D

 58 59  0  0  0  0  0  0  0  0999 V2000
    4.4051   -3.0701    0.4253 C   0  0  0  0  0  0  0  0  0  0  0  0
    6.1198   -3.0230    0.3356 C   0  0  0  0  0  0  0  0  0  0  0  0
    7.7462   -3.9425    0.7511 C   0  0  0  0  0  0  0  0  0  0  0  0
    8.9668   -4.1296    2.2215 C   0  0  0  0  0  0  0  0  0  0  0  0
    7.5844   -3.6505    3.0652 C   0  0  0  0  0  0  0  0  0  0  0  0
    7.1999   -2.1132    2.9065 C   0  0  0  0  0  0  0  0  0  0  0  0
    7.6455   -1.4662    4.1600 C   0  0  0  0  0  0  0  0  0  0  0  0
    9.0857   -1.2903    3.9423 C   0  0  0  0  0  0  0  0  0  0  0  0
    9.7025   -2.3210    4.8384 C   0  0  0  0  0  0  0  0  0  0  0  0
   11.1187   -2.0813    4.4771 C   0  0  0  0  0  0  0  0  0  0  0  0
   11.8669   -2.4088    5.6796 C   0  0  0  0  0  0  0  0  0  0  0  0
   13.1360   -1.6705    5.4134 C   0  0  0  0  0  0  0  0  0  0  0  0
   14.1101   -2.7369    5.3111 C   0  0  0  0  0  0  0  0  0  0  0  0
   13.9866   -2.9737    3.7703 C   0  0  0  0  0  0  0  0  0  0  0  0
   14.6176   -2.2344    2.9528 O   0  0  0  0  0  0  0  0  0  0  0  0
   13.5280   -4.4016    3.3015 C   0  0  0  0  0  0  0  0  0  0  0  0
   12.1854   -4.9159    3.4474 C   0  0  0  0  0  0  0  0  0  0  0  0
   12.8057   -6.3011    4.3448 C   0  0  0  0  0  0  0  0  0  0  0  0
   13.9483   -6.4027    5.6943 C   0  0  0  0  0  0  0  0  0  0  0  0
   13.4806   -6.4541    6.8738 O   0  0  0  0  0  0  0  0  0  0  0  0
   15.6052   -6.4980    5.6517 C   0  0  0  0  0  0  0  0  0  0  0  0
   16.2971   -5.7005    4.5800 C   0  0  0  0  0  0  0  0  0  0  0  0
   15.2544   -4.8171    3.8510 C   0  0  0  0  0  0  0  0  0  0  0  0
   10.5589   -4.5692    2.4625 C   0  0  0  0  0  0  0  0  0  0  0  0
    3.9817   -2.7669   -0.5742 H   0  0  0  0  0  0  0  0  0  0  0  0
    3.9484   -2.2637    1.0426 H   0  0  0  0  0  0  0  0  0  0  0  0
    3.8592   -3.9987    0.6403 H   0  0  0  0  0  0  0  0  0  0  0  0
    6.2840   -1.9391    0.4382 H   0  0  0  0  0  0  0  0  0  0  0  0
    6.1251   -3.2053   -0.7524 H   0  0  0  0  0  0  0  0  0  0  0  0
    8.3609   -3.5262   -0.0496 H   0  0  0  0  0  0  0  0  0  0  0  0
    7.4232   -4.9611    0.5342 H   0  0  0  0  0  0  0  0  0  0  0  0
    6.6864   -4.1362    2.6164 H   0  0  0  0  0  0  0  0  0  0  0  0
    7.4890   -4.0391    4.0774 H   0  0  0  0  0  0  0  0  0  0  0  0
    6.1388   -1.8726    2.7794 H   0  0  0  0  0  0  0  0  0  0  0  0
    7.6909   -1.6611    2.0252 H   0  0  0  0  0  0  0  0  0  0  0  0
    7.4187   -2.1276    5.0092 H   0  0  0  0  0  0  0  0  0  0  0  0
    7.1835   -0.4995    4.4133 H   0  0  0  0  0  0  0  0  0  0  0  0
    9.4104   -0.2854    4.2247 H   0  0  0  0  0  0  0  0  0  0  0  0
    9.4374   -1.4128    2.8912 H   0  0  0  0  0  0  0  0  0  0  0  0
    9.4654   -3.3945    4.5758 H   0  0  0  0  0  0  0  0  0  0  0  0
    9.4737   -2.1861    5.8364 H   0  0  0  0  0  0  0  0  0  0  0  0
   11.2557   -1.0157    4.2517 H   0  0  0  0  0  0  0  0  0  0  0  0
   11.4517   -2.5631    3.5345 H   0  0  0  0  0  0  0  0  0  0  0  0
   11.9017   -3.5154    5.7737 H   0  0  0  0  0  0  0  0  0  0  0  0
   11.4333   -2.0517    6.6090 H   0  0  0  0  0  0  0  0  0  0  0  0
   13.3460   -0.8798    6.1249 H   0  0  0  0  0  0  0  0  0  0  0  0
   13.1343   -1.1292    4.4452 H   0  0  0  0  0  0  0  0  0  0  0  0
   13.8217   -3.6268    5.9156 H   0  0  0  0  0  0  0  0  0  0  0  0
   15.0987   -2.4601    5.6984 H   0  0  0  0  0  0  0  0  0  0  0  0
   13.2962   -6.9644    3.6149 H   0  0  0  0  0  0  0  0  0  0  0  0
   11.9505   -6.8305    4.7696 H   0  0  0  0  0  0  0  0  0  0  0  0
   16.0583   -7.5004    5.7172 H   0  0  0  0  0  0  0  0  0  0  0  0
   15.9796   -6.0482    6.6092 H   0  0  0  0  0  0  0  0  0  0  0  0
   17.0357   -6.2235    3.9557 H   0  0  0  0  0  0  0  0  0  0  0  0
   17.0023   -4.9986    5.1198 H   0  0  0  0  0  0  0  0  0  0  0  0
   15.9327   -4.0789    3.3887 H   0  0  0  0  0  0  0  0  0  0  0  0
   15.1072   -4.4456    4.8598 H   0  0  0  0  0  0  0  0  0  0  0  0
   10.9803   -4.7394    1.4726 H   0  0  0  0  0  0  0  0  0  0  0  0
  1  2  1  0  0  0  0
  1 25  1  0  0  0  0
  1 26  1  0  0  0  0
  1 27  1  0  0  0  0
  2  3  1  0  0  0  0
  2 28  1  0  0  0  0
  2 29  1  0  0  0  0
  3  4  1  0  0  0  0
  3 30  1  0  0  0  0
  3 31  1  0  0  0  0
  4  5  1  0  0  0  0
  4 24  2  3  0  0  0
  5  6  1  0  0  0  0
  5 32  1  0  0  0  0
  5 33  1  0  0  0  0
  6  7  1  0  0  0  0
  6 34  1  0  0  0  0
  6 35  1  0  0  0  0
  7  8  1  0  0  0  0
  7 36  1  0  0  0  0
  7 37  1  0  0  0  0
  8  9  1  0  0  0  0
  8 38  1  0  0  0  0
  8 39  1  0  0  0  0
  9 10  1  0  0  0  0
  9 40  1  0  0  0  0
  9 41  1  0  0  0  0
 10 11  1  0  0  0  0
 10 42  1  0  0  0  0
 10 43  1  0  0  0  0
 11 12  1  0  0  0  0
 11 44  1  0  0  0  0
 11 45  1  0  0  0  0
 12 13  1  0  0  0  0
 12 46  1  0  0  0  0
 12 47  1  0  0  0  0
 13 14  1  0  0  0  0
 13 48  1  0  0  0  0
 13 49  1  0  0  0  0
 14 15  2  0  0  0  0
 14 16  1  0  0  0  0
 16 17  2  0  0  0  0
 16 23  1  0  0  0  0
 17 18  1  0  0  0  0
 17 24  1  0  0  0  0
 18 19  1  0  0  0  0
 18 50  1  0  0  0  0
 18 51  1  0  0  0  0
 19 20  2  0  0  0  0
 19 21  1  0  0  0  0
 21 22  1  0  0  0  0
 21 52  1  0  0  0  0
 21 53  1  0  0  0  0
 22 23  1  0  0  0  0
 22 54  1  0  0  0  0
 22 55  1  0  0  0  0
 23 56  1  0  0  0  0
 23 57  1  0  0  0  0
 24 58  1  0  0  0  0
M  END
$$$$
