
 OpenBabel04232216483D

 75 76  0  0  1  0  0  0  0  0999 V2000
    5.0699    3.5816   -0.4655 C   0  0  0  0  0  0  0  0  0  0  0  0
    3.6939    3.3834   -0.8578 C   0  0  0  0  0  0  0  0  0  0  0  0
    2.9088    3.0295    0.3091 C   0  0  0  0  0  0  0  0  0  0  0  0
    1.9515    2.7498   -0.6513 C   0  0  0  0  0  0  0  0  0  0  0  0
    2.8725    3.5959   -2.1109 C   0  0  0  0  0  0  0  0  0  0  0  0
    3.2363    3.8980   -4.3071 C   0  0  0  0  0  0  0  0  0  0  0  0
    3.3022    5.1817   -6.2963 C   0  0  3  0  0  0  0  0  0  0  0  0
    2.0835    4.9181   -4.8913 C   0  0  0  0  0  0  0  0  0  0  0  0
    3.5514    5.7390   -4.5005 C   0  0  0  0  0  0  0  0  0  0  0  0
    2.5504    6.6886   -4.9904 C   0  0  0  0  0  0  0  0  0  0  0  0
    3.7340    7.3426   -5.5392 C   0  0  0  0  0  0  0  0  0  0  0  0
    2.8762    8.1924   -6.3445 C   0  0  0  0  0  0  0  0  0  0  0  0
    3.8825    9.0516   -6.9549 C   0  0  0  0  0  0  0  0  0  0  0  0
    3.0178    9.9373   -7.6826 C   0  0  0  0  0  0  0  0  0  0  0  0
    3.6790   10.8884   -8.3047 C   0  0  0  0  0  0  0  0  0  0  0  0
    3.0269   11.4998   -9.4371 C   0  0  0  0  0  0  0  0  0  0  0  0
    4.0689   12.4596   -9.9686 C   0  0  0  0  0  0  0  0  0  0  0  0
    3.1962   13.4048  -10.6408 N   0  0  0  0  0  0  0  0  0  0  0  0
    2.9751   13.2616  -12.0275 C   0  0  0  0  0  0  0  0  0  0  0  0
    2.8024   14.5730  -12.7599 C   0  0  0  0  0  0  0  0  0  0  0  0
    4.0982   15.4628  -12.8808 C   0  0  0  0  0  0  0  0  0  0  0  0
    3.7693   16.1824  -14.1820 C   0  0  0  0  0  0  0  0  0  0  0  0
    5.2633   15.4928  -14.6184 C   0  0  0  0  0  0  0  0  0  0  0  0
    4.7176   13.5128  -14.2956 C   0  0  0  0  0  0  0  0  0  0  0  0
    4.4505   11.6087  -13.1197 C   0  0  0  0  0  0  0  0  0  0  0  0
    4.2282    9.8616  -11.5807 C   0  0  0  0  0  0  0  0  0  0  0  0
    3.9229    8.4771   -9.6371 C   0  0  0  0  0  0  0  0  0  0  0  0
    3.5846    6.7030   -7.9987 C   0  0  0  0  0  0  0  0  0  0  0  0
    5.2748    3.6857    0.6153 H   0  0  0  0  0  0  0  0  0  0  0  0
    4.9179    4.5126   -0.9786 H   0  0  0  0  0  0  0  0  0  0  0  0
    5.4425    2.6468   -0.8814 H   0  0  0  0  0  0  0  0  0  0  0  0
    3.2447    2.8343    1.5598 H   0  0  0  0  0  0  0  0  0  0  0  0
    1.6535    2.2195    0.6543 H   0  0  0  0  0  0  0  0  0  0  0  0
    2.3092    3.1352   -3.9654 H   0  0  0  0  0  0  0  0  0  0  0  0
    4.0228    3.1295   -4.0254 H   0  0  0  0  0  0  0  0  0  0  0  0
    3.8571    4.0540   -6.3826 H   0  0  0  0  0  0  0  0  0  0  0  0
    1.7488    5.0810   -3.6649 H   0  0  0  0  0  0  0  0  0  0  0  0
    1.5670    3.8788   -5.1024 H   0  0  0  0  0  0  0  0  0  0  0  0
    4.6249    5.1752   -5.0002 H   0  0  0  0  0  0  0  0  0  0  0  0
    4.0039    5.8729   -3.5238 H   0  0  0  0  0  0  0  0  0  0  0  0
    1.8922    6.9541   -4.1389 H   0  0  0  0  0  0  0  0  0  0  0  0
    1.6703    6.3040   -5.8598 H   0  0  0  0  0  0  0  0  0  0  0  0
    4.5127    6.6745   -6.0627 H   0  0  0  0  0  0  0  0  0  0  0  0
    4.4658    7.6795   -4.8100 H   0  0  0  0  0  0  0  0  0  0  0  0
    2.1576    8.7036   -5.7042 H   0  0  0  0  0  0  0  0  0  0  0  0
    2.1697    7.5995   -7.0066 H   0  0  0  0  0  0  0  0  0  0  0  0
    4.5623    8.6569   -7.6923 H   0  0  0  0  0  0  0  0  0  0  0  0
    4.6847    9.3441   -6.2847 H   0  0  0  0  0  0  0  0  0  0  0  0
    2.0911    9.5436   -8.1200 H   0  0  0  0  0  0  0  0  0  0  0  0
    4.7734   10.8387   -8.2577 H   0  0  0  0  0  0  0  0  0  0  0  0
    2.1328   12.0084   -9.0948 H   0  0  0  0  0  0  0  0  0  0  0  0
    2.5981   10.7709  -10.1675 H   0  0  0  0  0  0  0  0  0  0  0  0
    5.0201   11.8967  -10.2360 H   0  0  0  0  0  0  0  0  0  0  0  0
    4.7553   13.0595   -9.3678 H   0  0  0  0  0  0  0  0  0  0  0  0
    2.2963   13.5484  -10.2076 H   0  0  0  0  0  0  0  0  0  0  0  0
    2.5257   12.2988  -12.4634 H   0  0  0  0  0  0  0  0  0  0  0  0
    4.0212   13.2613  -12.1594 H   0  0  0  0  0  0  0  0  0  0  0  0
    2.0962   15.2390  -12.3101 H   0  0  0  0  0  0  0  0  0  0  0  0
    2.3862   14.2698  -13.7566 H   0  0  0  0  0  0  0  0  0  0  0  0
    5.0968   14.8612  -12.8446 H   0  0  0  0  0  0  0  0  0  0  0  0
    4.5763   16.2423  -12.2682 H   0  0  0  0  0  0  0  0  0  0  0  0
    3.4820   17.2736  -13.9917 H   0  0  0  0  0  0  0  0  0  0  0  0
    2.9117   15.8797  -14.8400 H   0  0  0  0  0  0  0  0  0  0  0  0
    5.6256   15.6403  -15.6774 H   0  0  0  0  0  0  0  0  0  0  0  0
    5.2915   16.7394  -14.6726 H   0  0  0  0  0  0  0  0  0  0  0  0
    4.1005   14.3706  -15.0229 H   0  0  0  0  0  0  0  0  0  0  0  0
    3.9805   13.4220  -15.3163 H   0  0  0  0  0  0  0  0  0  0  0  0
    5.3906   11.5741  -13.7576 H   0  0  0  0  0  0  0  0  0  0  0  0
    3.5302   11.8992  -13.8492 H   0  0  0  0  0  0  0  0  0  0  0  0
    4.2638   10.8814  -11.1992 H   0  0  0  0  0  0  0  0  0  0  0  0
    5.2874    9.8544  -11.8894 H   0  0  0  0  0  0  0  0  0  0  0  0
    4.6846    9.1314   -9.3278 H   0  0  0  0  0  0  0  0  0  0  0  0
    4.6821    7.8664  -10.4537 H   0  0  0  0  0  0  0  0  0  0  0  0
    4.6682    7.0056   -7.6639 H   0  0  0  0  0  0  0  0  0  0  0  0
    4.3162    5.9128   -8.7045 H   0  0  0  0  0  0  0  0  0  0  0  0
  1  2  1  0  0  0  0
  1 29  1  0  0  0  0
  1 30  1  0  0  0  0
  1 31  1  0  0  0  0
  2  3  1  0  0  0  0
  2  5  2  0  0  0  0
  3  4  2  0  0  0  0
  3 32  1  0  0  0  0
  4  5  1  0  0  0  0
  4 33  1  0  0  0  0
  5  6  1  0  0  0  0
  6  7  1  0  0  0  0
  6 34  1  0  0  0  0
  6 35  1  0  0  0  0
  7  8  1  0  0  0  0
  7 28  1  0  0  0  0
  7 36  1  0  0  0  0
  8  9  1  0  0  0  0
  8 37  1  0  0  0  0
  8 38  1  0  0  0  0
  9 10  1  0  0  0  0
  9 39  1  0  0  0  0
  9 40  1  0  0  0  0
 10 11  1  0  0  0  0
 10 41  1  0  0  0  0
 10 42  1  0  0  0  0
 11 12  1  0  0  0  0
 11 43  1  0  0  0  0
 11 44  1  0  0  0  0
 12 13  1  0  0  0  0
 12 45  1  0  0  0  0
 12 46  1  0  0  0  0
 13 14  1  0  0  0  0
 13 47  1  0  0  0  0
 13 48  1  0  0  0  0
 14 15  2  3  0  0  0
 14 49  1  0  0  0  0
 15 16  1  0  0  0  0
 15 50  1  0  0  0  0
 16 17  1  0  0  0  0
 16 51  1  0  0  0  0
 16 52  1  0  0  0  0
 17 18  1  0  0  0  0
 17 53  1  0  0  0  0
 17 54  1  0  0  0  0
 18 19  1  0  0  0  0
 18 55  1  0  0  0  0
 19 20  1  0  0  0  0
 19 56  1  0  0  0  0
 19 57  1  0  0  0  0
 20 21  1  0  0  0  0
 20 58  1  0  0  0  0
 20 59  1  0  0  0  0
 21 22  1  0  0  0  0
 21 60  1  0  0  0  0
 21 61  1  0  0  0  0
 22 23  1  0  0  0  0
 22 62  1  0  0  0  0
 22 63  1  0  0  0  0
 23 24  1  0  0  0  0
 23 64  1  0  0  0  0
 23 65  1  0  0  0  0
 24 25  1  0  0  0  0
 24 66  1  0  0  0  0
 24 67  1  0  0  0  0
 25 26  1  0  0  0  0
 25 68  1  0  0  0  0
 25 69  1  0  0  0  0
 26 27  1  0  0  0  0
 26 70  1  0  0  0  0
 26 71  1  0  0  0  0
 27 28  1  0  0  0  0
 27 72  1  0  0  0  0
 27 73  1  0  0  0  0
 28 74  1  0  0  0  0
 28 75  1  0  0  0  0
M  END
$$$$
