
 OpenBabel04232217023D

 88 87  0  0  0  0  0  0  0  0999 V2000
    9.7076    2.7671   10.1112 O   0  0  0  0  0  0  0  0  0  0  0  0
    9.2602    3.4789    8.9255 O   0  0  0  0  0  0  0  0  0  0  0  0
    9.5031    5.1210    9.0917 S   0  0  0  0  0  0  0  0  0  0  0  0
   11.5781    5.1660    9.2462 S   0  0  0  0  0  0  0  0  0  0  0  0
   12.2046    4.5394    7.6357 C   0  0  0  0  0  0  0  0  0  0  0  0
   11.7415    5.3542    6.5074 N   0  0  0  0  0  0  0  0  0  0  0  0
   12.2465    4.8137    5.2703 N   0  0  0  0  0  0  0  0  0  0  0  0
   11.7739    5.5794    4.1196 N   0  0  0  0  0  0  0  0  0  0  0  0
   12.4419    4.9543    2.7282 S   0  0  0  0  0  0  0  0  0  0  0  0
   11.7076    6.1677    1.2298 S   0  0  0  0  0  0  0  0  0  0  0  0
   12.4118    8.0939    1.5207 S   0  0  0  0  0  0  0  0  0  0  0  0
   14.4886    8.1067    1.4657 S   0  0  0  0  0  0  0  0  0  0  0  0
   15.1680   10.0696    1.8243 S   0  0  0  0  0  0  0  0  0  0  0  0
   17.2789   10.0582    1.8221 S   0  0  0  0  0  0  0  0  0  0  0  0
   17.9702   12.0225    2.1614 S   0  0  0  0  0  0  0  0  0  0  0  0
   20.0798   12.0095    2.1592 S   0  0  0  0  0  0  0  0  0  0  0  0
   20.7705   13.9735    2.4988 S   0  0  0  0  0  0  0  0  0  0  0  0
   22.8799   13.9605    2.4965 S   0  0  0  0  0  0  0  0  0  0  0  0
   23.5705   15.9245    2.8361 S   0  0  0  0  0  0  0  0  0  0  0  0
   25.6799   15.9114    2.8338 S   0  0  0  0  0  0  0  0  0  0  0  0
   26.3705   17.8755    3.1734 S   0  0  0  0  0  0  0  0  0  0  0  0
   28.4799   17.8624    3.1711 S   0  0  0  0  0  0  0  0  0  0  0  0
   29.1705   19.8264    3.5107 S   0  0  0  0  0  0  0  0  0  0  0  0
   31.2799   19.8134    3.5084 S   0  0  0  0  0  0  0  0  0  0  0  0
   31.9705   21.7774    3.8480 S   0  0  0  0  0  0  0  0  0  0  0  0
   34.0799   21.7643    3.8457 S   0  0  0  0  0  0  0  0  0  0  0  0
   34.7705   23.7283    4.1853 S   0  0  0  0  0  0  0  0  0  0  0  0
   36.8799   23.7153    4.1831 S   0  0  0  0  0  0  0  0  0  0  0  0
   37.5705   25.6793    4.5226 S   0  0  0  0  0  0  0  0  0  0  0  0
   39.6799   25.6662    4.5204 S   0  0  0  0  0  0  0  0  0  0  0  0
   40.3705   27.6302    4.8599 S   0  0  0  0  0  0  0  0  0  0  0  0
   42.4798   27.6172    4.8577 S   0  0  0  0  0  0  0  0  0  0  0  0
   43.1705   29.5812    5.1972 S   0  0  0  0  0  0  0  0  0  0  0  0
   45.2798   29.5681    5.1950 S   0  0  0  0  0  0  0  0  0  0  0  0
   45.9705   31.5322    5.5345 S   0  0  0  0  0  0  0  0  0  0  0  0
   48.0798   31.5191    5.5323 S   0  0  0  0  0  0  0  0  0  0  0  0
   48.7705   33.4831    5.8718 S   0  0  0  0  0  0  0  0  0  0  0  0
   50.8798   33.4701    5.8696 S   0  0  0  0  0  0  0  0  0  0  0  0
   51.5704   35.4341    6.2091 S   0  0  0  0  0  0  0  0  0  0  0  0
   53.6798   35.4210    6.2069 S   0  0  0  0  0  0  0  0  0  0  0  0
   54.3704   37.3850    6.5465 S   0  0  0  0  0  0  0  0  0  0  0  0
   56.4798   37.3720    6.5442 S   0  0  0  0  0  0  0  0  0  0  0  0
   57.1704   39.3360    6.8838 S   0  0  0  0  0  0  0  0  0  0  0  0
   59.2798   39.3229    6.8815 S   0  0  0  0  0  0  0  0  0  0  0  0
   59.9704   41.2869    7.2211 S   0  0  0  0  0  0  0  0  0  0  0  0
   62.0798   41.2739    7.2188 S   0  0  0  0  0  0  0  0  0  0  0  0
   62.7704   43.2379    7.5584 S   0  0  0  0  0  0  0  0  0  0  0  0
   64.8798   43.2248    7.5561 S   0  0  0  0  0  0  0  0  0  0  0  0
   65.5704   45.1889    7.8957 S   0  0  0  0  0  0  0  0  0  0  0  0
   67.6798   45.1758    7.8934 S   0  0  0  0  0  0  0  0  0  0  0  0
   68.3704   47.1398    8.2330 S   0  0  0  0  0  0  0  0  0  0  0  0
   70.4798   47.1268    8.2307 S   0  0  0  0  0  0  0  0  0  0  0  0
   71.1704   49.0908    8.5703 S   0  0  0  0  0  0  0  0  0  0  0  0
   73.2798   49.0777    8.5680 S   0  0  0  0  0  0  0  0  0  0  0  0
   73.9704   51.0417    8.9076 S   0  0  0  0  0  0  0  0  0  0  0  0
   76.0798   51.0287    8.9053 S   0  0  0  0  0  0  0  0  0  0  0  0
   76.7704   52.9927    9.2449 S   0  0  0  0  0  0  0  0  0  0  0  0
   78.8797   52.9796    9.2426 S   0  0  0  0  0  0  0  0  0  0  0  0
   79.5704   54.9436    9.5822 S   0  0  0  0  0  0  0  0  0  0  0  0
   81.6797   54.9306    9.5799 S   0  0  0  0  0  0  0  0  0  0  0  0
   82.3704   56.8946    9.9195 S   0  0  0  0  0  0  0  0  0  0  0  0
   84.4797   56.8815    9.9173 S   0  0  0  0  0  0  0  0  0  0  0  0
   85.1704   58.8456   10.2568 S   0  0  0  0  0  0  0  0  0  0  0  0
   87.2797   58.8325   10.2546 S   0  0  0  0  0  0  0  0  0  0  0  0
   87.9703   60.7965   10.5941 S   0  0  0  0  0  0  0  0  0  0  0  0
   90.0797   60.7835   10.5919 S   0  0  0  0  0  0  0  0  0  0  0  0
   90.7703   62.7475   10.9314 S   0  0  0  0  0  0  0  0  0  0  0  0
   92.8797   62.7344   10.9292 S   0  0  0  0  0  0  0  0  0  0  0  0
   93.5703   64.6984   11.2687 S   0  0  0  0  0  0  0  0  0  0  0  0
   95.6797   64.6854   11.2665 S   0  0  0  0  0  0  0  0  0  0  0  0
   96.3703   66.6494   11.6060 S   0  0  0  0  0  0  0  0  0  0  0  0
   98.4797   66.6363   11.6038 S   0  0  0  0  0  0  0  0  0  0  0  0
   99.1703   68.6003   11.9433 S   0  0  0  0  0  0  0  0  0  0  0  0
  101.2797   68.5873   11.9411 S   0  0  0  0  0  0  0  0  0  0  0  0
  101.9703   70.5513   12.2808 S   0  0  0  0  0  0  0  0  0  0  0  0
  104.0788   70.5381   12.2779 S   0  0  0  0  0  0  0  0  0  0  0  0
  104.7679   72.5007   12.6176 S   0  0  0  0  0  0  0  0  0  0  0  0
  106.8685   72.4734   12.6311 S   0  0  0  0  0  0  0  0  0  0  0  0
  107.5622   74.4207   12.9061 S   0  0  0  0  0  0  0  0  0  0  0  0
  109.6496   74.3739   12.9407 S   0  0  0  0  0  0  0  0  0  0  0  0
  110.2678   73.7557   11.0770 S   0  0  0  0  0  0  0  0  0  0  0  0
    9.4388    1.8491    9.7631 H   0  0  0  0  0  0  0  0  0  0  0  0
   11.8894    3.4921    7.5500 H   0  0  0  0  0  0  0  0  0  0  0  0
   13.3063    4.5345    7.6885 H   0  0  0  0  0  0  0  0  0  0  0  0
   12.1003    6.2895    6.6465 H   0  0  0  0  0  0  0  0  0  0  0  0
   11.9088    3.8530    5.1734 H   0  0  0  0  0  0  0  0  0  0  0  0
   12.1062    6.5431    4.2592 H   0  0  0  0  0  0  0  0  0  0  0  0
  111.6174   73.7545   11.1545 H   0  0  0  0  0  0  0  0  0  0  0  0
  1  2  1  0  0  0  0
  1 82  1  0  0  0  0
  2  3  1  0  0  0  0
  3  4  1  0  0  0  0
  4  5  1  0  0  0  0
  5  6  1  0  0  0  0
  5 83  1  0  0  0  0
  5 84  1  0  0  0  0
  6  7  1  0  0  0  0
  6 85  1  0  0  0  0
  7  8  1  0  0  0  0
  7 86  1  0  0  0  0
  8  9  1  0  0  0  0
  8 87  1  0  0  0  0
  9 10  1  0  0  0  0
 10 11  1  0  0  0  0
 11 12  1  0  0  0  0
 12 13  1  0  0  0  0
 13 14  1  0  0  0  0
 14 15  1  0  0  0  0
 15 16  1  0  0  0  0
 16 17  1  0  0  0  0
 17 18  1  0  0  0  0
 18 19  1  0  0  0  0
 19 20  1  0  0  0  0
 20 21  1  0  0  0  0
 21 22  1  0  0  0  0
 22 23  1  0  0  0  0
 23 24  1  0  0  0  0
 24 25  1  0  0  0  0
 25 26  1  0  0  0  0
 26 27  1  0  0  0  0
 27 28  1  0  0  0  0
 28 29  1  0  0  0  0
 29 30  1  0  0  0  0
 30 31  1  0  0  0  0
 31 32  1  0  0  0  0
 32 33  1  0  0  0  0
 33 34  1  0  0  0  0
 34 35  1  0  0  0  0
 35 36  1  0  0  0  0
 36 37  1  0  0  0  0
 37 38  1  0  0  0  0
 38 39  1  0  0  0  0
 39 40  1  0  0  0  0
 40 41  1  0  0  0  0
 41 42  1  0  0  0  0
 42 43  1  0  0  0  0
 43 44  1  0  0  0  0
 44 45  1  0  0  0  0
 45 46  1  0  0  0  0
 46 47  1  0  0  0  0
 47 48  1  0  0  0  0
 48 49  1  0  0  0  0
 49 50  1  0  0  0  0
 50 51  1  0  0  0  0
 51 52  1  0  0  0  0
 52 53  1  0  0  0  0
 53 54  1  0  0  0  0
 54 55  1  0  0  0  0
 55 56  1  0  0  0  0
 56 57  1  0  0  0  0
 57 58  1  0  0  0  0
 58 59  1  0  0  0  0
 59 60  1  0  0  0  0
 60 61  1  0  0  0  0
 61 62  1  0  0  0  0
 62 63  1  0  0  0  0
 63 64  1  0  0  0  0
 64 65  1  0  0  0  0
 65 66  1  0  0  0  0
 66 67  1  0  0  0  0
 67 68  1  0  0  0  0
 68 69  1  0  0  0  0
 69 70  1  0  0  0  0
 70 71  1  0  0  0  0
 71 72  1  0  0  0  0
 72 73  1  0  0  0  0
 73 74  1  0  0  0  0
 74 75  1  0  0  0  0
 75 76  1  0  0  0  0
 76 77  1  0  0  0  0
 77 78  1  0  0  0  0
 78 79  1  0  0  0  0
 79 80  1  0  0  0  0
 80 81  1  0  0  0  0
 81 88  1  0  0  0  0
M  END
$$$$
