
 OpenBabel04232216403D

220219  0  0  0  0  0  0  0  0999 V2000
    1.5662    1.0500    0.3226 C   0  0  0  0  0  0  0  0  0  0  0  0
    2.4034    0.0823   -0.0198 C   0  0  0  0  0  0  0  0  0  0  0  0
    3.1823    0.1130   -1.2901 C   0  0  0  0  0  0  0  0  0  0  0  0
    4.6733    0.0990   -1.0159 C   0  0  0  0  0  0  0  0  0  0  0  0
    5.4384    0.1374   -2.3288 C   0  0  0  0  0  0  0  0  0  0  0  0
    6.9306    0.1199   -2.0573 C   0  0  0  0  0  0  0  0  0  0  0  0
    7.6905    0.1597   -3.3675 C   0  0  0  0  0  0  0  0  0  0  0  0
    9.1790    0.1441   -3.0937 C   0  0  0  0  0  0  0  0  0  0  0  0
    9.9240    0.1840   -4.4042 C   0  0  0  0  0  0  0  0  0  0  0  0
   11.3972    0.1704   -4.1274 C   0  0  0  0  0  0  0  0  0  0  0  0
   12.1202    0.2122   -5.4292 C   0  0  0  0  0  0  0  0  0  0  0  0
   13.4564    0.1973   -5.0431 O   0  0  0  0  0  0  0  0  0  0  0  0
   14.1190    0.2353   -6.2850 O   0  0  0  0  0  0  0  0  0  0  0  0
   15.4839    0.2217   -6.0180 O   0  0  0  0  0  0  0  0  0  0  0  0
   16.1493    0.2594   -7.2455 O   0  0  0  0  0  0  0  0  0  0  0  0
   17.5101    0.2475   -6.9571 O   0  0  0  0  0  0  0  0  0  0  0  0
   18.1828    0.2822   -8.1718 O   0  0  0  0  0  0  0  0  0  0  0  0
   19.5435    0.2724   -7.8833 O   0  0  0  0  0  0  0  0  0  0  0  0
   20.2089    0.3102   -9.1109 O   0  0  0  0  0  0  0  0  0  0  0  0
   21.5738    0.2985   -8.8439 O   0  0  0  0  0  0  0  0  0  0  0  0
   22.2364    0.3343  -10.0857 O   0  0  0  0  0  0  0  0  0  0  0  0
   23.5725    0.3216   -9.6993 C   0  0  0  0  0  0  0  0  0  0  0  0
   24.2955    0.3613  -11.0013 C   0  0  0  0  0  0  0  0  0  0  0  0
   25.7688    0.3497  -10.7245 C   0  0  0  0  0  0  0  0  0  0  0  0
   26.5137    0.3897  -12.0350 C   0  0  0  0  0  0  0  0  0  0  0  0
   28.0011    0.3801  -11.7611 C   0  0  0  0  0  0  0  0  0  0  0  0
   28.7602    0.4200  -13.0703 C   0  0  0  0  0  0  0  0  0  0  0  0
   30.2508    0.4105  -12.7974 C   0  0  0  0  0  0  0  0  0  0  0  0
   31.0129    0.4504  -14.1073 C   0  0  0  0  0  0  0  0  0  0  0  0
   32.5045    0.4409  -13.8352 C   0  0  0  0  0  0  0  0  0  0  0  0
   33.2670    0.4809  -15.1452 C   0  0  0  0  0  0  0  0  0  0  0  0
   34.7588    0.4714  -14.8733 C   0  0  0  0  0  0  0  0  0  0  0  0
   35.5214    0.5133  -16.1833 C   0  0  0  0  0  0  0  0  0  0  0  0
   37.0132    0.5039  -15.9114 C   0  0  0  0  0  0  0  0  0  0  0  0
   37.7758    0.5458  -17.2214 C   0  0  0  0  0  0  0  0  0  0  0  0
   39.2676    0.5363  -16.9495 C   0  0  0  0  0  0  0  0  0  0  0  0
   40.0303    0.5762  -18.2595 C   0  0  0  0  0  0  0  0  0  0  0  0
   41.5220    0.5648  -17.9877 C   0  0  0  0  0  0  0  0  0  0  0  0
   42.2847    0.6026  -19.2978 C   0  0  0  0  0  0  0  0  0  0  0  0
   43.7764    0.5932  -19.0259 C   0  0  0  0  0  0  0  0  0  0  0  0
   44.5391    0.6291  -20.3361 C   0  0  0  0  0  0  0  0  0  0  0  0
   46.0309    0.6216  -20.0641 C   0  0  0  0  0  0  0  0  0  0  0  0
   46.7935    0.6575  -21.3743 C   0  0  0  0  0  0  0  0  0  0  0  0
   48.2853    0.6500  -21.1023 C   0  0  0  0  0  0  0  0  0  0  0  0
   49.0479    0.6859  -22.4125 C   0  0  0  0  0  0  0  0  0  0  0  0
   50.5397    0.6785  -22.1405 C   0  0  0  0  0  0  0  0  0  0  0  0
   51.3023    0.7143  -23.4507 C   0  0  0  0  0  0  0  0  0  0  0  0
   52.7941    0.7049  -23.1788 C   0  0  0  0  0  0  0  0  0  0  0  0
   53.5567    0.7388  -24.4890 C   0  0  0  0  0  0  0  0  0  0  0  0
   55.0485    0.7313  -24.2171 C   0  0  0  0  0  0  0  0  0  0  0  0
   55.8111    0.7651  -25.5273 C   0  0  0  0  0  0  0  0  0  0  0  0
   57.3029    0.7557  -25.2554 C   0  0  0  0  0  0  0  0  0  0  0  0
   58.0655    0.7875  -26.5657 C   0  0  0  0  0  0  0  0  0  0  0  0
   59.5573    0.7800  -26.2937 C   0  0  0  0  0  0  0  0  0  0  0  0
   60.3199    0.8139  -27.6040 C   0  0  0  0  0  0  0  0  0  0  0  0
   61.8117    0.8045  -27.3321 C   0  0  0  0  0  0  0  0  0  0  0  0
   62.5743    0.8403  -28.6422 C   0  0  0  0  0  0  0  0  0  0  0  0
   64.0661    0.8309  -28.3703 C   0  0  0  0  0  0  0  0  0  0  0  0
   64.8287    0.8687  -29.6805 C   0  0  0  0  0  0  0  0  0  0  0  0
   66.3205    0.8593  -29.4085 C   0  0  0  0  0  0  0  0  0  0  0  0
   67.0831    0.8972  -30.7187 C   0  0  0  0  0  0  0  0  0  0  0  0
   68.5749    0.8877  -30.4468 C   0  0  0  0  0  0  0  0  0  0  0  0
   69.3375    0.9256  -31.7569 C   0  0  0  0  0  0  0  0  0  0  0  0
   70.8293    0.9161  -31.4850 C   0  0  0  0  0  0  0  0  0  0  0  0
   71.5919    0.9540  -32.7951 C   0  0  0  0  0  0  0  0  0  0  0  0
   73.0837    0.9446  -32.5232 C   0  0  0  0  0  0  0  0  0  0  0  0
   73.8463    0.9825  -33.8333 C   0  0  0  0  0  0  0  0  0  0  0  0
   75.3381    0.9730  -33.5614 C   0  0  0  0  0  0  0  0  0  0  0  0
   76.1007    1.0089  -34.8716 C   0  0  0  0  0  0  0  0  0  0  0  0
   77.5925    0.9994  -34.5997 C   0  0  0  0  0  0  0  0  0  0  0  0
   78.3551    1.0353  -35.9099 C   0  0  0  0  0  0  0  0  0  0  0  0
   79.8469    1.0258  -35.6380 C   0  0  0  0  0  0  0  0  0  0  0  0
   80.6095    1.0617  -36.9482 C   0  0  0  0  0  0  0  0  0  0  0  0
   82.1014    1.0522  -36.6762 C   0  0  0  0  0  0  0  0  0  0  0  0
   82.8643    1.0861  -37.9867 C   0  0  0  0  0  0  0  0  0  0  0  0
   84.3564    1.0767  -37.7153 C   0  0  0  0  0  0  0  0  0  0  0  0
   85.1197    1.1105  -39.0262 C   0  0  0  0  0  0  0  0  0  0  0  0
   86.6072    1.1029  -38.7571 C   0  0  0  0  0  0  0  0  0  0  0  0
   87.3840    1.1350  -40.0659 C   0  0  0  0  0  0  0  0  0  0  0  0
   88.8738    1.1275  -39.7928 C   0  0  0  0  0  0  0  0  0  0  0  0
    0.9968    1.0245    1.2635 H   0  0  0  0  0  0  0  0  0  0  0  0
    1.4009    1.9256   -0.3164 H   0  0  0  0  0  0  0  0  0  0  0  0
    2.5262   -0.7628    0.6598 H   0  0  0  0  0  0  0  0  0  0  0  0
    2.9271    1.0158   -1.8613 H   0  0  0  0  0  0  0  0  0  0  0  0
    2.9049   -0.7488   -1.9051 H   0  0  0  0  0  0  0  0  0  0  0  0
    4.9470   -0.8045   -0.4577 H   0  0  0  0  0  0  0  0  0  0  0  0
    4.9566    0.9624   -0.4006 H   0  0  0  0  0  0  0  0  0  0  0  0
    5.1748    1.0413   -2.8923 H   0  0  0  0  0  0  0  0  0  0  0  0
    5.1645   -0.7250   -2.9494 H   0  0  0  0  0  0  0  0  0  0  0  0
    7.2002   -0.7847   -1.4991 H   0  0  0  0  0  0  0  0  0  0  0  0
    7.2102    0.9818   -1.4396 H   0  0  0  0  0  0  0  0  0  0  0  0
    7.4267    1.0637   -3.9295 H   0  0  0  0  0  0  0  0  0  0  0  0
    7.4188   -0.7029   -3.9878 H   0  0  0  0  0  0  0  0  0  0  0  0
    9.4537   -0.7597   -2.5361 H   0  0  0  0  0  0  0  0  0  0  0  0
    9.4613    1.0069   -2.4779 H   0  0  0  0  0  0  0  0  0  0  0  0
    9.6647    1.0883   -4.9689 H   0  0  0  0  0  0  0  0  0  0  0  0
    9.6591   -0.6801   -5.0260 H   0  0  0  0  0  0  0  0  0  0  0  0
   11.6996   -0.7264   -3.5717 H   0  0  0  0  0  0  0  0  0  0  0  0
   11.7047    1.0262   -3.5128 H   0  0  0  0  0  0  0  0  0  0  0  0
   11.9149    1.1266   -5.9976 H   0  0  0  0  0  0  0  0  0  0  0  0
   11.9117   -0.6622   -6.0566 H   0  0  0  0  0  0  0  0  0  0  0  0
   23.7787   -0.5915   -9.1291 H   0  0  0  0  0  0  0  0  0  0  0  0
   23.7802    1.1975   -9.0739 H   0  0  0  0  0  0  0  0  0  0  0  0
   23.9922    1.2568  -11.5588 H   0  0  0  0  0  0  0  0  0  0  0  0
   23.9888   -0.4960  -11.6142 H   0  0  0  0  0  0  0  0  0  0  0  0
   26.0291   -0.5538  -10.1591 H   0  0  0  0  0  0  0  0  0  0  0  0
   26.0324    1.2148  -10.1033 H   0  0  0  0  0  0  0  0  0  0  0  0
   26.2358    1.2913  -12.5945 H   0  0  0  0  0  0  0  0  0  0  0  0
   26.2344   -0.4753  -12.6490 H   0  0  0  0  0  0  0  0  0  0  0  0
   28.2692   -0.5217  -11.1970 H   0  0  0  0  0  0  0  0  0  0  0  0
   28.2704    1.2451  -11.1425 H   0  0  0  0  0  0  0  0  0  0  0  0
   28.4875    1.3218  -13.6320 H   0  0  0  0  0  0  0  0  0  0  0  0
   28.4862   -0.4450  -13.6866 H   0  0  0  0  0  0  0  0  0  0  0  0
   30.5214   -0.4912  -12.2345 H   0  0  0  0  0  0  0  0  0  0  0  0
   30.5226    1.2754  -12.1800 H   0  0  0  0  0  0  0  0  0  0  0  0
   30.7414    1.3522  -14.6697 H   0  0  0  0  0  0  0  0  0  0  0  0
   30.7402   -0.4145  -14.7242 H   0  0  0  0  0  0  0  0  0  0  0  0
   32.7756   -0.4608  -13.2726 H   0  0  0  0  0  0  0  0  0  0  0  0
   32.7769    1.3059  -13.2180 H   0  0  0  0  0  0  0  0  0  0  0  0
   32.9958    1.3826  -15.7077 H   0  0  0  0  0  0  0  0  0  0  0  0
   32.9945   -0.3840  -15.7623 H   0  0  0  0  0  0  0  0  0  0  0  0
   35.0302   -0.4310  -14.3120 H   0  0  0  0  0  0  0  0  0  0  0  0
   35.0311    1.3355  -14.2550 H   0  0  0  0  0  0  0  0  0  0  0  0
   35.2500    1.4158  -16.7446 H   0  0  0  0  0  0  0  0  0  0  0  0
   35.2491   -0.3508  -16.8016 H   0  0  0  0  0  0  0  0  0  0  0  0
   37.2847   -0.3986  -15.3501 H   0  0  0  0  0  0  0  0  0  0  0  0
   37.2855    1.3680  -15.2931 H   0  0  0  0  0  0  0  0  0  0  0  0
   37.5044    1.4482  -17.7827 H   0  0  0  0  0  0  0  0  0  0  0  0
   37.5035   -0.3184  -17.8397 H   0  0  0  0  0  0  0  0  0  0  0  0
   39.5388   -0.3654  -16.3869 H   0  0  0  0  0  0  0  0  0  0  0  0
   39.5401    1.4012  -16.3323 H   0  0  0  0  0  0  0  0  0  0  0  0
   39.7601    1.4787  -18.8215 H   0  0  0  0  0  0  0  0  0  0  0  0
   39.7567   -0.2879  -18.8772 H   0  0  0  0  0  0  0  0  0  0  0  0
   41.7920   -0.3370  -17.4245 H   0  0  0  0  0  0  0  0  0  0  0  0
   41.7958    1.4297  -17.3711 H   0  0  0  0  0  0  0  0  0  0  0  0
   42.0137    1.5037  -19.8616 H   0  0  0  0  0  0  0  0  0  0  0  0
   42.0119   -0.2631  -19.9137 H   0  0  0  0  0  0  0  0  0  0  0  0
   44.0473   -0.3071  -18.4608 H   0  0  0  0  0  0  0  0  0  0  0  0
   44.0493    1.4597  -18.4112 H   0  0  0  0  0  0  0  0  0  0  0  0
   44.2672    1.5286  -20.9018 H   0  0  0  0  0  0  0  0  0  0  0  0
   44.2672   -0.2382  -20.9502 H   0  0  0  0  0  0  0  0  0  0  0  0
   46.3027   -0.2780  -19.4984 H   0  0  0  0  0  0  0  0  0  0  0  0
   46.3027    1.4889  -19.4500 H   0  0  0  0  0  0  0  0  0  0  0  0
   46.5216    1.5570  -21.9400 H   0  0  0  0  0  0  0  0  0  0  0  0
   46.5216   -0.2098  -21.9884 H   0  0  0  0  0  0  0  0  0  0  0  0
   48.5571   -0.2495  -20.5366 H   0  0  0  0  0  0  0  0  0  0  0  0
   48.5571    1.5173  -20.4882 H   0  0  0  0  0  0  0  0  0  0  0  0
   48.7760    1.5855  -22.9782 H   0  0  0  0  0  0  0  0  0  0  0  0
   48.7760   -0.1814  -23.0266 H   0  0  0  0  0  0  0  0  0  0  0  0
   50.8115   -0.2211  -21.5748 H   0  0  0  0  0  0  0  0  0  0  0  0
   50.8116    1.5457  -21.5264 H   0  0  0  0  0  0  0  0  0  0  0  0
   51.0315    1.6146  -24.0158 H   0  0  0  0  0  0  0  0  0  0  0  0
   51.0293   -0.1522  -24.0654 H   0  0  0  0  0  0  0  0  0  0  0  0
   53.0647   -0.1947  -22.6125 H   0  0  0  0  0  0  0  0  0  0  0  0
   53.0672    1.5721  -22.5653 H   0  0  0  0  0  0  0  0  0  0  0  0
   53.2851    1.6376  -25.0560 H   0  0  0  0  0  0  0  0  0  0  0  0
   53.2846   -0.1293  -25.1019 H   0  0  0  0  0  0  0  0  0  0  0  0
   55.3201   -0.1676  -23.6501 H   0  0  0  0  0  0  0  0  0  0  0  0
   55.3206    1.5993  -23.6042 H   0  0  0  0  0  0  0  0  0  0  0  0
   55.5405    1.6647  -26.0936 H   0  0  0  0  0  0  0  0  0  0  0  0
   55.5379   -0.1022  -26.1408 H   0  0  0  0  0  0  0  0  0  0  0  0
   57.5733   -0.1432  -24.6879 H   0  0  0  0  0  0  0  0  0  0  0  0
   57.5762    1.6237  -24.6431 H   0  0  0  0  0  0  0  0  0  0  0  0
   57.7941    1.6857  -27.1339 H   0  0  0  0  0  0  0  0  0  0  0  0
   57.7932   -0.0813  -27.1774 H   0  0  0  0  0  0  0  0  0  0  0  0
   59.8289   -0.1188  -25.7267 H   0  0  0  0  0  0  0  0  0  0  0  0
   59.8294    1.6481  -25.6809 H   0  0  0  0  0  0  0  0  0  0  0  0
   60.0493    1.7135  -28.1702 H   0  0  0  0  0  0  0  0  0  0  0  0
   60.0468   -0.0534  -28.2175 H   0  0  0  0  0  0  0  0  0  0  0  0
   62.0825   -0.0958  -26.7670 H   0  0  0  0  0  0  0  0  0  0  0  0
   62.0846    1.6710  -26.7174 H   0  0  0  0  0  0  0  0  0  0  0  0
   62.3035    1.7406  -29.2073 H   0  0  0  0  0  0  0  0  0  0  0  0
   62.3014   -0.0262  -29.2570 H   0  0  0  0  0  0  0  0  0  0  0  0
   64.3371   -0.0701  -27.8065 H   0  0  0  0  0  0  0  0  0  0  0  0
   64.3388    1.6966  -27.7545 H   0  0  0  0  0  0  0  0  0  0  0  0
   64.5577    1.7698  -30.2443 H   0  0  0  0  0  0  0  0  0  0  0  0
   64.5560    0.0030  -30.2964 H   0  0  0  0  0  0  0  0  0  0  0  0
   66.5915   -0.0417  -28.8447 H   0  0  0  0  0  0  0  0  0  0  0  0
   66.5932    1.7250  -28.7926 H   0  0  0  0  0  0  0  0  0  0  0  0
   66.8121    1.7982  -31.2825 H   0  0  0  0  0  0  0  0  0  0  0  0
   66.8104    0.0315  -31.3346 H   0  0  0  0  0  0  0  0  0  0  0  0
   68.8459   -0.0133  -29.8830 H   0  0  0  0  0  0  0  0  0  0  0  0
   68.8476    1.7534  -29.8309 H   0  0  0  0  0  0  0  0  0  0  0  0
   69.0665    1.8266  -32.3207 H   0  0  0  0  0  0  0  0  0  0  0  0
   69.0648    0.0599  -32.3728 H   0  0  0  0  0  0  0  0  0  0  0  0
   71.1003    0.0151  -30.9212 H   0  0  0  0  0  0  0  0  0  0  0  0
   71.1020    1.7819  -30.8691 H   0  0  0  0  0  0  0  0  0  0  0  0
   71.3209    1.8551  -33.3589 H   0  0  0  0  0  0  0  0  0  0  0  0
   71.3192    0.0883  -33.4110 H   0  0  0  0  0  0  0  0  0  0  0  0
   73.3547    0.0436  -31.9594 H   0  0  0  0  0  0  0  0  0  0  0  0
   73.3564    1.8103  -31.9073 H   0  0  0  0  0  0  0  0  0  0  0  0
   73.5753    1.8835  -34.3972 H   0  0  0  0  0  0  0  0  0  0  0  0
   73.5736    0.1167  -34.4492 H   0  0  0  0  0  0  0  0  0  0  0  0
   75.6089    0.0727  -32.9964 H   0  0  0  0  0  0  0  0  0  0  0  0
   75.6110    1.8395  -32.9467 H   0  0  0  0  0  0  0  0  0  0  0  0
   75.8299    1.9092  -35.4367 H   0  0  0  0  0  0  0  0  0  0  0  0
   75.8278    0.1424  -35.4863 H   0  0  0  0  0  0  0  0  0  0  0  0
   77.8633    0.0991  -34.0346 H   0  0  0  0  0  0  0  0  0  0  0  0
   77.8655    1.8659  -33.9850 H   0  0  0  0  0  0  0  0  0  0  0  0
   78.0843    1.9356  -36.4749 H   0  0  0  0  0  0  0  0  0  0  0  0
   78.0822    0.1688  -36.5246 H   0  0  0  0  0  0  0  0  0  0  0  0
   80.1177    0.1255  -35.0729 H   0  0  0  0  0  0  0  0  0  0  0  0
   80.1199    1.8923  -35.0233 H   0  0  0  0  0  0  0  0  0  0  0  0
   80.3388    1.9620  -37.5132 H   0  0  0  0  0  0  0  0  0  0  0  0
   80.3366    0.1952  -37.5628 H   0  0  0  0  0  0  0  0  0  0  0  0
   82.3719    0.1526  -36.1100 H   0  0  0  0  0  0  0  0  0  0  0  0
   82.3745    1.9195  -36.0627 H   0  0  0  0  0  0  0  0  0  0  0  0
   82.5933    1.9857  -38.5528 H   0  0  0  0  0  0  0  0  0  0  0  0
   82.5907    0.2188  -38.6000 H   0  0  0  0  0  0  0  0  0  0  0  0
   84.6264    0.1771  -37.1485 H   0  0  0  0  0  0  0  0  0  0  0  0
   84.6290    1.9439  -37.1013 H   0  0  0  0  0  0  0  0  0  0  0  0
   84.8472    2.0093  -39.5923 H   0  0  0  0  0  0  0  0  0  0  0  0
   84.8466    0.2425  -39.6382 H   0  0  0  0  0  0  0  0  0  0  0  0
   86.8822    0.2054  -38.1857 H   0  0  0  0  0  0  0  0  0  0  0  0
   86.8830    1.9715  -38.1422 H   0  0  0  0  0  0  0  0  0  0  0  0
   87.1167    2.0332  -40.6349 H   0  0  0  0  0  0  0  0  0  0  0  0
   87.1158    0.2661  -40.6784 H   0  0  0  0  0  0  0  0  0  0  0  0
   89.1592    2.0002  -39.1972 H   0  0  0  0  0  0  0  0  0  0  0  0
   89.4305    1.1503  -40.7325 H   0  0  0  0  0  0  0  0  0  0  0  0
   89.1583    0.2262  -39.2409 H   0  0  0  0  0  0  0  0  0  0  0  0
  1  2  2  0  0  0  0
  1 81  1  0  0  0  0
  1 82  1  0  0  0  0
  2  3  1  0  0  0  0
  2 83  1  0  0  0  0
  3  4  1  0  0  0  0
  3 84  1  0  0  0  0
  3 85  1  0  0  0  0
  4  5  1  0  0  0  0
  4 86  1  0  0  0  0
  4 87  1  0  0  0  0
  5  6  1  0  0  0  0
  5 88  1  0  0  0  0
  5 89  1  0  0  0  0
  6  7  1  0  0  0  0
  6 90  1  0  0  0  0
  6 91  1  0  0  0  0
  7  8  1  0  0  0  0
  7 92  1  0  0  0  0
  7 93  1  0  0  0  0
  8  9  1  0  0  0  0
  8 94  1  0  0  0  0
  8 95  1  0  0  0  0
  9 10  1  0  0  0  0
  9 96  1  0  0  0  0
  9 97  1  0  0  0  0
 10 11  1  0  0  0  0
 10 98  1  0  0  0  0
 10 99  1  0  0  0  0
 11 12  1  0  0  0  0
 11100  1  0  0  0  0
 11101  1  0  0  0  0
 12 13  1  0  0  0  0
 13 14  1  0  0  0  0
 14 15  1  0  0  0  0
 15 16  1  0  0  0  0
 16 17  1  0  0  0  0
 17 18  1  0  0  0  0
 18 19  1  0  0  0  0
 19 20  1  0  0  0  0
 20 21  1  0  0  0  0
 21 22  1  0  0  0  0
 22 23  1  0  0  0  0
 22102  1  0  0  0  0
 22103  1  0  0  0  0
 23 24  1  0  0  0  0
 23104  1  0  0  0  0
 23105  1  0  0  0  0
 24 25  1  0  0  0  0
 24106  1  0  0  0  0
 24107  1  0  0  0  0
 25 26  1  0  0  0  0
 25108  1  0  0  0  0
 25109  1  0  0  0  0
 26 27  1  0  0  0  0
 26110  1  0  0  0  0
 26111  1  0  0  0  0
 27 28  1  0  0  0  0
 27112  1  0  0  0  0
 27113  1  0  0  0  0
 28 29  1  0  0  0  0
 28114  1  0  0  0  0
 28115  1  0  0  0  0
 29 30  1  0  0  0  0
 29116  1  0  0  0  0
 29117  1  0  0  0  0
 30 31  1  0  0  0  0
 30118  1  0  0  0  0
 30119  1  0  0  0  0
 31 32  1  0  0  0  0
 31120  1  0  0  0  0
 31121  1  0  0  0  0
 32 33  1  0  0  0  0
 32122  1  0  0  0  0
 32123  1  0  0  0  0
 33 34  1  0  0  0  0
 33124  1  0  0  0  0
 33125  1  0  0  0  0
 34 35  1  0  0  0  0
 34126  1  0  0  0  0
 34127  1  0  0  0  0
 35 36  1  0  0  0  0
 35128  1  0  0  0  0
 35129  1  0  0  0  0
 36 37  1  0  0  0  0
 36130  1  0  0  0  0
 36131  1  0  0  0  0
 37 38  1  0  0  0  0
 37132  1  0  0  0  0
 37133  1  0  0  0  0
 38 39  1  0  0  0  0
 38134  1  0  0  0  0
 38135  1  0  0  0  0
 39 40  1  0  0  0  0
 39136  1  0  0  0  0
 39137  1  0  0  0  0
 40 41  1  0  0  0  0
 40138  1  0  0  0  0
 40139  1  0  0  0  0
 41 42  1  0  0  0  0
 41140  1  0  0  0  0
 41141  1  0  0  0  0
 42 43  1  0  0  0  0
 42142  1  0  0  0  0
 42143  1  0  0  0  0
 43 44  1  0  0  0  0
 43144  1  0  0  0  0
 43145  1  0  0  0  0
 44 45  1  0  0  0  0
 44146  1  0  0  0  0
 44147  1  0  0  0  0
 45 46  1  0  0  0  0
 45148  1  0  0  0  0
 45149  1  0  0  0  0
 46 47  1  0  0  0  0
 46150  1  0  0  0  0
 46151  1  0  0  0  0
 47 48  1  0  0  0  0
 47152  1  0  0  0  0
 47153  1  0  0  0  0
 48 49  1  0  0  0  0
 48154  1  0  0  0  0
 48155  1  0  0  0  0
 49 50  1  0  0  0  0
 49156  1  0  0  0  0
 49157  1  0  0  0  0
 50 51  1  0  0  0  0
 50158  1  0  0  0  0
 50159  1  0  0  0  0
 51 52  1  0  0  0  0
 51160  1  0  0  0  0
 51161  1  0  0  0  0
 52 53  1  0  0  0  0
 52162  1  0  0  0  0
 52163  1  0  0  0  0
 53 54  1  0  0  0  0
 53164  1  0  0  0  0
 53165  1  0  0  0  0
 54 55  1  0  0  0  0
 54166  1  0  0  0  0
 54167  1  0  0  0  0
 55 56  1  0  0  0  0
 55168  1  0  0  0  0
 55169  1  0  0  0  0
 56 57  1  0  0  0  0
 56170  1  0  0  0  0
 56171  1  0  0  0  0
 57 58  1  0  0  0  0
 57172  1  0  0  0  0
 57173  1  0  0  0  0
 58 59  1  0  0  0  0
 58174  1  0  0  0  0
 58175  1  0  0  0  0
 59 60  1  0  0  0  0
 59176  1  0  0  0  0
 59177  1  0  0  0  0
 60 61  1  0  0  0  0
 60178  1  0  0  0  0
 60179  1  0  0  0  0
 61 62  1  0  0  0  0
 61180  1  0  0  0  0
 61181  1  0  0  0  0
 62 63  1  0  0  0  0
 62182  1  0  0  0  0
 62183  1  0  0  0  0
 63 64  1  0  0  0  0
 63184  1  0  0  0  0
 63185  1  0  0  0  0
 64 65  1  0  0  0  0
 64186  1  0  0  0  0
 64187  1  0  0  0  0
 65 66  1  0  0  0  0
 65188  1  0  0  0  0
 65189  1  0  0  0  0
 66 67  1  0  0  0  0
 66190  1  0  0  0  0
 66191  1  0  0  0  0
 67 68  1  0  0  0  0
 67192  1  0  0  0  0
 67193  1  0  0  0  0
 68 69  1  0  0  0  0
 68194  1  0  0  0  0
 68195  1  0  0  0  0
 69 70  1  0  0  0  0
 69196  1  0  0  0  0
 69197  1  0  0  0  0
 70 71  1  0  0  0  0
 70198  1  0  0  0  0
 70199  1  0  0  0  0
 71 72  1  0  0  0  0
 71200  1  0  0  0  0
 71201  1  0  0  0  0
 72 73  1  0  0  0  0
 72202  1  0  0  0  0
 72203  1  0  0  0  0
 73 74  1  0  0  0  0
 73204  1  0  0  0  0
 73205  1  0  0  0  0
 74 75  1  0  0  0  0
 74206  1  0  0  0  0
 74207  1  0  0  0  0
 75 76  1  0  0  0  0
 75208  1  0  0  0  0
 75209  1  0  0  0  0
 76 77  1  0  0  0  0
 76210  1  0  0  0  0
 76211  1  0  0  0  0
 77 78  1  0  0  0  0
 77212  1  0  0  0  0
 77213  1  0  0  0  0
 78 79  1  0  0  0  0
 78214  1  0  0  0  0
 78215  1  0  0  0  0
 79 80  1  0  0  0  0
 79216  1  0  0  0  0
 79217  1  0  0  0  0
 80218  1  0  0  0  0
 80219  1  0  0  0  0
 80220  1  0  0  0  0
M  END
$$$$
