
 OpenBabel04232216473D

 60 61  0  0  1  0  0  0  0  0999 V2000
    6.8042    1.9188   -0.9249 C   0  0  0  0  0  0  0  0  0  0  0  0
    8.5684    2.1796   -1.4061 C   0  0  0  0  0  0  0  0  0  0  0  0
    9.7095    3.6073   -1.0624 C   0  0  0  0  0  0  0  0  0  0  0  0
   11.1890    4.4031   -1.5032 C   0  0  0  0  0  0  0  0  0  0  0  0
   12.1424    5.4171   -2.6676 C   0  0  0  0  0  0  0  0  0  0  0  0
   14.0205    6.0340   -3.1919 C   0  0  3  0  0  0  0  0  0  0  0  0
   15.5904    7.1938   -3.1405 C   0  0  0  0  0  0  0  0  0  0  0  0
   17.1804    7.4233   -4.2061 C   0  0  0  0  0  0  0  0  0  0  0  0
   10.7085    5.6915   -3.4621 C   0  0  0  0  0  0  0  0  0  0  0  0
    9.1027    4.8531   -3.3714 C   0  0  0  0  0  0  0  0  0  0  0  0
    7.4683    4.7286   -3.8111 C   0  0  0  0  0  0  0  0  0  0  0  0
    6.0568    4.8061   -3.1148 C   0  0  0  0  0  0  0  0  0  0  0  0
    5.7047    6.2118   -2.8339 C   0  0  0  0  0  0  0  0  0  0  0  0
    9.3772    3.5672   -3.5082 C   0  0  0  0  0  0  0  0  0  0  0  0
    8.7938    2.4212   -4.2648 C   0  0  0  0  0  0  0  0  0  0  0  0
    9.6896    1.4883   -3.8932 C   0  0  0  0  0  0  0  0  0  0  0  0
   11.0051    2.2974   -4.7751 C   0  0  0  0  0  0  0  0  0  0  0  0
   12.4483    2.6373   -4.4275 C   0  0  0  0  0  0  0  0  0  0  0  0
   13.0690    3.7980   -5.2609 C   0  0  0  0  0  0  0  0  0  0  0  0
   14.5527    3.5342   -5.1156 C   0  0  0  0  0  0  0  0  0  0  0  0
   15.3158    4.3932   -6.0616 C   0  0  0  0  0  0  0  0  0  0  0  0
   16.1754    5.0909   -5.1000 C   0  0  0  0  0  0  0  0  0  0  0  0
   14.9182    6.0784   -4.7465 C   0  0  0  0  0  0  0  0  0  0  0  0
    8.8841    1.2657   -2.4382 C   0  0  0  0  0  0  0  0  0  0  0  0
    6.0254    2.4731   -1.4898 H   0  0  0  0  0  0  0  0  0  0  0  0
    6.4483    2.0247    0.1424 H   0  0  0  0  0  0  0  0  0  0  0  0
    6.4087    0.8803   -1.1849 H   0  0  0  0  0  0  0  0  0  0  0  0
    8.8816    4.3145   -0.7772 H   0  0  0  0  0  0  0  0  0  0  0  0
   10.8714    5.2761   -0.8955 H   0  0  0  0  0  0  0  0  0  0  0  0
   14.4922    5.2599   -2.5418 H   0  0  0  0  0  0  0  0  0  0  0  0
   16.1422    7.0364   -2.2029 H   0  0  0  0  0  0  0  0  0  0  0  0
   15.2392    8.1901   -3.3324 H   0  0  0  0  0  0  0  0  0  0  0  0
   17.9163    6.5909   -4.2713 H   0  0  0  0  0  0  0  0  0  0  0  0
   17.7991    8.2932   -3.9270 H   0  0  0  0  0  0  0  0  0  0  0  0
   17.0160    7.7381   -5.2916 H   0  0  0  0  0  0  0  0  0  0  0  0
   10.6510    6.3772   -4.2382 H   0  0  0  0  0  0  0  0  0  0  0  0
    7.2480    3.6363   -3.8073 H   0  0  0  0  0  0  0  0  0  0  0  0
    7.3777    4.9479   -4.8711 H   0  0  0  0  0  0  0  0  0  0  0  0
    5.9025    4.2013   -2.2130 H   0  0  0  0  0  0  0  0  0  0  0  0
    5.3002    4.3704   -3.8081 H   0  0  0  0  0  0  0  0  0  0  0  0
    6.3432    6.5436   -2.0178 H   0  0  0  0  0  0  0  0  0  0  0  0
    4.6526    6.3053   -2.5550 H   0  0  0  0  0  0  0  0  0  0  0  0
    5.8943    6.7738   -3.7467 H   0  0  0  0  0  0  0  0  0  0  0  0
   10.3024    3.2378   -3.0265 H   0  0  0  0  0  0  0  0  0  0  0  0
    8.6715    2.7846   -5.2804 H   0  0  0  0  0  0  0  0  0  0  0  0
   10.7407    3.3664   -4.9330 H   0  0  0  0  0  0  0  0  0  0  0  0
   10.8768    2.0518   -5.8373 H   0  0  0  0  0  0  0  0  0  0  0  0
   13.0368    1.7643   -4.6764 H   0  0  0  0  0  0  0  0  0  0  0  0
   12.6071    2.8918   -3.3745 H   0  0  0  0  0  0  0  0  0  0  0  0
   12.8102    4.8171   -4.9248 H   0  0  0  0  0  0  0  0  0  0  0  0
   12.8068    3.8608   -6.3214 H   0  0  0  0  0  0  0  0  0  0  0  0
   14.8706    2.5221   -5.3161 H   0  0  0  0  0  0  0  0  0  0  0  0
   14.8138    3.6978   -4.0477 H   0  0  0  0  0  0  0  0  0  0  0  0
   14.6655    5.1461   -6.5522 H   0  0  0  0  0  0  0  0  0  0  0  0
   15.7989    3.9637   -6.9292 H   0  0  0  0  0  0  0  0  0  0  0  0
   17.0806    5.3511   -5.7197 H   0  0  0  0  0  0  0  0  0  0  0  0
   16.6914    4.6686   -4.2028 H   0  0  0  0  0  0  0  0  0  0  0  0
   14.3615    6.8706   -5.2441 H   0  0  0  0  0  0  0  0  0  0  0  0
   15.5864    6.7881   -5.3173 H   0  0  0  0  0  0  0  0  0  0  0  0
    8.0854    0.5047   -2.6108 H   0  0  0  0  0  0  0  0  0  0  0  0
  1  2  1  0  0  0  0
  1 25  1  0  0  0  0
  1 26  1  0  0  0  0
  1 27  1  0  0  0  0
  2  3  1  0  0  0  0
  2 24  2  0  0  0  0
  3  4  2  0  0  0  0
  3 28  1  0  0  0  0
  4  5  1  0  0  0  0
  4 29  1  0  0  0  0
  5  6  1  0  0  0  0
  5  9  2  0  0  0  0
  6  7  1  0  0  0  0
  6 23  1  0  0  0  0
  6 30  1  0  0  0  0
  7  8  1  0  0  0  0
  7 31  1  0  0  0  0
  7 32  1  0  0  0  0
  8 33  1  0  0  0  0
  8 34  1  0  0  0  0
  8 35  1  0  0  0  0
  9 10  1  0  0  0  0
  9 36  1  0  0  0  0
 10 11  1  0  0  0  0
 10 14  2  0  0  0  0
 11 12  1  0  0  0  0
 11 37  1  0  0  0  0
 11 38  1  0  0  0  0
 12 13  1  0  0  0  0
 12 39  1  0  0  0  0
 12 40  1  0  0  0  0
 13 41  1  0  0  0  0
 13 42  1  0  0  0  0
 13 43  1  0  0  0  0
 14 15  1  0  0  0  0
 14 44  1  0  0  0  0
 15 16  2  0  0  0  0
 15 45  1  0  0  0  0
 16 17  1  0  0  0  0
 16 24  1  0  0  0  0
 17 18  1  0  0  0  0
 17 46  1  0  0  0  0
 17 47  1  0  0  0  0
 18 19  1  0  0  0  0
 18 48  1  0  0  0  0
 18 49  1  0  0  0  0
 19 20  1  0  0  0  0
 19 50  1  0  0  0  0
 19 51  1  0  0  0  0
 20 21  1  0  0  0  0
 20 52  1  0  0  0  0
 20 53  1  0  0  0  0
 21 22  1  0  0  0  0
 21 54  1  0  0  0  0
 21 55  1  0  0  0  0
 22 23  1  0  0  0  0
 22 56  1  0  0  0  0
 22 57  1  0  0  0  0
 23 58  1  0  0  0  0
 23 59  1  0  0  0  0
 24 60  1  0  0  0  0
M  END
$$$$
