
 OpenBabel04232216443D

 61 62  0  0  1  0  0  0  0  0999 V2000
    3.3986   -0.6171   -1.3801 C   0  0  0  0  0  0  0  0  0  0  0  0
    4.3457    0.5863   -1.4618 C   0  0  0  0  0  0  0  0  0  0  0  0
    3.7988    1.8316   -1.2822 C   0  0  0  0  0  0  0  0  0  0  0  0
    2.2835    2.2210   -1.2167 C   0  0  0  0  0  0  0  0  0  0  0  0
    1.0571    1.3393   -1.0716 C   0  0  0  0  0  0  0  0  0  0  0  0
    4.5168    3.0026   -0.8995 N   0  0  0  0  0  0  0  0  0  0  0  0
    5.8138    3.4153   -1.4759 C   0  0  3  0  0  0  0  0  0  0  0  0
    5.7976    4.9691   -1.6228 C   0  0  0  0  0  0  0  0  0  0  0  0
    6.9819    5.7750   -2.1634 C   0  0  0  0  0  0  0  0  0  0  0  0
    6.4907    7.2127   -2.4200 C   0  0  0  0  0  0  0  0  0  0  0  0
    4.6344    3.1727    0.5199 C   0  0  0  0  0  0  0  0  0  0  0  0
    3.9120    4.4750    0.9163 C   0  0  0  0  0  0  0  0  0  0  0  0
    3.1000    4.7335    2.1750 C   0  0  0  0  0  0  0  0  0  0  0  0
    1.7393    4.0558    2.3185 C   0  0  0  0  0  0  0  0  0  0  0  0
    1.8484    2.6468    2.8581 C   0  0  0  0  0  0  0  0  0  0  0  0
    5.9284    2.8637    0.8622 C   0  0  0  0  0  0  0  0  0  0  0  0
    6.1621    1.7879    1.9100 C   0  0  0  0  0  0  0  0  0  0  0  0
    6.7603    2.8248   -0.4137 C   0  0  0  0  0  0  0  0  0  0  0  0
    7.5106    1.7371   -0.7231 C   0  0  0  0  0  0  0  0  0  0  0  0
    8.8620    1.3983   -0.1574 C   0  0  0  0  0  0  0  0  0  0  0  0
    6.9520    0.8129   -1.7356 C   0  0  0  0  0  0  0  0  0  0  0  0
    7.4258    1.2219   -3.1095 C   0  0  0  0  0  0  0  0  0  0  0  0
    5.8011    0.1533   -1.3875 C   0  0  0  0  0  0  0  0  0  0  0  0
    6.0284   -1.0454   -0.4684 C   0  0  0  0  0  0  0  0  0  0  0  0
    2.4351   -0.4563   -1.8441 H   0  0  0  0  0  0  0  0  0  0  0  0
    3.2259   -0.8634   -0.3282 H   0  0  0  0  0  0  0  0  0  0  0  0
    3.7892   -1.5121   -1.8769 H   0  0  0  0  0  0  0  0  0  0  0  0
    2.1041    2.8881   -2.0705 H   0  0  0  0  0  0  0  0  0  0  0  0
    2.1819    2.8552   -0.3324 H   0  0  0  0  0  0  0  0  0  0  0  0
    0.8375    0.7381   -1.9512 H   0  0  0  0  0  0  0  0  0  0  0  0
    0.1668    2.0003   -0.9538 H   0  0  0  0  0  0  0  0  0  0  0  0
    1.0812    0.7182   -0.1709 H   0  0  0  0  0  0  0  0  0  0  0  0
    5.9249    3.0260   -2.4857 H   0  0  0  0  0  0  0  0  0  0  0  0
    4.9177    5.2069   -2.2326 H   0  0  0  0  0  0  0  0  0  0  0  0
    5.6235    5.4346   -0.6564 H   0  0  0  0  0  0  0  0  0  0  0  0
    7.3841    5.3529   -3.0865 H   0  0  0  0  0  0  0  0  0  0  0  0
    7.7908    5.8170   -1.4224 H   0  0  0  0  0  0  0  0  0  0  0  0
    5.6589    7.2168   -3.1346 H   0  0  0  0  0  0  0  0  0  0  0  0
    7.2821    7.8507   -2.8228 H   0  0  0  0  0  0  0  0  0  0  0  0
    6.1251    7.6758   -1.4947 H   0  0  0  0  0  0  0  0  0  0  0  0
    3.2553    4.7516    0.0740 H   0  0  0  0  0  0  0  0  0  0  0  0
    4.6721    5.2598    0.9460 H   0  0  0  0  0  0  0  0  0  0  0  0
    2.8790    5.8119    2.1339 H   0  0  0  0  0  0  0  0  0  0  0  0
    3.7190    4.5860    3.0614 H   0  0  0  0  0  0  0  0  0  0  0  0
    1.1662    4.0763    1.3846 H   0  0  0  0  0  0  0  0  0  0  0  0
    1.1558    4.6484    3.0385 H   0  0  0  0  0  0  0  0  0  0  0  0
    2.1293    1.9452    2.0698 H   0  0  0  0  0  0  0  0  0  0  0  0
    0.8832    2.3339    3.2691 H   0  0  0  0  0  0  0  0  0  0  0  0
    2.5880    2.5822    3.6611 H   0  0  0  0  0  0  0  0  0  0  0  0
    5.2206    1.4490    2.3591 H   0  0  0  0  0  0  0  0  0  0  0  0
    6.8196    2.1481    2.7036 H   0  0  0  0  0  0  0  0  0  0  0  0
    6.6210    0.8774    1.5108 H   0  0  0  0  0  0  0  0  0  0  0  0
    8.8788    0.4036    0.3065 H   0  0  0  0  0  0  0  0  0  0  0  0
    9.1625    2.1328    0.6040 H   0  0  0  0  0  0  0  0  0  0  0  0
    9.6092    1.4156   -0.9564 H   0  0  0  0  0  0  0  0  0  0  0  0
    6.6114    1.3547   -3.8264 H   0  0  0  0  0  0  0  0  0  0  0  0
    8.1142    0.4712   -3.4912 H   0  0  0  0  0  0  0  0  0  0  0  0
    7.9996    2.1590   -3.0851 H   0  0  0  0  0  0  0  0  0  0  0  0
    7.0874   -1.1995   -0.2399 H   0  0  0  0  0  0  0  0  0  0  0  0
    5.6991   -1.9699   -0.9647 H   0  0  0  0  0  0  0  0  0  0  0  0
    5.4935   -0.9381    0.4771 H   0  0  0  0  0  0  0  0  0  0  0  0
  1  2  1  0  0  0  0
  1 25  1  0  0  0  0
  1 26  1  0  0  0  0
  1 27  1  0  0  0  0
  2  3  2  0  0  0  0
  2 23  1  0  0  0  0
  3  4  1  0  0  0  0
  3  6  1  0  0  0  0
  4  5  1  0  0  0  0
  4 28  1  0  0  0  0
  4 29  1  0  0  0  0
  5 30  1  0  0  0  0
  5 31  1  0  0  0  0
  5 32  1  0  0  0  0
  6  7  1  0  0  0  0
  6 11  1  0  0  0  0
  7  8  1  0  0  0  0
  7 18  1  0  0  0  0
  7 33  1  0  0  0  0
  8  9  1  0  0  0  0
  8 34  1  0  0  0  0
  8 35  1  0  0  0  0
  9 10  1  0  0  0  0
  9 36  1  0  0  0  0
  9 37  1  0  0  0  0
 10 38  1  0  0  0  0
 10 39  1  0  0  0  0
 10 40  1  0  0  0  0
 11 12  1  0  0  0  0
 11 16  2  0  0  0  0
 12 13  1  0  0  0  0
 12 41  1  0  0  0  0
 12 42  1  0  0  0  0
 13 14  1  0  0  0  0
 13 43  1  0  0  0  0
 13 44  1  0  0  0  0
 14 15  1  0  0  0  0
 14 45  1  0  0  0  0
 14 46  1  0  0  0  0
 15 47  1  0  0  0  0
 15 48  1  0  0  0  0
 15 49  1  0  0  0  0
 16 17  1  0  0  0  0
 16 18  1  0  0  0  0
 17 50  1  0  0  0  0
 17 51  1  0  0  0  0
 17 52  1  0  0  0  0
 18 19  2  0  0  0  0
 19 20  1  0  0  0  0
 19 21  1  0  0  0  0
 20 53  1  0  0  0  0
 20 54  1  0  0  0  0
 20 55  1  0  0  0  0
 21 22  1  0  0  0  0
 21 23  2  0  0  0  0
 22 56  1  0  0  0  0
 22 57  1  0  0  0  0
 22 58  1  0  0  0  0
 23 24  1  0  0  0  0
 24 59  1  0  0  0  0
 24 60  1  0  0  0  0
 24 61  1  0  0  0  0
M  END
$$$$
