
 OpenBabel04232217033D

 88 87  0  0  0  0  0  0  0  0999 V2000
    8.0444    8.7823   -3.0014 S   0  0  0  0  0  0  0  0  0  0  0  0
    9.6577    9.0194   -3.3480 O   0  0  0  0  0  0  0  0  0  0  0  0
    9.8567    9.2488   -4.9878 S   0  0  0  0  0  0  0  0  0  0  0  0
   11.9039    9.4694   -5.0434 S   0  0  0  0  0  0  0  0  0  0  0  0
   12.5300    7.8393   -4.4704 C   0  0  0  0  0  0  0  0  0  0  0  0
   12.0973    6.7068   -5.3228 N   0  0  0  0  0  0  0  0  0  0  0  0
   12.6049    5.4655   -4.7510 N   0  0  0  0  0  0  0  0  0  0  0  0
   12.1808    4.3148   -5.5586 N   0  0  0  0  0  0  0  0  0  0  0  0
   12.8567    2.9201   -4.9279 S   0  0  0  0  0  0  0  0  0  0  0  0
   12.1524    1.4610   -6.2126 S   0  0  0  0  0  0  0  0  0  0  0  0
   12.8765    1.8559   -8.1117 S   0  0  0  0  0  0  0  0  0  0  0  0
   14.9522    1.8000   -8.1057 S   0  0  0  0  0  0  0  0  0  0  0  0
   15.6219    2.2504  -10.0493 S   0  0  0  0  0  0  0  0  0  0  0  0
   17.7292    2.2501  -10.0480 S   0  0  0  0  0  0  0  0  0  0  0  0
   18.4150    2.6833  -11.9966 S   0  0  0  0  0  0  0  0  0  0  0  0
   20.5260    2.6815  -11.9874 S   0  0  0  0  0  0  0  0  0  0  0  0
   21.2177    3.1151  -13.9334 S   0  0  0  0  0  0  0  0  0  0  0  0
   23.3281    3.1122  -13.9208 S   0  0  0  0  0  0  0  0  0  0  0  0
   24.0199    3.5457  -15.8666 S   0  0  0  0  0  0  0  0  0  0  0  0
   26.1298    3.5428  -15.8539 S   0  0  0  0  0  0  0  0  0  0  0  0
   26.8208    3.9762  -17.7996 S   0  0  0  0  0  0  0  0  0  0  0  0
   28.9303    3.9734  -17.7868 S   0  0  0  0  0  0  0  0  0  0  0  0
   29.6209    4.4068  -19.7324 S   0  0  0  0  0  0  0  0  0  0  0  0
   31.7303    4.4039  -19.7196 S   0  0  0  0  0  0  0  0  0  0  0  0
   32.4209    4.8373  -21.6652 S   0  0  0  0  0  0  0  0  0  0  0  0
   34.5302    4.8345  -21.6519 S   0  0  0  0  0  0  0  0  0  0  0  0
   35.2215    5.2678  -23.5971 S   0  0  0  0  0  0  0  0  0  0  0  0
   37.3309    5.2635  -23.5834 S   0  0  0  0  0  0  0  0  0  0  0  0
   38.0223    5.6979  -25.5283 S   0  0  0  0  0  0  0  0  0  0  0  0
   40.1317    5.6950  -25.5152 S   0  0  0  0  0  0  0  0  0  0  0  0
   40.8219    6.1283  -27.4609 S   0  0  0  0  0  0  0  0  0  0  0  0
   42.9313    6.1257  -27.4488 S   0  0  0  0  0  0  0  0  0  0  0  0
   43.6210    6.5592  -29.3947 S   0  0  0  0  0  0  0  0  0  0  0  0
   45.7303    6.5564  -29.3821 S   0  0  0  0  0  0  0  0  0  0  0  0
   46.4216    6.9896  -31.3273 S   0  0  0  0  0  0  0  0  0  0  0  0
   48.5310    6.9865  -31.3126 S   0  0  0  0  0  0  0  0  0  0  0  0
   49.2234    7.4197  -33.2573 S   0  0  0  0  0  0  0  0  0  0  0  0
   51.3328    7.4158  -33.2438 S   0  0  0  0  0  0  0  0  0  0  0  0
   52.0227    7.8501  -35.1895 S   0  0  0  0  0  0  0  0  0  0  0  0
   54.1319    7.8477  -35.1785 S   0  0  0  0  0  0  0  0  0  0  0  0
   54.8210    8.2811  -37.1247 S   0  0  0  0  0  0  0  0  0  0  0  0
   56.9304    8.2785  -37.1126 S   0  0  0  0  0  0  0  0  0  0  0  0
   57.6210    8.7118  -39.0581 S   0  0  0  0  0  0  0  0  0  0  0  0
   59.7304    8.7089  -39.0449 S   0  0  0  0  0  0  0  0  0  0  0  0
   60.4213    9.1423  -40.9903 S   0  0  0  0  0  0  0  0  0  0  0  0
   62.5306    9.1393  -40.9774 S   0  0  0  0  0  0  0  0  0  0  0  0
   63.2212    9.5728  -42.9229 S   0  0  0  0  0  0  0  0  0  0  0  0
   65.3306    9.5699  -42.9100 S   0  0  0  0  0  0  0  0  0  0  0  0
   66.0212   10.0033  -44.8555 S   0  0  0  0  0  0  0  0  0  0  0  0
   68.1306   10.0004  -44.8425 S   0  0  0  0  0  0  0  0  0  0  0  0
   68.8212   10.4338  -46.7880 S   0  0  0  0  0  0  0  0  0  0  0  0
   70.9305   10.4309  -46.7750 S   0  0  0  0  0  0  0  0  0  0  0  0
   71.6212   10.8643  -48.7205 S   0  0  0  0  0  0  0  0  0  0  0  0
   73.7305   10.8614  -48.7076 S   0  0  0  0  0  0  0  0  0  0  0  0
   74.4212   11.2948  -50.6530 S   0  0  0  0  0  0  0  0  0  0  0  0
   76.5305   11.2919  -50.6401 S   0  0  0  0  0  0  0  0  0  0  0  0
   77.2212   11.7253  -52.5856 S   0  0  0  0  0  0  0  0  0  0  0  0
   79.3305   11.7224  -52.5726 S   0  0  0  0  0  0  0  0  0  0  0  0
   80.0211   12.1558  -54.5181 S   0  0  0  0  0  0  0  0  0  0  0  0
   82.1305   12.1529  -54.5052 S   0  0  0  0  0  0  0  0  0  0  0  0
   82.8211   12.5863  -56.4506 S   0  0  0  0  0  0  0  0  0  0  0  0
   84.9305   12.5834  -56.4377 S   0  0  0  0  0  0  0  0  0  0  0  0
   85.6211   13.0168  -58.3832 S   0  0  0  0  0  0  0  0  0  0  0  0
   87.7305   13.0139  -58.3702 S   0  0  0  0  0  0  0  0  0  0  0  0
   88.4211   13.4472  -60.3157 S   0  0  0  0  0  0  0  0  0  0  0  0
   90.5304   13.4444  -60.3027 S   0  0  0  0  0  0  0  0  0  0  0  0
   91.2209   13.8777  -62.2481 S   0  0  0  0  0  0  0  0  0  0  0  0
   93.3301   13.8748  -62.2350 S   0  0  0  0  0  0  0  0  0  0  0  0
   94.0202   14.3081  -64.1802 S   0  0  0  0  0  0  0  0  0  0  0  0
   96.1288   14.3051  -64.1667 S   0  0  0  0  0  0  0  0  0  0  0  0
   96.8179   14.7383  -66.1113 S   0  0  0  0  0  0  0  0  0  0  0  0
   98.9250   14.7350  -66.0967 S   0  0  0  0  0  0  0  0  0  0  0  0
   99.6115   15.1679  -68.0398 S   0  0  0  0  0  0  0  0  0  0  0  0
  101.7150   15.1639  -68.0218 S   0  0  0  0  0  0  0  0  0  0  0  0
  102.3967   15.5960  -69.9612 S   0  0  0  0  0  0  0  0  0  0  0  0
  104.4932   15.5899  -69.9356 S   0  0  0  0  0  0  0  0  0  0  0  0
  105.1627   16.0208  -71.8688 S   0  0  0  0  0  0  0  0  0  0  0  0
  107.2435   16.0327  -71.8254 S   0  0  0  0  0  0  0  0  0  0  0  0
  107.8983   16.4055  -73.7577 S   0  0  0  0  0  0  0  0  0  0  0  0
  109.9668   16.4376  -73.6959 S   0  0  0  0  0  0  0  0  0  0  0  0
  110.5402   14.5387  -73.1582 S   0  0  0  0  0  0  0  0  0  0  0  0
    8.1290    8.5742   -1.6785 H   0  0  0  0  0  0  0  0  0  0  0  0
   12.1877    7.7327   -3.4433 H   0  0  0  0  0  0  0  0  0  0  0  0
   13.6262    7.9163   -4.4495 H   0  0  0  0  0  0  0  0  0  0  0  0
   12.4764    6.8537   -6.2358 H   0  0  0  0  0  0  0  0  0  0  0  0
   12.2431    5.3551   -3.8325 H   0  0  0  0  0  0  0  0  0  0  0  0
   12.5359    4.4308   -6.5033 H   0  0  0  0  0  0  0  0  0  0  0  0
  111.8796   14.6595  -73.1552 H   0  0  0  0  0  0  0  0  0  0  0  0
  1  2  1  0  0  0  0
  1 82  1  0  0  0  0
  2  3  1  0  0  0  0
  3  4  1  0  0  0  0
  4  5  1  0  0  0  0
  5  6  1  0  0  0  0
  5 83  1  0  0  0  0
  5 84  1  0  0  0  0
  6  7  1  0  0  0  0
  6 85  1  0  0  0  0
  7  8  1  0  0  0  0
  7 86  1  0  0  0  0
  8  9  1  0  0  0  0
  8 87  1  0  0  0  0
  9 10  1  0  0  0  0
 10 11  1  0  0  0  0
 11 12  1  0  0  0  0
 12 13  1  0  0  0  0
 13 14  1  0  0  0  0
 14 15  1  0  0  0  0
 15 16  1  0  0  0  0
 16 17  1  0  0  0  0
 17 18  1  0  0  0  0
 18 19  1  0  0  0  0
 19 20  1  0  0  0  0
 20 21  1  0  0  0  0
 21 22  1  0  0  0  0
 22 23  1  0  0  0  0
 23 24  1  0  0  0  0
 24 25  1  0  0  0  0
 25 26  1  0  0  0  0
 26 27  1  0  0  0  0
 27 28  1  0  0  0  0
 28 29  1  0  0  0  0
 29 30  1  0  0  0  0
 30 31  1  0  0  0  0
 31 32  1  0  0  0  0
 32 33  1  0  0  0  0
 33 34  1  0  0  0  0
 34 35  1  0  0  0  0
 35 36  1  0  0  0  0
 36 37  1  0  0  0  0
 37 38  1  0  0  0  0
 38 39  1  0  0  0  0
 39 40  1  0  0  0  0
 40 41  1  0  0  0  0
 41 42  1  0  0  0  0
 42 43  1  0  0  0  0
 43 44  1  0  0  0  0
 44 45  1  0  0  0  0
 45 46  1  0  0  0  0
 46 47  1  0  0  0  0
 47 48  1  0  0  0  0
 48 49  1  0  0  0  0
 49 50  1  0  0  0  0
 50 51  1  0  0  0  0
 51 52  1  0  0  0  0
 52 53  1  0  0  0  0
 53 54  1  0  0  0  0
 54 55  1  0  0  0  0
 55 56  1  0  0  0  0
 56 57  1  0  0  0  0
 57 58  1  0  0  0  0
 58 59  1  0  0  0  0
 59 60  1  0  0  0  0
 60 61  1  0  0  0  0
 61 62  1  0  0  0  0
 62 63  1  0  0  0  0
 63 64  1  0  0  0  0
 64 65  1  0  0  0  0
 65 66  1  0  0  0  0
 66 67  1  0  0  0  0
 67 68  1  0  0  0  0
 68 69  1  0  0  0  0
 69 70  1  0  0  0  0
 70 71  1  0  0  0  0
 71 72  1  0  0  0  0
 72 73  1  0  0  0  0
 73 74  1  0  0  0  0
 74 75  1  0  0  0  0
 75 76  1  0  0  0  0
 76 77  1  0  0  0  0
 77 78  1  0  0  0  0
 78 79  1  0  0  0  0
 79 80  1  0  0  0  0
 80 81  1  0  0  0  0
 81 88  1  0  0  0  0
M  END
$$$$
