
 OpenBabel04232216543D

190189  0  0  0  0  0  0  0  0999 V2000
   24.2646   13.5227  -22.0647 C   0  0  0  0  0  0  0  0  0  0  0  0
   23.8237   12.0830  -22.2042 C   0  0  0  0  0  0  0  0  0  0  0  0
   24.6189   11.3968  -23.3019 C   0  0  0  0  0  0  0  0  0  0  0  0
   24.1833    9.9466  -23.4480 C   0  0  0  0  0  0  0  0  0  0  0  0
   24.9815    9.2514  -24.5485 C   0  0  0  0  0  0  0  0  0  0  0  0
   24.5434    7.8694  -24.6594 N   0  0  0  0  0  0  0  0  0  0  0  0
   25.2897    7.2570  -25.6875 N   0  0  0  0  0  0  0  0  0  0  0  0
   24.8745    5.9239  -25.8312 N   0  0  0  0  0  0  0  0  0  0  0  0
   25.6178    5.2898  -26.8460 N   0  0  0  0  0  0  0  0  0  0  0  0
   27.0043    5.3207  -26.5358 N   0  0  0  0  0  0  0  0  0  0  0  0
   27.2508    4.6391  -25.2917 N   0  0  0  0  0  0  0  0  0  0  0  0
   26.8449    3.2629  -25.3806 N   0  0  0  0  0  0  0  0  0  0  0  0
   27.5531    2.6113  -26.4228 N   0  0  0  0  0  0  0  0  0  0  0  0
   28.9440    2.6657  -26.1448 N   0  0  0  0  0  0  0  0  0  0  0  0
   29.2030    2.0270  -24.8825 N   0  0  0  0  0  0  0  0  0  0  0  0
   28.7505    0.6738  -24.9599 N   0  0  0  0  0  0  0  0  0  0  0  0
   29.4711   -0.0083  -26.0088 N   0  0  0  0  0  0  0  0  0  0  0  0
   30.8738    0.0499  -25.7515 N   0  0  0  0  0  0  0  0  0  0  0  0
   31.1759   -0.5967  -24.5061 N   0  0  0  0  0  0  0  0  0  0  0  0
   30.7332   -1.9593  -24.5339 N   0  0  0  0  0  0  0  0  0  0  0  0
   31.4289   -2.6899  -25.5654 N   0  0  0  0  0  0  0  0  0  0  0  0
   32.8478   -2.6355  -25.3707 N   0  0  0  0  0  0  0  0  0  0  0  0
   33.1719   -3.2551  -24.1237 N   0  0  0  0  0  0  0  0  0  0  0  0
   32.7139   -4.6063  -24.1084 N   0  0  0  0  0  0  0  0  0  0  0  0
   33.3496   -5.3198  -25.1499 N   0  0  0  0  0  0  0  0  0  0  0  0
   34.7553   -5.2715  -24.9777 N   0  0  0  0  0  0  0  0  0  0  0  0
   35.0999   -5.8529  -23.7355 N   0  0  0  0  0  0  0  0  0  0  0  0
   34.6444   -7.1923  -23.6913 N   0  0  0  0  0  0  0  0  0  0  0  0
   35.2557   -7.9245  -24.7438 N   0  0  0  0  0  0  0  0  0  0  0  0
   36.6734   -7.9034  -24.5935 N   0  0  0  0  0  0  0  0  0  0  0  0
   37.0468   -8.4563  -23.3418 N   0  0  0  0  0  0  0  0  0  0  0  0
   36.6197   -9.8118  -23.2606 N   0  0  0  0  0  0  0  0  0  0  0  0
   37.1828  -10.5747  -24.3209 N   0  0  0  0  0  0  0  0  0  0  0  0
   38.6084  -10.5396  -24.2267 N   0  0  0  0  0  0  0  0  0  0  0  0
   39.0217  -11.0817  -22.9689 N   0  0  0  0  0  0  0  0  0  0  0  0
   38.5570  -12.4272  -22.8339 N   0  0  0  0  0  0  0  0  0  0  0  0
   39.0942  -13.1989  -23.8966 N   0  0  0  0  0  0  0  0  0  0  0  0
   40.5191  -13.1547  -23.8408 N   0  0  0  0  0  0  0  0  0  0  0  0
   40.9606  -13.6753  -22.5658 N   0  0  0  0  0  0  0  0  0  0  0  0
   40.4694  -15.0163  -22.4210 N   0  0  0  0  0  0  0  0  0  0  0  0
   41.0116  -15.8502  -23.4878 N   0  0  0  0  0  0  0  0  0  0  0  0
   42.4436  -15.8198  -23.4591 N   0  0  0  0  0  0  0  0  0  0  0  0
   42.9111  -16.3269  -22.2072 N   0  0  0  0  0  0  0  0  0  0  0  0
   42.4541  -17.6801  -22.0137 N   0  0  0  0  0  0  0  0  0  0  0  0
   42.9380  -18.5443  -23.0666 N   0  0  0  0  0  0  0  0  0  0  0  0
   44.3494  -18.5083  -23.0716 N   0  0  0  0  0  0  0  0  0  0  0  0
   44.8319  -18.9720  -21.8209 N   0  0  0  0  0  0  0  0  0  0  0  0
   44.3373  -20.3040  -21.6004 N   0  0  0  0  0  0  0  0  0  0  0  0
   44.7782  -21.1416  -22.6724 N   0  0  0  0  0  0  0  0  0  0  0  0
   46.2306  -21.1696  -22.6962 N   0  0  0  0  0  0  0  0  0  0  0  0
   46.7242  -21.6284  -21.4335 N   0  0  0  0  0  0  0  0  0  0  0  0
   46.2463  -22.9549  -21.1912 N   0  0  0  0  0  0  0  0  0  0  0  0
   46.6830  -23.8302  -22.2397 N   0  0  0  0  0  0  0  0  0  0  0  0
   48.1061  -23.8442  -22.2879 N   0  0  0  0  0  0  0  0  0  0  0  0
   48.6476  -24.3015  -21.0395 N   0  0  0  0  0  0  0  0  0  0  0  0
   48.1772  -25.6251  -20.7695 N   0  0  0  0  0  0  0  0  0  0  0  0
   48.5841  -26.5168  -21.8417 N   0  0  0  0  0  0  0  0  0  0  0  0
   50.0549  -26.5116  -21.8994 C   0  0  0  0  0  0  0  0  0  0  0  0
   50.6068  -26.9646  -20.6221 N   0  0  0  0  0  0  0  0  0  0  0  0
   50.1153  -28.3013  -20.3402 C   0  0  0  0  0  0  0  0  0  0  0  0
   50.6718  -28.7710  -19.0726 N   0  0  0  0  0  0  0  0  0  0  0  0
   50.1963  -30.1263  -18.7892 C   0  0  0  0  0  0  0  0  0  0  0  0
   50.7471  -30.6064  -17.5129 N   0  0  0  0  0  0  0  0  0  0  0  0
   50.2582  -31.9487  -17.2387 C   0  0  0  0  0  0  0  0  0  0  0  0
   50.8270  -32.4332  -15.9181 C   0  0  0  0  0  0  0  0  0  0  0  0
   50.3331  -33.8386  -15.6202 C   0  0  0  0  0  0  0  0  0  0  0  0
   50.9000  -34.3247  -14.3008 C   0  0  0  0  0  0  0  0  0  0  0  0
   50.4062  -35.7265  -14.0053 C   0  0  0  0  0  0  0  0  0  0  0  0
   50.9737  -36.2104  -12.6867 C   0  0  0  0  0  0  0  0  0  0  0  0
   50.4815  -37.6124  -12.3926 C   0  0  0  0  0  0  0  0  0  0  0  0
   51.0490  -38.0961  -11.0742 C   0  0  0  0  0  0  0  0  0  0  0  0
   50.5569  -39.4980  -10.7801 C   0  0  0  0  0  0  0  0  0  0  0  0
   51.1243  -39.9816   -9.4617 C   0  0  0  0  0  0  0  0  0  0  0  0
   50.6322  -41.3836   -9.1677 C   0  0  0  0  0  0  0  0  0  0  0  0
   51.1997  -41.8672   -7.8493 C   0  0  0  0  0  0  0  0  0  0  0  0
   50.7091  -43.2699   -7.5562 C   0  0  0  0  0  0  0  0  0  0  0  0
   51.2766  -43.7535   -6.2378 C   0  0  0  0  0  0  0  0  0  0  0  0
   50.7858  -45.1564   -5.9449 C   0  0  0  0  0  0  0  0  0  0  0  0
   51.3545  -45.6415   -4.6274 C   0  0  0  0  0  0  0  0  0  0  0  0
   50.8628  -47.0452   -4.3312 C   0  0  0  0  0  0  0  0  0  0  0  0
   51.4323  -47.5254   -3.0164 C   0  0  0  0  0  0  0  0  0  0  0  0
   23.6935   14.0172  -21.2756 H   0  0  0  0  0  0  0  0  0  0  0  0
   24.1048   14.0608  -23.0040 H   0  0  0  0  0  0  0  0  0  0  0  0
   25.3281   13.5706  -21.8114 H   0  0  0  0  0  0  0  0  0  0  0  0
   22.7557   12.0496  -22.4443 H   0  0  0  0  0  0  0  0  0  0  0  0
   23.9765   11.5604  -21.2540 H   0  0  0  0  0  0  0  0  0  0  0  0
   25.6871   11.4398  -23.0600 H   0  0  0  0  0  0  0  0  0  0  0  0
   24.4656   11.9266  -24.2492 H   0  0  0  0  0  0  0  0  0  0  0  0
   23.1123    9.9176  -23.6830 H   0  0  0  0  0  0  0  0  0  0  0  0
   24.3343    9.4299  -22.4927 H   0  0  0  0  0  0  0  0  0  0  0  0
   26.0456    9.3085  -24.2909 H   0  0  0  0  0  0  0  0  0  0  0  0
   24.8231    9.7980  -25.4877 H   0  0  0  0  0  0  0  0  0  0  0  0
   23.5626    7.8321  -24.9165 H   0  0  0  0  0  0  0  0  0  0  0  0
   26.2687    7.3511  -25.4221 H   0  0  0  0  0  0  0  0  0  0  0  0
   23.8890    5.8545  -26.0631 H   0  0  0  0  0  0  0  0  0  0  0  0
   25.4852    5.7471  -27.7355 H   0  0  0  0  0  0  0  0  0  0  0  0
   27.3201    6.2880  -26.4827 H   0  0  0  0  0  0  0  0  0  0  0  0
   26.7209    5.0644  -24.5382 H   0  0  0  0  0  0  0  0  0  0  0  0
   25.8443    3.2195  -25.5915 H   0  0  0  0  0  0  0  0  0  0  0  0
   27.3288    3.0797  -27.3163 H   0  0  0  0  0  0  0  0  0  0  0  0
   29.2583    3.6256  -26.0699 H   0  0  0  0  0  0  0  0  0  0  0  0
   28.6746    2.5173  -24.1517 H   0  0  0  0  0  0  0  0  0  0  0  0
   27.7509    0.6500  -25.1760 H   0  0  0  0  0  0  0  0  0  0  0  0
   29.2850    0.4379  -26.9084 H   0  0  0  0  0  0  0  0  0  0  0  0
   31.2032    1.0072  -25.6972 H   0  0  0  0  0  0  0  0  0  0  0  0
   30.6932   -0.1478  -23.7394 H   0  0  0  0  0  0  0  0  0  0  0  0
   29.7196   -1.9908  -24.6844 H   0  0  0  0  0  0  0  0  0  0  0  0
   31.2402   -2.2600  -26.4691 H   0  0  0  0  0  0  0  0  0  0  0  0
   33.1410   -1.6493  -25.3744 H   0  0  0  0  0  0  0  0  0  0  0  0
   32.6913   -2.7631  -23.3736 H   0  0  0  0  0  0  0  0  0  0  0  0
   31.6916   -4.5963  -24.2507 H   0  0  0  0  0  0  0  0  0  0  0  0
   33.1361   -4.8880  -26.0448 H   0  0  0  0  0  0  0  0  0  0  0  0
   35.0387   -4.2879  -24.9708 H   0  0  0  0  0  0  0  0  0  0  0  0
   34.6205   -5.3390  -23.0033 H   0  0  0  0  0  0  0  0  0  0  0  0
   33.6247   -7.1653  -23.8305 H   0  0  0  0  0  0  0  0  0  0  0  0
   34.9935   -7.4725  -25.6313 H   0  0  0  0  0  0  0  0  0  0  0  0
   36.9823   -6.9321  -24.6024 H   0  0  0  0  0  0  0  0  0  0  0  0
   36.6017   -7.8877  -22.6058 H   0  0  0  0  0  0  0  0  0  0  0  0
   35.6073   -9.8264  -23.3743 H   0  0  0  0  0  0  0  0  0  0  0  0
   36.8721  -10.1349  -25.2037 H   0  0  0  0  0  0  0  0  0  0  0  0
   38.8759   -9.5395  -24.3027 H   0  0  0  0  0  0  0  0  0  0  0  0
   38.5891  -10.5265  -22.2288 H   0  0  0  0  0  0  0  0  0  0  0  0
   37.5385  -12.4010  -22.9190 H   0  0  0  0  0  0  0  0  0  0  0  0
   38.7747  -12.7934  -24.7816 H   0  0  0  0  0  0  0  0  0  0  0  0
   40.8351  -12.1921  -23.9020 H   0  0  0  0  0  0  0  0  0  0  0  0
   40.5430  -13.0787  -21.8362 H   0  0  0  0  0  0  0  0  0  0  0  0
   39.4438  -15.0116  -22.4706 H   0  0  0  0  0  0  0  0  0  0  0  0
   40.7034  -15.4841  -24.3939 H   0  0  0  0  0  0  0  0  0  0  0  0
   42.7923  -14.8711  -23.5544 H   0  0  0  0  0  0  0  0  0  0  0  0
   42.5548  -15.7420  -21.4516 H   0  0  0  0  0  0  0  0  0  0  0  0
   41.4247  -17.6644  -22.0062 H   0  0  0  0  0  0  0  0  0  0  0  0
   42.6146  -18.1741  -23.9617 H   0  0  0  0  0  0  0  0  0  0  0  0
   44.6886  -17.5617  -23.2076 H   0  0  0  0  0  0  0  0  0  0  0  0
   44.4699  -18.3842  -21.0809 H   0  0  0  0  0  0  0  0  0  0  0  0
   43.3140  -20.2422  -21.6188 H   0  0  0  0  0  0  0  0  0  0  0  0
   44.4192  -20.7694  -23.5640 H   0  0  0  0  0  0  0  0  0  0  0  0
   46.5611  -20.2014  -22.8783 H   0  0  0  0  0  0  0  0  0  0  0  0
   46.4221  -21.0057  -20.6704 H   0  0  0  0  0  0  0  0  0  0  0  0
   45.2333  -22.9716  -21.1850 H   0  0  0  0  0  0  0  0  0  0  0  0
   46.3309  -23.4714  -23.1258 H   0  0  0  0  0  0  0  0  0  0  0  0
   48.4433  -22.8948  -22.4603 H   0  0  0  0  0  0  0  0  0  0  0  0
   48.3356  -23.6736  -20.2994 H   0  0  0  0  0  0  0  0  0  0  0  0
   47.1616  -25.5873  -20.7416 H   0  0  0  0  0  0  0  0  0  0  0  0
   48.2223  -26.1291  -22.7089 H   0  0  0  0  0  0  0  0  0  0  0  0
   50.4233  -25.4990  -22.1301 H   0  0  0  0  0  0  0  0  0  0  0  0
   50.3763  -27.1543  -22.7183 H   0  0  0  0  0  0  0  0  0  0  0  0
   50.3024  -26.3108  -19.8983 H   0  0  0  0  0  0  0  0  0  0  0  0
   50.4336  -28.9812  -21.1436 H   0  0  0  0  0  0  0  0  0  0  0  0
   49.0246  -28.3199  -20.2889 H   0  0  0  0  0  0  0  0  0  0  0  0
   50.3618  -28.1271  -18.3513 H   0  0  0  0  0  0  0  0  0  0  0  0
   50.5096  -30.8049  -19.5920 H   0  0  0  0  0  0  0  0  0  0  0  0
   49.0978  -30.1338  -18.7412 H   0  0  0  0  0  0  0  0  0  0  0  0
   50.4424  -29.9619  -16.7821 H   0  0  0  0  0  0  0  0  0  0  0  0
   50.5719  -32.6306  -18.0360 H   0  0  0  0  0  0  0  0  0  0  0  0
   49.1645  -31.9559  -17.1846 H   0  0  0  0  0  0  0  0  0  0  0  0
   50.5185  -31.7621  -15.1079 H   0  0  0  0  0  0  0  0  0  0  0  0
   51.9226  -32.4355  -15.9601 H   0  0  0  0  0  0  0  0  0  0  0  0
   50.6405  -34.5179  -16.4237 H   0  0  0  0  0  0  0  0  0  0  0  0
   49.2380  -33.8446  -15.5730 H   0  0  0  0  0  0  0  0  0  0  0  0
   50.5921  -33.6485  -13.4952 H   0  0  0  0  0  0  0  0  0  0  0  0
   51.9949  -34.3220  -14.3461 H   0  0  0  0  0  0  0  0  0  0  0  0
   50.7141  -36.4038  -14.8100 H   0  0  0  0  0  0  0  0  0  0  0  0
   49.3113  -35.7304  -13.9592 H   0  0  0  0  0  0  0  0  0  0  0  0
   50.6647  -35.5343  -11.8815 H   0  0  0  0  0  0  0  0  0  0  0  0
   52.0686  -36.2056  -12.7321 H   0  0  0  0  0  0  0  0  0  0  0  0
   50.7906  -38.2886  -13.1977 H   0  0  0  0  0  0  0  0  0  0  0  0
   49.3866  -37.6173  -12.3472 H   0  0  0  0  0  0  0  0  0  0  0  0
   50.7400  -37.4199  -10.2690 H   0  0  0  0  0  0  0  0  0  0  0  0
   52.1440  -38.0912  -11.1196 H   0  0  0  0  0  0  0  0  0  0  0  0
   50.8659  -40.1742  -11.5853 H   0  0  0  0  0  0  0  0  0  0  0  0
   49.4619  -39.5029  -10.7347 H   0  0  0  0  0  0  0  0  0  0  0  0
   50.8153  -39.3054   -8.6566 H   0  0  0  0  0  0  0  0  0  0  0  0
   52.2193  -39.9767   -9.5071 H   0  0  0  0  0  0  0  0  0  0  0  0
   50.9412  -42.0597   -9.9728 H   0  0  0  0  0  0  0  0  0  0  0  0
   49.5372  -41.3885   -9.1222 H   0  0  0  0  0  0  0  0  0  0  0  0
   50.8894  -41.1918   -7.0439 H   0  0  0  0  0  0  0  0  0  0  0  0
   52.2946  -41.8609   -7.8942 H   0  0  0  0  0  0  0  0  0  0  0  0
   51.0193  -43.9453   -8.3615 H   0  0  0  0  0  0  0  0  0  0  0  0
   49.6141  -43.2762   -7.5113 H   0  0  0  0  0  0  0  0  0  0  0  0
   50.9663  -43.0781   -5.4324 H   0  0  0  0  0  0  0  0  0  0  0  0
   52.3715  -43.7472   -6.2827 H   0  0  0  0  0  0  0  0  0  0  0  0
   51.0950  -45.8314   -6.7509 H   0  0  0  0  0  0  0  0  0  0  0  0
   49.6910  -45.1622   -5.8984 H   0  0  0  0  0  0  0  0  0  0  0  0
   51.0472  -44.9649   -3.8217 H   0  0  0  0  0  0  0  0  0  0  0  0
   52.4496  -45.6360   -4.6743 H   0  0  0  0  0  0  0  0  0  0  0  0
   51.1718  -47.7227   -5.1342 H   0  0  0  0  0  0  0  0  0  0  0  0
   49.7688  -47.0513   -4.2813 H   0  0  0  0  0  0  0  0  0  0  0  0
   52.5257  -47.5355   -3.0582 H   0  0  0  0  0  0  0  0  0  0  0  0
   51.0797  -48.5362   -2.8006 H   0  0  0  0  0  0  0  0  0  0  0  0
   51.1199  -46.8628   -2.2036 H   0  0  0  0  0  0  0  0  0  0  0  0
  1  2  1  0  0  0  0
  1 82  1  0  0  0  0
  1 83  1  0  0  0  0
  1 84  1  0  0  0  0
  2  3  1  0  0  0  0
  2 85  1  0  0  0  0
  2 86  1  0  0  0  0
  3  4  1  0  0  0  0
  3 87  1  0  0  0  0
  3 88  1  0  0  0  0
  4  5  1  0  0  0  0
  4 89  1  0  0  0  0
  4 90  1  0  0  0  0
  5  6  1  0  0  0  0
  5 91  1  0  0  0  0
  5 92  1  0  0  0  0
  6  7  1  0  0  0  0
  6 93  1  0  0  0  0
  7  8  1  0  0  0  0
  7 94  1  0  0  0  0
  8  9  1  0  0  0  0
  8 95  1  0  0  0  0
  9 10  1  0  0  0  0
  9 96  1  0  0  0  0
 10 11  1  0  0  0  0
 10 97  1  0  0  0  0
 11 12  1  0  0  0  0
 11 98  1  0  0  0  0
 12 13  1  0  0  0  0
 12 99  1  0  0  0  0
 13 14  1  0  0  0  0
 13100  1  0  0  0  0
 14 15  1  0  0  0  0
 14101  1  0  0  0  0
 15 16  1  0  0  0  0
 15102  1  0  0  0  0
 16 17  1  0  0  0  0
 16103  1  0  0  0  0
 17 18  1  0  0  0  0
 17104  1  0  0  0  0
 18 19  1  0  0  0  0
 18105  1  0  0  0  0
 19 20  1  0  0  0  0
 19106  1  0  0  0  0
 20 21  1  0  0  0  0
 20107  1  0  0  0  0
 21 22  1  0  0  0  0
 21108  1  0  0  0  0
 22 23  1  0  0  0  0
 22109  1  0  0  0  0
 23 24  1  0  0  0  0
 23110  1  0  0  0  0
 24 25  1  0  0  0  0
 24111  1  0  0  0  0
 25 26  1  0  0  0  0
 25112  1  0  0  0  0
 26 27  1  0  0  0  0
 26113  1  0  0  0  0
 27 28  1  0  0  0  0
 27114  1  0  0  0  0
 28 29  1  0  0  0  0
 28115  1  0  0  0  0
 29 30  1  0  0  0  0
 29116  1  0  0  0  0
 30 31  1  0  0  0  0
 30117  1  0  0  0  0
 31 32  1  0  0  0  0
 31118  1  0  0  0  0
 32 33  1  0  0  0  0
 32119  1  0  0  0  0
 33 34  1  0  0  0  0
 33120  1  0  0  0  0
 34 35  1  0  0  0  0
 34121  1  0  0  0  0
 35 36  1  0  0  0  0
 35122  1  0  0  0  0
 36 37  1  0  0  0  0
 36123  1  0  0  0  0
 37 38  1  0  0  0  0
 37124  1  0  0  0  0
 38 39  1  0  0  0  0
 38125  1  0  0  0  0
 39 40  1  0  0  0  0
 39126  1  0  0  0  0
 40 41  1  0  0  0  0
 40127  1  0  0  0  0
 41 42  1  0  0  0  0
 41128  1  0  0  0  0
 42 43  1  0  0  0  0
 42129  1  0  0  0  0
 43 44  1  0  0  0  0
 43130  1  0  0  0  0
 44 45  1  0  0  0  0
 44131  1  0  0  0  0
 45 46  1  0  0  0  0
 45132  1  0  0  0  0
 46 47  1  0  0  0  0
 46133  1  0  0  0  0
 47 48  1  0  0  0  0
 47134  1  0  0  0  0
 48 49  1  0  0  0  0
 48135  1  0  0  0  0
 49 50  1  0  0  0  0
 49136  1  0  0  0  0
 50 51  1  0  0  0  0
 50137  1  0  0  0  0
 51 52  1  0  0  0  0
 51138  1  0  0  0  0
 52 53  1  0  0  0  0
 52139  1  0  0  0  0
 53 54  1  0  0  0  0
 53140  1  0  0  0  0
 54 55  1  0  0  0  0
 54141  1  0  0  0  0
 55 56  1  0  0  0  0
 55142  1  0  0  0  0
 56 57  1  0  0  0  0
 56143  1  0  0  0  0
 57 58  1  0  0  0  0
 57144  1  0  0  0  0
 58 59  1  0  0  0  0
 58145  1  0  0  0  0
 58146  1  0  0  0  0
 59 60  1  0  0  0  0
 59147  1  0  0  0  0
 60 61  1  0  0  0  0
 60148  1  0  0  0  0
 60149  1  0  0  0  0
 61 62  1  0  0  0  0
 61150  1  0  0  0  0
 62 63  1  0  0  0  0
 62151  1  0  0  0  0
 62152  1  0  0  0  0
 63 64  1  0  0  0  0
 63153  1  0  0  0  0
 64 65  1  0  0  0  0
 64154  1  0  0  0  0
 64155  1  0  0  0  0
 65 66  1  0  0  0  0
 65156  1  0  0  0  0
 65157  1  0  0  0  0
 66 67  1  0  0  0  0
 66158  1  0  0  0  0
 66159  1  0  0  0  0
 67 68  1  0  0  0  0
 67160  1  0  0  0  0
 67161  1  0  0  0  0
 68 69  1  0  0  0  0
 68162  1  0  0  0  0
 68163  1  0  0  0  0
 69 70  1  0  0  0  0
 69164  1  0  0  0  0
 69165  1  0  0  0  0
 70 71  1  0  0  0  0
 70166  1  0  0  0  0
 70167  1  0  0  0  0
 71 72  1  0  0  0  0
 71168  1  0  0  0  0
 71169  1  0  0  0  0
 72 73  1  0  0  0  0
 72170  1  0  0  0  0
 72171  1  0  0  0  0
 73 74  1  0  0  0  0
 73172  1  0  0  0  0
 73173  1  0  0  0  0
 74 75  1  0  0  0  0
 74174  1  0  0  0  0
 74175  1  0  0  0  0
 75 76  1  0  0  0  0
 75176  1  0  0  0  0
 75177  1  0  0  0  0
 76 77  1  0  0  0  0
 76178  1  0  0  0  0
 76179  1  0  0  0  0
 77 78  1  0  0  0  0
 77180  1  0  0  0  0
 77181  1  0  0  0  0
 78 79  1  0  0  0  0
 78182  1  0  0  0  0
 78183  1  0  0  0  0
 79 80  1  0  0  0  0
 79184  1  0  0  0  0
 79185  1  0  0  0  0
 80 81  1  0  0  0  0
 80186  1  0  0  0  0
 80187  1  0  0  0  0
 81188  1  0  0  0  0
 81189  1  0  0  0  0
 81190  1  0  0  0  0
M  END
$$$$
