
 OpenBabel04232216563D

202202  0  0  1  0  0  0  0  0999 V2000
    2.4270    8.8259   -4.5932 C   0  0  0  0  0  0  0  0  0  0  0  0
    2.0593    7.5258   -4.0857 N   0  0  0  0  0  0  0  0  0  0  0  0
    1.6890    6.4349   -4.8310 C   0  0  0  0  0  0  0  0  0  0  0  0
    1.0435    5.5279   -4.0915 C   0  0  0  0  0  0  0  0  0  0  0  0
    0.8594    6.0625   -2.6933 C   0  0  0  0  0  0  0  0  0  0  0  0
    1.8337    7.2733   -2.6547 C   0  0  3  0  0  0  0  0  0  0  0  0
    3.1451    6.8378   -1.9965 C   0  0  0  0  0  0  0  0  0  0  0  0
    4.0322    7.9537   -1.9383 O   0  0  0  0  0  0  0  0  0  0  0  0
    5.2950    7.5578   -1.3904 C   0  0  0  0  0  0  0  0  0  0  0  0
    5.9264    6.5242   -2.1343 O   0  0  0  0  0  0  0  0  0  0  0  0
    6.1758    6.9432   -3.4693 C   0  0  0  0  0  0  0  0  0  0  0  0
    6.7527    5.8909   -4.2183 O   0  0  0  0  0  0  0  0  0  0  0  0
    7.0048    6.3073   -5.5612 C   0  0  0  0  0  0  0  0  0  0  0  0
    7.8792    7.4290   -5.5887 O   0  0  0  0  0  0  0  0  0  0  0  0
    8.1114    7.8459   -6.9249 C   0  0  0  0  0  0  0  0  0  0  0  0
    9.0344    9.0441   -6.8987 C   0  0  0  0  0  0  0  0  0  0  0  0
    9.2986    9.5007   -8.3213 C   0  0  0  0  0  0  0  0  0  0  0  0
   10.2274   10.6983   -8.3280 C   0  0  0  0  0  0  0  0  0  0  0  0
   10.4833   11.1431   -9.7567 C   0  0  0  0  0  0  0  0  0  0  0  0
   11.4131   12.3414   -9.7639 C   0  0  0  0  0  0  0  0  0  0  0  0
   11.6701   12.7875  -11.1907 C   0  0  0  0  0  0  0  0  0  0  0  0
   12.6000   13.9859  -11.1959 C   0  0  0  0  0  0  0  0  0  0  0  0
   12.8570   14.4320  -12.6225 C   0  0  0  0  0  0  0  0  0  0  0  0
   13.7869   15.6303  -12.6277 C   0  0  0  0  0  0  0  0  0  0  0  0
   14.0439   16.0766  -14.0543 C   0  0  0  0  0  0  0  0  0  0  0  0
   14.9739   17.2749  -14.0593 C   0  0  0  0  0  0  0  0  0  0  0  0
   15.2307   17.7208  -15.4860 C   0  0  0  0  0  0  0  0  0  0  0  0
   16.1605   18.9190  -15.4911 C   0  0  0  0  0  0  0  0  0  0  0  0
   16.4195   19.3637  -16.9180 C   0  0  0  0  0  0  0  0  0  0  0  0
   17.3488   20.5617  -16.9232 C   0  0  0  0  0  0  0  0  0  0  0  0
   17.6092   21.0056  -18.3505 C   0  0  0  0  0  0  0  0  0  0  0  0
   18.5393   22.2038  -18.3549 C   0  0  0  0  0  0  0  0  0  0  0  0
   18.8008   22.6460  -19.7820 C   0  0  0  0  0  0  0  0  0  0  0  0
   19.7305   23.8441  -19.7885 C   0  0  0  0  0  0  0  0  0  0  0  0
   19.9898   24.2865  -21.2162 C   0  0  0  0  0  0  0  0  0  0  0  0
   20.9180   25.4858  -21.2223 C   0  0  0  0  0  0  0  0  0  0  0  0
   21.1814   25.9303  -22.6489 C   0  0  0  0  0  0  0  0  0  0  0  0
   22.1103   27.1300  -22.6488 C   0  0  0  0  0  0  0  0  0  0  0  0
   22.3716   27.5723  -24.0726 C   0  0  0  0  0  0  0  0  0  0  0  0
   23.2975   28.7743  -24.0928 C   0  0  0  0  0  0  0  0  0  0  0  0
   23.5267   29.1909  -25.5276 C   0  0  0  0  0  0  0  0  0  0  0  0
   24.3684   30.3270  -25.5250 O   0  0  0  0  0  0  0  0  0  0  0  0
   24.6633   30.7261  -26.8555 C   0  0  0  0  0  0  0  0  0  0  0  0
   25.5500   31.8287  -26.8773 O   0  0  0  0  0  0  0  0  0  0  0  0
   26.7870   31.5183  -26.2395 C   0  0  0  0  0  0  0  0  0  0  0  0
   27.6537   32.6397  -26.2173 O   0  0  0  0  0  0  0  0  0  0  0  0
   27.0593   33.7234  -25.5138 C   0  0  0  0  0  0  0  0  0  0  0  0
   27.9021   34.8565  -25.5420 O   0  0  0  0  0  0  0  0  0  0  0  0
   28.1778   35.2293  -26.8871 C   0  0  0  0  0  0  0  0  0  0  0  0
   29.0728   36.3365  -26.9406 O   0  0  0  0  0  0  0  0  0  0  0  0
   30.3063   35.9966  -26.3183 C   0  0  0  0  0  0  0  0  0  0  0  0
   31.1757   37.1181  -26.3188 O   0  0  0  0  0  0  0  0  0  0  0  0
   30.5500   38.1920  -25.6371 C   0  0  0  0  0  0  0  0  0  0  0  0
   31.3830   39.3387  -25.6674 O   0  0  0  0  0  0  0  0  0  0  0  0
   31.6403   39.7172  -27.0157 C   0  0  0  0  0  0  0  0  0  0  0  0
   32.5248   40.8332  -27.0733 O   0  0  0  0  0  0  0  0  0  0  0  0
   33.7563   40.5076  -26.4348 C   0  0  0  0  0  0  0  0  0  0  0  0
   34.6353   41.6216  -26.4121 O   0  0  0  0  0  0  0  0  0  0  0  0
   34.0462   42.7187  -25.7175 C   0  0  0  0  0  0  0  0  0  0  0  0
   34.9170   43.8452  -25.7315 O   0  0  0  0  0  0  0  0  0  0  0  0
   35.1559   44.2467  -27.0784 C   0  0  0  0  0  0  0  0  0  0  0  0
   36.0487   45.3525  -27.1178 O   0  0  0  0  0  0  0  0  0  0  0  0
   36.2446   45.7843  -28.4655 C   0  0  0  0  0  0  0  0  0  0  0  0
   35.0425   46.1781  -29.1156 O   0  0  0  0  0  0  0  0  0  0  0  0
   34.4069   47.2291  -28.3952 C   0  0  0  0  0  0  0  0  0  0  0  0
   33.0991   47.5593  -29.0764 C   0  0  0  0  0  0  0  0  0  0  0  0
   32.4261   48.6955  -28.3294 C   0  0  0  0  0  0  0  0  0  0  0  0
   31.1213   49.0645  -29.0051 C   0  0  0  0  0  0  0  0  0  0  0  0
   30.4592   50.2065  -28.2570 C   0  0  0  0  0  0  0  0  0  0  0  0
   29.1550   50.5778  -28.9370 C   0  0  0  0  0  0  0  0  0  0  0  0
   28.4908   51.7214  -28.1917 C   0  0  0  0  0  0  0  0  0  0  0  0
   27.1824   52.0820  -28.8679 C   0  0  0  0  0  0  0  0  0  0  0  0
   26.5249   53.2402  -28.1321 C   0  0  0  0  0  0  0  0  0  0  0  0
   25.2195   53.6063  -28.8097 C   0  0  0  0  0  0  0  0  0  0  0  0
   24.5556   54.7524  -28.0699 C   0  0  0  0  0  0  0  0  0  0  0  0
   23.2489   55.1240  -28.7498 C   0  0  0  0  0  0  0  0  0  0  0  0
   22.5804   56.2708  -28.0094 C   0  0  0  0  0  0  0  0  0  0  0  0
   21.2681   56.6510  -28.6830 C   0  0  0  0  0  0  0  0  0  0  0  0
   20.6049   57.7939  -27.9418 C   0  0  0  0  0  0  0  0  0  0  0  0
    2.4703    8.8250   -5.6891 H   0  0  0  0  0  0  0  0  0  0  0  0
    3.4094    9.1325   -4.2263 H   0  0  0  0  0  0  0  0  0  0  0  0
    1.6910    9.5808   -4.2970 H   0  0  0  0  0  0  0  0  0  0  0  0
    1.9462    6.3845   -5.8780 H   0  0  0  0  0  0  0  0  0  0  0  0
    0.6772    4.5731   -4.4369 H   0  0  0  0  0  0  0  0  0  0  0  0
    1.0878    5.3112   -1.9316 H   0  0  0  0  0  0  0  0  0  0  0  0
   -0.1760    6.3943   -2.5619 H   0  0  0  0  0  0  0  0  0  0  0  0
    1.4014    8.1399   -2.1422 H   0  0  0  0  0  0  0  0  0  0  0  0
    3.5990    6.0226   -2.5752 H   0  0  0  0  0  0  0  0  0  0  0  0
    2.9656    6.4782   -0.9781 H   0  0  0  0  0  0  0  0  0  0  0  0
    5.1481    7.2083   -0.3639 H   0  0  0  0  0  0  0  0  0  0  0  0
    5.9511    8.4340   -1.3518 H   0  0  0  0  0  0  0  0  0  0  0  0
    6.8423    7.8117   -3.4430 H   0  0  0  0  0  0  0  0  0  0  0  0
    5.2331    7.2227   -3.9529 H   0  0  0  0  0  0  0  0  0  0  0  0
    6.0512    6.5634   -6.0408 H   0  0  0  0  0  0  0  0  0  0  0  0
    7.4601    5.4687   -6.0954 H   0  0  0  0  0  0  0  0  0  0  0  0
    7.1575    8.1176   -7.3921 H   0  0  0  0  0  0  0  0  0  0  0  0
    8.5681    7.0242   -7.4868 H   0  0  0  0  0  0  0  0  0  0  0  0
    9.9720    8.7842   -6.3923 H   0  0  0  0  0  0  0  0  0  0  0  0
    8.5853    9.8535   -6.3083 H   0  0  0  0  0  0  0  0  0  0  0  0
    8.3517    9.7605   -8.8110 H   0  0  0  0  0  0  0  0  0  0  0  0
    9.7445    8.6802   -8.8974 H   0  0  0  0  0  0  0  0  0  0  0  0
   11.1756   10.4382   -7.8422 H   0  0  0  0  0  0  0  0  0  0  0  0
    9.7816   11.5203   -7.7549 H   0  0  0  0  0  0  0  0  0  0  0  0
    9.5352   11.4026  -10.2440 H   0  0  0  0  0  0  0  0  0  0  0  0
   10.9282   10.3211  -10.3312 H   0  0  0  0  0  0  0  0  0  0  0  0
   12.3613   12.0815   -9.2769 H   0  0  0  0  0  0  0  0  0  0  0  0
   10.9678   13.1633   -9.1896 H   0  0  0  0  0  0  0  0  0  0  0  0
   10.7223   13.0477  -11.6778 H   0  0  0  0  0  0  0  0  0  0  0  0
   12.1155   11.9660  -11.7651 H   0  0  0  0  0  0  0  0  0  0  0  0
   13.5481   13.7259  -10.7088 H   0  0  0  0  0  0  0  0  0  0  0  0
   12.1547   14.8077  -10.6216 H   0  0  0  0  0  0  0  0  0  0  0  0
   11.9091   14.6920  -13.1099 H   0  0  0  0  0  0  0  0  0  0  0  0
   13.3024   13.6103  -13.1971 H   0  0  0  0  0  0  0  0  0  0  0  0
   14.7349   15.3700  -12.1405 H   0  0  0  0  0  0  0  0  0  0  0  0
   13.3414   16.4518  -12.0531 H   0  0  0  0  0  0  0  0  0  0  0  0
   13.0958   16.3366  -14.5413 H   0  0  0  0  0  0  0  0  0  0  0  0
   14.4895   15.2548  -14.6287 H   0  0  0  0  0  0  0  0  0  0  0  0
   15.9217   17.0146  -13.5721 H   0  0  0  0  0  0  0  0  0  0  0  0
   14.5284   18.0964  -13.4848 H   0  0  0  0  0  0  0  0  0  0  0  0
   14.2827   17.9807  -15.9731 H   0  0  0  0  0  0  0  0  0  0  0  0
   15.6762   16.8990  -16.0601 H   0  0  0  0  0  0  0  0  0  0  0  0
   17.1080   18.6593  -15.0028 H   0  0  0  0  0  0  0  0  0  0  0  0
   15.7145   19.7411  -14.9179 H   0  0  0  0  0  0  0  0  0  0  0  0
   15.4716   19.6231  -17.4065 H   0  0  0  0  0  0  0  0  0  0  0  0
   16.8651   18.5414  -17.4909 H   0  0  0  0  0  0  0  0  0  0  0  0
   18.2957   20.3025  -16.4334 H   0  0  0  0  0  0  0  0  0  0  0  0
   16.9021   21.3844  -16.3510 H   0  0  0  0  0  0  0  0  0  0  0  0
   16.6624   21.2645  -18.8396 H   0  0  0  0  0  0  0  0  0  0  0  0
   18.0557   20.1827  -18.9217 H   0  0  0  0  0  0  0  0  0  0  0  0
   19.4853   21.9448  -17.8638 H   0  0  0  0  0  0  0  0  0  0  0  0
   18.0918   23.0266  -17.7839 H   0  0  0  0  0  0  0  0  0  0  0  0
   17.8543   22.9043  -20.2726 H   0  0  0  0  0  0  0  0  0  0  0  0
   19.2479   21.8226  -20.3525 H   0  0  0  0  0  0  0  0  0  0  0  0
   20.6775   23.5854  -19.2990 H   0  0  0  0  0  0  0  0  0  0  0  0
   19.2843   24.6670  -19.2169 H   0  0  0  0  0  0  0  0  0  0  0  0
   19.0427   24.5440  -21.7059 H   0  0  0  0  0  0  0  0  0  0  0  0
   20.4374   23.4637  -21.7872 H   0  0  0  0  0  0  0  0  0  0  0  0
   21.8647   25.2286  -20.7314 H   0  0  0  0  0  0  0  0  0  0  0  0
   20.4696   26.3086  -20.6523 H   0  0  0  0  0  0  0  0  0  0  0  0
   20.2355   26.1885  -23.1409 H   0  0  0  0  0  0  0  0  0  0  0  0
   21.6302   25.1087  -23.2201 H   0  0  0  0  0  0  0  0  0  0  0  0
   23.0569   26.8719  -22.1575 H   0  0  0  0  0  0  0  0  0  0  0  0
   21.6607   27.9527  -22.0783 H   0  0  0  0  0  0  0  0  0  0  0  0
   21.4247   27.8268  -24.5646 H   0  0  0  0  0  0  0  0  0  0  0  0
   22.8203   26.7499  -24.6434 H   0  0  0  0  0  0  0  0  0  0  0  0
   24.2537   28.5388  -23.6102 H   0  0  0  0  0  0  0  0  0  0  0  0
   22.8670   29.6086  -23.5251 H   0  0  0  0  0  0  0  0  0  0  0  0
   22.5774   29.4512  -26.0104 H   0  0  0  0  0  0  0  0  0  0  0  0
   24.0063   28.3762  -26.0859 H   0  0  0  0  0  0  0  0  0  0  0  0
   23.7360   31.0373  -27.3479 H   0  0  0  0  0  0  0  0  0  0  0  0
   25.1109   29.9017  -27.4212 H   0  0  0  0  0  0  0  0  0  0  0  0
   27.2824   30.7112  -26.7881 H   0  0  0  0  0  0  0  0  0  0  0  0
   26.6237   31.1909  -25.2061 H   0  0  0  0  0  0  0  0  0  0  0  0
   26.8942   33.4395  -24.4698 H   0  0  0  0  0  0  0  0  0  0  0  0
   26.0980   34.0021  -25.9604 H   0  0  0  0  0  0  0  0  0  0  0  0
   27.2457   35.5309  -27.3764 H   0  0  0  0  0  0  0  0  0  0  0  0
   28.6242   34.4063  -27.4600 H   0  0  0  0  0  0  0  0  0  0  0  0
   30.7883   35.1836  -26.8699 H   0  0  0  0  0  0  0  0  0  0  0  0
   30.1551   35.6808  -25.2793 H   0  0  0  0  0  0  0  0  0  0  0  0
   30.3937   37.9211  -24.5880 H   0  0  0  0  0  0  0  0  0  0  0  0
   29.5870   38.4649  -26.0828 H   0  0  0  0  0  0  0  0  0  0  0  0
   30.7024   40.0096  -27.4984 H   0  0  0  0  0  0  0  0  0  0  0  0
   32.0961   38.9016  -27.5910 H   0  0  0  0  0  0  0  0  0  0  0  0
   34.2499   39.7007  -26.9848 H   0  0  0  0  0  0  0  0  0  0  0  0
   33.6001   40.1870  -25.3986 H   0  0  0  0  0  0  0  0  0  0  0  0
   33.8664   42.4408  -24.6749 H   0  0  0  0  0  0  0  0  0  0  0  0
   33.0892   43.0085  -26.1713 H   0  0  0  0  0  0  0  0  0  0  0  0
   34.1947   44.5087  -27.5341 H   0  0  0  0  0  0  0  0  0  0  0  0
   35.6093   43.4247  -27.6422 H   0  0  0  0  0  0  0  0  0  0  0  0
   36.7063   44.9745  -29.0424 H   0  0  0  0  0  0  0  0  0  0  0  0
   36.9409   46.6294  -28.4574 H   0  0  0  0  0  0  0  0  0  0  0  0
   35.0690   48.1003  -28.3750 H   0  0  0  0  0  0  0  0  0  0  0  0
   34.1997   46.9201  -27.3640 H   0  0  0  0  0  0  0  0  0  0  0  0
   32.4518   46.6731  -29.0979 H   0  0  0  0  0  0  0  0  0  0  0  0
   33.2844   47.8308  -30.1216 H   0  0  0  0  0  0  0  0  0  0  0  0
   33.0918   49.5670  -28.3020 H   0  0  0  0  0  0  0  0  0  0  0  0
   32.2377   48.4027  -27.2883 H   0  0  0  0  0  0  0  0  0  0  0  0
   30.4537   48.1946  -29.0284 H   0  0  0  0  0  0  0  0  0  0  0  0
   31.3114   49.3583  -30.0449 H   0  0  0  0  0  0  0  0  0  0  0  0
   31.1284   51.0753  -28.2314 H   0  0  0  0  0  0  0  0  0  0  0  0
   30.2687   49.9130  -27.2176 H   0  0  0  0  0  0  0  0  0  0  0  0
   28.4861   49.7090  -28.9618 H   0  0  0  0  0  0  0  0  0  0  0  0
   29.3463   50.8700  -29.9771 H   0  0  0  0  0  0  0  0  0  0  0  0
   29.1604   52.5896  -28.1665 H   0  0  0  0  0  0  0  0  0  0  0  0
   28.2992   51.4280  -27.1525 H   0  0  0  0  0  0  0  0  0  0  0  0
   26.5153   51.2238  -28.8965 H   0  0  0  0  0  0  0  0  0  0  0  0
   27.3808   52.3862  -29.9159 H   0  0  0  0  0  0  0  0  0  0  0  0
   27.1931   54.1041  -28.1020 H   0  0  0  0  0  0  0  0  0  0  0  0
   26.3322   52.9422  -27.0846 H   0  0  0  0  0  0  0  0  0  0  0  0
   24.5521   52.7383  -28.8338 H   0  0  0  0  0  0  0  0  0  0  0  0
   25.4125   53.8971  -29.8510 H   0  0  0  0  0  0  0  0  0  0  0  0
   25.2247   55.6199  -28.0451 H   0  0  0  0  0  0  0  0  0  0  0  0
   24.3645   54.4616  -27.0275 H   0  0  0  0  0  0  0  0  0  0  0  0
   22.5816   54.2554  -28.7735 H   0  0  0  0  0  0  0  0  0  0  0  0
   23.4415   55.4132  -29.7898 H   0  0  0  0  0  0  0  0  0  0  0  0
   23.2511   57.1378  -27.9864 H   0  0  0  0  0  0  0  0  0  0  0  0
   22.3931   55.9802  -26.9687 H   0  0  0  0  0  0  0  0  0  0  0  0
   20.5947   55.7846  -28.7044 H   0  0  0  0  0  0  0  0  0  0  0  0
   21.4541   56.9445  -29.7241 H   0  0  0  0  0  0  0  0  0  0  0  0
   20.3917   57.5109  -26.9045 H   0  0  0  0  0  0  0  0  0  0  0  0
   19.6623   58.0667  -28.4259 H   0  0  0  0  0  0  0  0  0  0  0  0
   21.2551   58.6763  -27.9289 H   0  0  0  0  0  0  0  0  0  0  0  0
  1  2  1  0  0  0  0
  1 80  1  0  0  0  0
  1 81  1  0  0  0  0
  1 82  1  0  0  0  0
  2  3  1  0  0  0  0
  2  6  1  0  0  0  0
  3  4  2  0  0  0  0
  3 83  1  0  0  0  0
  4  5  1  0  0  0  0
  4 84  1  0  0  0  0
  5  6  1  0  0  0  0
  5 85  1  0  0  0  0
  5 86  1  0  0  0  0
  6  7  1  0  0  0  0
  6 87  1  0  0  0  0
  7  8  1  0  0  0  0
  7 88  1  0  0  0  0
  7 89  1  0  0  0  0
  8  9  1  0  0  0  0
  9 10  1  0  0  0  0
  9 90  1  0  0  0  0
  9 91  1  0  0  0  0
 10 11  1  0  0  0  0
 11 12  1  0  0  0  0
 11 92  1  0  0  0  0
 11 93  1  0  0  0  0
 12 13  1  0  0  0  0
 13 14  1  0  0  0  0
 13 94  1  0  0  0  0
 13 95  1  0  0  0  0
 14 15  1  0  0  0  0
 15 16  1  0  0  0  0
 15 96  1  0  0  0  0
 15 97  1  0  0  0  0
 16 17  1  0  0  0  0
 16 98  1  0  0  0  0
 16 99  1  0  0  0  0
 17 18  1  0  0  0  0
 17100  1  0  0  0  0
 17101  1  0  0  0  0
 18 19  1  0  0  0  0
 18102  1  0  0  0  0
 18103  1  0  0  0  0
 19 20  1  0  0  0  0
 19104  1  0  0  0  0
 19105  1  0  0  0  0
 20 21  1  0  0  0  0
 20106  1  0  0  0  0
 20107  1  0  0  0  0
 21 22  1  0  0  0  0
 21108  1  0  0  0  0
 21109  1  0  0  0  0
 22 23  1  0  0  0  0
 22110  1  0  0  0  0
 22111  1  0  0  0  0
 23 24  1  0  0  0  0
 23112  1  0  0  0  0
 23113  1  0  0  0  0
 24 25  1  0  0  0  0
 24114  1  0  0  0  0
 24115  1  0  0  0  0
 25 26  1  0  0  0  0
 25116  1  0  0  0  0
 25117  1  0  0  0  0
 26 27  1  0  0  0  0
 26118  1  0  0  0  0
 26119  1  0  0  0  0
 27 28  1  0  0  0  0
 27120  1  0  0  0  0
 27121  1  0  0  0  0
 28 29  1  0  0  0  0
 28122  1  0  0  0  0
 28123  1  0  0  0  0
 29 30  1  0  0  0  0
 29124  1  0  0  0  0
 29125  1  0  0  0  0
 30 31  1  0  0  0  0
 30126  1  0  0  0  0
 30127  1  0  0  0  0
 31 32  1  0  0  0  0
 31128  1  0  0  0  0
 31129  1  0  0  0  0
 32 33  1  0  0  0  0
 32130  1  0  0  0  0
 32131  1  0  0  0  0
 33 34  1  0  0  0  0
 33132  1  0  0  0  0
 33133  1  0  0  0  0
 34 35  1  0  0  0  0
 34134  1  0  0  0  0
 34135  1  0  0  0  0
 35 36  1  0  0  0  0
 35136  1  0  0  0  0
 35137  1  0  0  0  0
 36 37  1  0  0  0  0
 36138  1  0  0  0  0
 36139  1  0  0  0  0
 37 38  1  0  0  0  0
 37140  1  0  0  0  0
 37141  1  0  0  0  0
 38 39  1  0  0  0  0
 38142  1  0  0  0  0
 38143  1  0  0  0  0
 39 40  1  0  0  0  0
 39144  1  0  0  0  0
 39145  1  0  0  0  0
 40 41  1  0  0  0  0
 40146  1  0  0  0  0
 40147  1  0  0  0  0
 41 42  1  0  0  0  0
 41148  1  0  0  0  0
 41149  1  0  0  0  0
 42 43  1  0  0  0  0
 43 44  1  0  0  0  0
 43150  1  0  0  0  0
 43151  1  0  0  0  0
 44 45  1  0  0  0  0
 45 46  1  0  0  0  0
 45152  1  0  0  0  0
 45153  1  0  0  0  0
 46 47  1  0  0  0  0
 47 48  1  0  0  0  0
 47154  1  0  0  0  0
 47155  1  0  0  0  0
 48 49  1  0  0  0  0
 49 50  1  0  0  0  0
 49156  1  0  0  0  0
 49157  1  0  0  0  0
 50 51  1  0  0  0  0
 51 52  1  0  0  0  0
 51158  1  0  0  0  0
 51159  1  0  0  0  0
 52 53  1  0  0  0  0
 53 54  1  0  0  0  0
 53160  1  0  0  0  0
 53161  1  0  0  0  0
 54 55  1  0  0  0  0
 55 56  1  0  0  0  0
 55162  1  0  0  0  0
 55163  1  0  0  0  0
 56 57  1  0  0  0  0
 57 58  1  0  0  0  0
 57164  1  0  0  0  0
 57165  1  0  0  0  0
 58 59  1  0  0  0  0
 59 60  1  0  0  0  0
 59166  1  0  0  0  0
 59167  1  0  0  0  0
 60 61  1  0  0  0  0
 61 62  1  0  0  0  0
 61168  1  0  0  0  0
 61169  1  0  0  0  0
 62 63  1  0  0  0  0
 63 64  1  0  0  0  0
 63170  1  0  0  0  0
 63171  1  0  0  0  0
 64 65  1  0  0  0  0
 65 66  1  0  0  0  0
 65172  1  0  0  0  0
 65173  1  0  0  0  0
 66 67  1  0  0  0  0
 66174  1  0  0  0  0
 66175  1  0  0  0  0
 67 68  1  0  0  0  0
 67176  1  0  0  0  0
 67177  1  0  0  0  0
 68 69  1  0  0  0  0
 68178  1  0  0  0  0
 68179  1  0  0  0  0
 69 70  1  0  0  0  0
 69180  1  0  0  0  0
 69181  1  0  0  0  0
 70 71  1  0  0  0  0
 70182  1  0  0  0  0
 70183  1  0  0  0  0
 71 72  1  0  0  0  0
 71184  1  0  0  0  0
 71185  1  0  0  0  0
 72 73  1  0  0  0  0
 72186  1  0  0  0  0
 72187  1  0  0  0  0
 73 74  1  0  0  0  0
 73188  1  0  0  0  0
 73189  1  0  0  0  0
 74 75  1  0  0  0  0
 74190  1  0  0  0  0
 74191  1  0  0  0  0
 75 76  1  0  0  0  0
 75192  1  0  0  0  0
 75193  1  0  0  0  0
 76 77  1  0  0  0  0
 76194  1  0  0  0  0
 76195  1  0  0  0  0
 77 78  1  0  0  0  0
 77196  1  0  0  0  0
 77197  1  0  0  0  0
 78 79  1  0  0  0  0
 78198  1  0  0  0  0
 78199  1  0  0  0  0
 79200  1  0  0  0  0
 79201  1  0  0  0  0
 79202  1  0  0  0  0
M  END
$$$$
