
 OpenBabel04232216443D

 42 43  0  0  0  0  0  0  0  0999 V2000
    0.9460    0.1308   -0.0346 C   0  0  0  0  0  0  0  0  0  0  0  0
    2.4565    0.0296   -0.0713 C   0  0  0  0  0  0  0  0  0  0  0  0
    3.3596   -0.9447   -0.5681 C   0  0  0  0  0  0  0  0  0  0  0  0
    2.5485   -2.0894   -1.0977 C   0  0  0  0  0  0  0  0  0  0  0  0
    4.9701   -1.2046   -0.7648 N   0  0  0  0  0  0  0  0  0  0  0  0
    5.4010   -2.3703   -1.6613 C   0  0  0  0  0  0  0  0  0  0  0  0
    4.6996   -3.7320   -1.7828 C   0  0  0  0  0  0  0  0  0  0  0  0
    6.5130   -2.3953   -2.4462 C   0  0  0  0  0  0  0  0  0  0  0  0
    7.0821   -3.7028   -2.9467 C   0  0  0  0  0  0  0  0  0  0  0  0
    8.1964   -4.1460   -2.5291 N   0  0  0  0  0  0  0  0  0  0  0  0
    8.7623   -5.2462   -3.1108 C   0  0  0  0  0  0  0  0  0  0  0  0
    9.8494   -5.0424   -3.8431 C   0  0  0  0  0  0  0  0  0  0  0  0
   10.9005   -5.9087   -4.0183 N   0  0  0  0  0  0  0  0  0  0  0  0
   11.9687   -5.5419   -3.4417 N   0  0  0  0  0  0  0  0  0  0  0  0
   11.7506   -5.0516   -2.0851 N   0  0  0  0  0  0  0  0  0  0  0  0
   11.5200   -3.7949   -2.0016 N   0  0  0  0  0  0  0  0  0  0  0  0
   10.4349   -3.4963   -0.9567 N   0  0  0  0  0  0  0  0  0  0  0  0
    9.8584   -2.3251   -1.1059 N   0  0  0  0  0  0  0  0  0  0  0  0
    8.4088   -2.0884   -0.2731 N   0  0  0  0  0  0  0  0  0  0  0  0
    7.8484   -0.8931   -0.5012 N   0  0  0  0  0  0  0  0  0  0  0  0
    6.2771   -0.4732    0.0622 N   0  0  0  0  0  0  0  0  0  0  0  0
    6.2584    0.9935    0.6226 C   0  0  0  0  0  0  0  0  0  0  0  0
    5.8551    2.2406    1.1576 C   0  0  0  0  0  0  0  0  0  0  0  0
    4.5457    3.2143    1.6470 C   0  0  0  0  0  0  0  0  0  0  0  0
    3.1766    1.1273    0.5209 C   0  0  0  0  0  0  0  0  0  0  0  0
    0.3954   -0.6961   -0.4988 H   0  0  0  0  0  0  0  0  0  0  0  0
    0.6206    1.0211   -0.5886 H   0  0  0  0  0  0  0  0  0  0  0  0
    0.5947    0.2007    0.9892 H   0  0  0  0  0  0  0  0  0  0  0  0
    1.4702   -2.0447   -1.0509 H   0  0  0  0  0  0  0  0  0  0  0  0
    2.7633   -2.9355   -0.4381 H   0  0  0  0  0  0  0  0  0  0  0  0
    2.7543   -2.2043   -2.1659 H   0  0  0  0  0  0  0  0  0  0  0  0
    3.6436   -3.8663   -1.6663 H   0  0  0  0  0  0  0  0  0  0  0  0
    5.1805   -4.4756   -1.1464 H   0  0  0  0  0  0  0  0  0  0  0  0
    4.7438   -4.0705   -2.8314 H   0  0  0  0  0  0  0  0  0  0  0  0
    7.1852   -1.5588   -2.6059 H   0  0  0  0  0  0  0  0  0  0  0  0
    6.4820   -4.2694   -3.6794 H   0  0  0  0  0  0  0  0  0  0  0  0
    8.4569   -6.2129   -2.7305 H   0  0  0  0  0  0  0  0  0  0  0  0
   10.1202   -4.0105   -4.0560 H   0  0  0  0  0  0  0  0  0  0  0  0
    6.4397    1.3013   -0.4245 H   0  0  0  0  0  0  0  0  0  0  0  0
    6.7011    2.7405    1.6380 H   0  0  0  0  0  0  0  0  0  0  0  0
    4.0970    3.9938    1.0236 H   0  0  0  0  0  0  0  0  0  0  0  0
    2.4742    1.9611    0.2694 H   0  0  0  0  0  0  0  0  0  0  0  0
  1  2  1  0  0  0  0
  1 26  1  0  0  0  0
  1 27  1  0  0  0  0
  1 28  1  0  0  0  0
  2  3  2  0  0  0  0
  2 25  1  0  0  0  0
  3  4  1  0  0  0  0
  3  5  1  0  0  0  0
  4 29  1  0  0  0  0
  4 30  1  0  0  0  0
  4 31  1  0  0  0  0
  5  6  1  0  0  0  0
  5 21  1  0  0  0  0
  6  7  1  0  0  0  0
  6  8  2  3  0  0  0
  7 32  1  0  0  0  0
  7 33  1  0  0  0  0
  7 34  1  0  0  0  0
  8  9  1  0  0  0  0
  8 35  1  0  0  0  0
  9 10  2  3  0  0  0
  9 36  1  0  0  0  0
 10 11  1  0  0  0  0
 11 12  2  3  0  0  0
 11 37  1  0  0  0  0
 12 13  1  0  0  0  0
 12 38  1  0  0  0  0
 13 14  2  3  0  0  0
 14 15  1  0  0  0  0
 15 16  2  3  0  0  0
 16 17  1  0  0  0  0
 17 18  2  3  0  0  0
 18 19  1  0  0  0  0
 19 20  2  3  0  0  0
 20 21  1  0  0  0  0
 21 22  1  0  0  0  0
 22 23  2  0  0  0  0
 22 39  1  0  0  0  0
 23 24  1  0  0  0  0
 23 40  1  0  0  0  0
 24 25  2  0  0  0  0
 24 41  1  0  0  0  0
 25 42  1  0  0  0  0
M  END
$$$$
