
 OpenBabel04232217003D

 54 56  0  0  1  0  0  0  0  0999 V2000
    6.5106    2.5187   -1.6760 O   0  0  0  0  0  0  0  0  0  0  0  0
    7.7709    2.6919   -1.0883 C   0  0  0  0  0  0  0  0  0  0  0  0
    8.5227    1.6178   -0.8927 C   0  0  0  0  0  0  0  0  0  0  0  0
    9.2408    1.6620    0.3647 C   0  0  0  0  0  0  0  0  0  0  0  0
   11.0551    1.9662   -0.1148 C   0  0  3  0  0  0  0  0  0  0  0  0
   12.7747    2.6794    0.2381 C   0  0  0  0  0  0  0  0  0  0  0  0
   13.8283    3.7560    1.1869 C   0  0  0  0  0  0  0  0  0  0  0  0
   13.6445    4.6482    2.5513 C   0  0  0  0  0  0  0  0  0  0  0  0
   12.2332    4.7714    3.1269 C   0  0  0  0  0  0  0  0  0  0  0  0
   11.6892    3.6214    2.3810 C   0  0  0  0  0  0  0  0  0  0  0  0
   10.4594    2.9202    2.4426 C   0  0  0  0  0  0  0  0  0  0  0  0
   10.7324    1.2893    2.7476 C   0  0  0  0  0  0  0  0  0  0  0  0
   11.7127    0.3687    2.4206 C   0  0  0  0  0  0  0  0  0  0  0  0
   11.2765   -0.7213    1.4339 C   0  0  0  0  0  0  0  0  0  0  0  0
   11.9493   -0.8524    0.2265 C   0  0  0  0  0  0  0  0  0  0  0  0
   11.3434   -0.3611   -1.0751 C   0  0  0  0  0  0  0  0  0  0  0  0
   11.4435    0.9714   -1.3009 C   0  0  0  0  0  0  0  0  0  0  0  0
   12.6147    1.2956   -1.9399 F   0  0  0  0  0  0  0  0  0  0  0  0
    8.1774    1.4536    1.4006 C   0  0  0  0  0  0  0  0  0  0  0  0
    6.6373    2.0609    1.3649 C   0  0  0  0  0  0  0  0  0  0  0  0
    7.9192    1.0833    2.8631 C   0  0  0  0  0  0  0  0  0  0  0  0
    7.8919    1.8341    3.9983 C   0  0  0  0  0  0  0  0  0  0  0  0
    8.5260    3.1203    4.3096 C   0  0  0  0  0  0  0  0  0  0  0  0
    8.6052    4.0641    3.3563 C   0  0  0  0  0  0  0  0  0  0  0  0
    9.3134    3.6788    2.1179 C   0  0  0  0  0  0  0  0  0  0  0  0
    8.7310    4.3623    0.7538 C   0  0  0  0  0  0  0  0  0  0  0  0
    8.0714    3.9718   -0.4115 C   0  0  0  0  0  0  0  0  0  0  0  0
    5.8997    2.2678   -0.9564 H   0  0  0  0  0  0  0  0  0  0  0  0
    8.2700    0.6238   -1.2471 H   0  0  0  0  0  0  0  0  0  0  0  0
   11.2961    1.3391    0.6677 H   0  0  0  0  0  0  0  0  0  0  0  0
   13.3123    1.7459    0.4888 H   0  0  0  0  0  0  0  0  0  0  0  0
   13.1597    2.9436   -0.7526 H   0  0  0  0  0  0  0  0  0  0  0  0
   14.2855    4.4453    0.4693 H   0  0  0  0  0  0  0  0  0  0  0  0
   14.6660    3.0911    1.4740 H   0  0  0  0  0  0  0  0  0  0  0  0
   14.2601    4.1763    3.3412 H   0  0  0  0  0  0  0  0  0  0  0  0
   14.0783    5.6468    2.4285 H   0  0  0  0  0  0  0  0  0  0  0  0
   11.7356    5.7128    2.8595 H   0  0  0  0  0  0  0  0  0  0  0  0
   12.1979    4.6493    4.2106 H   0  0  0  0  0  0  0  0  0  0  0  0
   12.4073    2.8223    2.6124 H   0  0  0  0  0  0  0  0  0  0  0  0
   11.6133    4.0155    1.3995 H   0  0  0  0  0  0  0  0  0  0  0  0
    9.8495    0.7037    2.7338 H   0  0  0  0  0  0  0  0  0  0  0  0
   12.7568    0.6325    2.2793 H   0  0  0  0  0  0  0  0  0  0  0  0
   10.1845   -0.8172    1.2826 H   0  0  0  0  0  0  0  0  0  0  0  0
   13.0395   -0.7267    0.1973 H   0  0  0  0  0  0  0  0  0  0  0  0
   10.3194   -0.7341   -1.1977 H   0  0  0  0  0  0  0  0  0  0  0  0
    5.8875    1.2817    1.2305 H   0  0  0  0  0  0  0  0  0  0  0  0
    6.4027    2.9265    0.7575 H   0  0  0  0  0  0  0  0  0  0  0  0
    6.3737    2.5684    2.3173 H   0  0  0  0  0  0  0  0  0  0  0  0
    7.3690    0.1406    2.9122 H   0  0  0  0  0  0  0  0  0  0  0  0
    7.2678    1.4940    4.8196 H   0  0  0  0  0  0  0  0  0  0  0  0
    9.5081    2.8026    4.7070 H   0  0  0  0  0  0  0  0  0  0  0  0
    7.7488    4.7080    3.1747 H   0  0  0  0  0  0  0  0  0  0  0  0
    8.5708    5.4280    0.9253 H   0  0  0  0  0  0  0  0  0  0  0  0
    7.5257    4.7398   -0.9794 H   0  0  0  0  0  0  0  0  0  0  0  0
  1  2  1  0  0  0  0
  1 28  1  0  0  0  0
  2  3  2  3  0  0  0
  2 27  1  0  0  0  0
  3  4  1  0  0  0  0
  3 29  1  0  0  0  0
  4  5  1  0  0  0  0
  4 19  2  3  0  0  0
  5  6  1  0  0  0  0
  5 17  1  0  0  0  0
  5 30  1  0  0  0  0
  6  7  1  0  0  0  0
  6 31  1  0  0  0  0
  6 32  1  0  0  0  0
  7  8  1  0  0  0  0
  7 33  1  0  0  0  0
  7 34  1  0  0  0  0
  8  9  1  0  0  0  0
  8 35  1  0  0  0  0
  8 36  1  0  0  0  0
  9 10  1  0  0  0  0
  9 37  1  0  0  0  0
  9 38  1  0  0  0  0
 10 11  1  0  0  0  0
 10 39  1  0  0  0  0
 10 40  1  0  0  0  0
 11 12  1  0  0  0  0
 11 25  2  3  0  0  0
 12 13  2  3  0  0  0
 12 41  1  0  0  0  0
 13 14  1  0  0  0  0
 13 42  1  0  0  0  0
 14 15  2  3  0  0  0
 14 43  1  0  0  0  0
 15 16  1  0  0  0  0
 15 44  1  0  0  0  0
 16 17  2  3  0  0  0
 16 45  1  0  0  0  0
 17 18  1  0  0  0  0
 19 20  1  0  0  0  0
 19 21  1  0  0  0  0
 20 46  1  0  0  0  0
 20 47  1  0  0  0  0
 20 48  1  0  0  0  0
 21 22  2  3  0  0  0
 21 49  1  0  0  0  0
 22 23  1  0  0  0  0
 22 50  1  0  0  0  0
 23 24  2  3  0  0  0
 23 51  1  0  0  0  0
 24 25  1  0  0  0  0
 24 52  1  0  0  0  0
 25 26  1  0  0  0  0
 26 27  2  3  0  0  0
 26 53  1  0  0  0  0
 27 54  1  0  0  0  0
M  END
$$$$
