
 OpenBabel04232216403D

 51 52  0  0  0  0  0  0  0  0999 V2000
    4.3478    0.4109    3.2860 C   0  0  0  0  0  0  0  0  0  0  0  0
    4.0505   -0.1974    2.1379 C   0  0  0  0  0  0  0  0  0  0  0  0
    4.9135   -0.5973    0.9590 C   0  0  0  0  0  0  0  0  0  0  0  0
    6.2937   -0.0901    0.8435 N   0  0  0  0  0  0  0  0  0  0  0  0
    6.6649    1.2326    0.7129 C   0  0  0  0  0  0  0  0  0  0  0  0
    5.6714    2.3849    0.8253 C   0  0  0  0  0  0  0  0  0  0  0  0
    6.0975    3.6646    0.0878 C   0  0  0  0  0  0  0  0  0  0  0  0
    5.1848    4.8816    0.2399 C   0  0  0  0  0  0  0  0  0  0  0  0
    5.0945    5.3676    1.6876 C   0  0  0  0  0  0  0  0  0  0  0  0
    4.4780    6.7533    1.7852 C   0  0  0  0  0  0  0  0  0  0  0  0
    8.0418    1.2204    0.5650 C   0  0  0  0  0  0  0  0  0  0  0  0
    8.7396    2.4112    0.6359 N   0  0  0  0  0  0  0  0  0  0  0  0
    9.1420    2.8281   -0.5207 C   0  0  0  0  0  0  0  0  0  0  0  0
    9.9357    4.0987   -0.6118 C   0  0  0  0  0  0  0  0  0  0  0  0
   10.9091    4.1525    0.3301 C   0  0  0  0  0  0  0  0  0  0  0  0
   12.1068    3.3638   -0.0772 C   0  0  0  0  0  0  0  0  0  0  0  0
   12.3038    2.0942    0.0052 N   0  0  0  0  0  0  0  0  0  0  0  0
   11.1733    1.4032    0.4512 N   0  0  0  0  0  0  0  0  0  0  0  0
   11.0601    0.1563    0.0792 C   0  0  0  0  0  0  0  0  0  0  0  0
   12.3565   -0.4363   -0.5460 C   0  0  0  0  0  0  0  0  0  0  0  0
    9.8685   -0.6372    0.2067 N   0  0  0  0  0  0  0  0  0  0  0  0
    9.9418   -2.0890    0.0105 C   0  0  0  0  0  0  0  0  0  0  0  0
    8.5685   -0.1125    0.4477 C   0  0  0  0  0  0  0  0  0  0  0  0
    7.4114   -0.8894    0.5972 C   0  0  0  0  0  0  0  0  0  0  0  0
    3.5697    0.6337    4.0147 H   0  0  0  0  0  0  0  0  0  0  0  0
    5.3595    0.7256    3.5463 H   0  0  0  0  0  0  0  0  0  0  0  0
    2.9956   -0.4535    1.9963 H   0  0  0  0  0  0  0  0  0  0  0  0
    4.4094   -0.2539    0.0427 H   0  0  0  0  0  0  0  0  0  0  0  0
    4.9546   -1.6922    0.9148 H   0  0  0  0  0  0  0  0  0  0  0  0
    5.5339    2.6065    1.8891 H   0  0  0  0  0  0  0  0  0  0  0  0
    4.6997    2.0836    0.4228 H   0  0  0  0  0  0  0  0  0  0  0  0
    6.2179    3.4396   -0.9802 H   0  0  0  0  0  0  0  0  0  0  0  0
    7.0629    4.0008    0.4624 H   0  0  0  0  0  0  0  0  0  0  0  0
    4.1872    4.6748   -0.1627 H   0  0  0  0  0  0  0  0  0  0  0  0
    5.6146    5.6848   -0.3745 H   0  0  0  0  0  0  0  0  0  0  0  0
    6.0951    5.3995    2.1374 H   0  0  0  0  0  0  0  0  0  0  0  0
    4.4952    4.6663    2.2780 H   0  0  0  0  0  0  0  0  0  0  0  0
    5.0907    7.4935    1.2595 H   0  0  0  0  0  0  0  0  0  0  0  0
    4.4064    7.0606    2.8325 H   0  0  0  0  0  0  0  0  0  0  0  0
    3.4723    6.7686    1.3541 H   0  0  0  0  0  0  0  0  0  0  0  0
    8.9431    2.3219   -1.4811 H   0  0  0  0  0  0  0  0  0  0  0  0
    9.2005    4.9016   -0.5909 H   0  0  0  0  0  0  0  0  0  0  0  0
   10.6461    3.8073    1.3363 H   0  0  0  0  0  0  0  0  0  0  0  0
   12.9319    3.9956   -0.4890 H   0  0  0  0  0  0  0  0  0  0  0  0
   12.4074   -1.5065   -0.6693 H   0  0  0  0  0  0  0  0  0  0  0  0
   13.2116   -0.1743    0.0993 H   0  0  0  0  0  0  0  0  0  0  0  0
   12.5301    0.0203   -1.5271 H   0  0  0  0  0  0  0  0  0  0  0  0
   10.9420   -2.4850   -0.1443 H   0  0  0  0  0  0  0  0  0  0  0  0
    9.3553   -2.3941   -0.8646 H   0  0  0  0  0  0  0  0  0  0  0  0
    9.5764   -2.6186    0.8982 H   0  0  0  0  0  0  0  0  0  0  0  0
    7.2749   -1.9623    0.5645 H   0  0  0  0  0  0  0  0  0  0  0  0
  1  2  2  0  0  0  0
  1 25  1  0  0  0  0
  1 26  1  0  0  0  0
  2  3  1  0  0  0  0
  2 27  1  0  0  0  0
  3  4  1  0  0  0  0
  3 28  1  0  0  0  0
  3 29  1  0  0  0  0
  4  5  1  0  0  0  0
  4 24  1  0  0  0  0
  5  6  1  0  0  0  0
  5 11  2  0  0  0  0
  6  7  1  0  0  0  0
  6 30  1  0  0  0  0
  6 31  1  0  0  0  0
  7  8  1  0  0  0  0
  7 32  1  0  0  0  0
  7 33  1  0  0  0  0
  8  9  1  0  0  0  0
  8 34  1  0  0  0  0
  8 35  1  0  0  0  0
  9 10  1  0  0  0  0
  9 36  1  0  0  0  0
  9 37  1  0  0  0  0
 10 38  1  0  0  0  0
 10 39  1  0  0  0  0
 10 40  1  0  0  0  0
 11 12  1  0  0  0  0
 11 23  1  0  0  0  0
 12 13  2  3  0  0  0
 13 14  1  0  0  0  0
 13 41  1  0  0  0  0
 14 15  2  3  0  0  0
 14 42  1  0  0  0  0
 15 16  1  0  0  0  0
 15 43  1  0  0  0  0
 16 17  2  3  0  0  0
 16 44  1  0  0  0  0
 17 18  1  0  0  0  0
 18 19  2  3  0  0  0
 19 20  1  0  0  0  0
 19 21  1  0  0  0  0
 20 45  1  0  0  0  0
 20 46  1  0  0  0  0
 20 47  1  0  0  0  0
 21 22  1  0  0  0  0
 21 23  1  0  0  0  0
 22 48  1  0  0  0  0
 22 49  1  0  0  0  0
 22 50  1  0  0  0  0
 23 24  2  0  0  0  0
 24 51  1  0  0  0  0
M  END
$$$$
