
 OpenBabel04232216563D

220219  0  0  0  0  0  0  0  0999 V2000
    1.0503   -0.1455    0.1593 C   0  0  0  0  0  0  0  0  0  0  0  0
    2.5063   -0.1478    0.1407 N   0  0  0  0  0  0  0  0  0  0  0  0
    2.9990   -0.8581   -1.0360 C   0  0  0  0  0  0  0  0  0  0  0  0
    4.5250   -0.8566   -1.0350 C   0  0  0  0  0  0  0  0  0  0  0  0
    5.0506   -1.5957   -2.2592 C   0  0  0  0  0  0  0  0  0  0  0  0
    6.5724   -1.6010   -2.2729 C   0  0  0  0  0  0  0  0  0  0  0  0
    7.0860   -2.3437   -3.4962 C   0  0  0  0  0  0  0  0  0  0  0  0
    8.6057   -2.3472   -3.5086 C   0  0  0  0  0  0  0  0  0  0  0  0
    9.1182   -3.0889   -4.7308 C   0  0  0  0  0  0  0  0  0  0  0  0
   10.6360   -3.0907   -4.7394 C   0  0  0  0  0  0  0  0  0  0  0  0
   11.1480   -3.8298   -5.9625 C   0  0  0  0  0  0  0  0  0  0  0  0
   12.6658   -3.8296   -5.9692 C   0  0  0  0  0  0  0  0  0  0  0  0
   13.1778   -4.5700   -7.1909 C   0  0  0  0  0  0  0  0  0  0  0  0
   14.6943   -4.5686   -7.1989 C   0  0  0  0  0  0  0  0  0  0  0  0
   15.2056   -5.3069   -8.4203 C   0  0  0  0  0  0  0  0  0  0  0  0
   16.7227   -5.3068   -8.4272 C   0  0  0  0  0  0  0  0  0  0  0  0
   17.2329   -6.0489   -9.6474 C   0  0  0  0  0  0  0  0  0  0  0  0
   18.7500   -6.0464   -9.6548 C   0  0  0  0  0  0  0  0  0  0  0  0
   19.2605   -6.7874  -10.8762 C   0  0  0  0  0  0  0  0  0  0  0  0
   20.7771   -6.7833  -10.8843 C   0  0  0  0  0  0  0  0  0  0  0  0
   21.2873   -7.5255  -12.1047 C   0  0  0  0  0  0  0  0  0  0  0  0
   22.8034   -7.5228  -12.1123 C   0  0  0  0  0  0  0  0  0  0  0  0
   23.3135   -8.2667  -13.3314 C   0  0  0  0  0  0  0  0  0  0  0  0
   24.8302   -8.2653  -13.3378 C   0  0  0  0  0  0  0  0  0  0  0  0
   25.3401   -9.0098  -14.5569 C   0  0  0  0  0  0  0  0  0  0  0  0
   26.8568   -9.0074  -14.5641 C   0  0  0  0  0  0  0  0  0  0  0  0
   27.3671   -9.7516  -15.7831 C   0  0  0  0  0  0  0  0  0  0  0  0
   28.8838   -9.7485  -15.7899 C   0  0  0  0  0  0  0  0  0  0  0  0
   29.3946  -10.4912  -17.0096 C   0  0  0  0  0  0  0  0  0  0  0  0
   30.9113  -10.4893  -17.0158 C   0  0  0  0  0  0  0  0  0  0  0  0
   31.4211  -11.2324  -18.2358 C   0  0  0  0  0  0  0  0  0  0  0  0
   32.9377  -11.2308  -18.2434 C   0  0  0  0  0  0  0  0  0  0  0  0
   33.4468  -11.9739  -19.4634 C   0  0  0  0  0  0  0  0  0  0  0  0
   34.9635  -11.9733  -19.4703 C   0  0  0  0  0  0  0  0  0  0  0  0
   35.4741  -12.7182  -20.6887 C   0  0  0  0  0  0  0  0  0  0  0  0
   36.9911  -12.7198  -20.6931 C   0  0  0  0  0  0  0  0  0  0  0  0
   37.5025  -13.4626  -21.9107 C   0  0  0  0  0  0  0  0  0  0  0  0
   39.0209  -13.4619  -21.9162 C   0  0  0  0  0  0  0  0  0  0  0  0
   39.5278  -14.2090  -23.1361 C   0  0  0  0  0  0  0  0  0  0  0  0
   41.0442  -14.2132  -23.1385 C   0  0  0  0  0  0  0  0  0  0  0  0
   41.5546  -14.9597  -24.3569 C   0  0  0  0  0  0  0  0  0  0  0  0
   43.0700  -14.9654  -24.3587 C   0  0  0  0  0  0  0  0  0  0  0  0
   43.5808  -15.7108  -25.5772 C   0  0  0  0  0  0  0  0  0  0  0  0
   45.0976  -15.7147  -25.5802 C   0  0  0  0  0  0  0  0  0  0  0  0
   45.6081  -16.4605  -26.7984 C   0  0  0  0  0  0  0  0  0  0  0  0
   47.1258  -16.4657  -26.8028 C   0  0  0  0  0  0  0  0  0  0  0  0
   47.6368  -17.2110  -28.0203 C   0  0  0  0  0  0  0  0  0  0  0  0
   49.1528  -17.2149  -28.0239 C   0  0  0  0  0  0  0  0  0  0  0  0
   49.6641  -17.9605  -29.2427 C   0  0  0  0  0  0  0  0  0  0  0  0
   51.1822  -17.9687  -29.2479 C   0  0  0  0  0  0  0  0  0  0  0  0
   51.6902  -18.7160  -30.4683 C   0  0  0  0  0  0  0  0  0  0  0  0
   53.2075  -18.7277  -30.4752 C   0  0  0  0  0  0  0  0  0  0  0  0
   53.7186  -19.4770  -31.6955 C   0  0  0  0  0  0  0  0  0  0  0  0
   55.2377  -19.4826  -31.6951 C   0  0  0  0  0  0  0  0  0  0  0  0
   55.7743  -20.2244  -32.9058 C   0  0  0  0  0  0  0  0  0  0  0  0
   57.2893  -20.2146  -32.8800 C   0  0  0  0  0  0  0  0  0  0  0  0
   57.7563  -20.9150  -34.0239 O   0  0  0  0  0  0  0  0  0  0  0  0
   59.1789  -20.9322  -34.0478 C   0  0  0  0  0  0  0  0  0  0  0  0
   59.6383  -21.6872  -35.2767 C   0  0  0  0  0  0  0  0  0  0  0  0
   61.0594  -21.6946  -35.2839 O   0  0  0  0  0  0  0  0  0  0  0  0
   61.5569  -22.3969  -36.4086 C   0  0  0  0  0  0  0  0  0  0  0  0
   63.0689  -22.3759  -36.3447 C   0  0  0  0  0  0  0  0  0  0  0  0
   63.5518  -23.1083  -37.4547 O   0  0  0  0  0  0  0  0  0  0  0  0
   64.9702  -23.0805  -37.5294 C   0  0  0  0  0  0  0  0  0  0  0  0
   65.4387  -23.7787  -38.6758 O   0  0  0  0  0  0  0  0  0  0  0  0
   65.0085  -23.1637  -39.8867 C   0  0  0  0  0  0  0  0  0  0  0  0
   65.5508  -23.9714  -41.0481 C   0  0  0  0  0  0  0  0  0  0  0  0
   65.0509  -23.4088  -42.2462 O   0  0  0  0  0  0  0  0  0  0  0  0
   65.5981  -24.0567  -43.3965 C   0  0  0  0  0  0  0  0  0  0  0  0
   65.0868  -23.3557  -44.6427 C   0  0  0  0  0  0  0  0  0  0  0  0
   65.6080  -22.0251  -44.6613 O   0  0  0  0  0  0  0  0  0  0  0  0
   65.1347  -21.2899  -45.7787 C   0  0  0  0  0  0  0  0  0  0  0  0
   63.7225  -21.1287  -45.7696 O   0  0  0  0  0  0  0  0  0  0  0  0
   63.4215  -20.4802  -47.0297 O   0  0  0  0  0  0  0  0  0  0  0  0
   62.0070  -20.4664  -47.1092 C   0  0  0  0  0  0  0  0  0  0  0  0
   61.6160  -19.7815  -48.2874 O   0  0  0  0  0  0  0  0  0  0  0  0
   60.1692  -19.8494  -48.2980 O   0  0  0  0  0  0  0  0  0  0  0  0
   59.7765  -19.0639  -49.4155 C   0  0  0  0  0  0  0  0  0  0  0  0
   58.3598  -18.9922  -49.5355 O   0  0  0  0  0  0  0  0  0  0  0  0
   57.7680  -18.2963  -48.4456 C   0  0  0  0  0  0  0  0  0  0  0  0
   56.3571  -18.2565  -48.5899 O   0  0  0  0  0  0  0  0  0  0  0  0
    0.6976    0.3900    1.0438 H   0  0  0  0  0  0  0  0  0  0  0  0
    0.6494   -1.1641    0.1947 H   0  0  0  0  0  0  0  0  0  0  0  0
    0.6486    0.3664   -0.7218 H   0  0  0  0  0  0  0  0  0  0  0  0
    2.8557   -0.6036    0.9843 H   0  0  0  0  0  0  0  0  0  0  0  0
    2.6389   -0.3699   -1.9496 H   0  0  0  0  0  0  0  0  0  0  0  0
    2.6364   -1.8933   -1.0381 H   0  0  0  0  0  0  0  0  0  0  0  0
    4.9038   -1.3383   -0.1247 H   0  0  0  0  0  0  0  0  0  0  0  0
    4.9008    0.1744   -1.0372 H   0  0  0  0  0  0  0  0  0  0  0  0
    4.6761   -1.1176   -3.1727 H   0  0  0  0  0  0  0  0  0  0  0  0
    4.6791   -2.6279   -2.2589 H   0  0  0  0  0  0  0  0  0  0  0  0
    6.9519   -2.0801   -1.3620 H   0  0  0  0  0  0  0  0  0  0  0  0
    6.9489   -0.5709   -2.2791 H   0  0  0  0  0  0  0  0  0  0  0  0
    6.7088   -1.8668   -4.4093 H   0  0  0  0  0  0  0  0  0  0  0  0
    6.7130   -3.3753   -3.4918 H   0  0  0  0  0  0  0  0  0  0  0  0
    8.9856   -2.8253   -2.5974 H   0  0  0  0  0  0  0  0  0  0  0  0
    8.9814   -1.3165   -3.5149 H   0  0  0  0  0  0  0  0  0  0  0  0
    8.7412   -2.6104   -5.6439 H   0  0  0  0  0  0  0  0  0  0  0  0
    8.7440   -4.1201   -4.7274 H   0  0  0  0  0  0  0  0  0  0  0  0
   11.0145   -3.5707   -3.8285 H   0  0  0  0  0  0  0  0  0  0  0  0
   11.0114   -2.0600   -4.7427 H   0  0  0  0  0  0  0  0  0  0  0  0
   10.7707   -3.3502   -6.8742 H   0  0  0  0  0  0  0  0  0  0  0  0
   10.7746   -4.8613   -5.9597 H   0  0  0  0  0  0  0  0  0  0  0  0
   13.0435   -4.3080   -5.0571 H   0  0  0  0  0  0  0  0  0  0  0  0
   13.0396   -2.7984   -5.9734 H   0  0  0  0  0  0  0  0  0  0  0  0
   12.7985   -4.0929   -8.1030 H   0  0  0  0  0  0  0  0  0  0  0  0
   12.8052   -5.6018   -7.1855 H   0  0  0  0  0  0  0  0  0  0  0  0
   15.0743   -5.0449   -6.2870 H   0  0  0  0  0  0  0  0  0  0  0  0
   15.0676   -3.5360   -7.2048 H   0  0  0  0  0  0  0  0  0  0  0  0
   14.8272   -4.8312   -9.3328 H   0  0  0  0  0  0  0  0  0  0  0  0
   14.8327   -6.3403   -8.4155 H   0  0  0  0  0  0  0  0  0  0  0  0
   17.1010   -5.7840   -7.5144 H   0  0  0  0  0  0  0  0  0  0  0  0
   17.0957   -4.2758   -8.4330 H   0  0  0  0  0  0  0  0  0  0  0  0
   16.8545   -5.5734  -10.5602 H   0  0  0  0  0  0  0  0  0  0  0  0
   16.8614   -7.0811   -9.6406 H   0  0  0  0  0  0  0  0  0  0  0  0
   19.1295   -6.5230   -8.7424 H   0  0  0  0  0  0  0  0  0  0  0  0
   19.1224   -5.0144   -9.6608 H   0  0  0  0  0  0  0  0  0  0  0  0
   18.8798   -6.3114  -11.7882 H   0  0  0  0  0  0  0  0  0  0  0  0
   18.8887   -7.8196  -10.8692 H   0  0  0  0  0  0  0  0  0  0  0  0
   21.1570   -7.2582   -9.9716 H   0  0  0  0  0  0  0  0  0  0  0  0
   21.1480   -5.7510  -10.8919 H   0  0  0  0  0  0  0  0  0  0  0  0
   20.9074   -7.0499  -13.0175 H   0  0  0  0  0  0  0  0  0  0  0  0
   20.9146   -8.5573  -12.0974 H   0  0  0  0  0  0  0  0  0  0  0  0
   23.1828   -7.9974  -11.1985 H   0  0  0  0  0  0  0  0  0  0  0  0
   23.1758   -6.4908  -12.1202 H   0  0  0  0  0  0  0  0  0  0  0  0
   22.9350   -7.7915  -14.2447 H   0  0  0  0  0  0  0  0  0  0  0  0
   22.9404   -9.2982  -13.3233 H   0  0  0  0  0  0  0  0  0  0  0  0
   25.2087   -8.7401  -12.4242 H   0  0  0  0  0  0  0  0  0  0  0  0
   25.2033   -7.2338  -13.3461 H   0  0  0  0  0  0  0  0  0  0  0  0
   24.9609   -8.5355  -15.4705 H   0  0  0  0  0  0  0  0  0  0  0  0
   24.9676  -10.0415  -14.5481 H   0  0  0  0  0  0  0  0  0  0  0  0
   27.2360   -9.4816  -13.6505 H   0  0  0  0  0  0  0  0  0  0  0  0
   27.2291   -7.9755  -14.5728 H   0  0  0  0  0  0  0  0  0  0  0  0
   26.9879   -9.2775  -16.6968 H   0  0  0  0  0  0  0  0  0  0  0  0
   26.9951  -10.7835  -15.7745 H   0  0  0  0  0  0  0  0  0  0  0  0
   29.2629  -10.2236  -14.8767 H   0  0  0  0  0  0  0  0  0  0  0  0
   29.2558   -8.7165  -15.7974 H   0  0  0  0  0  0  0  0  0  0  0  0
   29.0163  -10.0155  -17.9228 H   0  0  0  0  0  0  0  0  0  0  0  0
   29.0220  -11.5229  -17.0027 H   0  0  0  0  0  0  0  0  0  0  0  0
   31.2899  -10.9651  -16.1027 H   0  0  0  0  0  0  0  0  0  0  0  0
   31.2844   -9.4577  -17.0229 H   0  0  0  0  0  0  0  0  0  0  0  0
   31.0419  -10.7570  -19.1488 H   0  0  0  0  0  0  0  0  0  0  0  0
   31.0483  -12.2640  -18.2280 H   0  0  0  0  0  0  0  0  0  0  0  0
   33.3167  -11.7063  -17.3303 H   0  0  0  0  0  0  0  0  0  0  0  0
   33.3107  -10.1991  -18.2509 H   0  0  0  0  0  0  0  0  0  0  0  0
   33.0683  -11.4982  -20.3765 H   0  0  0  0  0  0  0  0  0  0  0  0
   33.0733  -13.0054  -19.4559 H   0  0  0  0  0  0  0  0  0  0  0  0
   35.3418  -12.4476  -18.5565 H   0  0  0  0  0  0  0  0  0  0  0  0
   35.3370  -10.9417  -19.4788 H   0  0  0  0  0  0  0  0  0  0  0  0
   35.0965  -12.2426  -21.6032 H   0  0  0  0  0  0  0  0  0  0  0  0
   35.0993  -13.7493  -20.6812 H   0  0  0  0  0  0  0  0  0  0  0  0
   37.3662  -13.1927  -19.7799 H   0  0  0  0  0  0  0  0  0  0  0  0
   37.3610  -11.6858  -20.7031 H   0  0  0  0  0  0  0  0  0  0  0  0
   37.1254  -12.9907  -22.8259 H   0  0  0  0  0  0  0  0  0  0  0  0
   37.1301  -14.4960  -21.9021 H   0  0  0  0  0  0  0  0  0  0  0  0
   39.3952  -13.9401  -21.0035 H   0  0  0  0  0  0  0  0  0  0  0  0
   39.3942  -12.4357  -21.9253 H   0  0  0  0  0  0  0  0  0  0  0  0
   39.1540  -13.7307  -24.0492 H   0  0  0  0  0  0  0  0  0  0  0  0
   39.1515  -15.2383  -23.1304 H   0  0  0  0  0  0  0  0  0  0  0  0
   41.4184  -14.6907  -22.2241 H   0  0  0  0  0  0  0  0  0  0  0  0
   41.4218  -13.1827  -23.1449 H   0  0  0  0  0  0  0  0  0  0  0  0
   41.1795  -14.4828  -25.2713 H   0  0  0  0  0  0  0  0  0  0  0  0
   41.1754  -15.9891  -24.3492 H   0  0  0  0  0  0  0  0  0  0  0  0
   43.4434  -15.4431  -23.4446 H   0  0  0  0  0  0  0  0  0  0  0  0
   43.4482  -13.9355  -24.3644 H   0  0  0  0  0  0  0  0  0  0  0  0
   43.2060  -15.2342  -26.4913 H   0  0  0  0  0  0  0  0  0  0  0  0
   43.2040  -16.7409  -25.5701 H   0  0  0  0  0  0  0  0  0  0  0  0
   45.4723  -16.1909  -24.6660 H   0  0  0  0  0  0  0  0  0  0  0  0
   45.4743  -14.6845  -25.5875 H   0  0  0  0  0  0  0  0  0  0  0  0
   45.2333  -15.9840  -27.7130 H   0  0  0  0  0  0  0  0  0  0  0  0
   45.2310  -17.4907  -26.7915 H   0  0  0  0  0  0  0  0  0  0  0  0
   47.4998  -16.9411  -25.8868 H   0  0  0  0  0  0  0  0  0  0  0  0
   47.5019  -15.4346  -26.8087 H   0  0  0  0  0  0  0  0  0  0  0  0
   47.2609  -16.7342  -28.9347 H   0  0  0  0  0  0  0  0  0  0  0  0
   47.2591  -18.2409  -28.0132 H   0  0  0  0  0  0  0  0  0  0  0  0
   49.5281  -17.6921  -27.1100 H   0  0  0  0  0  0  0  0  0  0  0  0
   49.5304  -16.1849  -28.0308 H   0  0  0  0  0  0  0  0  0  0  0  0
   49.2909  -17.4824  -30.1570 H   0  0  0  0  0  0  0  0  0  0  0  0
   49.2856  -18.9900  -29.2372 H   0  0  0  0  0  0  0  0  0  0  0  0
   51.5559  -18.4468  -28.3332 H   0  0  0  0  0  0  0  0  0  0  0  0
   51.5613  -16.9397  -29.2539 H   0  0  0  0  0  0  0  0  0  0  0  0
   51.3168  -18.2378  -31.3804 H   0  0  0  0  0  0  0  0  0  0  0  0
   51.3092  -19.7444  -30.4607 H   0  0  0  0  0  0  0  0  0  0  0  0
   53.5815  -19.2047  -29.5605 H   0  0  0  0  0  0  0  0  0  0  0  0
   53.5883  -17.6985  -30.4823 H   0  0  0  0  0  0  0  0  0  0  0  0
   53.3463  -18.9997  -32.6095 H   0  0  0  0  0  0  0  0  0  0  0  0
   53.3404  -20.5058  -31.6871 H   0  0  0  0  0  0  0  0  0  0  0  0
   55.6045  -19.9569  -30.7766 H   0  0  0  0  0  0  0  0  0  0  0  0
   55.6104  -18.4510  -31.6968 H   0  0  0  0  0  0  0  0  0  0  0  0
   55.4148  -19.7627  -33.8340 H   0  0  0  0  0  0  0  0  0  0  0  0
   55.4087  -21.2588  -32.9203 H   0  0  0  0  0  0  0  0  0  0  0  0
   57.6553  -20.7072  -31.9715 H   0  0  0  0  0  0  0  0  0  0  0  0
   57.6612  -19.1835  -32.9020 H   0  0  0  0  0  0  0  0  0  0  0  0
   59.5664  -21.4175  -33.1437 H   0  0  0  0  0  0  0  0  0  0  0  0
   59.5691  -19.9074  -34.0701 H   0  0  0  0  0  0  0  0  0  0  0  0
   59.2538  -21.2019  -36.1815 H   0  0  0  0  0  0  0  0  0  0  0  0
   59.2506  -22.7126  -35.2530 H   0  0  0  0  0  0  0  0  0  0  0  0
   61.2115  -21.9233  -37.3364 H   0  0  0  0  0  0  0  0  0  0  0  0
   61.1925  -23.4313  -36.4058 H   0  0  0  0  0  0  0  0  0  0  0  0
   63.4179  -22.8291  -35.4097 H   0  0  0  0  0  0  0  0  0  0  0  0
   63.4301  -21.3408  -36.3746 H   0  0  0  0  0  0  0  0  0  0  0  0
   65.3836  -23.5847  -36.6495 H   0  0  0  0  0  0  0  0  0  0  0  0
   65.3417  -22.0491  -37.5503 H   0  0  0  0  0  0  0  0  0  0  0  0
   65.3705  -22.1312  -39.9400 H   0  0  0  0  0  0  0  0  0  0  0  0
   63.9137  -23.1374  -39.9385 H   0  0  0  0  0  0  0  0  0  0  0  0
   65.2286  -25.0176  -40.9648 H   0  0  0  0  0  0  0  0  0  0  0  0
   66.6480  -23.9543  -41.0334 H   0  0  0  0  0  0  0  0  0  0  0  0
   65.2769  -25.1036  -43.3995 H   0  0  0  0  0  0  0  0  0  0  0  0
   66.6915  -24.0034  -43.3568 H   0  0  0  0  0  0  0  0  0  0  0  0
   63.9890  -23.3231  -44.6235 H   0  0  0  0  0  0  0  0  0  0  0  0
   65.4228  -23.8899  -45.5389 H   0  0  0  0  0  0  0  0  0  0  0  0
   65.4612  -21.7788  -46.7042 H   0  0  0  0  0  0  0  0  0  0  0  0
   65.5886  -20.2947  -45.7332 H   0  0  0  0  0  0  0  0  0  0  0  0
   61.5972  -19.9480  -46.2344 H   0  0  0  0  0  0  0  0  0  0  0  0
   61.6299  -21.4953  -47.1418 H   0  0  0  0  0  0  0  0  0  0  0  0
   60.1602  -19.5385  -50.3246 H   0  0  0  0  0  0  0  0  0  0  0  0
   60.1997  -18.0541  -49.3454 H   0  0  0  0  0  0  0  0  0  0  0  0
   58.1527  -17.2727  -48.3788 H   0  0  0  0  0  0  0  0  0  0  0  0
   57.9846  -18.8210  -47.5092 H   0  0  0  0  0  0  0  0  0  0  0  0
   56.1656  -17.6057  -49.2867 H   0  0  0  0  0  0  0  0  0  0  0  0
  1  2  1  0  0  0  0
  1 82  1  0  0  0  0
  1 83  1  0  0  0  0
  1 84  1  0  0  0  0
  2  3  1  0  0  0  0
  2 85  1  0  0  0  0
  3  4  1  0  0  0  0
  3 86  1  0  0  0  0
  3 87  1  0  0  0  0
  4  5  1  0  0  0  0
  4 88  1  0  0  0  0
  4 89  1  0  0  0  0
  5  6  1  0  0  0  0
  5 90  1  0  0  0  0
  5 91  1  0  0  0  0
  6  7  1  0  0  0  0
  6 92  1  0  0  0  0
  6 93  1  0  0  0  0
  7  8  1  0  0  0  0
  7 94  1  0  0  0  0
  7 95  1  0  0  0  0
  8  9  1  0  0  0  0
  8 96  1  0  0  0  0
  8 97  1  0  0  0  0
  9 10  1  0  0  0  0
  9 98  1  0  0  0  0
  9 99  1  0  0  0  0
 10 11  1  0  0  0  0
 10100  1  0  0  0  0
 10101  1  0  0  0  0
 11 12  1  0  0  0  0
 11102  1  0  0  0  0
 11103  1  0  0  0  0
 12 13  1  0  0  0  0
 12104  1  0  0  0  0
 12105  1  0  0  0  0
 13 14  1  0  0  0  0
 13106  1  0  0  0  0
 13107  1  0  0  0  0
 14 15  1  0  0  0  0
 14108  1  0  0  0  0
 14109  1  0  0  0  0
 15 16  1  0  0  0  0
 15110  1  0  0  0  0
 15111  1  0  0  0  0
 16 17  1  0  0  0  0
 16112  1  0  0  0  0
 16113  1  0  0  0  0
 17 18  1  0  0  0  0
 17114  1  0  0  0  0
 17115  1  0  0  0  0
 18 19  1  0  0  0  0
 18116  1  0  0  0  0
 18117  1  0  0  0  0
 19 20  1  0  0  0  0
 19118  1  0  0  0  0
 19119  1  0  0  0  0
 20 21  1  0  0  0  0
 20120  1  0  0  0  0
 20121  1  0  0  0  0
 21 22  1  0  0  0  0
 21122  1  0  0  0  0
 21123  1  0  0  0  0
 22 23  1  0  0  0  0
 22124  1  0  0  0  0
 22125  1  0  0  0  0
 23 24  1  0  0  0  0
 23126  1  0  0  0  0
 23127  1  0  0  0  0
 24 25  1  0  0  0  0
 24128  1  0  0  0  0
 24129  1  0  0  0  0
 25 26  1  0  0  0  0
 25130  1  0  0  0  0
 25131  1  0  0  0  0
 26 27  1  0  0  0  0
 26132  1  0  0  0  0
 26133  1  0  0  0  0
 27 28  1  0  0  0  0
 27134  1  0  0  0  0
 27135  1  0  0  0  0
 28 29  1  0  0  0  0
 28136  1  0  0  0  0
 28137  1  0  0  0  0
 29 30  1  0  0  0  0
 29138  1  0  0  0  0
 29139  1  0  0  0  0
 30 31  1  0  0  0  0
 30140  1  0  0  0  0
 30141  1  0  0  0  0
 31 32  1  0  0  0  0
 31142  1  0  0  0  0
 31143  1  0  0  0  0
 32 33  1  0  0  0  0
 32144  1  0  0  0  0
 32145  1  0  0  0  0
 33 34  1  0  0  0  0
 33146  1  0  0  0  0
 33147  1  0  0  0  0
 34 35  1  0  0  0  0
 34148  1  0  0  0  0
 34149  1  0  0  0  0
 35 36  1  0  0  0  0
 35150  1  0  0  0  0
 35151  1  0  0  0  0
 36 37  1  0  0  0  0
 36152  1  0  0  0  0
 36153  1  0  0  0  0
 37 38  1  0  0  0  0
 37154  1  0  0  0  0
 37155  1  0  0  0  0
 38 39  1  0  0  0  0
 38156  1  0  0  0  0
 38157  1  0  0  0  0
 39 40  1  0  0  0  0
 39158  1  0  0  0  0
 39159  1  0  0  0  0
 40 41  1  0  0  0  0
 40160  1  0  0  0  0
 40161  1  0  0  0  0
 41 42  1  0  0  0  0
 41162  1  0  0  0  0
 41163  1  0  0  0  0
 42 43  1  0  0  0  0
 42164  1  0  0  0  0
 42165  1  0  0  0  0
 43 44  1  0  0  0  0
 43166  1  0  0  0  0
 43167  1  0  0  0  0
 44 45  1  0  0  0  0
 44168  1  0  0  0  0
 44169  1  0  0  0  0
 45 46  1  0  0  0  0
 45170  1  0  0  0  0
 45171  1  0  0  0  0
 46 47  1  0  0  0  0
 46172  1  0  0  0  0
 46173  1  0  0  0  0
 47 48  1  0  0  0  0
 47174  1  0  0  0  0
 47175  1  0  0  0  0
 48 49  1  0  0  0  0
 48176  1  0  0  0  0
 48177  1  0  0  0  0
 49 50  1  0  0  0  0
 49178  1  0  0  0  0
 49179  1  0  0  0  0
 50 51  1  0  0  0  0
 50180  1  0  0  0  0
 50181  1  0  0  0  0
 51 52  1  0  0  0  0
 51182  1  0  0  0  0
 51183  1  0  0  0  0
 52 53  1  0  0  0  0
 52184  1  0  0  0  0
 52185  1  0  0  0  0
 53 54  1  0  0  0  0
 53186  1  0  0  0  0
 53187  1  0  0  0  0
 54 55  1  0  0  0  0
 54188  1  0  0  0  0
 54189  1  0  0  0  0
 55 56  1  0  0  0  0
 55190  1  0  0  0  0
 55191  1  0  0  0  0
 56 57  1  0  0  0  0
 56192  1  0  0  0  0
 56193  1  0  0  0  0
 57 58  1  0  0  0  0
 58 59  1  0  0  0  0
 58194  1  0  0  0  0
 58195  1  0  0  0  0
 59 60  1  0  0  0  0
 59196  1  0  0  0  0
 59197  1  0  0  0  0
 60 61  1  0  0  0  0
 61 62  1  0  0  0  0
 61198  1  0  0  0  0
 61199  1  0  0  0  0
 62 63  1  0  0  0  0
 62200  1  0  0  0  0
 62201  1  0  0  0  0
 63 64  1  0  0  0  0
 64 65  1  0  0  0  0
 64202  1  0  0  0  0
 64203  1  0  0  0  0
 65 66  1  0  0  0  0
 66 67  1  0  0  0  0
 66204  1  0  0  0  0
 66205  1  0  0  0  0
 67 68  1  0  0  0  0
 67206  1  0  0  0  0
 67207  1  0  0  0  0
 68 69  1  0  0  0  0
 69 70  1  0  0  0  0
 69208  1  0  0  0  0
 69209  1  0  0  0  0
 70 71  1  0  0  0  0
 70210  1  0  0  0  0
 70211  1  0  0  0  0
 71 72  1  0  0  0  0
 72 73  1  0  0  0  0
 72212  1  0  0  0  0
 72213  1  0  0  0  0
 73 74  1  0  0  0  0
 74 75  1  0  0  0  0
 75 76  1  0  0  0  0
 75214  1  0  0  0  0
 75215  1  0  0  0  0
 76 77  1  0  0  0  0
 77 78  1  0  0  0  0
 78 79  1  0  0  0  0
 78216  1  0  0  0  0
 78217  1  0  0  0  0
 79 80  1  0  0  0  0
 80 81  1  0  0  0  0
 80218  1  0  0  0  0
 80219  1  0  0  0  0
 81220  1  0  0  0  0
M  END
$$$$
