
 OpenBabel04232216493D

 51 53  0  0  0  0  0  0  0  0999 V2000
    0.8283    0.0710    0.0710 C   0  0  0  0  0  0  0  0  0  0  0  0
    2.2724    0.4674    0.0319 C   0  0  0  0  0  0  0  0  0  0  0  0
    2.7593    1.2754   -0.9873 C   0  0  0  0  0  0  0  0  0  0  0  0
    4.1450    1.3909   -1.2044 C   0  0  0  0  0  0  0  0  0  0  0  0
    5.0908    0.8575   -0.3159 C   0  0  0  0  0  0  0  0  0  0  0  0
    6.4775    0.7342   -0.5647 N   0  0  0  0  0  0  0  0  0  0  0  0
    7.2748    1.5538   -1.1818 C   0  0  0  0  0  0  0  0  0  0  0  0
    7.0059    2.9100   -1.7786 C   0  0  0  0  0  0  0  0  0  0  0  0
    8.7389    1.2083   -1.2397 C   0  0  0  0  0  0  0  0  0  0  0  0
    9.3048    0.4938   -2.1772 N   0  0  0  0  0  0  0  0  0  0  0  0
   10.6550    0.6717   -1.9146 C   0  0  0  0  0  0  0  0  0  0  0  0
   11.6744    0.0048   -2.7784 C   0  0  0  0  0  0  0  0  0  0  0  0
   10.9797    1.4773   -0.9436 N   0  0  0  0  0  0  0  0  0  0  0  0
    9.7811    1.8226   -0.3731 C   0  0  0  0  0  0  0  0  0  0  0  0
    9.6309    2.5040    0.7598 C   0  0  0  0  0  0  0  0  0  0  0  0
    8.3721    2.4655    1.4785 C   0  0  0  0  0  0  0  0  0  0  0  0
    7.5170    3.4668    1.7563 C   0  0  0  0  0  0  0  0  0  0  0  0
    6.1546    3.0761    2.1510 C   0  0  0  0  0  0  0  0  0  0  0  0
    5.0559    3.5570    1.2671 C   0  0  0  0  0  0  0  0  0  0  0  0
    5.9805    2.2173    3.1759 C   0  0  0  0  0  0  0  0  0  0  0  0
    6.5855    2.6772    4.4887 C   0  0  0  0  0  0  0  0  0  0  0  0
    5.3579    0.8703    3.1350 C   0  0  0  0  0  0  0  0  0  0  0  0
    5.3509   -0.0099    2.0918 C   0  0  0  0  0  0  0  0  0  0  0  0
    5.5253   -1.5020    2.2687 C   0  0  0  0  0  0  0  0  0  0  0  0
    4.5705    0.3058    0.8686 C   0  0  0  0  0  0  0  0  0  0  0  0
    3.1872    0.0016    0.9674 C   0  0  0  0  0  0  0  0  0  0  0  0
    0.1793    0.9496    0.0185 H   0  0  0  0  0  0  0  0  0  0  0  0
    0.5778   -0.4827    0.9822 H   0  0  0  0  0  0  0  0  0  0  0  0
    0.6100   -0.5827   -0.7819 H   0  0  0  0  0  0  0  0  0  0  0  0
    2.0657    1.7714   -1.6617 H   0  0  0  0  0  0  0  0  0  0  0  0
    4.4392    1.9139   -2.1021 H   0  0  0  0  0  0  0  0  0  0  0  0
    5.9856    3.0661   -2.1009 H   0  0  0  0  0  0  0  0  0  0  0  0
    7.6491    3.0532   -2.6524 H   0  0  0  0  0  0  0  0  0  0  0  0
    7.2608    3.6810   -1.0479 H   0  0  0  0  0  0  0  0  0  0  0  0
   11.2056   -0.7022   -3.4662 H   0  0  0  0  0  0  0  0  0  0  0  0
   12.3888   -0.5296   -2.1451 H   0  0  0  0  0  0  0  0  0  0  0  0
   12.2164    0.7635   -3.3494 H   0  0  0  0  0  0  0  0  0  0  0  0
   10.4886    2.8941    1.2775 H   0  0  0  0  0  0  0  0  0  0  0  0
    8.0479    1.4392    1.6778 H   0  0  0  0  0  0  0  0  0  0  0  0
    7.7379    4.5051    1.5316 H   0  0  0  0  0  0  0  0  0  0  0  0
    5.2758    3.3861    0.2180 H   0  0  0  0  0  0  0  0  0  0  0  0
    4.9331    4.6375    1.3887 H   0  0  0  0  0  0  0  0  0  0  0  0
    4.1007    3.0928    1.5237 H   0  0  0  0  0  0  0  0  0  0  0  0
    7.6794    2.6531    4.4896 H   0  0  0  0  0  0  0  0  0  0  0  0
    6.2135    2.1200    5.3514 H   0  0  0  0  0  0  0  0  0  0  0  0
    6.2804    3.7224    4.6543 H   0  0  0  0  0  0  0  0  0  0  0  0
    5.3534    0.4258    4.1307 H   0  0  0  0  0  0  0  0  0  0  0  0
    6.5900   -1.7432    2.3670 H   0  0  0  0  0  0  0  0  0  0  0  0
    5.1663   -2.0677    1.3985 H   0  0  0  0  0  0  0  0  0  0  0  0
    4.9916   -1.8747    3.1466 H   0  0  0  0  0  0  0  0  0  0  0  0
    2.8358   -0.6189    1.7921 H   0  0  0  0  0  0  0  0  0  0  0  0
  1  2  1  0  0  0  0
  1 27  1  0  0  0  0
  1 28  1  0  0  0  0
  1 29  1  0  0  0  0
  2  3  1  0  0  0  0
  2 26  2  0  0  0  0
  3  4  2  0  0  0  0
  3 30  1  0  0  0  0
  4  5  1  0  0  0  0
  4 31  1  0  0  0  0
  5  6  1  0  0  0  0
  5 25  2  0  0  0  0
  6  7  2  3  0  0  0
  7  8  1  0  0  0  0
  7  9  1  0  0  0  0
  8 32  1  0  0  0  0
  8 33  1  0  0  0  0
  8 34  1  0  0  0  0
  9 10  2  0  0  0  0
  9 14  1  0  0  0  0
 10 11  1  0  0  0  0
 11 12  1  0  0  0  0
 11 13  2  0  0  0  0
 12 35  1  0  0  0  0
 12 36  1  0  0  0  0
 12 37  1  0  0  0  0
 13 14  1  0  0  0  0
 14 15  2  3  0  0  0
 15 16  1  0  0  0  0
 15 38  1  0  0  0  0
 16 17  2  3  0  0  0
 16 39  1  0  0  0  0
 17 18  1  0  0  0  0
 17 40  1  0  0  0  0
 18 19  1  0  0  0  0
 18 20  2  3  0  0  0
 19 41  1  0  0  0  0
 19 42  1  0  0  0  0
 19 43  1  0  0  0  0
 20 21  1  0  0  0  0
 20 22  1  0  0  0  0
 21 44  1  0  0  0  0
 21 45  1  0  0  0  0
 21 46  1  0  0  0  0
 22 23  2  3  0  0  0
 22 47  1  0  0  0  0
 23 24  1  0  0  0  0
 23 25  1  0  0  0  0
 24 48  1  0  0  0  0
 24 49  1  0  0  0  0
 24 50  1  0  0  0  0
 25 26  1  0  0  0  0
 26 51  1  0  0  0  0
M  END
$$$$
