
 OpenBabel04232216523D

 80 79  0  0  1  0  0  0  0  0999 V2000
    4.1715    1.6756   -0.6506 C   0  0  0  0  0  0  0  0  0  0  0  0
    5.5836    1.1258   -0.5195 C   0  0  0  0  0  0  0  0  0  0  0  0
    5.7947    0.0350    0.5364 C   0  0  0  0  0  0  0  0  0  0  0  0
    4.9921   -1.2717    0.3659 C   0  0  0  0  0  0  0  0  0  0  0  0
    5.3864   -2.4477    1.3468 C   0  0  3  0  0  0  0  0  0  0  0  0
    4.9922   -2.1349    2.8528 C   0  0  0  0  0  0  0  0  0  0  0  0
    3.5161   -1.9639    3.2753 C   0  0  0  0  0  0  0  0  0  0  0  0
    3.4262   -1.8813    4.8142 C   0  0  0  0  0  0  0  0  0  0  0  0
    1.9917   -1.6928    5.3224 C   0  0  0  0  0  0  0  0  0  0  0  0
    1.9154   -1.5963    6.8535 C   0  0  0  0  0  0  0  0  0  0  0  0
    0.4755   -1.3654    7.3240 C   0  0  0  0  0  0  0  0  0  0  0  0
    0.3722   -1.2418    8.8370 C   0  0  0  0  0  0  0  0  0  0  0  0
    4.6152   -3.7494    0.9179 C   0  0  0  0  0  0  0  0  0  0  0  0
    4.7023   -4.3989   -0.5160 C   0  0  3  0  0  0  0  0  0  0  0  0
    6.0886   -5.0440   -0.7951 C   0  0  0  0  0  0  0  0  0  0  0  0
    6.3148   -5.8390   -2.0967 C   0  0  0  0  0  0  0  0  0  0  0  0
    6.1910   -5.0908   -3.4291 C   0  0  0  0  0  0  0  0  0  0  0  0
    7.1793   -3.9470   -3.7105 C   0  0  0  0  0  0  0  0  0  0  0  0
    8.6528   -4.3622   -3.7279 C   0  0  0  0  0  0  0  0  0  0  0  0
    9.5583   -3.2062   -4.1371 C   0  0  0  0  0  0  0  0  0  0  0  0
    3.5465   -5.4511   -0.6269 C   0  0  0  0  0  0  0  0  0  0  0  0
    2.1444   -4.8127   -0.6255 C   0  0  0  0  0  0  0  0  0  0  0  0
    1.0094   -5.8353   -0.7182 C   0  0  0  0  0  0  0  0  0  0  0  0
   -0.3394   -5.1237   -0.7161 C   0  0  0  0  0  0  0  0  0  0  0  0
    6.9391   -2.6335    1.3588 C   0  0  0  0  0  0  0  0  0  0  0  0
    7.5014   -3.7530    2.2296 C   0  0  0  0  0  0  0  0  0  0  0  0
    4.2100    2.7084   -1.0118 H   0  0  0  0  0  0  0  0  0  0  0  0
    3.6398    1.6735    0.3062 H   0  0  0  0  0  0  0  0  0  0  0  0
    3.5932    1.0989   -1.3799 H   0  0  0  0  0  0  0  0  0  0  0  0
    6.2415    1.9614   -0.2521 H   0  0  0  0  0  0  0  0  0  0  0  0
    5.9245    0.7776   -1.5036 H   0  0  0  0  0  0  0  0  0  0  0  0
    6.8612   -0.1924    0.4804 H   0  0  0  0  0  0  0  0  0  0  0  0
    5.6046    0.4535    1.5284 H   0  0  0  0  0  0  0  0  0  0  0  0
    5.1446   -1.6114   -0.6631 H   0  0  0  0  0  0  0  0  0  0  0  0
    3.9227   -1.0584    0.4681 H   0  0  0  0  0  0  0  0  0  0  0  0
    5.5476   -1.2483    3.1858 H   0  0  0  0  0  0  0  0  0  0  0  0
    5.3599   -2.9677    3.4661 H   0  0  0  0  0  0  0  0  0  0  0  0
    2.9137   -2.8093    2.9442 H   0  0  0  0  0  0  0  0  0  0  0  0
    3.1017   -1.0529    2.8260 H   0  0  0  0  0  0  0  0  0  0  0  0
    4.0505   -1.0640    5.1804 H   0  0  0  0  0  0  0  0  0  0  0  0
    3.8323   -2.8120    5.2538 H   0  0  0  0  0  0  0  0  0  0  0  0
    1.3670   -2.5262    4.9813 H   0  0  0  0  0  0  0  0  0  0  0  0
    1.5750   -0.7744    4.8817 H   0  0  0  0  0  0  0  0  0  0  0  0
    2.5521   -0.7758    7.2069 H   0  0  0  0  0  0  0  0  0  0  0  0
    2.3033   -2.5198    7.3018 H   0  0  0  0  0  0  0  0  0  0  0  0
   -0.1589   -2.1944    6.9920 H   0  0  0  0  0  0  0  0  0  0  0  0
    0.0801   -0.4513    6.8673 H   0  0  0  0  0  0  0  0  0  0  0  0
    0.7045   -2.1597    9.3329 H   0  0  0  0  0  0  0  0  0  0  0  0
   -0.6678   -1.0590    9.1299 H   0  0  0  0  0  0  0  0  0  0  0  0
    0.9772   -0.4097    9.2101 H   0  0  0  0  0  0  0  0  0  0  0  0
    3.5698   -3.4778    1.0587 H   0  0  0  0  0  0  0  0  0  0  0  0
    4.8051   -4.5394    1.6563 H   0  0  0  0  0  0  0  0  0  0  0  0
    4.5223   -3.6301   -1.2761 H   0  0  0  0  0  0  0  0  0  0  0  0
    6.3064   -5.7332    0.0328 H   0  0  0  0  0  0  0  0  0  0  0  0
    6.8536   -4.2778   -0.7766 H   0  0  0  0  0  0  0  0  0  0  0  0
    5.6385   -6.6992   -2.1203 H   0  0  0  0  0  0  0  0  0  0  0  0
    7.3221   -6.2770   -2.0395 H   0  0  0  0  0  0  0  0  0  0  0  0
    5.1716   -4.7060   -3.5316 H   0  0  0  0  0  0  0  0  0  0  0  0
    6.3134   -5.8359   -4.2328 H   0  0  0  0  0  0  0  0  0  0  0  0
    7.0251   -3.1377   -2.9897 H   0  0  0  0  0  0  0  0  0  0  0  0
    6.9292   -3.5379   -4.6973 H   0  0  0  0  0  0  0  0  0  0  0  0
    8.8032   -5.1865   -4.4372 H   0  0  0  0  0  0  0  0  0  0  0  0
    8.9591   -4.7181   -2.7418 H   0  0  0  0  0  0  0  0  0  0  0  0
    9.3055   -2.8300   -5.1333 H   0  0  0  0  0  0  0  0  0  0  0  0
   10.6061   -3.5228   -4.1536 H   0  0  0  0  0  0  0  0  0  0  0  0
    9.4740   -2.3703   -3.4273 H   0  0  0  0  0  0  0  0  0  0  0  0
    3.6255   -6.1681    0.1995 H   0  0  0  0  0  0  0  0  0  0  0  0
    3.6448   -6.0253   -1.5534 H   0  0  0  0  0  0  0  0  0  0  0  0
    2.0727   -4.1097   -1.4599 H   0  0  0  0  0  0  0  0  0  0  0  0
    1.9719   -4.2423    0.2913 H   0  0  0  0  0  0  0  0  0  0  0  0
    1.0512   -6.5214    0.1365 H   0  0  0  0  0  0  0  0  0  0  0  0
    1.1083   -6.4334   -1.6287 H   0  0  0  0  0  0  0  0  0  0  0  0
   -0.4732   -4.5333    0.1944 H   0  0  0  0  0  0  0  0  0  0  0  0
   -1.1586   -5.8472   -0.7751 H   0  0  0  0  0  0  0  0  0  0  0  0
   -0.4224   -4.4467   -1.5740 H   0  0  0  0  0  0  0  0  0  0  0  0
    7.4075   -1.7179    1.7446 H   0  0  0  0  0  0  0  0  0  0  0  0
    7.3156   -2.7318    0.3397 H   0  0  0  0  0  0  0  0  0  0  0  0
    7.3891   -3.5276    3.2948 H   0  0  0  0  0  0  0  0  0  0  0  0
    8.5753   -3.8595    2.0495 H   0  0  0  0  0  0  0  0  0  0  0  0
    7.0312   -4.7204    2.0329 H   0  0  0  0  0  0  0  0  0  0  0  0
  1  2  1  0  0  0  0
  1 27  1  0  0  0  0
  1 28  1  0  0  0  0
  1 29  1  0  0  0  0
  2  3  1  0  0  0  0
  2 30  1  0  0  0  0
  2 31  1  0  0  0  0
  3  4  1  0  0  0  0
  3 32  1  0  0  0  0
  3 33  1  0  0  0  0
  4  5  1  0  0  0  0
  4 34  1  0  0  0  0
  4 35  1  0  0  0  0
  5  6  1  0  0  0  0
  5 13  1  0  0  0  0
  5 25  1  0  0  0  0
  6  7  1  0  0  0  0
  6 36  1  0  0  0  0
  6 37  1  0  0  0  0
  7  8  1  0  0  0  0
  7 38  1  0  0  0  0
  7 39  1  0  0  0  0
  8  9  1  0  0  0  0
  8 40  1  0  0  0  0
  8 41  1  0  0  0  0
  9 10  1  0  0  0  0
  9 42  1  0  0  0  0
  9 43  1  0  0  0  0
 10 11  1  0  0  0  0
 10 44  1  0  0  0  0
 10 45  1  0  0  0  0
 11 12  1  0  0  0  0
 11 46  1  0  0  0  0
 11 47  1  0  0  0  0
 12 48  1  0  0  0  0
 12 49  1  0  0  0  0
 12 50  1  0  0  0  0
 13 14  1  0  0  0  0
 13 51  1  0  0  0  0
 13 52  1  0  0  0  0
 14 15  1  0  0  0  0
 14 21  1  0  0  0  0
 14 53  1  0  0  0  0
 15 16  1  0  0  0  0
 15 54  1  0  0  0  0
 15 55  1  0  0  0  0
 16 17  1  0  0  0  0
 16 56  1  0  0  0  0
 16 57  1  0  0  0  0
 17 18  1  0  0  0  0
 17 58  1  0  0  0  0
 17 59  1  0  0  0  0
 18 19  1  0  0  0  0
 18 60  1  0  0  0  0
 18 61  1  0  0  0  0
 19 20  1  0  0  0  0
 19 62  1  0  0  0  0
 19 63  1  0  0  0  0
 20 64  1  0  0  0  0
 20 65  1  0  0  0  0
 20 66  1  0  0  0  0
 21 22  1  0  0  0  0
 21 67  1  0  0  0  0
 21 68  1  0  0  0  0
 22 23  1  0  0  0  0
 22 69  1  0  0  0  0
 22 70  1  0  0  0  0
 23 24  1  0  0  0  0
 23 71  1  0  0  0  0
 23 72  1  0  0  0  0
 24 73  1  0  0  0  0
 24 74  1  0  0  0  0
 24 75  1  0  0  0  0
 25 26  1  0  0  0  0
 25 76  1  0  0  0  0
 25 77  1  0  0  0  0
 26 78  1  0  0  0  0
 26 79  1  0  0  0  0
 26 80  1  0  0  0  0
M  END
$$$$
