
 OpenBabel04232216563D

120119  0  0  0  0  0  0  0  0999 V2000
   26.9784   24.9965  -33.3442 C   0  0  0  0  0  0  0  0  0  0  0  0
   26.4932   23.6434  -33.5500 N   0  0  0  0  0  0  0  0  0  0  0  0
   26.9540   22.7639  -32.4797 C   0  0  0  0  0  0  0  0  0  0  0  0
   26.4488   21.3546  -32.7428 C   0  0  0  0  0  0  0  0  0  0  0  0
   26.9166   20.3930  -31.6627 C   0  0  0  0  0  0  0  0  0  0  0  0
   26.4887   19.0957  -32.0516 O   0  0  0  0  0  0  0  0  0  0  0  0
   27.0238   18.1939  -31.0530 O   0  0  0  0  0  0  0  0  0  0  0  0
   26.0854   17.1185  -30.8085 O   0  0  0  0  0  0  0  0  0  0  0  0
   26.6110   16.2003  -29.8212 O   0  0  0  0  0  0  0  0  0  0  0  0
   26.7833   14.8806  -30.3943 O   0  0  0  0  0  0  0  0  0  0  0  0
   27.1512   13.9258  -29.3663 O   0  0  0  0  0  0  0  0  0  0  0  0
   26.1362   12.8985  -29.2363 O   0  0  0  0  0  0  0  0  0  0  0  0
   26.4569   12.0010  -28.1439 O   0  0  0  0  0  0  0  0  0  0  0  0
   26.6153   10.6398  -28.6233 O   0  0  0  0  0  0  0  0  0  0  0  0
   27.1107    9.7957  -27.5563 O   0  0  0  0  0  0  0  0  0  0  0  0
   26.2836    8.6159  -27.3838 O   0  0  0  0  0  0  0  0  0  0  0  0
   27.0405    7.6028  -26.6705 O   0  0  0  0  0  0  0  0  0  0  0  0
   26.5823    6.2727  -27.0044 O   0  0  0  0  0  0  0  0  0  0  0  0
   26.1230    5.5864  -25.8115 O   0  0  0  0  0  0  0  0  0  0  0  0
   25.8771    4.1878  -26.1044 O   0  0  0  0  0  0  0  0  0  0  0  0
   26.5413    3.3311  -25.1437 O   0  0  0  0  0  0  0  0  0  0  0  0
   27.9822    3.3814  -25.3176 O   0  0  0  0  0  0  0  0  0  0  0  0
   28.5096    2.7567  -24.1548 C   0  0  0  0  0  0  0  0  0  0  0  0
   29.9219    2.9131  -24.0987 O   0  0  0  0  0  0  0  0  0  0  0  0
   30.3239    2.2528  -22.8669 O   0  0  0  0  0  0  0  0  0  0  0  0
   31.7205    2.0372  -22.9939 C   0  0  0  0  0  0  0  0  0  0  0  0
   32.2043    1.1407  -21.9918 O   0  0  0  0  0  0  0  0  0  0  0  0
   31.7129   -0.1873  -22.2005 C   0  0  0  0  0  0  0  0  0  0  0  0
   32.2032   -1.0761  -21.0723 C   0  0  0  0  0  0  0  0  0  0  0  0
   31.7107   -2.3973  -21.2752 O   0  0  0  0  0  0  0  0  0  0  0  0
   32.1307   -3.2571  -20.2290 C   0  0  0  0  0  0  0  0  0  0  0  0
   31.4967   -4.5260  -20.3474 O   0  0  0  0  0  0  0  0  0  0  0  0
   31.9695   -5.3061  -19.2042 O   0  0  0  0  0  0  0  0  0  0  0  0
   31.7339   -6.6690  -19.5569 C   0  0  0  0  0  0  0  0  0  0  0  0
   32.2844   -7.0298  -20.8103 O   0  0  0  0  0  0  0  0  0  0  0  0
   33.6967   -7.0339  -20.8207 C   0  0  0  0  0  0  0  0  0  0  0  0
   34.1711   -7.4658  -22.1997 C   0  0  0  0  0  0  0  0  0  0  0  0
   33.6928   -6.4939  -23.1374 O   0  0  0  0  0  0  0  0  0  0  0  0
   33.9332   -6.8916  -24.4916 C   0  0  0  0  0  0  0  0  0  0  0  0
   33.2254   -8.0809  -24.8283 O   0  0  0  0  0  0  0  0  0  0  0  0
   33.5715   -8.3380  -26.2184 O   0  0  0  0  0  0  0  0  0  0  0  0
   33.3458   -9.7319  -26.4304 C   0  0  0  0  0  0  0  0  0  0  0  0
   33.8243  -10.1668  -27.7017 O   0  0  0  0  0  0  0  0  0  0  0  0
   35.2454  -10.0956  -27.7869 C   0  0  0  0  0  0  0  0  0  0  0  0
   35.7128  -10.3259  -29.1125 O   0  0  0  0  0  0  0  0  0  0  0  0
   35.2237   -9.1932  -29.8889 O   0  0  0  0  0  0  0  0  0  0  0  0
   35.3148   -9.6091  -31.2401 C   0  0  0  0  0  0  0  0  0  0  0  0
   34.6538   -8.6727  -32.0838 O   0  0  0  0  0  0  0  0  0  0  0  0
   35.0709   -9.0075  -33.4374 O   0  0  0  0  0  0  0  0  0  0  0  0
   34.5903   -7.9292  -34.2264 C   0  0  0  0  0  0  0  0  0  0  0  0
   35.1340   -7.9720  -35.5394 O   0  0  0  0  0  0  0  0  0  0  0  0
   34.5153   -6.8470  -36.2205 O   0  0  0  0  0  0  0  0  0  0  0  0
   34.4667   -7.0637  -37.6515 O   0  0  0  0  0  0  0  0  0  0  0  0
   33.7485   -8.2843  -37.9639 O   0  0  0  0  0  0  0  0  0  0  0  0
   34.3601   -8.7736  -39.1422 C   0  0  0  0  0  0  0  0  0  0  0  0
   33.9812  -10.1248  -39.3501 O   0  0  0  0  0  0  0  0  0  0  0  0
   34.5499  -10.4904  -40.6260 O   0  0  0  0  0  0  0  0  0  0  0  0
   33.5989  -11.2638  -41.3908 O   0  0  0  0  0  0  0  0  0  0  0  0
   34.0651  -11.3765  -42.7454 O   0  0  0  0  0  0  0  0  0  0  0  0
   34.0965  -12.7500  -43.1831 O   0  0  0  0  0  0  0  0  0  0  0  0
   33.9062  -12.7651  -44.6115 O   0  0  0  0  0  0  0  0  0  0  0  0
   33.3641  -14.0176  -45.0661 O   0  0  0  0  0  0  0  0  0  0  0  0
   34.2084  -14.5362  -46.1160 O   0  0  0  0  0  0  0  0  0  0  0  0
   33.6615  -15.7525  -46.6619 O   0  0  0  0  0  0  0  0  0  0  0  0
   33.5692  -15.6484  -48.0991 O   0  0  0  0  0  0  0  0  0  0  0  0
   32.9103  -16.8113  -48.6490 O   0  0  0  0  0  0  0  0  0  0  0  0
   33.3982  -17.0720  -49.9854 O   0  0  0  0  0  0  0  0  0  0  0  0
   33.5342  -18.4947  -50.2130 O   0  0  0  0  0  0  0  0  0  0  0  0
   33.7752  -18.7554  -51.6188 O   0  0  0  0  0  0  0  0  0  0  0  0
   32.6551  -19.4599  -52.2111 O   0  0  0  0  0  0  0  0  0  0  0  0
   32.9402  -19.7946  -53.5953 O   0  0  0  0  0  0  0  0  0  0  0  0
   33.1293  -21.2252  -53.7474 O   0  0  0  0  0  0  0  0  0  0  0  0
   33.4371  -21.5604  -55.1276 O   0  0  0  0  0  0  0  0  0  0  0  0
   32.4017  -22.4104  -55.6876 O   0  0  0  0  0  0  0  0  0  0  0  0
   32.6055  -22.6047  -57.1124 O   0  0  0  0  0  0  0  0  0  0  0  0
   32.7384  -24.0181  -57.4218 O   0  0  0  0  0  0  0  0  0  0  0  0
   33.1157  -24.2017  -58.8105 O   0  0  0  0  0  0  0  0  0  0  0  0
   32.1219  -24.9856  -59.5223 O   0  0  0  0  0  0  0  0  0  0  0  0
   32.6658  -25.4425  -60.7892 O   0  0  0  0  0  0  0  0  0  0  0  0
   32.2041  -26.7802  -61.1045 O   0  0  0  0  0  0  0  0  0  0  0  0
   33.0020  -27.7761  -60.4178 O   0  0  0  0  0  0  0  0  0  0  0  0
   26.6227   25.6399  -34.1543 H   0  0  0  0  0  0  0  0  0  0  0  0
   28.0728   25.0291  -33.3381 H   0  0  0  0  0  0  0  0  0  0  0  0
   26.6018   25.4072  -32.4020 H   0  0  0  0  0  0  0  0  0  0  0  0
   26.8279   23.2919  -34.4478 H   0  0  0  0  0  0  0  0  0  0  0  0
   26.5767   23.1130  -31.5111 H   0  0  0  0  0  0  0  0  0  0  0  0
   28.0501   22.7570  -32.4373 H   0  0  0  0  0  0  0  0  0  0  0  0
   26.7971   20.9944  -33.7199 H   0  0  0  0  0  0  0  0  0  0  0  0
   25.3512   21.3381  -32.7925 H   0  0  0  0  0  0  0  0  0  0  0  0
   26.4839   20.6585  -30.6913 H   0  0  0  0  0  0  0  0  0  0  0  0
   28.0097   20.4076  -31.5840 H   0  0  0  0  0  0  0  0  0  0  0  0
   28.2618    1.6896  -24.1879 H   0  0  0  0  0  0  0  0  0  0  0  0
   28.0689    3.2115  -23.2596 H   0  0  0  0  0  0  0  0  0  0  0  0
   32.2284    2.9917  -22.8566 H   0  0  0  0  0  0  0  0  0  0  0  0
   31.9716    1.6497  -23.9877 H   0  0  0  0  0  0  0  0  0  0  0  0
   32.0712   -0.5714  -23.1625 H   0  0  0  0  0  0  0  0  0  0  0  0
   30.6180   -0.1976  -22.2234 H   0  0  0  0  0  0  0  0  0  0  0  0
   31.8446   -0.6825  -20.1125 H   0  0  0  0  0  0  0  0  0  0  0  0
   33.2991   -1.0821  -21.0458 H   0  0  0  0  0  0  0  0  0  0  0  0
   31.8481   -2.8288  -19.2593 H   0  0  0  0  0  0  0  0  0  0  0  0
   33.2195   -3.3856  -20.2715 H   0  0  0  0  0  0  0  0  0  0  0  0
   30.6460   -6.8197  -19.6108 H   0  0  0  0  0  0  0  0  0  0  0  0
   32.1231   -7.3171  -18.7689 H   0  0  0  0  0  0  0  0  0  0  0  0
   34.0838   -7.7351  -20.0587 H   0  0  0  0  0  0  0  0  0  0  0  0
   34.0738   -6.0269  -20.5968 H   0  0  0  0  0  0  0  0  0  0  0  0
   33.7495   -8.4482  -22.4353 H   0  0  0  0  0  0  0  0  0  0  0  0
   35.2632   -7.5095  -22.2484 H   0  0  0  0  0  0  0  0  0  0  0  0
   35.0100   -7.0152  -24.6533 H   0  0  0  0  0  0  0  0  0  0  0  0
   33.5723   -6.0788  -25.1304 H   0  0  0  0  0  0  0  0  0  0  0  0
   32.2648   -9.9026  -26.4133 H   0  0  0  0  0  0  0  0  0  0  0  0
   33.8068  -10.3297  -25.6348 H   0  0  0  0  0  0  0  0  0  0  0  0
   35.6839  -10.8643  -27.1424 H   0  0  0  0  0  0  0  0  0  0  0  0
   35.6121   -9.1158  -27.4591 H   0  0  0  0  0  0  0  0  0  0  0  0
   34.8473  -10.5900  -31.3752 H   0  0  0  0  0  0  0  0  0  0  0  0
   36.3749   -9.6584  -31.5084 H   0  0  0  0  0  0  0  0  0  0  0  0
   34.8753   -6.9812  -33.7668 H   0  0  0  0  0  0  0  0  0  0  0  0
   33.4931   -8.0012  -34.2802 H   0  0  0  0  0  0  0  0  0  0  0  0
   35.4506   -8.7209  -39.0622 H   0  0  0  0  0  0  0  0  0  0  0  0
   34.0165   -8.1578  -39.9853 H   0  0  0  0  0  0  0  0  0  0  0  0
   32.3652  -28.5020  -60.5322 H   0  0  0  0  0  0  0  0  0  0  0  0
  1  2  1  0  0  0  0
  1 82  1  0  0  0  0
  1 83  1  0  0  0  0
  1 84  1  0  0  0  0
  2  3  1  0  0  0  0
  2 85  1  0  0  0  0
  3  4  1  0  0  0  0
  3 86  1  0  0  0  0
  3 87  1  0  0  0  0
  4  5  1  0  0  0  0
  4 88  1  0  0  0  0
  4 89  1  0  0  0  0
  5  6  1  0  0  0  0
  5 90  1  0  0  0  0
  5 91  1  0  0  0  0
  6  7  1  0  0  0  0
  7  8  1  0  0  0  0
  8  9  1  0  0  0  0
  9 10  1  0  0  0  0
 10 11  1  0  0  0  0
 11 12  1  0  0  0  0
 12 13  1  0  0  0  0
 13 14  1  0  0  0  0
 14 15  1  0  0  0  0
 15 16  1  0  0  0  0
 16 17  1  0  0  0  0
 17 18  1  0  0  0  0
 18 19  1  0  0  0  0
 19 20  1  0  0  0  0
 20 21  1  0  0  0  0
 21 22  1  0  0  0  0
 22 23  1  0  0  0  0
 23 24  1  0  0  0  0
 23 92  1  0  0  0  0
 23 93  1  0  0  0  0
 24 25  1  0  0  0  0
 25 26  1  0  0  0  0
 26 27  1  0  0  0  0
 26 94  1  0  0  0  0
 26 95  1  0  0  0  0
 27 28  1  0  0  0  0
 28 29  1  0  0  0  0
 28 96  1  0  0  0  0
 28 97  1  0  0  0  0
 29 30  1  0  0  0  0
 29 98  1  0  0  0  0
 29 99  1  0  0  0  0
 30 31  1  0  0  0  0
 31 32  1  0  0  0  0
 31100  1  0  0  0  0
 31101  1  0  0  0  0
 32 33  1  0  0  0  0
 33 34  1  0  0  0  0
 34 35  1  0  0  0  0
 34102  1  0  0  0  0
 34103  1  0  0  0  0
 35 36  1  0  0  0  0
 36 37  1  0  0  0  0
 36104  1  0  0  0  0
 36105  1  0  0  0  0
 37 38  1  0  0  0  0
 37106  1  0  0  0  0
 37107  1  0  0  0  0
 38 39  1  0  0  0  0
 39 40  1  0  0  0  0
 39108  1  0  0  0  0
 39109  1  0  0  0  0
 40 41  1  0  0  0  0
 41 42  1  0  0  0  0
 42 43  1  0  0  0  0
 42110  1  0  0  0  0
 42111  1  0  0  0  0
 43 44  1  0  0  0  0
 44 45  1  0  0  0  0
 44112  1  0  0  0  0
 44113  1  0  0  0  0
 45 46  1  0  0  0  0
 46 47  1  0  0  0  0
 47 48  1  0  0  0  0
 47114  1  0  0  0  0
 47115  1  0  0  0  0
 48 49  1  0  0  0  0
 49 50  1  0  0  0  0
 50 51  1  0  0  0  0
 50116  1  0  0  0  0
 50117  1  0  0  0  0
 51 52  1  0  0  0  0
 52 53  1  0  0  0  0
 53 54  1  0  0  0  0
 54 55  1  0  0  0  0
 55 56  1  0  0  0  0
 55118  1  0  0  0  0
 55119  1  0  0  0  0
 56 57  1  0  0  0  0
 57 58  1  0  0  0  0
 58 59  1  0  0  0  0
 59 60  1  0  0  0  0
 60 61  1  0  0  0  0
 61 62  1  0  0  0  0
 62 63  1  0  0  0  0
 63 64  1  0  0  0  0
 64 65  1  0  0  0  0
 65 66  1  0  0  0  0
 66 67  1  0  0  0  0
 67 68  1  0  0  0  0
 68 69  1  0  0  0  0
 69 70  1  0  0  0  0
 70 71  1  0  0  0  0
 71 72  1  0  0  0  0
 72 73  1  0  0  0  0
 73 74  1  0  0  0  0
 74 75  1  0  0  0  0
 75 76  1  0  0  0  0
 76 77  1  0  0  0  0
 77 78  1  0  0  0  0
 78 79  1  0  0  0  0
 79 80  1  0  0  0  0
 80 81  1  0  0  0  0
 81120  1  0  0  0  0
M  END
$$$$
