
 OpenBabel04232216593D

182181  0  0  0  0  0  0  0  0999 V2000
    1.1593    0.4687   -0.3600 O   0  0  0  0  0  0  0  0  0  0  0  0
    2.2568    0.1093   -0.0186 C   0  0  0  0  0  0  0  0  0  0  0  0
    2.8831   -1.1622   -0.5649 C   0  0  0  0  0  0  0  0  0  0  0  0
    3.0430    0.8507    1.0652 C   0  0  0  0  0  0  0  0  0  0  0  0
    4.4450    0.7181    0.8925 O   0  0  0  0  0  0  0  0  0  0  0  0
    5.1420    1.4461    1.8945 C   0  0  0  0  0  0  0  0  0  0  0  0
    6.6312    1.2668    1.6680 C   0  0  0  0  0  0  0  0  0  0  0  0
    7.4097    2.0324    2.7243 C   0  0  0  0  0  0  0  0  0  0  0  0
    8.9041    1.8651    2.5101 C   0  0  0  0  0  0  0  0  0  0  0  0
    9.6709    2.6344    3.5712 C   0  0  0  0  0  0  0  0  0  0  0  0
   11.1675    2.4748    3.3641 C   0  0  0  0  0  0  0  0  0  0  0  0
   11.9117    3.2501    4.4297 C   0  0  0  0  0  0  0  0  0  0  0  0
   13.3091    3.0932    4.2227 O   0  0  0  0  0  0  0  0  0  0  0  0
   14.0197    3.8189    5.2169 C   0  0  0  0  0  0  0  0  0  0  0  0
   15.5045    3.6420    4.9861 C   0  0  0  0  0  0  0  0  0  0  0  0
   16.2762    4.4130    6.0426 C   0  0  0  0  0  0  0  0  0  0  0  0
   17.7689    4.2510    5.8289 C   0  0  0  0  0  0  0  0  0  0  0  0
   18.5310    5.0266    6.8884 C   0  0  0  0  0  0  0  0  0  0  0  0
   20.0239    4.8617    6.6739 C   0  0  0  0  0  0  0  0  0  0  0  0
   20.7867    5.6347    7.7332 C   0  0  0  0  0  0  0  0  0  0  0  0
   22.2791    5.4704    7.5163 C   0  0  0  0  0  0  0  0  0  0  0  0
   23.0420    6.2448    8.5741 C   0  0  0  0  0  0  0  0  0  0  0  0
   24.5342    6.0821    8.3559 C   0  0  0  0  0  0  0  0  0  0  0  0
   25.2963    6.8584    9.4129 C   0  0  0  0  0  0  0  0  0  0  0  0
   26.7882    6.6939    9.1955 C   0  0  0  0  0  0  0  0  0  0  0  0
   27.5504    7.4699   10.2521 C   0  0  0  0  0  0  0  0  0  0  0  0
   29.0423    7.3067   10.0333 C   0  0  0  0  0  0  0  0  0  0  0  0
   29.8050    8.0828   11.0900 C   0  0  0  0  0  0  0  0  0  0  0  0
   31.2971    7.9201   10.8718 C   0  0  0  0  0  0  0  0  0  0  0  0
   32.0595    8.6963   11.9286 C   0  0  0  0  0  0  0  0  0  0  0  0
   33.5517    8.5351   11.7091 C   0  0  0  0  0  0  0  0  0  0  0  0
   34.3145    9.3111   12.7656 C   0  0  0  0  0  0  0  0  0  0  0  0
   35.8066    9.1499   12.5461 C   0  0  0  0  0  0  0  0  0  0  0  0
   36.5691    9.9260   13.6027 C   0  0  0  0  0  0  0  0  0  0  0  0
   38.0611    9.7664   13.3820 C   0  0  0  0  0  0  0  0  0  0  0  0
   38.8237   10.5441   14.4375 C   0  0  0  0  0  0  0  0  0  0  0  0
   40.3157   10.3861   14.2156 C   0  0  0  0  0  0  0  0  0  0  0  0
   41.0785   11.1654   15.2697 C   0  0  0  0  0  0  0  0  0  0  0  0
   42.5707   11.0090   15.0466 C   0  0  0  0  0  0  0  0  0  0  0  0
   43.3331   11.7901   16.0998 C   0  0  0  0  0  0  0  0  0  0  0  0
   44.8253   11.6339   15.8769 C   0  0  0  0  0  0  0  0  0  0  0  0
   45.5879   12.4149   16.9300 C   0  0  0  0  0  0  0  0  0  0  0  0
   47.0798   12.2581   16.7064 C   0  0  0  0  0  0  0  0  0  0  0  0
   47.8420   13.0389   17.7593 C   0  0  0  0  0  0  0  0  0  0  0  0
   49.3338   12.8825   17.5360 C   0  0  0  0  0  0  0  0  0  0  0  0
   50.0955   13.6636   18.5894 C   0  0  0  0  0  0  0  0  0  0  0  0
   51.5871   13.5071   18.3661 C   0  0  0  0  0  0  0  0  0  0  0  0
   52.3484   14.2879   19.4189 C   0  0  0  0  0  0  0  0  0  0  0  0
   53.8385   14.1292   19.1960 C   0  0  0  0  0  0  0  0  0  0  0  0
   54.5963   14.9114   20.2475 C   0  0  0  0  0  0  0  0  0  0  0  0
   56.0817   14.7477   20.0212 C   0  0  0  0  0  0  0  0  0  0  0  0
   56.8342   15.5282   21.0705 C   0  0  0  0  0  0  0  0  0  0  0  0
   58.3099   15.3567   20.8304 C   0  0  0  0  0  0  0  0  0  0  0  0
   59.0457   16.1308   21.8742 C   0  0  0  0  0  0  0  0  0  0  0  0
   60.4988   15.9567   21.6274 C   0  0  0  0  0  0  0  0  0  0  0  0
   61.0668   16.7097   22.6439 O   0  0  0  0  0  0  0  0  0  0  0  0
   62.4326   16.5284   22.3913 O   0  0  0  0  0  0  0  0  0  0  0  0
   63.1113   17.2460   23.3594 O   0  0  0  0  0  0  0  0  0  0  0  0
   64.4708   17.0717   23.1162 O   0  0  0  0  0  0  0  0  0  0  0  0
   65.1273   17.7904   24.0859 O   0  0  0  0  0  0  0  0  0  0  0  0
   66.4752   17.6293   23.8607 O   0  0  0  0  0  0  0  0  0  0  0  0
   67.1125   18.3537   24.8382 O   0  0  0  0  0  0  0  0  0  0  0  0
   68.4581   18.1834   24.6004 O   0  0  0  0  0  0  0  0  0  0  0  0
   69.1018   18.9047   25.5738 O   0  0  0  0  0  0  0  0  0  0  0  0
   70.4408   18.7291   25.3289 O   0  0  0  0  0  0  0  0  0  0  0  0
   71.0820   19.4523   26.3048 O   0  0  0  0  0  0  0  0  0  0  0  0
   72.4225   19.2815   26.0664 O   0  0  0  0  0  0  0  0  0  0  0  0
   73.0593   20.0054   27.0432 O   0  0  0  0  0  0  0  0  0  0  0  0
   74.4010   19.8343   26.8044 O   0  0  0  0  0  0  0  0  0  0  0  0
   75.0524   20.5582   27.7812 O   0  0  0  0  0  0  0  0  0  0  0  0
   76.3930   20.3807   27.5339 O   0  0  0  0  0  0  0  0  0  0  0  0
   77.0661   21.1025   28.5077 O   0  0  0  0  0  0  0  0  0  0  0  0
   78.4142   20.9262   28.2615 O   0  0  0  0  0  0  0  0  0  0  0  0
   79.0879   21.6558   29.2454 O   0  0  0  0  0  0  0  0  0  0  0  0
   80.4568   21.4909   29.0425 O   0  0  0  0  0  0  0  0  0  0  0  0
   81.1312   22.2312   30.0489 O   0  0  0  0  0  0  0  0  0  0  0  0
   82.5308   22.0947   29.8227 O   0  0  0  0  0  0  0  0  0  0  0  0
   82.8526   22.5946   28.4997 O   0  0  0  0  0  0  0  0  0  0  0  0
    2.2058   -1.5934   -1.3067 H   0  0  0  0  0  0  0  0  0  0  0  0
    3.0463   -1.8882    0.2332 H   0  0  0  0  0  0  0  0  0  0  0  0
    3.8237   -0.9171   -1.0563 H   0  0  0  0  0  0  0  0  0  0  0  0
    2.7494    0.4592    2.0436 H   0  0  0  0  0  0  0  0  0  0  0  0
    2.7688    1.9069    0.9853 H   0  0  0  0  0  0  0  0  0  0  0  0
    4.8668    1.0685    2.8869 H   0  0  0  0  0  0  0  0  0  0  0  0
    4.8791    2.5087    1.8310 H   0  0  0  0  0  0  0  0  0  0  0  0
    6.9002    1.6152    0.6630 H   0  0  0  0  0  0  0  0  0  0  0  0
    6.8877    0.2004    1.6978 H   0  0  0  0  0  0  0  0  0  0  0  0
    7.1344    1.6713    3.7232 H   0  0  0  0  0  0  0  0  0  0  0  0
    7.1448    3.0964    2.6825 H   0  0  0  0  0  0  0  0  0  0  0  0
    9.1809    2.2297    1.5137 H   0  0  0  0  0  0  0  0  0  0  0  0
    9.1706    0.8025    2.5559 H   0  0  0  0  0  0  0  0  0  0  0  0
    9.3922    2.2717    4.5687 H   0  0  0  0  0  0  0  0  0  0  0  0
    9.4004    3.6972    3.5292 H   0  0  0  0  0  0  0  0  0  0  0  0
   11.4604    2.8324    2.3693 H   0  0  0  0  0  0  0  0  0  0  0  0
   11.4526    1.4164    3.4047 H   0  0  0  0  0  0  0  0  0  0  0  0
   11.6456    2.8719    5.4238 H   0  0  0  0  0  0  0  0  0  0  0  0
   11.6513    4.3135    4.3711 H   0  0  0  0  0  0  0  0  0  0  0  0
   13.7468    3.4415    6.2094 H   0  0  0  0  0  0  0  0  0  0  0  0
   13.7541    4.8808    5.1537 H   0  0  0  0  0  0  0  0  0  0  0  0
   15.7709    3.9911    3.9809 H   0  0  0  0  0  0  0  0  0  0  0  0
   15.7637    2.5766    5.0184 H   0  0  0  0  0  0  0  0  0  0  0  0
   16.0027    4.0525    7.0423 H   0  0  0  0  0  0  0  0  0  0  0  0
   16.0079    5.4762    5.9997 H   0  0  0  0  0  0  0  0  0  0  0  0
   18.0446    4.6134    4.8311 H   0  0  0  0  0  0  0  0  0  0  0  0
   18.0397    3.1893    5.8769 H   0  0  0  0  0  0  0  0  0  0  0  0
   18.2552    4.6668    7.8874 H   0  0  0  0  0  0  0  0  0  0  0  0
   18.2621    6.0892    6.8411 H   0  0  0  0  0  0  0  0  0  0  0  0
   20.3002    5.2233    5.6758 H   0  0  0  0  0  0  0  0  0  0  0  0
   20.2931    3.7993    6.7203 H   0  0  0  0  0  0  0  0  0  0  0  0
   20.5119    5.2722    8.7314 H   0  0  0  0  0  0  0  0  0  0  0  0
   20.5171    6.6971    7.6879 H   0  0  0  0  0  0  0  0  0  0  0  0
   22.5539    5.8317    6.5177 H   0  0  0  0  0  0  0  0  0  0  0  0
   22.5492    4.4083    7.5631 H   0  0  0  0  0  0  0  0  0  0  0  0
   22.7687    5.8828    9.5729 H   0  0  0  0  0  0  0  0  0  0  0  0
   22.7713    7.3069    8.5284 H   0  0  0  0  0  0  0  0  0  0  0  0
   24.8079    6.4430    7.3568 H   0  0  0  0  0  0  0  0  0  0  0  0
   24.8057    5.0203    8.4031 H   0  0  0  0  0  0  0  0  0  0  0  0
   25.0219    6.4986   10.4122 H   0  0  0  0  0  0  0  0  0  0  0  0
   25.0261    7.9206    9.3647 H   0  0  0  0  0  0  0  0  0  0  0  0
   27.0626    7.0544    8.1964 H   0  0  0  0  0  0  0  0  0  0  0  0
   27.0584    5.6318    9.2443 H   0  0  0  0  0  0  0  0  0  0  0  0
   27.2770    7.1084   11.2512 H   0  0  0  0  0  0  0  0  0  0  0  0
   27.2792    8.5319   10.2042 H   0  0  0  0  0  0  0  0  0  0  0  0
   29.3155    7.6680    9.0340 H   0  0  0  0  0  0  0  0  0  0  0  0
   29.3134    6.2446   10.0809 H   0  0  0  0  0  0  0  0  0  0  0  0
   29.5315    7.7214   12.0891 H   0  0  0  0  0  0  0  0  0  0  0  0
   29.5336    9.1447   11.0421 H   0  0  0  0  0  0  0  0  0  0  0  0
   31.5703    8.2814    9.8726 H   0  0  0  0  0  0  0  0  0  0  0  0
   31.5683    6.8582   10.9194 H   0  0  0  0  0  0  0  0  0  0  0  0
   31.7873    8.3342   12.9277 H   0  0  0  0  0  0  0  0  0  0  0  0
   31.7874    9.7580   11.8819 H   0  0  0  0  0  0  0  0  0  0  0  0
   33.8239    8.8973   10.7099 H   0  0  0  0  0  0  0  0  0  0  0  0
   33.8239    7.4733   11.7558 H   0  0  0  0  0  0  0  0  0  0  0  0
   34.0424    8.9488   13.7647 H   0  0  0  0  0  0  0  0  0  0  0  0
   34.0423   10.3729   12.7188 H   0  0  0  0  0  0  0  0  0  0  0  0
   36.0787    9.5122   11.5469 H   0  0  0  0  0  0  0  0  0  0  0  0
   36.0788    8.0881   12.5929 H   0  0  0  0  0  0  0  0  0  0  0  0
   36.2980    9.5628   14.6018 H   0  0  0  0  0  0  0  0  0  0  0  0
   36.2959   10.9875   13.5568 H   0  0  0  0  0  0  0  0  0  0  0  0
   38.3320   10.1283   12.3824 H   0  0  0  0  0  0  0  0  0  0  0  0
   38.3346    8.7050   13.4293 H   0  0  0  0  0  0  0  0  0  0  0  0
   38.5539   10.1812   15.4370 H   0  0  0  0  0  0  0  0  0  0  0  0
   38.5491   11.6053   14.3910 H   0  0  0  0  0  0  0  0  0  0  0  0
   40.5853   10.7477   13.2155 H   0  0  0  0  0  0  0  0  0  0  0  0
   40.5905    9.3251   14.2633 H   0  0  0  0  0  0  0  0  0  0  0  0
   40.8100   10.8030   16.2698 H   0  0  0  0  0  0  0  0  0  0  0  0
   40.8027   12.2262   15.2230 H   0  0  0  0  0  0  0  0  0  0  0  0
   42.8389   11.3701   14.0460 H   0  0  0  0  0  0  0  0  0  0  0  0
   42.8467    9.9484   15.0946 H   0  0  0  0  0  0  0  0  0  0  0  0
   43.0648   11.4290   17.1003 H   0  0  0  0  0  0  0  0  0  0  0  0
   43.0570   12.8507   16.0517 H   0  0  0  0  0  0  0  0  0  0  0  0
   45.0937   11.9952   14.8764 H   0  0  0  0  0  0  0  0  0  0  0  0
   45.1016   10.5733   15.9252 H   0  0  0  0  0  0  0  0  0  0  0  0
   45.3197   12.0537   17.9307 H   0  0  0  0  0  0  0  0  0  0  0  0
   45.3119   13.4756   16.8819 H   0  0  0  0  0  0  0  0  0  0  0  0
   47.3482   12.6195   15.7058 H   0  0  0  0  0  0  0  0  0  0  0  0
   47.3560   11.1974   16.7547 H   0  0  0  0  0  0  0  0  0  0  0  0
   47.5738   12.6776   18.7598 H   0  0  0  0  0  0  0  0  0  0  0  0
   47.5660   14.0996   17.7109 H   0  0  0  0  0  0  0  0  0  0  0  0
   49.6024   13.2433   16.5354 H   0  0  0  0  0  0  0  0  0  0  0  0
   49.6102   11.8219   17.5838 H   0  0  0  0  0  0  0  0  0  0  0  0
   49.8269   13.3030   19.5901 H   0  0  0  0  0  0  0  0  0  0  0  0
   49.8191   14.7243   18.5418 H   0  0  0  0  0  0  0  0  0  0  0  0
   51.8558   13.8680   17.3657 H   0  0  0  0  0  0  0  0  0  0  0  0
   51.8635   12.4467   18.4141 H   0  0  0  0  0  0  0  0  0  0  0  0
   52.0801   13.9283   20.4200 H   0  0  0  0  0  0  0  0  0  0  0  0
   52.0743   15.3490   19.3705 H   0  0  0  0  0  0  0  0  0  0  0  0
   54.1101   14.4882   18.1956 H   0  0  0  0  0  0  0  0  0  0  0  0
   54.1161   13.0690   19.2469 H   0  0  0  0  0  0  0  0  0  0  0  0
   54.3297   14.5547   21.2500 H   0  0  0  0  0  0  0  0  0  0  0  0
   54.3257   15.9733   20.1975 H   0  0  0  0  0  0  0  0  0  0  0  0
   56.3569   15.1069   19.0218 H   0  0  0  0  0  0  0  0  0  0  0  0
   56.3609   13.6881   20.0745 H   0  0  0  0  0  0  0  0  0  0  0  0
   56.5760   15.1721   22.0754 H   0  0  0  0  0  0  0  0  0  0  0  0
   56.5700   16.5919   21.0236 H   0  0  0  0  0  0  0  0  0  0  0  0
   58.5887   15.7208   19.8333 H   0  0  0  0  0  0  0  0  0  0  0  0
   58.5945   14.2981   20.8843 H   0  0  0  0  0  0  0  0  0  0  0  0
   58.8008   15.7886   22.8910 H   0  0  0  0  0  0  0  0  0  0  0  0
   58.7931   17.2015   21.8489 H   0  0  0  0  0  0  0  0  0  0  0  0
   60.8119   16.3532   20.6549 H   0  0  0  0  0  0  0  0  0  0  0  0
   60.8197   14.9126   21.7174 H   0  0  0  0  0  0  0  0  0  0  0  0
   83.7928   22.3933   28.5775 H   0  0  0  0  0  0  0  0  0  0  0  0
  1  2  2  0  0  0  0
  2  3  1  0  0  0  0
  2  4  1  0  0  0  0
  3 79  1  0  0  0  0
  3 80  1  0  0  0  0
  3 81  1  0  0  0  0
  4  5  1  0  0  0  0
  4 82  1  0  0  0  0
  4 83  1  0  0  0  0
  5  6  1  0  0  0  0
  6  7  1  0  0  0  0
  6 84  1  0  0  0  0
  6 85  1  0  0  0  0
  7  8  1  0  0  0  0
  7 86  1  0  0  0  0
  7 87  1  0  0  0  0
  8  9  1  0  0  0  0
  8 88  1  0  0  0  0
  8 89  1  0  0  0  0
  9 10  1  0  0  0  0
  9 90  1  0  0  0  0
  9 91  1  0  0  0  0
 10 11  1  0  0  0  0
 10 92  1  0  0  0  0
 10 93  1  0  0  0  0
 11 12  1  0  0  0  0
 11 94  1  0  0  0  0
 11 95  1  0  0  0  0
 12 13  1  0  0  0  0
 12 96  1  0  0  0  0
 12 97  1  0  0  0  0
 13 14  1  0  0  0  0
 14 15  1  0  0  0  0
 14 98  1  0  0  0  0
 14 99  1  0  0  0  0
 15 16  1  0  0  0  0
 15100  1  0  0  0  0
 15101  1  0  0  0  0
 16 17  1  0  0  0  0
 16102  1  0  0  0  0
 16103  1  0  0  0  0
 17 18  1  0  0  0  0
 17104  1  0  0  0  0
 17105  1  0  0  0  0
 18 19  1  0  0  0  0
 18106  1  0  0  0  0
 18107  1  0  0  0  0
 19 20  1  0  0  0  0
 19108  1  0  0  0  0
 19109  1  0  0  0  0
 20 21  1  0  0  0  0
 20110  1  0  0  0  0
 20111  1  0  0  0  0
 21 22  1  0  0  0  0
 21112  1  0  0  0  0
 21113  1  0  0  0  0
 22 23  1  0  0  0  0
 22114  1  0  0  0  0
 22115  1  0  0  0  0
 23 24  1  0  0  0  0
 23116  1  0  0  0  0
 23117  1  0  0  0  0
 24 25  1  0  0  0  0
 24118  1  0  0  0  0
 24119  1  0  0  0  0
 25 26  1  0  0  0  0
 25120  1  0  0  0  0
 25121  1  0  0  0  0
 26 27  1  0  0  0  0
 26122  1  0  0  0  0
 26123  1  0  0  0  0
 27 28  1  0  0  0  0
 27124  1  0  0  0  0
 27125  1  0  0  0  0
 28 29  1  0  0  0  0
 28126  1  0  0  0  0
 28127  1  0  0  0  0
 29 30  1  0  0  0  0
 29128  1  0  0  0  0
 29129  1  0  0  0  0
 30 31  1  0  0  0  0
 30130  1  0  0  0  0
 30131  1  0  0  0  0
 31 32  1  0  0  0  0
 31132  1  0  0  0  0
 31133  1  0  0  0  0
 32 33  1  0  0  0  0
 32134  1  0  0  0  0
 32135  1  0  0  0  0
 33 34  1  0  0  0  0
 33136  1  0  0  0  0
 33137  1  0  0  0  0
 34 35  1  0  0  0  0
 34138  1  0  0  0  0
 34139  1  0  0  0  0
 35 36  1  0  0  0  0
 35140  1  0  0  0  0
 35141  1  0  0  0  0
 36 37  1  0  0  0  0
 36142  1  0  0  0  0
 36143  1  0  0  0  0
 37 38  1  0  0  0  0
 37144  1  0  0  0  0
 37145  1  0  0  0  0
 38 39  1  0  0  0  0
 38146  1  0  0  0  0
 38147  1  0  0  0  0
 39 40  1  0  0  0  0
 39148  1  0  0  0  0
 39149  1  0  0  0  0
 40 41  1  0  0  0  0
 40150  1  0  0  0  0
 40151  1  0  0  0  0
 41 42  1  0  0  0  0
 41152  1  0  0  0  0
 41153  1  0  0  0  0
 42 43  1  0  0  0  0
 42154  1  0  0  0  0
 42155  1  0  0  0  0
 43 44  1  0  0  0  0
 43156  1  0  0  0  0
 43157  1  0  0  0  0
 44 45  1  0  0  0  0
 44158  1  0  0  0  0
 44159  1  0  0  0  0
 45 46  1  0  0  0  0
 45160  1  0  0  0  0
 45161  1  0  0  0  0
 46 47  1  0  0  0  0
 46162  1  0  0  0  0
 46163  1  0  0  0  0
 47 48  1  0  0  0  0
 47164  1  0  0  0  0
 47165  1  0  0  0  0
 48 49  1  0  0  0  0
 48166  1  0  0  0  0
 48167  1  0  0  0  0
 49 50  1  0  0  0  0
 49168  1  0  0  0  0
 49169  1  0  0  0  0
 50 51  1  0  0  0  0
 50170  1  0  0  0  0
 50171  1  0  0  0  0
 51 52  1  0  0  0  0
 51172  1  0  0  0  0
 51173  1  0  0  0  0
 52 53  1  0  0  0  0
 52174  1  0  0  0  0
 52175  1  0  0  0  0
 53 54  1  0  0  0  0
 53176  1  0  0  0  0
 53177  1  0  0  0  0
 54 55  1  0  0  0  0
 54178  1  0  0  0  0
 54179  1  0  0  0  0
 55 56  1  0  0  0  0
 55180  1  0  0  0  0
 55181  1  0  0  0  0
 56 57  1  0  0  0  0
 57 58  1  0  0  0  0
 58 59  1  0  0  0  0
 59 60  1  0  0  0  0
 60 61  1  0  0  0  0
 61 62  1  0  0  0  0
 62 63  1  0  0  0  0
 63 64  1  0  0  0  0
 64 65  1  0  0  0  0
 65 66  1  0  0  0  0
 66 67  1  0  0  0  0
 67 68  1  0  0  0  0
 68 69  1  0  0  0  0
 69 70  1  0  0  0  0
 70 71  1  0  0  0  0
 71 72  1  0  0  0  0
 72 73  1  0  0  0  0
 73 74  1  0  0  0  0
 74 75  1  0  0  0  0
 75 76  1  0  0  0  0
 76 77  1  0  0  0  0
 77 78  1  0  0  0  0
 78182  1  0  0  0  0
M  END
$$$$
